PYK.pdb
     RDKit          3D

 29 30  0  0  1  0  0  0  0  0999 V2000
   28.4688  -21.3786  -16.3275 N   0  0  0  0  0  0  0  0  0  0  0  0
   29.5066  -21.9827  -17.1054 C   0  0  0  0  0  0  0  0  0  0  0  0
   28.8442  -22.6326  -18.3083 C   0  0  0  0  0  0  0  0  0  0  0  0
   27.5025  -23.0322  -17.7114 C   0  0  0  0  0  0  0  0  0  0  0  0
   27.2013  -21.8122  -16.8515 C   0  0  1  0  0  0  0  0  0  0  0  0
   26.2020  -22.0848  -15.8176 C   0  0  0  0  0  0  0  0  0  0  0  0
   25.7306  -23.2410  -15.6944 O   0  0  0  0  0  0  0  0  0  0  0  0
   22.5747  -20.4878   -7.7798 O   0  0  0  0  0  0  0  0  0  0  0  0
   23.2551  -20.4547   -9.0150 C   0  0  0  0  0  0  0  0  0  0  0  0
   24.5206  -20.9782   -9.1375 C   0  0  0  0  0  0  0  0  0  0  0  0
   25.1784  -20.9394  -10.3571 C   0  0  0  0  0  0  0  0  0  0  0  0
   24.6128  -20.3899  -11.4776 C   0  0  0  0  0  0  0  0  0  0  0  0
   25.3073  -20.3607  -12.7660 C   0  0  0  0  0  0  0  0  0  0  0  0
   24.8404  -21.2739  -13.8330 C   0  0  2  0  0  0  0  0  0  0  0  0
   25.7718  -21.0520  -14.9647 N   0  0  0  0  0  0  0  0  0  0  0  0
   23.4938  -21.0249  -14.3520 C   0  0  0  0  0  0  0  0  0  0  0  0
   23.2815  -20.0770  -15.2065 O   0  0  0  0  0  0  0  0  0  0  0  0
   23.3399  -19.8687  -11.3339 C   0  0  0  0  0  0  0  0  0  0  0  0
   22.6711  -19.8984  -10.1294 C   0  0  0  0  0  0  0  0  0  0  0  0
   22.3224  -21.7506  -14.0130 N   0  0  0  0  0  0  0  0  0  0  0  0
   21.0106  -21.3813  -14.5604 C   0  0  1  0  0  0  0  0  0  0  0  0
   20.2647  -22.6683  -14.8643 C   0  0  0  0  0  0  0  0  0  0  0  0
   18.9360  -22.4693  -15.5082 C   0  0  0  0  0  0  0  0  0  0  0  0
   18.2260  -23.7952  -15.7736 C   0  0  0  0  0  0  0  0  0  0  0  0
   16.9092  -23.5319  -16.4620 C   0  0  0  0  0  0  0  0  0  0  0  0
   16.2136  -24.8145  -16.5790 N   0  0  0  0  0  0  0  0  0  0  0  0
   20.2781  -20.5036  -13.6542 C   0  0  0  0  0  0  0  0  0  0  0  0
   20.3254  -20.5189  -12.2743 O   0  0  0  0  0  0  0  0  0  0  0  0
   19.4920  -19.6041  -14.1305 O   0  0  0  0  0  0  0  0  0  0  0  0
  1  5  1  0
  2  1  1  0
  3  2  1  0
  3  4  1  0
  4  5  1  0
  6  7  2  0
  5  6  1  1
  8  9  1  0
  9 19  2  0
  9 10  1  0
 10 11  2  0
 12 11  1  0
 12 13  1  0
 14 13  1  1
 14 16  1  0
 14 15  1  0
 15  6  1  0
 16 17  2  0
 18 12  2  0
 19 18  1  0
 20 16  1  0
 20 21  1  0
 21 27  1  0
 22 23  1  0
 21 22  1  1
 24 23  1  0
 25 24  1  0
 26 25  1  0
 27 29  2  0
 27 28  1  0
M  END
$$$$
