PYK.pdb
     RDKit          3D

 29 30  0  0  1  0  0  0  0  0999 V2000
   27.7050  -20.8767  -17.6371 N   0  0  0  0  0  0  0  0  0  0  0  0
   28.9690  -20.3881  -18.0961 C   0  0  0  0  0  0  0  0  0  0  0  0
   29.9246  -21.5690  -18.1179 C   0  0  0  0  0  0  0  0  0  0  0  0
   29.3864  -22.3905  -16.9553 C   0  0  0  0  0  0  0  0  0  0  0  0
   27.8870  -22.2216  -17.1604 C   0  0  1  0  0  0  0  0  0  0  0  0
   27.1160  -22.5253  -15.9540 C   0  0  0  0  0  0  0  0  0  0  0  0
   27.2447  -23.6413  -15.3952 O   0  0  0  0  0  0  0  0  0  0  0  0
   23.6576  -20.3873   -8.0643 O   0  0  0  0  0  0  0  0  0  0  0  0
   24.2222  -20.4549   -9.3553 C   0  0  0  0  0  0  0  0  0  0  0  0
   25.5001  -20.9266   -9.5425 C   0  0  0  0  0  0  0  0  0  0  0  0
   26.0431  -20.9879  -10.8164 C   0  0  0  0  0  0  0  0  0  0  0  0
   25.3490  -20.5906  -11.9290 C   0  0  0  0  0  0  0  0  0  0  0  0
   25.9231  -20.6670  -13.2734 C   0  0  0  0  0  0  0  0  0  0  0  0
   25.4861  -21.7695  -14.1589 C   0  0  2  0  0  0  0  0  0  0  0  0
   26.2330  -21.5672  -15.4233 N   0  0  0  0  0  0  0  0  0  0  0  0
   24.0661  -21.7857  -14.5166 C   0  0  0  0  0  0  0  0  0  0  0  0
   23.5960  -20.9520  -15.3869 O   0  0  0  0  0  0  0  0  0  0  0  0
   24.0658  -20.1192  -11.7198 C   0  0  0  0  0  0  0  0  0  0  0  0
   23.5099  -20.0510  -10.4607 C   0  0  0  0  0  0  0  0  0  0  0  0
   23.0849  -22.6680  -13.9943 N   0  0  0  0  0  0  0  0  0  0  0  0
   21.6621  -22.5064  -14.3204 C   0  0  1  0  0  0  0  0  0  0  0  0
   20.9185  -23.6820  -13.7120 C   0  0  0  0  0  0  0  0  0  0  0  0
   19.4480  -23.6670  -13.9507 C   0  0  0  0  0  0  0  0  0  0  0  0
   18.7902  -24.9839  -13.5435 C   0  0  0  0  0  0  0  0  0  0  0  0
   17.2925  -24.8624  -13.6829 C   0  0  0  0  0  0  0  0  0  0  0  0
   16.9698  -25.0423  -15.0993 N   0  0  0  0  0  0  0  0  0  0  0  0
   21.1501  -21.2177  -13.8674 C   0  0  0  0  0  0  0  0  0  0  0  0
   21.1707  -20.7307  -12.5755 O   0  0  0  0  0  0  0  0  0  0  0  0
   20.6132  -20.4098  -14.7117 O   0  0  0  0  0  0  0  0  0  0  0  0
  1  5  1  0
  2  1  1  0
  3  2  1  0
  3  4  1  0
  4  5  1  0
  6  7  2  0
  5  6  1  1
  8  9  1  0
  9 19  2  0
  9 10  1  0
 10 11  2  0
 12 11  1  0
 12 13  1  0
 14 13  1  1
 14 16  1  0
 14 15  1  0
 15  6  1  0
 16 17  2  0
 18 12  2  0
 19 18  1  0
 20 16  1  0
 20 21  1  0
 21 27  1  0
 22 23  1  0
 21 22  1  1
 24 23  1  0
 25 24  1  0
 26 25  1  0
 27 29  2  0
 27 28  1  0
M  END
$$$$
