PYK.pdb
     RDKit          3D

 29 30  0  0  1  0  0  0  0  0999 V2000
   22.9294  -20.8788  -16.4454 N   0  0  0  0  0  0  0  0  0  0  0  0
   23.5243  -20.2240  -17.5700 C   0  0  0  0  0  0  0  0  0  0  0  0
   24.6957  -19.4105  -17.0465 C   0  0  0  0  0  0  0  0  0  0  0  0
   24.1849  -19.0365  -15.6625 C   0  0  0  0  0  0  0  0  0  0  0  0
   23.5146  -20.3392  -15.2474 C   0  0  1  0  0  0  0  0  0  0  0  0
   22.5551  -20.1563  -14.1574 C   0  0  0  0  0  0  0  0  0  0  0  0
   22.9273  -19.6336  -13.0792 O   0  0  0  0  0  0  0  0  0  0  0  0
   19.9099  -13.8663  -14.2230 O   0  0  0  0  0  0  0  0  0  0  0  0
   19.7179  -15.2629  -14.1730 C   0  0  0  0  0  0  0  0  0  0  0  0
   19.6125  -16.0022  -15.3276 C   0  0  0  0  0  0  0  0  0  0  0  0
   19.4240  -17.3741  -15.2646 C   0  0  0  0  0  0  0  0  0  0  0  0
   19.3354  -18.0479  -14.0749 C   0  0  0  0  0  0  0  0  0  0  0  0
   19.1467  -19.4983  -14.0136 C   0  0  0  0  0  0  0  0  0  0  0  0
   20.1662  -20.3071  -13.3087 C   0  0  2  0  0  0  0  0  0  0  0  0
   21.2191  -20.5659  -14.3196 N   0  0  0  0  0  0  0  0  0  0  0  0
   19.7282  -21.6179  -12.8243 C   0  0  0  0  0  0  0  0  0  0  0  0
   19.5822  -22.6084  -13.6436 O   0  0  0  0  0  0  0  0  0  0  0  0
   19.4435  -17.2867  -12.9253 C   0  0  0  0  0  0  0  0  0  0  0  0
   19.6310  -15.9222  -12.9688 C   0  0  0  0  0  0  0  0  0  0  0  0
   19.4338  -21.9530  -11.4771 N   0  0  0  0  0  0  0  0  0  0  0  0
   18.9383  -23.2867  -11.1131 C   0  0  1  0  0  0  0  0  0  0  0  0
   19.0170  -23.4055   -9.6016 C   0  0  0  0  0  0  0  0  0  0  0  0
   18.4269  -24.6589   -9.0537 C   0  0  0  0  0  0  0  0  0  0  0  0
   18.4041  -24.6592   -7.5265 C   0  0  0  0  0  0  0  0  0  0  0  0
   17.6526  -25.8718   -7.0347 C   0  0  0  0  0  0  0  0  0  0  0  0
   17.5061  -25.7362   -5.5846 N   0  0  0  0  0  0  0  0  0  0  0  0
   17.5940  -23.5197  -11.6295 C   0  0  0  0  0  0  0  0  0  0  0  0
   16.5683  -22.5983  -11.7035 O   0  0  0  0  0  0  0  0  0  0  0  0
   17.2721  -24.6825  -12.0749 O   0  0  0  0  0  0  0  0  0  0  0  0
  1  5  1  0
  2  1  1  0
  3  2  1  0
  3  4  1  0
  4  5  1  0
  6  7  2  0
  5  6  1  1
  8  9  1  0
  9 19  2  0
  9 10  1  0
 10 11  2  0
 12 11  1  0
 12 13  1  0
 14 13  1  6
 14 16  1  0
 14 15  1  0
 15  6  1  0
 16 17  2  0
 18 12  2  0
 19 18  1  0
 20 16  1  0
 20 21  1  0
 21 27  1  0
 22 23  1  0
 21 22  1  1
 24 23  1  0
 25 24  1  0
 26 25  1  0
 27 29  2  0
 27 28  1  0
M  END
$$$$
