PYK.pdb
     RDKit          3D

 29 30  0  0  1  0  0  0  0  0999 V2000
   21.7894  -13.6151  -18.8542 N   0  0  0  0  0  0  0  0  0  0  0  0
   22.2430  -14.9698  -18.7744 C   0  0  0  0  0  0  0  0  0  0  0  0
   21.0265  -15.8333  -18.4871 C   0  0  0  0  0  0  0  0  0  0  0  0
   20.1871  -14.8729  -17.6568 C   0  0  0  0  0  0  0  0  0  0  0  0
   20.4226  -13.5698  -18.4083 C   0  0  1  0  0  0  0  0  0  0  0  0
   20.1080  -12.3898  -17.6016 C   0  0  0  0  0  0  0  0  0  0  0  0
   18.9487  -12.2350  -17.1474 O   0  0  0  0  0  0  0  0  0  0  0  0
   22.5201   -5.3287  -12.5504 O   0  0  0  0  0  0  0  0  0  0  0  0
   22.3860   -6.5064  -13.3152 C   0  0  0  0  0  0  0  0  0  0  0  0
   22.9540   -6.6054  -14.5635 C   0  0  0  0  0  0  0  0  0  0  0  0
   22.8148   -7.7684  -15.3048 C   0  0  0  0  0  0  0  0  0  0  0  0
   22.1197   -8.8544  -14.8410 C   0  0  0  0  0  0  0  0  0  0  0  0
   21.9844  -10.0843  -15.6233 C   0  0  0  0  0  0  0  0  0  0  0  0
   20.8484  -10.1923  -16.5657 C   0  0  2  0  0  0  0  0  0  0  0  0
   21.1041  -11.4323  -17.3369 N   0  0  0  0  0  0  0  0  0  0  0  0
   20.7205   -9.1142  -17.5486 C   0  0  0  0  0  0  0  0  0  0  0  0
   21.5384   -9.0324  -18.5476 O   0  0  0  0  0  0  0  0  0  0  0  0
   21.5560   -8.7350  -13.5838 C   0  0  0  0  0  0  0  0  0  0  0  0
   21.6840   -7.5867  -12.8329 C   0  0  0  0  0  0  0  0  0  0  0  0
   19.7395   -8.0888  -17.5382 N   0  0  0  0  0  0  0  0  0  0  0  0
   19.7327   -7.0287  -18.5545 C   0  0  1  0  0  0  0  0  0  0  0  0
   18.3289   -6.9559  -19.1281 C   0  0  0  0  0  0  0  0  0  0  0  0
   18.1128   -5.8293  -20.0787 C   0  0  0  0  0  0  0  0  0  0  0  0
   16.6926   -5.8208  -20.6405 C   0  0  0  0  0  0  0  0  0  0  0  0
   16.5419   -4.6745  -21.6102 C   0  0  0  0  0  0  0  0  0  0  0  0
   15.1636   -4.6975  -22.1027 N   0  0  0  0  0  0  0  0  0  0  0  0
   20.1861   -5.7554  -18.0056 C   0  0  0  0  0  0  0  0  0  0  0  0
   20.9960   -4.8292  -18.6325 O   0  0  0  0  0  0  0  0  0  0  0  0
   19.8278   -5.4051  -16.8212 O   0  0  0  0  0  0  0  0  0  0  0  0
  1  5  1  0
  2  1  1  0
  3  2  1  0
  3  4  1  0
  4  5  1  0
  6  7  2  0
  5  6  1  1
  8  9  1  0
  9 19  2  0
  9 10  1  0
 10 11  2  0
 12 11  1  0
 12 13  1  0
 14 13  1  1
 14 16  1  0
 14 15  1  0
 15  6  1  0
 16 17  2  0
 18 12  2  0
 19 18  1  0
 20 16  1  0
 20 21  1  0
 21 27  1  0
 22 23  1  0
 21 22  1  1
 24 23  1  0
 25 24  1  0
 26 25  1  0
 27 29  2  0
 27 28  1  0
M  END
$$$$
