PYK.pdb
     RDKit          3D

 29 30  0  0  1  0  0  0  0  0999 V2000
   29.1733  -19.7127  -12.2421 N   0  0  0  0  0  0  0  0  0  0  0  0
   30.5919  -19.5893  -12.1022 C   0  0  0  0  0  0  0  0  0  0  0  0
   31.1628  -20.9967  -12.0683 C   0  0  0  0  0  0  0  0  0  0  0  0
   30.0232  -21.7486  -11.3958 C   0  0  0  0  0  0  0  0  0  0  0  0
   28.8209  -21.0960  -12.0645 C   0  0  1  0  0  0  0  0  0  0  0  0
   27.5818  -21.2931  -11.3111 C   0  0  0  0  0  0  0  0  0  0  0  0
   27.0756  -22.4383  -11.2303 O   0  0  0  0  0  0  0  0  0  0  0  0
   28.8514  -20.4545   -4.1554 O   0  0  0  0  0  0  0  0  0  0  0  0
   28.1034  -20.1681   -5.3166 C   0  0  0  0  0  0  0  0  0  0  0  0
   27.4213  -21.1613   -5.9791 C   0  0  0  0  0  0  0  0  0  0  0  0
   26.6898  -20.8665   -7.1191 C   0  0  0  0  0  0  0  0  0  0  0  0
   26.6112  -19.5983   -7.6319 C   0  0  0  0  0  0  0  0  0  0  0  0
   25.8289  -19.2902   -8.8303 C   0  0  0  0  0  0  0  0  0  0  0  0
   25.7190  -20.3279   -9.8798 C   0  0  2  0  0  0  0  0  0  0  0  0
   26.9607  -20.2001  -10.6794 N   0  0  0  0  0  0  0  0  0  0  0  0
   24.6058  -20.1796  -10.8199 C   0  0  0  0  0  0  0  0  0  0  0  0
   24.5738  -19.1901  -11.6527 O   0  0  0  0  0  0  0  0  0  0  0  0
   27.3042  -18.6138   -6.9516 C   0  0  0  0  0  0  0  0  0  0  0  0
   28.0365  -18.8884   -5.8170 C   0  0  0  0  0  0  0  0  0  0  0  0
   23.4925  -21.0516  -10.9377 N   0  0  0  0  0  0  0  0  0  0  0  0
   22.4536  -20.8301  -11.9518 C   0  0  1  0  0  0  0  0  0  0  0  0
   22.1769  -22.1650  -12.6201 C   0  0  0  0  0  0  0  0  0  0  0  0
   21.0354  -22.1464  -13.5773 C   0  0  0  0  0  0  0  0  0  0  0  0
   20.7696  -23.5263  -14.1756 C   0  0  0  0  0  0  0  0  0  0  0  0
   19.6265  -23.4376  -15.1568 C   0  0  0  0  0  0  0  0  0  0  0  0
   19.3316  -24.7986  -15.6076 N   0  0  0  0  0  0  0  0  0  0  0  0
   21.2572  -20.2287  -11.3730 C   0  0  0  0  0  0  0  0  0  0  0  0
   20.3399  -19.4279  -12.0239 O   0  0  0  0  0  0  0  0  0  0  0  0
   20.9757  -20.4287  -10.1341 O   0  0  0  0  0  0  0  0  0  0  0  0
  1  5  1  0
  2  1  1  0
  3  2  1  0
  3  4  1  0
  4  5  1  0
  6  7  2  0
  5  6  1  1
  8  9  1  0
  9 19  2  0
  9 10  1  0
 10 11  2  0
 12 11  1  0
 12 13  1  0
 14 13  1  1
 14 16  1  0
 14 15  1  0
 15  6  1  0
 16 17  2  0
 18 12  2  0
 19 18  1  0
 20 16  1  0
 20 21  1  0
 21 27  1  0
 22 23  1  0
 21 22  1  1
 24 23  1  0
 25 24  1  0
 26 25  1  0
 27 29  2  0
 27 28  1  0
M  END
$$$$
