PYK.pdb
     RDKit          3D

 29 30  0  0  1  0  0  0  0  0999 V2000
   18.5986  -15.0933    3.4197 N   0  0  0  0  0  0  0  0  0  0  0  0
   18.9657  -14.0596    2.5011 C   0  0  0  0  0  0  0  0  0  0  0  0
   17.8079  -13.0775    2.4458 C   0  0  0  0  0  0  0  0  0  0  0  0
   16.6310  -14.0135    2.6806 C   0  0  0  0  0  0  0  0  0  0  0  0
   17.2083  -14.9300    3.7508 C   0  0  1  0  0  0  0  0  0  0  0  0
   16.4798  -16.1945    3.8619 C   0  0  0  0  0  0  0  0  0  0  0  0
   15.2670  -16.1902    4.1834 O   0  0  0  0  0  0  0  0  0  0  0  0
   15.2241  -24.9419    2.2691 O   0  0  0  0  0  0  0  0  0  0  0  0
   15.6433  -23.5973    2.3471 C   0  0  0  0  0  0  0  0  0  0  0  0
   14.8633  -22.5847    1.8402 C   0  0  0  0  0  0  0  0  0  0  0  0
   15.2868  -21.2674    1.9232 C   0  0  0  0  0  0  0  0  0  0  0  0
   16.4778  -20.9156    2.5024 C   0  0  0  0  0  0  0  0  0  0  0  0
   16.9158  -19.5220    2.5970 C   0  0  0  0  0  0  0  0  0  0  0  0
   16.4879  -18.7327    3.7736 C   0  0  2  0  0  0  0  0  0  0  0  0
   17.1391  -17.4112    3.6086 N   0  0  0  0  0  0  0  0  0  0  0  0
   16.9111  -19.2409    5.0803 C   0  0  0  0  0  0  0  0  0  0  0  0
   18.1214  -19.0569    5.4986 O   0  0  0  0  0  0  0  0  0  0  0  0
   17.2477  -21.9481    3.0060 C   0  0  0  0  0  0  0  0  0  0  0  0
   16.8427  -23.2632    2.9321 C   0  0  0  0  0  0  0  0  0  0  0  0
   16.0977  -19.9491    6.0026 N   0  0  0  0  0  0  0  0  0  0  0  0
   16.6377  -20.4381    7.2777 C   0  0  1  0  0  0  0  0  0  0  0  0
   15.8878  -19.7301    8.3920 C   0  0  0  0  0  0  0  0  0  0  0  0
   16.2682  -20.1709    9.7633 C   0  0  0  0  0  0  0  0  0  0  0  0
   15.5191  -19.3911   10.8419 C   0  0  0  0  0  0  0  0  0  0  0  0
   15.9839  -19.8436   12.2044 C   0  0  0  0  0  0  0  0  0  0  0  0
   15.1145  -19.2078   13.1957 N   0  0  0  0  0  0  0  0  0  0  0  0
   16.5545  -21.8913    7.3744 C   0  0  0  0  0  0  0  0  0  0  0  0
   15.6083  -22.7038    6.7821 O   0  0  0  0  0  0  0  0  0  0  0  0
   17.4232  -22.5373    8.0687 O   0  0  0  0  0  0  0  0  0  0  0  0
  1  5  1  0
  2  1  1  0
  3  2  1  0
  3  4  1  0
  4  5  1  0
  6  7  2  0
  5  6  1  6
  8  9  1  0
  9 19  2  0
  9 10  1  0
 10 11  2  0
 12 11  1  0
 12 13  1  0
 14 13  1  6
 14 16  1  0
 14 15  1  0
 15  6  1  0
 16 17  2  0
 18 12  2  0
 19 18  1  0
 20 16  1  0
 20 21  1  0
 21 27  1  0
 22 23  1  0
 21 22  1  1
 24 23  1  0
 25 24  1  0
 26 25  1  0
 27 29  2  0
 27 28  1  0
M  END
$$$$
