PYK.pdb
     RDKit          3D

 29 30  0  0  1  0  0  0  0  0999 V2000
   19.1920  -14.3920  -18.1521 N   0  0  0  0  0  0  0  0  0  0  0  0
   18.8860  -15.6717  -18.7142 C   0  0  0  0  0  0  0  0  0  0  0  0
   18.4192  -16.5615  -17.5748 C   0  0  0  0  0  0  0  0  0  0  0  0
   19.2415  -16.0017  -16.4230 C   0  0  0  0  0  0  0  0  0  0  0  0
   19.1632  -14.5101  -16.7188 C   0  0  1  0  0  0  0  0  0  0  0  0
   20.2155  -13.7467  -16.0466 C   0  0  0  0  0  0  0  0  0  0  0  0
   20.3130  -13.7852  -14.7963 O   0  0  0  0  0  0  0  0  0  0  0  0
   28.1463   -9.5057  -16.5602 O   0  0  0  0  0  0  0  0  0  0  0  0
   26.9799  -10.2970  -16.6166 C   0  0  0  0  0  0  0  0  0  0  0  0
   26.1752  -10.2888  -17.7314 C   0  0  0  0  0  0  0  0  0  0  0  0
   25.0316  -11.0711  -17.7741 C   0  0  0  0  0  0  0  0  0  0  0  0
   24.6540  -11.8747  -16.7305 C   0  0  0  0  0  0  0  0  0  0  0  0
   23.4510  -12.7070  -16.7844 C   0  0  0  0  0  0  0  0  0  0  0  0
   22.2044  -12.1740  -16.1906 C   0  0  2  0  0  0  0  0  0  0  0  0
   21.1148  -12.9720  -16.8017 N   0  0  0  0  0  0  0  0  0  0  0  0
   21.9004  -10.7709  -16.4798 C   0  0  0  0  0  0  0  0  0  0  0  0
   21.5923  -10.3969  -17.6794 O   0  0  0  0  0  0  0  0  0  0  0  0
   25.4762  -11.8688  -15.6185 C   0  0  0  0  0  0  0  0  0  0  0  0
   26.6166  -11.0975  -15.5584 C   0  0  0  0  0  0  0  0  0  0  0  0
   21.8963   -9.7080  -15.5396 N   0  0  0  0  0  0  0  0  0  0  0  0
   21.5677   -8.3344  -15.9421 C   0  0  1  0  0  0  0  0  0  0  0  0
   20.0551   -8.2331  -16.0252 C   0  0  0  0  0  0  0  0  0  0  0  0
   19.5500   -6.8762  -16.3764 C   0  0  0  0  0  0  0  0  0  0  0  0
   18.0260   -6.8409  -16.4696 C   0  0  0  0  0  0  0  0  0  0  0  0
   17.5862   -5.5060  -17.0189 C   0  0  0  0  0  0  0  0  0  0  0  0
   16.1511   -5.5976  -17.2922 N   0  0  0  0  0  0  0  0  0  0  0  0
   22.1510   -7.3541  -15.0328 C   0  0  0  0  0  0  0  0  0  0  0  0
   22.5041   -6.0545  -15.3380 O   0  0  0  0  0  0  0  0  0  0  0  0
   22.3837   -7.6749  -13.8093 O   0  0  0  0  0  0  0  0  0  0  0  0
  1  5  1  0
  2  1  1  0
  3  2  1  0
  3  4  1  0
  4  5  1  0
  6  7  2  0
  5  6  1  1
  8  9  1  0
  9 19  2  0
  9 10  1  0
 10 11  2  0
 12 11  1  0
 12 13  1  0
 14 13  1  6
 14 16  1  0
 14 15  1  0
 15  6  1  0
 16 17  2  0
 18 12  2  0
 19 18  1  0
 20 16  1  0
 20 21  1  0
 21 27  1  0
 22 23  1  0
 21 22  1  1
 24 23  1  0
 25 24  1  0
 26 25  1  0
 27 29  2  0
 27 28  1  0
M  END
$$$$
