PYK.pdb
     RDKit          3D

 29 30  0  0  1  0  0  0  0  0999 V2000
   28.3367  -25.6546  -18.3702 N   0  0  0  0  0  0  0  0  0  0  0  0
   29.2756  -26.7313  -18.4513 C   0  0  0  0  0  0  0  0  0  0  0  0
   29.1404  -27.5407  -17.1729 C   0  0  0  0  0  0  0  0  0  0  0  0
   28.7582  -26.4481  -16.1848 C   0  0  0  0  0  0  0  0  0  0  0  0
   27.8038  -25.6202  -17.0346 C   0  0  1  0  0  0  0  0  0  0  0  0
   27.6163  -24.2656  -16.5131 C   0  0  0  0  0  0  0  0  0  0  0  0
   28.6018  -23.6219  -16.0787 O   0  0  0  0  0  0  0  0  0  0  0  0
   26.7189  -15.8042  -16.3880 O   0  0  0  0  0  0  0  0  0  0  0  0
   26.7375  -17.2052  -16.5510 C   0  0  0  0  0  0  0  0  0  0  0  0
   25.6390  -17.8733  -17.0382 C   0  0  0  0  0  0  0  0  0  0  0  0
   25.6703  -19.2505  -17.1936 C   0  0  0  0  0  0  0  0  0  0  0  0
   26.7735  -19.9989  -16.8769 C   0  0  0  0  0  0  0  0  0  0  0  0
   26.8053  -21.4518  -17.0527 C   0  0  0  0  0  0  0  0  0  0  0  0
   26.0810  -22.2911  -16.0721 C   0  0  2  0  0  0  0  0  0  0  0  0
   26.3336  -23.6879  -16.4996 N   0  0  0  0  0  0  0  0  0  0  0  0
   24.6261  -22.1281  -16.0332 C   0  0  0  0  0  0  0  0  0  0  0  0
   23.8884  -22.5596  -17.0044 O   0  0  0  0  0  0  0  0  0  0  0  0
   27.8677  -19.3086  -16.3884 C   0  0  0  0  0  0  0  0  0  0  0  0
   27.8545  -17.9401  -16.2271 C   0  0  0  0  0  0  0  0  0  0  0  0
   23.8829  -21.5217  -14.9874 N   0  0  0  0  0  0  0  0  0  0  0  0
   22.4187  -21.4257  -15.0480 C   0  0  1  0  0  0  0  0  0  0  0  0
   21.8745  -21.9102  -13.7161 C   0  0  0  0  0  0  0  0  0  0  0  0
   20.3909  -22.0386  -13.6702 C   0  0  0  0  0  0  0  0  0  0  0  0
   19.9102  -22.6370  -12.3498 C   0  0  0  0  0  0  0  0  0  0  0  0
   18.4258  -22.8972  -12.4261 C   0  0  0  0  0  0  0  0  0  0  0  0
   18.0062  -23.4175  -11.1238 N   0  0  0  0  0  0  0  0  0  0  0  0
   21.9823  -20.0737  -15.3791 C   0  0  0  0  0  0  0  0  0  0  0  0
   20.8634  -19.7243  -16.1090 O   0  0  0  0  0  0  0  0  0  0  0  0
   22.6693  -19.0631  -14.9783 O   0  0  0  0  0  0  0  0  0  0  0  0
  1  5  1  0
  2  1  1  0
  3  2  1  0
  3  4  1  0
  4  5  1  0
  6  7  2  0
  5  6  1  1
  8  9  1  0
  9 19  2  0
  9 10  1  0
 10 11  2  0
 12 11  1  0
 12 13  1  0
 14 13  1  6
 14 16  1  0
 14 15  1  0
 15  6  1  0
 16 17  2  0
 18 12  2  0
 19 18  1  0
 20 16  1  0
 20 21  1  0
 21 27  1  0
 22 23  1  0
 21 22  1  1
 24 23  1  0
 25 24  1  0
 26 25  1  0
 27 29  2  0
 27 28  1  0
M  END
$$$$
