PYK.pdb
     RDKit          3D

 29 30  0  0  1  0  0  0  0  0999 V2000
   27.6829  -20.3007  -17.4124 N   0  0  0  0  0  0  0  0  0  0  0  0
   28.9304  -19.9615  -18.0256 C   0  0  0  0  0  0  0  0  0  0  0  0
   29.6469  -21.2651  -18.3343 C   0  0  0  0  0  0  0  0  0  0  0  0
   29.1516  -22.1383  -17.1905 C   0  0  0  0  0  0  0  0  0  0  0  0
   27.6926  -21.7087  -17.1185 C   0  0  1  0  0  0  0  0  0  0  0  0
   27.0693  -22.0443  -15.8375 C   0  0  0  0  0  0  0  0  0  0  0  0
   27.0094  -23.2415  -15.4670 O   0  0  0  0  0  0  0  0  0  0  0  0
   24.9715  -20.4811   -7.3160 O   0  0  0  0  0  0  0  0  0  0  0  0
   25.3892  -20.4681   -8.6632 C   0  0  0  0  0  0  0  0  0  0  0  0
   26.4672  -21.2160   -9.0748 C   0  0  0  0  0  0  0  0  0  0  0  0
   26.8674  -21.1944  -10.4018 C   0  0  0  0  0  0  0  0  0  0  0  0
   26.2230  -20.4435  -11.3496 C   0  0  0  0  0  0  0  0  0  0  0  0
   26.6431  -20.4322  -12.7518 C   0  0  0  0  0  0  0  0  0  0  0  0
   25.9078  -21.2885  -13.7092 C   0  0  2  0  0  0  0  0  0  0  0  0
   26.5391  -21.0259  -15.0245 N   0  0  0  0  0  0  0  0  0  0  0  0
   24.4814  -20.9983  -13.8709 C   0  0  0  0  0  0  0  0  0  0  0  0
   24.0914  -19.9595  -14.5359 O   0  0  0  0  0  0  0  0  0  0  0  0
   25.1417  -19.6984  -10.9158 C   0  0  0  0  0  0  0  0  0  0  0  0
   24.7298  -19.7075   -9.6008 C   0  0  0  0  0  0  0  0  0  0  0  0
   23.4096  -21.7747  -13.3587 N   0  0  0  0  0  0  0  0  0  0  0  0
   22.0136  -21.3475  -13.5182 C   0  0  1  0  0  0  0  0  0  0  0  0
   21.1515  -22.5973  -13.5179 C   0  0  0  0  0  0  0  0  0  0  0  0
   19.6900  -22.3339  -13.6374 C   0  0  0  0  0  0  0  0  0  0  0  0
   18.8822  -23.6271  -13.7249 C   0  0  0  0  0  0  0  0  0  0  0  0
   17.4408  -23.3003  -14.0295 C   0  0  0  0  0  0  0  0  0  0  0  0
   16.6980  -24.5617  -14.0305 N   0  0  0  0  0  0  0  0  0  0  0  0
   21.6234  -20.3911  -12.4880 C   0  0  0  0  0  0  0  0  0  0  0  0
   22.1641  -20.2763  -11.2227 O   0  0  0  0  0  0  0  0  0  0  0  0
   20.6856  -19.5433  -12.7240 O   0  0  0  0  0  0  0  0  0  0  0  0
  1  5  1  0
  2  1  1  0
  3  2  1  0
  3  4  1  0
  4  5  1  0
  6  7  2  0
  5  6  1  1
  8  9  1  0
  9 19  2  0
  9 10  1  0
 10 11  2  0
 12 11  1  0
 12 13  1  0
 14 13  1  1
 14 16  1  0
 14 15  1  0
 15  6  1  0
 16 17  2  0
 18 12  2  0
 19 18  1  0
 20 16  1  0
 20 21  1  0
 21 27  1  0
 22 23  1  0
 21 22  1  1
 24 23  1  0
 25 24  1  0
 26 25  1  0
 27 29  2  0
 27 28  1  0
M  END
$$$$
