PYK.pdb
     RDKit          3D

 29 30  0  0  1  0  0  0  0  0999 V2000
   26.9995  -20.4204  -16.6709 N   0  0  0  0  0  0  0  0  0  0  0  0
   28.3197  -20.1628  -17.1587 C   0  0  0  0  0  0  0  0  0  0  0  0
   29.0576  -21.4906  -17.1768 C   0  0  0  0  0  0  0  0  0  0  0  0
   28.4086  -22.1915  -15.9920 C   0  0  0  0  0  0  0  0  0  0  0  0
   26.9569  -21.7699  -16.1750 C   0  0  1  0  0  0  0  0  0  0  0  0
   26.1684  -21.9201  -14.9512 C   0  0  0  0  0  0  0  0  0  0  0  0
   26.0368  -23.0531  -14.4284 O   0  0  0  0  0  0  0  0  0  0  0  0
   26.9942  -20.9262   -6.9719 O   0  0  0  0  0  0  0  0  0  0  0  0
   26.5779  -20.6319   -8.2872 C   0  0  0  0  0  0  0  0  0  0  0  0
   27.4703  -20.6617   -9.3328 C   0  0  0  0  0  0  0  0  0  0  0  0
   27.0484  -20.3704  -10.6207 C   0  0  0  0  0  0  0  0  0  0  0  0
   25.7491  -20.0455  -10.9104 C   0  0  0  0  0  0  0  0  0  0  0  0
   25.3061  -19.7488  -12.2738 C   0  0  0  0  0  0  0  0  0  0  0  0
   24.7890  -20.8631  -13.0992 C   0  0  2  0  0  0  0  0  0  0  0  0
   25.5599  -20.7960  -14.3636 N   0  0  0  0  0  0  0  0  0  0  0  0
   23.3751  -20.7868  -13.4735 C   0  0  0  0  0  0  0  0  0  0  0  0
   22.9838  -19.9858  -14.4110 O   0  0  0  0  0  0  0  0  0  0  0  0
   24.8673  -20.0207   -9.8454 C   0  0  0  0  0  0  0  0  0  0  0  0
   25.2690  -20.3073   -8.5588 C   0  0  0  0  0  0  0  0  0  0  0  0
   22.3188  -21.5401  -12.8986 N   0  0  0  0  0  0  0  0  0  0  0  0
   20.9347  -21.3949  -13.3676 C   0  0  1  0  0  0  0  0  0  0  0  0
   20.2730  -22.7575  -13.2644 C   0  0  0  0  0  0  0  0  0  0  0  0
   18.8591  -22.7894  -13.7327 C   0  0  0  0  0  0  0  0  0  0  0  0
   18.2885  -24.2061  -13.7295 C   0  0  0  0  0  0  0  0  0  0  0  0
   16.8741  -24.1800  -14.2548 C   0  0  0  0  0  0  0  0  0  0  0  0
   16.9505  -24.2134  -15.7162 N   0  0  0  0  0  0  0  0  0  0  0  0
   20.2213  -20.3620  -12.6245 C   0  0  0  0  0  0  0  0  0  0  0  0
   19.1648  -19.5992  -13.0811 O   0  0  0  0  0  0  0  0  0  0  0  0
   20.5665  -20.0890  -11.4160 O   0  0  0  0  0  0  0  0  0  0  0  0
  1  5  1  0
  2  1  1  0
  3  2  1  0
  3  4  1  0
  4  5  1  0
  6  7  2  0
  5  6  1  1
  8  9  1  0
  9 19  2  0
  9 10  1  0
 10 11  2  0
 12 11  1  0
 12 13  1  0
 14 13  1  1
 14 16  1  0
 14 15  1  0
 15  6  1  0
 16 17  2  0
 18 12  2  0
 19 18  1  0
 20 16  1  0
 20 21  1  0
 21 27  1  0
 22 23  1  0
 21 22  1  1
 24 23  1  0
 25 24  1  0
 26 25  1  0
 27 29  2  0
 27 28  1  0
M  END
$$$$
