PYK.pdb
     RDKit          3D

 29 30  0  0  1  0  0  0  0  0999 V2000
   27.8209  -20.0452  -17.3393 N   0  0  0  0  0  0  0  0  0  0  0  0
   29.0781  -19.5690  -17.8291 C   0  0  0  0  0  0  0  0  0  0  0  0
   29.9667  -20.7834  -18.0376 C   0  0  0  0  0  0  0  0  0  0  0  0
   29.4590  -21.6990  -16.9330 C   0  0  0  0  0  0  0  0  0  0  0  0
   27.9609  -21.4403  -17.0182 C   0  0  1  0  0  0  0  0  0  0  0  0
   27.2511  -21.8356  -15.8008 C   0  0  0  0  0  0  0  0  0  0  0  0
   27.3311  -23.0175  -15.3873 O   0  0  0  0  0  0  0  0  0  0  0  0
   24.0815  -20.6492   -7.5902 O   0  0  0  0  0  0  0  0  0  0  0  0
   24.6446  -20.5847   -8.8819 C   0  0  0  0  0  0  0  0  0  0  0  0
   25.7601  -21.3218   -9.2028 C   0  0  0  0  0  0  0  0  0  0  0  0
   26.3036  -21.2494  -10.4759 C   0  0  0  0  0  0  0  0  0  0  0  0
   25.7682  -20.4573  -11.4575 C   0  0  0  0  0  0  0  0  0  0  0  0
   26.3397  -20.3922  -12.8036 C   0  0  0  0  0  0  0  0  0  0  0  0
   25.7263  -21.2219  -13.8647 C   0  0  2  0  0  0  0  0  0  0  0  0
   26.4814  -20.8915  -15.0968 N   0  0  0  0  0  0  0  0  0  0  0  0
   24.3172  -20.9537  -14.1600 C   0  0  0  0  0  0  0  0  0  0  0  0
   23.9745  -19.9142  -14.8497 O   0  0  0  0  0  0  0  0  0  0  0  0
   24.6470  -19.7238  -11.1150 C   0  0  0  0  0  0  0  0  0  0  0  0
   24.0932  -19.7832   -9.8546 C   0  0  0  0  0  0  0  0  0  0  0  0
   23.2149  -21.7532  -13.7604 N   0  0  0  0  0  0  0  0  0  0  0  0
   21.8348  -21.3629  -14.0761 C   0  0  1  0  0  0  0  0  0  0  0  0
   21.0092  -22.6343  -14.1600 C   0  0  0  0  0  0  0  0  0  0  0  0
   19.5680  -22.4104  -14.4635 C   0  0  0  0  0  0  0  0  0  0  0  0
   18.7732  -23.7147  -14.4537 C   0  0  0  0  0  0  0  0  0  0  0  0
   17.3404  -23.4337  -14.8347 C   0  0  0  0  0  0  0  0  0  0  0  0
   16.6361  -24.7166  -14.8615 N   0  0  0  0  0  0  0  0  0  0  0  0
   21.3099  -20.4109  -13.1034 C   0  0  0  0  0  0  0  0  0  0  0  0
   21.5697  -20.3901  -11.7475 O   0  0  0  0  0  0  0  0  0  0  0  0
   20.5190  -19.4727  -13.4886 O   0  0  0  0  0  0  0  0  0  0  0  0
  1  5  1  0
  2  1  1  0
  3  2  1  0
  3  4  1  0
  4  5  1  0
  6  7  2  0
  5  6  1  1
  8  9  1  0
  9 19  2  0
  9 10  1  0
 10 11  2  0
 12 11  1  0
 12 13  1  0
 14 13  1  1
 14 16  1  0
 14 15  1  0
 15  6  1  0
 16 17  2  0
 18 12  2  0
 19 18  1  0
 20 16  1  0
 20 21  1  0
 21 27  1  0
 22 23  1  0
 21 22  1  1
 24 23  1  0
 25 24  1  0
 26 25  1  0
 27 29  2  0
 27 28  1  0
M  END
$$$$
