PYK.pdb
     RDKit          3D

 29 30  0  0  1  0  0  0  0  0999 V2000
   26.6827  -21.3646  -14.3899 N   0  0  0  0  0  0  0  0  0  0  0  0
   27.9483  -20.9072  -14.8760 C   0  0  0  0  0  0  0  0  0  0  0  0
   28.6318  -20.1799  -13.7307 C   0  0  0  0  0  0  0  0  0  0  0  0
   27.4266  -19.6027  -13.0022 C   0  0  0  0  0  0  0  0  0  0  0  0
   26.4518  -20.7683  -13.1015 C   0  0  1  0  0  0  0  0  0  0  0  0
   25.0630  -20.3608  -12.8846 C   0  0  0  0  0  0  0  0  0  0  0  0
   24.7638  -19.6737  -11.8783 O   0  0  0  0  0  0  0  0  0  0  0  0
   25.1124  -14.7313  -16.3014 O   0  0  0  0  0  0  0  0  0  0  0  0
   24.4534  -15.9426  -16.0045 C   0  0  0  0  0  0  0  0  0  0  0  0
   24.9804  -17.1485  -16.4028 C   0  0  0  0  0  0  0  0  0  0  0  0
   24.3228  -18.3318  -16.1046 C   0  0  0  0  0  0  0  0  0  0  0  0
   23.1404  -18.3588  -15.4127 C   0  0  0  0  0  0  0  0  0  0  0  0
   22.4550  -19.6117  -15.0910 C   0  0  0  0  0  0  0  0  0  0  0  0
   22.6825  -20.2110  -13.7570 C   0  0  2  0  0  0  0  0  0  0  0  0
   24.0668  -20.7393  -13.8031 N   0  0  0  0  0  0  0  0  0  0  0  0
   21.8212  -21.3409  -13.4018 C   0  0  0  0  0  0  0  0  0  0  0  0
   22.0026  -22.5029  -13.9407 O   0  0  0  0  0  0  0  0  0  0  0  0
   22.6267  -17.1360  -15.0212 C   0  0  0  0  0  0  0  0  0  0  0  0
   23.2665  -15.9499  -15.3089 C   0  0  0  0  0  0  0  0  0  0  0  0
   20.7491  -21.3119  -12.4725 N   0  0  0  0  0  0  0  0  0  0  0  0
   20.0861  -22.5466  -12.0334 C   0  0  1  0  0  0  0  0  0  0  0  0
   19.8089  -22.4113  -10.5468 C   0  0  0  0  0  0  0  0  0  0  0  0
   19.2238  -23.6291   -9.9190 C   0  0  0  0  0  0  0  0  0  0  0  0
   18.8420  -23.3916   -8.4594 C   0  0  0  0  0  0  0  0  0  0  0  0
   18.4031  -24.6938   -7.8358 C   0  0  0  0  0  0  0  0  0  0  0  0
   18.0096  -24.4061   -6.4556 N   0  0  0  0  0  0  0  0  0  0  0  0
   18.8815  -22.8154  -12.8111 C   0  0  0  0  0  0  0  0  0  0  0  0
   18.3899  -24.0557  -13.1668 O   0  0  0  0  0  0  0  0  0  0  0  0
   18.1631  -21.8374  -13.2370 O   0  0  0  0  0  0  0  0  0  0  0  0
  1  5  1  0
  2  1  1  0
  3  2  1  0
  3  4  1  0
  4  5  1  0
  6  7  2  0
  5  6  1  6
  8  9  1  0
  9 19  2  0
  9 10  1  0
 10 11  2  0
 12 11  1  0
 12 13  1  0
 14 13  1  6
 14 16  1  0
 14 15  1  0
 15  6  1  0
 16 17  2  0
 18 12  2  0
 19 18  1  0
 20 16  1  0
 20 21  1  0
 21 27  1  0
 22 23  1  0
 21 22  1  1
 24 23  1  0
 25 24  1  0
 26 25  1  0
 27 29  2  0
 27 28  1  0
M  END
$$$$
