PYK.pdb
     RDKit          3D

 29 30  0  0  1  0  0  0  0  0999 V2000
   27.3229  -20.1363  -17.2638 N   0  0  0  0  0  0  0  0  0  0  0  0
   28.5410  -19.5701  -17.7564 C   0  0  0  0  0  0  0  0  0  0  0  0
   29.5592  -20.6951  -17.8328 C   0  0  0  0  0  0  0  0  0  0  0  0
   29.1084  -21.5648  -16.6681 C   0  0  0  0  0  0  0  0  0  0  0  0
   27.5958  -21.4767  -16.8188 C   0  0  1  0  0  0  0  0  0  0  0  0
   26.8855  -21.8432  -15.5927 C   0  0  0  0  0  0  0  0  0  0  0  0
   26.5972  -23.0445  -15.3736 O   0  0  0  0  0  0  0  0  0  0  0  0
   24.6152  -20.4667   -7.0315 O   0  0  0  0  0  0  0  0  0  0  0  0
   25.1267  -20.4850   -8.3459 C   0  0  0  0  0  0  0  0  0  0  0  0
   26.1999  -21.2793   -8.6742 C   0  0  0  0  0  0  0  0  0  0  0  0
   26.6930  -21.2880   -9.9698 C   0  0  0  0  0  0  0  0  0  0  0  0
   26.1474  -20.5226  -10.9667 C   0  0  0  0  0  0  0  0  0  0  0  0
   26.6651  -20.5431  -12.3359 C   0  0  0  0  0  0  0  0  0  0  0  0
   25.8239  -21.1481  -13.3927 C   0  0  2  0  0  0  0  0  0  0  0  0
   26.5275  -20.8499  -14.6630 N   0  0  0  0  0  0  0  0  0  0  0  0
   24.4718  -20.6032  -13.5322 C   0  0  0  0  0  0  0  0  0  0  0  0
   24.2819  -19.4388  -14.0630 O   0  0  0  0  0  0  0  0  0  0  0  0
   25.0692  -19.7306  -10.6165 C   0  0  0  0  0  0  0  0  0  0  0  0
   24.5659  -19.7091   -9.3338 C   0  0  0  0  0  0  0  0  0  0  0  0
   23.2695  -21.2447  -13.1360 N   0  0  0  0  0  0  0  0  0  0  0  0
   21.9671  -20.5820  -13.2816 C   0  0  1  0  0  0  0  0  0  0  0  0
   21.2626  -21.2167  -14.4674 C   0  0  0  0  0  0  0  0  0  0  0  0
   19.8820  -20.7092  -14.7037 C   0  0  0  0  0  0  0  0  0  0  0  0
   19.2302  -21.3711  -15.9160 C   0  0  0  0  0  0  0  0  0  0  0  0
   17.8885  -20.7319  -16.1775 C   0  0  0  0  0  0  0  0  0  0  0  0
   17.2558  -21.4754  -17.2682 N   0  0  0  0  0  0  0  0  0  0  0  0
   21.1853  -20.6579  -12.0524 C   0  0  0  0  0  0  0  0  0  0  0  0
   20.3191  -19.6989  -11.5660 O   0  0  0  0  0  0  0  0  0  0  0  0
   21.2700  -21.6999  -11.3033 O   0  0  0  0  0  0  0  0  0  0  0  0
  1  5  1  0
  2  1  1  0
  3  2  1  0
  3  4  1  0
  4  5  1  0
  6  7  2  0
  5  6  1  1
  8  9  1  0
  9 19  2  0
  9 10  1  0
 10 11  2  0
 12 11  1  0
 12 13  1  0
 14 13  1  1
 14 16  1  0
 14 15  1  0
 15  6  1  0
 16 17  2  0
 18 12  2  0
 19 18  1  0
 20 16  1  0
 20 21  1  0
 21 27  1  0
 22 23  1  0
 21 22  1  6
 24 23  1  0
 25 24  1  0
 26 25  1  0
 27 29  2  0
 27 28  1  0
M  END
$$$$
