PYK.pdb
     RDKit          3D

 29 30  0  0  1  0  0  0  0  0999 V2000
   27.5315  -20.5168  -16.7481 N   0  0  0  0  0  0  0  0  0  0  0  0
   28.8042  -20.2678  -17.3524 C   0  0  0  0  0  0  0  0  0  0  0  0
   29.4675  -21.6168  -17.5720 C   0  0  0  0  0  0  0  0  0  0  0  0
   28.9121  -22.4010  -16.3917 C   0  0  0  0  0  0  0  0  0  0  0  0
   27.4727  -21.9049  -16.3753 C   0  0  1  0  0  0  0  0  0  0  0  0
   26.8109  -22.1394  -15.0911 C   0  0  0  0  0  0  0  0  0  0  0  0
   26.1327  -23.1809  -14.9193 O   0  0  0  0  0  0  0  0  0  0  0  0
   25.8658  -20.1134   -6.3296 O   0  0  0  0  0  0  0  0  0  0  0  0
   26.2353  -20.3140   -7.6761 C   0  0  0  0  0  0  0  0  0  0  0  0
   25.2908  -20.6128   -8.6297 C   0  0  0  0  0  0  0  0  0  0  0  0
   25.6671  -20.8076   -9.9495 C   0  0  0  0  0  0  0  0  0  0  0  0
   26.9706  -20.7141  -10.3615 C   0  0  0  0  0  0  0  0  0  0  0  0
   27.3617  -20.9104  -11.7584 C   0  0  0  0  0  0  0  0  0  0  0  0
   26.3362  -21.3915  -12.7109 C   0  0  2  0  0  0  0  0  0  0  0  0
   26.9359  -21.1984  -14.0528 N   0  0  0  0  0  0  0  0  0  0  0  0
   25.0673  -20.6602  -12.7169 C   0  0  0  0  0  0  0  0  0  0  0  0
   24.9773  -19.5010  -13.2842 O   0  0  0  0  0  0  0  0  0  0  0  0
   27.9052  -20.4131   -9.3876 C   0  0  0  0  0  0  0  0  0  0  0  0
   27.5494  -20.2163   -8.0709 C   0  0  0  0  0  0  0  0  0  0  0  0
   23.8468  -21.1039  -12.1448 N   0  0  0  0  0  0  0  0  0  0  0  0
   22.5709  -20.4528  -12.4689 C   0  0  1  0  0  0  0  0  0  0  0  0
   22.2542  -20.7672  -13.9200 C   0  0  0  0  0  0  0  0  0  0  0  0
   20.9802  -20.1720  -14.4123 C   0  0  0  0  0  0  0  0  0  0  0  0
   20.7351  -20.4871  -15.8865 C   0  0  0  0  0  0  0  0  0  0  0  0
   19.4808  -19.7870  -16.3488 C   0  0  0  0  0  0  0  0  0  0  0  0
   19.3362  -20.0510  -17.7813 N   0  0  0  0  0  0  0  0  0  0  0  0
   21.5102  -20.8654  -11.5563 C   0  0  0  0  0  0  0  0  0  0  0  0
   20.4397  -20.1006  -11.1372 O   0  0  0  0  0  0  0  0  0  0  0  0
   21.5195  -22.0512  -11.0585 O   0  0  0  0  0  0  0  0  0  0  0  0
  1  5  1  0
  2  1  1  0
  3  2  1  0
  3  4  1  0
  4  5  1  0
  6  7  2  0
  5  6  1  1
  8  9  1  0
  9 19  2  0
  9 10  1  0
 10 11  2  0
 12 11  1  0
 12 13  1  0
 14 13  1  1
 14 16  1  0
 14 15  1  0
 15  6  1  0
 16 17  2  0
 18 12  2  0
 19 18  1  0
 20 16  1  0
 20 21  1  0
 21 27  1  0
 22 23  1  0
 21 22  1  6
 24 23  1  0
 25 24  1  0
 26 25  1  0
 27 29  2  0
 27 28  1  0
M  END
$$$$
