PYK.pdb
     RDKit          3D

 29 30  0  0  1  0  0  0  0  0999 V2000
   23.7597  -21.6587  -15.0789 N   0  0  0  0  0  0  0  0  0  0  0  0
   24.4263  -21.1517  -16.2390 C   0  0  0  0  0  0  0  0  0  0  0  0
   25.1069  -19.8553  -15.8337 C   0  0  0  0  0  0  0  0  0  0  0  0
   24.1396  -19.3465  -14.7747 C   0  0  0  0  0  0  0  0  0  0  0  0
   23.7961  -20.6455  -14.0585 C   0  0  1  0  0  0  0  0  0  0  0  0
   22.5587  -20.5505  -13.2826 C   0  0  0  0  0  0  0  0  0  0  0  0
   22.4477  -19.6767  -12.3891 O   0  0  0  0  0  0  0  0  0  0  0  0
   19.4136  -15.4446  -15.8002 O   0  0  0  0  0  0  0  0  0  0  0  0
   19.3815  -16.7921  -15.3844 C   0  0  0  0  0  0  0  0  0  0  0  0
   20.1309  -17.7475  -16.0296 C   0  0  0  0  0  0  0  0  0  0  0  0
   20.0904  -19.0684  -15.6110 C   0  0  0  0  0  0  0  0  0  0  0  0
   19.3188  -19.4795  -14.5559 C   0  0  0  0  0  0  0  0  0  0  0  0
   19.2874  -20.8738  -14.1110 C   0  0  0  0  0  0  0  0  0  0  0  0
   20.1414  -21.2620  -12.9662 C   0  0  2  0  0  0  0  0  0  0  0  0
   21.4973  -21.4375  -13.5391 N   0  0  0  0  0  0  0  0  0  0  0  0
   19.8041  -22.5266  -12.3092 C   0  0  0  0  0  0  0  0  0  0  0  0
   19.9667  -23.6530  -12.9245 O   0  0  0  0  0  0  0  0  0  0  0  0
   18.5725  -18.5039  -13.9204 C   0  0  0  0  0  0  0  0  0  0  0  0
   18.6002  -17.1863  -14.3229 C   0  0  0  0  0  0  0  0  0  0  0  0
   19.2953  -22.6722  -10.9924 N   0  0  0  0  0  0  0  0  0  0  0  0
   18.9434  -23.9915  -10.4517 C   0  0  1  0  0  0  0  0  0  0  0  0
   18.6971  -23.8233   -8.9631 C   0  0  0  0  0  0  0  0  0  0  0  0
   18.3699  -25.0891   -8.2490 C   0  0  0  0  0  0  0  0  0  0  0  0
   18.2362  -24.8766   -6.7424 C   0  0  0  0  0  0  0  0  0  0  0  0
   17.9365  -26.1953   -6.0729 C   0  0  0  0  0  0  0  0  0  0  0  0
   17.8402  -25.9425   -4.6343 N   0  0  0  0  0  0  0  0  0  0  0  0
   17.8027  -24.5720  -11.1516 C   0  0  0  0  0  0  0  0  0  0  0  0
   16.6073  -23.9446  -11.4417 O   0  0  0  0  0  0  0  0  0  0  0  0
   17.8567  -25.7889  -11.5643 O   0  0  0  0  0  0  0  0  0  0  0  0
  1  5  1  0
  2  1  1  0
  3  2  1  0
  3  4  1  0
  4  5  1  0
  6  7  2  0
  5  6  1  6
  8  9  1  0
  9 19  2  0
  9 10  1  0
 10 11  2  0
 12 11  1  0
 12 13  1  0
 14 13  1  6
 14 16  1  0
 14 15  1  0
 15  6  1  0
 16 17  2  0
 18 12  2  0
 19 18  1  0
 20 16  1  0
 20 21  1  0
 21 27  1  0
 22 23  1  0
 21 22  1  1
 24 23  1  0
 25 24  1  0
 26 25  1  0
 27 29  2  0
 27 28  1  0
M  END
$$$$
