PYK.pdb
     RDKit          3D

 29 30  0  0  1  0  0  0  0  0999 V2000
   28.4291  -19.4500  -12.8517 N   0  0  0  0  0  0  0  0  0  0  0  0
   29.7780  -18.9840  -12.7497 C   0  0  0  0  0  0  0  0  0  0  0  0
   30.6540  -20.1995  -12.4985 C   0  0  0  0  0  0  0  0  0  0  0  0
   29.6994  -21.0769  -11.7016 C   0  0  0  0  0  0  0  0  0  0  0  0
   28.3973  -20.8314  -12.4518 C   0  0  1  0  0  0  0  0  0  0  0  0
   27.2171  -21.1860  -11.6623 C   0  0  0  0  0  0  0  0  0  0  0  0
   27.0947  -22.3503  -11.2109 O   0  0  0  0  0  0  0  0  0  0  0  0
   28.0223  -20.5677   -4.8436 O   0  0  0  0  0  0  0  0  0  0  0  0
   27.2722  -20.2968   -6.0071 C   0  0  0  0  0  0  0  0  0  0  0  0
   27.3494  -19.0718   -6.6269 C   0  0  0  0  0  0  0  0  0  0  0  0
   26.6070  -18.8183   -7.7697 C   0  0  0  0  0  0  0  0  0  0  0  0
   25.7772  -19.7553   -8.3275 C   0  0  0  0  0  0  0  0  0  0  0  0
   25.0032  -19.4865   -9.5405 C   0  0  0  0  0  0  0  0  0  0  0  0
   25.0065  -20.5066  -10.6128 C   0  0  2  0  0  0  0  0  0  0  0  0
   26.2231  -20.2228  -11.4108 N   0  0  0  0  0  0  0  0  0  0  0  0
   23.8803  -20.4635  -11.5480 C   0  0  0  0  0  0  0  0  0  0  0  0
   23.7913  -19.5209  -12.4296 O   0  0  0  0  0  0  0  0  0  0  0  0
   25.7133  -20.9806   -7.6894 C   0  0  0  0  0  0  0  0  0  0  0  0
   26.4439  -21.2502   -6.5525 C   0  0  0  0  0  0  0  0  0  0  0  0
   22.8123  -21.3959  -11.6102 N   0  0  0  0  0  0  0  0  0  0  0  0
   21.7302  -21.2525  -12.5928 C   0  0  1  0  0  0  0  0  0  0  0  0
   21.5150  -22.6111  -13.2355 C   0  0  0  0  0  0  0  0  0  0  0  0
   20.4124  -22.6478  -14.2366 C   0  0  0  0  0  0  0  0  0  0  0  0
   20.1736  -24.0584  -14.7713 C   0  0  0  0  0  0  0  0  0  0  0  0
   19.0647  -24.0277  -15.7944 C   0  0  0  0  0  0  0  0  0  0  0  0
   18.8219  -25.4081  -16.2167 N   0  0  0  0  0  0  0  0  0  0  0  0
   20.5181  -20.7171  -11.9828 C   0  0  0  0  0  0  0  0  0  0  0  0
   19.6077  -19.8620  -12.5714 O   0  0  0  0  0  0  0  0  0  0  0  0
   20.2137  -21.0383  -10.7752 O   0  0  0  0  0  0  0  0  0  0  0  0
  1  5  1  0
  2  1  1  0
  3  2  1  0
  3  4  1  0
  4  5  1  0
  6  7  2  0
  5  6  1  1
  8  9  1  0
  9 19  2  0
  9 10  1  0
 10 11  2  0
 12 11  1  0
 12 13  1  0
 14 13  1  1
 14 16  1  0
 14 15  1  0
 15  6  1  0
 16 17  2  0
 18 12  2  0
 19 18  1  0
 20 16  1  0
 20 21  1  0
 21 27  1  0
 22 23  1  0
 21 22  1  1
 24 23  1  0
 25 24  1  0
 26 25  1  0
 27 29  2  0
 27 28  1  0
M  END
$$$$
