PYK.pdb
     RDKit          3D

 29 30  0  0  1  0  0  0  0  0999 V2000
   24.9146  -11.4729  -19.4139 N   0  0  0  0  0  0  0  0  0  0  0  0
   25.3101  -12.7016  -20.0312 C   0  0  0  0  0  0  0  0  0  0  0  0
   24.2954  -13.0023  -21.1211 C   0  0  0  0  0  0  0  0  0  0  0  0
   23.0382  -12.3983  -20.5120 C   0  0  0  0  0  0  0  0  0  0  0  0
   23.6053  -11.1257  -19.8978 C   0  0  1  0  0  0  0  0  0  0  0  0
   22.7316  -10.5590  -18.8695 C   0  0  0  0  0  0  0  0  0  0  0  0
   21.5335  -10.3027  -19.1401 O   0  0  0  0  0  0  0  0  0  0  0  0
   21.3564  -16.0487  -14.8948 O   0  0  0  0  0  0  0  0  0  0  0  0
   21.7196  -14.6892  -14.9937 C   0  0  0  0  0  0  0  0  0  0  0  0
   20.7879  -13.7320  -15.3196 C   0  0  0  0  0  0  0  0  0  0  0  0
   21.1578  -12.3994  -15.4135 C   0  0  0  0  0  0  0  0  0  0  0  0
   22.4425  -11.9780  -15.1909 C   0  0  0  0  0  0  0  0  0  0  0  0
   22.8261  -10.5681  -15.2810 C   0  0  0  0  0  0  0  0  0  0  0  0
   22.3929   -9.8000  -16.4696 C   0  0  2  0  0  0  0  0  0  0  0  0
   23.2352  -10.3027  -17.5811 N   0  0  0  0  0  0  0  0  0  0  0  0
   22.6040   -8.3519  -16.4142 C   0  0  0  0  0  0  0  0  0  0  0  0
   23.7967   -7.8563  -16.4890 O   0  0  0  0  0  0  0  0  0  0  0  0
   23.3646  -12.9556  -14.8646 C   0  0  0  0  0  0  0  0  0  0  0  0
   23.0149  -14.2850  -14.7669 C   0  0  0  0  0  0  0  0  0  0  0  0
   21.5910   -7.3660  -16.2880 N   0  0  0  0  0  0  0  0  0  0  0  0
   21.9216   -5.9369  -16.2170 C   0  0  1  0  0  0  0  0  0  0  0  0
   20.9238   -5.1943  -17.0877 C   0  0  0  0  0  0  0  0  0  0  0  0
   21.0868   -3.7135  -17.0804 C   0  0  0  0  0  0  0  0  0  0  0  0
   19.9987   -3.0154  -17.8937 C   0  0  0  0  0  0  0  0  0  0  0  0
   20.1781   -1.5203  -17.7954 C   0  0  0  0  0  0  0  0  0  0  0  0
   19.2393   -0.9053  -18.7351 N   0  0  0  0  0  0  0  0  0  0  0  0
   21.9373   -5.4569  -14.8395 C   0  0  0  0  0  0  0  0  0  0  0  0
   22.5821   -4.3315  -14.3661 O   0  0  0  0  0  0  0  0  0  0  0  0
   21.3042   -6.1068  -13.9280 O   0  0  0  0  0  0  0  0  0  0  0  0
  1  5  1  0
  2  1  1  0
  3  2  1  0
  3  4  1  0
  4  5  1  0
  6  7  2  0
  5  6  1  1
  8  9  1  0
  9 19  2  0
  9 10  1  0
 10 11  2  0
 12 11  1  0
 12 13  1  0
 14 13  1  1
 14 16  1  0
 14 15  1  0
 15  6  1  0
 16 17  2  0
 18 12  2  0
 19 18  1  0
 20 16  1  0
 20 21  1  0
 21 27  1  0
 22 23  1  0
 21 22  1  6
 24 23  1  0
 25 24  1  0
 26 25  1  0
 27 29  2  0
 27 28  1  0
M  END
$$$$
