VIE.pdb
     RDKit          3D

 25 24  0  0  1  0  0  0  0  0999 V2000
    7.6600  -17.2953   20.5215 C   0  0  0  0  0  0  0  0  0  0  0  0
    6.4237  -16.3826   20.6402 C   0  0  2  0  0  0  0  0  0  0  0  0
    5.6793  -16.5786   19.3395 C   0  0  0  0  0  0  0  0  0  0  0  0
    6.9679  -14.9796   20.7030 C   0  0  2  0  0  0  0  0  0  0  0  0
    7.8869  -14.8625   19.5464 N   0  0  0  0  0  0  0  0  0  0  0  0
    7.7751  -14.6861   21.8999 C   0  0  0  0  0  0  0  0  0  0  0  0
    9.0201  -14.9465   21.8791 O   0  0  0  0  0  0  0  0  0  0  0  0
    7.3431  -11.7161   27.2827 C   0  0  0  0  0  0  0  0  0  0  0  0
    8.1656  -12.6859   26.4611 C   0  0  0  0  0  0  0  0  0  0  0  0
    7.3347  -13.0441   25.2528 C   0  0  2  0  0  0  0  0  0  0  0  0
    6.1069  -13.8237   25.6472 C   0  0  0  0  0  0  0  0  0  0  0  0
    8.1268  -13.9228   24.2702 C   0  0  2  0  0  0  0  0  0  0  0  0
    7.2992  -14.1223   23.1165 N   0  0  0  0  0  0  0  0  0  0  0  0
    8.5000  -15.1460   24.9990 C   0  0  0  0  0  0  0  0  0  0  0  0
    7.6290  -16.0508   25.2583 O   0  0  0  0  0  0  0  0  0  0  0  0
    9.7985  -15.4642   25.4819 N   0  0  0  0  0  0  0  0  0  0  0  0
   10.2052  -16.7958   25.8734 C   0  0  1  0  0  0  0  0  0  0  0  0
   11.5977  -17.1481   25.4201 C   0  0  0  0  0  0  0  0  0  0  0  0
   12.1284  -18.4224   25.9727 C   0  0  0  0  0  0  0  0  0  0  0  0
   13.4863  -18.6321   25.3893 C   0  0  0  0  0  0  0  0  0  0  0  0
   14.4523  -18.7860   26.1778 O   0  0  0  0  0  0  0  0  0  0  0  0
   10.2235  -16.8485   27.3525 C   0  0  0  0  0  0  0  0  0  0  0  0
   10.3642  -18.0733   27.9730 O   0  0  0  0  0  0  0  0  0  0  0  0
   13.7445  -18.6671   24.0438 O   0  0  0  0  0  0  0  0  0  0  0  0
   10.1157  -15.8186   28.0627 O   0  0  0  0  0  0  0  0  0  0  0  0
  2  3  1  6
  2  1  1  0
  4  2  1  0
  4  5  1  6
  6  4  1  0
  7  6  2  0
  9  8  1  0
 10  9  1  0
 10 11  1  1
 12 10  1  0
 12 13  1  6
 13  6  1  0
 14 12  1  0
 15 14  2  0
 16 14  1  0
 17 16  1  0
 18 19  1  0
 17 18  1  6
 19 20  1  0
 20 21  2  0
 20 24  1  0
 22 17  1  0
 22 23  1  0
 25 22  2  0
M  END
$$$$
