VIE.pdb
     RDKit          3D

 25 24  0  0  1  0  0  0  0  0999 V2000
    7.5470  -19.5116   24.0824 C   0  0  0  0  0  0  0  0  0  0  0  0
    6.1400  -19.0256   24.4820 C   0  0  2  0  0  0  0  0  0  0  0  0
    5.2049  -20.0866   23.9486 C   0  0  0  0  0  0  0  0  0  0  0  0
    5.9308  -17.7416   23.7232 C   0  0  2  0  0  0  0  0  0  0  0  0
    6.1337  -18.0904   22.2972 N   0  0  0  0  0  0  0  0  0  0  0  0
    6.9060  -16.6806   24.0288 C   0  0  0  0  0  0  0  0  0  0  0  0
    7.9658  -16.6016   23.3296 O   0  0  0  0  0  0  0  0  0  0  0  0
    5.4325  -12.1303   26.6643 C   0  0  0  0  0  0  0  0  0  0  0  0
    6.1889  -12.9011   25.6033 C   0  0  0  0  0  0  0  0  0  0  0  0
    7.2315  -13.7212   26.3235 C   0  0  2  0  0  0  0  0  0  0  0  0
    8.3692  -12.8572   26.8031 C   0  0  0  0  0  0  0  0  0  0  0  0
    7.8392  -14.7894   25.3990 C   0  0  2  0  0  0  0  0  0  0  0  0
    6.7874  -15.7004   25.0533 N   0  0  0  0  0  0  0  0  0  0  0  0
    8.9756  -15.3820   26.1229 C   0  0  0  0  0  0  0  0  0  0  0  0
    8.7859  -16.1645   27.1210 O   0  0  0  0  0  0  0  0  0  0  0  0
   10.3505  -15.1757   25.8268 N   0  0  0  0  0  0  0  0  0  0  0  0
   11.4088  -16.0530   26.2763 C   0  0  1  0  0  0  0  0  0  0  0  0
   12.7123  -15.8276   25.5560 C   0  0  0  0  0  0  0  0  0  0  0  0
   13.8095  -16.7500   25.9515 C   0  0  0  0  0  0  0  0  0  0  0  0
   14.9706  -16.4748   25.0545 C   0  0  0  0  0  0  0  0  0  0  0  0
   14.7521  -16.3551   23.8230 O   0  0  0  0  0  0  0  0  0  0  0  0
   11.6664  -15.7593   27.7039 C   0  0  0  0  0  0  0  0  0  0  0  0
   12.3547  -16.6863   28.4603 O   0  0  0  0  0  0  0  0  0  0  0  0
   16.2626  -16.3446   25.4927 O   0  0  0  0  0  0  0  0  0  0  0  0
   11.2811  -14.6971   28.2513 O   0  0  0  0  0  0  0  0  0  0  0  0
  2  3  1  6
  2  1  1  0
  4  2  1  0
  4  5  1  6
  6  4  1  0
  7  6  2  0
  9  8  1  0
 10  9  1  0
 10 11  1  6
 12 10  1  0
 12 13  1  1
 13  6  1  0
 14 12  1  0
 15 14  2  0
 16 14  1  0
 17 16  1  0
 18 19  1  0
 17 18  1  6
 19 20  1  0
 20 21  2  0
 20 24  1  0
 22 17  1  0
 22 23  1  0
 25 22  2  0
M  END
$$$$
