VIE.pdb
     RDKit          3D

 25 24  0  0  1  0  0  0  0  0999 V2000
    6.8515  -17.2331   19.5671 C   0  0  0  0  0  0  0  0  0  0  0  0
    7.5147  -16.9573   20.9309 C   0  0  2  0  0  0  0  0  0  0  0  0
    6.4718  -17.3571   21.9493 C   0  0  0  0  0  0  0  0  0  0  0  0
    7.7217  -15.4664   20.9799 C   0  0  2  0  0  0  0  0  0  0  0  0
    8.7156  -15.1727   19.9206 N   0  0  0  0  0  0  0  0  0  0  0  0
    8.3034  -14.9672   22.2380 C   0  0  0  0  0  0  0  0  0  0  0  0
    9.5475  -15.1313   22.4462 O   0  0  0  0  0  0  0  0  0  0  0  0
    6.9401  -11.4053   27.0734 C   0  0  0  0  0  0  0  0  0  0  0  0
    7.8626  -12.4818   26.5423 C   0  0  0  0  0  0  0  0  0  0  0  0
    7.2965  -12.9217   25.2140 C   0  0  2  0  0  0  0  0  0  0  0  0
    5.9319  -13.5388   25.3804 C   0  0  0  0  0  0  0  0  0  0  0  0
    8.1898  -13.9826   24.5494 C   0  0  2  0  0  0  0  0  0  0  0  0
    7.6029  -14.2973   23.2796 N   0  0  0  0  0  0  0  0  0  0  0  0
    8.2908  -15.1064   25.4945 C   0  0  0  0  0  0  0  0  0  0  0  0
    7.3102  -15.9152   25.6646 O   0  0  0  0  0  0  0  0  0  0  0  0
    9.4223  -15.4226   26.2947 N   0  0  0  0  0  0  0  0  0  0  0  0
    9.6705  -16.7341   26.8514 C   0  0  1  0  0  0  0  0  0  0  0  0
   10.6458  -17.5475   26.0415 C   0  0  0  0  0  0  0  0  0  0  0  0
   10.9573  -18.8878   26.6051 C   0  0  0  0  0  0  0  0  0  0  0  0
   12.0579  -19.4736   25.7842 C   0  0  0  0  0  0  0  0  0  0  0  0
   12.4681  -18.8212   24.7919 O   0  0  0  0  0  0  0  0  0  0  0  0
   10.2873  -16.5522   28.1846 C   0  0  0  0  0  0  0  0  0  0  0  0
   10.6144  -15.2765   28.5979 O   0  0  0  0  0  0  0  0  0  0  0  0
   12.6494  -20.6816   26.0471 O   0  0  0  0  0  0  0  0  0  0  0  0
   10.5235  -17.5169   28.9528 O   0  0  0  0  0  0  0  0  0  0  0  0
  2  3  1  1
  2  1  1  0
  4  2  1  0
  4  5  1  6
  6  4  1  0
  7  6  2  0
  9  8  1  0
 10  9  1  0
 10 11  1  1
 12 10  1  0
 12 13  1  6
 13  6  1  0
 14 12  1  0
 15 14  2  0
 16 14  1  0
 17 16  1  0
 18 19  1  0
 17 18  1  6
 19 20  1  0
 20 21  2  0
 20 24  1  0
 22 17  1  0
 22 23  1  0
 25 22  2  0
M  END
$$$$
