VIE.pdb
     RDKit          3D

 25 24  0  0  1  0  0  0  0  0999 V2000
    7.2968  -17.9697   20.0852 C   0  0  0  0  0  0  0  0  0  0  0  0
    7.9784  -17.5019   21.3861 C   0  0  2  0  0  0  0  0  0  0  0  0
    7.0904  -18.0261   22.4911 C   0  0  0  0  0  0  0  0  0  0  0  0
    7.9091  -15.9978   21.3545 C   0  0  2  0  0  0  0  0  0  0  0  0
    8.7673  -15.5888   20.2177 N   0  0  0  0  0  0  0  0  0  0  0  0
    8.4619  -15.3314   22.5464 C   0  0  0  0  0  0  0  0  0  0  0  0
    9.7249  -15.2740   22.6867 O   0  0  0  0  0  0  0  0  0  0  0  0
    6.7578  -11.4681   27.0076 C   0  0  0  0  0  0  0  0  0  0  0  0
    7.8592  -12.3726   26.4970 C   0  0  0  0  0  0  0  0  0  0  0  0
    7.2685  -13.1797   25.3664 C   0  0  2  0  0  0  0  0  0  0  0  0
    6.1312  -14.0426   25.8487 C   0  0  0  0  0  0  0  0  0  0  0  0
    8.3139  -14.1218   24.7463 C   0  0  2  0  0  0  0  0  0  0  0  0
    7.7127  -14.7227   23.5917 N   0  0  0  0  0  0  0  0  0  0  0  0
    8.7234  -15.0588   25.8051 C   0  0  0  0  0  0  0  0  0  0  0  0
    7.9309  -15.9813   26.2119 O   0  0  0  0  0  0  0  0  0  0  0  0
    9.9771  -15.0622   26.4751 N   0  0  0  0  0  0  0  0  0  0  0  0
   10.4423  -16.1538   27.3020 C   0  0  1  0  0  0  0  0  0  0  0  0
   11.7833  -16.6911   26.8758 C   0  0  0  0  0  0  0  0  0  0  0  0
   11.7885  -18.1323   26.5097 C   0  0  0  0  0  0  0  0  0  0  0  0
   12.9634  -18.3632   25.6182 C   0  0  0  0  0  0  0  0  0  0  0  0
   12.8311  -19.1655   24.6603 O   0  0  0  0  0  0  0  0  0  0  0  0
   10.6193  -15.6376   28.6778 C   0  0  0  0  0  0  0  0  0  0  0  0
   10.4164  -14.2931   28.9153 O   0  0  0  0  0  0  0  0  0  0  0  0
   14.1795  -17.7528   25.7808 O   0  0  0  0  0  0  0  0  0  0  0  0
   10.9475  -16.3791   29.6365 O   0  0  0  0  0  0  0  0  0  0  0  0
  2  3  1  1
  2  1  1  0
  4  2  1  0
  4  5  1  6
  6  4  1  0
  7  6  2  0
  9  8  1  0
 10  9  1  0
 10 11  1  1
 12 10  1  0
 12 13  1  6
 13  6  1  0
 14 12  1  0
 15 14  2  0
 16 14  1  0
 17 16  1  0
 18 19  1  0
 17 18  1  6
 19 20  1  0
 20 21  2  0
 20 24  1  0
 22 17  1  0
 22 23  1  0
 25 22  2  0
M  END
$$$$
