VIE.pdb
     RDKit          3D

 25 24  0  0  1  0  0  0  0  0999 V2000
    6.6570  -14.4612   19.2978 C   0  0  0  0  0  0  0  0  0  0  0  0
    7.1857  -13.8337   20.6025 C   0  0  2  0  0  0  0  0  0  0  0  0
    8.3537  -12.9785   20.1679 C   0  0  0  0  0  0  0  0  0  0  0  0
    7.6869  -14.9900   21.4271 C   0  0  2  0  0  0  0  0  0  0  0  0
    6.4759  -15.7534   21.8103 N   0  0  0  0  0  0  0  0  0  0  0  0
    8.3461  -14.6066   22.6875 C   0  0  0  0  0  0  0  0  0  0  0  0
    9.5829  -14.3098   22.6674 O   0  0  0  0  0  0  0  0  0  0  0  0
    5.6406  -11.9221   26.3165 C   0  0  0  0  0  0  0  0  0  0  0  0
    6.7913  -12.3441   25.4277 C   0  0  0  0  0  0  0  0  0  0  0  0
    7.4676  -13.5051   26.1157 C   0  0  2  0  0  0  0  0  0  0  0  0
    8.2660  -13.0428   27.3071 C   0  0  0  0  0  0  0  0  0  0  0  0
    8.4468  -14.2215   25.1708 C   0  0  2  0  0  0  0  0  0  0  0  0
    7.7296  -14.5270   23.9675 N   0  0  0  0  0  0  0  0  0  0  0  0
    8.9731  -15.3836   25.9048 C   0  0  0  0  0  0  0  0  0  0  0  0
    8.1838  -16.2730   26.3849 O   0  0  0  0  0  0  0  0  0  0  0  0
   10.3446  -15.6550   26.1620 N   0  0  0  0  0  0  0  0  0  0  0  0
   10.8229  -16.8884   26.7466 C   0  0  1  0  0  0  0  0  0  0  0  0
   12.1546  -17.3281   26.1969 C   0  0  0  0  0  0  0  0  0  0  0  0
   12.9521  -16.2472   25.5592 C   0  0  0  0  0  0  0  0  0  0  0  0
   14.2047  -16.8662   25.0333 C   0  0  0  0  0  0  0  0  0  0  0  0
   15.1679  -16.1089   24.7556 O   0  0  0  0  0  0  0  0  0  0  0  0
   11.0268  -16.6556   28.1940 C   0  0  0  0  0  0  0  0  0  0  0  0
   11.3334  -17.7302   29.0040 O   0  0  0  0  0  0  0  0  0  0  0  0
   14.3686  -18.2122   24.8346 O   0  0  0  0  0  0  0  0  0  0  0  0
   10.9308  -15.5154   28.7110 O   0  0  0  0  0  0  0  0  0  0  0  0
  2  3  1  6
  2  1  1  0
  4  2  1  0
  4  5  1  1
  6  4  1  0
  7  6  2  0
  9  8  1  0
 10  9  1  0
 10 11  1  1
 12 10  1  0
 12 13  1  6
 13  6  1  0
 14 12  1  0
 15 14  2  0
 16 14  1  0
 17 16  1  0
 18 19  1  0
 17 18  1  6
 19 20  1  0
 20 21  2  0
 20 24  1  0
 22 17  1  0
 22 23  1  0
 25 22  2  0
M  END
$$$$
