VIE.pdb
     RDKit          3D

 25 24  0  0  1  0  0  0  0  0999 V2000
    6.7321  -15.9892   19.0287 C   0  0  0  0  0  0  0  0  0  0  0  0
    7.5022  -15.9572   20.3634 C   0  0  2  0  0  0  0  0  0  0  0  0
    6.7816  -16.9531   21.2429 C   0  0  0  0  0  0  0  0  0  0  0  0
    7.3014  -14.5670   20.9069 C   0  0  2  0  0  0  0  0  0  0  0  0
    7.9741  -13.6666   19.9409 N   0  0  0  0  0  0  0  0  0  0  0  0
    7.9386  -14.3186   22.2116 C   0  0  0  0  0  0  0  0  0  0  0  0
    9.2011  -14.1704   22.2594 O   0  0  0  0  0  0  0  0  0  0  0  0
    5.4346  -11.6829   26.2620 C   0  0  0  0  0  0  0  0  0  0  0  0
    6.4978  -12.1187   25.2763 C   0  0  0  0  0  0  0  0  0  0  0  0
    6.9698  -13.4815   25.7217 C   0  0  2  0  0  0  0  0  0  0  0  0
    7.6800  -13.4057   27.0486 C   0  0  0  0  0  0  0  0  0  0  0  0
    7.9639  -14.0853   24.7156 C   0  0  2  0  0  0  0  0  0  0  0  0
    7.2741  -14.2209   23.4660 N   0  0  0  0  0  0  0  0  0  0  0  0
    8.4559  -15.3411   25.3050 C   0  0  0  0  0  0  0  0  0  0  0  0
    7.6455  -16.2840   25.6193 O   0  0  0  0  0  0  0  0  0  0  0  0
    9.8139  -15.6533   25.5861 N   0  0  0  0  0  0  0  0  0  0  0  0
   10.2558  -16.9370   26.0846 C   0  0  1  0  0  0  0  0  0  0  0  0
   11.5539  -17.3957   25.4738 C   0  0  0  0  0  0  0  0  0  0  0  0
   11.4725  -17.7493   24.0318 C   0  0  0  0  0  0  0  0  0  0  0  0
   12.8456  -18.1295   23.5860 C   0  0  0  0  0  0  0  0  0  0  0  0
   13.8046  -17.3944   23.9302 O   0  0  0  0  0  0  0  0  0  0  0  0
   10.5057  -16.7984   27.5369 C   0  0  0  0  0  0  0  0  0  0  0  0
   10.7995  -17.9289   28.2723 O   0  0  0  0  0  0  0  0  0  0  0  0
   13.1247  -19.2331   22.8230 O   0  0  0  0  0  0  0  0  0  0  0  0
   10.4599  -15.6892   28.1236 O   0  0  0  0  0  0  0  0  0  0  0  0
  2  3  1  1
  2  1  1  0
  4  2  1  0
  4  5  1  6
  6  4  1  0
  7  6  2  0
  9  8  1  0
 10  9  1  0
 10 11  1  1
 12 10  1  0
 12 13  1  6
 13  6  1  0
 14 12  1  0
 15 14  2  0
 16 14  1  0
 17 16  1  0
 18 19  1  0
 17 18  1  6
 19 20  1  0
 20 21  2  0
 20 24  1  0
 22 17  1  0
 22 23  1  0
 25 22  2  0
M  END
$$$$
