VIE.pdb
     RDKit          3D

 25 24  0  0  1  0  0  0  0  0999 V2000
    6.0074  -16.9298   19.9120 C   0  0  0  0  0  0  0  0  0  0  0  0
    6.9680  -16.7041   21.0961 C   0  0  2  0  0  0  0  0  0  0  0  0
    6.3628  -17.4943   22.2335 C   0  0  0  0  0  0  0  0  0  0  0  0
    6.8834  -15.2322   21.4037 C   0  0  2  0  0  0  0  0  0  0  0  0
    7.5020  -14.5518   20.2416 N   0  0  0  0  0  0  0  0  0  0  0  0
    7.6522  -14.8058   22.5858 C   0  0  0  0  0  0  0  0  0  0  0  0
    8.9204  -14.7488   22.5050 O   0  0  0  0  0  0  0  0  0  0  0  0
    5.5777  -11.5172   26.4445 C   0  0  0  0  0  0  0  0  0  0  0  0
    6.4555  -12.1554   25.3890 C   0  0  0  0  0  0  0  0  0  0  0  0
    7.0400  -13.4024   26.0070 C   0  0  2  0  0  0  0  0  0  0  0  0
    7.9117  -13.0676   27.1897 C   0  0  0  0  0  0  0  0  0  0  0  0
    7.9211  -14.1639   25.0026 C   0  0  2  0  0  0  0  0  0  0  0  0
    7.1132  -14.4363   23.8498 N   0  0  0  0  0  0  0  0  0  0  0  0
    8.4399  -15.3489   25.7047 C   0  0  0  0  0  0  0  0  0  0  0  0
    7.6434  -16.1981   26.2424 O   0  0  0  0  0  0  0  0  0  0  0  0
    9.8111  -15.6862   25.8683 N   0  0  0  0  0  0  0  0  0  0  0  0
   10.2681  -16.9287   26.4506 C   0  0  1  0  0  0  0  0  0  0  0  0
   11.6011  -17.3803   25.9140 C   0  0  0  0  0  0  0  0  0  0  0  0
   11.6222  -17.6579   24.4533 C   0  0  0  0  0  0  0  0  0  0  0  0
   12.9760  -17.2853   23.9466 C   0  0  0  0  0  0  0  0  0  0  0  0
   13.8148  -16.8412   24.7698 O   0  0  0  0  0  0  0  0  0  0  0  0
   10.4574  -16.7074   27.9018 C   0  0  0  0  0  0  0  0  0  0  0  0
   10.8232  -17.7756   28.6956 O   0  0  0  0  0  0  0  0  0  0  0  0
   13.3608  -17.3982   22.6361 O   0  0  0  0  0  0  0  0  0  0  0  0
   10.2971  -15.5826   28.4363 O   0  0  0  0  0  0  0  0  0  0  0  0
  2  3  1  1
  2  1  1  0
  4  2  1  0
  4  5  1  6
  6  4  1  0
  7  6  2  0
  9  8  1  0
 10  9  1  0
 10 11  1  1
 12 10  1  0
 12 13  1  6
 13  6  1  0
 14 12  1  0
 15 14  2  0
 16 14  1  0
 17 16  1  0
 18 19  1  0
 17 18  1  6
 19 20  1  0
 20 21  2  0
 20 24  1  0
 22 17  1  0
 22 23  1  0
 25 22  2  0
M  END
$$$$
