VIE.pdb
     RDKit          3D

 25 24  0  0  1  0  0  0  0  0999 V2000
    6.8053  -16.9875   19.5164 C   0  0  0  0  0  0  0  0  0  0  0  0
    7.5735  -16.6710   20.8145 C   0  0  2  0  0  0  0  0  0  0  0  0
    6.8663  -17.4749   21.8813 C   0  0  0  0  0  0  0  0  0  0  0  0
    7.3525  -15.2017   21.0610 C   0  0  2  0  0  0  0  0  0  0  0  0
    7.9924  -14.5108   19.9168 N   0  0  0  0  0  0  0  0  0  0  0  0
    8.0038  -14.6768   22.2736 C   0  0  0  0  0  0  0  0  0  0  0  0
    9.2697  -14.5521   22.2849 O   0  0  0  0  0  0  0  0  0  0  0  0
    6.7031  -11.6034   27.4256 C   0  0  0  0  0  0  0  0  0  0  0  0
    7.7245  -12.4825   26.7356 C   0  0  0  0  0  0  0  0  0  0  0  0
    7.0715  -13.0004   25.4771 C   0  0  2  0  0  0  0  0  0  0  0  0
    5.8910  -13.8803   25.7978 C   0  0  0  0  0  0  0  0  0  0  0  0
    8.0502  -13.8487   24.6478 C   0  0  2  0  0  0  0  0  0  0  0  0
    7.3499  -14.2785   23.4729 N   0  0  0  0  0  0  0  0  0  0  0  0
    8.5294  -14.9271   25.5275 C   0  0  0  0  0  0  0  0  0  0  0  0
    7.7251  -15.8208   25.9734 O   0  0  0  0  0  0  0  0  0  0  0  0
    9.8679  -15.1071   25.9712 N   0  0  0  0  0  0  0  0  0  0  0  0
   10.3273  -16.2808   26.6805 C   0  0  1  0  0  0  0  0  0  0  0  0
   11.6715  -16.7704   26.2092 C   0  0  0  0  0  0  0  0  0  0  0  0
   11.7183  -17.1818   24.7810 C   0  0  0  0  0  0  0  0  0  0  0  0
   13.1290  -17.5576   24.4695 C   0  0  0  0  0  0  0  0  0  0  0  0
   13.9925  -17.4150   25.3710 O   0  0  0  0  0  0  0  0  0  0  0  0
   10.4943  -15.9142   28.1047 C   0  0  0  0  0  0  0  0  0  0  0  0
   10.7584  -16.9112   29.0219 O   0  0  0  0  0  0  0  0  0  0  0  0
   13.5408  -18.0493   23.2584 O   0  0  0  0  0  0  0  0  0  0  0  0
   10.4043  -14.7286   28.5082 O   0  0  0  0  0  0  0  0  0  0  0  0
  2  3  1  1
  2  1  1  0
  4  2  1  0
  4  5  1  6
  6  4  1  0
  7  6  2  0
  9  8  1  0
 10  9  1  0
 10 11  1  1
 12 10  1  0
 12 13  1  6
 13  6  1  0
 14 12  1  0
 15 14  2  0
 16 14  1  0
 17 16  1  0
 18 19  1  0
 17 18  1  6
 19 20  1  0
 20 21  2  0
 20 24  1  0
 22 17  1  0
 22 23  1  0
 25 22  2  0
M  END
$$$$
