VIE.pdb
     RDKit          3D

 25 24  0  0  1  0  0  0  0  0999 V2000
    5.3791  -18.7686   21.6483 C   0  0  0  0  0  0  0  0  0  0  0  0
    6.4619  -18.2625   22.6215 C   0  0  2  0  0  0  0  0  0  0  0  0
    5.8874  -18.5170   23.9961 C   0  0  0  0  0  0  0  0  0  0  0  0
    6.5535  -16.7787   22.3801 C   0  0  2  0  0  0  0  0  0  0  0  0
    7.1193  -16.6365   21.0179 N   0  0  0  0  0  0  0  0  0  0  0  0
    7.4726  -16.0643   23.2829 C   0  0  0  0  0  0  0  0  0  0  0  0
    8.7261  -16.1838   23.1022 O   0  0  0  0  0  0  0  0  0  0  0  0
    5.8355  -11.7043   26.1642 C   0  0  0  0  0  0  0  0  0  0  0  0
    6.6927  -12.5746   25.2698 C   0  0  0  0  0  0  0  0  0  0  0  0
    7.2972  -13.6401   26.1518 C   0  0  2  0  0  0  0  0  0  0  0  0
    8.3035  -13.0513   27.1064 C   0  0  0  0  0  0  0  0  0  0  0  0
    8.0366  -14.7013   25.3198 C   0  0  2  0  0  0  0  0  0  0  0  0
    7.0993  -15.2255   24.3698 N   0  0  0  0  0  0  0  0  0  0  0  0
    8.5864  -15.6806   26.2711 C   0  0  0  0  0  0  0  0  0  0  0  0
    7.8189  -16.3266   27.0700 O   0  0  0  0  0  0  0  0  0  0  0  0
    9.9594  -16.0177   26.4192 N   0  0  0  0  0  0  0  0  0  0  0  0
   10.4304  -17.1426   27.1966 C   0  0  1  0  0  0  0  0  0  0  0  0
   11.6908  -17.7575   26.6469 C   0  0  0  0  0  0  0  0  0  0  0  0
   12.2526  -18.8634   27.4667 C   0  0  0  0  0  0  0  0  0  0  0  0
   13.3941  -19.4502   26.7045 C   0  0  0  0  0  0  0  0  0  0  0  0
   13.8217  -18.8237   25.7029 O   0  0  0  0  0  0  0  0  0  0  0  0
   10.7649  -16.6498   28.5516 C   0  0  0  0  0  0  0  0  0  0  0  0
   11.0285  -17.5685   29.5474 O   0  0  0  0  0  0  0  0  0  0  0  0
   14.0054  -20.6326   27.0307 O   0  0  0  0  0  0  0  0  0  0  0  0
   10.8173  -15.4260   28.8274 O   0  0  0  0  0  0  0  0  0  0  0  0
  2  3  1  1
  2  1  1  0
  4  2  1  0
  4  5  1  6
  6  4  1  0
  7  6  2  0
  9  8  1  0
 10  9  1  0
 10 11  1  1
 12 10  1  0
 12 13  1  6
 13  6  1  0
 14 12  1  0
 15 14  2  0
 16 14  1  0
 17 16  1  0
 18 19  1  0
 17 18  1  6
 19 20  1  0
 20 21  2  0
 20 24  1  0
 22 17  1  0
 22 23  1  0
 25 22  2  0
M  END
$$$$
