VIE.pdb
     RDKit          3D

 25 24  0  0  1  0  0  0  0  0999 V2000
    8.0889  -16.7254   20.9179 C   0  0  0  0  0  0  0  0  0  0  0  0
    6.9537  -15.6828   20.9156 C   0  0  2  0  0  0  0  0  0  0  0  0
    6.4643  -15.6559   19.4858 C   0  0  0  0  0  0  0  0  0  0  0  0
    7.6157  -14.3711   21.2465 C   0  0  2  0  0  0  0  0  0  0  0  0
    8.7561  -14.2585   20.3069 N   0  0  0  0  0  0  0  0  0  0  0  0
    8.1910  -14.2969   22.6007 C   0  0  0  0  0  0  0  0  0  0  0  0
    9.4494  -14.4206   22.7402 O   0  0  0  0  0  0  0  0  0  0  0  0
    5.8430  -11.3714   26.5379 C   0  0  0  0  0  0  0  0  0  0  0  0
    6.7574  -12.0134   25.5163 C   0  0  0  0  0  0  0  0  0  0  0  0
    7.1402  -13.3660   26.0662 C   0  0  2  0  0  0  0  0  0  0  0  0
    7.8670  -13.2347   27.3797 C   0  0  0  0  0  0  0  0  0  0  0  0
    8.0809  -14.1138   25.1065 C   0  0  2  0  0  0  0  0  0  0  0  0
    7.4693  -14.0930   23.8099 N   0  0  0  0  0  0  0  0  0  0  0  0
    8.2989  -15.4514   25.6807 C   0  0  0  0  0  0  0  0  0  0  0  0
    8.1514  -15.6618   26.9371 O   0  0  0  0  0  0  0  0  0  0  0  0
    8.6793  -16.6156   24.9591 N   0  0  0  0  0  0  0  0  0  0  0  0
    9.8609  -17.3945   25.2574 C   0  0  1  0  0  0  0  0  0  0  0  0
   11.0450  -17.0272   24.4020 C   0  0  0  0  0  0  0  0  0  0  0  0
   12.3134  -17.7113   24.7682 C   0  0  0  0  0  0  0  0  0  0  0  0
   12.6654  -18.6318   23.6470 C   0  0  0  0  0  0  0  0  0  0  0  0
   12.9573  -18.1256   22.5347 O   0  0  0  0  0  0  0  0  0  0  0  0
   10.2530  -17.1073   26.6555 C   0  0  0  0  0  0  0  0  0  0  0  0
   10.3002  -18.1483   27.5605 O   0  0  0  0  0  0  0  0  0  0  0  0
   12.6896  -19.9977   23.7566 O   0  0  0  0  0  0  0  0  0  0  0  0
   10.5440  -15.9504   27.0474 O   0  0  0  0  0  0  0  0  0  0  0  0
  2  3  1  6
  2  1  1  0
  4  2  1  0
  4  5  1  6
  6  4  1  0
  7  6  2  0
  9  8  1  0
 10  9  1  0
 10 11  1  1
 12 10  1  0
 12 13  1  6
 13  6  1  0
 14 12  1  0
 15 14  2  0
 16 14  1  0
 17 16  1  0
 18 19  1  0
 17 18  1  6
 19 20  1  0
 20 21  2  0
 20 24  1  0
 22 17  1  0
 22 23  1  0
 25 22  2  0
M  END
$$$$
