VIE.pdb
     RDKit          3D

 25 24  0  0  1  0  0  0  0  0999 V2000
    9.0491  -20.6588   17.0023 C   0  0  0  0  0  0  0  0  0  0  0  0
    9.6342  -19.7105   18.0672 C   0  0  2  0  0  0  0  0  0  0  0  0
    8.9662  -20.1278   19.3572 C   0  0  0  0  0  0  0  0  0  0  0  0
    9.1632  -18.3339   17.6780 C   0  0  2  0  0  0  0  0  0  0  0  0
    9.8286  -18.0416   16.3864 N   0  0  0  0  0  0  0  0  0  0  0  0
    9.5701  -17.2606   18.6013 C   0  0  0  0  0  0  0  0  0  0  0  0
   10.7801  -16.8680   18.5903 O   0  0  0  0  0  0  0  0  0  0  0  0
    6.4604  -12.9797   20.2617 C   0  0  0  0  0  0  0  0  0  0  0  0
    7.6431  -13.7836   19.7648 C   0  0  0  0  0  0  0  0  0  0  0  0
    8.0129  -14.7408   20.8718 C   0  0  2  0  0  0  0  0  0  0  0  0
    8.4097  -14.0002   22.1228 C   0  0  0  0  0  0  0  0  0  0  0  0
    9.2097  -15.6207   20.4736 C   0  0  2  0  0  0  0  0  0  0  0  0
    8.7294  -16.5912   19.5338 N   0  0  0  0  0  0  0  0  0  0  0  0
    9.7671  -16.1703   21.7200 C   0  0  0  0  0  0  0  0  0  0  0  0
    9.1762  -17.1229   22.3430 O   0  0  0  0  0  0  0  0  0  0  0  0
   10.9628  -15.7413   22.3580 N   0  0  0  0  0  0  0  0  0  0  0  0
   11.7865  -16.6001   23.1800 C   0  0  1  0  0  0  0  0  0  0  0  0
   13.2458  -16.2282   23.1499 C   0  0  0  0  0  0  0  0  0  0  0  0
   14.1130  -17.0381   24.0461 C   0  0  0  0  0  0  0  0  0  0  0  0
   15.5064  -16.5205   23.9079 C   0  0  0  0  0  0  0  0  0  0  0  0
   16.2162  -16.4476   24.9420 O   0  0  0  0  0  0  0  0  0  0  0  0
   11.3462  -16.4427   24.5843 C   0  0  0  0  0  0  0  0  0  0  0  0
   10.4264  -15.4591   24.8870 O   0  0  0  0  0  0  0  0  0  0  0  0
   16.0598  -16.1194   22.7201 O   0  0  0  0  0  0  0  0  0  0  0  0
   11.7795  -17.1721   25.5100 O   0  0  0  0  0  0  0  0  0  0  0  0
  2  3  1  1
  2  1  1  0
  4  2  1  0
  4  5  1  6
  6  4  1  0
  7  6  2  0
  9  8  1  0
 10  9  1  0
 10 11  1  1
 12 10  1  0
 12 13  1  6
 13  6  1  0
 14 12  1  0
 15 14  2  0
 16 14  1  0
 17 16  1  0
 18 19  1  0
 17 18  1  1
 19 20  1  0
 20 21  2  0
 20 24  1  0
 22 17  1  0
 22 23  1  0
 25 22  2  0
M  END
$$$$
