VIE.pdb
     RDKit          3D

 25 24  0  0  1  0  0  0  0  0999 V2000
    6.2171  -16.2899   19.1788 C   0  0  0  0  0  0  0  0  0  0  0  0
    7.1207  -16.2538   20.4268 C   0  0  2  0  0  0  0  0  0  0  0  0
    6.4468  -17.1811   21.4119 C   0  0  0  0  0  0  0  0  0  0  0  0
    7.0444  -14.8378   20.9341 C   0  0  2  0  0  0  0  0  0  0  0  0
    7.6635  -14.0070   19.8746 N   0  0  0  0  0  0  0  0  0  0  0  0
    7.8183  -14.5815   22.1611 C   0  0  0  0  0  0  0  0  0  0  0  0
    9.0869  -14.5256   22.0858 O   0  0  0  0  0  0  0  0  0  0  0  0
    5.6514  -11.8343   26.4108 C   0  0  0  0  0  0  0  0  0  0  0  0
    6.5938  -12.2578   25.3043 C   0  0  0  0  0  0  0  0  0  0  0  0
    7.1815  -13.5847   25.7193 C   0  0  2  0  0  0  0  0  0  0  0  0
    8.0200  -13.4444   26.9634 C   0  0  0  0  0  0  0  0  0  0  0  0
    8.0970  -14.1576   24.6244 C   0  0  2  0  0  0  0  0  0  0  0  0
    7.2841  -14.3806   23.4645 N   0  0  0  0  0  0  0  0  0  0  0  0
    8.7354  -15.3578   25.1886 C   0  0  0  0  0  0  0  0  0  0  0  0
    8.0388  -16.3844   25.5135 O   0  0  0  0  0  0  0  0  0  0  0  0
   10.1259  -15.5249   25.4325 N   0  0  0  0  0  0  0  0  0  0  0  0
   10.7656  -16.8135   25.5806 C   0  0  1  0  0  0  0  0  0  0  0  0
   12.1677  -16.8463   25.0314 C   0  0  0  0  0  0  0  0  0  0  0  0
   12.9004  -18.1178   25.2710 C   0  0  0  0  0  0  0  0  0  0  0  0
   14.2739  -17.9556   24.7090 C   0  0  0  0  0  0  0  0  0  0  0  0
   14.8715  -16.8689   24.9106 O   0  0  0  0  0  0  0  0  0  0  0  0
   10.8793  -17.1002   27.0283 C   0  0  0  0  0  0  0  0  0  0  0  0
   10.4664  -16.1412   27.9309 O   0  0  0  0  0  0  0  0  0  0  0  0
   14.9241  -18.9209   23.9855 O   0  0  0  0  0  0  0  0  0  0  0  0
   11.3381  -18.1846   27.4643 O   0  0  0  0  0  0  0  0  0  0  0  0
  2  3  1  1
  2  1  1  0
  4  2  1  0
  4  5  1  6
  6  4  1  0
  7  6  2  0
  9  8  1  0
 10  9  1  0
 10 11  1  1
 12 10  1  0
 12 13  1  6
 13  6  1  0
 14 12  1  0
 15 14  2  0
 16 14  1  0
 17 16  1  0
 18 19  1  0
 17 18  1  1
 19 20  1  0
 20 21  2  0
 20 24  1  0
 22 17  1  0
 22 23  1  0
 25 22  2  0
M  END
$$$$
