VIE.pdb
     RDKit          3D

 25 24  0  0  1  0  0  0  0  0999 V2000
    8.4332  -18.1904   20.0476 C   0  0  0  0  0  0  0  0  0  0  0  0
    8.9694  -17.5543   21.3450 C   0  0  2  0  0  0  0  0  0  0  0  0
    8.2807  -18.3147   22.4549 C   0  0  0  0  0  0  0  0  0  0  0  0
    8.4749  -16.1319   21.3262 C   0  0  2  0  0  0  0  0  0  0  0  0
    9.1746  -15.4877   20.1898 N   0  0  0  0  0  0  0  0  0  0  0  0
    8.8222  -15.3441   22.5216 C   0  0  0  0  0  0  0  0  0  0  0  0
   10.0487  -15.1181   22.7723 O   0  0  0  0  0  0  0  0  0  0  0  0
    6.2424  -11.7806   26.8294 C   0  0  0  0  0  0  0  0  0  0  0  0
    7.4609  -12.5995   26.4599 C   0  0  0  0  0  0  0  0  0  0  0  0
    7.1103  -13.3553   25.2012 C   0  0  2  0  0  0  0  0  0  0  0  0
    5.9907  -14.3334   25.4467 C   0  0  0  0  0  0  0  0  0  0  0  0
    8.3095  -14.1675   24.6845 C   0  0  2  0  0  0  0  0  0  0  0  0
    7.9053  -14.7878   23.4566 N   0  0  0  0  0  0  0  0  0  0  0  0
    8.6933  -15.0926   25.7631 C   0  0  0  0  0  0  0  0  0  0  0  0
    7.8970  -16.0199   26.1511 O   0  0  0  0  0  0  0  0  0  0  0  0
    9.9246  -15.0788   26.4733 N   0  0  0  0  0  0  0  0  0  0  0  0
   10.3670  -16.1538   27.3338 C   0  0  1  0  0  0  0  0  0  0  0  0
   11.7067  -16.7172   26.9382 C   0  0  0  0  0  0  0  0  0  0  0  0
   12.5340  -15.8184   26.0904 C   0  0  0  0  0  0  0  0  0  0  0  0
   13.7166  -16.6032   25.6276 C   0  0  0  0  0  0  0  0  0  0  0  0
   13.7888  -17.8140   25.9555 O   0  0  0  0  0  0  0  0  0  0  0  0
   10.5335  -15.6042   28.6979 C   0  0  0  0  0  0  0  0  0  0  0  0
   10.3531  -14.2502   28.8964 O   0  0  0  0  0  0  0  0  0  0  0  0
   14.7300  -16.0832   24.8657 O   0  0  0  0  0  0  0  0  0  0  0  0
   10.8330  -16.3257   29.6810 O   0  0  0  0  0  0  0  0  0  0  0  0
  2  3  1  1
  2  1  1  0
  4  2  1  0
  4  5  1  6
  6  4  1  0
  7  6  2  0
  9  8  1  0
 10  9  1  0
 10 11  1  1
 12 10  1  0
 12 13  1  6
 13  6  1  0
 14 12  1  0
 15 14  2  0
 16 14  1  0
 17 16  1  0
 18 19  1  0
 17 18  1  6
 19 20  1  0
 20 21  2  0
 20 24  1  0
 22 17  1  0
 22 23  1  0
 25 22  2  0
M  END
$$$$
