VIE.pdb
     RDKit          3D

 25 24  0  0  1  0  0  0  0  0999 V2000
    7.1123  -19.4732   23.5269 C   0  0  0  0  0  0  0  0  0  0  0  0
    5.7100  -18.9249   23.8563 C   0  0  2  0  0  0  0  0  0  0  0  0
    4.7568  -19.9030   23.2088 C   0  0  0  0  0  0  0  0  0  0  0  0
    5.6251  -17.5966   23.1515 C   0  0  2  0  0  0  0  0  0  0  0  0
    5.9207  -17.8872   21.7287 N   0  0  0  0  0  0  0  0  0  0  0  0
    6.6254  -16.6056   23.5843 C   0  0  0  0  0  0  0  0  0  0  0  0
    7.7080  -16.4986   22.9250 O   0  0  0  0  0  0  0  0  0  0  0  0
    5.3102  -12.2720   26.7712 C   0  0  0  0  0  0  0  0  0  0  0  0
    5.9577  -13.0019   25.6136 C   0  0  0  0  0  0  0  0  0  0  0  0
    6.9864  -13.9327   26.2085 C   0  0  2  0  0  0  0  0  0  0  0  0
    8.1407  -13.1642   26.7981 C   0  0  0  0  0  0  0  0  0  0  0  0
    7.5724  -14.8732   25.1422 C   0  0  2  0  0  0  0  0  0  0  0  0
    6.5085  -15.7240   24.6950 N   0  0  0  0  0  0  0  0  0  0  0  0
    8.7138  -15.5633   25.7646 C   0  0  0  0  0  0  0  0  0  0  0  0
    8.5337  -16.4363   26.6866 O   0  0  0  0  0  0  0  0  0  0  0  0
   10.0840  -15.3631   25.4434 N   0  0  0  0  0  0  0  0  0  0  0  0
   11.1118  -16.3585   25.6549 C   0  0  1  0  0  0  0  0  0  0  0  0
   12.3666  -16.0925   24.8653 C   0  0  0  0  0  0  0  0  0  0  0  0
   13.4565  -17.0816   25.0771 C   0  0  0  0  0  0  0  0  0  0  0  0
   14.6065  -16.6710   24.2183 C   0  0  0  0  0  0  0  0  0  0  0  0
   14.4934  -15.6190   23.5407 O   0  0  0  0  0  0  0  0  0  0  0  0
   11.5010  -16.3129   27.0821 C   0  0  0  0  0  0  0  0  0  0  0  0
   11.1896  -15.1896   27.8212 O   0  0  0  0  0  0  0  0  0  0  0  0
   15.7800  -17.3724   24.1235 O   0  0  0  0  0  0  0  0  0  0  0  0
   12.1044  -17.2597   27.6444 O   0  0  0  0  0  0  0  0  0  0  0  0
  2  3  1  6
  2  1  1  0
  4  2  1  0
  4  5  1  6
  6  4  1  0
  7  6  2  0
  9  8  1  0
 10  9  1  0
 10 11  1  6
 12 10  1  0
 12 13  1  1
 13  6  1  0
 14 12  1  0
 15 14  2  0
 16 14  1  0
 17 16  1  0
 18 19  1  0
 17 18  1  6
 19 20  1  0
 20 21  2  0
 20 24  1  0
 22 17  1  0
 22 23  1  0
 25 22  2  0
M  END
$$$$
