CFF.pdb
     RDKit          3D

 29 30  0  0  1  0  0  0  0  0999 V2000
    6.7653  -19.6189   21.4795 N   0  0  0  0  0  0  0  0  0  0  0  0
    6.6804  -18.8113   22.6793 C   0  0  1  0  0  0  0  0  0  0  0  0
    6.6149  -19.7564   23.8570 C   0  0  0  0  0  0  0  0  0  0  0  0
    6.5175  -18.7839   25.3848 S   0  0  0  0  0  0  0  0  0  0  0  0
    7.8652  -17.9335   22.7288 C   0  0  0  0  0  0  0  0  0  0  0  0
    8.9778  -18.2465   22.2244 O   0  0  0  0  0  0  0  0  0  0  0  0
    7.8051  -16.6643   23.3626 N   0  0  0  0  0  0  0  0  0  0  0  0
    8.9482  -15.7610   23.3783 C   0  0  1  0  0  0  0  0  0  0  0  0
    8.5341  -14.3371   23.2747 C   0  0  0  0  0  0  0  0  0  0  0  0
    7.6183  -13.9107   24.3523 C   0  0  0  0  0  0  0  0  0  0  0  0
    6.3142  -14.4204   24.3779 C   0  0  0  0  0  0  0  0  0  0  0  0
    5.4106  -14.0861   25.3605 C   0  0  0  0  0  0  0  0  0  0  0  0
    5.7866  -13.2186   26.3644 C   0  0  0  0  0  0  0  0  0  0  0  0
    7.0765  -12.7136   26.3403 C   0  0  0  0  0  0  0  0  0  0  0  0
    7.9781  -13.0444   25.3640 C   0  0  0  0  0  0  0  0  0  0  0  0
    9.8176  -16.0100   24.5390 C   0  0  0  0  0  0  0  0  0  0  0  0
   10.9360  -15.4435   24.5888 O   0  0  0  0  0  0  0  0  0  0  0  0
    9.4028  -16.8776   25.5905 N   0  0  0  0  0  0  0  0  0  0  0  0
   10.3764  -17.4375   26.4989 C   0  0  1  0  0  0  0  0  0  0  0  0
   10.0354  -17.0185   27.8929 C   0  0  0  0  0  0  0  0  0  0  0  0
   10.1889  -15.5815   28.1160 C   0  0  0  0  0  0  0  0  0  0  0  0
   11.3765  -14.9793   28.3963 C   0  0  0  0  0  0  0  0  0  0  0  0
   11.4581  -13.6096   28.5943 C   0  0  0  0  0  0  0  0  0  0  0  0
   10.3445  -12.8020   28.5163 C   0  0  0  0  0  0  0  0  0  0  0  0
    9.1369  -13.4230   28.2303 C   0  0  0  0  0  0  0  0  0  0  0  0
    9.0546  -14.7763   28.0343 C   0  0  0  0  0  0  0  0  0  0  0  0
   10.4872  -18.8927   26.3556 C   0  0  0  0  0  0  0  0  0  0  0  0
    9.8324  -19.5836   25.5421 O   0  0  0  0  0  0  0  0  0  0  0  0
   11.3904  -19.5788   27.1846 O   0  0  0  0  0  0  0  0  0  0  0  0
  2  1  1  6
  3  2  1  0
  4  3  1  0
  5  2  1  0
  5  6  2  0
  7  5  1  0
  8  7  1  0
  8  9  1  1
 10 11  2  0
 10  9  1  0
 12 11  1  0
 13 12  2  0
 14 13  1  0
 14 15  2  0
 15 10  1  0
 16  8  1  0
 17 16  2  0
 18 16  1  0
 19 20  1  1
 19 18  1  0
 21 20  1  0
 22 21  2  0
 23 22  1  0
 24 25  1  0
 24 23  2  0
 25 26  2  0
 26 21  1  0
 27 29  1  0
 27 19  1  0
 28 27  2  0
M  END
$$$$
