CFF.pdb
     RDKit          3D

 29 30  0  0  1  0  0  0  0  0999 V2000
   11.0255  -16.4113   18.6854 N   0  0  0  0  0  0  0  0  0  0  0  0
   10.1861  -17.2542   19.5125 C   0  0  1  0  0  0  0  0  0  0  0  0
   10.8769  -18.5923   19.6422 C   0  0  0  0  0  0  0  0  0  0  0  0
    9.8636  -19.6768   20.6846 S   0  0  0  0  0  0  0  0  0  0  0  0
   10.0050  -16.5869   20.8159 C   0  0  0  0  0  0  0  0  0  0  0  0
   10.9573  -16.0850   21.4727 O   0  0  0  0  0  0  0  0  0  0  0  0
    8.7177  -16.4768   21.4048 N   0  0  0  0  0  0  0  0  0  0  0  0
    8.5177  -15.8258   22.6928 C   0  0  1  0  0  0  0  0  0  0  0  0
    7.1278  -15.3238   22.8532 C   0  0  0  0  0  0  0  0  0  0  0  0
    6.9091  -14.5903   24.1165 C   0  0  0  0  0  0  0  0  0  0  0  0
    6.1931  -15.2106   25.1478 C   0  0  0  0  0  0  0  0  0  0  0  0
    5.9664  -14.5995   26.3598 C   0  0  0  0  0  0  0  0  0  0  0  0
    6.4553  -13.3296   26.5837 C   0  0  0  0  0  0  0  0  0  0  0  0
    7.1640  -12.7148   25.5642 C   0  0  0  0  0  0  0  0  0  0  0  0
    7.3912  -13.3203   24.3571 C   0  0  0  0  0  0  0  0  0  0  0  0
    8.9336  -16.6928   23.8066 C   0  0  0  0  0  0  0  0  0  0  0  0
    8.4537  -17.8495   23.8838 O   0  0  0  0  0  0  0  0  0  0  0  0
    9.8641  -16.2330   24.7830 N   0  0  0  0  0  0  0  0  0  0  0  0
   10.3648  -17.1359   25.7932 C   0  0  1  0  0  0  0  0  0  0  0  0
   11.5844  -16.5369   26.4169 C   0  0  0  0  0  0  0  0  0  0  0  0
   11.2780  -15.4865   27.3870 C   0  0  0  0  0  0  0  0  0  0  0  0
   11.1967  -15.6932   28.7294 C   0  0  0  0  0  0  0  0  0  0  0  0
   10.9057  -14.6539   29.5997 C   0  0  0  0  0  0  0  0  0  0  0  0
   10.6872  -13.3719   29.1447 C   0  0  0  0  0  0  0  0  0  0  0  0
   10.7717  -13.1687   27.7746 C   0  0  0  0  0  0  0  0  0  0  0  0
   11.0591  -14.1945   26.9133 C   0  0  0  0  0  0  0  0  0  0  0  0
    9.3357  -17.4814   26.7790 C   0  0  0  0  0  0  0  0  0  0  0  0
    8.2085  -16.9413   26.8562 O   0  0  0  0  0  0  0  0  0  0  0  0
    9.6182  -18.4911   27.7140 O   0  0  0  0  0  0  0  0  0  0  0  0
  2  1  1  6
  3  2  1  0
  4  3  1  0
  5  2  1  0
  5  6  2  0
  7  5  1  0
  8  7  1  0
  8  9  1  1
 10 11  2  0
 10  9  1  0
 12 11  1  0
 13 12  2  0
 14 13  1  0
 14 15  2  0
 15 10  1  0
 16  8  1  0
 17 16  2  0
 18 16  1  0
 19 20  1  1
 19 18  1  0
 21 20  1  0
 22 21  2  0
 23 22  1  0
 24 25  1  0
 24 23  2  0
 25 26  2  0
 26 21  1  0
 27 29  1  0
 27 19  1  0
 28 27  2  0
M  END
$$$$
