CFF.pdb
     RDKit          3D

 29 30  0  0  1  0  0  0  0  0999 V2000
   10.2322  -16.7504   18.2383 N   0  0  0  0  0  0  0  0  0  0  0  0
    9.7017  -17.6110   19.2761 C   0  0  1  0  0  0  0  0  0  0  0  0
   10.5709  -18.8464   19.3273 C   0  0  0  0  0  0  0  0  0  0  0  0
    9.9496  -19.9473   20.6279 S   0  0  0  0  0  0  0  0  0  0  0  0
    9.7146  -16.8621   20.5472 C   0  0  0  0  0  0  0  0  0  0  0  0
   10.7222  -16.2296   20.9656 O   0  0  0  0  0  0  0  0  0  0  0  0
    8.5641  -16.8184   21.3782 N   0  0  0  0  0  0  0  0  0  0  0  0
    8.5415  -16.0490   22.6153 C   0  0  1  0  0  0  0  0  0  0  0  0
    7.1722  -15.5807   22.9548 C   0  0  0  0  0  0  0  0  0  0  0  0
    7.1050  -14.8305   24.2254 C   0  0  0  0  0  0  0  0  0  0  0  0
    7.7132  -13.5716   24.3048 C   0  0  0  0  0  0  0  0  0  0  0  0
    7.6756  -12.8047   25.4469 C   0  0  0  0  0  0  0  0  0  0  0  0
    7.0190  -13.2783   26.5634 C   0  0  0  0  0  0  0  0  0  0  0  0
    6.4168  -14.5237   26.4861 C   0  0  0  0  0  0  0  0  0  0  0  0
    6.4525  -15.2891   25.3511 C   0  0  0  0  0  0  0  0  0  0  0  0
    9.1734  -16.7857   23.7213 C   0  0  0  0  0  0  0  0  0  0  0  0
    8.8759  -17.9927   23.8913 O   0  0  0  0  0  0  0  0  0  0  0  0
   10.1070  -16.1458   24.5869 N   0  0  0  0  0  0  0  0  0  0  0  0
   10.8113  -16.9098   25.5903 C   0  0  1  0  0  0  0  0  0  0  0  0
   11.7611  -16.0063   26.3091 C   0  0  0  0  0  0  0  0  0  0  0  0
   11.1025  -15.1351   27.2816 C   0  0  0  0  0  0  0  0  0  0  0  0
   10.6277  -13.8939   26.9897 C   0  0  0  0  0  0  0  0  0  0  0  0
   10.0085  -13.1162   27.9562 C   0  0  0  0  0  0  0  0  0  0  0  0
    9.8477  -13.5649   29.2489 C   0  0  0  0  0  0  0  0  0  0  0  0
   10.3345  -14.8316   29.5392 C   0  0  0  0  0  0  0  0  0  0  0  0
   10.9466  -15.6013   28.5854 C   0  0  0  0  0  0  0  0  0  0  0  0
    9.8915  -17.6029   26.4980 C   0  0  0  0  0  0  0  0  0  0  0  0
   10.2330  -18.4559   27.3489 O   0  0  0  0  0  0  0  0  0  0  0  0
    8.5220  -17.2996   26.4212 O   0  0  0  0  0  0  0  0  0  0  0  0
  2  1  1  6
  3  2  1  0
  4  3  1  0
  5  2  1  0
  5  6  2  0
  7  5  1  0
  8  7  1  0
  8  9  1  1
 10 11  2  0
 10  9  1  0
 12 11  1  0
 13 12  2  0
 14 13  1  0
 14 15  2  0
 15 10  1  0
 16  8  1  0
 17 16  2  0
 18 16  1  0
 19 20  1  1
 19 18  1  0
 21 20  1  0
 22 21  2  0
 23 22  1  0
 24 25  1  0
 24 23  2  0
 25 26  2  0
 26 21  1  0
 27 29  1  0
 27 19  1  0
 28 27  2  0
M  END
$$$$
