CFF.pdb
     RDKit          3D

 29 30  0  0  1  0  0  0  0  0999 V2000
    9.2776  -18.9951   19.3703 N   0  0  0  0  0  0  0  0  0  0  0  0
    8.4905  -18.7455   20.5608 C   0  0  1  0  0  0  0  0  0  0  0  0
    8.4997  -20.0136   21.3832 C   0  0  0  0  0  0  0  0  0  0  0  0
    7.4073  -19.7927   22.8140 S   0  0  0  0  0  0  0  0  0  0  0  0
    9.0908  -17.6055   21.2796 C   0  0  0  0  0  0  0  0  0  0  0  0
   10.3334  -17.3951   21.3250 O   0  0  0  0  0  0  0  0  0  0  0  0
    8.2763  -16.6698   21.9704 N   0  0  0  0  0  0  0  0  0  0  0  0
    8.8468  -15.5214   22.6621 C   0  0  1  0  0  0  0  0  0  0  0  0
    7.9762  -14.3210   22.5599 C   0  0  0  0  0  0  0  0  0  0  0  0
    7.9104  -13.7561   21.1967 C   0  0  0  0  0  0  0  0  0  0  0  0
    8.7450  -14.2807   20.2021 C   0  0  0  0  0  0  0  0  0  0  0  0
    8.7265  -13.8209   18.9052 C   0  0  0  0  0  0  0  0  0  0  0  0
    7.8604  -12.8065   18.5550 C   0  0  0  0  0  0  0  0  0  0  0  0
    7.0340  -12.2865   19.5381 C   0  0  0  0  0  0  0  0  0  0  0  0
    7.0500  -12.7420   20.8294 C   0  0  0  0  0  0  0  0  0  0  0  0
    9.1934  -15.8468   24.0546 C   0  0  0  0  0  0  0  0  0  0  0  0
   10.3455  -15.5740   24.4701 O   0  0  0  0  0  0  0  0  0  0  0  0
    8.2426  -16.4605   24.9204 N   0  0  0  0  0  0  0  0  0  0  0  0
    8.6006  -16.7845   26.2819 C   0  0  1  0  0  0  0  0  0  0  0  0
    7.5770  -16.2033   27.2034 C   0  0  0  0  0  0  0  0  0  0  0  0
    7.3130  -14.7872   26.9511 C   0  0  0  0  0  0  0  0  0  0  0  0
    6.2629  -14.3298   26.2167 C   0  0  0  0  0  0  0  0  0  0  0  0
    6.0639  -12.9725   26.0160 C   0  0  0  0  0  0  0  0  0  0  0  0
    6.9177  -12.0318   26.5494 C   0  0  0  0  0  0  0  0  0  0  0  0
    7.9864  -12.5056   27.2970 C   0  0  0  0  0  0  0  0  0  0  0  0
    8.1844  -13.8465   27.4963 C   0  0  0  0  0  0  0  0  0  0  0  0
    8.7814  -18.2271   26.4732 C   0  0  0  0  0  0  0  0  0  0  0  0
    8.5662  -19.0975   25.5990 O   0  0  0  0  0  0  0  0  0  0  0  0
    9.2287  -18.6843   27.7239 O   0  0  0  0  0  0  0  0  0  0  0  0
  2  1  1  6
  3  2  1  0
  4  3  1  0
  5  2  1  0
  5  6  2  0
  7  5  1  0
  8  7  1  0
  8  9  1  1
 10 11  2  0
 10  9  1  0
 12 11  1  0
 13 12  2  0
 14 13  1  0
 14 15  2  0
 15 10  1  0
 16  8  1  0
 17 16  2  0
 18 16  1  0
 19 20  1  1
 19 18  1  0
 21 20  1  0
 22 21  2  0
 23 22  1  0
 24 25  1  0
 24 23  2  0
 25 26  2  0
 26 21  1  0
 27 29  1  0
 27 19  1  0
 28 27  2  0
M  END
$$$$
