CFF.pdb
     RDKit          3D

 29 30  0  0  1  0  0  0  0  0999 V2000
    6.0573  -20.0781   22.6519 N   0  0  0  0  0  0  0  0  0  0  0  0
    6.3621  -19.1599   23.7305 C   0  0  1  0  0  0  0  0  0  0  0  0
    6.9739  -19.9671   24.8523 C   0  0  0  0  0  0  0  0  0  0  0  0
    7.4427  -18.8426   26.1959 S   0  0  0  0  0  0  0  0  0  0  0  0
    7.2829  -18.1300   23.2126 C   0  0  0  0  0  0  0  0  0  0  0  0
    8.1798  -18.3720   22.3598 O   0  0  0  0  0  0  0  0  0  0  0  0
    7.1990  -16.7859   23.6622 N   0  0  0  0  0  0  0  0  0  0  0  0
    8.0038  -15.7273   23.0668 C   0  0  1  0  0  0  0  0  0  0  0  0
    7.3572  -14.3953   23.1983 C   0  0  0  0  0  0  0  0  0  0  0  0
    7.2277  -13.9397   24.5974 C   0  0  0  0  0  0  0  0  0  0  0  0
    7.7904  -12.7119   24.9676 C   0  0  0  0  0  0  0  0  0  0  0  0
    7.6936  -12.2114   26.2458 C   0  0  0  0  0  0  0  0  0  0  0  0
    7.0212  -12.9326   27.2100 C   0  0  0  0  0  0  0  0  0  0  0  0
    6.4640  -14.1475   26.8451 C   0  0  0  0  0  0  0  0  0  0  0  0
    6.5586  -14.6482   25.5740 C   0  0  0  0  0  0  0  0  0  0  0  0
    9.3801  -15.7373   23.5873 C   0  0  0  0  0  0  0  0  0  0  0  0
   10.2381  -15.0027   23.0409 O   0  0  0  0  0  0  0  0  0  0  0  0
    9.7383  -16.5639   24.6912 N   0  0  0  0  0  0  0  0  0  0  0  0
   11.1010  -16.5892   25.1696 C   0  0  1  0  0  0  0  0  0  0  0  0
   11.5124  -15.1990   25.5344 C   0  0  0  0  0  0  0  0  0  0  0  0
   10.9098  -14.7287   26.7810 C   0  0  0  0  0  0  0  0  0  0  0  0
   10.2018  -13.5721   26.8928 C   0  0  0  0  0  0  0  0  0  0  0  0
    9.6509  -13.1816   28.1037 C   0  0  0  0  0  0  0  0  0  0  0  0
    9.7960  -13.9447   29.2416 C   0  0  0  0  0  0  0  0  0  0  0  0
   10.5193  -15.1227   29.1200 C   0  0  0  0  0  0  0  0  0  0  0  0
   11.0643  -15.5100   27.9243 C   0  0  0  0  0  0  0  0  0  0  0  0
   11.2780  -17.5402   26.2717 C   0  0  0  0  0  0  0  0  0  0  0  0
   12.3657  -17.7763   26.8456 O   0  0  0  0  0  0  0  0  0  0  0  0
   10.1544  -18.2478   26.7306 O   0  0  0  0  0  0  0  0  0  0  0  0
  2  1  1  6
  3  2  1  0
  4  3  1  0
  5  2  1  0
  5  6  2  0
  7  5  1  0
  8  7  1  0
  8  9  1  1
 10 11  2  0
 10  9  1  0
 12 11  1  0
 13 12  2  0
 14 13  1  0
 14 15  2  0
 15 10  1  0
 16  8  1  0
 17 16  2  0
 18 16  1  0
 19 20  1  1
 19 18  1  0
 21 20  1  0
 22 21  2  0
 23 22  1  0
 24 25  1  0
 24 23  2  0
 25 26  2  0
 26 21  1  0
 27 29  1  0
 27 19  1  0
 28 27  2  0
M  END
$$$$
