CFF.pdb
     RDKit          3D

 29 30  0  0  1  0  0  0  0  0999 V2000
    7.4990  -19.7573   20.7865 N   0  0  0  0  0  0  0  0  0  0  0  0
    7.4232  -19.6004   22.2248 C   0  0  1  0  0  0  0  0  0  0  0  0
    8.4451  -20.5314   22.8358 C   0  0  0  0  0  0  0  0  0  0  0  0
   10.0882  -19.7781   22.6865 S   0  0  0  0  0  0  0  0  0  0  0  0
    7.6879  -18.1855   22.5486 C   0  0  0  0  0  0  0  0  0  0  0  0
    8.2949  -17.4011   21.7699 O   0  0  0  0  0  0  0  0  0  0  0  0
    7.2604  -17.6289   23.7829 N   0  0  0  0  0  0  0  0  0  0  0  0
    7.4762  -16.2245   24.1055 C   0  0  1  0  0  0  0  0  0  0  0  0
    6.2914  -15.6164   24.7657 C   0  0  0  0  0  0  0  0  0  0  0  0
    6.4725  -14.1895   25.1014 C   0  0  0  0  0  0  0  0  0  0  0  0
    6.1021  -13.7379   26.3742 C   0  0  0  0  0  0  0  0  0  0  0  0
    6.2593  -12.4285   26.7671 C   0  0  0  0  0  0  0  0  0  0  0  0
    6.8000  -11.5141   25.8876 C   0  0  0  0  0  0  0  0  0  0  0  0
    7.1670  -11.9596   24.6280 C   0  0  0  0  0  0  0  0  0  0  0  0
    7.0118  -13.2619   24.2340 C   0  0  0  0  0  0  0  0  0  0  0  0
    8.7117  -16.0321   24.8812 C   0  0  0  0  0  0  0  0  0  0  0  0
    8.6389  -15.4845   26.0078 O   0  0  0  0  0  0  0  0  0  0  0  0
    9.9711  -16.4575   24.3679 N   0  0  0  0  0  0  0  0  0  0  0  0
   11.1919  -16.1183   25.0614 C   0  0  1  0  0  0  0  0  0  0  0  0
   11.0987  -16.6040   26.4722 C   0  0  0  0  0  0  0  0  0  0  0  0
   10.7345  -15.5519   27.4204 C   0  0  0  0  0  0  0  0  0  0  0  0
   10.7937  -15.6947   28.7723 C   0  0  0  0  0  0  0  0  0  0  0  0
   10.4379  -14.6571   29.6202 C   0  0  0  0  0  0  0  0  0  0  0  0
   10.0107  -13.4413   29.1325 C   0  0  0  0  0  0  0  0  0  0  0  0
    9.9528  -13.3031   27.7530 C   0  0  0  0  0  0  0  0  0  0  0  0
   10.3040  -14.3274   26.9138 C   0  0  0  0  0  0  0  0  0  0  0  0
   12.3780  -16.6261   24.3645 C   0  0  0  0  0  0  0  0  0  0  0  0
   13.5556  -16.5013   24.7717 O   0  0  0  0  0  0  0  0  0  0  0  0
   12.1984  -17.3056   23.1481 O   0  0  0  0  0  0  0  0  0  0  0  0
  2  1  1  6
  3  2  1  0
  4  3  1  0
  5  2  1  0
  5  6  2  0
  7  5  1  0
  8  7  1  0
  8  9  1  1
 10 11  2  0
 10  9  1  0
 12 11  1  0
 13 12  2  0
 14 13  1  0
 14 15  2  0
 15 10  1  0
 16  8  1  0
 17 16  2  0
 18 16  1  0
 19 20  1  1
 19 18  1  0
 21 20  1  0
 22 21  2  0
 23 22  1  0
 24 25  1  0
 24 23  2  0
 25 26  2  0
 26 21  1  0
 27 29  1  0
 27 19  1  0
 28 27  2  0
M  END
$$$$
