CFF.pdb
     RDKit          3D

 29 30  0  0  1  0  0  0  0  0999 V2000
   11.1886  -16.6831   18.6626 N   0  0  0  0  0  0  0  0  0  0  0  0
   10.0806  -17.2091   19.4339 C   0  0  1  0  0  0  0  0  0  0  0  0
   10.3405  -18.6819   19.6522 C   0  0  0  0  0  0  0  0  0  0  0  0
    8.9858  -19.3767   20.6380 S   0  0  0  0  0  0  0  0  0  0  0  0
   10.0041  -16.4583   20.7016 C   0  0  0  0  0  0  0  0  0  0  0  0
   11.0221  -16.0787   21.3417 O   0  0  0  0  0  0  0  0  0  0  0  0
    8.7489  -16.1205   21.2731 N   0  0  0  0  0  0  0  0  0  0  0  0
    8.6498  -15.4556   22.5657 C   0  0  1  0  0  0  0  0  0  0  0  0
    7.3386  -14.7787   22.7446 C   0  0  0  0  0  0  0  0  0  0  0  0
    7.2307  -14.0307   24.0137 C   0  0  0  0  0  0  0  0  0  0  0  0
    6.5801  -14.6268   25.1012 C   0  0  0  0  0  0  0  0  0  0  0  0
    6.4578  -14.0014   26.3209 C   0  0  0  0  0  0  0  0  0  0  0  0
    6.9898  -12.7411   26.4959 C   0  0  0  0  0  0  0  0  0  0  0  0
    7.6337  -12.1503   25.4208 C   0  0  0  0  0  0  0  0  0  0  0  0
    7.7571  -12.7700   24.2059 C   0  0  0  0  0  0  0  0  0  0  0  0
    8.9628  -16.3746   23.6714 C   0  0  0  0  0  0  0  0  0  0  0  0
    8.4867  -17.5352   23.6456 O   0  0  0  0  0  0  0  0  0  0  0  0
    9.7908  -15.9603   24.7544 N   0  0  0  0  0  0  0  0  0  0  0  0
   10.3788  -16.9406   25.6376 C   0  0  1  0  0  0  0  0  0  0  0  0
   11.2928  -16.2445   26.5941 C   0  0  0  0  0  0  0  0  0  0  0  0
   10.5814  -15.5184   27.6453 C   0  0  0  0  0  0  0  0  0  0  0  0
   10.0176  -14.2922   27.4728 C   0  0  0  0  0  0  0  0  0  0  0  0
    9.3519  -13.6555   28.5090 C   0  0  0  0  0  0  0  0  0  0  0  0
    9.2332  -14.2347   29.7535 C   0  0  0  0  0  0  0  0  0  0  0  0
    9.8107  -15.4851   29.9221 C   0  0  0  0  0  0  0  0  0  0  0  0
   10.4688  -16.1156   28.8992 C   0  0  0  0  0  0  0  0  0  0  0  0
    9.3605  -17.7503   26.3141 C   0  0  0  0  0  0  0  0  0  0  0  0
    8.1249  -17.5677   26.2241 O   0  0  0  0  0  0  0  0  0  0  0  0
    9.7847  -18.8141   27.1277 O   0  0  0  0  0  0  0  0  0  0  0  0
  2  1  1  6
  3  2  1  0
  4  3  1  0
  5  2  1  0
  5  6  2  0
  7  5  1  0
  8  7  1  0
  8  9  1  1
 10 11  2  0
 10  9  1  0
 12 11  1  0
 13 12  2  0
 14 13  1  0
 14 15  2  0
 15 10  1  0
 16  8  1  0
 17 16  2  0
 18 16  1  0
 19 20  1  1
 19 18  1  0
 21 20  1  0
 22 21  2  0
 23 22  1  0
 24 25  1  0
 24 23  2  0
 25 26  2  0
 26 21  1  0
 27 29  1  0
 27 19  1  0
 28 27  2  0
M  END
$$$$
