CFF.pdb
     RDKit          3D

 29 30  0  0  1  0  0  0  0  0999 V2000
    7.8949  -20.1786   19.6293 N   0  0  0  0  0  0  0  0  0  0  0  0
    7.5195  -20.1730   21.0286 C   0  0  1  0  0  0  0  0  0  0  0  0
    8.2610  -21.3060   21.7002 C   0  0  0  0  0  0  0  0  0  0  0  0
    7.9041  -21.2681   23.4781 S   0  0  0  0  0  0  0  0  0  0  0  0
    7.8722  -18.8571   21.5951 C   0  0  0  0  0  0  0  0  0  0  0  0
    8.9867  -18.2992   21.4032 O   0  0  0  0  0  0  0  0  0  0  0  0
    6.9495  -18.1411   22.4025 N   0  0  0  0  0  0  0  0  0  0  0  0
    7.3270  -16.9156   23.0943 C   0  0  1  0  0  0  0  0  0  0  0  0
    6.1767  -15.9872   23.2501 C   0  0  0  0  0  0  0  0  0  0  0  0
    6.5335  -14.7131   23.9067 C   0  0  0  0  0  0  0  0  0  0  0  0
    6.1205  -14.4888   25.2259 C   0  0  0  0  0  0  0  0  0  0  0  0
    6.4315  -13.3362   25.9104 C   0  0  0  0  0  0  0  0  0  0  0  0
    7.1766  -12.3558   25.2895 C   0  0  0  0  0  0  0  0  0  0  0  0
    7.5858  -12.5765   23.9844 C   0  0  0  0  0  0  0  0  0  0  0  0
    7.2780  -13.7223   23.3005 C   0  0  0  0  0  0  0  0  0  0  0  0
    7.9953  -17.2014   24.3737 C   0  0  0  0  0  0  0  0  0  0  0  0
    7.2919  -17.4934   25.3709 O   0  0  0  0  0  0  0  0  0  0  0  0
    9.4149  -17.1493   24.4847 N   0  0  0  0  0  0  0  0  0  0  0  0
   10.0377  -16.2792   25.4551 C   0  0  1  0  0  0  0  0  0  0  0  0
    9.4606  -16.5660   26.8040 C   0  0  0  0  0  0  0  0  0  0  0  0
    9.9981  -15.7035   27.8555 C   0  0  0  0  0  0  0  0  0  0  0  0
   10.5807  -16.1677   28.9941 C   0  0  0  0  0  0  0  0  0  0  0  0
   11.0755  -15.2979   29.9537 C   0  0  0  0  0  0  0  0  0  0  0  0
   10.9989  -13.9312   29.7964 C   0  0  0  0  0  0  0  0  0  0  0  0
   10.4034  -13.4652   28.6329 C   0  0  0  0  0  0  0  0  0  0  0  0
    9.9141  -14.3233   27.6837 C   0  0  0  0  0  0  0  0  0  0  0  0
   11.4999  -16.3867   25.4297 C   0  0  0  0  0  0  0  0  0  0  0  0
   12.2905  -15.4745   25.7627 O   0  0  0  0  0  0  0  0  0  0  0  0
   12.0736  -17.5959   25.0028 O   0  0  0  0  0  0  0  0  0  0  0  0
  2  1  1  6
  3  2  1  0
  4  3  1  0
  5  2  1  0
  5  6  2  0
  7  5  1  0
  8  7  1  0
  8  9  1  1
 10 11  2  0
 10  9  1  0
 12 11  1  0
 13 12  2  0
 14 13  1  0
 14 15  2  0
 15 10  1  0
 16  8  1  0
 17 16  2  0
 18 16  1  0
 19 20  1  1
 19 18  1  0
 21 20  1  0
 22 21  2  0
 23 22  1  0
 24 25  1  0
 24 23  2  0
 25 26  2  0
 26 21  1  0
 27 29  1  0
 27 19  1  0
 28 27  2  0
M  END
$$$$
