CFF.pdb
     RDKit          3D

 29 30  0  0  1  0  0  0  0  0999 V2000
   10.5376  -17.1385   18.3744 N   0  0  0  0  0  0  0  0  0  0  0  0
    9.4278  -17.5426   19.2135 C   0  0  1  0  0  0  0  0  0  0  0  0
    9.5590  -19.0293   19.4518 C   0  0  0  0  0  0  0  0  0  0  0  0
   11.1177  -19.3486   20.3225 S   0  0  0  0  0  0  0  0  0  0  0  0
    9.4903  -16.7654   20.4661 C   0  0  0  0  0  0  0  0  0  0  0  0
   10.5444  -16.2142   20.8846 O   0  0  0  0  0  0  0  0  0  0  0  0
    8.3372  -16.5985   21.2776 N   0  0  0  0  0  0  0  0  0  0  0  0
    8.3629  -15.7873   22.4876 C   0  0  1  0  0  0  0  0  0  0  0  0
    7.0131  -15.2777   22.8452 C   0  0  0  0  0  0  0  0  0  0  0  0
    7.0043  -14.4366   24.0594 C   0  0  0  0  0  0  0  0  0  0  0  0
    6.3629  -14.9108   25.2105 C   0  0  0  0  0  0  0  0  0  0  0  0
    6.3300  -14.1943   26.3849 C   0  0  0  0  0  0  0  0  0  0  0  0
    6.9461  -12.9621   26.4480 C   0  0  0  0  0  0  0  0  0  0  0  0
    7.5811  -12.4919   25.3099 C   0  0  0  0  0  0  0  0  0  0  0  0
    7.6156  -13.2024   24.1397 C   0  0  0  0  0  0  0  0  0  0  0  0
    9.0075  -16.4998   23.6021 C   0  0  0  0  0  0  0  0  0  0  0  0
    8.7078  -17.7012   23.8052 O   0  0  0  0  0  0  0  0  0  0  0  0
    9.9556  -15.8432   24.4389 N   0  0  0  0  0  0  0  0  0  0  0  0
   10.5967  -16.5616   25.5157 C   0  0  1  0  0  0  0  0  0  0  0  0
   11.5230  -15.6333   26.2335 C   0  0  0  0  0  0  0  0  0  0  0  0
   11.0019  -15.1838   27.5237 C   0  0  0  0  0  0  0  0  0  0  0  0
   10.6761  -13.8925   27.8027 C   0  0  0  0  0  0  0  0  0  0  0  0
   10.1823  -13.5289   29.0461 C   0  0  0  0  0  0  0  0  0  0  0  0
   10.0009  -14.4558   30.0492 C   0  0  0  0  0  0  0  0  0  0  0  0
   10.3353  -15.7706   29.7576 C   0  0  0  0  0  0  0  0  0  0  0  0
   10.8234  -16.1315   28.5294 C   0  0  0  0  0  0  0  0  0  0  0  0
    9.6219  -17.1935   26.4105 C   0  0  0  0  0  0  0  0  0  0  0  0
    8.4458  -16.7986   26.5809 O   0  0  0  0  0  0  0  0  0  0  0  0
   10.0199  -18.3272   27.1385 O   0  0  0  0  0  0  0  0  0  0  0  0
  2  1  1  6
  3  2  1  0
  4  3  1  0
  5  2  1  0
  5  6  2  0
  7  5  1  0
  8  7  1  0
  8  9  1  1
 10 11  2  0
 10  9  1  0
 12 11  1  0
 13 12  2  0
 14 13  1  0
 14 15  2  0
 15 10  1  0
 16  8  1  0
 17 16  2  0
 18 16  1  0
 19 20  1  1
 19 18  1  0
 21 20  1  0
 22 21  2  0
 23 22  1  0
 24 25  1  0
 24 23  2  0
 25 26  2  0
 26 21  1  0
 27 29  1  0
 27 19  1  0
 28 27  2  0
M  END
$$$$
