CFF.pdb
     RDKit          3D

 29 30  0  0  1  0  0  0  0  0999 V2000
    9.1492  -18.0767   19.6721 N   0  0  0  0  0  0  0  0  0  0  0  0
    7.9624  -17.9259   20.4893 C   0  0  1  0  0  0  0  0  0  0  0  0
    7.4959  -19.3124   20.8696 C   0  0  0  0  0  0  0  0  0  0  0  0
    8.6449  -20.0034   22.0911 S   0  0  0  0  0  0  0  0  0  0  0  0
    8.3143  -17.1092   21.6666 C   0  0  0  0  0  0  0  0  0  0  0  0
    9.4976  -16.9642   22.0774 O   0  0  0  0  0  0  0  0  0  0  0  0
    7.3111  -16.4324   22.4093 N   0  0  0  0  0  0  0  0  0  0  0  0
    7.6347  -15.6386   23.5874 C   0  0  1  0  0  0  0  0  0  0  0  0
    6.6729  -14.5233   23.7887 C   0  0  0  0  0  0  0  0  0  0  0  0
    6.9659  -13.7014   24.9805 C   0  0  0  0  0  0  0  0  0  0  0  0
    8.0758  -12.8475   24.9617 C   0  0  0  0  0  0  0  0  0  0  0  0
    8.4010  -12.0368   26.0250 C   0  0  0  0  0  0  0  0  0  0  0  0
    7.6159  -12.0533   27.1586 C   0  0  0  0  0  0  0  0  0  0  0  0
    6.5176  -12.8976   27.1786 C   0  0  0  0  0  0  0  0  0  0  0  0
    6.1912  -13.7055   26.1221 C   0  0  0  0  0  0  0  0  0  0  0  0
    7.7753  -16.4818   24.7851 C   0  0  0  0  0  0  0  0  0  0  0  0
    6.7386  -16.8987   25.3558 O   0  0  0  0  0  0  0  0  0  0  0  0
    9.0625  -16.8224   25.2924 N   0  0  0  0  0  0  0  0  0  0  0  0
    9.1931  -17.4355   26.5939 C   0  0  1  0  0  0  0  0  0  0  0  0
    9.4427  -18.8988   26.4172 C   0  0  0  0  0  0  0  0  0  0  0  0
    8.2952  -19.6157   25.8623 C   0  0  0  0  0  0  0  0  0  0  0  0
    8.2204  -20.0473   24.5741 C   0  0  0  0  0  0  0  0  0  0  0  0
    7.1050  -20.7260   24.1077 C   0  0  0  0  0  0  0  0  0  0  0  0
    6.0283  -20.9917   24.9253 C   0  0  0  0  0  0  0  0  0  0  0  0
    6.1117  -20.5484   26.2377 C   0  0  0  0  0  0  0  0  0  0  0  0
    7.2131  -19.8777   26.7001 C   0  0  0  0  0  0  0  0  0  0  0  0
   10.2208  -16.7796   27.4087 C   0  0  0  0  0  0  0  0  0  0  0  0
   10.9223  -15.8125   27.0335 O   0  0  0  0  0  0  0  0  0  0  0  0
   10.4488  -17.2588   28.7094 O   0  0  0  0  0  0  0  0  0  0  0  0
  2  1  1  6
  3  2  1  0
  4  3  1  0
  5  2  1  0
  5  6  2  0
  7  5  1  0
  8  7  1  0
  8  9  1  1
 10 11  2  0
 10  9  1  0
 12 11  1  0
 13 12  2  0
 14 13  1  0
 14 15  2  0
 15 10  1  0
 16  8  1  0
 17 16  2  0
 18 16  1  0
 19 20  1  6
 19 18  1  0
 21 20  1  0
 22 21  2  0
 23 22  1  0
 24 25  1  0
 24 23  2  0
 25 26  2  0
 26 21  1  0
 27 29  1  0
 27 19  1  0
 28 27  2  0
M  END
$$$$
