QNY.pdb
     RDKit          3D

 30 30  0  0  1  0  0  0  0  0999 V2000
   24.7362  -30.6894  -17.5603 N   0  0  0  0  0  0  0  0  0  0  0  0
   25.6498  -31.7558  -17.4203 C   0  0  0  0  0  0  0  0  0  0  0  0
   26.5815  -31.8556  -18.2558 O   0  0  0  0  0  0  0  0  0  0  0  0
   25.5419  -32.7435  -16.3369 C   0  0  0  0  0  0  0  0  0  0  0  0
   24.3876  -32.3969  -15.4314 C   0  0  0  0  0  0  0  0  0  0  0  0
   23.3419  -33.5108  -15.4345 C   0  0  2  0  0  0  0  0  0  0  0  0
   22.3903  -33.2784  -16.4924 N   0  0  0  0  0  0  0  0  0  0  0  0
   22.6664  -33.4724  -14.0941 C   0  0  0  0  0  0  0  0  0  0  0  0
   21.4578  -33.1441  -13.9931 O   0  0  0  0  0  0  0  0  0  0  0  0
   20.2624  -35.8493   -9.6444 N   0  0  0  0  0  0  0  0  0  0  0  0
   21.0245  -34.7983  -10.2101 C   0  0  0  0  0  0  0  0  0  0  0  0
   21.1583  -33.7426   -9.5462 O   0  0  0  0  0  0  0  0  0  0  0  0
   21.6462  -34.9129  -11.5240 C   0  0  0  0  0  0  0  0  0  0  0  0
   22.7836  -33.9091  -11.5955 C   0  0  2  0  0  0  0  0  0  0  0  0
   23.3470  -33.8005  -12.9005 N   0  0  0  0  0  0  0  0  0  0  0  0
   23.7794  -34.3121  -10.5693 C   0  0  0  0  0  0  0  0  0  0  0  0
   24.5644  -35.2878  -10.7437 O   0  0  0  0  0  0  0  0  0  0  0  0
   28.1099  -33.6785   -2.7147 O   0  0  0  0  0  0  0  0  0  0  0  0
   27.3172  -33.4738   -3.8601 C   0  0  0  0  0  0  0  0  0  0  0  0
   25.9423  -33.4945   -3.8199 C   0  0  0  0  0  0  0  0  0  0  0  0
   25.2053  -33.2885   -4.9681 C   0  0  0  0  0  0  0  0  0  0  0  0
   25.8027  -33.0578   -6.1888 C   0  0  0  0  0  0  0  0  0  0  0  0
   24.9856  -32.8468   -7.3883 C   0  0  0  0  0  0  0  0  0  0  0  0
   24.8503  -34.0724   -8.2778 C   0  0  2  0  0  0  0  0  0  0  0  0
   23.9259  -33.6394   -9.3255 N   0  0  0  0  0  0  0  0  0  0  0  0
   24.2742  -35.1741   -7.4788 C   0  0  0  0  0  0  0  0  0  0  0  0
   25.1267  -36.2078   -7.0930 O   0  0  0  0  0  0  0  0  0  0  0  0
   27.1865  -33.0391   -6.2223 C   0  0  0  0  0  0  0  0  0  0  0  0
   27.9329  -33.2463   -5.0596 C   0  0  0  0  0  0  0  0  0  0  0  0
   23.0923  -35.2459   -7.1284 O   0  0  0  0  0  0  0  0  0  0  0  0
  2  1  1  0
  2  3  2  0
  4  5  1  0
  4  2  1  0
  6  5  1  0
  6  7  1  6
  8 15  1  0
  8  6  1  0
  9  8  2  0
 10 11  1  0
 11 13  1  0
 12 11  2  0
 14 13  1  6
 14 16  1  0
 14 15  1  0
 16 17  2  0
 19 18  1  0
 19 20  2  0
 21 20  1  0
 22 21  2  0
 23 22  1  0
 24 23  1  1
 24 26  1  0
 25 24  1  0
 25 16  1  0
 26 27  1  0
 28 29  2  0
 28 22  1  0
 29 19  1  0
 30 26  2  0
M  END
$$$$
