QNY.pdb
     RDKit          3D

 30 30  0  0  1  0  0  0  0  0999 V2000
   48.9745  -11.1120   -6.8851 N   0  0  0  0  0  0  0  0  0  0  0  0
   47.5893  -10.8644   -6.7779 C   0  0  0  0  0  0  0  0  0  0  0  0
   47.1196  -10.5866   -5.6473 O   0  0  0  0  0  0  0  0  0  0  0  0
   46.6902  -10.9235   -7.9393 C   0  0  0  0  0  0  0  0  0  0  0  0
   45.8947   -9.6474   -8.0457 C   0  0  0  0  0  0  0  0  0  0  0  0
   44.5165   -9.8120   -7.4071 C   0  0  2  0  0  0  0  0  0  0  0  0
   44.2264  -11.2140   -7.2367 N   0  0  0  0  0  0  0  0  0  0  0  0
   43.5290   -9.1747   -8.3414 C   0  0  0  0  0  0  0  0  0  0  0  0
   43.6125   -7.9546   -8.6296 O   0  0  0  0  0  0  0  0  0  0  0  0
   39.7911   -8.5465  -11.7448 N   0  0  0  0  0  0  0  0  0  0  0  0
   39.7652   -9.9300  -11.4436 C   0  0  0  0  0  0  0  0  0  0  0  0
   38.9879  -10.6628  -12.1008 O   0  0  0  0  0  0  0  0  0  0  0  0
   40.6064  -10.5122  -10.4047 C   0  0  0  0  0  0  0  0  0  0  0  0
   41.5145   -9.4198   -9.8676 C   0  0  2  0  0  0  0  0  0  0  0  0
   42.4755   -9.9061   -8.9336 N   0  0  0  0  0  0  0  0  0  0  0  0
   40.6335   -8.3699   -9.2945 C   0  0  0  0  0  0  0  0  0  0  0  0
   39.7945   -8.6228   -8.3830 O   0  0  0  0  0  0  0  0  0  0  0  0
   42.3008   -1.9035   -4.0334 O   0  0  0  0  0  0  0  0  0  0  0  0
   42.1467   -2.9216   -4.9936 C   0  0  0  0  0  0  0  0  0  0  0  0
   41.0057   -3.0565   -5.7500 C   0  0  0  0  0  0  0  0  0  0  0  0
   40.8984   -4.0699   -6.6802 C   0  0  0  0  0  0  0  0  0  0  0  0
   41.9121   -4.9801   -6.8901 C   0  0  0  0  0  0  0  0  0  0  0  0
   41.7598   -6.0464   -7.8856 C   0  0  0  0  0  0  0  0  0  0  0  0
   40.5615   -5.8776   -8.8061 C   0  0  2  0  0  0  0  0  0  0  0  0
   40.6650   -7.0141   -9.7210 N   0  0  0  0  0  0  0  0  0  0  0  0
   40.6983   -4.5957   -9.5287 C   0  0  0  0  0  0  0  0  0  0  0  0
   41.0006   -4.6489  -10.8888 O   0  0  0  0  0  0  0  0  0  0  0  0
   43.0572   -4.8392   -6.1249 C   0  0  0  0  0  0  0  0  0  0  0  0
   43.1666   -3.8122   -5.1840 C   0  0  0  0  0  0  0  0  0  0  0  0
   40.5647   -3.4807   -9.0151 O   0  0  0  0  0  0  0  0  0  0  0  0
  2  1  1  0
  2  3  2  0
  4  5  1  0
  4  2  1  0
  6  5  1  0
  6  7  1  6
  8 15  1  0
  8  6  1  0
  9  8  2  0
 10 11  1  0
 11 13  1  0
 12 11  2  0
 14 13  1  1
 14 16  1  0
 14 15  1  0
 16 17  2  0
 19 18  1  0
 19 20  2  0
 21 20  1  0
 22 21  2  0
 23 22  1  0
 24 23  1  1
 24 26  1  0
 25 24  1  0
 25 16  1  0
 26 27  1  0
 28 29  2  0
 28 22  1  0
 29 19  1  0
 30 26  2  0
M  END
$$$$
