QNY.pdb
     RDKit          3D

 30 30  0  0  1  0  0  0  0  0999 V2000
   19.6600  -13.5914  -20.4999 N   0  0  0  0  0  0  0  0  0  0  0  0
   20.8355  -14.2086  -20.0217 C   0  0  0  0  0  0  0  0  0  0  0  0
   21.1446  -15.3362  -20.4791 O   0  0  0  0  0  0  0  0  0  0  0  0
   21.6983  -13.5767  -19.0132 C   0  0  0  0  0  0  0  0  0  0  0  0
   21.1284  -12.2420  -18.6052 C   0  0  0  0  0  0  0  0  0  0  0  0
   22.0179  -11.5682  -17.5616 C   0  0  2  0  0  0  0  0  0  0  0  0
   22.1049  -12.4022  -16.3887 N   0  0  0  0  0  0  0  0  0  0  0  0
   21.3750  -10.2522  -17.2314 C   0  0  0  0  0  0  0  0  0  0  0  0
   21.2539   -9.3590  -18.1066 O   0  0  0  0  0  0  0  0  0  0  0  0
   17.8839   -9.8181  -15.9836 N   0  0  0  0  0  0  0  0  0  0  0  0
   18.1858   -9.4989  -14.6373 C   0  0  0  0  0  0  0  0  0  0  0  0
   17.3223   -9.7504  -13.7631 O   0  0  0  0  0  0  0  0  0  0  0  0
   19.4551   -8.8945  -14.2507 C   0  0  0  0  0  0  0  0  0  0  0  0
   20.3005   -8.7346  -15.5022 C   0  0  2  0  0  0  0  0  0  0  0  0
   20.8813   -9.9606  -15.9403 N   0  0  0  0  0  0  0  0  0  0  0  0
   21.3141   -7.6894  -15.2071 C   0  0  0  0  0  0  0  0  0  0  0  0
   22.3476   -7.9327  -14.5205 O   0  0  0  0  0  0  0  0  0  0  0  0
   27.0519   -1.3509  -17.0696 O   0  0  0  0  0  0  0  0  0  0  0  0
   26.0813   -2.3653  -16.9648 C   0  0  0  0  0  0  0  0  0  0  0  0
   26.2766   -3.4989  -16.2103 C   0  0  0  0  0  0  0  0  0  0  0  0
   25.2968   -4.4677  -16.1362 C   0  0  0  0  0  0  0  0  0  0  0  0
   24.0975   -4.3474  -16.8051 C   0  0  0  0  0  0  0  0  0  0  0  0
   23.0815   -5.4004  -16.7050 C   0  0  0  0  0  0  0  0  0  0  0  0
   22.2296   -5.3316  -15.4475 C   0  0  2  0  0  0  0  0  0  0  0  0
   21.2028   -6.3496  -15.6689 N   0  0  0  0  0  0  0  0  0  0  0  0
   21.6333   -3.9826  -15.3546 C   0  0  0  0  0  0  0  0  0  0  0  0
   22.2580   -3.0553  -14.5216 O   0  0  0  0  0  0  0  0  0  0  0  0
   23.9079   -3.2047  -17.5632 C   0  0  0  0  0  0  0  0  0  0  0  0
   24.8992   -2.2230  -17.6371 C   0  0  0  0  0  0  0  0  0  0  0  0
   20.6216   -3.6171  -15.9609 O   0  0  0  0  0  0  0  0  0  0  0  0
  2  1  1  0
  2  3  2  0
  4  5  1  0
  4  2  1  0
  6  5  1  0
  6  7  1  1
  8 15  1  0
  8  6  1  0
  9  8  2  0
 10 11  1  0
 11 13  1  0
 12 11  2  0
 14 13  1  1
 14 16  1  0
 14 15  1  0
 16 17  2  0
 19 18  1  0
 19 20  2  0
 21 20  1  0
 22 21  2  0
 23 22  1  0
 24 23  1  6
 24 26  1  0
 25 24  1  0
 25 16  1  0
 26 27  1  0
 28 29  2  0
 28 22  1  0
 29 19  1  0
 30 26  2  0
M  END
$$$$
