QNY.pdb
     RDKit          3D

 30 30  0  0  1  0  0  0  0  0999 V2000
   23.5380  -19.9649   -9.5830 N   0  0  0  0  0  0  0  0  0  0  0  0
   24.5360  -20.3756   -8.6738 C   0  0  0  0  0  0  0  0  0  0  0  0
   24.1975  -20.6272   -7.4913 O   0  0  0  0  0  0  0  0  0  0  0  0
   25.9457  -20.5142   -9.0668 C   0  0  0  0  0  0  0  0  0  0  0  0
   26.1398  -20.0328  -10.4822 C   0  0  0  0  0  0  0  0  0  0  0  0
   25.3221  -20.8760  -11.4592 C   0  0  2  0  0  0  0  0  0  0  0  0
   25.7067  -22.2607  -11.3429 N   0  0  0  0  0  0  0  0  0  0  0  0
   25.6221  -20.3549  -12.8350 C   0  0  0  0  0  0  0  0  0  0  0  0
   25.5504  -19.1259  -13.0861 O   0  0  0  0  0  0  0  0  0  0  0  0
   28.3623  -21.6539  -18.1714 N   0  0  0  0  0  0  0  0  0  0  0  0
   27.7390  -20.9106  -17.1395 C   0  0  0  0  0  0  0  0  0  0  0  0
   27.3837  -19.7344  -17.3912 O   0  0  0  0  0  0  0  0  0  0  0  0
   27.5053  -21.4714  -15.8140 C   0  0  0  0  0  0  0  0  0  0  0  0
   26.2479  -20.8343  -15.2488 C   0  0  2  0  0  0  0  0  0  0  0  0
   25.9955  -21.2088  -13.8966 N   0  0  0  0  0  0  0  0  0  0  0  0
   25.1340  -21.1930  -16.1638 C   0  0  0  0  0  0  0  0  0  0  0  0
   24.7613  -22.3899  -16.3294 O   0  0  0  0  0  0  0  0  0  0  0  0
   17.7647  -17.9164  -13.4828 O   0  0  0  0  0  0  0  0  0  0  0  0
   19.0565  -18.2442  -13.9366 C   0  0  0  0  0  0  0  0  0  0  0  0
   19.9644  -17.2895  -14.3325 C   0  0  0  0  0  0  0  0  0  0  0  0
   21.2204  -17.6569  -14.7703 C   0  0  0  0  0  0  0  0  0  0  0  0
   21.6164  -18.9758  -14.8319 C   0  0  0  0  0  0  0  0  0  0  0  0
   22.9588  -19.3276  -15.3065 C   0  0  0  0  0  0  0  0  0  0  0  0
   22.9914  -19.9369  -16.6991 C   0  0  2  0  0  0  0  0  0  0  0  0
   24.4080  -20.2295  -16.9159 N   0  0  0  0  0  0  0  0  0  0  0  0
   22.4992  -18.9327  -17.6652 C   0  0  0  0  0  0  0  0  0  0  0  0
   21.1676  -19.0218  -18.0690 O   0  0  0  0  0  0  0  0  0  0  0  0
   20.6977  -19.9314  -14.4329 C   0  0  0  0  0  0  0  0  0  0  0  0
   19.4265  -19.5595  -13.9883 C   0  0  0  0  0  0  0  0  0  0  0  0
   23.1820  -18.0206  -18.1413 O   0  0  0  0  0  0  0  0  0  0  0  0
  2  1  1  0
  2  3  2  0
  4  5  1  0
  4  2  1  0
  6  5  1  0
  6  7  1  6
  8 15  1  0
  8  6  1  0
  9  8  2  0
 10 11  1  0
 11 13  1  0
 12 11  2  0
 14 13  1  6
 14 16  1  0
 14 15  1  0
 16 17  2  0
 19 18  1  0
 19 20  2  0
 21 20  1  0
 22 21  2  0
 23 22  1  0
 24 23  1  1
 24 26  1  0
 25 24  1  0
 25 16  1  0
 26 27  1  0
 28 29  2  0
 28 22  1  0
 29 19  1  0
 30 26  2  0
M  END
$$$$
