QNY.pdb
     RDKit          3D

 30 30  0  0  1  0  0  0  0  0999 V2000
   24.9211  -15.4719  -18.4196 N   0  0  0  0  0  0  0  0  0  0  0  0
   25.0349  -16.0526  -19.7008 C   0  0  0  0  0  0  0  0  0  0  0  0
   26.0586  -15.7979  -20.3815 O   0  0  0  0  0  0  0  0  0  0  0  0
   23.9996  -16.9363  -20.2558 C   0  0  0  0  0  0  0  0  0  0  0  0
   22.8602  -17.0786  -19.2790 C   0  0  0  0  0  0  0  0  0  0  0  0
   22.5938  -18.5502  -18.9664 C   0  0  2  0  0  0  0  0  0  0  0  0
   21.8885  -19.1588  -20.0668 N   0  0  0  0  0  0  0  0  0  0  0  0
   21.7602  -18.5823  -17.7181 C   0  0  0  0  0  0  0  0  0  0  0  0
   22.1843  -18.0759  -16.6493 O   0  0  0  0  0  0  0  0  0  0  0  0
   18.5801  -16.8114  -17.0131 N   0  0  0  0  0  0  0  0  0  0  0  0
   17.7029  -17.9109  -17.1772 C   0  0  0  0  0  0  0  0  0  0  0  0
   16.5197  -17.6759  -17.5206 O   0  0  0  0  0  0  0  0  0  0  0  0
   18.1357  -19.2861  -16.9594 C   0  0  0  0  0  0  0  0  0  0  0  0
   19.6021  -19.2608  -16.5648 C   0  0  2  0  0  0  0  0  0  0  0  0
   20.4774  -19.1731  -17.6867 N   0  0  0  0  0  0  0  0  0  0  0  0
   19.8464  -20.4692  -15.7360 C   0  0  0  0  0  0  0  0  0  0  0  0
   20.0179  -21.6115  -16.2503 O   0  0  0  0  0  0  0  0  0  0  0  0
   26.1136  -22.0023  -16.0266 O   0  0  0  0  0  0  0  0  0  0  0  0
   24.9683  -21.8400  -15.2241 C   0  0  0  0  0  0  0  0  0  0  0  0
   24.2700  -22.9076  -14.7094 C   0  0  0  0  0  0  0  0  0  0  0  0
   23.1523  -22.7012  -13.9270 C   0  0  0  0  0  0  0  0  0  0  0  0
   22.6903  -21.4367  -13.6311 C   0  0  0  0  0  0  0  0  0  0  0  0
   21.4961  -21.2572  -12.7988 C   0  0  0  0  0  0  0  0  0  0  0  0
   20.1900  -21.6108  -13.4924 C   0  0  2  0  0  0  0  0  0  0  0  0
   19.9063  -20.4358  -14.3161 N   0  0  0  0  0  0  0  0  0  0  0  0
   19.1473  -21.8066  -12.4636 C   0  0  0  0  0  0  0  0  0  0  0  0
   18.2270  -20.7770  -12.2712 O   0  0  0  0  0  0  0  0  0  0  0  0
   23.3971  -20.3668  -14.1529 C   0  0  0  0  0  0  0  0  0  0  0  0
   24.5297  -20.5756  -14.9439 C   0  0  0  0  0  0  0  0  0  0  0  0
   19.0322  -22.8160  -11.7616 O   0  0  0  0  0  0  0  0  0  0  0  0
  2  1  1  0
  2  3  2  0
  4  5  1  0
  4  2  1  0
  6  5  1  0
  6  7  1  6
  8 15  1  0
  8  6  1  0
  9  8  2  0
 10 11  1  0
 11 13  1  0
 12 11  2  0
 14 13  1  6
 14 16  1  0
 14 15  1  0
 16 17  2  0
 19 18  1  0
 19 20  2  0
 21 20  1  0
 22 21  2  0
 23 22  1  0
 24 23  1  1
 24 26  1  0
 25 24  1  0
 25 16  1  0
 26 27  1  0
 28 29  2  0
 28 22  1  0
 29 19  1  0
 30 26  2  0
M  END
$$$$
