QNY.pdb
     RDKit          3D

 30 30  0  0  1  0  0  0  0  0999 V2000
   29.3149  -22.5509  -16.1709 N   0  0  0  0  0  0  0  0  0  0  0  0
   29.0970  -21.9199  -17.4143 C   0  0  0  0  0  0  0  0  0  0  0  0
   29.6380  -22.4120  -18.4348 O   0  0  0  0  0  0  0  0  0  0  0  0
   28.2654  -20.7152  -17.5471 C   0  0  0  0  0  0  0  0  0  0  0  0
   27.7438  -20.2929  -16.1972 C   0  0  0  0  0  0  0  0  0  0  0  0
   26.5885  -21.1904  -15.7566 C   0  0  2  0  0  0  0  0  0  0  0  0
   25.5005  -21.0747  -16.6956 N   0  0  0  0  0  0  0  0  0  0  0  0
   26.1685  -20.7163  -14.3954 C   0  0  0  0  0  0  0  0  0  0  0  0
   26.7936  -19.7936  -13.8153 O   0  0  0  0  0  0  0  0  0  0  0  0
   21.4802  -21.7223  -14.0321 N   0  0  0  0  0  0  0  0  0  0  0  0
   22.2680  -20.8775  -13.2128 C   0  0  0  0  0  0  0  0  0  0  0  0
   22.1906  -19.6390  -13.3952 O   0  0  0  0  0  0  0  0  0  0  0  0
   23.1522  -21.4050  -12.1804 C   0  0  0  0  0  0  0  0  0  0  0  0
   24.5513  -20.8766  -12.4442 C   0  0  2  0  0  0  0  0  0  0  0  0
   25.0654  -21.2756  -13.7127 N   0  0  0  0  0  0  0  0  0  0  0  0
   25.4017  -21.3235  -11.3111 C   0  0  0  0  0  0  0  0  0  0  0  0
   25.5395  -22.5456  -11.0175 O   0  0  0  0  0  0  0  0  0  0  0  0
   29.4076  -19.7936   -3.4034 O   0  0  0  0  0  0  0  0  0  0  0  0
   28.9058  -19.7227   -4.7170 C   0  0  0  0  0  0  0  0  0  0  0  0
   27.9338  -18.8229   -5.0884 C   0  0  0  0  0  0  0  0  0  0  0  0
   27.4716  -18.7888   -6.3881 C   0  0  0  0  0  0  0  0  0  0  0  0
   27.9532  -19.6417   -7.3581 C   0  0  0  0  0  0  0  0  0  0  0  0
   27.4344  -19.5779   -8.7284 C   0  0  0  0  0  0  0  0  0  0  0  0
   26.5352  -20.7422   -9.1128 C   0  0  2  0  0  0  0  0  0  0  0  0
   26.1191  -20.4222  -10.4781 N   0  0  0  0  0  0  0  0  0  0  0  0
   25.3782  -20.7683   -8.1938 C   0  0  0  0  0  0  0  0  0  0  0  0
   25.4322  -21.6443   -7.1104 O   0  0  0  0  0  0  0  0  0  0  0  0
   28.9305  -20.5452   -6.9773 C   0  0  0  0  0  0  0  0  0  0  0  0
   29.3996  -20.5789   -5.6618 C   0  0  0  0  0  0  0  0  0  0  0  0
   24.3665  -20.0709   -8.3161 O   0  0  0  0  0  0  0  0  0  0  0  0
  2  1  1  0
  2  3  2  0
  4  5  1  0
  4  2  1  0
  6  5  1  0
  6  7  1  6
  8 15  1  0
  8  6  1  0
  9  8  2  0
 10 11  1  0
 11 13  1  0
 12 11  2  0
 14 13  1  1
 14 16  1  0
 14 15  1  0
 16 17  2  0
 19 18  1  0
 19 20  2  0
 21 20  1  0
 22 21  2  0
 23 22  1  0
 24 23  1  1
 24 26  1  0
 25 24  1  0
 25 16  1  0
 26 27  1  0
 28 29  2  0
 28 22  1  0
 29 19  1  0
 30 26  2  0
M  END
$$$$
