QNY.pdb
     RDKit          3D

 30 30  0  0  1  0  0  0  0  0999 V2000
   26.7281  -21.3137  -25.1284 N   0  0  0  0  0  0  0  0  0  0  0  0
   26.1072  -20.3397  -24.3178 C   0  0  0  0  0  0  0  0  0  0  0  0
   24.8639  -20.4039  -24.1559 O   0  0  0  0  0  0  0  0  0  0  0  0
   26.8660  -19.2625  -23.6661 C   0  0  0  0  0  0  0  0  0  0  0  0
   27.5218  -19.7761  -22.4096 C   0  0  0  0  0  0  0  0  0  0  0  0
   26.4797  -20.0508  -21.3267 C   0  0  2  0  0  0  0  0  0  0  0  0
   25.5542  -18.9476  -21.2547 N   0  0  0  0  0  0  0  0  0  0  0  0
   27.2292  -20.2008  -20.0344 C   0  0  0  0  0  0  0  0  0  0  0  0
   28.1253  -21.0727  -19.9091 O   0  0  0  0  0  0  0  0  0  0  0  0
   28.7389  -16.3212  -18.6929 N   0  0  0  0  0  0  0  0  0  0  0  0
   28.9740  -17.4928  -17.9329 C   0  0  0  0  0  0  0  0  0  0  0  0
   30.1052  -18.0292  -18.0096 O   0  0  0  0  0  0  0  0  0  0  0  0
   27.9490  -18.0802  -17.0783 C   0  0  0  0  0  0  0  0  0  0  0  0
   27.5971  -19.4476  -17.6376 C   0  0  2  0  0  0  0  0  0  0  0  0
   26.9678  -19.3798  -18.9150 N   0  0  0  0  0  0  0  0  0  0  0  0
   26.7588  -20.1280  -16.6172 C   0  0  0  0  0  0  0  0  0  0  0  0
   25.6875  -20.7272  -16.9208 O   0  0  0  0  0  0  0  0  0  0  0  0
   23.8955  -21.3568   -8.1915 O   0  0  0  0  0  0  0  0  0  0  0  0
   24.6393  -21.0901   -9.3568 C   0  0  0  0  0  0  0  0  0  0  0  0
   25.5870  -21.9605   -9.8431 C   0  0  0  0  0  0  0  0  0  0  0  0
   26.2924  -21.6579  -10.9898 C   0  0  0  0  0  0  0  0  0  0  0  0
   26.0849  -20.4880  -11.6886 C   0  0  0  0  0  0  0  0  0  0  0  0
   26.8571  -20.1995  -12.9017 C   0  0  0  0  0  0  0  0  0  0  0  0
   26.1736  -20.6178  -14.1938 C   0  0  2  0  0  0  0  0  0  0  0  0
   27.0920  -20.1586  -15.2356 N   0  0  0  0  0  0  0  0  0  0  0  0
   24.8719  -19.9240  -14.2852 C   0  0  0  0  0  0  0  0  0  0  0  0
   23.7239  -20.6627  -14.0014 O   0  0  0  0  0  0  0  0  0  0  0  0
   25.1304  -19.6161  -11.1932 C   0  0  0  0  0  0  0  0  0  0  0  0
   24.4150  -19.9230  -10.0331 C   0  0  0  0  0  0  0  0  0  0  0  0
   24.7272  -18.7375  -14.5953 O   0  0  0  0  0  0  0  0  0  0  0  0
  2  1  1  0
  2  3  2  0
  4  5  1  0
  4  2  1  0
  6  5  1  0
  6  7  1  1
  8 15  1  0
  8  6  1  0
  9  8  2  0
 10 11  1  0
 11 13  1  0
 12 11  2  0
 14 13  1  1
 14 16  1  0
 14 15  1  0
 16 17  2  0
 19 18  1  0
 19 20  2  0
 21 20  1  0
 22 21  2  0
 23 22  1  0
 24 23  1  1
 24 26  1  0
 25 24  1  0
 25 16  1  0
 26 27  1  0
 28 29  2  0
 28 22  1  0
 29 19  1  0
 30 26  2  0
M  END
$$$$
