QNY.pdb
     RDKit          3D

 30 30  0  0  1  0  0  0  0  0999 V2000
   28.3913  -21.5757  -15.7402 N   0  0  0  0  0  0  0  0  0  0  0  0
   28.4704  -22.3453  -16.9205 C   0  0  0  0  0  0  0  0  0  0  0  0
   29.4578  -23.1059  -17.0707 O   0  0  0  0  0  0  0  0  0  0  0  0
   27.4416  -22.2812  -17.9686 C   0  0  0  0  0  0  0  0  0  0  0  0
   26.2284  -21.5442  -17.4610 C   0  0  0  0  0  0  0  0  0  0  0  0
   26.3100  -20.0591  -17.8105 C   0  0  2  0  0  0  0  0  0  0  0  0
   27.5972  -19.5401  -17.4202 N   0  0  0  0  0  0  0  0  0  0  0  0
   25.2092  -19.3761  -17.0515 C   0  0  0  0  0  0  0  0  0  0  0  0
   25.3511  -19.0841  -15.8378 O   0  0  0  0  0  0  0  0  0  0  0  0
   21.4215  -15.4819  -16.6882 N   0  0  0  0  0  0  0  0  0  0  0  0
   21.1413  -16.6804  -17.3887 C   0  0  0  0  0  0  0  0  0  0  0  0
   19.9594  -17.1000  -17.3915 O   0  0  0  0  0  0  0  0  0  0  0  0
   22.1774  -17.4251  -18.0944 C   0  0  0  0  0  0  0  0  0  0  0  0
   22.9222  -18.2729  -17.0780 C   0  0  2  0  0  0  0  0  0  0  0  0
   23.9802  -19.0327  -17.6576 N   0  0  0  0  0  0  0  0  0  0  0  0
   21.9091  -19.1205  -16.3982 C   0  0  0  0  0  0  0  0  0  0  0  0
   21.5379  -20.2323  -16.8725 O   0  0  0  0  0  0  0  0  0  0  0  0
   16.5083  -21.6964   -9.7194 O   0  0  0  0  0  0  0  0  0  0  0  0
   17.4521  -21.0582  -10.5465 C   0  0  0  0  0  0  0  0  0  0  0  0
   17.3189  -19.7481  -10.9445 C   0  0  0  0  0  0  0  0  0  0  0  0
   18.2693  -19.1631  -11.7559 C   0  0  0  0  0  0  0  0  0  0  0  0
   19.3771  -19.8532  -12.1993 C   0  0  0  0  0  0  0  0  0  0  0  0
   20.3641  -19.1982  -13.0641 C   0  0  0  0  0  0  0  0  0  0  0  0
   20.2277  -19.5378  -14.5398 C   0  0  2  0  0  0  0  0  0  0  0  0
   21.2853  -18.7521  -15.1751 N   0  0  0  0  0  0  0  0  0  0  0  0
   18.8915  -19.1071  -15.0015 C   0  0  0  0  0  0  0  0  0  0  0  0
   17.8812  -20.0672  -15.0436 O   0  0  0  0  0  0  0  0  0  0  0  0
   19.5045  -21.1713  -11.7958 C   0  0  0  0  0  0  0  0  0  0  0  0
   18.5431  -21.7634  -10.9731 C   0  0  0  0  0  0  0  0  0  0  0  0
   18.6049  -17.9587  -15.3533 O   0  0  0  0  0  0  0  0  0  0  0  0
  2  1  1  0
  2  3  2  0
  4  5  1  0
  4  2  1  0
  6  5  1  0
  6  7  1  1
  8 15  1  0
  8  6  1  0
  9  8  2  0
 10 11  1  0
 11 13  1  0
 12 11  2  0
 14 13  1  6
 14 16  1  0
 14 15  1  0
 16 17  2  0
 19 18  1  0
 19 20  2  0
 21 20  1  0
 22 21  2  0
 23 22  1  0
 24 23  1  1
 24 26  1  0
 25 24  1  0
 25 16  1  0
 26 27  1  0
 28 29  2  0
 28 22  1  0
 29 19  1  0
 30 26  2  0
M  END
$$$$
