QNY.pdb
     RDKit          3D

 30 30  0  0  1  0  0  0  0  0999 V2000
   19.2906  -17.2027  -14.8038 N   0  0  0  0  0  0  0  0  0  0  0  0
   18.5702  -17.1524  -16.0162 C   0  0  0  0  0  0  0  0  0  0  0  0
   17.6909  -18.0243  -16.2232 O   0  0  0  0  0  0  0  0  0  0  0  0
   18.8183  -16.1206  -17.0335 C   0  0  0  0  0  0  0  0  0  0  0  0
   19.3748  -14.8776  -16.3872 C   0  0  0  0  0  0  0  0  0  0  0  0
   18.9228  -13.6264  -17.1385 C   0  0  2  0  0  0  0  0  0  0  0  0
   19.0286  -13.8501  -18.5589 N   0  0  0  0  0  0  0  0  0  0  0  0
   19.8315  -12.5118  -16.7069 C   0  0  0  0  0  0  0  0  0  0  0  0
   20.0267  -12.2777  -15.4880 O   0  0  0  0  0  0  0  0  0  0  0  0
   23.6427  -12.3442  -19.5216 N   0  0  0  0  0  0  0  0  0  0  0  0
   23.3718  -11.5494  -18.3811 C   0  0  0  0  0  0  0  0  0  0  0  0
   23.9508  -11.8411  -17.3074 O   0  0  0  0  0  0  0  0  0  0  0  0
   22.4510  -10.4199  -18.4254 C   0  0  0  0  0  0  0  0  0  0  0  0
   21.4048  -10.6231  -17.3435 C   0  0  2  0  0  0  0  0  0  0  0  0
   20.5019  -11.6866  -17.6371 N   0  0  0  0  0  0  0  0  0  0  0  0
   20.7183   -9.3189  -17.1571 C   0  0  0  0  0  0  0  0  0  0  0  0
   20.0184   -8.7933  -18.0696 O   0  0  0  0  0  0  0  0  0  0  0  0
   14.3572   -9.9989  -15.9667 O   0  0  0  0  0  0  0  0  0  0  0  0
   15.5596   -9.3429  -15.6412 C   0  0  0  0  0  0  0  0  0  0  0  0
   15.8202   -8.0470  -16.0222 C   0  0  0  0  0  0  0  0  0  0  0  0
   17.0132   -7.4435  -15.6805 C   0  0  0  0  0  0  0  0  0  0  0  0
   17.9836   -8.1007  -14.9550 C   0  0  0  0  0  0  0  0  0  0  0  0
   19.2410   -7.4270  -14.6140 C   0  0  0  0  0  0  0  0  0  0  0  0
   20.1926   -7.2456  -15.7859 C   0  0  2  0  0  0  0  0  0  0  0  0
   20.7935   -8.5688  -15.9518 N   0  0  0  0  0  0  0  0  0  0  0  0
   21.2098   -6.2393  -15.4164 C   0  0  0  0  0  0  0  0  0  0  0  0
   20.8112   -4.9040  -15.3685 O   0  0  0  0  0  0  0  0  0  0  0  0
   17.7153   -9.4048  -14.5756 C   0  0  0  0  0  0  0  0  0  0  0  0
   16.5070  -10.0155  -14.9202 C   0  0  0  0  0  0  0  0  0  0  0  0
   22.3875   -6.4952  -15.1473 O   0  0  0  0  0  0  0  0  0  0  0  0
  2  1  1  0
  2  3  2  0
  4  5  1  0
  4  2  1  0
  6  5  1  0
  6  7  1  6
  8 15  1  0
  8  6  1  0
  9  8  2  0
 10 11  1  0
 11 13  1  0
 12 11  2  0
 14 13  1  6
 14 16  1  0
 14 15  1  0
 16 17  2  0
 19 18  1  0
 19 20  2  0
 21 20  1  0
 22 21  2  0
 23 22  1  0
 24 23  1  1
 24 26  1  0
 25 24  1  0
 25 16  1  0
 26 27  1  0
 28 29  2  0
 28 22  1  0
 29 19  1  0
 30 26  2  0
M  END
$$$$
