QNY.pdb
     RDKit          3D

 30 30  0  0  1  0  0  0  0  0999 V2000
   23.2705  -14.6948  -20.0245 N   0  0  0  0  0  0  0  0  0  0  0  0
   22.4413  -14.1098  -19.0437 C   0  0  0  0  0  0  0  0  0  0  0  0
   21.2847  -14.5727  -18.8883 O   0  0  0  0  0  0  0  0  0  0  0  0
   22.8876  -12.9850  -18.2092 C   0  0  0  0  0  0  0  0  0  0  0  0
   22.3534  -11.6868  -18.7585 C   0  0  0  0  0  0  0  0  0  0  0  0
   22.7740  -10.5109  -17.8784 C   0  0  2  0  0  0  0  0  0  0  0  0
   23.4162  -11.0046  -16.6857 N   0  0  0  0  0  0  0  0  0  0  0  0
   21.5207   -9.7590  -17.5348 C   0  0  0  0  0  0  0  0  0  0  0  0
   20.8268   -9.2220  -18.4341 O   0  0  0  0  0  0  0  0  0  0  0  0
   17.9901  -10.6544  -16.2155 N   0  0  0  0  0  0  0  0  0  0  0  0
   18.2743  -10.3512  -14.8617 C   0  0  0  0  0  0  0  0  0  0  0  0
   17.5861  -10.9101  -13.9745 O   0  0  0  0  0  0  0  0  0  0  0  0
   19.3301   -9.4200  -14.4819 C   0  0  0  0  0  0  0  0  0  0  0  0
   19.9475   -8.8647  -15.7535 C   0  0  2  0  0  0  0  0  0  0  0  0
   21.0678   -9.6229  -16.2036 N   0  0  0  0  0  0  0  0  0  0  0  0
   20.2841   -7.4431  -15.4842 C   0  0  0  0  0  0  0  0  0  0  0  0
   21.3458   -7.1074  -14.8851 O   0  0  0  0  0  0  0  0  0  0  0  0
   21.7253    0.9787  -17.3421 O   0  0  0  0  0  0  0  0  0  0  0  0
   21.3798   -0.3843  -17.2703 C   0  0  0  0  0  0  0  0  0  0  0  0
   20.2367   -0.8875  -17.8469 C   0  0  0  0  0  0  0  0  0  0  0  0
   19.9379   -2.2313  -17.7515 C   0  0  0  0  0  0  0  0  0  0  0  0
   20.7565   -3.1167  -17.0836 C   0  0  0  0  0  0  0  0  0  0  0  0
   20.4034   -4.5378  -17.0003 C   0  0  0  0  0  0  0  0  0  0  0  0
   19.7985   -4.9562  -15.6696 C   0  0  2  0  0  0  0  0  0  0  0  0
   19.4485   -6.3614  -15.8750 N   0  0  0  0  0  0  0  0  0  0  0  0
   18.5943   -4.1365  -15.4201 C   0  0  0  0  0  0  0  0  0  0  0  0
   18.7275   -3.0294  -14.5831 O   0  0  0  0  0  0  0  0  0  0  0  0
   21.9046   -2.6035  -16.5049 C   0  0  0  0  0  0  0  0  0  0  0  0
   22.2080   -1.2433  -16.6026 C   0  0  0  0  0  0  0  0  0  0  0  0
   17.4785   -4.3614  -15.8988 O   0  0  0  0  0  0  0  0  0  0  0  0
  2  1  1  0
  2  3  2  0
  4  5  1  0
  4  2  1  0
  6  5  1  0
  6  7  1  1
  8 15  1  0
  8  6  1  0
  9  8  2  0
 10 11  1  0
 11 13  1  0
 12 11  2  0
 14 13  1  1
 14 16  1  0
 14 15  1  0
 16 17  2  0
 19 18  1  0
 19 20  2  0
 21 20  1  0
 22 21  2  0
 23 22  1  0
 24 23  1  6
 24 26  1  0
 25 24  1  0
 25 16  1  0
 26 27  1  0
 28 29  2  0
 28 22  1  0
 29 19  1  0
 30 26  2  0
M  END
$$$$
