QNY.pdb
     RDKit          3D

 30 30  0  0  1  0  0  0  0  0999 V2000
   29.1264  -18.0027  -18.8426 N   0  0  0  0  0  0  0  0  0  0  0  0
   28.7851  -16.6335  -18.8566 C   0  0  0  0  0  0  0  0  0  0  0  0
   29.3007  -15.9000  -19.7354 O   0  0  0  0  0  0  0  0  0  0  0  0
   27.8545  -16.0475  -17.8812 C   0  0  0  0  0  0  0  0  0  0  0  0
   27.5555  -17.0407  -16.7872 C   0  0  0  0  0  0  0  0  0  0  0  0
   26.4551  -18.0087  -17.2188 C   0  0  2  0  0  0  0  0  0  0  0  0
   26.1368  -17.7912  -18.6081 N   0  0  0  0  0  0  0  0  0  0  0  0
   25.2644  -17.7238  -16.3498 C   0  0  0  0  0  0  0  0  0  0  0  0
   25.3399  -17.8338  -15.1005 O   0  0  0  0  0  0  0  0  0  0  0  0
   20.6340  -14.9996  -14.8947 N   0  0  0  0  0  0  0  0  0  0  0  0
   20.7253  -15.9304  -15.9581 C   0  0  0  0  0  0  0  0  0  0  0  0
   19.7349  -16.6654  -16.1859 O   0  0  0  0  0  0  0  0  0  0  0  0
   21.9236  -16.0523  -16.7798 C   0  0  0  0  0  0  0  0  0  0  0  0
   22.8006  -17.1347  -16.1752 C   0  0  2  0  0  0  0  0  0  0  0  0
   24.0212  -17.3226  -16.8875 N   0  0  0  0  0  0  0  0  0  0  0  0
   21.9768  -18.3691  -16.1073 C   0  0  0  0  0  0  0  0  0  0  0  0
   21.9092  -19.1839  -17.0719 O   0  0  0  0  0  0  0  0  0  0  0  0
   18.6075  -19.3017   -8.6984 O   0  0  0  0  0  0  0  0  0  0  0  0
   19.2504  -19.6200   -9.9098 C   0  0  0  0  0  0  0  0  0  0  0  0
   20.4458  -19.0507  -10.2831 C   0  0  0  0  0  0  0  0  0  0  0  0
   21.0404  -19.3930  -11.4803 C   0  0  0  0  0  0  0  0  0  0  0  0
   20.4727  -20.3048  -12.3443 C   0  0  0  0  0  0  0  0  0  0  0  0
   21.1329  -20.6404  -13.6102 C   0  0  0  0  0  0  0  0  0  0  0  0
   20.5007  -19.9998  -14.8357 C   0  0  2  0  0  0  0  0  0  0  0  0
   21.2094  -18.7268  -14.9654 N   0  0  0  0  0  0  0  0  0  0  0  0
   19.0631  -19.7862  -14.5680 C   0  0  0  0  0  0  0  0  0  0  0  0
   18.2034  -20.8688  -14.7498 O   0  0  0  0  0  0  0  0  0  0  0  0
   19.2693  -20.8732  -11.9630 C   0  0  0  0  0  0  0  0  0  0  0  0
   18.6680  -20.5279  -10.7501 C   0  0  0  0  0  0  0  0  0  0  0  0
   18.5678  -18.7182  -14.1953 O   0  0  0  0  0  0  0  0  0  0  0  0
  2  1  1  0
  2  3  2  0
  4  5  1  0
  4  2  1  0
  6  5  1  0
  6  7  1  6
  8 15  1  0
  8  6  1  0
  9  8  2  0
 10 11  1  0
 11 13  1  0
 12 11  2  0
 14 13  1  6
 14 16  1  0
 14 15  1  0
 16 17  2  0
 19 18  1  0
 19 20  2  0
 21 20  1  0
 22 21  2  0
 23 22  1  0
 24 23  1  1
 24 26  1  0
 25 24  1  0
 25 16  1  0
 26 27  1  0
 28 29  2  0
 28 22  1  0
 29 19  1  0
 30 26  2  0
M  END
$$$$
