QNY.pdb
     RDKit          3D

 30 30  0  0  1  0  0  0  0  0999 V2000
   27.7828  -23.9021  -17.0119 N   0  0  0  0  0  0  0  0  0  0  0  0
   28.7532  -22.8785  -17.0555 C   0  0  0  0  0  0  0  0  0  0  0  0
   29.5316  -22.8371  -18.0397 O   0  0  0  0  0  0  0  0  0  0  0  0
   28.8786  -21.8712  -15.9922 C   0  0  0  0  0  0  0  0  0  0  0  0
   27.8628  -22.1305  -14.9089 C   0  0  0  0  0  0  0  0  0  0  0  0
   26.6636  -21.1952  -15.0541 C   0  0  2  0  0  0  0  0  0  0  0  0
   27.0768  -19.8363  -14.8060 N   0  0  0  0  0  0  0  0  0  0  0  0
   25.6477  -21.6353  -14.0400 C   0  0  0  0  0  0  0  0  0  0  0  0
   25.0958  -22.7604  -14.1301 O   0  0  0  0  0  0  0  0  0  0  0  0
   26.0101  -22.0558  -10.5475 N   0  0  0  0  0  0  0  0  0  0  0  0
   25.3238  -20.9259  -10.0398 C   0  0  0  0  0  0  0  0  0  0  0  0
   25.6579  -20.4897   -8.9123 O   0  0  0  0  0  0  0  0  0  0  0  0
   24.2559  -20.2694  -10.7845 C   0  0  0  0  0  0  0  0  0  0  0  0
   24.1185  -20.9692  -12.1253 C   0  0  2  0  0  0  0  0  0  0  0  0
   25.2707  -20.8179  -12.9511 N   0  0  0  0  0  0  0  0  0  0  0  0
   22.8816  -20.4458  -12.7601 C   0  0  0  0  0  0  0  0  0  0  0  0
   22.7422  -19.2227  -13.0491 O   0  0  0  0  0  0  0  0  0  0  0  0
   16.1604  -19.7479  -18.3299 O   0  0  0  0  0  0  0  0  0  0  0  0
   17.2680  -20.1040  -17.5371 C   0  0  0  0  0  0  0  0  0  0  0  0
   18.3176  -19.2452  -17.3066 C   0  0  0  0  0  0  0  0  0  0  0  0
   19.3832  -19.6370  -16.5223 C   0  0  0  0  0  0  0  0  0  0  0  0
   19.4451  -20.8869  -15.9444 C   0  0  0  0  0  0  0  0  0  0  0  0
   20.5963  -21.2686  -15.1197 C   0  0  0  0  0  0  0  0  0  0  0  0
   20.5373  -20.7607  -13.6878 C   0  0  2  0  0  0  0  0  0  0  0  0
   21.7708  -21.2698  -13.0888 N   0  0  0  0  0  0  0  0  0  0  0  0
   19.3462  -21.3382  -13.0309 C   0  0  0  0  0  0  0  0  0  0  0  0
   18.2326  -20.5146  -12.8708 O   0  0  0  0  0  0  0  0  0  0  0  0
   18.3860  -21.7465  -16.1812 C   0  0  0  0  0  0  0  0  0  0  0  0
   17.3064  -21.3495  -16.9740 C   0  0  0  0  0  0  0  0  0  0  0  0
   19.2657  -22.4974  -12.6129 O   0  0  0  0  0  0  0  0  0  0  0  0
  2  1  1  0
  2  3  2  0
  4  5  1  0
  4  2  1  0
  6  5  1  0
  6  7  1  1
  8 15  1  0
  8  6  1  0
  9  8  2  0
 10 11  1  0
 11 13  1  0
 12 11  2  0
 14 13  1  1
 14 16  1  0
 14 15  1  0
 16 17  2  0
 19 18  1  0
 19 20  2  0
 21 20  1  0
 22 21  2  0
 23 22  1  0
 24 23  1  6
 24 26  1  0
 25 24  1  0
 25 16  1  0
 26 27  1  0
 28 29  2  0
 28 22  1  0
 29 19  1  0
 30 26  2  0
M  END
$$$$
