QNY.pdb
     RDKit          3D

 30 30  0  0  1  0  0  0  0  0999 V2000
   19.8112  -15.1920  -16.2859 N   0  0  0  0  0  0  0  0  0  0  0  0
   18.4352  -15.1665  -16.5981 C   0  0  0  0  0  0  0  0  0  0  0  0
   17.8208  -16.2588  -16.6720 O   0  0  0  0  0  0  0  0  0  0  0  0
   17.7089  -13.9112  -16.8384 C   0  0  0  0  0  0  0  0  0  0  0  0
   18.6647  -12.7456  -16.8150 C   0  0  0  0  0  0  0  0  0  0  0  0
   17.9529  -11.4521  -17.2079 C   0  0  2  0  0  0  0  0  0  0  0  0
   17.4422  -11.5694  -18.5511 N   0  0  0  0  0  0  0  0  0  0  0  0
   18.9736  -10.3544  -17.1214 C   0  0  0  0  0  0  0  0  0  0  0  0
   19.6924  -10.2247  -16.0991 O   0  0  0  0  0  0  0  0  0  0  0  0
   21.6342   -8.2235  -21.1508 N   0  0  0  0  0  0  0  0  0  0  0  0
   20.3425   -8.2961  -20.5748 C   0  0  0  0  0  0  0  0  0  0  0  0
   19.5168   -9.0964  -21.0758 O   0  0  0  0  0  0  0  0  0  0  0  0
   19.9568   -7.4759  -19.4327 C   0  0  0  0  0  0  0  0  0  0  0  0
   20.0761   -8.3270  -18.1806 C   0  0  2  0  0  0  0  0  0  0  0  0
   19.1727   -9.4298  -18.1707 N   0  0  0  0  0  0  0  0  0  0  0  0
   19.8879   -7.4172  -17.0213 C   0  0  0  0  0  0  0  0  0  0  0  0
   18.7432   -7.0204  -16.6595 O   0  0  0  0  0  0  0  0  0  0  0  0
   19.6355   -5.1887   -8.7311 O   0  0  0  0  0  0  0  0  0  0  0  0
   19.9220   -5.6827  -10.0179 C   0  0  0  0  0  0  0  0  0  0  0  0
   18.9358   -6.0351  -10.9100 C   0  0  0  0  0  0  0  0  0  0  0  0
   19.2631   -6.5149  -12.1616 C   0  0  0  0  0  0  0  0  0  0  0  0
   20.5717   -6.6626  -12.5689 C   0  0  0  0  0  0  0  0  0  0  0  0
   20.8804   -7.1797  -13.9062 C   0  0  0  0  0  0  0  0  0  0  0  0
   20.7876   -6.1439  -15.0153 C   0  0  2  0  0  0  0  0  0  0  0  0
   20.9678   -6.9277  -16.2370 N   0  0  0  0  0  0  0  0  0  0  0  0
   21.8825   -5.1666  -14.8411 C   0  0  0  0  0  0  0  0  0  0  0  0
   23.0224   -5.3252  -15.6282 O   0  0  0  0  0  0  0  0  0  0  0  0
   21.5591   -6.3071  -11.6660 C   0  0  0  0  0  0  0  0  0  0  0  0
   21.2279   -5.8198  -10.3993 C   0  0  0  0  0  0  0  0  0  0  0  0
   21.8612   -4.2199  -14.0485 O   0  0  0  0  0  0  0  0  0  0  0  0
  2  1  1  0
  2  3  2  0
  4  5  1  0
  4  2  1  0
  6  5  1  0
  6  7  1  6
  8 15  1  0
  8  6  1  0
  9  8  2  0
 10 11  1  0
 11 13  1  0
 12 11  2  0
 14 13  1  6
 14 16  1  0
 14 15  1  0
 16 17  2  0
 19 18  1  0
 19 20  2  0
 21 20  1  0
 22 21  2  0
 23 22  1  0
 24 23  1  1
 24 26  1  0
 25 24  1  0
 25 16  1  0
 26 27  1  0
 28 29  2  0
 28 22  1  0
 29 19  1  0
 30 26  2  0
M  END
$$$$
