QNY.pdb
     RDKit          3D

 30 30  0  0  1  0  0  0  0  0999 V2000
   22.6685  -15.0196  -19.2649 N   0  0  0  0  0  0  0  0  0  0  0  0
   24.0796  -15.0162  -19.2772 C   0  0  0  0  0  0  0  0  0  0  0  0
   24.6756  -16.0900  -19.5376 O   0  0  0  0  0  0  0  0  0  0  0  0
   24.8632  -13.8049  -18.9953 C   0  0  0  0  0  0  0  0  0  0  0  0
   23.9435  -12.6303  -18.7782 C   0  0  0  0  0  0  0  0  0  0  0  0
   24.1303  -12.0461  -17.3789 C   0  0  2  0  0  0  0  0  0  0  0  0
   23.7736  -13.0335  -16.3906 N   0  0  0  0  0  0  0  0  0  0  0  0
   23.2267  -10.8507  -17.2861 C   0  0  0  0  0  0  0  0  0  0  0  0
   23.4101   -9.8482  -18.0210 O   0  0  0  0  0  0  0  0  0  0  0  0
   18.7476  -12.2485  -16.8101 N   0  0  0  0  0  0  0  0  0  0  0  0
   19.2464  -10.9294  -16.9394 C   0  0  0  0  0  0  0  0  0  0  0  0
   19.1777  -10.3801  -18.0649 O   0  0  0  0  0  0  0  0  0  0  0  0
   19.8282  -10.2077  -15.8140 C   0  0  0  0  0  0  0  0  0  0  0  0
   21.2100   -9.7303  -16.2251 C   0  0  2  0  0  0  0  0  0  0  0  0
   22.1420  -10.7976  -16.3826 N   0  0  0  0  0  0  0  0  0  0  0  0
   21.6410   -8.7335  -15.2114 C   0  0  0  0  0  0  0  0  0  0  0  0
   21.8544   -9.0518  -14.0065 O   0  0  0  0  0  0  0  0  0  0  0  0
   23.5158   -2.5252  -19.5621 O   0  0  0  0  0  0  0  0  0  0  0  0
   23.5493   -3.3885  -18.4504 C   0  0  0  0  0  0  0  0  0  0  0  0
   23.5852   -4.7575  -18.5795 C   0  0  0  0  0  0  0  0  0  0  0  0
   23.6175   -5.5654  -17.4613 C   0  0  0  0  0  0  0  0  0  0  0  0
   23.6136   -5.0468  -16.1842 C   0  0  0  0  0  0  0  0  0  0  0  0
   23.6449   -5.9378  -15.0197 C   0  0  0  0  0  0  0  0  0  0  0  0
   22.2739   -6.3706  -14.5249 C   0  0  2  0  0  0  0  0  0  0  0  0
   21.8452   -7.3595  -15.5137 N   0  0  0  0  0  0  0  0  0  0  0  0
   21.3796   -5.1940  -14.5235 C   0  0  0  0  0  0  0  0  0  0  0  0
   21.5209   -4.2754  -13.4841 O   0  0  0  0  0  0  0  0  0  0  0  0
   23.5765   -3.6683  -16.0614 C   0  0  0  0  0  0  0  0  0  0  0  0
   23.5453   -2.8502  -17.1935 C   0  0  0  0  0  0  0  0  0  0  0  0
   20.5159   -4.9655  -15.3759 O   0  0  0  0  0  0  0  0  0  0  0  0
  2  1  1  0
  2  3  2  0
  4  5  1  0
  4  2  1  0
  6  5  1  0
  6  7  1  1
  8 15  1  0
  8  6  1  0
  9  8  2  0
 10 11  1  0
 11 13  1  0
 12 11  2  0
 14 13  1  1
 14 16  1  0
 14 15  1  0
 16 17  2  0
 19 18  1  0
 19 20  2  0
 21 20  1  0
 22 21  2  0
 23 22  1  0
 24 23  1  6
 24 26  1  0
 25 24  1  0
 25 16  1  0
 26 27  1  0
 28 29  2  0
 28 22  1  0
 29 19  1  0
 30 26  2  0
M  END
$$$$
