WFI.pdb
     RDKit          3D

 34 36  0  0  1  0  0  0  0  0999 V2000
   10.9151  -16.4963   20.4675 N   0  0  0  0  0  0  0  0  0  0  0  0
    9.8832  -15.9660   21.2985 C   0  0  1  0  0  0  0  0  0  0  0  0
    8.5177  -16.5612   21.0986 C   0  0  0  0  0  0  0  0  0  0  0  0
    7.6848  -15.6684   20.2945 C   0  0  0  0  0  0  0  0  0  0  0  0
    6.3841  -15.9472   19.9397 C   0  0  0  0  0  0  0  0  0  0  0  0
    5.9402  -14.8949   19.2457 N   0  0  0  0  0  0  0  0  0  0  0  0
    6.8909  -13.9573   19.1391 C   0  0  0  0  0  0  0  0  0  0  0  0
    6.9173  -12.7101   18.5180 C   0  0  0  0  0  0  0  0  0  0  0  0
    8.0910  -11.9607   18.5789 C   0  0  0  0  0  0  0  0  0  0  0  0
    9.1869  -12.4482   19.2370 C   0  0  0  0  0  0  0  0  0  0  0  0
    9.1817  -13.6643   19.8501 C   0  0  0  0  0  0  0  0  0  0  0  0
    8.0138  -14.4317   19.8012 C   0  0  0  0  0  0  0  0  0  0  0  0
   10.2753  -16.2007   22.7340 C   0  0  0  0  0  0  0  0  0  0  0  0
   11.3223  -16.8547   23.0232 O   0  0  0  0  0  0  0  0  0  0  0  0
    9.4778  -15.6904   23.7899 N   0  0  0  0  0  0  0  0  0  0  0  0
    9.8928  -15.7560   25.1672 C   0  0  1  0  0  0  0  0  0  0  0  0
    9.1195  -14.8725   26.0702 C   0  0  0  0  0  0  0  0  0  0  0  0
    9.5401  -14.8359   27.4745 C   0  0  0  0  0  0  0  0  0  0  0  0
   10.3026  -13.8690   28.0687 C   0  0  0  0  0  0  0  0  0  0  0  0
   10.7021  -13.8708   29.3860 C   0  0  0  0  0  0  0  0  0  0  0  0
   10.3234  -14.9177   30.2062 C   0  0  0  0  0  0  0  0  0  0  0  0
    9.5551  -15.9110   29.6494 C   0  0  0  0  0  0  0  0  0  0  0  0
    9.1618  -15.8966   28.3303 C   0  0  0  0  0  0  0  0  0  0  0  0
    9.9306  -17.1968   25.6082 C   0  0  0  0  0  0  0  0  0  0  0  0
    8.9126  -17.9176   25.4628 O   0  0  0  0  0  0  0  0  0  0  0  0
   13.4151  -20.5479   23.8952 C   0  0  0  0  0  0  0  0  0  0  0  0
   12.2586  -19.7950   24.5500 C   0  0  0  0  0  0  0  0  0  0  0  0
   12.4330  -19.7122   26.0331 C   0  0  2  0  0  0  0  0  0  0  0  0
   12.6863  -21.1135   26.5792 C   0  0  0  0  0  0  0  0  0  0  0  0
   11.3982  -18.9584   26.8013 C   0  0  2  0  0  0  0  0  0  0  0  0
   11.0856  -17.7021   26.1649 N   0  0  0  0  0  0  0  0  0  0  0  0
   11.6517  -18.9548   28.2385 C   0  0  0  0  0  0  0  0  0  0  0  0
   11.4666  -20.2252   28.8621 O   0  0  0  0  0  0  0  0  0  0  0  0
   11.9910  -18.0683   29.0285 O   0  0  0  0  0  0  0  0  0  0  0  0
  2  1  1  6
  3  2  1  0
  4  3  1  0
  5  4  2  0
  6  5  1  0
  7  6  1  0
  7 12  2  0
  8  7  1  0
  9  8  2  0
  9 10  1  0
 10 11  2  0
 11 12  1  0
 12  4  1  0
 13 14  2  0
 13  2  1  0
 15 13  1  0
 16 15  1  0
 17 18  1  0
 16 17  1  1
 18 23  1  0
 19 18  2  0
 19 20  1  0
 20 21  2  0
 21 22  1  0
 23 22  2  0
 24 16  1  0
 25 24  2  0
 26 27  1  0
 27 28  1  0
 28 29  1  1
 28 30  1  0
 30 31  1  6
 30 32  1  0
 31 24  1  0
 32 33  1  0
 34 32  2  0
M  END
$$$$
