WFI.pdb
     RDKit          3D

 34 36  0  0  1  0  0  0  0  0999 V2000
    9.2644  -17.9170   20.1854 N   0  0  0  0  0  0  0  0  0  0  0  0
   10.4823  -17.2561   20.5271 C   0  0  1  0  0  0  0  0  0  0  0  0
   10.9832  -16.2567   19.5225 C   0  0  0  0  0  0  0  0  0  0  0  0
    9.8643  -15.5315   18.9230 C   0  0  0  0  0  0  0  0  0  0  0  0
    9.3324  -15.8288   17.6884 C   0  0  0  0  0  0  0  0  0  0  0  0
    8.3123  -14.9872   17.4958 N   0  0  0  0  0  0  0  0  0  0  0  0
    8.1647  -14.1672   18.5446 C   0  0  0  0  0  0  0  0  0  0  0  0
    7.2691  -13.1336   18.8126 C   0  0  0  0  0  0  0  0  0  0  0  0
    7.3865  -12.4473   20.0201 C   0  0  0  0  0  0  0  0  0  0  0  0
    8.3628  -12.7893   20.9154 C   0  0  0  0  0  0  0  0  0  0  0  0
    9.2477  -13.7957   20.6726 C   0  0  0  0  0  0  0  0  0  0  0  0
    9.1467  -14.4971   19.4672 C   0  0  0  0  0  0  0  0  0  0  0  0
   10.2663  -16.5250   21.8264 C   0  0  0  0  0  0  0  0  0  0  0  0
   11.1893  -15.8224   22.3381 O   0  0  0  0  0  0  0  0  0  0  0  0
    9.0213  -16.6094   22.5005 N   0  0  0  0  0  0  0  0  0  0  0  0
    8.7612  -15.8989   23.7256 C   0  0  1  0  0  0  0  0  0  0  0  0
    7.3489  -15.4842   23.8911 C   0  0  0  0  0  0  0  0  0  0  0  0
    7.0779  -14.4600   24.9049 C   0  0  0  0  0  0  0  0  0  0  0  0
    7.4138  -13.1366   24.8321 C   0  0  0  0  0  0  0  0  0  0  0  0
    7.1666  -12.1997   25.8098 C   0  0  0  0  0  0  0  0  0  0  0  0
    6.5309  -12.5891   26.9745 C   0  0  0  0  0  0  0  0  0  0  0  0
    6.1747  -13.9108   27.0887 C   0  0  0  0  0  0  0  0  0  0  0  0
    6.4273  -14.8377   26.1027 C   0  0  0  0  0  0  0  0  0  0  0  0
    9.3045  -16.6918   24.8866 C   0  0  0  0  0  0  0  0  0  0  0  0
    9.4083  -17.9397   24.7918 O   0  0  0  0  0  0  0  0  0  0  0  0
   10.3058  -13.4726   29.7024 C   0  0  0  0  0  0  0  0  0  0  0  0
    9.7344  -14.6404   28.9006 C   0  0  0  0  0  0  0  0  0  0  0  0
   10.7873  -15.2918   28.0617 C   0  0  2  0  0  0  0  0  0  0  0  0
   11.5205  -14.2162   27.2668 C   0  0  0  0  0  0  0  0  0  0  0  0
   10.3716  -16.4594   27.2292 C   0  0  2  0  0  0  0  0  0  0  0  0
    9.6805  -16.0327   26.0370 N   0  0  0  0  0  0  0  0  0  0  0  0
    9.7781  -17.5340   28.0184 C   0  0  0  0  0  0  0  0  0  0  0  0
    8.4183  -17.8130   27.6864 O   0  0  0  0  0  0  0  0  0  0  0  0
   10.2162  -18.2509   28.9235 O   0  0  0  0  0  0  0  0  0  0  0  0
  2  1  1  6
  3  2  1  0
  4  3  1  0
  5  4  2  0
  6  5  1  0
  7  6  1  0
  7 12  2  0
  8  7  1  0
  9  8  2  0
  9 10  1  0
 10 11  2  0
 11 12  1  0
 12  4  1  0
 13 14  2  0
 13  2  1  0
 15 13  1  0
 16 15  1  0
 17 18  1  0
 16 17  1  1
 18 23  1  0
 19 18  2  0
 19 20  1  0
 20 21  2  0
 21 22  1  0
 23 22  2  0
 24 16  1  0
 25 24  2  0
 26 27  1  0
 27 28  1  0
 28 29  1  6
 28 30  1  0
 30 31  1  6
 30 32  1  0
 31 24  1  0
 32 33  1  0
 34 32  2  0
M  END
$$$$
