WFI.pdb
     RDKit          3D

 34 36  0  0  1  0  0  0  0  0999 V2000
    9.1736  -18.1703   20.3524 N   0  0  0  0  0  0  0  0  0  0  0  0
    8.2609  -17.0847   20.5107 C   0  0  1  0  0  0  0  0  0  0  0  0
    7.3086  -16.8647   19.3690 C   0  0  0  0  0  0  0  0  0  0  0  0
    7.5872  -15.5895   18.7107 C   0  0  0  0  0  0  0  0  0  0  0  0
    7.4024  -15.3658   17.3648 C   0  0  0  0  0  0  0  0  0  0  0  0
    7.7239  -14.0884   17.1390 N   0  0  0  0  0  0  0  0  0  0  0  0
    8.1045  -13.4840   18.2721 C   0  0  0  0  0  0  0  0  0  0  0  0
    8.5320  -12.1868   18.5492 C   0  0  0  0  0  0  0  0  0  0  0  0
    8.8753  -11.8649   19.8612 C   0  0  0  0  0  0  0  0  0  0  0  0
    8.7903  -12.8092   20.8476 C   0  0  0  0  0  0  0  0  0  0  0  0
    8.3752  -14.0820   20.5978 C   0  0  0  0  0  0  0  0  0  0  0  0
    8.0256  -14.4252   19.2881 C   0  0  0  0  0  0  0  0  0  0  0  0
    7.4377  -17.3453   21.7451 C   0  0  0  0  0  0  0  0  0  0  0  0
    6.1730  -17.4094   21.6815 O   0  0  0  0  0  0  0  0  0  0  0  0
    8.0662  -17.5258   23.0036 N   0  0  0  0  0  0  0  0  0  0  0  0
    8.0948  -16.4903   24.0038 C   0  0  1  0  0  0  0  0  0  0  0  0
    6.7664  -15.9074   24.3030 C   0  0  0  0  0  0  0  0  0  0  0  0
    6.7305  -14.8224   25.2887 C   0  0  0  0  0  0  0  0  0  0  0  0
    6.4252  -14.9412   26.6162 C   0  0  0  0  0  0  0  0  0  0  0  0
    6.3771  -13.9007   27.5162 C   0  0  0  0  0  0  0  0  0  0  0  0
    6.6519  -12.6171   27.0813 C   0  0  0  0  0  0  0  0  0  0  0  0
    6.9647  -12.4527   25.7539 C   0  0  0  0  0  0  0  0  0  0  0  0
    7.0099  -13.5023   24.8644 C   0  0  0  0  0  0  0  0  0  0  0  0
    8.8288  -16.9929   25.2205 C   0  0  0  0  0  0  0  0  0  0  0  0
    9.0032  -18.2269   25.3748 O   0  0  0  0  0  0  0  0  0  0  0  0
   10.5185  -12.3702   27.8333 C   0  0  0  0  0  0  0  0  0  0  0  0
   10.7390  -13.6571   27.0408 C   0  0  0  0  0  0  0  0  0  0  0  0
   10.4727  -14.8660   27.8802 C   0  0  2  0  0  0  0  0  0  0  0  0
   11.4958  -14.9174   29.0101 C   0  0  0  0  0  0  0  0  0  0  0  0
   10.3135  -16.1693   27.1694 C   0  0  2  0  0  0  0  0  0  0  0  0
    9.2992  -16.0874   26.1469 N   0  0  0  0  0  0  0  0  0  0  0  0
   10.2792  -17.3094   28.0797 C   0  0  0  0  0  0  0  0  0  0  0  0
    8.9725  -17.8442   28.2887 O   0  0  0  0  0  0  0  0  0  0  0  0
   11.1569  -17.9046   28.7126 O   0  0  0  0  0  0  0  0  0  0  0  0
  2  1  1  6
  3  2  1  0
  4  3  1  0
  5  4  2  0
  6  5  1  0
  7  6  1  0
  7 12  2  0
  8  7  1  0
  9  8  2  0
  9 10  1  0
 10 11  2  0
 11 12  1  0
 12  4  1  0
 13 14  2  0
 13  2  1  0
 15 13  1  0
 16 15  1  0
 17 18  1  0
 16 17  1  1
 18 23  1  0
 19 18  2  0
 19 20  1  0
 20 21  2  0
 21 22  1  0
 23 22  2  0
 24 16  1  0
 25 24  2  0
 26 27  1  0
 27 28  1  0
 28 29  1  1
 28 30  1  0
 30 31  1  1
 30 32  1  0
 31 24  1  0
 32 33  1  0
 34 32  2  0
M  END
$$$$
