WFI.pdb
     RDKit          3D

 34 36  0  0  1  0  0  0  0  0999 V2000
   10.6395  -15.0439   20.1553 N   0  0  0  0  0  0  0  0  0  0  0  0
    9.3102  -15.2102   20.6474 C   0  0  1  0  0  0  0  0  0  0  0  0
    8.6456  -16.5118   20.2968 C   0  0  0  0  0  0  0  0  0  0  0  0
    8.0552  -16.4397   18.9613 C   0  0  0  0  0  0  0  0  0  0  0  0
    7.4156  -17.4939   18.3488 C   0  0  0  0  0  0  0  0  0  0  0  0
    6.9803  -17.0461   17.1673 N   0  0  0  0  0  0  0  0  0  0  0  0
    7.3087  -15.7593   16.9934 C   0  0  0  0  0  0  0  0  0  0  0  0
    7.0913  -14.8655   15.9465 C   0  0  0  0  0  0  0  0  0  0  0  0
    7.5797  -13.5657   16.0683 C   0  0  0  0  0  0  0  0  0  0  0  0
    8.2561  -13.1862   17.1954 C   0  0  0  0  0  0  0  0  0  0  0  0
    8.4792  -14.0441   18.2293 C   0  0  0  0  0  0  0  0  0  0  0  0
    7.9968  -15.3526   18.1272 C   0  0  0  0  0  0  0  0  0  0  0  0
    9.3549  -15.1131   22.1500 C   0  0  0  0  0  0  0  0  0  0  0  0
   10.3764  -15.4960   22.7960 O   0  0  0  0  0  0  0  0  0  0  0  0
    8.2514  -14.5880   22.8697 N   0  0  0  0  0  0  0  0  0  0  0  0
    8.2721  -14.4304   24.3009 C   0  0  1  0  0  0  0  0  0  0  0  0
    7.2635  -13.4751   24.8146 C   0  0  0  0  0  0  0  0  0  0  0  0
    7.2515  -13.2458   26.2629 C   0  0  0  0  0  0  0  0  0  0  0  0
    6.3644  -13.7715   27.1608 C   0  0  0  0  0  0  0  0  0  0  0  0
    6.3626  -13.5216   28.5144 C   0  0  0  0  0  0  0  0  0  0  0  0
    7.3175  -12.6751   29.0472 C   0  0  0  0  0  0  0  0  0  0  0  0
    8.2298  -12.1254   28.1797 C   0  0  0  0  0  0  0  0  0  0  0  0
    8.2208  -12.3844   26.8277 C   0  0  0  0  0  0  0  0  0  0  0  0
    8.2143  -15.7882   24.9525 C   0  0  0  0  0  0  0  0  0  0  0  0
    7.2691  -16.5685   24.6791 O   0  0  0  0  0  0  0  0  0  0  0  0
   11.4103  -20.5106   25.3430 C   0  0  0  0  0  0  0  0  0  0  0  0
   10.6401  -19.6366   26.3308 C   0  0  0  0  0  0  0  0  0  0  0  0
   10.3391  -18.2922   25.7487 C   0  0  2  0  0  0  0  0  0  0  0  0
   11.6449  -17.6463   25.2972 C   0  0  0  0  0  0  0  0  0  0  0  0
    9.4763  -17.3773   26.5535 C   0  0  2  0  0  0  0  0  0  0  0  0
    9.2031  -16.1534   25.8404 N   0  0  0  0  0  0  0  0  0  0  0  0
    9.9007  -17.2793   27.9464 C   0  0  0  0  0  0  0  0  0  0  0  0
   10.2129  -15.9507   28.3643 O   0  0  0  0  0  0  0  0  0  0  0  0
   10.0496  -18.1192   28.8393 O   0  0  0  0  0  0  0  0  0  0  0  0
  2  1  1  1
  3  2  1  0
  4  3  1  0
  5  4  2  0
  6  5  1  0
  7  6  1  0
  7 12  2  0
  8  7  1  0
  9  8  2  0
  9 10  1  0
 10 11  2  0
 11 12  1  0
 12  4  1  0
 13 14  2  0
 13  2  1  0
 15 13  1  0
 16 15  1  0
 17 18  1  0
 16 17  1  1
 18 23  1  0
 19 18  2  0
 19 20  1  0
 20 21  2  0
 21 22  1  0
 23 22  2  0
 24 16  1  0
 25 24  2  0
 26 27  1  0
 27 28  1  0
 28 29  1  1
 28 30  1  0
 30 31  1  6
 30 32  1  0
 31 24  1  0
 32 33  1  0
 34 32  2  0
M  END
$$$$
