WFI.pdb
     RDKit          3D

 34 36  0  0  1  0  0  0  0  0999 V2000
    6.7196  -21.3903   24.8401 N   0  0  0  0  0  0  0  0  0  0  0  0
    7.1100  -20.3222   25.7024 C   0  0  1  0  0  0  0  0  0  0  0  0
    8.4012  -20.5249   26.4443 C   0  0  0  0  0  0  0  0  0  0  0  0
    8.2042  -20.3155   27.8778 C   0  0  0  0  0  0  0  0  0  0  0  0
    7.8187  -21.3078   28.7509 C   0  0  0  0  0  0  0  0  0  0  0  0
    7.7793  -20.7562   29.9675 N   0  0  0  0  0  0  0  0  0  0  0  0
    8.1202  -19.4618   29.9167 C   0  0  0  0  0  0  0  0  0  0  0  0
    8.2204  -18.4757   30.8963 C   0  0  0  0  0  0  0  0  0  0  0  0
    8.5990  -17.1907   30.5112 C   0  0  0  0  0  0  0  0  0  0  0  0
    8.8645  -16.9147   29.1978 C   0  0  0  0  0  0  0  0  0  0  0  0
    8.7723  -17.8638   28.2254 C   0  0  0  0  0  0  0  0  0  0  0  0
    8.3945  -19.1596   28.5909 C   0  0  0  0  0  0  0  0  0  0  0  0
    7.2575  -19.0786   24.8651 C   0  0  0  0  0  0  0  0  0  0  0  0
    7.8583  -19.1138   23.7493 O   0  0  0  0  0  0  0  0  0  0  0  0
    6.7231  -17.8433   25.3121 N   0  0  0  0  0  0  0  0  0  0  0  0
    6.9725  -16.6038   24.6230 C   0  0  1  0  0  0  0  0  0  0  0  0
    6.1636  -15.4669   25.1201 C   0  0  0  0  0  0  0  0  0  0  0  0
    6.4556  -14.1500   24.5451 C   0  0  0  0  0  0  0  0  0  0  0  0
    6.4941  -12.9606   25.2184 C   0  0  0  0  0  0  0  0  0  0  0  0
    6.7494  -11.7336   24.6488 C   0  0  0  0  0  0  0  0  0  0  0  0
    6.9897  -11.6559   23.2892 C   0  0  0  0  0  0  0  0  0  0  0  0
    6.9616  -12.8285   22.5743 C   0  0  0  0  0  0  0  0  0  0  0  0
    6.7056  -14.0493   23.1565 C   0  0  0  0  0  0  0  0  0  0  0  0
    8.4554  -16.3349   24.6023 C   0  0  0  0  0  0  0  0  0  0  0  0
    9.0522  -16.2295   23.5024 O   0  0  0  0  0  0  0  0  0  0  0  0
    9.5719  -12.9437   28.5999 C   0  0  0  0  0  0  0  0  0  0  0  0
    9.5807  -13.6824   27.2630 C   0  0  0  0  0  0  0  0  0  0  0  0
   10.4818  -14.8753   27.3059 C   0  0  2  0  0  0  0  0  0  0  0  0
   11.8813  -14.4223   27.7087 C   0  0  0  0  0  0  0  0  0  0  0  0
   10.4741  -15.7799   26.1182 C   0  0  2  0  0  0  0  0  0  0  0  0
    9.1350  -16.2077   25.7945 N   0  0  0  0  0  0  0  0  0  0  0  0
   11.5234  -16.7928   26.1719 C   0  0  0  0  0  0  0  0  0  0  0  0
   12.8461  -16.2563   26.1761 O   0  0  0  0  0  0  0  0  0  0  0  0
   11.4974  -18.0269   26.2095 O   0  0  0  0  0  0  0  0  0  0  0  0
  2  1  1  6
  3  2  1  0
  4  3  1  0
  5  4  2  0
  6  5  1  0
  7  6  1  0
  7 12  2  0
  8  7  1  0
  9  8  2  0
  9 10  1  0
 10 11  2  0
 11 12  1  0
 12  4  1  0
 13 14  2  0
 13  2  1  0
 15 13  1  0
 16 15  1  0
 17 18  1  0
 16 17  1  1
 18 23  1  0
 19 18  2  0
 19 20  1  0
 20 21  2  0
 21 22  1  0
 23 22  2  0
 24 16  1  0
 25 24  2  0
 26 27  1  0
 27 28  1  0
 28 29  1  6
 28 30  1  0
 30 31  1  1
 30 32  1  0
 31 24  1  0
 32 33  1  0
 34 32  2  0
M  END
$$$$
