WFI.pdb
     RDKit          3D

 34 36  0  0  1  0  0  0  0  0999 V2000
    8.4528  -18.1174   19.8056 N   0  0  0  0  0  0  0  0  0  0  0  0
    9.5603  -17.4379   20.3957 C   0  0  1  0  0  0  0  0  0  0  0  0
   10.3650  -16.5758   19.4639 C   0  0  0  0  0  0  0  0  0  0  0  0
    9.4877  -15.6795   18.7127 C   0  0  0  0  0  0  0  0  0  0  0  0
    9.1007  -15.9009   17.4100 C   0  0  0  0  0  0  0  0  0  0  0  0
    8.2796  -14.9005   17.0770 N   0  0  0  0  0  0  0  0  0  0  0  0
    8.1217  -14.0510   18.1005 C   0  0  0  0  0  0  0  0  0  0  0  0
    7.3868  -12.8755   18.2433 C   0  0  0  0  0  0  0  0  0  0  0  0
    7.4406  -12.2004   19.4615 C   0  0  0  0  0  0  0  0  0  0  0  0
    8.2011  -12.6902   20.4881 C   0  0  0  0  0  0  0  0  0  0  0  0
    8.9265  -13.8366   20.3689 C   0  0  0  0  0  0  0  0  0  0  0  0
    8.8857  -14.5294   19.1549 C   0  0  0  0  0  0  0  0  0  0  0  0
    9.0312  -16.5508   21.4923 C   0  0  0  0  0  0  0  0  0  0  0  0
    8.8372  -15.3141   21.2912 O   0  0  0  0  0  0  0  0  0  0  0  0
    8.7384  -17.0867   22.7723 N   0  0  0  0  0  0  0  0  0  0  0  0
    8.6118  -16.2568   23.9422 C   0  0  1  0  0  0  0  0  0  0  0  0
    7.2192  -15.8528   24.2442 C   0  0  0  0  0  0  0  0  0  0  0  0
    7.0461  -14.7109   25.1477 C   0  0  0  0  0  0  0  0  0  0  0  0
    7.5911  -13.4661   24.9964 C   0  0  0  0  0  0  0  0  0  0  0  0
    7.4300  -12.4170   25.8730 C   0  0  0  0  0  0  0  0  0  0  0  0
    6.6641  -12.5971   27.0101 C   0  0  0  0  0  0  0  0  0  0  0  0
    6.0966  -13.8335   27.2007 C   0  0  0  0  0  0  0  0  0  0  0  0
    6.2651  -14.8743   26.3156 C   0  0  0  0  0  0  0  0  0  0  0  0
    9.3210  -16.9141   25.0985 C   0  0  0  0  0  0  0  0  0  0  0  0
    9.4805  -18.1597   25.1021 O   0  0  0  0  0  0  0  0  0  0  0  0
   10.5046  -12.8540   28.8379 C   0  0  0  0  0  0  0  0  0  0  0  0
   10.7524  -13.9627   27.8169 C   0  0  0  0  0  0  0  0  0  0  0  0
   10.3237  -15.2948   28.3447 C   0  0  2  0  0  0  0  0  0  0  0  0
   11.0325  -15.5518   29.6705 C   0  0  0  0  0  0  0  0  0  0  0  0
   10.3897  -16.4544   27.4066 C   0  0  2  0  0  0  0  0  0  0  0  0
    9.7855  -16.1351   26.1362 N   0  0  0  0  0  0  0  0  0  0  0  0
   10.0252  -17.7169   28.0414 C   0  0  0  0  0  0  0  0  0  0  0  0
   11.0652  -18.2869   28.8357 O   0  0  0  0  0  0  0  0  0  0  0  0
    8.9948  -18.3974   28.0256 O   0  0  0  0  0  0  0  0  0  0  0  0
  2  1  1  6
  3  2  1  0
  4  3  1  0
  5  4  2  0
  6  5  1  0
  7  6  1  0
  7 12  2  0
  8  7  1  0
  9  8  2  0
  9 10  1  0
 10 11  2  0
 11 12  1  0
 12  4  1  0
 13 14  2  0
 13  2  1  0
 15 13  1  0
 16 15  1  0
 17 18  1  0
 16 17  1  1
 18 23  1  0
 19 18  2  0
 19 20  1  0
 20 21  2  0
 21 22  1  0
 23 22  2  0
 24 16  1  0
 25 24  2  0
 26 27  1  0
 27 28  1  0
 28 29  1  1
 28 30  1  0
 30 31  1  6
 30 32  1  0
 31 24  1  0
 32 33  1  0
 34 32  2  0
M  END
$$$$
