WFI.pdb
     RDKit          3D

 34 36  0  0  1  0  0  0  0  0999 V2000
   11.1014  -17.6069   20.2365 N   0  0  0  0  0  0  0  0  0  0  0  0
   10.0445  -16.8841   20.8665 C   0  0  1  0  0  0  0  0  0  0  0  0
    8.6690  -17.4658   20.6981 C   0  0  0  0  0  0  0  0  0  0  0  0
    7.6939  -16.4057   20.4479 C   0  0  0  0  0  0  0  0  0  0  0  0
    6.3509  -16.6324   20.2458 C   0  0  0  0  0  0  0  0  0  0  0  0
    5.7778  -15.4355   20.0884 N   0  0  0  0  0  0  0  0  0  0  0  0
    6.6858  -14.4550   20.1799 C   0  0  0  0  0  0  0  0  0  0  0  0
    6.5871  -13.0685   20.0806 C   0  0  0  0  0  0  0  0  0  0  0  0
    7.7469  -12.3071   20.2148 C   0  0  0  0  0  0  0  0  0  0  0  0
    8.9504  -12.9179   20.4394 C   0  0  0  0  0  0  0  0  0  0  0  0
    9.0683  -14.2710   20.5395 C   0  0  0  0  0  0  0  0  0  0  0  0
    7.9165  -15.0530   20.4083 C   0  0  0  0  0  0  0  0  0  0  0  0
   10.3358  -16.8269   22.3435 C   0  0  0  0  0  0  0  0  0  0  0  0
   11.2329  -17.5604   22.8579 O   0  0  0  0  0  0  0  0  0  0  0  0
    9.6099  -15.9468   23.1860 N   0  0  0  0  0  0  0  0  0  0  0  0
    9.8896  -15.8249   24.5932 C   0  0  1  0  0  0  0  0  0  0  0  0
    9.0448  -14.8271   25.2893 C   0  0  0  0  0  0  0  0  0  0  0  0
    9.2666  -14.6670   26.7299 C   0  0  0  0  0  0  0  0  0  0  0  0
    8.8362  -15.5103   27.7164 C   0  0  0  0  0  0  0  0  0  0  0  0
    9.0397  -15.3240   29.0650 C   0  0  0  0  0  0  0  0  0  0  0  0
    9.7289  -14.2057   29.4969 C   0  0  0  0  0  0  0  0  0  0  0  0
   10.1803  -13.3319   28.5380 C   0  0  0  0  0  0  0  0  0  0  0  0
    9.9706  -13.5305   27.1921 C   0  0  0  0  0  0  0  0  0  0  0  0
    9.8661  -17.1926   25.2262 C   0  0  0  0  0  0  0  0  0  0  0  0
    8.8345  -17.9026   25.1324 O   0  0  0  0  0  0  0  0  0  0  0  0
   13.6283  -21.7728   25.6052 C   0  0  0  0  0  0  0  0  0  0  0  0
   12.6681  -20.9955   26.5033 C   0  0  0  0  0  0  0  0  0  0  0  0
   12.2703  -19.6958   25.8794 C   0  0  2  0  0  0  0  0  0  0  0  0
   13.5302  -18.9238   25.5014 C   0  0  0  0  0  0  0  0  0  0  0  0
   11.2677  -18.8657   26.6107 C   0  0  2  0  0  0  0  0  0  0  0  0
   10.9807  -17.6440   25.8994 N   0  0  0  0  0  0  0  0  0  0  0  0
   11.5415  -18.7781   28.0415 C   0  0  0  0  0  0  0  0  0  0  0  0
   11.7411  -17.4455   28.5122 O   0  0  0  0  0  0  0  0  0  0  0  0
   11.6407  -19.6295   28.9306 O   0  0  0  0  0  0  0  0  0  0  0  0
  2  1  1  6
  3  2  1  0
  4  3  1  0
  5  4  2  0
  6  5  1  0
  7  6  1  0
  7 12  2  0
  8  7  1  0
  9  8  2  0
  9 10  1  0
 10 11  2  0
 11 12  1  0
 12  4  1  0
 13 14  2  0
 13  2  1  0
 15 13  1  0
 16 15  1  0
 17 18  1  0
 16 17  1  1
 18 23  1  0
 19 18  2  0
 19 20  1  0
 20 21  2  0
 21 22  1  0
 23 22  2  0
 24 16  1  0
 25 24  2  0
 26 27  1  0
 27 28  1  0
 28 29  1  1
 28 30  1  0
 30 31  1  6
 30 32  1  0
 31 24  1  0
 32 33  1  0
 34 32  2  0
M  END
$$$$
