WFI.pdb
     RDKit          3D

 34 36  0  0  1  0  0  0  0  0999 V2000
    6.8670  -20.1598   21.2149 N   0  0  0  0  0  0  0  0  0  0  0  0
    6.6668  -19.9808   22.6165 C   0  0  1  0  0  0  0  0  0  0  0  0
    7.3316  -20.9964   23.5027 C   0  0  0  0  0  0  0  0  0  0  0  0
    6.5920  -22.2573   23.4776 C   0  0  0  0  0  0  0  0  0  0  0  0
    7.0905  -23.4273   22.9501 C   0  0  0  0  0  0  0  0  0  0  0  0
    6.1554  -24.3634   23.1378 N   0  0  0  0  0  0  0  0  0  0  0  0
    5.0846  -23.8516   23.7587 C   0  0  0  0  0  0  0  0  0  0  0  0
    3.8732  -24.4108   24.1611 C   0  0  0  0  0  0  0  0  0  0  0  0
    2.9371  -23.5907   24.7888 C   0  0  0  0  0  0  0  0  0  0  0  0
    3.2120  -22.2673   25.0006 C   0  0  0  0  0  0  0  0  0  0  0  0
    4.3893  -21.7015   24.6150 C   0  0  0  0  0  0  0  0  0  0  0  0
    5.3422  -22.5073   23.9840 C   0  0  0  0  0  0  0  0  0  0  0  0
    7.2062  -18.6259   22.9942 C   0  0  0  0  0  0  0  0  0  0  0  0
    8.0904  -18.0576   22.2852 O   0  0  0  0  0  0  0  0  0  0  0  0
    6.7307  -17.9601   24.1527 N   0  0  0  0  0  0  0  0  0  0  0  0
    7.2594  -16.6911   24.5811 C   0  0  1  0  0  0  0  0  0  0  0  0
    6.3331  -15.9118   25.4346 C   0  0  0  0  0  0  0  0  0  0  0  0
    6.8260  -14.6258   25.9380 C   0  0  0  0  0  0  0  0  0  0  0  0
    7.4230  -14.4024   27.1476 C   0  0  0  0  0  0  0  0  0  0  0  0
    7.8571  -13.1788   27.6049 C   0  0  0  0  0  0  0  0  0  0  0  0
    7.6926  -12.0614   26.8071 C   0  0  0  0  0  0  0  0  0  0  0  0
    7.0976  -12.2413   25.5822 C   0  0  0  0  0  0  0  0  0  0  0  0
    6.6686  -13.4710   25.1365 C   0  0  0  0  0  0  0  0  0  0  0  0
    8.6220  -16.8992   25.1908 C   0  0  0  0  0  0  0  0  0  0  0  0
    8.7759  -17.7665   26.0858 O   0  0  0  0  0  0  0  0  0  0  0  0
   11.9351  -14.8805   21.3257 C   0  0  0  0  0  0  0  0  0  0  0  0
   11.2786  -15.8233   22.3323 C   0  0  0  0  0  0  0  0  0  0  0  0
   11.8028  -15.5950   23.7143 C   0  0  2  0  0  0  0  0  0  0  0  0
   13.3132  -15.8067   23.7105 C   0  0  0  0  0  0  0  0  0  0  0  0
   11.1113  -16.3025   24.8325 C   0  0  2  0  0  0  0  0  0  0  0  0
    9.6809  -16.1326   24.7544 N   0  0  0  0  0  0  0  0  0  0  0  0
   11.7579  -16.0884   26.1231 C   0  0  0  0  0  0  0  0  0  0  0  0
   11.0291  -15.2304   27.0005 O   0  0  0  0  0  0  0  0  0  0  0  0
   12.8165  -16.4982   26.6096 O   0  0  0  0  0  0  0  0  0  0  0  0
  2  1  1  6
  3  2  1  0
  4  3  1  0
  5  4  2  0
  6  5  1  0
  7  6  1  0
  7 12  2  0
  8  7  1  0
  9  8  2  0
  9 10  1  0
 10 11  2  0
 11 12  1  0
 12  4  1  0
 13 14  2  0
 13  2  1  0
 15 13  1  0
 16 15  1  0
 17 18  1  0
 16 17  1  1
 18 23  1  0
 19 18  2  0
 19 20  1  0
 20 21  2  0
 21 22  1  0
 23 22  2  0
 24 16  1  0
 25 24  2  0
 26 27  1  0
 27 28  1  0
 28 29  1  6
 28 30  1  0
 30 31  1  1
 30 32  1  0
 31 24  1  0
 32 33  1  0
 34 32  2  0
M  END
$$$$
