WFI.pdb
     RDKit          3D

 34 36  0  0  1  0  0  0  0  0999 V2000
    7.6651  -19.7525   26.2533 N   0  0  0  0  0  0  0  0  0  0  0  0
    8.1985  -18.4325   26.1552 C   0  0  1  0  0  0  0  0  0  0  0  0
    9.6494  -18.2892   26.5200 C   0  0  0  0  0  0  0  0  0  0  0  0
    9.7905  -17.5347   27.7642 C   0  0  0  0  0  0  0  0  0  0  0  0
    9.8318  -18.1157   29.0118 C   0  0  0  0  0  0  0  0  0  0  0  0
   10.0036  -17.1252   29.8923 N   0  0  0  0  0  0  0  0  0  0  0  0
   10.0746  -15.9406   29.2713 C   0  0  0  0  0  0  0  0  0  0  0  0
   10.2379  -14.6392   29.7422 C   0  0  0  0  0  0  0  0  0  0  0  0
   10.2608  -13.5950   28.8192 C   0  0  0  0  0  0  0  0  0  0  0  0
   10.1255  -13.8534   27.4825 C   0  0  0  0  0  0  0  0  0  0  0  0
    9.9649  -15.1175   27.0019 C   0  0  0  0  0  0  0  0  0  0  0  0
    9.9397  -16.1793   27.9114 C   0  0  0  0  0  0  0  0  0  0  0  0
    8.0408  -17.9718   24.7296 C   0  0  0  0  0  0  0  0  0  0  0  0
    8.5526  -18.6289   23.7738 O   0  0  0  0  0  0  0  0  0  0  0  0
    7.3127  -16.7917   24.4317 N   0  0  0  0  0  0  0  0  0  0  0  0
    7.7445  -15.8555   23.4265 C   0  0  1  0  0  0  0  0  0  0  0  0
    6.7368  -14.8214   23.0964 C   0  0  0  0  0  0  0  0  0  0  0  0
    7.0167  -13.9780   21.9300 C   0  0  0  0  0  0  0  0  0  0  0  0
    7.7465  -12.8218   21.9204 C   0  0  0  0  0  0  0  0  0  0  0  0
    7.9755  -12.0365   20.8133 C   0  0  0  0  0  0  0  0  0  0  0  0
    7.4402  -12.4124   19.5950 C   0  0  0  0  0  0  0  0  0  0  0  0
    6.7003  -13.5692   19.5595 C   0  0  0  0  0  0  0  0  0  0  0  0
    6.4795  -14.3460   20.6743 C   0  0  0  0  0  0  0  0  0  0  0  0
    9.0898  -15.2958   23.8120 C   0  0  0  0  0  0  0  0  0  0  0  0
    9.2555  -14.8117   24.9589 O   0  0  0  0  0  0  0  0  0  0  0  0
    9.8529  -15.9116   18.5694 C   0  0  0  0  0  0  0  0  0  0  0  0
    9.6275  -16.1558   20.0603 C   0  0  0  0  0  0  0  0  0  0  0  0
   10.9242  -16.2371   20.8009 C   0  0  2  0  0  0  0  0  0  0  0  0
   11.8175  -17.2690   20.1202 C   0  0  0  0  0  0  0  0  0  0  0  0
   10.8548  -16.4037   22.2830 C   0  0  2  0  0  0  0  0  0  0  0  0
   10.1202  -15.3249   22.8973 N   0  0  0  0  0  0  0  0  0  0  0  0
   12.1360  -16.7827   22.8702 C   0  0  0  0  0  0  0  0  0  0  0  0
   12.6746  -17.9977   22.3496 O   0  0  0  0  0  0  0  0  0  0  0  0
   12.8491  -16.2640   23.7347 O   0  0  0  0  0  0  0  0  0  0  0  0
  2  1  1  6
  3  2  1  0
  4  3  1  0
  5  4  2  0
  6  5  1  0
  7  6  1  0
  7 12  2  0
  8  7  1  0
  9  8  2  0
  9 10  1  0
 10 11  2  0
 11 12  1  0
 12  4  1  0
 13 14  2  0
 13  2  1  0
 15 13  1  0
 16 15  1  0
 17 18  1  0
 16 17  1  1
 18 23  1  0
 19 18  2  0
 19 20  1  0
 20 21  2  0
 21 22  1  0
 23 22  2  0
 24 16  1  0
 25 24  2  0
 26 27  1  0
 27 28  1  0
 28 29  1  6
 28 30  1  0
 30 31  1  1
 30 32  1  0
 31 24  1  0
 32 33  1  0
 34 32  2  0
M  END
$$$$
