WFI.pdb
     RDKit          3D

 34 36  0  0  1  0  0  0  0  0999 V2000
    9.4281  -17.1632   19.9105 N   0  0  0  0  0  0  0  0  0  0  0  0
    9.6150  -17.7395   21.2026 C   0  0  1  0  0  0  0  0  0  0  0  0
   10.8693  -18.5487   21.3778 C   0  0  0  0  0  0  0  0  0  0  0  0
   10.7728  -19.8058   20.6377 C   0  0  0  0  0  0  0  0  0  0  0  0
   11.5226  -20.0960   19.5199 C   0  0  0  0  0  0  0  0  0  0  0  0
   11.1911  -21.3351   19.1450 N   0  0  0  0  0  0  0  0  0  0  0  0
   10.2679  -21.8521   19.9663 C   0  0  0  0  0  0  0  0  0  0  0  0
    9.6115  -23.0813   19.9899 C   0  0  0  0  0  0  0  0  0  0  0  0
    8.6731  -23.3158   20.9935 C   0  0  0  0  0  0  0  0  0  0  0  0
    8.4102  -22.3537   21.9300 C   0  0  0  0  0  0  0  0  0  0  0  0
    9.0404  -21.1464   21.9245 C   0  0  0  0  0  0  0  0  0  0  0  0
    9.9858  -20.8913   20.9263 C   0  0  0  0  0  0  0  0  0  0  0  0
    9.6521  -16.6202   22.2102 C   0  0  0  0  0  0  0  0  0  0  0  0
   10.7344  -16.0113   22.4658 O   0  0  0  0  0  0  0  0  0  0  0  0
    8.4719  -16.2261   22.8910 N   0  0  0  0  0  0  0  0  0  0  0  0
    8.4835  -15.2430   23.9430 C   0  0  1  0  0  0  0  0  0  0  0  0
    7.2486  -14.4288   24.0177 C   0  0  0  0  0  0  0  0  0  0  0  0
    7.1455  -13.4905   25.1399 C   0  0  0  0  0  0  0  0  0  0  0  0
    6.4450  -13.6837   26.2980 C   0  0  0  0  0  0  0  0  0  0  0  0
    6.3469  -12.7753   27.3276 C   0  0  0  0  0  0  0  0  0  0  0  0
    6.9931  -11.5576   27.2192 C   0  0  0  0  0  0  0  0  0  0  0  0
    7.7100  -11.3224   26.0712 C   0  0  0  0  0  0  0  0  0  0  0  0
    7.8005  -12.2401   25.0491 C   0  0  0  0  0  0  0  0  0  0  0  0
    8.8552  -15.9089   25.2431 C   0  0  0  0  0  0  0  0  0  0  0  0
    8.0932  -16.7766   25.7365 O   0  0  0  0  0  0  0  0  0  0  0  0
   14.3248  -15.8473   25.8008 C   0  0  0  0  0  0  0  0  0  0  0  0
   12.8537  -16.2579   25.7843 C   0  0  0  0  0  0  0  0  0  0  0  0
   12.1477  -15.8040   27.0221 C   0  0  2  0  0  0  0  0  0  0  0  0
   12.8816  -16.3565   28.2396 C   0  0  0  0  0  0  0  0  0  0  0  0
   10.6703  -16.0111   27.0805 C   0  0  2  0  0  0  0  0  0  0  0  0
   10.0295  -15.5544   25.8714 N   0  0  0  0  0  0  0  0  0  0  0  0
   10.0924  -15.6061   28.3579 C   0  0  0  0  0  0  0  0  0  0  0  0
   10.4296  -16.4676   29.4448 O   0  0  0  0  0  0  0  0  0  0  0  0
    9.3626  -14.6664   28.6886 O   0  0  0  0  0  0  0  0  0  0  0  0
  2  1  1  6
  3  2  1  0
  4  3  1  0
  5  4  2  0
  6  5  1  0
  7  6  1  0
  7 12  2  0
  8  7  1  0
  9  8  2  0
  9 10  1  0
 10 11  2  0
 11 12  1  0
 12  4  1  0
 13 14  2  0
 13  2  1  0
 15 13  1  0
 16 15  1  0
 17 18  1  0
 16 17  1  1
 18 23  1  0
 19 18  2  0
 19 20  1  0
 20 21  2  0
 21 22  1  0
 23 22  2  0
 24 16  1  0
 25 24  2  0
 26 27  1  0
 27 28  1  0
 28 29  1  1
 28 30  1  0
 30 31  1  6
 30 32  1  0
 31 24  1  0
 32 33  1  0
 34 32  2  0
M  END
$$$$
