WFI.pdb
     RDKit          3D

 34 36  0  0  1  0  0  0  0  0999 V2000
    6.8175  -19.1107   23.2847 N   0  0  0  0  0  0  0  0  0  0  0  0
    7.5920  -18.6464   22.1795 C   0  0  1  0  0  0  0  0  0  0  0  0
    7.4094  -19.4040   20.8944 C   0  0  0  0  0  0  0  0  0  0  0  0
    7.7686  -20.8095   21.0753 C   0  0  0  0  0  0  0  0  0  0  0  0
    6.9159  -21.7572   21.5953 C   0  0  0  0  0  0  0  0  0  0  0  0
    7.5735  -22.9204   21.5734 N   0  0  0  0  0  0  0  0  0  0  0  0
    8.8031  -22.7648   21.0655 C   0  0  0  0  0  0  0  0  0  0  0  0
    9.8507  -23.6572   20.8460 C   0  0  0  0  0  0  0  0  0  0  0  0
   11.0367  -23.1702   20.2991 C   0  0  0  0  0  0  0  0  0  0  0  0
   11.1586  -21.8435   19.9878 C   0  0  0  0  0  0  0  0  0  0  0  0
   10.1471  -20.9553   20.1945 C   0  0  0  0  0  0  0  0  0  0  0  0
    8.9487  -21.4237   20.7419 C   0  0  0  0  0  0  0  0  0  0  0  0
    7.2160  -17.2112   21.9182 C   0  0  0  0  0  0  0  0  0  0  0  0
    6.0248  -16.8953   21.6203 O   0  0  0  0  0  0  0  0  0  0  0  0
    8.1916  -16.1854   22.0032 N   0  0  0  0  0  0  0  0  0  0  0  0
    8.3215  -15.3427   23.1635 C   0  0  1  0  0  0  0  0  0  0  0  0
    7.1144  -15.3115   24.0213 C   0  0  0  0  0  0  0  0  0  0  0  0
    6.8385  -14.0545   24.7242 C   0  0  0  0  0  0  0  0  0  0  0  0
    5.9793  -13.8830   25.7739 C   0  0  0  0  0  0  0  0  0  0  0  0
    5.7221  -12.6853   26.4019 C   0  0  0  0  0  0  0  0  0  0  0  0
    6.3632  -11.5408   25.9645 C   0  0  0  0  0  0  0  0  0  0  0  0
    7.2366  -11.6686   24.9119 C   0  0  0  0  0  0  0  0  0  0  0  0
    7.4854  -12.8728   24.2931 C   0  0  0  0  0  0  0  0  0  0  0  0
    9.5856  -15.7022   23.9014 C   0  0  0  0  0  0  0  0  0  0  0  0
   10.6907  -15.6371   23.3085 O   0  0  0  0  0  0  0  0  0  0  0  0
   10.3765  -13.3696   29.2140 C   0  0  0  0  0  0  0  0  0  0  0  0
   10.9313  -14.5119   28.3652 C   0  0  0  0  0  0  0  0  0  0  0  0
   10.0220  -14.8321   27.2219 C   0  0  2  0  0  0  0  0  0  0  0  0
    8.5928  -14.9400   27.7432 C   0  0  0  0  0  0  0  0  0  0  0  0
   10.4134  -15.9680   26.3355 C   0  0  2  0  0  0  0  0  0  0  0  0
    9.5085  -16.0971   25.2195 N   0  0  0  0  0  0  0  0  0  0  0  0
   10.7594  -17.1740   27.0810 C   0  0  0  0  0  0  0  0  0  0  0  0
    9.8897  -18.2780   26.8319 O   0  0  0  0  0  0  0  0  0  0  0  0
   11.6545  -17.4315   27.8919 O   0  0  0  0  0  0  0  0  0  0  0  0
  2  1  1  1
  3  2  1  0
  4  3  1  0
  5  4  2  0
  6  5  1  0
  7  6  1  0
  7 12  2  0
  8  7  1  0
  9  8  2  0
  9 10  1  0
 10 11  2  0
 11 12  1  0
 12  4  1  0
 13 14  2  0
 13  2  1  0
 15 13  1  0
 16 15  1  0
 17 18  1  0
 16 17  1  1
 18 23  1  0
 19 18  2  0
 19 20  1  0
 20 21  2  0
 21 22  1  0
 23 22  2  0
 24 16  1  0
 25 24  2  0
 26 27  1  0
 27 28  1  0
 28 29  1  1
 28 30  1  0
 30 31  1  6
 30 32  1  0
 31 24  1  0
 32 33  1  0
 34 32  2  0
M  END
$$$$
