WFI.pdb
     RDKit          3D

 34 36  0  0  1  0  0  0  0  0999 V2000
    8.0674  -18.7597   20.5200 N   0  0  0  0  0  0  0  0  0  0  0  0
    7.8276  -17.3530   20.5364 C   0  0  1  0  0  0  0  0  0  0  0  0
    6.8972  -16.8401   19.4733 C   0  0  0  0  0  0  0  0  0  0  0  0
    7.5156  -15.7338   18.7446 C   0  0  0  0  0  0  0  0  0  0  0  0
    7.8373  -15.7828   17.4068 C   0  0  0  0  0  0  0  0  0  0  0  0
    8.3443  -14.5878   17.0888 N   0  0  0  0  0  0  0  0  0  0  0  0
    8.3627  -13.7774   18.1550 C   0  0  0  0  0  0  0  0  0  0  0  0
    8.7943  -12.4641   18.3318 C   0  0  0  0  0  0  0  0  0  0  0  0
    8.6869  -11.8927   19.5985 C   0  0  0  0  0  0  0  0  0  0  0  0
    8.1672  -12.6141   20.6384 C   0  0  0  0  0  0  0  0  0  0  0  0
    7.7401  -13.8984   20.4868 C   0  0  0  0  0  0  0  0  0  0  0  0
    7.8387  -14.4900   19.2236 C   0  0  0  0  0  0  0  0  0  0  0  0
    7.2298  -16.9985   21.8729 C   0  0  0  0  0  0  0  0  0  0  0  0
    6.1297  -16.3726   21.9474 O   0  0  0  0  0  0  0  0  0  0  0  0
    7.8892  -17.3620   23.0747 N   0  0  0  0  0  0  0  0  0  0  0  0
    7.9493  -16.4837   24.2142 C   0  0  1  0  0  0  0  0  0  0  0  0
    6.6226  -16.0428   24.7033 C   0  0  0  0  0  0  0  0  0  0  0  0
    6.5932  -14.8252   25.5200 C   0  0  0  0  0  0  0  0  0  0  0  0
    6.5065  -14.7638   26.8831 C   0  0  0  0  0  0  0  0  0  0  0  0
    6.4583  -13.6048   27.6242 C   0  0  0  0  0  0  0  0  0  0  0  0
    6.4968  -12.3846   26.9748 C   0  0  0  0  0  0  0  0  0  0  0  0
    6.5850  -12.4005   25.6041 C   0  0  0  0  0  0  0  0  0  0  0  0
    6.6331  -13.5671   24.8748 C   0  0  0  0  0  0  0  0  0  0  0  0
    8.8160  -17.1067   25.2784 C   0  0  0  0  0  0  0  0  0  0  0  0
    8.9170  -18.3568   25.3438 O   0  0  0  0  0  0  0  0  0  0  0  0
   10.2098  -13.6098   29.7056 C   0  0  0  0  0  0  0  0  0  0  0  0
    9.7339  -14.8477   28.9479 C   0  0  0  0  0  0  0  0  0  0  0  0
   10.7691  -15.3249   27.9797 C   0  0  2  0  0  0  0  0  0  0  0  0
   11.2047  -14.1535   27.1056 C   0  0  0  0  0  0  0  0  0  0  0  0
   10.4566  -16.5586   27.1990 C   0  0  2  0  0  0  0  0  0  0  0  0
    9.4866  -16.2922   26.1650 N   0  0  0  0  0  0  0  0  0  0  0  0
   10.2509  -17.7280   28.0475 C   0  0  0  0  0  0  0  0  0  0  0  0
   11.4103  -18.1224   28.7806 O   0  0  0  0  0  0  0  0  0  0  0  0
    9.2723  -18.4517   28.2562 O   0  0  0  0  0  0  0  0  0  0  0  0
  2  1  1  1
  3  2  1  0
  4  3  1  0
  5  4  2  0
  6  5  1  0
  7  6  1  0
  7 12  2  0
  8  7  1  0
  9  8  2  0
  9 10  1  0
 10 11  2  0
 11 12  1  0
 12  4  1  0
 13 14  2  0
 13  2  1  0
 15 13  1  0
 16 15  1  0
 17 18  1  0
 16 17  1  1
 18 23  1  0
 19 18  2  0
 19 20  1  0
 20 21  2  0
 21 22  1  0
 23 22  2  0
 24 16  1  0
 25 24  2  0
 26 27  1  0
 27 28  1  0
 28 29  1  6
 28 30  1  0
 30 31  1  1
 30 32  1  0
 31 24  1  0
 32 33  1  0
 34 32  2  0
M  END
$$$$
