WFI.pdb
     RDKit          3D

 34 36  0  0  1  0  0  0  0  0999 V2000
   11.5142  -16.4892   20.4515 N   0  0  0  0  0  0  0  0  0  0  0  0
   10.1904  -16.0554   20.7614 C   0  0  1  0  0  0  0  0  0  0  0  0
    9.0834  -16.9460   20.2715 C   0  0  0  0  0  0  0  0  0  0  0  0
    8.1567  -16.1916   19.4291 C   0  0  0  0  0  0  0  0  0  0  0  0
    7.2073  -16.7759   18.6211 C   0  0  0  0  0  0  0  0  0  0  0  0
    6.5318  -15.7805   18.0389 N   0  0  0  0  0  0  0  0  0  0  0  0
    7.0009  -14.5896   18.4338 C   0  0  0  0  0  0  0  0  0  0  0  0
    6.6418  -13.2824   18.1108 C   0  0  0  0  0  0  0  0  0  0  0  0
    7.3484  -12.2336   18.6970 C   0  0  0  0  0  0  0  0  0  0  0  0
    8.3700  -12.4932   19.5693 C   0  0  0  0  0  0  0  0  0  0  0  0
    8.7365  -13.7630   19.8979 C   0  0  0  0  0  0  0  0  0  0  0  0
    8.0398  -14.8294   19.3212 C   0  0  0  0  0  0  0  0  0  0  0  0
   10.0699  -15.9635   22.2602 C   0  0  0  0  0  0  0  0  0  0  0  0
   11.0685  -16.1902   23.0077 O   0  0  0  0  0  0  0  0  0  0  0  0
    8.8329  -15.6188   22.8624 N   0  0  0  0  0  0  0  0  0  0  0  0
    8.7498  -15.0922   24.2000 C   0  0  1  0  0  0  0  0  0  0  0  0
    7.5521  -14.2552   24.4425 C   0  0  0  0  0  0  0  0  0  0  0  0
    7.4046  -13.6910   25.7879 C   0  0  0  0  0  0  0  0  0  0  0  0
    6.7431  -14.2617   26.8396 C   0  0  0  0  0  0  0  0  0  0  0  0
    6.6008  -13.6989   28.0878 C   0  0  0  0  0  0  0  0  0  0  0  0
    7.1559  -12.4572   28.3372 C   0  0  0  0  0  0  0  0  0  0  0  0
    7.8309  -11.8482   27.3074 C   0  0  0  0  0  0  0  0  0  0  0  0
    7.9664  -12.4225   26.0637 C   0  0  0  0  0  0  0  0  0  0  0  0
    8.9193  -16.2164   25.1895 C   0  0  0  0  0  0  0  0  0  0  0  0
    8.1549  -17.2113   25.1361 O   0  0  0  0  0  0  0  0  0  0  0  0
   14.0747  -17.2190   25.7599 C   0  0  0  0  0  0  0  0  0  0  0  0
   12.5522  -17.3168   25.6852 C   0  0  0  0  0  0  0  0  0  0  0  0
   11.9286  -17.1433   27.0334 C   0  0  2  0  0  0  0  0  0  0  0  0
   12.5279  -18.1688   27.9902 C   0  0  0  0  0  0  0  0  0  0  0  0
   10.4380  -17.0818   27.0935 C   0  0  2  0  0  0  0  0  0  0  0  0
    9.9142  -16.1349   26.1396 N   0  0  0  0  0  0  0  0  0  0  0  0
    9.9286  -17.0317   28.4602 C   0  0  0  0  0  0  0  0  0  0  0  0
    9.5976  -15.7170   28.9067 O   0  0  0  0  0  0  0  0  0  0  0  0
    9.7301  -17.9013   29.3142 O   0  0  0  0  0  0  0  0  0  0  0  0
  2  1  1  1
  3  2  1  0
  4  3  1  0
  5  4  2  0
  6  5  1  0
  7  6  1  0
  7 12  2  0
  8  7  1  0
  9  8  2  0
  9 10  1  0
 10 11  2  0
 11 12  1  0
 12  4  1  0
 13 14  2  0
 13  2  1  0
 15 13  1  0
 16 15  1  0
 17 18  1  0
 16 17  1  6
 18 23  1  0
 19 18  2  0
 19 20  1  0
 20 21  2  0
 21 22  1  0
 23 22  2  0
 24 16  1  0
 25 24  2  0
 26 27  1  0
 27 28  1  0
 28 29  1  1
 28 30  1  0
 30 31  1  6
 30 32  1  0
 31 24  1  0
 32 33  1  0
 34 32  2  0
M  END
$$$$
