WFI.pdb
     RDKit          3D

 34 36  0  0  1  0  0  0  0  0999 V2000
   11.4964  -17.1176   20.5128 N   0  0  0  0  0  0  0  0  0  0  0  0
   10.2465  -16.4397   20.6349 C   0  0  1  0  0  0  0  0  0  0  0  0
    9.0613  -17.1510   20.0448 C   0  0  0  0  0  0  0  0  0  0  0  0
    8.4945  -16.3721   18.9451 C   0  0  0  0  0  0  0  0  0  0  0  0
    8.1819  -16.9014   17.7132 C   0  0  0  0  0  0  0  0  0  0  0  0
    7.6575  -15.9081   16.9891 N   0  0  0  0  0  0  0  0  0  0  0  0
    7.6187  -14.7707   17.6955 C   0  0  0  0  0  0  0  0  0  0  0  0
    7.1779  -13.4853   17.3864 C   0  0  0  0  0  0  0  0  0  0  0  0
    7.2848  -12.4928   18.3592 C   0  0  0  0  0  0  0  0  0  0  0  0
    7.8120  -12.7853   19.5874 C   0  0  0  0  0  0  0  0  0  0  0  0
    8.2485  -14.0345   19.9092 C   0  0  0  0  0  0  0  0  0  0  0  0
    8.1496  -15.0447   18.9474 C   0  0  0  0  0  0  0  0  0  0  0  0
    9.9696  -16.2351   22.1015 C   0  0  0  0  0  0  0  0  0  0  0  0
   10.8220  -16.5727   22.9772 O   0  0  0  0  0  0  0  0  0  0  0  0
    8.7468  -15.6574   22.5286 N   0  0  0  0  0  0  0  0  0  0  0  0
    8.5725  -15.1186   23.8525 C   0  0  1  0  0  0  0  0  0  0  0  0
    7.3783  -14.2544   23.9968 C   0  0  0  0  0  0  0  0  0  0  0  0
    7.1154  -13.7125   25.3338 C   0  0  0  0  0  0  0  0  0  0  0  0
    6.2655  -14.2347   26.2688 C   0  0  0  0  0  0  0  0  0  0  0  0
    6.0203  -13.6923   27.5100 C   0  0  0  0  0  0  0  0  0  0  0  0
    6.6647  -12.5253   27.8774 C   0  0  0  0  0  0  0  0  0  0  0  0
    7.5290  -11.9670   26.9674 C   0  0  0  0  0  0  0  0  0  0  0  0
    7.7658  -12.5203   25.7293 C   0  0  0  0  0  0  0  0  0  0  0  0
    8.6409  -16.2383   24.8592 C   0  0  0  0  0  0  0  0  0  0  0  0
    8.0352  -17.3148   24.6328 O   0  0  0  0  0  0  0  0  0  0  0  0
   11.0129  -14.5601   29.8878 C   0  0  0  0  0  0  0  0  0  0  0  0
    9.9631  -15.1948   28.9779 C   0  0  0  0  0  0  0  0  0  0  0  0
   10.5619  -16.2606   28.1163 C   0  0  2  0  0  0  0  0  0  0  0  0
   11.8460  -15.7260   27.4907 C   0  0  0  0  0  0  0  0  0  0  0  0
    9.6605  -16.9292   27.1316 C   0  0  2  0  0  0  0  0  0  0  0  0
    9.3700  -16.0627   26.0154 N   0  0  0  0  0  0  0  0  0  0  0  0
    8.5467  -17.6262   27.7668 C   0  0  0  0  0  0  0  0  0  0  0  0
    8.9472  -18.6741   28.6492 O   0  0  0  0  0  0  0  0  0  0  0  0
    7.3212  -17.4945   27.6904 O   0  0  0  0  0  0  0  0  0  0  0  0
  2  1  1  1
  3  2  1  0
  4  3  1  0
  5  4  2  0
  6  5  1  0
  7  6  1  0
  7 12  2  0
  8  7  1  0
  9  8  2  0
  9 10  1  0
 10 11  2  0
 11 12  1  0
 12  4  1  0
 13 14  2  0
 13  2  1  0
 15 13  1  0
 16 15  1  0
 17 18  1  0
 16 17  1  6
 18 23  1  0
 19 18  2  0
 19 20  1  0
 20 21  2  0
 21 22  1  0
 23 22  2  0
 24 16  1  0
 25 24  2  0
 26 27  1  0
 27 28  1  0
 28 29  1  6
 28 30  1  0
 30 31  1  6
 30 32  1  0
 31 24  1  0
 32 33  1  0
 34 32  2  0
M  END
$$$$
