NLR.pdb
     RDKit          3D

 28 27  0  0  1  0  0  0  0  0999 V2000
   27.8540  -24.9023  -19.5491 N   0  0  0  0  0  0  0  0  0  0  0  0
   26.4833  -25.0804  -19.2775 C   0  0  0  0  0  0  0  0  0  0  0  0
   25.7633  -25.7487  -20.0712 O   0  0  0  0  0  0  0  0  0  0  0  0
   25.8417  -24.5022  -18.0726 C   0  0  0  0  0  0  0  0  0  0  0  0
   26.8386  -23.7653  -17.2191 C   0  0  2  0  0  0  0  0  0  0  0  0
   27.6546  -24.7135  -16.5131 N   0  0  0  0  0  0  0  0  0  0  0  0
   26.1354  -22.9221  -16.2294 C   0  0  0  0  0  0  0  0  0  0  0  0
   25.6143  -23.4007  -15.1728 O   0  0  0  0  0  0  0  0  0  0  0  0
   27.5571  -19.4760  -13.7646 C   0  0  0  0  0  0  0  0  0  0  0  0
   27.3439  -19.1033  -15.2379 C   0  0  2  0  0  0  0  0  0  0  0  0
   27.9594  -17.7784  -15.4745 C   0  0  0  0  0  0  0  0  0  0  0  0
   25.8932  -19.2420  -15.5116 C   0  0  0  0  0  0  0  0  0  0  0  0
   25.3631  -20.6481  -15.4668 C   0  0  2  0  0  0  0  0  0  0  0  0
   26.0023  -21.5178  -16.4062 N   0  0  0  0  0  0  0  0  0  0  0  0
   23.8842  -20.6728  -15.5168 C   0  0  0  0  0  0  0  0  0  0  0  0
   23.3391  -20.5056  -16.6415 O   0  0  0  0  0  0  0  0  0  0  0  0
   18.4342  -24.1742   -9.9902 N   0  0  0  0  0  0  0  0  0  0  0  0
   19.2772  -24.5994  -11.0711 C   0  0  0  0  0  0  0  0  0  0  0  0
   19.7827  -25.7823  -11.1069 N   0  0  0  0  0  0  0  0  0  0  0  0
   19.5866  -23.7168  -12.1529 N   0  0  0  0  0  0  0  0  0  0  0  0
   19.0534  -22.3705  -12.1403 C   0  0  0  0  0  0  0  0  0  0  0  0
   19.5370  -21.6790  -13.4124 C   0  0  0  0  0  0  0  0  0  0  0  0
   21.0381  -21.6840  -13.3552 C   0  0  0  0  0  0  0  0  0  0  0  0
   21.5881  -20.9480  -14.5569 C   0  0  2  0  0  0  0  0  0  0  0  0
   23.0625  -20.8724  -14.3953 N   0  0  0  0  0  0  0  0  0  0  0  0
   21.1290  -19.5466  -14.6298 C   0  0  0  0  0  0  0  0  0  0  0  0
   20.0549  -19.1973  -15.2304 O   0  0  0  0  0  0  0  0  0  0  0  0
   21.8441  -18.5181  -14.0415 O   0  0  0  0  0  0  0  0  0  0  0  0
  1  2  1  0
  2  4  1  0
  3  2  2  0
  4  5  1  0
  5  6  1  1
  7  5  1  0
  8  7  2  0
 10  9  1  1
 10 12  1  0
 11 10  1  0
 13 12  1  6
 13 14  1  0
 14  7  1  0
 15 25  1  0
 15 13  1  0
 16 15  2  0
 18 17  1  0
 18 19  2  0
 20 18  1  0
 21 20  1  0
 22 21  1  0
 23 22  1  0
 24 23  1  1
 24 25  1  0
 26 28  1  0
 26 24  1  0
 27 26  2  0
M  END
$$$$
