NLR.pdb
     RDKit          3D

 28 27  0  0  1  0  0  0  0  0999 V2000
   29.4537  -20.8188  -17.8739 N   0  0  0  0  0  0  0  0  0  0  0  0
   29.2867  -22.1115  -17.3398 C   0  0  0  0  0  0  0  0  0  0  0  0
   29.9522  -23.0786  -17.8052 O   0  0  0  0  0  0  0  0  0  0  0  0
   28.3414  -22.3850  -16.2309 C   0  0  0  0  0  0  0  0  0  0  0  0
   27.6624  -21.1255  -15.7642 C   0  0  2  0  0  0  0  0  0  0  0  0
   28.6462  -20.2209  -15.2375 N   0  0  0  0  0  0  0  0  0  0  0  0
   26.6913  -21.4380  -14.6944 C   0  0  0  0  0  0  0  0  0  0  0  0
   25.6998  -22.2127  -14.8779 O   0  0  0  0  0  0  0  0  0  0  0  0
   25.8939  -19.8798   -8.7260 C   0  0  0  0  0  0  0  0  0  0  0  0
   25.3056  -20.6318   -9.9275 C   0  0  2  0  0  0  0  0  0  0  0  0
   24.9052  -21.9835   -9.4773 C   0  0  0  0  0  0  0  0  0  0  0  0
   26.3026  -20.5428  -11.0214 C   0  0  0  0  0  0  0  0  0  0  0  0
   25.8272  -21.0243  -12.3639 C   0  0  2  0  0  0  0  0  0  0  0  0
   26.8140  -20.8846  -13.3907 N   0  0  0  0  0  0  0  0  0  0  0  0
   24.5028  -20.4591  -12.7059 C   0  0  0  0  0  0  0  0  0  0  0  0
   24.4473  -19.2256  -12.9617 O   0  0  0  0  0  0  0  0  0  0  0  0
   17.3932  -22.1357  -15.5719 N   0  0  0  0  0  0  0  0  0  0  0  0
   17.4829  -20.9387  -16.3585 C   0  0  0  0  0  0  0  0  0  0  0  0
   16.4317  -20.3385  -16.7954 N   0  0  0  0  0  0  0  0  0  0  0  0
   18.7525  -20.3680  -16.6861 N   0  0  0  0  0  0  0  0  0  0  0  0
   19.9605  -21.0293  -16.2385 C   0  0  0  0  0  0  0  0  0  0  0  0
   20.3095  -20.4572  -14.8669 C   0  0  0  0  0  0  0  0  0  0  0  0
   21.6682  -20.9930  -14.5155 C   0  0  0  0  0  0  0  0  0  0  0  0
   22.0345  -20.5517  -13.1157 C   0  0  2  0  0  0  0  0  0  0  0  0
   23.3179  -21.2110  -12.7635 N   0  0  0  0  0  0  0  0  0  0  0  0
   21.0664  -21.0091  -12.0991 C   0  0  0  0  0  0  0  0  0  0  0  0
   21.1385  -22.1558  -11.5367 O   0  0  0  0  0  0  0  0  0  0  0  0
   20.0132  -20.2099  -11.6899 O   0  0  0  0  0  0  0  0  0  0  0  0
  1  2  1  0
  2  4  1  0
  3  2  2  0
  4  5  1  0
  5  6  1  1
  7  5  1  0
  8  7  2  0
 10  9  1  1
 10 12  1  0
 11 10  1  0
 13 12  1  1
 13 14  1  0
 14  7  1  0
 15 25  1  0
 15 13  1  0
 16 15  2  0
 18 17  1  0
 18 19  2  0
 20 18  1  0
 21 20  1  0
 22 21  1  0
 23 22  1  0
 24 23  1  6
 24 25  1  0
 26 28  1  0
 26 24  1  0
 27 26  2  0
M  END
$$$$
