NLR.pdb
     RDKit          3D

 28 27  0  0  1  0  0  0  0  0999 V2000
   18.8588  -21.2439  -12.8673 N   0  0  0  0  0  0  0  0  0  0  0  0
   19.2358  -19.9802  -12.3724 C   0  0  0  0  0  0  0  0  0  0  0  0
   18.3516  -19.1387  -12.0484 O   0  0  0  0  0  0  0  0  0  0  0  0
   20.6582  -19.5932  -12.2143 C   0  0  0  0  0  0  0  0  0  0  0  0
   21.5806  -20.6914  -12.6705 C   0  0  2  0  0  0  0  0  0  0  0  0
   21.3397  -21.8717  -11.8882 N   0  0  0  0  0  0  0  0  0  0  0  0
   22.9889  -20.2830  -12.4830 C   0  0  0  0  0  0  0  0  0  0  0  0
   23.4778  -19.2462  -13.0333 O   0  0  0  0  0  0  0  0  0  0  0  0
   25.0239  -18.9261   -9.1642 C   0  0  0  0  0  0  0  0  0  0  0  0
   24.9683  -20.4539   -9.0304 C   0  0  2  0  0  0  0  0  0  0  0  0
   25.3520  -20.8122   -7.6468 C   0  0  0  0  0  0  0  0  0  0  0  0
   25.7866  -21.0129  -10.1335 C   0  0  0  0  0  0  0  0  0  0  0  0
   25.2725  -20.7350  -11.5186 C   0  0  2  0  0  0  0  0  0  0  0  0
   23.8813  -21.0338  -11.6701 N   0  0  0  0  0  0  0  0  0  0  0  0
   26.1445  -21.3361  -12.5523 C   0  0  0  0  0  0  0  0  0  0  0  0
   26.6402  -22.4690  -12.3056 O   0  0  0  0  0  0  0  0  0  0  0  0
   24.6835  -25.4492  -18.3184 N   0  0  0  0  0  0  0  0  0  0  0  0
   25.2202  -25.7147  -17.0141 C   0  0  0  0  0  0  0  0  0  0  0  0
   25.8997  -26.7796  -16.7686 N   0  0  0  0  0  0  0  0  0  0  0  0
   25.0169  -24.7985  -15.9352 N   0  0  0  0  0  0  0  0  0  0  0  0
   24.1576  -23.6504  -16.1365 C   0  0  0  0  0  0  0  0  0  0  0  0
   25.0342  -22.4045  -16.0367 C   0  0  0  0  0  0  0  0  0  0  0  0
   26.1418  -22.7390  -15.0785 C   0  0  0  0  0  0  0  0  0  0  0  0
   27.0243  -21.5252  -14.8889 C   0  0  2  0  0  0  0  0  0  0  0  0
   26.4458  -20.7240  -13.7801 N   0  0  0  0  0  0  0  0  0  0  0  0
   27.0251  -20.6285  -16.0619 C   0  0  0  0  0  0  0  0  0  0  0  0
   26.1263  -19.7396  -16.2581 O   0  0  0  0  0  0  0  0  0  0  0  0
   28.0141  -20.6990  -17.0273 O   0  0  0  0  0  0  0  0  0  0  0  0
  1  2  1  0
  2  4  1  0
  3  2  2  0
  4  5  1  0
  5  6  1  1
  7  5  1  0
  8  7  2  0
 10  9  1  1
 10 12  1  0
 11 10  1  0
 13 12  1  1
 13 14  1  0
 14  7  1  0
 15 25  1  0
 15 13  1  0
 16 15  2  0
 18 17  1  0
 18 19  2  0
 20 18  1  0
 21 20  1  0
 22 21  1  0
 23 22  1  0
 24 23  1  6
 24 25  1  0
 26 28  1  0
 26 24  1  0
 27 26  2  0
M  END
$$$$
