NLR.pdb
     RDKit          3D

 28 27  0  0  1  0  0  0  0  0999 V2000
   24.8948  -18.4341  -18.5433 N   0  0  0  0  0  0  0  0  0  0  0  0
   25.9189  -18.9012  -17.6964 C   0  0  0  0  0  0  0  0  0  0  0  0
   27.1291  -18.7338  -18.0161 O   0  0  0  0  0  0  0  0  0  0  0  0
   25.6244  -19.5950  -16.4198 C   0  0  0  0  0  0  0  0  0  0  0  0
   24.1434  -19.7740  -16.2204 C   0  0  2  0  0  0  0  0  0  0  0  0
   23.5554  -18.5141  -15.8594 N   0  0  0  0  0  0  0  0  0  0  0  0
   23.8903  -20.7398  -15.1304 C   0  0  0  0  0  0  0  0  0  0  0  0
   24.2662  -21.9530  -15.1927 O   0  0  0  0  0  0  0  0  0  0  0  0
   25.6311  -22.1626  -11.9020 C   0  0  0  0  0  0  0  0  0  0  0  0
   25.1165  -20.7385  -11.6527 C   0  0  2  0  0  0  0  0  0  0  0  0
   25.8296  -20.1869  -10.4791 C   0  0  0  0  0  0  0  0  0  0  0  0
   23.6380  -20.8219  -11.5774 C   0  0  0  0  0  0  0  0  0  0  0  0
   22.9535  -21.2464  -12.8468 C   0  0  2  0  0  0  0  0  0  0  0  0
   23.2068  -20.3618  -13.9426 N   0  0  0  0  0  0  0  0  0  0  0  0
   21.5220  -21.5449  -12.6184 C   0  0  0  0  0  0  0  0  0  0  0  0
   20.7853  -20.5950  -12.2374 O   0  0  0  0  0  0  0  0  0  0  0  0
   17.1203  -24.7594   -6.4667 N   0  0  0  0  0  0  0  0  0  0  0  0
   17.3153  -25.7390   -7.4973 C   0  0  0  0  0  0  0  0  0  0  0  0
   16.7456  -26.8919   -7.4483 N   0  0  0  0  0  0  0  0  0  0  0  0
   18.1553  -25.4655   -8.6218 N   0  0  0  0  0  0  0  0  0  0  0  0
   18.8185  -24.1814   -8.7119 C   0  0  0  0  0  0  0  0  0  0  0  0
   18.4858  -23.5940  -10.0811 C   0  0  0  0  0  0  0  0  0  0  0  0
   19.7966  -23.2267  -10.7165 C   0  0  0  0  0  0  0  0  0  0  0  0
   19.6140  -23.1149  -12.2139 C   0  0  2  0  0  0  0  0  0  0  0  0
   20.9435  -22.8114  -12.8023 N   0  0  0  0  0  0  0  0  0  0  0  0
   18.7459  -21.9856  -12.6025 C   0  0  0  0  0  0  0  0  0  0  0  0
   19.1055  -20.7628  -12.4936 O   0  0  0  0  0  0  0  0  0  0  0  0
   17.4772  -22.1901  -13.1161 O   0  0  0  0  0  0  0  0  0  0  0  0
  1  2  1  0
  2  4  1  0
  3  2  2  0
  4  5  1  0
  5  6  1  1
  7  5  1  0
  8  7  2  0
 10  9  1  1
 10 12  1  0
 11 10  1  0
 13 12  1  1
 13 14  1  0
 14  7  1  0
 15 25  1  0
 15 13  1  0
 16 15  2  0
 18 17  1  0
 18 19  2  0
 20 18  1  0
 21 20  1  0
 22 21  1  0
 23 22  1  0
 24 23  1  1
 24 25  1  0
 26 28  1  0
 26 24  1  0
 27 26  2  0
M  END
$$$$
