NLR.pdb
     RDKit          3D

 28 27  0  0  1  0  0  0  0  0999 V2000
   18.4346  -25.9522   -4.7215 N   0  0  0  0  0  0  0  0  0  0  0  0
   17.3123  -26.0546   -3.8763 C   0  0  0  0  0  0  0  0  0  0  0  0
   16.1559  -25.8290   -4.3311 O   0  0  0  0  0  0  0  0  0  0  0  0
   17.4395  -26.4241   -2.4463 C   0  0  0  0  0  0  0  0  0  0  0  0
   18.8744  -26.6783   -2.0698 C   0  0  2  0  0  0  0  0  0  0  0  0
   19.2935  -27.9398   -2.6141 N   0  0  0  0  0  0  0  0  0  0  0  0
   19.0121  -26.7324   -0.5990 C   0  0  0  0  0  0  0  0  0  0  0  0
   18.8126  -27.7976    0.0663 O   0  0  0  0  0  0  0  0  0  0  0  0
   22.4775  -26.2926    1.8384 C   0  0  0  0  0  0  0  0  0  0  0  0
   21.9746  -24.9200    1.3713 C   0  0  2  0  0  0  0  0  0  0  0  0
   23.0459  -23.9277    1.6113 C   0  0  0  0  0  0  0  0  0  0  0  0
   20.6689  -24.6908    2.0357 C   0  0  0  0  0  0  0  0  0  0  0  0
   19.5505  -25.5856    1.5791 C   0  0  2  0  0  0  0  0  0  0  0  0
   19.3783  -25.5866    0.1586 N   0  0  0  0  0  0  0  0  0  0  0  0
   18.3094  -25.3386    2.3466 C   0  0  0  0  0  0  0  0  0  0  0  0
   17.5242  -24.4537    1.9102 O   0  0  0  0  0  0  0  0  0  0  0  0
   12.0228  -30.1716    4.6112 N   0  0  0  0  0  0  0  0  0  0  0  0
   11.6690  -28.8197    4.9380 C   0  0  0  0  0  0  0  0  0  0  0  0
   10.5390  -28.5312    5.4820 N   0  0  0  0  0  0  0  0  0  0  0  0
   12.5662  -27.7394    4.6683 N   0  0  0  0  0  0  0  0  0  0  0  0
   13.6970  -27.9629    3.7917 C   0  0  0  0  0  0  0  0  0  0  0  0
   14.4844  -26.6567    3.7247 C   0  0  0  0  0  0  0  0  0  0  0  0
   15.8556  -26.9586    4.2588 C   0  0  0  0  0  0  0  0  0  0  0  0
   16.6947  -25.7005    4.2257 C   0  0  2  0  0  0  0  0  0  0  0  0
   17.9593  -26.0281    3.5191 N   0  0  0  0  0  0  0  0  0  0  0  0
   17.1026  -25.2483    5.5708 C   0  0  0  0  0  0  0  0  0  0  0  0
   18.2955  -25.3753    6.0148 O   0  0  0  0  0  0  0  0  0  0  0  0
   16.2046  -24.6507    6.4377 O   0  0  0  0  0  0  0  0  0  0  0  0
  1  2  1  0
  2  4  1  0
  3  2  2  0
  4  5  1  0
  5  6  1  6
  7  5  1  0
  8  7  2  0
 10  9  1  1
 10 12  1  0
 11 10  1  0
 13 12  1  6
 13 14  1  0
 14  7  1  0
 15 25  1  0
 15 13  1  0
 16 15  2  0
 18 17  1  0
 18 19  2  0
 20 18  1  0
 21 20  1  0
 22 21  1  0
 23 22  1  0
 24 23  1  1
 24 25  1  0
 26 28  1  0
 26 24  1  0
 27 26  2  0
M  END
$$$$
