NLR.pdb
     RDKit          3D

 28 27  0  0  1  0  0  0  0  0999 V2000
   29.1703  -21.8851  -20.0762 N   0  0  0  0  0  0  0  0  0  0  0  0
   27.8917  -22.4347  -19.8586 C   0  0  0  0  0  0  0  0  0  0  0  0
   27.4342  -23.3044  -20.6518 O   0  0  0  0  0  0  0  0  0  0  0  0
   27.0468  -22.0231  -18.7120 C   0  0  0  0  0  0  0  0  0  0  0  0
   27.6309  -20.8342  -17.9976 C   0  0  2  0  0  0  0  0  0  0  0  0
   28.8846  -21.2047  -17.4022 N   0  0  0  0  0  0  0  0  0  0  0  0
   26.7167  -20.3854  -16.9262 C   0  0  0  0  0  0  0  0  0  0  0  0
   26.5620  -21.0356  -15.8444 O   0  0  0  0  0  0  0  0  0  0  0  0
   26.6543  -16.6032  -14.6076 C   0  0  0  0  0  0  0  0  0  0  0  0
   26.0876  -16.3955  -16.0185 C   0  0  2  0  0  0  0  0  0  0  0  0
   25.9597  -14.9406  -16.2571 C   0  0  0  0  0  0  0  0  0  0  0  0
   24.8551  -17.2147  -16.1125 C   0  0  0  0  0  0  0  0  0  0  0  0
   25.0655  -18.7015  -16.0391 C   0  0  2  0  0  0  0  0  0  0  0  0
   25.9539  -19.1919  -17.0478 N   0  0  0  0  0  0  0  0  0  0  0  0
   23.7793  -19.4282  -15.9492 C   0  0  0  0  0  0  0  0  0  0  0  0
   23.0688  -19.4803  -16.9897 O   0  0  0  0  0  0  0  0  0  0  0  0
   20.9410  -26.8493  -13.4881 N   0  0  0  0  0  0  0  0  0  0  0  0
   19.7538  -26.1066  -13.1741 C   0  0  0  0  0  0  0  0  0  0  0  0
   18.6105  -26.6840  -13.0490 N   0  0  0  0  0  0  0  0  0  0  0  0
   19.8010  -24.6895  -12.9882 N   0  0  0  0  0  0  0  0  0  0  0  0
   21.0726  -24.0052  -13.0964 C   0  0  0  0  0  0  0  0  0  0  0  0
   20.8248  -22.7045  -13.8561 C   0  0  0  0  0  0  0  0  0  0  0  0
   22.1567  -22.0196  -13.9731 C   0  0  0  0  0  0  0  0  0  0  0  0
   22.0009  -20.7568  -14.7911 C   0  0  2  0  0  0  0  0  0  0  0  0
   23.3117  -20.0584  -14.7844 N   0  0  0  0  0  0  0  0  0  0  0  0
   21.0448  -19.8024  -14.1951 C   0  0  0  0  0  0  0  0  0  0  0  0
   21.3753  -18.9612  -13.2898 O   0  0  0  0  0  0  0  0  0  0  0  0
   19.7192  -19.7624  -14.5904 O   0  0  0  0  0  0  0  0  0  0  0  0
  1  2  1  0
  2  4  1  0
  3  2  2  0
  4  5  1  0
  5  6  1  1
  7  5  1  0
  8  7  2  0
 10  9  1  1
 10 12  1  0
 11 10  1  0
 13 12  1  6
 13 14  1  0
 14  7  1  0
 15 25  1  0
 15 13  1  0
 16 15  2  0
 18 17  1  0
 18 19  2  0
 20 18  1  0
 21 20  1  0
 22 21  1  0
 23 22  1  0
 24 23  1  1
 24 25  1  0
 26 28  1  0
 26 24  1  0
 27 26  2  0
M  END
$$$$
