NLR.pdb
     RDKit          3D

 28 27  0  0  1  0  0  0  0  0999 V2000
   20.0547  -21.8877   -5.5741 N   0  0  0  0  0  0  0  0  0  0  0  0
   20.2256  -21.6826   -6.9572 C   0  0  0  0  0  0  0  0  0  0  0  0
   19.4455  -22.2389   -7.7798 O   0  0  0  0  0  0  0  0  0  0  0  0
   21.3070  -20.8222   -7.4939 C   0  0  0  0  0  0  0  0  0  0  0  0
   22.4389  -21.6441   -8.0492 C   0  0  2  0  0  0  0  0  0  0  0  0
   22.9502  -22.5072   -7.0211 N   0  0  0  0  0  0  0  0  0  0  0  0
   23.5319  -20.7605   -8.5071 C   0  0  0  0  0  0  0  0  0  0  0  0
   23.3279  -19.7582   -9.2627 O   0  0  0  0  0  0  0  0  0  0  0  0
   26.9506  -18.1947   -6.9432 C   0  0  0  0  0  0  0  0  0  0  0  0
   27.0946  -19.6925   -6.6413 C   0  0  2  0  0  0  0  0  0  0  0  0
   28.1781  -19.8628   -5.6478 C   0  0  0  0  0  0  0  0  0  0  0  0
   27.2480  -20.3817   -7.9452 C   0  0  0  0  0  0  0  0  0  0  0  0
   26.0116  -20.4219   -8.7994 C   0  0  2  0  0  0  0  0  0  0  0  0
   24.8825  -20.9849   -8.1244 N   0  0  0  0  0  0  0  0  0  0  0  0
   26.2883  -21.0123  -10.1281 C   0  0  0  0  0  0  0  0  0  0  0  0
   26.4461  -22.2620  -10.1858 O   0  0  0  0  0  0  0  0  0  0  0  0
   21.3472  -19.9951  -16.6110 N   0  0  0  0  0  0  0  0  0  0  0  0
   21.5707  -21.4116  -16.5541 C   0  0  0  0  0  0  0  0  0  0  0  0
   21.0886  -22.2066  -17.4440 N   0  0  0  0  0  0  0  0  0  0  0  0
   22.3422  -21.9922  -15.4994 N   0  0  0  0  0  0  0  0  0  0  0  0
   22.7440  -21.1650  -14.3808 C   0  0  0  0  0  0  0  0  0  0  0  0
   24.2519  -21.3321  -14.2113 C   0  0  0  0  0  0  0  0  0  0  0  0
   24.5918  -20.7790  -12.8566 C   0  0  0  0  0  0  0  0  0  0  0  0
   26.0804  -20.9089  -12.6211 C   0  0  2  0  0  0  0  0  0  0  0  0
   26.3814  -20.2680  -11.3155 N   0  0  0  0  0  0  0  0  0  0  0  0
   26.8843  -20.1705  -13.6154 C   0  0  0  0  0  0  0  0  0  0  0  0
   27.1697  -18.9293  -13.4952 O   0  0  0  0  0  0  0  0  0  0  0  0
   27.3834  -20.7897  -14.7479 O   0  0  0  0  0  0  0  0  0  0  0  0
  1  2  1  0
  2  4  1  0
  3  2  2  0
  4  5  1  0
  5  6  1  1
  7  5  1  0
  8  7  2  0
 10  9  1  6
 10 12  1  0
 11 10  1  0
 13 12  1  1
 13 14  1  0
 14  7  1  0
 15 25  1  0
 15 13  1  0
 16 15  2  0
 18 17  1  0
 18 19  2  0
 20 18  1  0
 21 20  1  0
 22 21  1  0
 23 22  1  0
 24 23  1  6
 24 25  1  0
 26 28  1  0
 26 24  1  0
 27 26  2  0
M  END
$$$$
