NLR.pdb
     RDKit          3D

 28 27  0  0  1  0  0  0  0  0999 V2000
   18.0535  -32.4485   -7.5421 N   0  0  0  0  0  0  0  0  0  0  0  0
   16.9778  -31.5434   -7.4529 C   0  0  0  0  0  0  0  0  0  0  0  0
   16.2185  -31.3641   -8.4459 O   0  0  0  0  0  0  0  0  0  0  0  0
   16.6980  -30.7788   -6.2139 C   0  0  0  0  0  0  0  0  0  0  0  0
   16.8477  -29.2979   -6.4363 C   0  0  2  0  0  0  0  0  0  0  0  0
   18.2070  -29.0052   -6.7972 N   0  0  0  0  0  0  0  0  0  0  0  0
   16.5224  -28.5621   -5.1962 C   0  0  0  0  0  0  0  0  0  0  0  0
   15.3447  -28.5171   -4.7185 O   0  0  0  0  0  0  0  0  0  0  0  0
   17.8262  -29.0937   -1.2193 C   0  0  0  0  0  0  0  0  0  0  0  0
   18.9413  -28.3412   -1.9578 C   0  0  2  0  0  0  0  0  0  0  0  0
   20.1528  -28.3577   -1.1081 C   0  0  0  0  0  0  0  0  0  0  0  0
   18.3899  -27.0179   -2.3368 C   0  0  0  0  0  0  0  0  0  0  0  0
   17.2458  -27.0544   -3.3113 C   0  0  2  0  0  0  0  0  0  0  0  0
   17.5169  -27.8586   -4.4634 N   0  0  0  0  0  0  0  0  0  0  0  0
   16.7487  -25.6943   -3.6166 C   0  0  0  0  0  0  0  0  0  0  0  0
   17.5793  -24.8621   -4.0724 O   0  0  0  0  0  0  0  0  0  0  0  0
   12.8463  -21.8964   -9.5723 N   0  0  0  0  0  0  0  0  0  0  0  0
   12.5372  -20.9624   -8.5275 C   0  0  0  0  0  0  0  0  0  0  0  0
   11.9648  -19.8370   -8.7766 N   0  0  0  0  0  0  0  0  0  0  0  0
   12.8568  -21.2524   -7.1642 N   0  0  0  0  0  0  0  0  0  0  0  0
   13.5425  -22.4878   -6.8472 C   0  0  0  0  0  0  0  0  0  0  0  0
   13.7251  -22.5296   -5.3321 C   0  0  0  0  0  0  0  0  0  0  0  0
   14.1782  -23.9220   -4.9964 C   0  0  0  0  0  0  0  0  0  0  0  0
   15.0216  -23.8858   -3.7412 C   0  0  2  0  0  0  0  0  0  0  0  0
   15.4184  -25.2832   -3.4319 N   0  0  0  0  0  0  0  0  0  0  0  0
   14.2694  -23.4207   -2.5588 C   0  0  0  0  0  0  0  0  0  0  0  0
   13.9059  -22.2045   -2.4004 O   0  0  0  0  0  0  0  0  0  0  0  0
   13.9081  -24.2878   -1.5425 O   0  0  0  0  0  0  0  0  0  0  0  0
  1  2  1  0
  2  4  1  0
  3  2  2  0
  4  5  1  0
  5  6  1  1
  7  5  1  0
  8  7  2  0
 10  9  1  1
 10 12  1  0
 11 10  1  0
 13 12  1  6
 13 14  1  0
 14  7  1  0
 15 25  1  0
 15 13  1  0
 16 15  2  0
 18 17  1  0
 18 19  2  0
 20 18  1  0
 21 20  1  0
 22 21  1  0
 23 22  1  0
 24 23  1  6
 24 25  1  0
 26 28  1  0
 26 24  1  0
 27 26  2  0
M  END
$$$$
