NLR.pdb
     RDKit          3D

 28 27  0  0  1  0  0  0  0  0999 V2000
   30.3359  -20.8008  -17.7756 N   0  0  0  0  0  0  0  0  0  0  0  0
   29.0340  -20.3195  -18.0157 C   0  0  0  0  0  0  0  0  0  0  0  0
   28.8246  -19.5064  -18.9590 O   0  0  0  0  0  0  0  0  0  0  0  0
   27.8784  -20.7392  -17.1872 C   0  0  0  0  0  0  0  0  0  0  0  0
   28.2982  -21.6930  -16.1012 C   0  0  2  0  0  0  0  0  0  0  0  0
   28.5628  -22.9826  -16.6758 N   0  0  0  0  0  0  0  0  0  0  0  0
   27.2163  -21.8361  -15.1042 C   0  0  0  0  0  0  0  0  0  0  0  0
   26.2513  -22.6500  -15.2565 O   0  0  0  0  0  0  0  0  0  0  0  0
   25.9631  -19.5907   -9.4517 C   0  0  0  0  0  0  0  0  0  0  0  0
   25.4511  -20.4640  -10.6051 C   0  0  2  0  0  0  0  0  0  0  0  0
   24.9836  -21.7497  -10.0406 C   0  0  0  0  0  0  0  0  0  0  0  0
   26.5318  -20.5151  -11.6191 C   0  0  0  0  0  0  0  0  0  0  0  0
   26.1426  -21.1129  -12.9424 C   0  0  2  0  0  0  0  0  0  0  0  0
   27.1955  -21.0648  -13.9102 N   0  0  0  0  0  0  0  0  0  0  0  0
   24.8471  -20.5795  -13.4194 C   0  0  0  0  0  0  0  0  0  0  0  0
   24.8379  -19.4064  -13.8818 O   0  0  0  0  0  0  0  0  0  0  0  0
   22.4440  -19.9845  -18.8550 N   0  0  0  0  0  0  0  0  0  0  0  0
   21.0356  -20.1447  -19.0792 C   0  0  0  0  0  0  0  0  0  0  0  0
   20.4048  -19.4299  -19.9437 N   0  0  0  0  0  0  0  0  0  0  0  0
   20.2796  -21.1108  -18.3444 N   0  0  0  0  0  0  0  0  0  0  0  0
   20.9529  -21.9370  -17.3641 C   0  0  0  0  0  0  0  0  0  0  0  0
   21.0234  -21.1356  -16.0667 C   0  0  0  0  0  0  0  0  0  0  0  0
   22.2849  -21.5620  -15.3712 C   0  0  0  0  0  0  0  0  0  0  0  0
   22.4426  -20.7725  -14.0906 C   0  0  2  0  0  0  0  0  0  0  0  0
   23.6411  -21.2988  -13.3888 N   0  0  0  0  0  0  0  0  0  0  0  0
   21.3198  -20.9716  -13.1528 C   0  0  0  0  0  0  0  0  0  0  0  0
   21.3305  -21.8622  -12.2346 O   0  0  0  0  0  0  0  0  0  0  0  0
   20.1776  -20.1926  -13.2140 O   0  0  0  0  0  0  0  0  0  0  0  0
  1  2  1  0
  2  4  1  0
  3  2  2  0
  4  5  1  0
  5  6  1  6
  7  5  1  0
  8  7  2  0
 10  9  1  1
 10 12  1  0
 11 10  1  0
 13 12  1  1
 13 14  1  0
 14  7  1  0
 15 25  1  0
 15 13  1  0
 16 15  2  0
 18 17  1  0
 18 19  2  0
 20 18  1  0
 21 20  1  0
 22 21  1  0
 23 22  1  0
 24 23  1  6
 24 25  1  0
 26 28  1  0
 26 24  1  0
 27 26  2  0
M  END
$$$$
