NLR.pdb
     RDKit          3D

 28 27  0  0  1  0  0  0  0  0999 V2000
   29.6046  -20.0280  -16.8465 N   0  0  0  0  0  0  0  0  0  0  0  0
   28.2949  -19.5099  -16.8220 C   0  0  0  0  0  0  0  0  0  0  0  0
   27.9627  -18.5931  -17.6245 O   0  0  0  0  0  0  0  0  0  0  0  0
   27.2724  -20.0096  -15.8719 C   0  0  0  0  0  0  0  0  0  0  0  0
   27.8307  -21.0844  -14.9786 C   0  0  2  0  0  0  0  0  0  0  0  0
   28.0566  -22.2751  -15.7497 N   0  0  0  0  0  0  0  0  0  0  0  0
   26.8701  -21.3987  -13.8999 C   0  0  0  0  0  0  0  0  0  0  0  0
   25.8210  -22.0888  -14.1001 O   0  0  0  0  0  0  0  0  0  0  0  0
   26.1933  -19.7376   -7.9474 C   0  0  0  0  0  0  0  0  0  0  0  0
   25.5560  -20.4792   -9.1302 C   0  0  2  0  0  0  0  0  0  0  0  0
   25.0223  -21.7679   -8.6358 C   0  0  0  0  0  0  0  0  0  0  0  0
   26.5745  -20.5287  -10.2067 C   0  0  0  0  0  0  0  0  0  0  0  0
   26.0771  -21.0165  -11.5389 C   0  0  2  0  0  0  0  0  0  0  0  0
   27.0684  -20.9425  -12.5682 N   0  0  0  0  0  0  0  0  0  0  0  0
   24.7790  -20.4001  -11.8929 C   0  0  0  0  0  0  0  0  0  0  0  0
   24.7829  -19.1778  -12.2031 O   0  0  0  0  0  0  0  0  0  0  0  0
   17.8917  -19.6765  -15.9004 N   0  0  0  0  0  0  0  0  0  0  0  0
   18.8381  -20.1893  -16.8497 C   0  0  0  0  0  0  0  0  0  0  0  0
   18.7291  -19.9467  -18.1089 N   0  0  0  0  0  0  0  0  0  0  0  0
   19.9423  -20.9931  -16.4260 N   0  0  0  0  0  0  0  0  0  0  0  0
   20.0537  -21.3597  -15.0295 C   0  0  0  0  0  0  0  0  0  0  0  0
   20.8235  -20.2438  -14.3274 C   0  0  0  0  0  0  0  0  0  0  0  0
   22.0934  -20.8606  -13.8140 C   0  0  0  0  0  0  0  0  0  0  0  0
   22.3243  -20.4175  -12.3862 C   0  0  2  0  0  0  0  0  0  0  0  0
   23.5570  -21.0923  -11.9054 N   0  0  0  0  0  0  0  0  0  0  0  0
   21.2534  -20.8570  -11.4696 C   0  0  0  0  0  0  0  0  0  0  0  0
   21.4132  -21.7921  -10.6115 O   0  0  0  0  0  0  0  0  0  0  0  0
   19.9997  -20.2713  -11.4862 O   0  0  0  0  0  0  0  0  0  0  0  0
  1  2  1  0
  2  4  1  0
  3  2  2  0
  4  5  1  0
  5  6  1  6
  7  5  1  0
  8  7  2  0
 10  9  1  1
 10 12  1  0
 11 10  1  0
 13 12  1  1
 13 14  1  0
 14  7  1  0
 15 25  1  0
 15 13  1  0
 16 15  2  0
 18 17  1  0
 18 19  2  0
 20 18  1  0
 21 20  1  0
 22 21  1  0
 23 22  1  0
 24 23  1  6
 24 25  1  0
 26 28  1  0
 26 24  1  0
 27 26  2  0
M  END
$$$$
