NLR.pdb
     RDKit          3D

 28 27  0  0  1  0  0  0  0  0999 V2000
   29.4077  -20.2122  -17.0859 N   0  0  0  0  0  0  0  0  0  0  0  0
   28.0850  -19.9092  -17.4640 C   0  0  0  0  0  0  0  0  0  0  0  0
   27.8667  -19.1882  -18.4776 O   0  0  0  0  0  0  0  0  0  0  0  0
   26.9174  -20.4141  -16.7028 C   0  0  0  0  0  0  0  0  0  0  0  0
   27.3477  -21.2068  -15.4980 C   0  0  2  0  0  0  0  0  0  0  0  0
   27.9162  -22.4544  -15.9267 N   0  0  0  0  0  0  0  0  0  0  0  0
   26.1821  -21.4937  -14.6354 C   0  0  0  0  0  0  0  0  0  0  0  0
   25.4289  -22.5017  -14.8189 O   0  0  0  0  0  0  0  0  0  0  0  0
   25.9053  -21.9670  -10.2232 C   0  0  0  0  0  0  0  0  0  0  0  0
   26.0041  -20.4718  -10.5541 C   0  0  2  0  0  0  0  0  0  0  0  0
   26.1890  -19.7282   -9.2880 C   0  0  0  0  0  0  0  0  0  0  0  0
   24.8188  -20.1340  -11.3785 C   0  0  0  0  0  0  0  0  0  0  0  0
   24.7139  -20.8714  -12.6843 C   0  0  2  0  0  0  0  0  0  0  0  0
   25.8364  -20.6510  -13.5439 N   0  0  0  0  0  0  0  0  0  0  0  0
   23.3983  -20.6543  -13.3266 C   0  0  0  0  0  0  0  0  0  0  0  0
   23.2093  -19.5480  -13.9016 O   0  0  0  0  0  0  0  0  0  0  0  0
   18.5961  -24.5719  -18.2145 N   0  0  0  0  0  0  0  0  0  0  0  0
   19.4081  -25.1440  -17.1786 C   0  0  0  0  0  0  0  0  0  0  0  0
   19.9858  -26.2843  -17.3269 N   0  0  0  0  0  0  0  0  0  0  0  0
   19.6043  -24.4616  -15.9373 N   0  0  0  0  0  0  0  0  0  0  0  0
   18.5125  -23.6965  -15.3720 C   0  0  0  0  0  0  0  0  0  0  0  0
   19.0734  -22.3350  -14.9690 C   0  0  0  0  0  0  0  0  0  0  0  0
   20.4750  -22.5781  -14.4862 C   0  0  0  0  0  0  0  0  0  0  0  0
   21.0642  -21.2790  -13.9829 C   0  0  2  0  0  0  0  0  0  0  0  0
   22.3609  -21.6010  -13.3342 N   0  0  0  0  0  0  0  0  0  0  0  0
   20.2444  -20.6483  -12.9294 C   0  0  0  0  0  0  0  0  0  0  0  0
   20.4422  -20.8482  -11.6815 O   0  0  0  0  0  0  0  0  0  0  0  0
   19.2027  -19.7909  -13.2376 O   0  0  0  0  0  0  0  0  0  0  0  0
  1  2  1  0
  2  4  1  0
  3  2  2  0
  4  5  1  0
  5  6  1  6
  7  5  1  0
  8  7  2  0
 10  9  1  1
 10 12  1  0
 11 10  1  0
 13 12  1  1
 13 14  1  0
 14  7  1  0
 15 25  1  0
 15 13  1  0
 16 15  2  0
 18 17  1  0
 18 19  2  0
 20 18  1  0
 21 20  1  0
 22 21  1  0
 23 22  1  0
 24 23  1  1
 24 25  1  0
 26 28  1  0
 26 24  1  0
 27 26  2  0
M  END
$$$$
