NLR.pdb
     RDKit          3D

 28 27  0  0  1  0  0  0  0  0999 V2000
   29.7528  -19.2145  -17.3295 N   0  0  0  0  0  0  0  0  0  0  0  0
   28.3992  -18.8288  -17.2715 C   0  0  0  0  0  0  0  0  0  0  0  0
   27.9837  -17.8716  -17.9827 O   0  0  0  0  0  0  0  0  0  0  0  0
   27.4255  -19.5170  -16.3905 C   0  0  0  0  0  0  0  0  0  0  0  0
   28.0925  -20.5778  -15.5569 C   0  0  2  0  0  0  0  0  0  0  0  0
   28.4878  -21.6697  -16.4024 N   0  0  0  0  0  0  0  0  0  0  0  0
   27.1520  -21.0896  -14.5377 C   0  0  0  0  0  0  0  0  0  0  0  0
   26.4150  -22.1061  -14.7387 O   0  0  0  0  0  0  0  0  0  0  0  0
   24.3486  -20.4737   -9.9216 C   0  0  0  0  0  0  0  0  0  0  0  0
   25.7762  -21.0033   -9.7310 C   0  0  2  0  0  0  0  0  0  0  0  0
   26.2165  -20.6655   -8.3590 C   0  0  0  0  0  0  0  0  0  0  0  0
   26.5846  -20.4774  -10.8574 C   0  0  0  0  0  0  0  0  0  0  0  0
   26.1683  -20.9509  -12.2221 C   0  0  2  0  0  0  0  0  0  0  0  0
   27.0191  -20.4678  -13.2663 N   0  0  0  0  0  0  0  0  0  0  0  0
   24.7239  -20.7293  -12.4567 C   0  0  0  0  0  0  0  0  0  0  0  0
   24.3141  -19.5368  -12.4657 O   0  0  0  0  0  0  0  0  0  0  0  0
   17.8927  -25.2047  -12.4953 N   0  0  0  0  0  0  0  0  0  0  0  0
   17.4061  -24.3236  -13.5184 C   0  0  0  0  0  0  0  0  0  0  0  0
   16.1494  -24.0874  -13.6631 N   0  0  0  0  0  0  0  0  0  0  0  0
   18.3075  -23.6736  -14.4183 N   0  0  0  0  0  0  0  0  0  0  0  0
   19.7334  -23.8542  -14.2423 C   0  0  0  0  0  0  0  0  0  0  0  0
   20.2986  -22.5318  -13.7301 C   0  0  0  0  0  0  0  0  0  0  0  0
   21.7819  -22.7270  -13.5943 C   0  0  0  0  0  0  0  0  0  0  0  0
   22.4156  -21.4385  -13.1186 C   0  0  2  0  0  0  0  0  0  0  0  0
   23.7945  -21.7605  -12.6702 N   0  0  0  0  0  0  0  0  0  0  0  0
   21.7404  -20.8709  -11.9346 C   0  0  0  0  0  0  0  0  0  0  0  0
   20.9162  -19.8952  -12.0055 O   0  0  0  0  0  0  0  0  0  0  0  0
   21.9627  -21.3720  -10.6639 O   0  0  0  0  0  0  0  0  0  0  0  0
  1  2  1  0
  2  4  1  0
  3  2  2  0
  4  5  1  0
  5  6  1  6
  7  5  1  0
  8  7  2  0
 10  9  1  6
 10 12  1  0
 11 10  1  0
 13 12  1  1
 13 14  1  0
 14  7  1  0
 15 25  1  0
 15 13  1  0
 16 15  2  0
 18 17  1  0
 18 19  2  0
 20 18  1  0
 21 20  1  0
 22 21  1  0
 23 22  1  0
 24 23  1  1
 24 25  1  0
 26 28  1  0
 26 24  1  0
 27 26  2  0
M  END
$$$$
