QQV.pdb
     RDKit          3D

 26 25  0  0  1  0  0  0  0  0999 V2000
    6.9723  -12.6756   17.4078 N   0  0  0  0  0  0  0  0  0  0  0  0
    7.7481  -13.7435   16.8398 C   0  0  0  0  0  0  0  0  0  0  0  0
    7.8580  -13.7556   15.5952 O   0  0  0  0  0  0  0  0  0  0  0  0
    8.3424  -14.7266   17.7655 C   0  0  0  0  0  0  0  0  0  0  0  0
    7.9545  -14.5110   19.1918 C   0  0  0  0  0  0  0  0  0  0  0  0
    9.1041  -14.8711   20.0861 C   0  0  2  0  0  0  0  0  0  0  0  0
    9.6569  -16.1268   19.5810 N   0  0  0  0  0  0  0  0  0  0  0  0
    8.6215  -15.1337   21.4845 C   0  0  0  0  0  0  0  0  0  0  0  0
    7.6898  -14.4719   21.9638 O   0  0  0  0  0  0  0  0  0  0  0  0
   10.8372  -19.8822   24.1597 N   0  0  0  0  0  0  0  0  0  0  0  0
    9.6472  -20.0995   23.4490 C   0  0  0  0  0  0  0  0  0  0  0  0
    9.3825  -21.1900   22.9422 O   0  0  0  0  0  0  0  0  0  0  0  0
    8.6738  -18.9735   23.3025 C   0  0  0  0  0  0  0  0  0  0  0  0
    9.1950  -17.7493   23.9970 C   0  0  0  0  0  0  0  0  0  0  0  0
    8.5903  -16.4600   23.5832 C   0  0  2  0  0  0  0  0  0  0  0  0
    9.2190  -16.1367   22.2806 N   0  0  0  0  0  0  0  0  0  0  0  0
    8.9969  -15.3371   24.4849 C   0  0  0  0  0  0  0  0  0  0  0  0
   10.1984  -14.9549   24.5417 O   0  0  0  0  0  0  0  0  0  0  0  0
    6.1092  -13.1235   26.6847 C   0  0  0  0  0  0  0  0  0  0  0  0
    7.4650  -12.5524   26.3304 C   0  0  2  0  0  0  0  0  0  0  0  0
    7.4035  -11.8969   24.9485 C   0  0  0  0  0  0  0  0  0  0  0  0
    8.5060  -13.6805   26.2880 C   0  0  2  0  0  0  0  0  0  0  0  0
    8.0557  -14.6634   25.2955 N   0  0  0  0  0  0  0  0  0  0  0  0
    8.6432  -14.2662   27.6360 C   0  0  0  0  0  0  0  0  0  0  0  0
    8.1455  -15.3892   27.8636 O   0  0  0  0  0  0  0  0  0  0  0  0
    9.3064  -13.5946   28.6321 O   0  0  0  0  0  0  0  0  0  0  0  0
  1  2  1  0
  2  4  1  0
  2  3  2  0
  4  5  1  0
  5  6  1  0
  6  7  1  6
  6  8  1  0
  8  9  2  0
 11 12  2  0
 11 10  1  0
 13 11  1  0
 15 14  1  1
 14 13  1  0
 15 17  1  0
 16  8  1  0
 16 15  1  0
 17 18  2  0
 20 19  1  6
 20 22  1  0
 21 20  1  0
 22 24  1  0
 22 23  1  6
 23 17  1  0
 24 26  1  0
 25 24  2  0
M  END
$$$$
