QQV.pdb
     RDKit          3D

 26 25  0  0  1  0  0  0  0  0999 V2000
    6.7318  -21.6416   24.9684 N   0  0  0  0  0  0  0  0  0  0  0  0
    5.4392  -21.0351   25.1308 C   0  0  0  0  0  0  0  0  0  0  0  0
    4.5021  -21.7930   25.4604 O   0  0  0  0  0  0  0  0  0  0  0  0
    5.3289  -19.5828   24.8956 C   0  0  0  0  0  0  0  0  0  0  0  0
    6.6041  -18.9562   24.4344 C   0  0  0  0  0  0  0  0  0  0  0  0
    6.4494  -18.4832   23.0191 C   0  0  2  0  0  0  0  0  0  0  0  0
    6.8030  -19.6083   22.1551 N   0  0  0  0  0  0  0  0  0  0  0  0
    7.4236  -17.3782   22.7234 C   0  0  0  0  0  0  0  0  0  0  0  0
    8.6434  -17.5968   22.7256 O   0  0  0  0  0  0  0  0  0  0  0  0
    6.9703  -13.3342   18.5988 N   0  0  0  0  0  0  0  0  0  0  0  0
    8.0046  -12.6780   19.2828 C   0  0  0  0  0  0  0  0  0  0  0  0
    8.7576  -11.8849   18.7169 O   0  0  0  0  0  0  0  0  0  0  0  0
    8.1979  -12.9512   20.7405 C   0  0  0  0  0  0  0  0  0  0  0  0
    7.3789  -14.1389   21.1543 C   0  0  0  0  0  0  0  0  0  0  0  0
    7.9857  -15.0217   22.1799 C   0  0  2  0  0  0  0  0  0  0  0  0
    6.9708  -16.0702   22.4390 N   0  0  0  0  0  0  0  0  0  0  0  0
    8.1474  -14.3234   23.4934 C   0  0  0  0  0  0  0  0  0  0  0  0
    8.1172  -13.0637   23.5650 O   0  0  0  0  0  0  0  0  0  0  0  0
    6.2897  -14.0326   26.4915 C   0  0  0  0  0  0  0  0  0  0  0  0
    7.5943  -13.3141   26.2243 C   0  0  2  0  0  0  0  0  0  0  0  0
    7.4406  -12.4022   25.0044 C   0  0  0  0  0  0  0  0  0  0  0  0
    8.6983  -14.3397   25.9291 C   0  0  2  0  0  0  0  0  0  0  0  0
    8.3318  -15.0441   24.6948 N   0  0  0  0  0  0  0  0  0  0  0  0
    8.8316  -15.2551   27.0795 C   0  0  0  0  0  0  0  0  0  0  0  0
    9.2004  -14.7960   28.1812 O   0  0  0  0  0  0  0  0  0  0  0  0
    8.5565  -16.5934   26.9509 O   0  0  0  0  0  0  0  0  0  0  0  0
  1  2  1  0
  2  4  1  0
  2  3  2  0
  4  5  1  0
  5  6  1  0
  6  7  1  6
  6  8  1  0
  8  9  2  0
 11 12  2  0
 11 10  1  0
 13 11  1  0
 15 14  1  6
 14 13  1  0
 15 17  1  0
 16  8  1  0
 16 15  1  0
 17 18  2  0
 20 19  1  6
 20 22  1  0
 21 20  1  0
 22 24  1  0
 22 23  1  6
 23 17  1  0
 24 26  1  0
 25 24  2  0
M  END
$$$$
