QQV.pdb
     RDKit          3D

 26 25  0  0  1  0  0  0  0  0999 V2000
   10.4316  -13.6593   20.4586 N   0  0  0  0  0  0  0  0  0  0  0  0
   10.0988  -13.3753   19.0899 C   0  0  0  0  0  0  0  0  0  0  0  0
   11.0536  -13.1472   18.3168 O   0  0  0  0  0  0  0  0  0  0  0  0
    8.6713  -13.3758   18.7171 C   0  0  0  0  0  0  0  0  0  0  0  0
    7.7614  -13.7307   19.8473 C   0  0  0  0  0  0  0  0  0  0  0  0
    7.7493  -15.2191   20.0353 C   0  0  2  0  0  0  0  0  0  0  0  0
    6.9358  -15.7762   18.9559 N   0  0  0  0  0  0  0  0  0  0  0  0
    7.0736  -15.5814   21.3275 C   0  0  0  0  0  0  0  0  0  0  0  0
    5.8725  -15.3311   21.5018 O   0  0  0  0  0  0  0  0  0  0  0  0
    8.1207  -20.2865   24.7605 N   0  0  0  0  0  0  0  0  0  0  0  0
    7.4822  -19.5526   25.7714 C   0  0  0  0  0  0  0  0  0  0  0  0
    7.2425  -20.0402   26.8764 O   0  0  0  0  0  0  0  0  0  0  0  0
    7.0806  -18.1381   25.4977 C   0  0  0  0  0  0  0  0  0  0  0  0
    7.3729  -17.7880   24.0678 C   0  0  0  0  0  0  0  0  0  0  0  0
    7.1184  -16.3800   23.6780 C   0  0  2  0  0  0  0  0  0  0  0  0
    7.7917  -16.2120   22.3684 N   0  0  0  0  0  0  0  0  0  0  0  0
    7.8149  -15.4145   24.5845 C   0  0  0  0  0  0  0  0  0  0  0  0
    9.0725  -15.3079   24.5735 O   0  0  0  0  0  0  0  0  0  0  0  0
    6.3978  -11.8143   25.6671 C   0  0  0  0  0  0  0  0  0  0  0  0
    6.8404  -12.6201   26.8689 C   0  0  2  0  0  0  0  0  0  0  0  0
    7.5664  -11.7091   27.8619 C   0  0  0  0  0  0  0  0  0  0  0  0
    7.8100  -13.7239   26.4226 C   0  0  2  0  0  0  0  0  0  0  0  0
    7.0947  -14.5872   25.4754 N   0  0  0  0  0  0  0  0  0  0  0  0
    8.2837  -14.4637   27.6090 C   0  0  0  0  0  0  0  0  0  0  0  0
    7.6649  -15.4856   27.9743 O   0  0  0  0  0  0  0  0  0  0  0  0
    9.3873  -14.0429   28.3076 O   0  0  0  0  0  0  0  0  0  0  0  0
  1  2  1  0
  2  4  1  0
  2  3  2  0
  4  5  1  0
  5  6  1  0
  6  7  1  6
  6  8  1  0
  8  9  2  0
 11 12  2  0
 11 10  1  0
 13 11  1  0
 15 14  1  1
 14 13  1  0
 15 17  1  0
 16  8  1  0
 16 15  1  0
 17 18  2  0
 20 19  1  6
 20 22  1  0
 21 20  1  0
 22 24  1  0
 22 23  1  6
 23 17  1  0
 24 26  1  0
 25 24  2  0
M  END
$$$$
