QQV.pdb
     RDKit          3D

 26 25  0  0  1  0  0  0  0  0999 V2000
   10.3262  -13.6603   20.3254 N   0  0  0  0  0  0  0  0  0  0  0  0
    9.8980  -13.6495   18.9538 C   0  0  0  0  0  0  0  0  0  0  0  0
   10.7800  -13.4438   18.0930 O   0  0  0  0  0  0  0  0  0  0  0  0
    8.4663  -13.8787   18.6807 C   0  0  0  0  0  0  0  0  0  0  0  0
    7.6549  -14.1089   19.9136 C   0  0  0  0  0  0  0  0  0  0  0  0
    7.4859  -15.5828   20.1370 C   0  0  2  0  0  0  0  0  0  0  0  0
    6.5040  -16.0499   19.1597 N   0  0  0  0  0  0  0  0  0  0  0  0
    6.9105  -15.8466   21.4996 C   0  0  0  0  0  0  0  0  0  0  0  0
    5.7464  -15.5157   21.7664 O   0  0  0  0  0  0  0  0  0  0  0  0
    7.9692  -20.5013   25.0258 N   0  0  0  0  0  0  0  0  0  0  0  0
    7.3877  -19.7133   26.0304 C   0  0  0  0  0  0  0  0  0  0  0  0
    7.1203  -20.1702   27.1421 O   0  0  0  0  0  0  0  0  0  0  0  0
    7.0832  -18.2778   25.7412 C   0  0  0  0  0  0  0  0  0  0  0  0
    7.4367  -17.9533   24.3192 C   0  0  0  0  0  0  0  0  0  0  0  0
    7.1042  -16.5819   23.8631 C   0  0  2  0  0  0  0  0  0  0  0  0
    7.6826  -16.4743   22.5029 N   0  0  0  0  0  0  0  0  0  0  0  0
    7.8223  -15.5385   24.6598 C   0  0  0  0  0  0  0  0  0  0  0  0
    9.0338  -15.2690   24.4309 O   0  0  0  0  0  0  0  0  0  0  0  0
    5.9991  -12.1902   25.6839 C   0  0  0  0  0  0  0  0  0  0  0  0
    6.7860  -12.7301   26.8582 C   0  0  2  0  0  0  0  0  0  0  0  0
    7.4808  -11.5775   27.5874 C   0  0  0  0  0  0  0  0  0  0  0  0
    7.8599  -13.7060   26.3560 C   0  0  2  0  0  0  0  0  0  0  0  0
    7.1728  -14.8166   25.6864 N   0  0  0  0  0  0  0  0  0  0  0  0
    8.6776  -14.1589   27.4985 C   0  0  0  0  0  0  0  0  0  0  0  0
    8.3984  -15.2430   28.0531 O   0  0  0  0  0  0  0  0  0  0  0  0
    9.7318  -13.4070   27.9528 O   0  0  0  0  0  0  0  0  0  0  0  0
  1  2  1  0
  2  4  1  0
  2  3  2  0
  4  5  1  0
  5  6  1  0
  6  7  1  6
  6  8  1  0
  8  9  2  0
 11 12  2  0
 11 10  1  0
 13 11  1  0
 15 14  1  1
 14 13  1  0
 15 17  1  0
 16  8  1  0
 16 15  1  0
 17 18  2  0
 20 19  1  6
 20 22  1  0
 21 20  1  0
 22 24  1  0
 22 23  1  1
 23 17  1  0
 24 26  1  0
 25 24  2  0
M  END
$$$$
