QQV.pdb
     RDKit          3D

 26 25  0  0  1  0  0  0  0  0999 V2000
    8.5571  -12.6023   18.3461 N   0  0  0  0  0  0  0  0  0  0  0  0
    8.2715  -13.7899   17.5891 C   0  0  0  0  0  0  0  0  0  0  0  0
    8.7239  -13.8348   16.4253 O   0  0  0  0  0  0  0  0  0  0  0  0
    7.4745  -14.8449   18.2435 C   0  0  0  0  0  0  0  0  0  0  0  0
    7.0867  -14.5131   19.6474 C   0  0  0  0  0  0  0  0  0  0  0  0
    8.0136  -15.2054   20.6027 C   0  0  2  0  0  0  0  0  0  0  0  0
    8.2027  -16.5650   20.0997 N   0  0  0  0  0  0  0  0  0  0  0  0
    7.3801  -15.3224   21.9601 C   0  0  0  0  0  0  0  0  0  0  0  0
    6.7160  -14.3865   22.4278 O   0  0  0  0  0  0  0  0  0  0  0  0
    7.5484  -20.4333   25.4068 N   0  0  0  0  0  0  0  0  0  0  0  0
    7.1012  -19.5531   26.4036 C   0  0  0  0  0  0  0  0  0  0  0  0
    6.9030  -19.9269   27.5599 O   0  0  0  0  0  0  0  0  0  0  0  0
    6.8575  -18.1204   26.0501 C   0  0  0  0  0  0  0  0  0  0  0  0
    7.2122  -17.8779   24.6121 C   0  0  0  0  0  0  0  0  0  0  0  0
    6.9952  -16.4985   24.1125 C   0  0  2  0  0  0  0  0  0  0  0  0
    7.5289  -16.4980   22.7299 N   0  0  0  0  0  0  0  0  0  0  0  0
    7.8397  -15.5009   24.8410 C   0  0  0  0  0  0  0  0  0  0  0  0
    9.0925  -15.4800   24.6900 O   0  0  0  0  0  0  0  0  0  0  0  0
    6.0610  -12.7396   27.5285 C   0  0  0  0  0  0  0  0  0  0  0  0
    7.2645  -12.3354   26.7051 C   0  0  2  0  0  0  0  0  0  0  0  0
    6.8016  -11.7292   25.3780 C   0  0  0  0  0  0  0  0  0  0  0  0
    8.1225  -13.5723   26.4021 C   0  0  2  0  0  0  0  0  0  0  0  0
    7.2686  -14.5475   25.7137 N   0  0  0  0  0  0  0  0  0  0  0  0
    8.6746  -14.1020   27.6645 C   0  0  0  0  0  0  0  0  0  0  0  0
    8.1892  -15.1464   28.1486 O   0  0  0  0  0  0  0  0  0  0  0  0
    9.7067  -13.4636   28.3051 O   0  0  0  0  0  0  0  0  0  0  0  0
  1  2  1  0
  2  4  1  0
  2  3  2  0
  4  5  1  0
  5  6  1  0
  6  7  1  6
  6  8  1  0
  8  9  2  0
 11 12  2  0
 11 10  1  0
 13 11  1  0
 15 14  1  1
 14 13  1  0
 15 17  1  0
 16  8  1  0
 16 15  1  0
 17 18  2  0
 20 19  1  1
 20 22  1  0
 21 20  1  0
 22 24  1  0
 22 23  1  1
 23 17  1  0
 24 26  1  0
 25 24  2  0
M  END
$$$$
