QQV.pdb
     RDKit          3D

 26 25  0  0  1  0  0  0  0  0999 V2000
   11.6847  -13.2804   20.6282 N   0  0  0  0  0  0  0  0  0  0  0  0
   11.1667  -13.7226   19.3629 C   0  0  0  0  0  0  0  0  0  0  0  0
   11.8230  -14.6021   18.7652 O   0  0  0  0  0  0  0  0  0  0  0  0
    9.9164  -13.1056   18.8804 C   0  0  0  0  0  0  0  0  0  0  0  0
    8.7713  -13.2639   19.8264 C   0  0  0  0  0  0  0  0  0  0  0  0
    8.3660  -14.7070   19.8893 C   0  0  2  0  0  0  0  0  0  0  0  0
    7.4403  -14.9361   18.7812 N   0  0  0  0  0  0  0  0  0  0  0  0
    7.6117  -14.9876   21.1581 C   0  0  0  0  0  0  0  0  0  0  0  0
    6.4438  -14.5969   21.2959 O   0  0  0  0  0  0  0  0  0  0  0  0
    7.9267  -19.9247   24.3745 N   0  0  0  0  0  0  0  0  0  0  0  0
    7.1802  -19.2054   25.3197 C   0  0  0  0  0  0  0  0  0  0  0  0
    6.7007  -19.7454   26.3170 O   0  0  0  0  0  0  0  0  0  0  0  0
    6.9602  -17.7412   25.1084 C   0  0  0  0  0  0  0  0  0  0  0  0
    7.5499  -17.3167   23.7951 C   0  0  0  0  0  0  0  0  0  0  0  0
    7.4455  -15.8732   23.4717 C   0  0  2  0  0  0  0  0  0  0  0  0
    8.2169  -15.6995   22.2182 N   0  0  0  0  0  0  0  0  0  0  0  0
    8.1612  -15.0228   24.4735 C   0  0  0  0  0  0  0  0  0  0  0  0
    9.4200  -14.9319   24.4642 O   0  0  0  0  0  0  0  0  0  0  0  0
    5.9784  -13.0236   27.4899 C   0  0  0  0  0  0  0  0  0  0  0  0
    7.2339  -12.3843   26.9377 C   0  0  2  0  0  0  0  0  0  0  0  0
    6.8743  -11.4721   25.7623 C   0  0  0  0  0  0  0  0  0  0  0  0
    8.1900  -13.4746   26.4328 C   0  0  2  0  0  0  0  0  0  0  0  0
    7.4583  -14.2896   25.4560 N   0  0  0  0  0  0  0  0  0  0  0  0
    8.6699  -14.2698   27.5803 C   0  0  0  0  0  0  0  0  0  0  0  0
    8.1973  -15.4108   27.7683 O   0  0  0  0  0  0  0  0  0  0  0  0
    9.6215  -13.7716   28.4343 O   0  0  0  0  0  0  0  0  0  0  0  0
  1  2  1  0
  2  4  1  0
  2  3  2  0
  4  5  1  0
  5  6  1  0
  6  7  1  6
  6  8  1  0
  8  9  2  0
 11 12  2  0
 11 10  1  0
 13 11  1  0
 15 14  1  1
 14 13  1  0
 15 17  1  0
 16  8  1  0
 16 15  1  0
 17 18  2  0
 20 19  1  6
 20 22  1  0
 21 20  1  0
 22 24  1  0
 22 23  1  6
 23 17  1  0
 24 26  1  0
 25 24  2  0
M  END
$$$$
