QQV.pdb
     RDKit          3D

 26 25  0  0  1  0  0  0  0  0999 V2000
    9.4920  -14.6185   18.6617 N   0  0  0  0  0  0  0  0  0  0  0  0
    8.4684  -13.6717   18.3142 C   0  0  0  0  0  0  0  0  0  0  0  0
    8.8503  -12.5904   17.8180 O   0  0  0  0  0  0  0  0  0  0  0  0
    7.0664  -14.0525   18.5716 C   0  0  0  0  0  0  0  0  0  0  0  0
    6.7140  -14.0788   20.0230 C   0  0  0  0  0  0  0  0  0  0  0  0
    7.5776  -15.0794   20.7327 C   0  0  2  0  0  0  0  0  0  0  0  0
    7.3674  -16.3659   20.0708 N   0  0  0  0  0  0  0  0  0  0  0  0
    7.1339  -15.2406   22.1591 C   0  0  0  0  0  0  0  0  0  0  0  0
    6.4792  -14.3500   22.7194 O   0  0  0  0  0  0  0  0  0  0  0  0
    7.7964  -20.4557   25.3665 N   0  0  0  0  0  0  0  0  0  0  0  0
    7.3236  -19.6559   26.4177 C   0  0  0  0  0  0  0  0  0  0  0  0
    7.1494  -20.1068   27.5502 O   0  0  0  0  0  0  0  0  0  0  0  0
    7.0217  -18.2150   26.1538 C   0  0  0  0  0  0  0  0  0  0  0  0
    7.3014  -17.8857   24.7165 C   0  0  0  0  0  0  0  0  0  0  0  0
    6.9944  -16.4972   24.2959 C   0  0  2  0  0  0  0  0  0  0  0  0
    7.4540  -16.4069   22.8898 N   0  0  0  0  0  0  0  0  0  0  0  0
    7.8287  -15.4939   25.0284 C   0  0  0  0  0  0  0  0  0  0  0  0
    9.0739  -15.4225   24.8350 O   0  0  0  0  0  0  0  0  0  0  0  0
    5.9563  -12.6699   27.4760 C   0  0  0  0  0  0  0  0  0  0  0  0
    7.3137  -12.3549   26.8863 C   0  0  2  0  0  0  0  0  0  0  0  0
    7.1402  -11.6864   25.5202 C   0  0  0  0  0  0  0  0  0  0  0  0
    8.1083  -13.6548   26.6946 C   0  0  2  0  0  0  0  0  0  0  0  0
    7.2560  -14.5911   25.9524 N   0  0  0  0  0  0  0  0  0  0  0  0
    8.5039  -14.1820   28.0154 C   0  0  0  0  0  0  0  0  0  0  0  0
    9.3439  -13.5531   28.6934 O   0  0  0  0  0  0  0  0  0  0  0  0
    7.9625  -15.3458   28.5008 O   0  0  0  0  0  0  0  0  0  0  0  0
  1  2  1  0
  2  4  1  0
  2  3  2  0
  4  5  1  0
  5  6  1  0
  6  7  1  6
  6  8  1  0
  8  9  2  0
 11 12  2  0
 11 10  1  0
 13 11  1  0
 15 14  1  1
 14 13  1  0
 15 17  1  0
 16  8  1  0
 16 15  1  0
 17 18  2  0
 20 19  1  6
 20 22  1  0
 21 20  1  0
 22 24  1  0
 22 23  1  1
 23 17  1  0
 24 26  1  0
 25 24  2  0
M  END
$$$$
