QQV.pdb
     RDKit          3D

 26 25  0  0  1  0  0  0  0  0999 V2000
   10.1194  -13.6070   19.6418 N   0  0  0  0  0  0  0  0  0  0  0  0
    9.3647  -13.5050   18.4233 C   0  0  0  0  0  0  0  0  0  0  0  0
   10.0206  -13.4294   17.3625 O   0  0  0  0  0  0  0  0  0  0  0  0
    7.8930  -13.4969   18.5271 C   0  0  0  0  0  0  0  0  0  0  0  0
    7.3941  -13.6681   19.9246 C   0  0  0  0  0  0  0  0  0  0  0  0
    7.5530  -15.0998   20.3440 C   0  0  2  0  0  0  0  0  0  0  0  0
    6.7203  -15.8992   19.4467 N   0  0  0  0  0  0  0  0  0  0  0  0
    7.0223  -15.3034   21.7348 C   0  0  0  0  0  0  0  0  0  0  0  0
    5.9832  -14.7366   22.1016 O   0  0  0  0  0  0  0  0  0  0  0  0
    7.9717  -20.2148   25.0919 N   0  0  0  0  0  0  0  0  0  0  0  0
    7.3660  -19.4554   26.1042 C   0  0  0  0  0  0  0  0  0  0  0  0
    7.0996  -19.9356   27.2063 O   0  0  0  0  0  0  0  0  0  0  0  0
    7.0338  -18.0220   25.8355 C   0  0  0  0  0  0  0  0  0  0  0  0
    7.4150  -17.6605   24.4296 C   0  0  0  0  0  0  0  0  0  0  0  0
    7.1458  -16.2601   24.0226 C   0  0  2  0  0  0  0  0  0  0  0  0
    7.6959  -16.1418   22.6515 N   0  0  0  0  0  0  0  0  0  0  0  0
    7.9384  -15.2811   24.8305 C   0  0  0  0  0  0  0  0  0  0  0  0
    9.1955  -15.2281   24.7322 O   0  0  0  0  0  0  0  0  0  0  0  0
    5.9635  -12.8336   27.6472 C   0  0  0  0  0  0  0  0  0  0  0  0
    7.2684  -12.3538   27.0500 C   0  0  2  0  0  0  0  0  0  0  0  0
    6.9862  -11.5055   25.8075 C   0  0  0  0  0  0  0  0  0  0  0  0
    8.1203  -13.5610   26.6317 C   0  0  2  0  0  0  0  0  0  0  0  0
    7.3120  -14.3813   25.7221 N   0  0  0  0  0  0  0  0  0  0  0  0
    8.5361  -14.3037   27.8378 C   0  0  0  0  0  0  0  0  0  0  0  0
    7.9741  -15.3862   28.1081 O   0  0  0  0  0  0  0  0  0  0  0  0
    9.5252  -13.8204   28.6571 O   0  0  0  0  0  0  0  0  0  0  0  0
  1  2  1  0
  2  4  1  0
  2  3  2  0
  4  5  1  0
  5  6  1  0
  6  7  1  6
  6  8  1  0
  8  9  2  0
 11 12  2  0
 11 10  1  0
 13 11  1  0
 15 14  1  1
 14 13  1  0
 15 17  1  0
 16  8  1  0
 16 15  1  0
 17 18  2  0
 20 19  1  6
 20 22  1  0
 21 20  1  0
 22 24  1  0
 22 23  1  6
 23 17  1  0
 24 26  1  0
 25 24  2  0
M  END
$$$$
