QQV.pdb
     RDKit          3D

 26 25  0  0  1  0  0  0  0  0999 V2000
   13.4539  -16.6777   15.4817 N   0  0  0  0  0  0  0  0  0  0  0  0
   12.8319  -17.9719   15.4276 C   0  0  0  0  0  0  0  0  0  0  0  0
   13.1585  -18.7113   14.4747 O   0  0  0  0  0  0  0  0  0  0  0  0
   11.8682  -18.3144   16.4909 C   0  0  0  0  0  0  0  0  0  0  0  0
   12.2253  -17.7429   17.8241 C   0  0  0  0  0  0  0  0  0  0  0  0
   11.3569  -18.3552   18.8832 C   0  0  2  0  0  0  0  0  0  0  0  0
   10.0222  -18.5013   18.3049 N   0  0  0  0  0  0  0  0  0  0  0  0
   11.2280  -17.4290   20.0593 C   0  0  0  0  0  0  0  0  0  0  0  0
   12.2346  -17.0445   20.6713 O   0  0  0  0  0  0  0  0  0  0  0  0
    6.9929  -13.0970   19.0803 N   0  0  0  0  0  0  0  0  0  0  0  0
    7.6187  -13.2637   20.3248 C   0  0  0  0  0  0  0  0  0  0  0  0
    7.1628  -12.7645   21.3539 O   0  0  0  0  0  0  0  0  0  0  0  0
    8.8760  -14.0701   20.4023 C   0  0  0  0  0  0  0  0  0  0  0  0
    8.7060  -15.1952   21.3809 C   0  0  0  0  0  0  0  0  0  0  0  0
    9.9070  -16.0293   21.6278 C   0  0  2  0  0  0  0  0  0  0  0  0
    9.9600  -16.9795   20.4916 N   0  0  0  0  0  0  0  0  0  0  0  0
    9.7457  -16.8977   22.8357 C   0  0  0  0  0  0  0  0  0  0  0  0
    8.8801  -17.8158   22.8622 O   0  0  0  0  0  0  0  0  0  0  0  0
   12.8748  -17.6704   25.3517 C   0  0  0  0  0  0  0  0  0  0  0  0
   11.6302  -18.5192   25.2099 C   0  0  2  0  0  0  0  0  0  0  0  0
   11.7076  -19.3366   23.9181 C   0  0  0  0  0  0  0  0  0  0  0  0
   10.3922  -17.6135   25.1392 C   0  0  2  0  0  0  0  0  0  0  0  0
   10.5557  -16.7272   23.9810 N   0  0  0  0  0  0  0  0  0  0  0  0
   10.2644  -16.8652   26.4053 C   0  0  0  0  0  0  0  0  0  0  0  0
    9.9065  -17.4731   27.4364 O   0  0  0  0  0  0  0  0  0  0  0  0
   10.5326  -15.5205   26.4594 O   0  0  0  0  0  0  0  0  0  0  0  0
  1  2  1  0
  2  4  1  0
  2  3  2  0
  4  5  1  0
  5  6  1  0
  6  7  1  6
  6  8  1  0
  8  9  2  0
 11 12  2  0
 11 10  1  0
 13 11  1  0
 15 14  1  6
 14 13  1  0
 15 17  1  0
 16  8  1  0
 16 15  1  0
 17 18  2  0
 20 19  1  6
 20 22  1  0
 21 20  1  0
 22 24  1  0
 22 23  1  6
 23 17  1  0
 24 26  1  0
 25 24  2  0
M  END
$$$$
