QQV.pdb
     RDKit          3D

 26 25  0  0  1  0  0  0  0  0999 V2000
    9.8600  -13.9008   18.5079 N   0  0  0  0  0  0  0  0  0  0  0  0
    8.5636  -13.4786   18.0538 C   0  0  0  0  0  0  0  0  0  0  0  0
    8.4713  -13.1470   16.8527 O   0  0  0  0  0  0  0  0  0  0  0  0
    7.4622  -13.4712   19.0353 C   0  0  0  0  0  0  0  0  0  0  0  0
    7.8788  -13.9118   20.4005 C   0  0  0  0  0  0  0  0  0  0  0  0
    7.4431  -15.3295   20.6267 C   0  0  2  0  0  0  0  0  0  0  0  0
    6.2501  -15.5419   19.8089 N   0  0  0  0  0  0  0  0  0  0  0  0
    7.0370  -15.5336   22.0589 C   0  0  0  0  0  0  0  0  0  0  0  0
    5.9820  -15.0468   22.4897 O   0  0  0  0  0  0  0  0  0  0  0  0
    7.2754  -20.6861   24.6262 N   0  0  0  0  0  0  0  0  0  0  0  0
    6.2636  -20.1488   23.8164 C   0  0  0  0  0  0  0  0  0  0  0  0
    5.4369  -20.8633   23.2488 O   0  0  0  0  0  0  0  0  0  0  0  0
    6.1886  -18.6658   23.6373 C   0  0  0  0  0  0  0  0  0  0  0  0
    7.2595  -17.9950   24.4470 C   0  0  0  0  0  0  0  0  0  0  0  0
    7.3462  -16.5204   24.3161 C   0  0  2  0  0  0  0  0  0  0  0  0
    7.8477  -16.2816   22.9420 N   0  0  0  0  0  0  0  0  0  0  0  0
    8.4005  -15.9413   25.2062 C   0  0  0  0  0  0  0  0  0  0  0  0
    9.6073  -15.9008   24.8390 O   0  0  0  0  0  0  0  0  0  0  0  0
    8.0936  -12.6134   27.0959 C   0  0  0  0  0  0  0  0  0  0  0  0
    8.5516  -13.6619   28.0862 C   0  0  2  0  0  0  0  0  0  0  0  0
    9.6369  -13.0760   28.9928 C   0  0  0  0  0  0  0  0  0  0  0  0
    9.1428  -14.8618   27.3323 C   0  0  2  0  0  0  0  0  0  0  0  0
    8.0847  -15.4158   26.4794 N   0  0  0  0  0  0  0  0  0  0  0  0
    9.6507  -15.8465   28.3077 C   0  0  0  0  0  0  0  0  0  0  0  0
    8.9257  -16.8114   28.6300 O   0  0  0  0  0  0  0  0  0  0  0  0
   10.9004  -15.7127   28.8587 O   0  0  0  0  0  0  0  0  0  0  0  0
  1  2  1  0
  2  4  1  0
  2  3  2  0
  4  5  1  0
  5  6  1  0
  6  7  1  6
  6  8  1  0
  8  9  2  0
 11 12  2  0
 11 10  1  0
 13 11  1  0
 15 14  1  1
 14 13  1  0
 15 17  1  0
 16  8  1  0
 16 15  1  0
 17 18  2  0
 20 19  1  6
 20 22  1  0
 21 20  1  0
 22 24  1  0
 22 23  1  1
 23 17  1  0
 24 26  1  0
 25 24  2  0
M  END
$$$$
