GQK.pdb
     RDKit          3D

 23 22  0  0  1  0  0  0  0  0999 V2000
   24.1280  -12.6942  -17.8733 N   0  0  0  0  0  0  0  0  0  0  0  0
   23.3343  -12.4667  -16.7078 C   0  0  0  0  0  0  0  0  0  0  0  0
   22.5641  -11.2045  -16.7482 C   0  0  0  0  0  0  0  0  0  0  0  0
   22.6718  -10.5055  -17.7937 O   0  0  0  0  0  0  0  0  0  0  0  0
   17.2047   -9.9221  -14.0092 N   0  0  0  0  0  0  0  0  0  0  0  0
   17.4481  -10.7522  -15.1167 C   0  0  0  0  0  0  0  0  0  0  0  0
   16.5801  -11.5524  -15.5301 O   0  0  0  0  0  0  0  0  0  0  0  0
   18.7559  -10.6877  -15.8181 C   0  0  0  0  0  0  0  0  0  0  0  0
   19.6786   -9.6887  -15.1608 C   0  0  0  0  0  0  0  0  0  0  0  0
   20.9757   -9.5107  -15.9033 C   0  0  2  0  0  0  0  0  0  0  0  0
   21.7289  -10.7231  -15.7270 N   0  0  0  0  0  0  0  0  0  0  0  0
   21.6558   -8.3080  -15.3729 C   0  0  0  0  0  0  0  0  0  0  0  0
   22.3079   -8.5395  -14.3133 O   0  0  0  0  0  0  0  0  0  0  0  0
   21.6195   -7.0424  -15.9257 N   0  0  0  0  0  0  0  0  0  0  0  0
   22.2971   -5.8964  -15.3602 C   0  0  1  0  0  0  0  0  0  0  0  0
   22.1304   -4.7827  -16.3588 C   0  0  0  0  0  0  0  0  0  0  0  0
   22.6689   -3.4514  -15.9389 C   0  0  0  0  0  0  0  0  0  0  0  0
   22.3044   -2.4821  -17.0607 C   0  0  0  0  0  0  0  0  0  0  0  0
   22.8343   -1.0998  -16.7816 C   0  0  0  0  0  0  0  0  0  0  0  0
   22.3673   -0.1844  -17.8071 N   0  0  0  0  0  0  0  0  0  0  0  0
   21.7862   -5.5344  -14.0185 C   0  0  0  0  0  0  0  0  0  0  0  0
   20.6009   -5.6320  -13.6445 O   0  0  0  0  0  0  0  0  0  0  0  0
   22.6659   -5.0341  -13.0369 O   0  0  0  0  0  0  0  0  0  0  0  0
  2  1  1  0
  3 11  1  0
  3  2  1  0
  4  3  2  0
  6  5  1  0
  7  6  2  0
  8  6  1  0
 10  9  1  1
  9  8  1  0
 10 12  1  0
 10 11  1  0
 12 14  1  0
 13 12  2  0
 14 15  1  0
 15 21  1  0
 15 16  1  6
 16 17  1  0
 18 19  1  0
 18 17  1  0
 19 20  1  0
 21 23  1  0
 22 21  2  0
M  END
$$$$
