GQK.pdb
     RDKit          3D

 23 22  0  0  1  0  0  0  0  0999 V2000
   24.3904  -20.2893   -9.0433 N   0  0  0  0  0  0  0  0  0  0  0  0
   24.8416  -21.2368  -10.0122 C   0  0  0  0  0  0  0  0  0  0  0  0
   24.7496  -20.7528  -11.4070 C   0  0  0  0  0  0  0  0  0  0  0  0
   24.5419  -19.5183  -11.5683 O   0  0  0  0  0  0  0  0  0  0  0  0
   27.3862  -21.0400  -13.4524 N   0  0  0  0  0  0  0  0  0  0  0  0
   27.5001  -21.0127  -14.8529 C   0  0  0  0  0  0  0  0  0  0  0  0
   28.5606  -20.6529  -15.4100 O   0  0  0  0  0  0  0  0  0  0  0  0
   26.3472  -21.4162  -15.6982 C   0  0  0  0  0  0  0  0  0  0  0  0
   25.2240  -21.9758  -14.8577 C   0  0  0  0  0  0  0  0  0  0  0  0
   24.6810  -20.9818  -13.8664 C   0  0  2  0  0  0  0  0  0  0  0  0
   24.8731  -21.5476  -12.5582 N   0  0  0  0  0  0  0  0  0  0  0  0
   23.2622  -20.7206  -14.1967 C   0  0  0  0  0  0  0  0  0  0  0  0
   22.4822  -21.6128  -13.7528 O   0  0  0  0  0  0  0  0  0  0  0  0
   22.7783  -19.6413  -14.9104 N   0  0  0  0  0  0  0  0  0  0  0  0
   21.3712  -19.3776  -15.1173 C   0  0  1  0  0  0  0  0  0  0  0  0
   21.3009  -18.0861  -15.8870 C   0  0  0  0  0  0  0  0  0  0  0  0
   19.9248  -17.6206  -16.2451 C   0  0  0  0  0  0  0  0  0  0  0  0
   20.1154  -16.3353  -17.0468 C   0  0  0  0  0  0  0  0  0  0  0  0
   18.7906  -15.7336  -17.4369 C   0  0  0  0  0  0  0  0  0  0  0  0
   19.0147  -14.5379  -18.2293 N   0  0  0  0  0  0  0  0  0  0  0  0
   20.6771  -20.4872  -15.8095 C   0  0  0  0  0  0  0  0  0  0  0  0
   21.1516  -21.1713  -16.7374 O   0  0  0  0  0  0  0  0  0  0  0  0
   19.3683  -20.8498  -15.4307 O   0  0  0  0  0  0  0  0  0  0  0  0
  2  1  1  0
  3 11  1  0
  3  2  1  0
  4  3  2  0
  6  5  1  0
  7  6  2  0
  8  6  1  0
 10  9  1  6
  9  8  1  0
 10 12  1  0
 10 11  1  0
 12 14  1  0
 13 12  2  0
 14 15  1  0
 15 21  1  0
 15 16  1  6
 16 17  1  0
 18 19  1  0
 18 17  1  0
 19 20  1  0
 21 23  1  0
 22 21  2  0
M  END
$$$$
