GQK.pdb
     RDKit          3D

 23 22  0  0  1  0  0  0  0  0999 V2000
   18.4307  -10.5122  -13.3664 N   0  0  0  0  0  0  0  0  0  0  0  0
   18.4512  -10.1161  -11.9943 C   0  0  0  0  0  0  0  0  0  0  0  0
   17.2532   -9.3564  -11.5753 C   0  0  0  0  0  0  0  0  0  0  0  0
   16.4860   -8.9523  -12.4926 O   0  0  0  0  0  0  0  0  0  0  0  0
   12.9282   -9.8284   -9.3342 N   0  0  0  0  0  0  0  0  0  0  0  0
   12.7862   -8.6037   -8.6598 C   0  0  0  0  0  0  0  0  0  0  0  0
   11.6564   -8.1344   -8.3993 O   0  0  0  0  0  0  0  0  0  0  0  0
   13.9920   -7.8427   -8.2435 C   0  0  0  0  0  0  0  0  0  0  0  0
   15.2572   -8.5783   -8.6170 C   0  0  0  0  0  0  0  0  0  0  0  0
   15.7903   -8.1813   -9.9674 C   0  0  2  0  0  0  0  0  0  0  0  0
   16.9012   -9.0496  -10.2508 N   0  0  0  0  0  0  0  0  0  0  0  0
   16.1550   -6.7477   -9.9222 C   0  0  0  0  0  0  0  0  0  0  0  0
   17.1140   -6.5095   -9.1316 O   0  0  0  0  0  0  0  0  0  0  0  0
   15.5516   -5.7316  -10.6379 N   0  0  0  0  0  0  0  0  0  0  0  0
   15.8933   -4.3333  -10.4960 C   0  0  1  0  0  0  0  0  0  0  0  0
   15.2443   -3.6288  -11.6569 C   0  0  0  0  0  0  0  0  0  0  0  0
   15.5062   -2.1587  -11.7500 C   0  0  0  0  0  0  0  0  0  0  0  0
   14.7955   -1.6883  -13.0166 C   0  0  0  0  0  0  0  0  0  0  0  0
   14.9803   -0.2084  -13.2289 C   0  0  0  0  0  0  0  0  0  0  0  0
   14.4541    0.1652  -14.5293 N   0  0  0  0  0  0  0  0  0  0  0  0
   15.4781   -3.7726   -9.1902 C   0  0  0  0  0  0  0  0  0  0  0  0
   14.5196   -4.1742   -8.5015 O   0  0  0  0  0  0  0  0  0  0  0  0
   16.1887   -2.6943   -8.6242 O   0  0  0  0  0  0  0  0  0  0  0  0
  2  1  1  0
  3 11  1  0
  3  2  1  0
  4  3  2  0
  6  5  1  0
  7  6  2  0
  8  6  1  0
 10  9  1  1
  9  8  1  0
 10 12  1  0
 10 11  1  0
 12 14  1  0
 13 12  2  0
 14 15  1  0
 15 21  1  0
 15 16  1  6
 16 17  1  0
 18 19  1  0
 18 17  1  0
 19 20  1  0
 21 23  1  0
 22 21  2  0
M  END
$$$$
