GQK.pdb
     RDKit          3D

 23 22  0  0  1  0  0  0  0  0999 V2000
   19.0490  -10.6033  -16.3767 N   0  0  0  0  0  0  0  0  0  0  0  0
   17.9430   -9.7779  -16.7448 C   0  0  0  0  0  0  0  0  0  0  0  0
   17.8511   -8.5229  -15.9674 C   0  0  0  0  0  0  0  0  0  0  0  0
   16.7309   -8.2536  -15.4519 O   0  0  0  0  0  0  0  0  0  0  0  0
   22.2179   -6.1458  -12.5743 N   0  0  0  0  0  0  0  0  0  0  0  0
   21.2745   -7.1120  -12.1850 C   0  0  0  0  0  0  0  0  0  0  0  0
   21.4803   -7.8604  -11.2041 O   0  0  0  0  0  0  0  0  0  0  0  0
   20.0059   -7.2572  -12.9439 C   0  0  0  0  0  0  0  0  0  0  0  0
   19.9489   -6.2887  -14.1015 C   0  0  0  0  0  0  0  0  0  0  0  0
   18.7076   -6.4461  -14.9381 C   0  0  2  0  0  0  0  0  0  0  0  0
   18.8997   -7.6127  -15.7570 N   0  0  0  0  0  0  0  0  0  0  0  0
   18.5078   -5.2026  -15.7154 C   0  0  0  0  0  0  0  0  0  0  0  0
   19.3058   -5.1004  -16.6923 O   0  0  0  0  0  0  0  0  0  0  0  0
   17.5724   -4.2204  -15.4530 N   0  0  0  0  0  0  0  0  0  0  0  0
   17.4255   -3.0165  -16.2412 C   0  0  1  0  0  0  0  0  0  0  0  0
   15.9984   -2.5742  -16.0591 C   0  0  0  0  0  0  0  0  0  0  0  0
   14.9852   -3.3013  -16.8857 C   0  0  0  0  0  0  0  0  0  0  0  0
   13.9829   -3.8881  -15.8948 C   0  0  0  0  0  0  0  0  0  0  0  0
   12.9549   -4.7371  -16.5961 C   0  0  0  0  0  0  0  0  0  0  0  0
   12.0610   -5.3265  -15.6157 N   0  0  0  0  0  0  0  0  0  0  0  0
   18.3964   -1.9641  -15.8644 C   0  0  0  0  0  0  0  0  0  0  0  0
   18.8921   -1.8085  -14.7311 O   0  0  0  0  0  0  0  0  0  0  0  0
   18.8378   -1.0310  -16.8248 O   0  0  0  0  0  0  0  0  0  0  0  0
  2  1  1  0
  3 11  1  0
  3  2  1  0
  4  3  2  0
  6  5  1  0
  7  6  2  0
  8  6  1  0
 10  9  1  1
  9  8  1  0
 10 12  1  0
 10 11  1  0
 12 14  1  0
 13 12  2  0
 14 15  1  0
 15 21  1  0
 15 16  1  1
 16 17  1  0
 18 19  1  0
 18 17  1  0
 19 20  1  0
 21 23  1  0
 22 21  2  0
M  END
$$$$
