GQK.pdb
     RDKit          3D

 23 22  0  0  1  0  0  0  0  0999 V2000
   27.9427  -21.8856  -16.6929 N   0  0  0  0  0  0  0  0  0  0  0  0
   27.7615  -20.9128  -15.6630 C   0  0  0  0  0  0  0  0  0  0  0  0
   26.6154  -21.1950  -14.7716 C   0  0  0  0  0  0  0  0  0  0  0  0
   25.7843  -22.0579  -15.1691 O   0  0  0  0  0  0  0  0  0  0  0  0
   25.9396  -20.2577   -8.6599 N   0  0  0  0  0  0  0  0  0  0  0  0
   24.7611  -20.9490   -8.9885 C   0  0  0  0  0  0  0  0  0  0  0  0
   23.9871  -21.3692   -8.1002 O   0  0  0  0  0  0  0  0  0  0  0  0
   24.4168  -21.1917  -10.4129 C   0  0  0  0  0  0  0  0  0  0  0  0
   25.5121  -20.7013  -11.3300 C   0  0  0  0  0  0  0  0  0  0  0  0
   25.1780  -20.8728  -12.7876 C   0  0  2  0  0  0  0  0  0  0  0  0
   26.3770  -20.5867  -13.5284 N   0  0  0  0  0  0  0  0  0  0  0  0
   24.0493  -19.9738  -13.1166 C   0  0  0  0  0  0  0  0  0  0  0  0
   24.4240  -18.8917  -13.6551 O   0  0  0  0  0  0  0  0  0  0  0  0
   22.7115  -20.2288  -12.8842 N   0  0  0  0  0  0  0  0  0  0  0  0
   21.6697  -20.0239  -13.8664 C   0  0  1  0  0  0  0  0  0  0  0  0
   22.2433  -20.4827  -15.1801 C   0  0  0  0  0  0  0  0  0  0  0  0
   22.4406  -19.4139  -16.2084 C   0  0  0  0  0  0  0  0  0  0  0  0
   23.0153  -20.1176  -17.4354 C   0  0  0  0  0  0  0  0  0  0  0  0
   23.1871  -19.1584  -18.5843 C   0  0  0  0  0  0  0  0  0  0  0  0
   23.7420  -19.8627  -19.7261 N   0  0  0  0  0  0  0  0  0  0  0  0
   20.4126  -20.7261  -13.5219 C   0  0  0  0  0  0  0  0  0  0  0  0
   20.2680  -21.9628  -13.4588 O   0  0  0  0  0  0  0  0  0  0  0  0
   19.2472  -19.9890  -13.2279 O   0  0  0  0  0  0  0  0  0  0  0  0
  2  1  1  0
  3 11  1  0
  3  2  1  0
  4  3  2  0
  6  5  1  0
  7  6  2  0
  8  6  1  0
 10  9  1  1
  9  8  1  0
 10 12  1  0
 10 11  1  0
 12 14  1  0
 13 12  2  0
 14 15  1  0
 15 21  1  0
 15 16  1  6
 16 17  1  0
 18 19  1  0
 18 17  1  0
 19 20  1  0
 21 23  1  0
 22 21  2  0
M  END
$$$$
