GQK.pdb
     RDKit          3D

 23 22  0  0  1  0  0  0  0  0999 V2000
   20.1384  -14.8224  -16.6385 N   0  0  0  0  0  0  0  0  0  0  0  0
   19.0156  -14.0455  -16.2193 C   0  0  0  0  0  0  0  0  0  0  0  0
   18.9975  -12.6754  -16.7766 C   0  0  0  0  0  0  0  0  0  0  0  0
   19.9780  -12.3415  -17.4980 O   0  0  0  0  0  0  0  0  0  0  0  0
   16.1376   -6.2522  -17.3919 N   0  0  0  0  0  0  0  0  0  0  0  0
   15.8078   -7.6168  -17.3284 C   0  0  0  0  0  0  0  0  0  0  0  0
   14.8518   -8.0207  -16.6302 O   0  0  0  0  0  0  0  0  0  0  0  0
   16.6012   -8.6077  -18.0998 C   0  0  0  0  0  0  0  0  0  0  0  0
   16.6673   -9.9334  -17.3792 C   0  0  0  0  0  0  0  0  0  0  0  0
   18.0769  -10.4152  -17.1643 C   0  0  2  0  0  0  0  0  0  0  0  0
   17.9868  -11.7222  -16.5709 N   0  0  0  0  0  0  0  0  0  0  0  0
   18.7839   -9.4277  -16.3184 C   0  0  0  0  0  0  0  0  0  0  0  0
   18.6054   -9.6237  -15.0809 O   0  0  0  0  0  0  0  0  0  0  0  0
   19.5659   -8.3819  -16.7692 N   0  0  0  0  0  0  0  0  0  0  0  0
   20.2763   -7.4728  -15.8968 C   0  0  1  0  0  0  0  0  0  0  0  0
   21.4991   -7.0382  -16.6592 C   0  0  0  0  0  0  0  0  0  0  0  0
   22.3181   -5.9663  -16.0120 C   0  0  0  0  0  0  0  0  0  0  0  0
   23.4353   -5.6416  -17.0004 C   0  0  0  0  0  0  0  0  0  0  0  0
   24.2937   -4.5087  -16.5014 C   0  0  0  0  0  0  0  0  0  0  0  0
   25.2168   -4.1023  -17.5456 N   0  0  0  0  0  0  0  0  0  0  0  0
   19.4435   -6.3280  -15.4633 C   0  0  0  0  0  0  0  0  0  0  0  0
   18.6260   -5.7156  -16.1780 O   0  0  0  0  0  0  0  0  0  0  0  0
   19.5359   -5.8452  -14.1418 O   0  0  0  0  0  0  0  0  0  0  0  0
  2  1  1  0
  3 11  1  0
  3  2  1  0
  4  3  2  0
  6  5  1  0
  7  6  2  0
  8  6  1  0
 10  9  1  1
  9  8  1  0
 10 12  1  0
 10 11  1  0
 12 14  1  0
 13 12  2  0
 14 15  1  0
 15 21  1  0
 15 16  1  6
 16 17  1  0
 18 19  1  0
 18 17  1  0
 19 20  1  0
 21 23  1  0
 22 21  2  0
M  END
$$$$
