GQK.pdb
     RDKit          3D

 23 22  0  0  1  0  0  0  0  0999 V2000
   11.2147  -17.4622    2.6526 N   0  0  0  0  0  0  0  0  0  0  0  0
   11.9897  -17.9232    1.5451 C   0  0  0  0  0  0  0  0  0  0  0  0
   12.6133  -19.2467    1.7637 C   0  0  0  0  0  0  0  0  0  0  0  0
   12.5040  -19.7432    2.9190 O   0  0  0  0  0  0  0  0  0  0  0  0
   15.8673  -22.8683   -2.2531 N   0  0  0  0  0  0  0  0  0  0  0  0
   15.5808  -23.7605   -1.2058 C   0  0  0  0  0  0  0  0  0  0  0  0
   15.8765  -24.9731   -1.2882 O   0  0  0  0  0  0  0  0  0  0  0  0
   14.9148  -23.2671    0.0269 C   0  0  0  0  0  0  0  0  0  0  0  0
   14.4622  -21.8351   -0.1336 C   0  0  0  0  0  0  0  0  0  0  0  0
   13.9397  -21.2377    1.1453 C   0  0  2  0  0  0  0  0  0  0  0  0
   13.3118  -19.9910    0.7992 N   0  0  0  0  0  0  0  0  0  0  0  0
   15.0711  -21.0899    2.0879 C   0  0  0  0  0  0  0  0  0  0  0  0
   15.8631  -20.1581    1.7625 O   0  0  0  0  0  0  0  0  0  0  0  0
   15.2958  -21.8554    3.2158 N   0  0  0  0  0  0  0  0  0  0  0  0
   16.4003  -21.6447    4.1256 C   0  0  1  0  0  0  0  0  0  0  0  0
   15.9310  -20.6111    5.1139 C   0  0  0  0  0  0  0  0  0  0  0  0
   16.8938  -20.2804    6.2104 C   0  0  0  0  0  0  0  0  0  0  0  0
   16.2341  -19.1687    7.0227 C   0  0  0  0  0  0  0  0  0  0  0  0
   17.1067  -18.7424    8.1743 C   0  0  0  0  0  0  0  0  0  0  0  0
   16.4723  -17.6468    8.8848 N   0  0  0  0  0  0  0  0  0  0  0  0
   16.8465  -22.8942    4.7827 C   0  0  0  0  0  0  0  0  0  0  0  0
   17.7350  -22.9771    5.6534 O   0  0  0  0  0  0  0  0  0  0  0  0
   16.2528  -24.1261    4.4393 O   0  0  0  0  0  0  0  0  0  0  0  0
  2  1  1  0
  3 11  1  0
  3  2  1  0
  4  3  2  0
  6  5  1  0
  7  6  2  0
  8  6  1  0
 10  9  1  6
  9  8  1  0
 10 12  1  0
 10 11  1  0
 12 14  1  0
 13 12  2  0
 14 15  1  0
 15 21  1  0
 15 16  1  1
 16 17  1  0
 18 19  1  0
 18 17  1  0
 19 20  1  0
 21 23  1  0
 22 21  2  0
M  END
$$$$
