GQK.pdb
     RDKit          3D

 23 22  0  0  1  0  0  0  0  0999 V2000
   18.0070  -11.5922    5.0758 N   0  0  0  0  0  0  0  0  0  0  0  0
   18.0226  -12.7051    4.1807 C   0  0  0  0  0  0  0  0  0  0  0  0
   17.9498  -14.0172    4.8597 C   0  0  0  0  0  0  0  0  0  0  0  0
   17.9697  -14.0067    6.1217 O   0  0  0  0  0  0  0  0  0  0  0  0
   16.8900  -19.5146    2.1498 N   0  0  0  0  0  0  0  0  0  0  0  0
   15.7882  -18.8883    2.7571 C   0  0  0  0  0  0  0  0  0  0  0  0
   14.6167  -19.2339    2.4877 O   0  0  0  0  0  0  0  0  0  0  0  0
   16.0055  -17.7946    3.7384 C   0  0  0  0  0  0  0  0  0  0  0  0
   17.4772  -17.5890    4.0091 C   0  0  0  0  0  0  0  0  0  0  0  0
   17.7445  -16.4764    4.9869 C   0  0  2  0  0  0  0  0  0  0  0  0
   17.8609  -15.2648    4.2210 N   0  0  0  0  0  0  0  0  0  0  0  0
   18.9648  -16.8124    5.7540 C   0  0  0  0  0  0  0  0  0  0  0  0
   20.0158  -16.7647    5.0506 O   0  0  0  0  0  0  0  0  0  0  0  0
   19.0171  -17.1519    7.0921 N   0  0  0  0  0  0  0  0  0  0  0  0
   20.2449  -17.4222    7.8074 C   0  0  1  0  0  0  0  0  0  0  0  0
   20.2878  -16.4359    8.9434 C   0  0  0  0  0  0  0  0  0  0  0  0
   21.0383  -15.1701    8.6732 C   0  0  0  0  0  0  0  0  0  0  0  0
   21.0031  -14.3783    9.9781 C   0  0  0  0  0  0  0  0  0  0  0  0
   21.6559  -13.0303    9.8166 C   0  0  0  0  0  0  0  0  0  0  0  0
   21.6601  -12.3368   11.0920 N   0  0  0  0  0  0  0  0  0  0  0  0
   20.3392  -18.8248    8.2721 C   0  0  0  0  0  0  0  0  0  0  0  0
   19.3901  -19.6303    8.3405 O   0  0  0  0  0  0  0  0  0  0  0  0
   21.5804  -19.3530    8.6825 O   0  0  0  0  0  0  0  0  0  0  0  0
  2  1  1  0
  3 11  1  0
  3  2  1  0
  4  3  2  0
  6  5  1  0
  7  6  2  0
  8  6  1  0
 10  9  1  6
  9  8  1  0
 10 12  1  0
 10 11  1  0
 12 14  1  0
 13 12  2  0
 14 15  1  0
 15 21  1  0
 15 16  1  1
 16 17  1  0
 18 19  1  0
 18 17  1  0
 19 20  1  0
 21 23  1  0
 22 21  2  0
M  END
$$$$
