GQK.pdb
     RDKit          3D

 23 22  0  0  1  0  0  0  0  0999 V2000
   17.6395  -12.1552  -11.0878 N   0  0  0  0  0  0  0  0  0  0  0  0
   17.1970  -11.4862  -12.2696 C   0  0  0  0  0  0  0  0  0  0  0  0
   16.4055  -10.2655  -12.0025 C   0  0  0  0  0  0  0  0  0  0  0  0
   16.1389   -9.5319  -12.9945 O   0  0  0  0  0  0  0  0  0  0  0  0
   12.1168   -9.6594   -7.6798 N   0  0  0  0  0  0  0  0  0  0  0  0
   11.8703  -10.1293   -8.9811 C   0  0  0  0  0  0  0  0  0  0  0  0
   10.8144  -10.7388   -9.2609 O   0  0  0  0  0  0  0  0  0  0  0  0
   12.8739   -9.9044  -10.0529 C   0  0  0  0  0  0  0  0  0  0  0  0
   14.0412   -9.0915   -9.5452 C   0  0  0  0  0  0  0  0  0  0  0  0
   15.0287   -8.7434  -10.6264 C   0  0  2  0  0  0  0  0  0  0  0  0
   15.9295   -9.8582  -10.7456 N   0  0  0  0  0  0  0  0  0  0  0  0
   15.6989   -7.4768  -10.2562 C   0  0  0  0  0  0  0  0  0  0  0  0
   16.5893   -7.6328   -9.3706 O   0  0  0  0  0  0  0  0  0  0  0  0
   15.4261   -6.2283  -10.7810 N   0  0  0  0  0  0  0  0  0  0  0  0
   16.1012   -5.0167  -10.3705 C   0  0  1  0  0  0  0  0  0  0  0  0
   16.1906   -4.1552  -11.6014 C   0  0  0  0  0  0  0  0  0  0  0  0
   16.7942   -2.8010  -11.4009 C   0  0  0  0  0  0  0  0  0  0  0  0
   16.8001   -2.1397  -12.7769 C   0  0  0  0  0  0  0  0  0  0  0  0
   17.3344   -0.7330  -12.7044 C   0  0  0  0  0  0  0  0  0  0  0  0
   17.2297   -0.1058  -14.0095 N   0  0  0  0  0  0  0  0  0  0  0  0
   15.4172   -4.3325   -9.2497 C   0  0  0  0  0  0  0  0  0  0  0  0
   14.1944   -4.3789   -9.0111 O   0  0  0  0  0  0  0  0  0  0  0  0
   16.1574   -3.5498   -8.3401 O   0  0  0  0  0  0  0  0  0  0  0  0
  2  1  1  0
  3 11  1  0
  3  2  1  0
  4  3  2  0
  6  5  1  0
  7  6  2  0
  8  6  1  0
 10  9  1  1
  9  8  1  0
 10 12  1  0
 10 11  1  0
 12 14  1  0
 13 12  2  0
 14 15  1  0
 15 21  1  0
 15 16  1  6
 16 17  1  0
 18 19  1  0
 18 17  1  0
 19 20  1  0
 21 23  1  0
 22 21  2  0
M  END
$$$$
