GQK.pdb
     RDKit          3D

 23 22  0  0  1  0  0  0  0  0999 V2000
   17.6290  -11.9167  -15.8582 N   0  0  0  0  0  0  0  0  0  0  0  0
   17.0557  -10.6807  -15.4296 C   0  0  0  0  0  0  0  0  0  0  0  0
   17.7007  -10.1098  -14.2271 C   0  0  0  0  0  0  0  0  0  0  0  0
   17.4852  -10.6991  -13.1319 O   0  0  0  0  0  0  0  0  0  0  0  0
   22.1017   -5.6712  -13.7200 N   0  0  0  0  0  0  0  0  0  0  0  0
   21.7435   -5.8616  -12.3745 C   0  0  0  0  0  0  0  0  0  0  0  0
   22.3070   -5.2244  -11.4574 O   0  0  0  0  0  0  0  0  0  0  0  0
   20.6777   -6.8342  -12.0218 C   0  0  0  0  0  0  0  0  0  0  0  0
   20.0949   -7.4771  -13.2581 C   0  0  0  0  0  0  0  0  0  0  0  0
   18.9366   -8.3892  -12.9551 C   0  0  2  0  0  0  0  0  0  0  0  0
   18.5270   -8.9745  -14.2033 N   0  0  0  0  0  0  0  0  0  0  0  0
   17.8760   -7.5939  -12.2970 C   0  0  0  0  0  0  0  0  0  0  0  0
   17.2724   -6.8220  -13.0978 O   0  0  0  0  0  0  0  0  0  0  0  0
   17.5355   -7.6411  -10.9589 N   0  0  0  0  0  0  0  0  0  0  0  0
   16.5321   -6.7939  -10.3525 C   0  0  1  0  0  0  0  0  0  0  0  0
   15.4641   -7.7209   -9.8373 C   0  0  0  0  0  0  0  0  0  0  0  0
   14.3306   -7.0637   -9.1149 C   0  0  0  0  0  0  0  0  0  0  0  0
   13.4113   -8.1964   -8.6645 C   0  0  0  0  0  0  0  0  0  0  0  0
   12.2403   -7.6688   -7.8772 C   0  0  0  0  0  0  0  0  0  0  0  0
   11.4128   -8.7771   -7.4360 N   0  0  0  0  0  0  0  0  0  0  0  0
   17.0850   -5.9224   -9.2910 C   0  0  0  0  0  0  0  0  0  0  0  0
   18.1626   -6.1061   -8.6915 O   0  0  0  0  0  0  0  0  0  0  0  0
   16.3812   -4.7713   -8.8816 O   0  0  0  0  0  0  0  0  0  0  0  0
  2  1  1  0
  3 11  1  0
  3  2  1  0
  4  3  2  0
  6  5  1  0
  7  6  2  0
  8  6  1  0
 10  9  1  6
  9  8  1  0
 10 12  1  0
 10 11  1  0
 12 14  1  0
 13 12  2  0
 14 15  1  0
 15 21  1  0
 15 16  1  1
 16 17  1  0
 18 19  1  0
 18 17  1  0
 19 20  1  0
 21 23  1  0
 22 21  2  0
M  END
$$$$
