GQK.pdb
     RDKit          3D

 23 22  0  0  1  0  0  0  0  0999 V2000
   15.0521  -13.1559  -13.8944 N   0  0  0  0  0  0  0  0  0  0  0  0
   15.4045  -12.2883  -14.9728 C   0  0  0  0  0  0  0  0  0  0  0  0
   15.8312  -10.9403  -14.5382 C   0  0  0  0  0  0  0  0  0  0  0  0
   16.1051  -10.1094  -15.4480 O   0  0  0  0  0  0  0  0  0  0  0  0
   15.5407   -8.1872   -8.8764 N   0  0  0  0  0  0  0  0  0  0  0  0
   14.4421   -8.3246   -9.7419 C   0  0  0  0  0  0  0  0  0  0  0  0
   13.2751   -8.1081   -9.3473 O   0  0  0  0  0  0  0  0  0  0  0  0
   14.6574   -8.7337  -11.1536 C   0  0  0  0  0  0  0  0  0  0  0  0
   16.1247   -8.9453  -11.4425 C   0  0  0  0  0  0  0  0  0  0  0  0
   16.4077   -9.1807  -12.9019 C   0  0  2  0  0  0  0  0  0  0  0  0
   15.9557  -10.5116  -13.2067 N   0  0  0  0  0  0  0  0  0  0  0  0
   17.8551   -8.9783  -13.1352 C   0  0  0  0  0  0  0  0  0  0  0  0
   18.5694   -9.8732  -12.5962 O   0  0  0  0  0  0  0  0  0  0  0  0
   18.4271   -7.9447  -13.8515 N   0  0  0  0  0  0  0  0  0  0  0  0
   19.8503   -7.8068  -14.0698 C   0  0  1  0  0  0  0  0  0  0  0  0
   20.0632   -8.0012  -15.5470 C   0  0  0  0  0  0  0  0  0  0  0  0
   21.4851   -7.9428  -16.0089 C   0  0  0  0  0  0  0  0  0  0  0  0
   21.4420   -8.1645  -17.5189 C   0  0  0  0  0  0  0  0  0  0  0  0
   22.8275   -8.1661  -18.1103 C   0  0  0  0  0  0  0  0  0  0  0  0
   22.7372   -8.1475  -19.5591 N   0  0  0  0  0  0  0  0  0  0  0  0
   20.3800   -6.5110  -13.5877 C   0  0  0  0  0  0  0  0  0  0  0  0
   19.7632   -5.4276  -13.5981 O   0  0  0  0  0  0  0  0  0  0  0  0
   21.6846   -6.4317  -13.0587 O   0  0  0  0  0  0  0  0  0  0  0  0
  2  1  1  0
  3 11  1  0
  3  2  1  0
  4  3  2  0
  6  5  1  0
  7  6  2  0
  8  6  1  0
 10  9  1  1
  9  8  1  0
 10 12  1  0
 10 11  1  0
 12 14  1  0
 13 12  2  0
 14 15  1  0
 15 21  1  0
 15 16  1  6
 16 17  1  0
 18 19  1  0
 18 17  1  0
 19 20  1  0
 21 23  1  0
 22 21  2  0
M  END
$$$$
