GQK.pdb
     RDKit          3D

 23 22  0  0  1  0  0  0  0  0999 V2000
   22.2076  -20.7263  -15.1096 N   0  0  0  0  0  0  0  0  0  0  0  0
   21.8675  -19.7055  -16.0489 C   0  0  0  0  0  0  0  0  0  0  0  0
   22.2482  -18.3441  -15.6134 C   0  0  0  0  0  0  0  0  0  0  0  0
   21.5536  -17.8250  -14.6962 O   0  0  0  0  0  0  0  0  0  0  0  0
   27.7392  -15.8424  -16.2888 N   0  0  0  0  0  0  0  0  0  0  0  0
   27.3418  -16.7628  -15.3040 C   0  0  0  0  0  0  0  0  0  0  0  0
   28.1827  -17.4421  -14.6747 O   0  0  0  0  0  0  0  0  0  0  0  0
   25.8998  -16.9415  -14.9954 C   0  0  0  0  0  0  0  0  0  0  0  0
   25.0455  -16.0092  -15.8213 C   0  0  0  0  0  0  0  0  0  0  0  0
   23.5709  -16.2572  -15.6496 C   0  0  2  0  0  0  0  0  0  0  0  0
   23.3110  -17.5868  -16.1324 N   0  0  0  0  0  0  0  0  0  0  0  0
   22.8323  -15.2052  -16.3833 C   0  0  0  0  0  0  0  0  0  0  0  0
   22.7863  -15.4160  -17.6303 O   0  0  0  0  0  0  0  0  0  0  0  0
   22.2376  -14.0896  -15.8263 N   0  0  0  0  0  0  0  0  0  0  0  0
   21.5838  -13.0552  -16.5976 C   0  0  1  0  0  0  0  0  0  0  0  0
   20.3529  -12.6744  -15.8197 C   0  0  0  0  0  0  0  0  0  0  0  0
   19.5146  -11.5925  -16.4242 C   0  0  0  0  0  0  0  0  0  0  0  0
   18.3271  -11.4103  -15.4821 C   0  0  0  0  0  0  0  0  0  0  0  0
   17.4245  -10.2987  -15.9500 C   0  0  0  0  0  0  0  0  0  0  0  0
   16.2741  -10.2039  -15.0696 N   0  0  0  0  0  0  0  0  0  0  0  0
   22.4659  -11.8962  -16.8637 C   0  0  0  0  0  0  0  0  0  0  0  0
   22.2239  -10.9707  -17.6632 O   0  0  0  0  0  0  0  0  0  0  0  0
   23.6954  -11.7713  -16.1851 O   0  0  0  0  0  0  0  0  0  0  0  0
  2  1  1  0
  3 11  1  0
  3  2  1  0
  4  3  2  0
  6  5  1  0
  7  6  2  0
  8  6  1  0
 10  9  1  6
  9  8  1  0
 10 12  1  0
 10 11  1  0
 12 14  1  0
 13 12  2  0
 14 15  1  0
 15 21  1  0
 15 16  1  1
 16 17  1  0
 18 19  1  0
 18 17  1  0
 19 20  1  0
 21 23  1  0
 22 21  2  0
M  END
$$$$
