GQK.pdb
     RDKit          3D

 23 22  0  0  1  0  0  0  0  0999 V2000
   21.4028  -29.0015  -12.3009 N   0  0  0  0  0  0  0  0  0  0  0  0
   20.9870  -27.9794  -13.2077 C   0  0  0  0  0  0  0  0  0  0  0  0
   20.6184  -26.7091  -12.5456 C   0  0  0  0  0  0  0  0  0  0  0  0
   20.6146  -26.7055  -11.2834 O   0  0  0  0  0  0  0  0  0  0  0  0
   20.7868  -20.9808  -14.9667 N   0  0  0  0  0  0  0  0  0  0  0  0
   20.4839  -20.7061  -13.6222 C   0  0  0  0  0  0  0  0  0  0  0  0
   20.5115  -19.5373  -13.1774 O   0  0  0  0  0  0  0  0  0  0  0  0
   20.1228  -21.8150  -12.7023 C   0  0  0  0  0  0  0  0  0  0  0  0
   20.2758  -23.1567  -13.3788 C   0  0  0  0  0  0  0  0  0  0  0  0
   20.0163  -24.3143  -12.4525 C   0  0  2  0  0  0  0  0  0  0  0  0
   20.2748  -25.5152  -13.2005 N   0  0  0  0  0  0  0  0  0  0  0  0
   18.6254  -24.2127  -11.9568 C   0  0  0  0  0  0  0  0  0  0  0  0
   17.7651  -24.4193  -12.8616 O   0  0  0  0  0  0  0  0  0  0  0  0
   18.2424  -23.9242  -10.6612 N   0  0  0  0  0  0  0  0  0  0  0  0
   16.8650  -23.8442  -10.2270 C   0  0  1  0  0  0  0  0  0  0  0  0
   16.9007  -23.9049   -8.7236 C   0  0  0  0  0  0  0  0  0  0  0  0
   17.1526  -25.2578   -8.1365 C   0  0  0  0  0  0  0  0  0  0  0  0
   17.2122  -25.0515   -6.6250 C   0  0  0  0  0  0  0  0  0  0  0  0
   17.4143  -26.3582   -5.9031 C   0  0  0  0  0  0  0  0  0  0  0  0
   17.5793  -26.1078   -4.4826 N   0  0  0  0  0  0  0  0  0  0  0  0
   16.1767  -22.6329  -10.7281 C   0  0  0  0  0  0  0  0  0  0  0  0
   16.7353  -21.6397  -11.2339 O   0  0  0  0  0  0  0  0  0  0  0  0
   14.7719  -22.5360  -10.6571 O   0  0  0  0  0  0  0  0  0  0  0  0
  2  1  1  0
  3 11  1  0
  3  2  1  0
  4  3  2  0
  6  5  1  0
  7  6  2  0
  8  6  1  0
 10  9  1  6
  9  8  1  0
 10 12  1  0
 10 11  1  0
 12 14  1  0
 13 12  2  0
 14 15  1  0
 15 21  1  0
 15 16  1  1
 16 17  1  0
 18 19  1  0
 18 17  1  0
 19 20  1  0
 21 23  1  0
 22 21  2  0
M  END
$$$$
