GQK.pdb
     RDKit          3D

 23 22  0  0  1  0  0  0  0  0999 V2000
   19.5820  -14.1286  -16.6934 N   0  0  0  0  0  0  0  0  0  0  0  0
   19.9958  -12.9075  -16.0789 C   0  0  0  0  0  0  0  0  0  0  0  0
   19.0824  -11.7724  -16.3342 C   0  0  0  0  0  0  0  0  0  0  0  0
   19.0761  -11.2991  -17.5043 O   0  0  0  0  0  0  0  0  0  0  0  0
   13.8041  -10.2554  -13.5493 N   0  0  0  0  0  0  0  0  0  0  0  0
   13.9325  -11.1165  -14.6524 C   0  0  0  0  0  0  0  0  0  0  0  0
   13.0077  -11.8925  -14.9798 O   0  0  0  0  0  0  0  0  0  0  0  0
   15.1840  -11.1147  -15.4525 C   0  0  0  0  0  0  0  0  0  0  0  0
   16.1741  -10.1091  -14.9141 C   0  0  0  0  0  0  0  0  0  0  0  0
   17.4355  -10.0315  -15.7316 C   0  0  2  0  0  0  0  0  0  0  0  0
   18.2277  -11.1819  -15.3891 N   0  0  0  0  0  0  0  0  0  0  0  0
   18.1030   -8.7435  -15.4387 C   0  0  0  0  0  0  0  0  0  0  0  0
   18.7655   -8.7676  -14.3607 O   0  0  0  0  0  0  0  0  0  0  0  0
   18.0459   -7.6023  -16.2152 N   0  0  0  0  0  0  0  0  0  0  0  0
   18.7332   -6.3717  -15.8906 C   0  0  1  0  0  0  0  0  0  0  0  0
   19.0658   -5.7235  -17.2076 C   0  0  0  0  0  0  0  0  0  0  0  0
   19.7933   -4.4190  -17.1212 C   0  0  0  0  0  0  0  0  0  0  0  0
   20.1314   -4.0346  -18.5596 C   0  0  0  0  0  0  0  0  0  0  0  0
   20.8232   -2.6977  -18.6192 C   0  0  0  0  0  0  0  0  0  0  0  0
   20.9234   -2.2640  -20.0010 N   0  0  0  0  0  0  0  0  0  0  0  0
   17.9370   -5.4871  -15.0099 C   0  0  0  0  0  0  0  0  0  0  0  0
   16.6936   -5.4843  -14.9195 O   0  0  0  0  0  0  0  0  0  0  0  0
   18.5822   -4.5494  -14.1777 O   0  0  0  0  0  0  0  0  0  0  0  0
  2  1  1  0
  3 11  1  0
  3  2  1  0
  4  3  2  0
  6  5  1  0
  7  6  2  0
  8  6  1  0
 10  9  1  1
  9  8  1  0
 10 12  1  0
 10 11  1  0
 12 14  1  0
 13 12  2  0
 14 15  1  0
 15 21  1  0
 15 16  1  6
 16 17  1  0
 18 19  1  0
 18 17  1  0
 19 20  1  0
 21 23  1  0
 22 21  2  0
M  END
$$$$
