SNL.pdb
     RDKit          3D

 23 22  0  0  1  0  0  0  0  0999 V2000
    7.1389  -15.0181   17.7713 O   0  0  0  0  0  0  0  0  0  0  0  0
    8.4886  -15.3249   17.9373 C   0  0  0  0  0  0  0  0  0  0  0  0
    9.0458  -14.7253   19.2079 C   0  0  2  0  0  0  0  0  0  0  0  0
   10.4425  -15.0925   19.3111 N   0  0  0  0  0  0  0  0  0  0  0  0
    8.2904  -15.2277   20.4098 C   0  0  0  0  0  0  0  0  0  0  0  0
    7.0934  -14.9152   20.5865 O   0  0  0  0  0  0  0  0  0  0  0  0
    7.3277  -18.4727   20.7111 N   0  0  0  0  0  0  0  0  0  0  0  0
    8.1652  -18.9416   21.7310 C   0  0  0  0  0  0  0  0  0  0  0  0
    8.4201  -20.1841   21.7722 O   0  0  0  0  0  0  0  0  0  0  0  0
    8.7736  -18.0708   22.7686 C   0  0  0  0  0  0  0  0  0  0  0  0
    8.4279  -16.6013   22.5745 C   0  0  2  0  0  0  0  0  0  0  0  0
    8.9388  -16.0520   21.3352 N   0  0  0  0  0  0  0  0  0  0  0  0
    8.8822  -15.7860   23.7241 C   0  0  0  0  0  0  0  0  0  0  0  0
   10.0996  -15.3905   23.8026 O   0  0  0  0  0  0  0  0  0  0  0  0
    5.8695  -11.8940   26.3129 C   0  0  0  0  0  0  0  0  0  0  0  0
    7.0130  -12.6626   25.5658 C   0  0  1  0  0  0  0  0  0  0  0  0
    8.0686  -11.5695   25.3697 C   0  0  0  0  0  0  0  0  0  0  0  0
    7.4736  -13.7761   26.4291 C   0  0  0  0  0  0  0  0  0  0  0  0
    8.5423  -14.6509   25.9146 C   0  0  2  0  0  0  0  0  0  0  0  0
    7.9859  -15.4272   24.7564 N   0  0  0  0  0  0  0  0  0  0  0  0
    9.1893  -15.6094   26.8039 C   0  0  0  0  0  0  0  0  0  0  0  0
    8.8648  -16.8520   26.6657 O   0  0  0  0  0  0  0  0  0  0  0  0
   10.1325  -15.3313   27.7875 O   0  0  0  0  0  0  0  0  0  0  0  0
  2  3  1  0
  2  1  1  0
  3  5  1  0
  3  4  1  1
  5  6  2  0
  7  8  1  0
  8 10  1  0
  9  8  2  0
 11 10  1  1
 11 13  1  0
 12 11  1  0
 12  5  1  0
 13 20  1  0
 14 13  2  0
 16 17  1  1
 16 15  1  0
 18 16  1  0
 19 18  1  1
 20 19  1  0
 21 23  1  0
 21 19  1  0
 22 21  2  0
M  END
$$$$
