SNL.pdb
     RDKit          3D

 23 22  0  0  1  0  0  0  0  0999 V2000
    9.5137  -12.3962   19.9499 O   0  0  0  0  0  0  0  0  0  0  0  0
    8.4375  -12.6505   19.1013 C   0  0  0  0  0  0  0  0  0  0  0  0
    8.2375  -14.1324   18.8811 C   0  0  2  0  0  0  0  0  0  0  0  0
    7.1110  -14.3130   17.9897 N   0  0  0  0  0  0  0  0  0  0  0  0
    7.9790  -14.8348   20.1877 C   0  0  0  0  0  0  0  0  0  0  0  0
    6.8350  -14.8442   20.6907 O   0  0  0  0  0  0  0  0  0  0  0  0
   10.8239  -18.7195   20.1212 N   0  0  0  0  0  0  0  0  0  0  0  0
    9.8613  -18.3801   21.0802 C   0  0  0  0  0  0  0  0  0  0  0  0
    8.7519  -18.9958   21.0583 O   0  0  0  0  0  0  0  0  0  0  0  0
   10.0613  -17.3416   22.1225 C   0  0  0  0  0  0  0  0  0  0  0  0
    9.0026  -16.2493   22.0700 C   0  0  2  0  0  0  0  0  0  0  0  0
    9.0325  -15.4820   20.8416 N   0  0  0  0  0  0  0  0  0  0  0  0
    9.1012  -15.3487   23.2413 C   0  0  0  0  0  0  0  0  0  0  0  0
   10.0656  -14.5090   23.3391 O   0  0  0  0  0  0  0  0  0  0  0  0
    7.7215  -11.4328   26.3069 C   0  0  0  0  0  0  0  0  0  0  0  0
    6.9092  -12.7226   26.6720 C   0  0  1  0  0  0  0  0  0  0  0  0
    5.4901  -12.1750   26.8551 C   0  0  0  0  0  0  0  0  0  0  0  0
    7.0273  -13.6859   25.5516 C   0  0  0  0  0  0  0  0  0  0  0  0
    8.2938  -14.4259   25.4090 C   0  0  2  0  0  0  0  0  0  0  0  0
    8.1368  -15.3954   24.2735 N   0  0  0  0  0  0  0  0  0  0  0  0
    8.8317  -15.1727   26.5409 C   0  0  0  0  0  0  0  0  0  0  0  0
    9.6408  -14.5455   27.3285 O   0  0  0  0  0  0  0  0  0  0  0  0
    8.5599  -16.4956   26.8736 O   0  0  0  0  0  0  0  0  0  0  0  0
  2  3  1  0
  2  1  1  0
  3  5  1  0
  3  4  1  6
  5  6  2  0
  7  8  1  0
  8 10  1  0
  9  8  2  0
 11 10  1  6
 11 13  1  0
 12 11  1  0
 12  5  1  0
 13 20  1  0
 14 13  2  0
 16 17  1  6
 16 15  1  0
 18 16  1  0
 19 18  1  1
 20 19  1  0
 21 23  1  0
 21 19  1  0
 22 21  2  0
M  END
$$$$
