SNL.pdb
     RDKit          3D

 23 22  0  0  1  0  0  0  0  0999 V2000
    9.3036  -14.2024   20.3723 O   0  0  0  0  0  0  0  0  0  0  0  0
    8.3882  -14.7523   19.4763 C   0  0  0  0  0  0  0  0  0  0  0  0
    8.0188  -16.1685   19.8535 C   0  0  2  0  0  0  0  0  0  0  0  0
    7.1061  -16.6832   18.8543 N   0  0  0  0  0  0  0  0  0  0  0  0
    7.3704  -16.2059   21.2121 C   0  0  0  0  0  0  0  0  0  0  0  0
    6.2404  -15.7040   21.3929 O   0  0  0  0  0  0  0  0  0  0  0  0
    5.3684  -19.0784   23.6438 N   0  0  0  0  0  0  0  0  0  0  0  0
    6.7507  -19.3001   23.6023 C   0  0  0  0  0  0  0  0  0  0  0  0
    7.1708  -20.3544   23.0345 O   0  0  0  0  0  0  0  0  0  0  0  0
    7.7555  -18.3742   24.1838 C   0  0  0  0  0  0  0  0  0  0  0  0
    7.6153  -16.9534   23.6560 C   0  0  2  0  0  0  0  0  0  0  0  0
    8.0432  -16.8094   22.2795 N   0  0  0  0  0  0  0  0  0  0  0  0
    8.3297  -15.9862   24.5203 C   0  0  0  0  0  0  0  0  0  0  0  0
    9.5745  -15.7404   24.3339 O   0  0  0  0  0  0  0  0  0  0  0  0
    5.8057  -11.6323   26.6035 C   0  0  0  0  0  0  0  0  0  0  0  0
    6.7671  -12.6313   25.8724 C   0  0  1  0  0  0  0  0  0  0  0  0
    7.5632  -11.7033   24.9491 C   0  0  0  0  0  0  0  0  0  0  0  0
    7.6057  -13.3077   26.8905 C   0  0  0  0  0  0  0  0  0  0  0  0
    8.4728  -14.4132   26.4459 C   0  0  2  0  0  0  0  0  0  0  0  0
    7.6563  -15.3153   25.5663 N   0  0  0  0  0  0  0  0  0  0  0  0
    9.1365  -15.2593   27.4317 C   0  0  0  0  0  0  0  0  0  0  0  0
    8.7238  -16.4790   27.5333 O   0  0  0  0  0  0  0  0  0  0  0  0
   10.1805  -14.8964   28.2761 O   0  0  0  0  0  0  0  0  0  0  0  0
  2  3  1  0
  2  1  1  0
  3  5  1  0
  3  4  1  6
  5  6  2  0
  7  8  1  0
  8 10  1  0
  9  8  2  0
 11 10  1  1
 11 13  1  0
 12 11  1  0
 12  5  1  0
 13 20  1  0
 14 13  2  0
 16 17  1  6
 16 15  1  0
 18 16  1  0
 19 18  1  1
 20 19  1  0
 21 23  1  0
 21 19  1  0
 22 21  2  0
M  END
$$$$
