SNL.pdb
     RDKit          3D

 23 22  0  0  1  0  0  0  0  0999 V2000
    6.2467  -15.7849   22.0895 O   0  0  0  0  0  0  0  0  0  0  0  0
    6.9705  -15.2068   21.0478 C   0  0  0  0  0  0  0  0  0  0  0  0
    7.9956  -16.1625   20.4820 C   0  0  2  0  0  0  0  0  0  0  0  0
    7.2955  -17.2335   19.8044 N   0  0  0  0  0  0  0  0  0  0  0  0
    8.8615  -16.7250   21.5780 C   0  0  0  0  0  0  0  0  0  0  0  0
    8.7030  -17.8988   21.9764 O   0  0  0  0  0  0  0  0  0  0  0  0
   13.3842  -17.2253   21.8063 N   0  0  0  0  0  0  0  0  0  0  0  0
   12.9060  -15.9211   21.9853 C   0  0  0  0  0  0  0  0  0  0  0  0
   13.1905  -15.0533   21.1042 O   0  0  0  0  0  0  0  0  0  0  0  0
   12.0851  -15.4924   23.1460 C   0  0  0  0  0  0  0  0  0  0  0  0
   10.7623  -16.2402   23.2344 C   0  0  2  0  0  0  0  0  0  0  0  0
    9.8518  -15.9222   22.1534 N   0  0  0  0  0  0  0  0  0  0  0  0
   10.1051  -16.0169   24.5425 C   0  0  0  0  0  0  0  0  0  0  0  0
   10.7112  -16.3071   25.6348 O   0  0  0  0  0  0  0  0  0  0  0  0
    8.6372  -12.5646   27.0027 C   0  0  0  0  0  0  0  0  0  0  0  0
    7.2676  -13.3226   27.0823 C   0  0  1  0  0  0  0  0  0  0  0  0
    6.2536  -12.1808   26.9576 C   0  0  0  0  0  0  0  0  0  0  0  0
    7.2008  -14.2925   25.9633 C   0  0  0  0  0  0  0  0  0  0  0  0
    8.1530  -15.4173   25.9680 C   0  0  2  0  0  0  0  0  0  0  0  0
    8.7994  -15.4806   24.6145 N   0  0  0  0  0  0  0  0  0  0  0  0
    7.6881  -16.7630   26.2859 C   0  0  0  0  0  0  0  0  0  0  0  0
    7.1745  -17.4513   25.3211 O   0  0  0  0  0  0  0  0  0  0  0  0
    7.7454  -17.3959   27.5232 O   0  0  0  0  0  0  0  0  0  0  0  0
  2  3  1  0
  2  1  1  0
  3  5  1  0
  3  4  1  1
  5  6  2  0
  7  8  1  0
  8 10  1  0
  9  8  2  0
 11 10  1  1
 11 13  1  0
 12 11  1  0
 12  5  1  0
 13 20  1  0
 14 13  2  0
 16 17  1  6
 16 15  1  0
 18 16  1  0
 19 18  1  6
 20 19  1  0
 21 23  1  0
 21 19  1  0
 22 21  2  0
M  END
$$$$
