SNL.pdb
     RDKit          3D

 23 22  0  0  1  0  0  0  0  0999 V2000
    4.4944  -18.9075   23.7877 O   0  0  0  0  0  0  0  0  0  0  0  0
    5.7662  -18.3426   23.8692 C   0  0  0  0  0  0  0  0  0  0  0  0
    6.4984  -18.4217   22.5494 C   0  0  2  0  0  0  0  0  0  0  0  0
    6.3580  -19.7659   22.0299 N   0  0  0  0  0  0  0  0  0  0  0  0
    7.9558  -18.0876   22.7279 C   0  0  0  0  0  0  0  0  0  0  0  0
    8.7784  -18.9732   23.0453 O   0  0  0  0  0  0  0  0  0  0  0  0
    9.2837  -15.5867   19.3333 N   0  0  0  0  0  0  0  0  0  0  0  0
   10.2345  -15.7415   20.3500 C   0  0  0  0  0  0  0  0  0  0  0  0
   11.2803  -16.4132   20.0938 O   0  0  0  0  0  0  0  0  0  0  0  0
   10.0920  -15.1662   21.7115 C   0  0  0  0  0  0  0  0  0  0  0  0
    9.7070  -16.2103   22.7499 C   0  0  2  0  0  0  0  0  0  0  0  0
    8.3888  -16.7716   22.5357 N   0  0  0  0  0  0  0  0  0  0  0  0
    9.8182  -15.6685   24.1235 C   0  0  0  0  0  0  0  0  0  0  0  0
   10.9370  -15.2167   24.5579 O   0  0  0  0  0  0  0  0  0  0  0  0
    6.0322  -12.6375   26.2649 C   0  0  0  0  0  0  0  0  0  0  0  0
    7.4257  -13.2108   25.8334 C   0  0  1  0  0  0  0  0  0  0  0  0
    8.3338  -11.9817   25.9432 C   0  0  0  0  0  0  0  0  0  0  0  0
    7.7961  -14.3003   26.7678 C   0  0  0  0  0  0  0  0  0  0  0  0
    8.9200  -15.1772   26.3938 C   0  0  2  0  0  0  0  0  0  0  0  0
    8.6962  -15.6380   24.9826 N   0  0  0  0  0  0  0  0  0  0  0  0
    9.2150  -16.3623   27.1916 C   0  0  0  0  0  0  0  0  0  0  0  0
    9.4922  -16.1774   28.4395 O   0  0  0  0  0  0  0  0  0  0  0  0
    9.2221  -17.6828   26.7545 O   0  0  0  0  0  0  0  0  0  0  0  0
  2  3  1  0
  2  1  1  0
  3  5  1  0
  3  4  1  1
  5  6  2  0
  7  8  1  0
  8 10  1  0
  9  8  2  0
 11 10  1  6
 11 13  1  0
 12 11  1  0
 12  5  1  0
 13 20  1  0
 14 13  2  0
 16 17  1  1
 16 15  1  0
 18 16  1  0
 19 18  1  1
 20 19  1  0
 21 23  1  0
 21 19  1  0
 22 21  2  0
M  END
$$$$
