SNL.pdb
     RDKit          3D

 23 22  0  0  1  0  0  0  0  0999 V2000
    7.5945  -17.8471   18.4166 O   0  0  0  0  0  0  0  0  0  0  0  0
    7.1844  -16.5155   18.4579 C   0  0  0  0  0  0  0  0  0  0  0  0
    8.0189  -15.7034   19.4216 C   0  0  2  0  0  0  0  0  0  0  0  0
    9.4056  -15.7988   19.0163 N   0  0  0  0  0  0  0  0  0  0  0  0
    7.8566  -16.2149   20.8285 C   0  0  0  0  0  0  0  0  0  0  0  0
    6.7245  -16.2911   21.3522 O   0  0  0  0  0  0  0  0  0  0  0  0
    8.9716  -20.5280   22.9864 N   0  0  0  0  0  0  0  0  0  0  0  0
    9.6863  -19.4930   22.3703 C   0  0  0  0  0  0  0  0  0  0  0  0
   10.0084  -19.6317   21.1507 O   0  0  0  0  0  0  0  0  0  0  0  0
   10.0904  -18.2414   23.0597 C   0  0  0  0  0  0  0  0  0  0  0  0
    9.0629  -17.1295   22.9021 C   0  0  2  0  0  0  0  0  0  0  0  0
    8.9868  -16.6076   21.5529 N   0  0  0  0  0  0  0  0  0  0  0  0
    9.3075  -16.0315   23.8651 C   0  0  0  0  0  0  0  0  0  0  0  0
   10.4836  -15.5416   24.0108 O   0  0  0  0  0  0  0  0  0  0  0  0
    7.0754  -12.6604   24.2259 C   0  0  0  0  0  0  0  0  0  0  0  0
    7.2644  -12.5851   25.7800 C   0  0  1  0  0  0  0  0  0  0  0  0
    5.9615  -11.9208   26.2367 C   0  0  0  0  0  0  0  0  0  0  0  0
    7.4355  -13.9625   26.3005 C   0  0  0  0  0  0  0  0  0  0  0  0
    8.6236  -14.7201   25.8689 C   0  0  2  0  0  0  0  0  0  0  0  0
    8.2523  -15.5016   24.6420 N   0  0  0  0  0  0  0  0  0  0  0  0
    9.2694  -15.6481   26.7908 C   0  0  0  0  0  0  0  0  0  0  0  0
   10.2883  -15.2077   27.4514 O   0  0  0  0  0  0  0  0  0  0  0  0
    8.9001  -16.9646   27.0459 O   0  0  0  0  0  0  0  0  0  0  0  0
  2  3  1  0
  2  1  1  0
  3  5  1  0
  3  4  1  6
  5  6  2  0
  7  8  1  0
  8 10  1  0
  9  8  2  0
 11 10  1  6
 11 13  1  0
 12 11  1  0
 12  5  1  0
 13 20  1  0
 14 13  2  0
 16 17  1  1
 16 15  1  0
 18 16  1  0
 19 18  1  1
 20 19  1  0
 21 23  1  0
 21 19  1  0
 22 21  2  0
M  END
$$$$
