SNL.pdb
     RDKit          3D

 23 22  0  0  1  0  0  0  0  0999 V2000
    8.0389  -16.3161   12.0091 O   0  0  0  0  0  0  0  0  0  0  0  0
    7.8110  -16.4900   13.3733 C   0  0  0  0  0  0  0  0  0  0  0  0
    9.0128  -16.0870   14.1964 C   0  0  2  0  0  0  0  0  0  0  0  0
   10.2081  -16.4932   13.4874 N   0  0  0  0  0  0  0  0  0  0  0  0
    8.9717  -16.7385   15.5534 C   0  0  0  0  0  0  0  0  0  0  0  0
    7.8798  -16.9866   16.1083 O   0  0  0  0  0  0  0  0  0  0  0  0
   12.0303  -20.4243   15.8767 N   0  0  0  0  0  0  0  0  0  0  0  0
   11.2408  -19.8905   16.9030 C   0  0  0  0  0  0  0  0  0  0  0  0
   10.2160  -20.5427   17.2703 O   0  0  0  0  0  0  0  0  0  0  0  0
   11.5313  -18.6054   17.5880 C   0  0  0  0  0  0  0  0  0  0  0  0
   10.3662  -17.6286   17.5166 C   0  0  2  0  0  0  0  0  0  0  0  0
   10.1698  -17.0677   16.1956 N   0  0  0  0  0  0  0  0  0  0  0  0
   10.5094  -16.5474   18.5183 C   0  0  0  0  0  0  0  0  0  0  0  0
   11.0499  -15.4294   18.1983 O   0  0  0  0  0  0  0  0  0  0  0  0
    9.1082  -12.3589   20.2903 C   0  0  0  0  0  0  0  0  0  0  0  0
    8.0808  -13.5351   20.4234 C   0  0  1  0  0  0  0  0  0  0  0  0
    6.8725  -13.0042   19.6451 C   0  0  0  0  0  0  0  0  0  0  0  0
    8.6780  -14.7518   19.8231 C   0  0  0  0  0  0  0  0  0  0  0  0
    9.6762  -15.4925   20.6148 C   0  0  2  0  0  0  0  0  0  0  0  0
   10.0544  -16.7245   19.8447 N   0  0  0  0  0  0  0  0  0  0  0  0
    9.3583  -15.9158   21.9742 C   0  0  0  0  0  0  0  0  0  0  0  0
    9.4268  -15.0186   22.9009 O   0  0  0  0  0  0  0  0  0  0  0  0
    8.9775  -17.1889   22.3851 O   0  0  0  0  0  0  0  0  0  0  0  0
  2  3  1  0
  2  1  1  0
  3  5  1  0
  3  4  1  6
  5  6  2  0
  7  8  1  0
  8 10  1  0
  9  8  2  0
 11 10  1  6
 11 13  1  0
 12 11  1  0
 12  5  1  0
 13 20  1  0
 14 13  2  0
 16 17  1  6
 16 15  1  0
 18 16  1  0
 19 18  1  6
 20 19  1  0
 21 23  1  0
 21 19  1  0
 22 21  2  0
M  END
$$$$
