SNL.pdb
     RDKit          3D

 23 22  0  0  1  0  0  0  0  0999 V2000
   10.1184  -12.9857   19.9987 O   0  0  0  0  0  0  0  0  0  0  0  0
    9.7197  -14.2079   19.4597 C   0  0  0  0  0  0  0  0  0  0  0  0
    8.2153  -14.3528   19.4561 C   0  0  2  0  0  0  0  0  0  0  0  0
    7.6405  -13.1297   18.9366 N   0  0  0  0  0  0  0  0  0  0  0  0
    7.7020  -14.6134   20.8476 C   0  0  0  0  0  0  0  0  0  0  0  0
    7.2159  -13.6872   21.5314 O   0  0  0  0  0  0  0  0  0  0  0  0
    4.7684  -18.7619   22.0036 N   0  0  0  0  0  0  0  0  0  0  0  0
    6.0939  -18.4585   21.6681 C   0  0  0  0  0  0  0  0  0  0  0  0
    6.4643  -18.6414   20.4682 O   0  0  0  0  0  0  0  0  0  0  0  0
    7.0933  -17.9351   22.6337 C   0  0  0  0  0  0  0  0  0  0  0  0
    7.1958  -16.4168   22.6034 C   0  0  2  0  0  0  0  0  0  0  0  0
    7.7720  -15.9065   21.3762 N   0  0  0  0  0  0  0  0  0  0  0  0
    7.9441  -15.9053   23.7744 C   0  0  0  0  0  0  0  0  0  0  0  0
    9.2182  -15.7679   23.7249 O   0  0  0  0  0  0  0  0  0  0  0  0
    5.6207  -12.0753   26.9541 C   0  0  0  0  0  0  0  0  0  0  0  0
    6.5850  -12.8658   26.0043 C   0  0  1  0  0  0  0  0  0  0  0  0
    7.5871  -11.7863   25.5827 C   0  0  0  0  0  0  0  0  0  0  0  0
    7.2021  -13.9717   26.7747 C   0  0  0  0  0  0  0  0  0  0  0  0
    8.0812  -14.9085   26.0526 C   0  0  2  0  0  0  0  0  0  0  0  0
    7.2716  -15.5586   24.9682 N   0  0  0  0  0  0  0  0  0  0  0  0
    8.7617  -15.9748   26.7792 C   0  0  0  0  0  0  0  0  0  0  0  0
    8.3012  -17.1728   26.6337 O   0  0  0  0  0  0  0  0  0  0  0  0
    9.8678  -15.8438   27.6123 O   0  0  0  0  0  0  0  0  0  0  0  0
  2  3  1  0
  2  1  1  0
  3  5  1  0
  3  4  1  1
  5  6  2  0
  7  8  1  0
  8 10  1  0
  9  8  2  0
 11 10  1  6
 11 13  1  0
 12 11  1  0
 12  5  1  0
 13 20  1  0
 14 13  2  0
 16 17  1  1
 16 15  1  0
 18 16  1  0
 19 18  1  1
 20 19  1  0
 21 23  1  0
 21 19  1  0
 22 21  2  0
M  END
$$$$
