SNL.pdb
     RDKit          3D

 23 22  0  0  1  0  0  0  0  0999 V2000
    9.9052  -12.4867   19.0525 O   0  0  0  0  0  0  0  0  0  0  0  0
    9.7947  -13.7001   19.7298 C   0  0  0  0  0  0  0  0  0  0  0  0
    8.4515  -14.3515   19.4936 C   0  0  2  0  0  0  0  0  0  0  0  0
    7.6296  -13.4374   18.7285 N   0  0  0  0  0  0  0  0  0  0  0  0
    7.7801  -14.6771   20.8015 C   0  0  0  0  0  0  0  0  0  0  0  0
    6.8947  -13.9280   21.2672 O   0  0  0  0  0  0  0  0  0  0  0  0
    5.7554  -18.5908   24.3745 N   0  0  0  0  0  0  0  0  0  0  0  0
    7.1141  -18.3876   24.1024 C   0  0  0  0  0  0  0  0  0  0  0  0
    7.9541  -18.6603   25.0137 O   0  0  0  0  0  0  0  0  0  0  0  0
    7.6314  -17.8714   22.8097 C   0  0  0  0  0  0  0  0  0  0  0  0
    7.6224  -16.3508   22.7419 C   0  0  2  0  0  0  0  0  0  0  0  0
    8.1542  -15.8302   21.4991 N   0  0  0  0  0  0  0  0  0  0  0  0
    8.3366  -15.7573   23.8954 C   0  0  0  0  0  0  0  0  0  0  0  0
    9.6078  -15.5921   23.8606 O   0  0  0  0  0  0  0  0  0  0  0  0
    5.4630  -12.3906   27.1329 C   0  0  0  0  0  0  0  0  0  0  0  0
    6.5136  -12.9800   26.1300 C   0  0  1  0  0  0  0  0  0  0  0  0
    7.1440  -11.7163   25.5359 C   0  0  0  0  0  0  0  0  0  0  0  0
    7.4743  -13.8139   26.8909 C   0  0  0  0  0  0  0  0  0  0  0  0
    8.4132  -14.6548   26.1272 C   0  0  2  0  0  0  0  0  0  0  0  0
    7.6339  -15.3612   25.0560 N   0  0  0  0  0  0  0  0  0  0  0  0
    9.2111  -15.6639   26.8151 C   0  0  0  0  0  0  0  0  0  0  0  0
    9.9981  -15.2528   27.7531 O   0  0  0  0  0  0  0  0  0  0  0  0
    9.2113  -17.0341   26.5759 O   0  0  0  0  0  0  0  0  0  0  0  0
  2  3  1  0
  2  1  1  0
  3  5  1  0
  3  4  1  6
  5  6  2  0
  7  8  1  0
  8 10  1  0
  9  8  2  0
 11 10  1  6
 11 13  1  0
 12 11  1  0
 12  5  1  0
 13 20  1  0
 14 13  2  0
 16 17  1  1
 16 15  1  0
 18 16  1  0
 19 18  1  1
 20 19  1  0
 21 23  1  0
 21 19  1  0
 22 21  2  0
M  END
$$$$
