SNL.pdb
     RDKit          3D

 23 22  0  0  1  0  0  0  0  0999 V2000
    9.6005  -12.3272   19.8730 O   0  0  0  0  0  0  0  0  0  0  0  0
    8.5377  -12.6301   19.0233 C   0  0  0  0  0  0  0  0  0  0  0  0
    8.3919  -14.1207   18.8203 C   0  0  2  0  0  0  0  0  0  0  0  0
    7.2768  -14.3522   17.9262 N   0  0  0  0  0  0  0  0  0  0  0  0
    8.1524  -14.8162   20.1341 C   0  0  0  0  0  0  0  0  0  0  0  0
    7.0181  -14.8146   20.6586 O   0  0  0  0  0  0  0  0  0  0  0  0
    9.2710  -19.4316   20.9782 N   0  0  0  0  0  0  0  0  0  0  0  0
   10.1419  -18.3362   20.9222 C   0  0  0  0  0  0  0  0  0  0  0  0
   10.8532  -18.1899   19.8815 O   0  0  0  0  0  0  0  0  0  0  0  0
   10.2831  -17.3344   22.0091 C   0  0  0  0  0  0  0  0  0  0  0  0
    9.1900  -16.2758   21.9739 C   0  0  2  0  0  0  0  0  0  0  0  0
    9.2128  -15.4694   20.7706 N   0  0  0  0  0  0  0  0  0  0  0  0
    9.2416  -15.4099   23.1741 C   0  0  0  0  0  0  0  0  0  0  0  0
   10.1710  -14.5367   23.3089 O   0  0  0  0  0  0  0  0  0  0  0  0
    7.6745  -11.6690   26.3580 C   0  0  0  0  0  0  0  0  0  0  0  0
    6.9545  -13.0144   26.7163 C   0  0  1  0  0  0  0  0  0  0  0  0
    5.5116  -12.5595   26.9579 C   0  0  0  0  0  0  0  0  0  0  0  0
    7.0937  -13.9426   25.5690 C   0  0  0  0  0  0  0  0  0  0  0  0
    8.3939  -14.6085   25.3745 C   0  0  2  0  0  0  0  0  0  0  0  0
    8.2700  -15.5275   24.1938 N   0  0  0  0  0  0  0  0  0  0  0  0
    8.9854  -15.3816   26.4610 C   0  0  0  0  0  0  0  0  0  0  0  0
    8.6652  -16.6307   26.5364 O   0  0  0  0  0  0  0  0  0  0  0  0
    9.8713  -14.9197   27.4287 O   0  0  0  0  0  0  0  0  0  0  0  0
  2  3  1  0
  2  1  1  0
  3  5  1  0
  3  4  1  6
  5  6  2  0
  7  8  1  0
  8 10  1  0
  9  8  2  0
 11 10  1  6
 11 13  1  0
 12 11  1  0
 12  5  1  0
 13 20  1  0
 14 13  2  0
 16 17  1  6
 16 15  1  0
 18 16  1  0
 19 18  1  1
 20 19  1  0
 21 23  1  0
 21 19  1  0
 22 21  2  0
M  END
$$$$
