MSR.pdb
     RDKit          3D

 26 25  0  0  1  0  0  0  0  0999 V2000
    7.2194  -10.6096   27.5252 C   0  0  0  0  0  0  0  0  0  0  0  0
    6.1454  -11.8436   26.7040 S   0  0  0  0  0  0  0  0  0  0  0  0
    6.4768  -11.7693   24.9031 C   0  0  0  0  0  0  0  0  0  0  0  0
    7.3573  -12.9375   24.5598 C   0  0  0  0  0  0  0  0  0  0  0  0
    6.6594  -14.2508   24.4529 C   0  0  2  0  0  0  0  0  0  0  0  0
    6.3931  -14.8121   25.7826 N   0  0  0  0  0  0  0  0  0  0  0  0
    7.4805  -15.2380   23.7238 C   0  0  0  0  0  0  0  0  0  0  0  0
    8.2073  -16.0656   24.3685 O   0  0  0  0  0  0  0  0  0  0  0  0
    8.4557  -15.1082   19.6819 O   0  0  0  0  0  0  0  0  0  0  0  0
    7.9661  -16.3055   20.1557 C   0  0  0  0  0  0  0  0  0  0  0  0
    8.2135  -16.3701   21.6540 C   0  0  2  0  0  0  0  0  0  0  0  0
    7.4896  -15.2990   22.3273 N   0  0  0  0  0  0  0  0  0  0  0  0
    9.6411  -16.3560   22.0130 C   0  0  0  0  0  0  0  0  0  0  0  0
   10.1526  -15.2313   22.3002 O   0  0  0  0  0  0  0  0  0  0  0  0
   11.2176  -17.4301   28.8085 N   0  0  0  0  0  0  0  0  0  0  0  0
   10.4642  -18.3547   28.0424 C   0  0  0  0  0  0  0  0  0  0  0  0
    9.3512  -18.7723   28.5435 N   0  0  0  0  0  0  0  0  0  0  0  0
   10.9534  -18.7784   26.7758 N   0  0  0  0  0  0  0  0  0  0  0  0
   12.0246  -18.0726   26.1536 C   0  0  0  0  0  0  0  0  0  0  0  0
   11.7160  -17.4080   24.8610 C   0  0  0  0  0  0  0  0  0  0  0  0
   12.3312  -17.9590   23.6376 C   0  0  0  0  0  0  0  0  0  0  0  0
   11.9475  -17.3641   22.3353 C   0  0  2  0  0  0  0  0  0  0  0  0
   10.5100  -17.4619   22.0741 N   0  0  0  0  0  0  0  0  0  0  0  0
   12.7595  -17.7418   21.1678 C   0  0  0  0  0  0  0  0  0  0  0  0
   14.0063  -17.6325   21.2474 O   0  0  0  0  0  0  0  0  0  0  0  0
   12.2405  -18.2150   19.9788 O   0  0  0  0  0  0  0  0  0  0  0  0
  2  1  1  0
  3  2  1  0
  3  4  1  0
  4  5  1  0
  5  7  1  0
  5  6  1  1
  7  8  2  0
  9 10  1  0
 11 10  1  6
 12 11  1  0
 12  7  1  0
 13 11  1  0
 14 13  2  0
 16 15  1  0
 17 16  2  0
 18 16  1  0
 19 20  1  0
 19 18  1  0
 20 21  1  0
 22 21  1  1
 22 23  1  0
 23 13  1  0
 24 26  1  0
 24 22  1  0
 25 24  2  0
M  END
$$$$
