MSR.pdb
     RDKit          3D

 26 25  0  0  1  0  0  0  0  0999 V2000
    4.9076  -21.3175   18.0303 C   0  0  0  0  0  0  0  0  0  0  0  0
    5.9843  -20.5491   19.2955 S   0  0  0  0  0  0  0  0  0  0  0  0
    7.1977  -19.4826   18.4302 C   0  0  0  0  0  0  0  0  0  0  0  0
    7.9451  -18.7095   19.4798 C   0  0  0  0  0  0  0  0  0  0  0  0
    8.4488  -17.3740   19.0486 C   0  0  2  0  0  0  0  0  0  0  0  0
    9.4965  -17.5133   18.0301 N   0  0  0  0  0  0  0  0  0  0  0  0
    9.0416  -16.6323   20.1794 C   0  0  0  0  0  0  0  0  0  0  0  0
   10.2742  -16.7890   20.4706 O   0  0  0  0  0  0  0  0  0  0  0  0
    6.7861  -14.4297   22.9825 O   0  0  0  0  0  0  0  0  0  0  0  0
    8.0357  -13.9791   22.6177 C   0  0  0  0  0  0  0  0  0  0  0  0
    8.8647  -15.1687   22.1617 C   0  0  2  0  0  0  0  0  0  0  0  0
    8.2864  -15.7488   20.9560 N   0  0  0  0  0  0  0  0  0  0  0  0
    9.0505  -16.1882   23.2073 C   0  0  0  0  0  0  0  0  0  0  0  0
    8.1224  -17.0404   23.3534 O   0  0  0  0  0  0  0  0  0  0  0  0
   13.3962  -18.3695   21.1076 N   0  0  0  0  0  0  0  0  0  0  0  0
   13.1899  -19.7719   21.1221 C   0  0  0  0  0  0  0  0  0  0  0  0
   13.1873  -20.3828   19.9859 N   0  0  0  0  0  0  0  0  0  0  0  0
   12.9977  -20.4392   22.3634 N   0  0  0  0  0  0  0  0  0  0  0  0
   12.8789  -19.6842   23.5671 C   0  0  0  0  0  0  0  0  0  0  0  0
   11.6159  -18.9228   23.7481 C   0  0  0  0  0  0  0  0  0  0  0  0
   11.4255  -18.1941   25.0175 C   0  0  0  0  0  0  0  0  0  0  0  0
   10.2387  -17.3151   25.1458 C   0  0  2  0  0  0  0  0  0  0  0  0
   10.1539  -16.3244   24.0707 N   0  0  0  0  0  0  0  0  0  0  0  0
    9.9857  -16.7306   26.4722 C   0  0  0  0  0  0  0  0  0  0  0  0
    9.9297  -17.4987   27.4621 O   0  0  0  0  0  0  0  0  0  0  0  0
    9.8055  -15.3818   26.7070 O   0  0  0  0  0  0  0  0  0  0  0  0
  2  1  1  0
  3  2  1  0
  3  4  1  0
  4  5  1  0
  5  7  1  0
  5  6  1  6
  7  8  2  0
  9 10  1  0
 11 10  1  1
 12 11  1  0
 12  7  1  0
 13 11  1  0
 14 13  2  0
 16 15  1  0
 17 16  2  0
 18 16  1  0
 19 20  1  0
 19 18  1  0
 20 21  1  0
 22 21  1  1
 22 23  1  0
 23 13  1  0
 24 26  1  0
 24 22  1  0
 25 24  2  0
M  END
$$$$
