MSR.pdb
     RDKit          3D

 26 25  0  0  1  0  0  0  0  0999 V2000
    7.7306  -11.8642   20.4615 C   0  0  0  0  0  0  0  0  0  0  0  0
    8.0259  -12.3336   18.7171 S   0  0  0  0  0  0  0  0  0  0  0  0
    7.1517  -13.9133   18.4030 C   0  0  0  0  0  0  0  0  0  0  0  0
    7.7987  -14.9632   19.2616 C   0  0  0  0  0  0  0  0  0  0  0  0
    8.5919  -15.9882   18.5245 C   0  0  2  0  0  0  0  0  0  0  0  0
    7.7243  -16.8044   17.6668 N   0  0  0  0  0  0  0  0  0  0  0  0
    9.2726  -16.9117   19.4540 C   0  0  0  0  0  0  0  0  0  0  0  0
    8.6037  -17.8081   20.0686 O   0  0  0  0  0  0  0  0  0  0  0  0
   13.4124  -17.2278   19.7872 O   0  0  0  0  0  0  0  0  0  0  0  0
   12.5759  -18.2959   20.0260 C   0  0  0  0  0  0  0  0  0  0  0  0
   11.2769  -17.7706   20.6150 C   0  0  2  0  0  0  0  0  0  0  0  0
   10.6487  -16.8373   19.6883 N   0  0  0  0  0  0  0  0  0  0  0  0
   11.4398  -17.1689   21.9487 C   0  0  0  0  0  0  0  0  0  0  0  0
   11.9362  -16.0027   21.9986 O   0  0  0  0  0  0  0  0  0  0  0  0
    6.5488  -20.9543   24.6811 N   0  0  0  0  0  0  0  0  0  0  0  0
    6.2819  -19.5736   24.5028 C   0  0  0  0  0  0  0  0  0  0  0  0
    5.6020  -19.2305   23.4615 N   0  0  0  0  0  0  0  0  0  0  0  0
    6.7636  -18.6373   25.4591 N   0  0  0  0  0  0  0  0  0  0  0  0
    8.1358  -18.6564   25.8460 C   0  0  0  0  0  0  0  0  0  0  0  0
    8.9813  -17.5449   25.3386 C   0  0  0  0  0  0  0  0  0  0  0  0
   10.4400  -17.6385   25.5438 C   0  0  0  0  0  0  0  0  0  0  0  0
   11.3289  -17.1074   24.4831 C   0  0  2  0  0  0  0  0  0  0  0  0
   11.1025  -17.7487   23.1863 N   0  0  0  0  0  0  0  0  0  0  0  0
   12.7584  -16.9901   24.8120 C   0  0  0  0  0  0  0  0  0  0  0  0
   13.5623  -17.7872   24.2725 O   0  0  0  0  0  0  0  0  0  0  0  0
   13.2830  -16.0532   25.6804 O   0  0  0  0  0  0  0  0  0  0  0  0
  2  1  1  0
  3  2  1  0
  3  4  1  0
  4  5  1  0
  5  7  1  0
  5  6  1  6
  7  8  2  0
  9 10  1  0
 11 10  1  6
 12 11  1  0
 12  7  1  0
 13 11  1  0
 14 13  2  0
 16 15  1  0
 17 16  2  0
 18 16  1  0
 19 20  1  0
 19 18  1  0
 20 21  1  0
 22 21  1  1
 22 23  1  0
 23 13  1  0
 24 26  1  0
 24 22  1  0
 25 24  2  0
M  END
$$$$
