MSR.pdb
     RDKit          3D

 26 25  0  0  1  0  0  0  0  0999 V2000
    9.8441  -15.1433   30.7712 C   0  0  0  0  0  0  0  0  0  0  0  0
   11.0333  -15.3111   29.3899 S   0  0  0  0  0  0  0  0  0  0  0  0
   10.3800  -16.5746   28.2343 C   0  0  0  0  0  0  0  0  0  0  0  0
    8.9209  -16.7555   28.5447 C   0  0  0  0  0  0  0  0  0  0  0  0
    8.1885  -17.6872   27.6398 C   0  0  2  0  0  0  0  0  0  0  0  0
    9.0471  -18.8063   27.2343 N   0  0  0  0  0  0  0  0  0  0  0  0
    7.7544  -17.0058   26.4039 C   0  0  0  0  0  0  0  0  0  0  0  0
    7.8080  -17.6167   25.2847 O   0  0  0  0  0  0  0  0  0  0  0  0
    7.3642  -12.8135   26.1362 O   0  0  0  0  0  0  0  0  0  0  0  0
    6.4982  -13.6069   25.4163 C   0  0  0  0  0  0  0  0  0  0  0  0
    7.1658  -14.9496   25.1676 C   0  0  2  0  0  0  0  0  0  0  0  0
    7.2781  -15.6916   26.4171 N   0  0  0  0  0  0  0  0  0  0  0  0
    8.4703  -14.8392   24.4944 C   0  0  0  0  0  0  0  0  0  0  0  0
    9.4874  -15.2391   25.1383 O   0  0  0  0  0  0  0  0  0  0  0  0
    8.2589  -15.4738   15.7081 N   0  0  0  0  0  0  0  0  0  0  0  0
    7.9455  -14.2512   16.3534 C   0  0  0  0  0  0  0  0  0  0  0  0
    7.9836  -13.1771   15.6399 N   0  0  0  0  0  0  0  0  0  0  0  0
    7.6074  -14.2545   17.7350 N   0  0  0  0  0  0  0  0  0  0  0  0
    7.6778  -15.4664   18.4827 C   0  0  0  0  0  0  0  0  0  0  0  0
    8.6836  -15.5118   19.5754 C   0  0  0  0  0  0  0  0  0  0  0  0
    8.3953  -14.7563   20.8103 C   0  0  0  0  0  0  0  0  0  0  0  0
    9.0898  -15.1634   22.0550 C   0  0  2  0  0  0  0  0  0  0  0  0
    8.7172  -14.3349   23.2035 N   0  0  0  0  0  0  0  0  0  0  0  0
   10.5422  -15.3807   21.9642 C   0  0  0  0  0  0  0  0  0  0  0  0
   11.2984  -14.6567   22.6547 O   0  0  0  0  0  0  0  0  0  0  0  0
   11.1378  -16.3369   21.1655 O   0  0  0  0  0  0  0  0  0  0  0  0
  2  1  1  0
  3  2  1  0
  3  4  1  0
  4  5  1  0
  5  7  1  0
  5  6  1  6
  7  8  2  0
  9 10  1  0
 11 10  1  1
 12 11  1  0
 12  7  1  0
 13 11  1  0
 14 13  2  0
 16 15  1  0
 17 16  2  0
 18 16  1  0
 19 20  1  0
 19 18  1  0
 20 21  1  0
 22 21  1  6
 22 23  1  0
 23 13  1  0
 24 26  1  0
 24 22  1  0
 25 24  2  0
M  END
$$$$
