MSR.pdb
     RDKit          3D

 26 25  0  0  1  0  0  0  0  0999 V2000
    8.7139  -12.1503   20.5186 C   0  0  0  0  0  0  0  0  0  0  0  0
    7.5519  -12.5670   19.1671 S   0  0  0  0  0  0  0  0  0  0  0  0
    6.9551  -14.2774   19.4446 C   0  0  0  0  0  0  0  0  0  0  0  0
    7.9465  -15.2084   18.8055 C   0  0  0  0  0  0  0  0  0  0  0  0
    7.6656  -16.6611   18.9894 C   0  0  2  0  0  0  0  0  0  0  0  0
    6.3442  -16.8665   19.5942 N   0  0  0  0  0  0  0  0  0  0  0  0
    8.6543  -17.2902   19.8876 C   0  0  0  0  0  0  0  0  0  0  0  0
    8.3846  -17.4474   21.1251 O   0  0  0  0  0  0  0  0  0  0  0  0
   12.7717  -17.9424   19.0687 O   0  0  0  0  0  0  0  0  0  0  0  0
   11.9965  -18.9636   19.5727 C   0  0  0  0  0  0  0  0  0  0  0  0
   10.8365  -18.3548   20.3435 C   0  0  2  0  0  0  0  0  0  0  0  0
    9.8976  -17.7275   19.4217 N   0  0  0  0  0  0  0  0  0  0  0  0
   11.2605  -17.4147   21.3940 C   0  0  0  0  0  0  0  0  0  0  0  0
   10.7259  -16.2644   21.3886 O   0  0  0  0  0  0  0  0  0  0  0  0
   10.3096  -15.0111   28.8873 N   0  0  0  0  0  0  0  0  0  0  0  0
    9.4600  -14.2628   28.0342 C   0  0  0  0  0  0  0  0  0  0  0  0
    8.9775  -13.1595   28.4970 N   0  0  0  0  0  0  0  0  0  0  0  0
    9.1774  -14.7463   26.7268 N   0  0  0  0  0  0  0  0  0  0  0  0
    9.5927  -16.0562   26.3466 C   0  0  0  0  0  0  0  0  0  0  0  0
   10.9137  -16.1621   25.6747 C   0  0  0  0  0  0  0  0  0  0  0  0
   10.9544  -16.7507   24.3217 C   0  0  0  0  0  0  0  0  0  0  0  0
   12.2738  -16.8867   23.6598 C   0  0  2  0  0  0  0  0  0  0  0  0
   12.2015  -17.6523   22.4136 N   0  0  0  0  0  0  0  0  0  0  0  0
   13.4033  -17.2972   24.5088 C   0  0  0  0  0  0  0  0  0  0  0  0
   13.5746  -18.5208   24.7238 O   0  0  0  0  0  0  0  0  0  0  0  0
   14.2987  -16.4213   25.0902 O   0  0  0  0  0  0  0  0  0  0  0  0
  2  1  1  0
  3  2  1  0
  3  4  1  0
  4  5  1  0
  5  7  1  0
  5  6  1  1
  7  8  2  0
  9 10  1  0
 11 10  1  6
 12 11  1  0
 12  7  1  0
 13 11  1  0
 14 13  2  0
 16 15  1  0
 17 16  2  0
 18 16  1  0
 19 20  1  0
 19 18  1  0
 20 21  1  0
 22 21  1  1
 22 23  1  0
 23 13  1  0
 24 26  1  0
 24 22  1  0
 25 24  2  0
M  END
$$$$
