MSR.pdb
     RDKit          3D

 26 25  0  0  1  0  0  0  0  0999 V2000
   10.0361  -13.8672   17.3498 C   0  0  0  0  0  0  0  0  0  0  0  0
    8.5468  -12.8923   16.9230 S   0  0  0  0  0  0  0  0  0  0  0  0
    7.1158  -13.6417   17.7886 C   0  0  0  0  0  0  0  0  0  0  0  0
    7.6216  -14.2087   19.0850 C   0  0  0  0  0  0  0  0  0  0  0  0
    6.5906  -14.8683   19.9365 C   0  0  2  0  0  0  0  0  0  0  0  0
    5.6209  -13.8876   20.4388 N   0  0  0  0  0  0  0  0  0  0  0  0
    7.2007  -15.5152   21.1152 C   0  0  0  0  0  0  0  0  0  0  0  0
    7.3842  -14.8476   22.1874 O   0  0  0  0  0  0  0  0  0  0  0  0
    8.1667  -19.2301   23.7881 O   0  0  0  0  0  0  0  0  0  0  0  0
    7.5461  -18.7267   22.6660 C   0  0  0  0  0  0  0  0  0  0  0  0
    8.2435  -17.4370   22.2652 C   0  0  2  0  0  0  0  0  0  0  0  0
    7.5912  -16.8574   21.0977 N   0  0  0  0  0  0  0  0  0  0  0  0
    9.6898  -17.5981   22.0424 C   0  0  0  0  0  0  0  0  0  0  0  0
   10.0723  -17.7813   20.8469 O   0  0  0  0  0  0  0  0  0  0  0  0
   15.1362  -15.3901   17.4345 N   0  0  0  0  0  0  0  0  0  0  0  0
   15.5037  -14.4822   18.4592 C   0  0  0  0  0  0  0  0  0  0  0  0
   16.1624  -13.4292   18.1105 N   0  0  0  0  0  0  0  0  0  0  0  0
   15.1398  -14.7604   19.8058 N   0  0  0  0  0  0  0  0  0  0  0  0
   13.7989  -15.1300   20.1194 C   0  0  0  0  0  0  0  0  0  0  0  0
   13.5198  -15.4621   21.5405 C   0  0  0  0  0  0  0  0  0  0  0  0
   12.1780  -15.9764   21.8781 C   0  0  0  0  0  0  0  0  0  0  0  0
   12.0885  -17.1706   22.7517 C   0  0  2  0  0  0  0  0  0  0  0  0
   10.7051  -17.5708   23.0171 N   0  0  0  0  0  0  0  0  0  0  0  0
   12.9175  -17.1677   23.9673 C   0  0  0  0  0  0  0  0  0  0  0  0
   14.1639  -17.2239   23.8399 O   0  0  0  0  0  0  0  0  0  0  0  0
   12.4150  -17.1048   25.2520 O   0  0  0  0  0  0  0  0  0  0  0  0
  2  1  1  0
  3  2  1  0
  3  4  1  0
  4  5  1  0
  5  7  1  0
  5  6  1  1
  7  8  2  0
  9 10  1  0
 11 10  1  6
 12 11  1  0
 12  7  1  0
 13 11  1  0
 14 13  2  0
 16 15  1  0
 17 16  2  0
 18 16  1  0
 19 20  1  0
 19 18  1  0
 20 21  1  0
 22 21  1  1
 22 23  1  0
 23 13  1  0
 24 26  1  0
 24 22  1  0
 25 24  2  0
M  END
$$$$
