MSR.pdb
     RDKit          3D

 26 25  0  0  1  0  0  0  0  0999 V2000
    5.7580  -21.0168   18.6428 C   0  0  0  0  0  0  0  0  0  0  0  0
    3.9603  -21.1144   18.9739 S   0  0  0  0  0  0  0  0  0  0  0  0
    3.7335  -21.4256   20.7657 C   0  0  0  0  0  0  0  0  0  0  0  0
    4.4015  -20.3009   21.5050 C   0  0  0  0  0  0  0  0  0  0  0  0
    4.3798  -20.4148   22.9915 C   0  0  2  0  0  0  0  0  0  0  0  0
    3.0027  -20.3890   23.4986 N   0  0  0  0  0  0  0  0  0  0  0  0
    5.0954  -19.2906   23.6273 C   0  0  0  0  0  0  0  0  0  0  0  0
    4.7287  -18.0894   23.4004 O   0  0  0  0  0  0  0  0  0  0  0  0
    7.8771  -19.5088   26.7697 O   0  0  0  0  0  0  0  0  0  0  0  0
    7.1634  -18.3839   26.4191 C   0  0  0  0  0  0  0  0  0  0  0  0
    6.9959  -18.3688   24.9085 C   0  0  2  0  0  0  0  0  0  0  0  0
    6.1798  -19.4996   24.4844 N   0  0  0  0  0  0  0  0  0  0  0  0
    8.2733  -18.3299   24.1779 C   0  0  0  0  0  0  0  0  0  0  0  0
    8.4295  -19.1737   23.2438 O   0  0  0  0  0  0  0  0  0  0  0  0
    7.0929  -12.2077   19.3487 N   0  0  0  0  0  0  0  0  0  0  0  0
    8.2626  -12.7340   18.7452 C   0  0  0  0  0  0  0  0  0  0  0  0
    8.4997  -12.4013   17.5215 N   0  0  0  0  0  0  0  0  0  0  0  0
    9.1137  -13.5912   19.4960 N   0  0  0  0  0  0  0  0  0  0  0  0
    8.5728  -14.3917   20.5446 C   0  0  0  0  0  0  0  0  0  0  0  0
    9.5474  -15.1697   21.3524 C   0  0  0  0  0  0  0  0  0  0  0  0
    9.0235  -15.9958   22.4578 C   0  0  0  0  0  0  0  0  0  0  0  0
    9.9989  -16.6618   23.3536 C   0  0  2  0  0  0  0  0  0  0  0  0
    9.3508  -17.4522   24.4022 N   0  0  0  0  0  0  0  0  0  0  0  0
   11.0987  -15.8326   23.8711 C   0  0  0  0  0  0  0  0  0  0  0  0
   11.9593  -15.4102   23.0625 O   0  0  0  0  0  0  0  0  0  0  0  0
   11.2509  -15.4812   25.1979 O   0  0  0  0  0  0  0  0  0  0  0  0
  2  1  1  0
  3  2  1  0
  3  4  1  0
  4  5  1  0
  5  7  1  0
  5  6  1  1
  7  8  2  0
  9 10  1  0
 11 10  1  1
 12 11  1  0
 12  7  1  0
 13 11  1  0
 14 13  2  0
 16 15  1  0
 17 16  2  0
 18 16  1  0
 19 20  1  0
 19 18  1  0
 20 21  1  0
 22 21  1  1
 22 23  1  0
 23 13  1  0
 24 26  1  0
 24 22  1  0
 25 24  2  0
M  END
$$$$
