MSR.pdb
     RDKit          3D

 26 25  0  0  1  0  0  0  0  0999 V2000
    7.4238  -11.9224   23.1473 C   0  0  0  0  0  0  0  0  0  0  0  0
    8.4739  -12.2896   24.6010 S   0  0  0  0  0  0  0  0  0  0  0  0
    7.3740  -12.7935   25.9776 C   0  0  0  0  0  0  0  0  0  0  0  0
    6.7914  -14.1317   25.6203 C   0  0  0  0  0  0  0  0  0  0  0  0
    6.9890  -15.2040   26.6373 C   0  0  2  0  0  0  0  0  0  0  0  0
    7.7043  -14.6877   27.8103 N   0  0  0  0  0  0  0  0  0  0  0  0
    7.7941  -16.3168   26.0955 C   0  0  0  0  0  0  0  0  0  0  0  0
    9.0502  -16.3637   26.3166 O   0  0  0  0  0  0  0  0  0  0  0  0
    6.2749  -19.1411   23.4436 O   0  0  0  0  0  0  0  0  0  0  0  0
    7.2070  -19.5761   24.3600 C   0  0  0  0  0  0  0  0  0  0  0  0
    8.0610  -18.3912   24.7807 C   0  0  2  0  0  0  0  0  0  0  0  0
    7.2184  -17.3391   25.3355 N   0  0  0  0  0  0  0  0  0  0  0  0
    8.9176  -17.8740   23.7010 C   0  0  0  0  0  0  0  0  0  0  0  0
    8.4818  -16.8795   23.0452 O   0  0  0  0  0  0  0  0  0  0  0  0
   14.5672  -14.8744   20.3867 N   0  0  0  0  0  0  0  0  0  0  0  0
   13.8685  -14.2708   19.3110 C   0  0  0  0  0  0  0  0  0  0  0  0
   14.5522  -13.9509   18.2648 N   0  0  0  0  0  0  0  0  0  0  0  0
   12.4686  -14.0455   19.4230 N   0  0  0  0  0  0  0  0  0  0  0  0
   11.7606  -14.5169   20.5673 C   0  0  0  0  0  0  0  0  0  0  0  0
   11.6781  -15.9912   20.7326 C   0  0  0  0  0  0  0  0  0  0  0  0
   10.9068  -16.5151   21.8769 C   0  0  0  0  0  0  0  0  0  0  0  0
   10.8618  -17.9836   22.0739 C   0  0  2  0  0  0  0  0  0  0  0  0
   10.1784  -18.3643   23.3117 N   0  0  0  0  0  0  0  0  0  0  0  0
   12.1210  -18.7188   21.8760 C   0  0  0  0  0  0  0  0  0  0  0  0
   12.7065  -18.6135   20.7720 O   0  0  0  0  0  0  0  0  0  0  0  0
   12.7107  -19.5236   22.8308 O   0  0  0  0  0  0  0  0  0  0  0  0
  2  1  1  0
  3  2  1  0
  3  4  1  0
  4  5  1  0
  5  7  1  0
  5  6  1  1
  7  8  2  0
  9 10  1  0
 11 10  1  6
 12 11  1  0
 12  7  1  0
 13 11  1  0
 14 13  2  0
 16 15  1  0
 17 16  2  0
 18 16  1  0
 19 20  1  0
 19 18  1  0
 20 21  1  0
 22 21  1  1
 22 23  1  0
 23 13  1  0
 24 26  1  0
 24 22  1  0
 25 24  2  0
M  END
$$$$
