MSR.pdb
     RDKit          3D

 26 25  0  0  1  0  0  0  0  0999 V2000
    6.3831  -11.6813   25.4931 C   0  0  0  0  0  0  0  0  0  0  0  0
    7.9115  -10.8961   24.8621 S   0  0  0  0  0  0  0  0  0  0  0  0
    7.9363  -11.0952   23.0404 C   0  0  0  0  0  0  0  0  0  0  0  0
    7.3720  -12.4526   22.7292 C   0  0  0  0  0  0  0  0  0  0  0  0
    8.2438  -13.3282   21.8945 C   0  0  2  0  0  0  0  0  0  0  0  0
    7.9959  -13.1043   20.4653 N   0  0  0  0  0  0  0  0  0  0  0  0
    7.9819  -14.7570   22.1597 C   0  0  0  0  0  0  0  0  0  0  0  0
    7.4531  -15.4881   21.2572 O   0  0  0  0  0  0  0  0  0  0  0  0
   10.3165  -17.5481   22.9964 O   0  0  0  0  0  0  0  0  0  0  0  0
    9.0191  -17.5177   22.5343 C   0  0  0  0  0  0  0  0  0  0  0  0
    8.1595  -16.7886   23.5540 C   0  0  2  0  0  0  0  0  0  0  0  0
    8.2987  -15.3473   23.3866 N   0  0  0  0  0  0  0  0  0  0  0  0
    8.4301  -17.1921   24.9437 C   0  0  0  0  0  0  0  0  0  0  0  0
    9.6394  -17.1693   25.3259 O   0  0  0  0  0  0  0  0  0  0  0  0
    4.2870  -24.4387   26.8456 N   0  0  0  0  0  0  0  0  0  0  0  0
    5.4236  -24.5335   27.6873 C   0  0  0  0  0  0  0  0  0  0  0  0
    5.5561  -25.6098   28.3860 N   0  0  0  0  0  0  0  0  0  0  0  0
    6.3565  -23.4606   27.7288 N   0  0  0  0  0  0  0  0  0  0  0  0
    6.0504  -22.2253   27.0860 C   0  0  0  0  0  0  0  0  0  0  0  0
    7.0143  -21.1142   27.2958 C   0  0  0  0  0  0  0  0  0  0  0  0
    6.7545  -19.8358   26.6050 C   0  0  0  0  0  0  0  0  0  0  0  0
    7.6957  -18.7142   26.8367 C   0  0  2  0  0  0  0  0  0  0  0  0
    7.4876  -17.6040   25.9048 N   0  0  0  0  0  0  0  0  0  0  0  0
    9.1172  -19.0615   26.9914 C   0  0  0  0  0  0  0  0  0  0  0  0
    9.7522  -19.4420   25.9791 O   0  0  0  0  0  0  0  0  0  0  0  0
    9.8092  -18.9954   28.1846 O   0  0  0  0  0  0  0  0  0  0  0  0
  2  1  1  0
  3  2  1  0
  3  4  1  0
  4  5  1  0
  5  7  1  0
  5  6  1  6
  7  8  2  0
  9 10  1  0
 11 10  1  6
 12 11  1  0
 12  7  1  0
 13 11  1  0
 14 13  2  0
 16 15  1  0
 17 16  2  0
 18 16  1  0
 19 20  1  0
 19 18  1  0
 20 21  1  0
 22 21  1  6
 22 23  1  0
 23 13  1  0
 24 26  1  0
 24 22  1  0
 25 24  2  0
M  END
$$$$
