MSR.pdb
     RDKit          3D

 26 25  0  0  1  0  0  0  0  0999 V2000
    9.2806  -11.7472   19.7303 C   0  0  0  0  0  0  0  0  0  0  0  0
    7.6722  -12.4444   20.2572 S   0  0  0  0  0  0  0  0  0  0  0  0
    7.1870  -13.7247   19.0390 C   0  0  0  0  0  0  0  0  0  0  0  0
    7.6440  -15.0517   19.5757 C   0  0  0  0  0  0  0  0  0  0  0  0
    8.8809  -15.5999   18.9490 C   0  0  2  0  0  0  0  0  0  0  0  0
    8.6032  -16.1093   17.6008 N   0  0  0  0  0  0  0  0  0  0  0  0
    9.4266  -16.7263   19.7325 C   0  0  0  0  0  0  0  0  0  0  0  0
    8.7797  -17.1807   20.7344 O   0  0  0  0  0  0  0  0  0  0  0  0
   13.4094  -18.0364   19.5008 O   0  0  0  0  0  0  0  0  0  0  0  0
   12.4205  -18.9868   19.6294 C   0  0  0  0  0  0  0  0  0  0  0  0
   11.2119  -18.3412   20.2872 C   0  0  2  0  0  0  0  0  0  0  0  0
   10.6487  -17.3230   19.4093 N   0  0  0  0  0  0  0  0  0  0  0  0
   11.4953  -17.7943   21.6244 C   0  0  0  0  0  0  0  0  0  0  0  0
   11.5021  -16.5313   21.7414 O   0  0  0  0  0  0  0  0  0  0  0  0
    8.7033  -13.5313   27.0210 N   0  0  0  0  0  0  0  0  0  0  0  0
    9.3619  -14.3024   28.0114 C   0  0  0  0  0  0  0  0  0  0  0  0
    9.8784  -13.6694   29.0098 N   0  0  0  0  0  0  0  0  0  0  0  0
    9.4270  -15.7163   27.8704 N   0  0  0  0  0  0  0  0  0  0  0  0
    9.3734  -16.3060   26.5734 C   0  0  0  0  0  0  0  0  0  0  0  0
   10.6556  -16.8227   26.0286 C   0  0  0  0  0  0  0  0  0  0  0  0
   10.6382  -17.4326   24.6845 C   0  0  0  0  0  0  0  0  0  0  0  0
   11.9208  -17.9192   24.1229 C   0  0  2  0  0  0  0  0  0  0  0  0
   11.7616  -18.5235   22.7986 N   0  0  0  0  0  0  0  0  0  0  0  0
   12.7714  -18.7261   25.0121 C   0  0  0  0  0  0  0  0  0  0  0  0
   12.9924  -18.3033   26.1720 O   0  0  0  0  0  0  0  0  0  0  0  0
   13.3479  -19.9295   24.6568 O   0  0  0  0  0  0  0  0  0  0  0  0
  2  1  1  0
  3  2  1  0
  3  4  1  0
  4  5  1  0
  5  7  1  0
  5  6  1  6
  7  8  2  0
  9 10  1  0
 11 10  1  6
 12 11  1  0
 12  7  1  0
 13 11  1  0
 14 13  2  0
 16 15  1  0
 17 16  2  0
 18 16  1  0
 19 20  1  0
 19 18  1  0
 20 21  1  0
 22 21  1  1
 22 23  1  0
 23 13  1  0
 24 26  1  0
 24 22  1  0
 25 24  2  0
M  END
$$$$
