MSR.pdb
     RDKit          3D

 26 25  0  0  1  0  0  0  0  0999 V2000
    8.4885  -12.4815   17.1589 C   0  0  0  0  0  0  0  0  0  0  0  0
    8.2167  -13.3741   18.7337 S   0  0  0  0  0  0  0  0  0  0  0  0
    8.4120  -12.1724   20.1034 C   0  0  0  0  0  0  0  0  0  0  0  0
    8.1928  -12.9178   21.3896 C   0  0  0  0  0  0  0  0  0  0  0  0
    7.5938  -14.2755   21.2443 C   0  0  2  0  0  0  0  0  0  0  0  0
    6.2081  -14.1882   20.7683 N   0  0  0  0  0  0  0  0  0  0  0  0
    7.5626  -14.9902   22.5360 C   0  0  0  0  0  0  0  0  0  0  0  0
    6.7198  -14.6529   23.4330 O   0  0  0  0  0  0  0  0  0  0  0  0
    6.5961  -18.1840   23.3982 O   0  0  0  0  0  0  0  0  0  0  0  0
    6.9016  -17.2017   24.3144 C   0  0  0  0  0  0  0  0  0  0  0  0
    8.3357  -16.7541   24.0833 C   0  0  2  0  0  0  0  0  0  0  0  0
    8.4395  -16.0424   22.8156 N   0  0  0  0  0  0  0  0  0  0  0  0
    9.3118  -17.8535   24.1587 C   0  0  0  0  0  0  0  0  0  0  0  0
    9.1726  -18.8060   23.3326 O   0  0  0  0  0  0  0  0  0  0  0  0
   12.2747  -15.4594   18.4973 N   0  0  0  0  0  0  0  0  0  0  0  0
   13.2365  -15.5252   19.5365 C   0  0  0  0  0  0  0  0  0  0  0  0
   14.3362  -14.8719   19.3690 N   0  0  0  0  0  0  0  0  0  0  0  0
   12.9586  -16.2929   20.7012 N   0  0  0  0  0  0  0  0  0  0  0  0
   13.7631  -16.1341   21.8676 C   0  0  0  0  0  0  0  0  0  0  0  0
   13.4741  -17.0516   23.0000 C   0  0  0  0  0  0  0  0  0  0  0  0
   12.0857  -17.1184   23.4968 C   0  0  0  0  0  0  0  0  0  0  0  0
   11.7976  -18.0130   24.6432 C   0  0  2  0  0  0  0  0  0  0  0  0
   10.3926  -17.9666   25.0534 N   0  0  0  0  0  0  0  0  0  0  0  0
   12.7212  -17.9454   25.7866 C   0  0  0  0  0  0  0  0  0  0  0  0
   12.3184  -17.4139   26.8487 O   0  0  0  0  0  0  0  0  0  0  0  0
   14.0132  -18.4328   25.7735 O   0  0  0  0  0  0  0  0  0  0  0  0
  2  1  1  0
  3  2  1  0
  3  4  1  0
  4  5  1  0
  5  7  1  0
  5  6  1  1
  7  8  2  0
  9 10  1  0
 11 10  1  6
 12 11  1  0
 12  7  1  0
 13 11  1  0
 14 13  2  0
 16 15  1  0
 17 16  2  0
 18 16  1  0
 19 20  1  0
 19 18  1  0
 20 21  1  0
 22 21  1  6
 22 23  1  0
 23 13  1  0
 24 26  1  0
 24 22  1  0
 25 24  2  0
M  END
$$$$
