MSR.pdb
     RDKit          3D

 26 25  0  0  1  0  0  0  0  0999 V2000
    6.5033  -11.3791   20.9763 C   0  0  0  0  0  0  0  0  0  0  0  0
    7.3865  -12.9580   20.6982 S   0  0  0  0  0  0  0  0  0  0  0  0
    8.2332  -12.8518   19.0763 C   0  0  0  0  0  0  0  0  0  0  0  0
    8.9402  -14.1587   18.8522 C   0  0  0  0  0  0  0  0  0  0  0  0
    9.7591  -14.2342   17.6085 C   0  0  2  0  0  0  0  0  0  0  0  0
    9.0370  -14.9481   16.5487 N   0  0  0  0  0  0  0  0  0  0  0  0
   11.0210  -14.9653   17.8395 C   0  0  0  0  0  0  0  0  0  0  0  0
   11.2111  -16.1016   17.2904 O   0  0  0  0  0  0  0  0  0  0  0  0
   15.6104  -15.0161   18.9301 O   0  0  0  0  0  0  0  0  0  0  0  0
   14.4631  -14.2672   18.7860 C   0  0  0  0  0  0  0  0  0  0  0  0
   13.2655  -15.2012   18.8444 C   0  0  2  0  0  0  0  0  0  0  0  0
   12.0330  -14.4471   18.6528 N   0  0  0  0  0  0  0  0  0  0  0  0
   13.2110  -16.0074   20.0750 C   0  0  0  0  0  0  0  0  0  0  0  0
   12.6890  -15.4662   21.0965 O   0  0  0  0  0  0  0  0  0  0  0  0
   13.9716  -21.7271   16.7065 N   0  0  0  0  0  0  0  0  0  0  0  0
   12.7502  -22.0804   17.3331 C   0  0  0  0  0  0  0  0  0  0  0  0
   11.9455  -22.8447   16.6753 N   0  0  0  0  0  0  0  0  0  0  0  0
   12.4635  -21.5895   18.6369 N   0  0  0  0  0  0  0  0  0  0  0  0
   13.3936  -20.7331   19.2959 C   0  0  0  0  0  0  0  0  0  0  0  0
   13.0005  -20.2409   20.6417 C   0  0  0  0  0  0  0  0  0  0  0  0
   13.9918  -19.4601   21.4075 C   0  0  0  0  0  0  0  0  0  0  0  0
   13.7762  -17.9997   21.5416 C   0  0  2  0  0  0  0  0  0  0  0  0
   13.6776  -17.3245   20.2460 N   0  0  0  0  0  0  0  0  0  0  0  0
   14.6490  -17.2837   22.4855 C   0  0  0  0  0  0  0  0  0  0  0  0
   15.6220  -16.6388   22.0270 O   0  0  0  0  0  0  0  0  0  0  0  0
   14.4694  -17.2699   23.8546 O   0  0  0  0  0  0  0  0  0  0  0  0
  2  1  1  0
  3  2  1  0
  3  4  1  0
  4  5  1  0
  5  7  1  0
  5  6  1  6
  7  8  2  0
  9 10  1  0
 11 10  1  1
 12 11  1  0
 12  7  1  0
 13 11  1  0
 14 13  2  0
 16 15  1  0
 17 16  2  0
 18 16  1  0
 19 20  1  0
 19 18  1  0
 20 21  1  0
 22 21  1  6
 22 23  1  0
 23 13  1  0
 24 26  1  0
 24 22  1  0
 25 24  2  0
M  END
$$$$
