TME.pdb
     RDKit          3D

 25 24  0  0  1  0  0  0  0  0999 V2000
    6.5672  -14.5690   18.0309 C   0  0  0  0  0  0  0  0  0  0  0  0
    7.2573  -14.7606   19.3351 C   0  0  1  0  0  0  0  0  0  0  0  0
    8.3348  -15.5959   19.2314 O   0  0  0  0  0  0  0  0  0  0  0  0
    7.6000  -13.4398   20.0101 C   0  0  2  0  0  0  0  0  0  0  0  0
    8.4021  -12.6571   19.0764 N   0  0  0  0  0  0  0  0  0  0  0  0
    8.2498  -13.6275   21.3051 C   0  0  0  0  0  0  0  0  0  0  0  0
    9.5211  -13.7815   21.3177 O   0  0  0  0  0  0  0  0  0  0  0  0
    5.3730  -12.1105   27.2897 C   0  0  0  0  0  0  0  0  0  0  0  0
    7.0401  -11.5864   26.9043 S   0  0  0  0  0  0  0  0  0  0  0  0
    7.5621  -11.9829   25.2386 C   0  0  0  0  0  0  0  0  0  0  0  0
    7.4577  -13.4894   25.0260 C   0  0  0  0  0  0  0  0  0  0  0  0
    8.2692  -13.9221   23.8301 C   0  0  2  0  0  0  0  0  0  0  0  0
    7.6587  -13.6623   22.5730 N   0  0  0  0  0  0  0  0  0  0  0  0
    8.6689  -15.3281   24.0632 C   0  0  0  0  0  0  0  0  0  0  0  0
    7.8678  -16.2356   23.7134 O   0  0  0  0  0  0  0  0  0  0  0  0
    9.9068  -15.6798   24.6559 N   0  0  0  0  0  0  0  0  0  0  0  0
   10.2793  -17.1166   24.7077 C   0  0  1  0  0  0  0  0  0  0  0  0
   11.6299  -17.2826   24.0921 C   0  0  0  0  0  0  0  0  0  0  0  0
   12.1348  -18.6857   24.2822 C   0  0  0  0  0  0  0  0  0  0  0  0
   13.4655  -18.8668   23.6387 C   0  0  0  0  0  0  0  0  0  0  0  0
   14.3582  -19.4830   24.2285 O   0  0  0  0  0  0  0  0  0  0  0  0
   10.1581  -17.5496   26.1118 C   0  0  0  0  0  0  0  0  0  0  0  0
    9.9682  -16.7022   27.0554 O   0  0  0  0  0  0  0  0  0  0  0  0
   13.6911  -18.3405   22.3845 O   0  0  0  0  0  0  0  0  0  0  0  0
   10.2323  -18.8645   26.5384 O   0  0  0  0  0  0  0  0  0  0  0  0
  2  1  1  6
  2  3  1  0
  4  2  1  0
  4  6  1  0
  4  5  1  6
  6 13  1  0
  6  7  2  0
  9  8  1  0
 10  9  1  0
 11 10  1  0
 12 11  1  1
 13 12  1  0
 14 12  1  0
 14 15  2  0
 16 14  1  0
 17 16  1  0
 17 18  1  1
 19 18  1  0
 19 20  1  0
 20 24  1  0
 20 21  2  0
 22 17  1  0
 23 22  2  0
 25 22  1  0
M  END
$$$$
