TME.pdb
     RDKit          3D

 25 24  0  0  1  0  0  0  0  0999 V2000
    6.6465  -17.8027   20.9352 C   0  0  0  0  0  0  0  0  0  0  0  0
    7.6075  -17.2962   19.9183 C   0  0  1  0  0  0  0  0  0  0  0  0
    7.2887  -17.7107   18.6550 O   0  0  0  0  0  0  0  0  0  0  0  0
    7.8093  -15.7901   20.0097 C   0  0  2  0  0  0  0  0  0  0  0  0
    8.6518  -15.3846   18.8901 N   0  0  0  0  0  0  0  0  0  0  0  0
    8.3418  -15.3765   21.3059 C   0  0  0  0  0  0  0  0  0  0  0  0
    9.5768  -15.6151   21.5469 O   0  0  0  0  0  0  0  0  0  0  0  0
    7.1569  -10.8942   27.1935 C   0  0  0  0  0  0  0  0  0  0  0  0
    6.5621  -12.5584   26.9119 S   0  0  0  0  0  0  0  0  0  0  0  0
    7.6838  -13.5829   25.9652 C   0  0  0  0  0  0  0  0  0  0  0  0
    7.1396  -13.7466   24.5501 C   0  0  0  0  0  0  0  0  0  0  0  0
    8.1201  -14.4920   23.6789 C   0  0  2  0  0  0  0  0  0  0  0  0
    7.6702  -14.7351   22.3526 N   0  0  0  0  0  0  0  0  0  0  0  0
    8.5467  -15.6913   24.4343 C   0  0  0  0  0  0  0  0  0  0  0  0
    7.7303  -16.6456   24.5375 O   0  0  0  0  0  0  0  0  0  0  0  0
    9.8260  -15.7990   25.0335 N   0  0  0  0  0  0  0  0  0  0  0  0
   10.2976  -17.1445   25.4491 C   0  0  1  0  0  0  0  0  0  0  0  0
   11.6275  -17.4004   24.8195 C   0  0  0  0  0  0  0  0  0  0  0  0
   12.2400  -18.6627   25.3590 C   0  0  0  0  0  0  0  0  0  0  0  0
   13.5474  -18.9448   24.7043 C   0  0  0  0  0  0  0  0  0  0  0  0
   14.2923  -19.8166   25.1620 O   0  0  0  0  0  0  0  0  0  0  0  0
   10.2689  -17.1824   26.9227 C   0  0  0  0  0  0  0  0  0  0  0  0
   10.3761  -18.2888   27.5621 O   0  0  0  0  0  0  0  0  0  0  0  0
   13.9178  -18.2251   23.5881 O   0  0  0  0  0  0  0  0  0  0  0  0
   10.1305  -16.0702   27.7353 O   0  0  0  0  0  0  0  0  0  0  0  0
  2  1  1  1
  2  3  1  0
  4  2  1  0
  4  6  1  0
  4  5  1  6
  6 13  1  0
  6  7  2  0
  9  8  1  0
 10  9  1  0
 11 10  1  0
 12 11  1  1
 13 12  1  0
 14 12  1  0
 14 15  2  0
 16 14  1  0
 17 16  1  0
 17 18  1  1
 19 18  1  0
 19 20  1  0
 20 24  1  0
 20 21  2  0
 22 17  1  0
 23 22  2  0
 25 22  1  0
M  END
$$$$
