TME.pdb
     RDKit          3D

 25 24  0  0  1  0  0  0  0  0999 V2000
    7.2634  -16.2463   19.5858 C   0  0  0  0  0  0  0  0  0  0  0  0
    7.9124  -15.0357   19.0140 C   0  0  1  0  0  0  0  0  0  0  0  0
    7.5985  -14.8556   17.6954 O   0  0  0  0  0  0  0  0  0  0  0  0
    7.6611  -13.7909   19.8536 C   0  0  2  0  0  0  0  0  0  0  0  0
    8.1789  -12.6439   19.1160 N   0  0  0  0  0  0  0  0  0  0  0  0
    8.2178  -13.9046   21.1996 C   0  0  0  0  0  0  0  0  0  0  0  0
    9.4890  -13.8174   21.3286 O   0  0  0  0  0  0  0  0  0  0  0  0
    6.5755  -10.7650   27.6776 C   0  0  0  0  0  0  0  0  0  0  0  0
    6.2491  -12.2713   26.7682 S   0  0  0  0  0  0  0  0  0  0  0  0
    7.4268  -12.6035   25.4616 C   0  0  0  0  0  0  0  0  0  0  0  0
    7.1073  -13.9546   24.8307 C   0  0  0  0  0  0  0  0  0  0  0  0
    8.0693  -14.2673   23.7114 C   0  0  2  0  0  0  0  0  0  0  0  0
    7.5345  -14.1002   22.4051 N   0  0  0  0  0  0  0  0  0  0  0  0
    8.6463  -15.6005   23.9954 C   0  0  0  0  0  0  0  0  0  0  0  0
    7.9673  -16.6159   23.6860 O   0  0  0  0  0  0  0  0  0  0  0  0
    9.9201  -15.7677   24.5926 N   0  0  0  0  0  0  0  0  0  0  0  0
   10.4075  -17.1494   24.8358 C   0  0  1  0  0  0  0  0  0  0  0  0
   11.7944  -17.2690   24.2945 C   0  0  0  0  0  0  0  0  0  0  0  0
   11.8122  -17.0231   22.8116 C   0  0  0  0  0  0  0  0  0  0  0  0
   13.1876  -17.1739   22.2612 C   0  0  0  0  0  0  0  0  0  0  0  0
   13.3812  -17.0733   21.0459 O   0  0  0  0  0  0  0  0  0  0  0  0
   10.2575  -17.4189   26.2775 C   0  0  0  0  0  0  0  0  0  0  0  0
    9.8841  -16.5004   27.0908 O   0  0  0  0  0  0  0  0  0  0  0  0
   14.2381  -17.4279   23.1173 O   0  0  0  0  0  0  0  0  0  0  0  0
   10.4936  -18.6440   26.8772 O   0  0  0  0  0  0  0  0  0  0  0  0
  2  1  1  1
  2  3  1  0
  4  2  1  0
  4  6  1  0
  4  5  1  6
  6 13  1  0
  6  7  2  0
  9  8  1  0
 10  9  1  0
 11 10  1  0
 12 11  1  1
 13 12  1  0
 14 12  1  0
 14 15  2  0
 16 14  1  0
 17 16  1  0
 17 18  1  1
 19 18  1  0
 19 20  1  0
 20 24  1  0
 20 21  2  0
 22 17  1  0
 23 22  2  0
 25 22  1  0
M  END
$$$$
