TME.pdb
     RDKit          3D

 25 24  0  0  1  0  0  0  0  0999 V2000
    6.9912  -15.0718   17.6909 C   0  0  0  0  0  0  0  0  0  0  0  0
    7.4922  -15.1282   19.0908 C   0  0  1  0  0  0  0  0  0  0  0  0
    8.6113  -15.9050   19.2078 O   0  0  0  0  0  0  0  0  0  0  0  0
    7.6705  -13.7444   19.6997 C   0  0  2  0  0  0  0  0  0  0  0  0
    8.5748  -12.9914   18.8377 N   0  0  0  0  0  0  0  0  0  0  0  0
    8.1183  -13.8002   21.0893 C   0  0  0  0  0  0  0  0  0  0  0  0
    9.3784  -13.8699   21.3075 O   0  0  0  0  0  0  0  0  0  0  0  0
    7.3386  -11.9857   28.6124 C   0  0  0  0  0  0  0  0  0  0  0  0
    6.6500  -12.1207   26.9661 S   0  0  0  0  0  0  0  0  0  0  0  0
    7.2608  -13.5210   26.0332 C   0  0  0  0  0  0  0  0  0  0  0  0
    6.7077  -13.4569   24.6135 C   0  0  0  0  0  0  0  0  0  0  0  0
    7.7637  -13.8395   23.6063 C   0  0  2  0  0  0  0  0  0  0  0  0
    7.3384  -13.7864   22.2511 N   0  0  0  0  0  0  0  0  0  0  0  0
    8.3306  -15.1351   24.0434 C   0  0  0  0  0  0  0  0  0  0  0  0
    7.7328  -16.1886   23.6960 O   0  0  0  0  0  0  0  0  0  0  0  0
    9.5080  -15.2262   24.8262 N   0  0  0  0  0  0  0  0  0  0  0  0
   10.0839  -16.5719   25.0772 C   0  0  1  0  0  0  0  0  0  0  0  0
   11.5503  -16.5240   24.7977 C   0  0  0  0  0  0  0  0  0  0  0  0
   11.8523  -17.0776   23.4332 C   0  0  0  0  0  0  0  0  0  0  0  0
   13.3091  -16.9989   23.1348 C   0  0  0  0  0  0  0  0  0  0  0  0
   13.7479  -17.4523   22.0734 O   0  0  0  0  0  0  0  0  0  0  0  0
    9.7059  -16.9607   26.4483 C   0  0  0  0  0  0  0  0  0  0  0  0
    9.2810  -16.0939   27.2924 O   0  0  0  0  0  0  0  0  0  0  0  0
   14.1603  -16.4192   24.0516 O   0  0  0  0  0  0  0  0  0  0  0  0
    9.7672  -18.2515   26.9447 O   0  0  0  0  0  0  0  0  0  0  0  0
  2  1  1  6
  2  3  1  0
  4  2  1  0
  4  6  1  0
  4  5  1  6
  6 13  1  0
  6  7  2  0
  9  8  1  0
 10  9  1  0
 11 10  1  0
 12 11  1  1
 13 12  1  0
 14 12  1  0
 14 15  2  0
 16 14  1  0
 17 16  1  0
 17 18  1  1
 19 18  1  0
 19 20  1  0
 20 24  1  0
 20 21  2  0
 22 17  1  0
 23 22  2  0
 25 22  1  0
M  END
$$$$
