TME.pdb
     RDKit          3D

 25 24  0  0  1  0  0  0  0  0999 V2000
    7.1466  -16.3534   19.6750 C   0  0  0  0  0  0  0  0  0  0  0  0
    7.8263  -15.1356   19.1564 C   0  0  1  0  0  0  0  0  0  0  0  0
    7.5808  -14.9342   17.8264 O   0  0  0  0  0  0  0  0  0  0  0  0
    7.5346  -13.9035   20.0015 C   0  0  2  0  0  0  0  0  0  0  0  0
    8.0687  -12.7433   19.2970 N   0  0  0  0  0  0  0  0  0  0  0  0
    8.0436  -14.0295   21.3652 C   0  0  0  0  0  0  0  0  0  0  0  0
    9.3110  -13.9640   21.5370 O   0  0  0  0  0  0  0  0  0  0  0  0
    6.4108  -10.4832   27.2512 C   0  0  0  0  0  0  0  0  0  0  0  0
    6.6250  -12.2214   26.8832 S   0  0  0  0  0  0  0  0  0  0  0  0
    6.4868  -12.6205   25.1436 C   0  0  0  0  0  0  0  0  0  0  0  0
    6.7601  -14.1079   24.9475 C   0  0  0  0  0  0  0  0  0  0  0  0
    7.8011  -14.3278   23.8781 C   0  0  2  0  0  0  0  0  0  0  0  0
    7.3169  -14.2162   22.5464 N   0  0  0  0  0  0  0  0  0  0  0  0
    8.4903  -15.5980   24.1986 C   0  0  0  0  0  0  0  0  0  0  0  0
    7.9156  -16.6760   23.8895 O   0  0  0  0  0  0  0  0  0  0  0  0
    9.7579  -15.6387   24.8301 N   0  0  0  0  0  0  0  0  0  0  0  0
   10.3754  -16.9652   25.0841 C   0  0  1  0  0  0  0  0  0  0  0  0
   11.8107  -16.9105   24.6747 C   0  0  0  0  0  0  0  0  0  0  0  0
   11.9765  -17.3539   23.2480 C   0  0  0  0  0  0  0  0  0  0  0  0
   13.4081  -17.3172   22.8397 C   0  0  0  0  0  0  0  0  0  0  0  0
   14.2709  -16.9519   23.6439 O   0  0  0  0  0  0  0  0  0  0  0  0
   10.1253  -17.3007   26.4979 C   0  0  0  0  0  0  0  0  0  0  0  0
    9.6116  -16.4457   27.3038 O   0  0  0  0  0  0  0  0  0  0  0  0
   13.7597  -17.6915   21.5601 O   0  0  0  0  0  0  0  0  0  0  0  0
   10.4070  -18.5261   27.0770 O   0  0  0  0  0  0  0  0  0  0  0  0
  2  1  1  1
  2  3  1  0
  4  2  1  0
  4  6  1  0
  4  5  1  6
  6 13  1  0
  6  7  2  0
  9  8  1  0
 10  9  1  0
 11 10  1  0
 12 11  1  1
 13 12  1  0
 14 12  1  0
 14 15  2  0
 16 14  1  0
 17 16  1  0
 17 18  1  1
 19 18  1  0
 19 20  1  0
 20 24  1  0
 20 21  2  0
 22 17  1  0
 23 22  2  0
 25 22  1  0
M  END
$$$$
