TME.pdb
     RDKit          3D

 25 24  0  0  1  0  0  0  0  0999 V2000
    6.7155  -17.7784   20.9838 C   0  0  0  0  0  0  0  0  0  0  0  0
    7.6120  -17.0148   20.0744 C   0  0  1  0  0  0  0  0  0  0  0  0
    7.3617  -17.2833   18.7573 O   0  0  0  0  0  0  0  0  0  0  0  0
    7.6154  -15.5235   20.3802 C   0  0  2  0  0  0  0  0  0  0  0  0
    8.4214  -14.8613   19.3606 N   0  0  0  0  0  0  0  0  0  0  0  0
    8.0628  -15.2343   21.7406 C   0  0  0  0  0  0  0  0  0  0  0  0
    9.2618  -15.5563   22.0552 O   0  0  0  0  0  0  0  0  0  0  0  0
    8.5514  -12.3215   28.5052 C   0  0  0  0  0  0  0  0  0  0  0  0
    7.9402  -12.4576   26.8287 S   0  0  0  0  0  0  0  0  0  0  0  0
    7.0437  -13.9718   26.5005 C   0  0  0  0  0  0  0  0  0  0  0  0
    6.6005  -13.9855   25.0414 C   0  0  0  0  0  0  0  0  0  0  0  0
    7.6993  -14.5080   24.1496 C   0  0  2  0  0  0  0  0  0  0  0  0
    7.3421  -14.6349   22.7797 N   0  0  0  0  0  0  0  0  0  0  0  0
    8.2255  -15.7371   24.7848 C   0  0  0  0  0  0  0  0  0  0  0  0
    7.4596  -16.7345   24.8658 O   0  0  0  0  0  0  0  0  0  0  0  0
    9.5445  -15.8265   25.2944 N   0  0  0  0  0  0  0  0  0  0  0  0
   10.0382  -17.1542   25.7406 C   0  0  1  0  0  0  0  0  0  0  0  0
   11.2191  -17.5298   24.9070 C   0  0  0  0  0  0  0  0  0  0  0  0
   12.3193  -16.5157   25.0514 C   0  0  0  0  0  0  0  0  0  0  0  0
   13.4483  -16.8166   24.1283 C   0  0  0  0  0  0  0  0  0  0  0  0
   13.5738  -17.9500   23.6545 O   0  0  0  0  0  0  0  0  0  0  0  0
   10.2814  -17.0653   27.1921 C   0  0  0  0  0  0  0  0  0  0  0  0
   10.7036  -18.0759   27.8590 O   0  0  0  0  0  0  0  0  0  0  0  0
   14.3497  -15.8229   23.8103 O   0  0  0  0  0  0  0  0  0  0  0  0
   10.0878  -15.9255   27.9535 O   0  0  0  0  0  0  0  0  0  0  0  0
  2  1  1  1
  2  3  1  0
  4  2  1  0
  4  6  1  0
  4  5  1  6
  6 13  1  0
  6  7  2  0
  9  8  1  0
 10  9  1  0
 11 10  1  0
 12 11  1  1
 13 12  1  0
 14 12  1  0
 14 15  2  0
 16 14  1  0
 17 16  1  0
 17 18  1  6
 19 18  1  0
 19 20  1  0
 20 24  1  0
 20 21  2  0
 22 17  1  0
 23 22  2  0
 25 22  1  0
M  END
$$$$
