TME.pdb
     RDKit          3D

 25 24  0  0  1  0  0  0  0  0999 V2000
   10.8779  -17.3439   20.5942 C   0  0  0  0  0  0  0  0  0  0  0  0
    9.5999  -16.6778   20.2242 C   0  0  1  0  0  0  0  0  0  0  0  0
    9.1264  -17.1047   19.0146 O   0  0  0  0  0  0  0  0  0  0  0  0
    8.5568  -16.7685   21.3293 C   0  0  2  0  0  0  0  0  0  0  0  0
    7.2701  -16.3835   20.7602 N   0  0  0  0  0  0  0  0  0  0  0  0
    8.9208  -15.9821   22.5055 C   0  0  0  0  0  0  0  0  0  0  0  0
   10.1560  -15.6829   22.6639 O   0  0  0  0  0  0  0  0  0  0  0  0
    5.6739  -11.2102   26.4392 C   0  0  0  0  0  0  0  0  0  0  0  0
    6.3285  -12.5688   27.4028 S   0  0  0  0  0  0  0  0  0  0  0  0
    7.7292  -13.3892   26.6483 C   0  0  0  0  0  0  0  0  0  0  0  0
    7.2635  -14.1276   25.3979 C   0  0  0  0  0  0  0  0  0  0  0  0
    8.4302  -14.7587   24.6793 C   0  0  2  0  0  0  0  0  0  0  0  0
    8.0821  -15.4940   23.5137 N   0  0  0  0  0  0  0  0  0  0  0  0
    9.2103  -15.5056   25.6915 C   0  0  0  0  0  0  0  0  0  0  0  0
    8.7005  -16.5507   26.1769 O   0  0  0  0  0  0  0  0  0  0  0  0
   10.4941  -15.0895   26.1231 N   0  0  0  0  0  0  0  0  0  0  0  0
   11.2625  -15.9919   27.0180 C   0  0  1  0  0  0  0  0  0  0  0  0
   12.6788  -16.0402   26.5463 C   0  0  0  0  0  0  0  0  0  0  0  0
   12.7740  -16.7233   25.2106 C   0  0  0  0  0  0  0  0  0  0  0  0
   14.1821  -16.7588   24.7275 C   0  0  0  0  0  0  0  0  0  0  0  0
   15.0766  -16.2257   25.3910 O   0  0  0  0  0  0  0  0  0  0  0  0
   11.0633  -15.5128   28.3980 C   0  0  0  0  0  0  0  0  0  0  0  0
   10.5457  -14.3638   28.6353 O   0  0  0  0  0  0  0  0  0  0  0  0
   14.4763  -17.3881   23.5365 O   0  0  0  0  0  0  0  0  0  0  0  0
   11.4002  -16.2275   29.5348 O   0  0  0  0  0  0  0  0  0  0  0  0
  2  1  1  1
  2  3  1  0
  4  2  1  0
  4  6  1  0
  4  5  1  6
  6 13  1  0
  6  7  2  0
  9  8  1  0
 10  9  1  0
 11 10  1  0
 12 11  1  1
 13 12  1  0
 14 12  1  0
 14 15  2  0
 16 14  1  0
 17 16  1  0
 17 18  1  6
 19 18  1  0
 19 20  1  0
 20 24  1  0
 20 21  2  0
 22 17  1  0
 23 22  2  0
 25 22  1  0
M  END
$$$$
