TME.pdb
     RDKit          3D

 25 24  0  0  1  0  0  0  0  0999 V2000
    7.1996  -16.3579   19.5772 C   0  0  0  0  0  0  0  0  0  0  0  0
    7.9407  -15.2348   18.9421 C   0  0  1  0  0  0  0  0  0  0  0  0
    7.6986  -15.1504   17.5990 O   0  0  0  0  0  0  0  0  0  0  0  0
    7.7205  -13.9125   19.6636 C   0  0  2  0  0  0  0  0  0  0  0  0
    8.4276  -12.8759   18.9197 N   0  0  0  0  0  0  0  0  0  0  0  0
    8.1094  -13.9735   21.0706 C   0  0  0  0  0  0  0  0  0  0  0  0
    9.3513  -14.1333   21.3397 O   0  0  0  0  0  0  0  0  0  0  0  0
    7.8793  -11.7792   28.1783 C   0  0  0  0  0  0  0  0  0  0  0  0
    7.2281  -11.9514   26.5204 S   0  0  0  0  0  0  0  0  0  0  0  0
    7.0620  -13.6483   25.9751 C   0  0  0  0  0  0  0  0  0  0  0  0
    6.5414  -13.6653   24.5418 C   0  0  0  0  0  0  0  0  0  0  0  0
    7.6485  -13.9922   23.5705 C   0  0  2  0  0  0  0  0  0  0  0  0
    7.2890  -13.8775   22.2001 N   0  0  0  0  0  0  0  0  0  0  0  0
    8.2054  -15.3033   23.9731 C   0  0  0  0  0  0  0  0  0  0  0  0
    7.5029  -16.3300   23.7726 O   0  0  0  0  0  0  0  0  0  0  0  0
    9.4854  -15.4378   24.5654 N   0  0  0  0  0  0  0  0  0  0  0  0
    9.9967  -16.8062   24.8332 C   0  0  1  0  0  0  0  0  0  0  0  0
   11.4350  -16.8653   24.4351 C   0  0  0  0  0  0  0  0  0  0  0  0
   11.5844  -16.7096   22.9475 C   0  0  0  0  0  0  0  0  0  0  0  0
   13.0136  -16.8069   22.5406 C   0  0  0  0  0  0  0  0  0  0  0  0
   13.8899  -16.9671   23.3956 O   0  0  0  0  0  0  0  0  0  0  0  0
    9.7106  -17.1112   26.2470 C   0  0  0  0  0  0  0  0  0  0  0  0
   10.0685  -18.2247   26.7730 O   0  0  0  0  0  0  0  0  0  0  0  0
   13.3482  -16.7148   21.2063 O   0  0  0  0  0  0  0  0  0  0  0  0
    9.0534  -16.2592   27.1179 O   0  0  0  0  0  0  0  0  0  0  0  0
  2  1  1  1
  2  3  1  0
  4  2  1  0
  4  6  1  0
  4  5  1  6
  6 13  1  0
  6  7  2  0
  9  8  1  0
 10  9  1  0
 11 10  1  0
 12 11  1  1
 13 12  1  0
 14 12  1  0
 14 15  2  0
 16 14  1  0
 17 16  1  0
 17 18  1  1
 19 18  1  0
 19 20  1  0
 20 24  1  0
 20 21  2  0
 22 17  1  0
 23 22  2  0
 25 22  1  0
M  END
$$$$
