TME.pdb
     RDKit          3D

 25 24  0  0  1  0  0  0  0  0999 V2000
    7.0400  -14.3847   18.1429 C   0  0  0  0  0  0  0  0  0  0  0  0
    7.5277  -14.6134   19.5300 C   0  0  1  0  0  0  0  0  0  0  0  0
    8.6245  -15.4292   19.5638 O   0  0  0  0  0  0  0  0  0  0  0  0
    7.7381  -13.3131   20.2931 C   0  0  2  0  0  0  0  0  0  0  0  0
    8.6464  -12.4803   19.5126 N   0  0  0  0  0  0  0  0  0  0  0  0
    8.2002  -13.5378   21.6608 C   0  0  0  0  0  0  0  0  0  0  0  0
    9.4620  -13.6404   21.8547 O   0  0  0  0  0  0  0  0  0  0  0  0
    7.2953  -11.9450   28.0549 C   0  0  0  0  0  0  0  0  0  0  0  0
    6.0078  -11.7336   26.8300 S   0  0  0  0  0  0  0  0  0  0  0  0
    6.4730  -12.2634   25.1847 C   0  0  0  0  0  0  0  0  0  0  0  0
    6.8701  -13.7352   25.2257 C   0  0  0  0  0  0  0  0  0  0  0  0
    7.8477  -14.0602   24.1236 C   0  0  2  0  0  0  0  0  0  0  0  0
    7.4328  -13.6591   22.8247 N   0  0  0  0  0  0  0  0  0  0  0  0
    8.1992  -15.4912   24.2640 C   0  0  0  0  0  0  0  0  0  0  0  0
    7.7967  -16.2882   23.3749 O   0  0  0  0  0  0  0  0  0  0  0  0
    8.9649  -15.9846   25.3492 N   0  0  0  0  0  0  0  0  0  0  0  0
    9.8691  -17.1374   25.1060 C   0  0  1  0  0  0  0  0  0  0  0  0
   10.8015  -16.7870   23.9932 C   0  0  0  0  0  0  0  0  0  0  0  0
   11.7984  -17.8886   23.7646 C   0  0  0  0  0  0  0  0  0  0  0  0
   12.7706  -17.5173   22.6995 C   0  0  0  0  0  0  0  0  0  0  0  0
   13.7524  -16.8209   22.9745 O   0  0  0  0  0  0  0  0  0  0  0  0
   10.5056  -17.4732   26.3928 C   0  0  0  0  0  0  0  0  0  0  0  0
   10.9303  -18.6586   26.6357 O   0  0  0  0  0  0  0  0  0  0  0  0
   12.5642  -17.9548   21.4083 O   0  0  0  0  0  0  0  0  0  0  0  0
   10.7036  -16.5776   27.4296 O   0  0  0  0  0  0  0  0  0  0  0  0
  2  1  1  6
  2  3  1  0
  4  2  1  0
  4  6  1  0
  4  5  1  6
  6 13  1  0
  6  7  2  0
  9  8  1  0
 10  9  1  0
 11 10  1  0
 12 11  1  1
 13 12  1  0
 14 12  1  0
 14 15  2  0
 16 14  1  0
 17 16  1  0
 17 18  1  6
 19 18  1  0
 19 20  1  0
 20 24  1  0
 20 21  2  0
 22 17  1  0
 23 22  2  0
 25 22  1  0
M  END
$$$$
