TME.pdb
     RDKit          3D

 25 24  0  0  1  0  0  0  0  0999 V2000
    6.6061  -18.3058   21.0421 C   0  0  0  0  0  0  0  0  0  0  0  0
    7.4426  -17.7680   19.9352 C   0  0  1  0  0  0  0  0  0  0  0  0
    7.0768  -18.2743   18.7188 O   0  0  0  0  0  0  0  0  0  0  0  0
    7.5086  -16.2472   19.9435 C   0  0  2  0  0  0  0  0  0  0  0  0
    8.2113  -15.8250   18.7370 N   0  0  0  0  0  0  0  0  0  0  0  0
    8.1074  -15.7217   21.1682 C   0  0  0  0  0  0  0  0  0  0  0  0
    9.3715  -15.8599   21.3208 O   0  0  0  0  0  0  0  0  0  0  0  0
    7.4634  -11.4839   27.9173 C   0  0  0  0  0  0  0  0  0  0  0  0
    6.6845  -12.2925   26.5237 S   0  0  0  0  0  0  0  0  0  0  0  0
    7.7701  -13.3903   25.6179 C   0  0  0  0  0  0  0  0  0  0  0  0
    7.1045  -13.7802   24.3024 C   0  0  0  0  0  0  0  0  0  0  0  0
    8.0339  -14.6125   23.4544 C   0  0  2  0  0  0  0  0  0  0  0  0
    7.4732  -15.0672   22.2300 N   0  0  0  0  0  0  0  0  0  0  0  0
    8.5894  -15.6694   24.3294 C   0  0  0  0  0  0  0  0  0  0  0  0
    7.8858  -16.6937   24.5379 O   0  0  0  0  0  0  0  0  0  0  0  0
    9.8693  -15.5677   24.9284 N   0  0  0  0  0  0  0  0  0  0  0  0
   10.5475  -16.8178   25.3563 C   0  0  1  0  0  0  0  0  0  0  0  0
   11.8879  -16.8828   24.7008 C   0  0  0  0  0  0  0  0  0  0  0  0
   12.6345  -18.1141   25.1325 C   0  0  0  0  0  0  0  0  0  0  0  0
   13.9553  -18.2049   24.4507 C   0  0  0  0  0  0  0  0  0  0  0  0
   14.1389  -19.0499   23.5694 O   0  0  0  0  0  0  0  0  0  0  0  0
   10.5545  -16.8290   26.8306 C   0  0  0  0  0  0  0  0  0  0  0  0
   10.2039  -15.7965   27.5055 O   0  0  0  0  0  0  0  0  0  0  0  0
   14.9676  -17.3416   24.8125 O   0  0  0  0  0  0  0  0  0  0  0  0
   10.9245  -17.9138   27.6069 O   0  0  0  0  0  0  0  0  0  0  0  0
  2  1  1  1
  2  3  1  0
  4  2  1  0
  4  6  1  0
  4  5  1  6
  6 13  1  0
  6  7  2  0
  9  8  1  0
 10  9  1  0
 11 10  1  0
 12 11  1  1
 13 12  1  0
 14 12  1  0
 14 15  2  0
 16 14  1  0
 17 16  1  0
 17 18  1  6
 19 18  1  0
 19 20  1  0
 20 24  1  0
 20 21  2  0
 22 17  1  0
 23 22  2  0
 25 22  1  0
M  END
$$$$
