TME.pdb
     RDKit          3D

 25 24  0  0  1  0  0  0  0  0999 V2000
    6.5046  -17.9847   18.7560 C   0  0  0  0  0  0  0  0  0  0  0  0
    7.1531  -17.5589   20.0257 C   0  0  1  0  0  0  0  0  0  0  0  0
    8.2521  -18.3160   20.3235 O   0  0  0  0  0  0  0  0  0  0  0  0
    7.4425  -16.0646   20.0570 C   0  0  2  0  0  0  0  0  0  0  0  0
    8.2886  -15.7504   18.9111 N   0  0  0  0  0  0  0  0  0  0  0  0
    8.0186  -15.6348   21.3290 C   0  0  0  0  0  0  0  0  0  0  0  0
    9.2835  -15.7619   21.4839 O   0  0  0  0  0  0  0  0  0  0  0  0
    7.4877  -11.3027   27.8284 C   0  0  0  0  0  0  0  0  0  0  0  0
    6.7056  -12.1590   26.4655 S   0  0  0  0  0  0  0  0  0  0  0  0
    7.5847  -13.6206   25.9223 C   0  0  0  0  0  0  0  0  0  0  0  0
    6.8957  -14.1895   24.6865 C   0  0  0  0  0  0  0  0  0  0  0  0
    7.9092  -14.6795   23.6823 C   0  0  2  0  0  0  0  0  0  0  0  0
    7.3610  -15.0854   22.4353 N   0  0  0  0  0  0  0  0  0  0  0  0
    8.7447  -15.6909   24.3677 C   0  0  0  0  0  0  0  0  0  0  0  0
    8.2876  -16.8603   24.4747 O   0  0  0  0  0  0  0  0  0  0  0  0
   10.0242  -15.3903   24.8969 N   0  0  0  0  0  0  0  0  0  0  0  0
   10.9505  -16.5158   25.1810 C   0  0  1  0  0  0  0  0  0  0  0  0
   12.3230  -16.1289   24.7368 C   0  0  0  0  0  0  0  0  0  0  0  0
   13.3183  -17.2013   25.0817 C   0  0  0  0  0  0  0  0  0  0  0  0
   14.6988  -16.7914   24.7026 C   0  0  0  0  0  0  0  0  0  0  0  0
   14.8991  -15.6771   24.2099 O   0  0  0  0  0  0  0  0  0  0  0  0
   10.8102  -16.8476   26.6107 C   0  0  0  0  0  0  0  0  0  0  0  0
   11.4633  -17.8184   27.1356 O   0  0  0  0  0  0  0  0  0  0  0  0
   15.7466  -17.6646   24.9043 O   0  0  0  0  0  0  0  0  0  0  0  0
    9.9920  -16.1703   27.4985 O   0  0  0  0  0  0  0  0  0  0  0  0
  2  1  1  6
  2  3  1  0
  4  2  1  0
  4  6  1  0
  4  5  1  6
  6 13  1  0
  6  7  2  0
  9  8  1  0
 10  9  1  0
 11 10  1  0
 12 11  1  1
 13 12  1  0
 14 12  1  0
 14 15  2  0
 16 14  1  0
 17 16  1  0
 17 18  1  1
 19 18  1  0
 19 20  1  0
 20 24  1  0
 20 21  2  0
 22 17  1  0
 23 22  2  0
 25 22  1  0
M  END
$$$$
