TME.pdb
     RDKit          3D

 25 24  0  0  1  0  0  0  0  0999 V2000
    7.7694  -12.4968   19.7684 C   0  0  0  0  0  0  0  0  0  0  0  0
    7.6361  -13.9390   19.4278 C   0  0  1  0  0  0  0  0  0  0  0  0
    7.5987  -14.1493   18.0772 O   0  0  0  0  0  0  0  0  0  0  0  0
    8.6782  -14.7998   20.1284 C   0  0  2  0  0  0  0  0  0  0  0  0
    8.7461  -16.0768   19.4266 N   0  0  0  0  0  0  0  0  0  0  0  0
    8.4116  -14.9454   21.5575 C   0  0  0  0  0  0  0  0  0  0  0  0
    7.6570  -15.9116   21.9279 O   0  0  0  0  0  0  0  0  0  0  0  0
    7.2504  -11.9439   28.1823 C   0  0  0  0  0  0  0  0  0  0  0  0
    7.5350  -12.1674   26.4297 S   0  0  0  0  0  0  0  0  0  0  0  0
    6.8335  -13.6736   25.7636 C   0  0  0  0  0  0  0  0  0  0  0  0
    7.0988  -13.7291   24.2630 C   0  0  0  0  0  0  0  0  0  0  0  0
    8.5086  -14.1867   23.9819 C   0  0  2  0  0  0  0  0  0  0  0  0
    8.8814  -14.1528   22.6106 N   0  0  0  0  0  0  0  0  0  0  0  0
    8.6824  -15.4937   24.6547 C   0  0  0  0  0  0  0  0  0  0  0  0
    7.6922  -16.2717   24.6987 O   0  0  0  0  0  0  0  0  0  0  0  0
    9.9098  -15.8920   25.2396 N   0  0  0  0  0  0  0  0  0  0  0  0
    9.9883  -17.2374   25.8635 C   0  0  1  0  0  0  0  0  0  0  0  0
   11.2254  -17.9184   25.3771 C   0  0  0  0  0  0  0  0  0  0  0  0
   11.3617  -17.7778   23.8867 C   0  0  0  0  0  0  0  0  0  0  0  0
   12.5474  -18.5263   23.3853 C   0  0  0  0  0  0  0  0  0  0  0  0
   12.8467  -19.6154   23.8842 O   0  0  0  0  0  0  0  0  0  0  0  0
    9.8927  -17.0493   27.3227 C   0  0  0  0  0  0  0  0  0  0  0  0
    9.9381  -18.0474   28.1266 O   0  0  0  0  0  0  0  0  0  0  0  0
   13.3057  -17.9935   22.3645 O   0  0  0  0  0  0  0  0  0  0  0  0
    9.7513  -15.8233   27.9499 O   0  0  0  0  0  0  0  0  0  0  0  0
  2  1  1  6
  2  3  1  0
  4  2  1  0
  4  6  1  0
  4  5  1  6
  6 13  1  0
  6  7  2  0
  9  8  1  0
 10  9  1  0
 11 10  1  0
 12 11  1  6
 13 12  1  0
 14 12  1  0
 14 15  2  0
 16 14  1  0
 17 16  1  0
 17 18  1  1
 19 18  1  0
 19 20  1  0
 20 24  1  0
 20 21  2  0
 22 17  1  0
 23 22  2  0
 25 22  1  0
M  END
$$$$
