TME.pdb
     RDKit          3D

 25 24  0  0  1  0  0  0  0  0999 V2000
    5.6299  -18.0101   19.8988 C   0  0  0  0  0  0  0  0  0  0  0  0
    6.6228  -17.4962   20.8806 C   0  0  1  0  0  0  0  0  0  0  0  0
    7.6818  -18.3468   21.0374 O   0  0  0  0  0  0  0  0  0  0  0  0
    7.0552  -16.0687   20.5759 C   0  0  2  0  0  0  0  0  0  0  0  0
    7.5511  -16.0364   19.2044 N   0  0  0  0  0  0  0  0  0  0  0  0
    8.0216  -15.5597   21.5462 C   0  0  0  0  0  0  0  0  0  0  0  0
    9.2661  -15.7104   21.2837 O   0  0  0  0  0  0  0  0  0  0  0  0
    7.3203  -12.2991   27.7361 C   0  0  0  0  0  0  0  0  0  0  0  0
    6.1578  -12.8741   26.5029 S   0  0  0  0  0  0  0  0  0  0  0  0
    6.8404  -14.0705   25.3596 C   0  0  0  0  0  0  0  0  0  0  0  0
    8.1287  -13.5145   24.7624 C   0  0  0  0  0  0  0  0  0  0  0  0
    8.6996  -14.4619   23.7365 C   0  0  2  0  0  0  0  0  0  0  0  0
    7.7695  -14.9093   22.7592 N   0  0  0  0  0  0  0  0  0  0  0  0
    9.4042  -15.5313   24.4787 C   0  0  0  0  0  0  0  0  0  0  0  0
    8.8792  -16.6765   24.5049 O   0  0  0  0  0  0  0  0  0  0  0  0
   10.6333  -15.3112   25.1481 N   0  0  0  0  0  0  0  0  0  0  0  0
   11.4409  -16.4932   25.5436 C   0  0  1  0  0  0  0  0  0  0  0  0
   10.5181  -17.5593   26.0362 C   0  0  0  0  0  0  0  0  0  0  0  0
   11.1730  -18.3762   27.1149 C   0  0  0  0  0  0  0  0  0  0  0  0
   10.2528  -18.5740   28.2688 C   0  0  0  0  0  0  0  0  0  0  0  0
    9.0720  -18.8769   28.0726 O   0  0  0  0  0  0  0  0  0  0  0  0
   12.2798  -16.8568   24.3870 C   0  0  0  0  0  0  0  0  0  0  0  0
   12.0827  -16.3354   23.2321 O   0  0  0  0  0  0  0  0  0  0  0  0
   10.7290  -18.4146   29.5529 O   0  0  0  0  0  0  0  0  0  0  0  0
   13.3264  -17.7619   24.4283 O   0  0  0  0  0  0  0  0  0  0  0  0
  2  1  1  6
  2  3  1  0
  4  2  1  0
  4  6  1  0
  4  5  1  6
  6 13  1  0
  6  7  2  0
  9  8  1  0
 10  9  1  0
 11 10  1  0
 12 11  1  1
 13 12  1  0
 14 12  1  0
 14 15  2  0
 16 14  1  0
 17 16  1  0
 17 18  1  6
 19 18  1  0
 19 20  1  0
 20 24  1  0
 20 21  2  0
 22 17  1  0
 23 22  2  0
 25 22  1  0
M  END
$$$$
