TME.pdb
     RDKit          3D

 25 24  0  0  1  0  0  0  0  0999 V2000
    7.2803  -17.8663   20.7733 C   0  0  0  0  0  0  0  0  0  0  0  0
    8.2303  -17.0914   19.9303 C   0  0  1  0  0  0  0  0  0  0  0  0
    8.0727  -17.3560   18.5981 O   0  0  0  0  0  0  0  0  0  0  0  0
    8.2004  -15.6015   20.2414 C   0  0  2  0  0  0  0  0  0  0  0  0
    9.0393  -14.9241   19.2590 N   0  0  0  0  0  0  0  0  0  0  0  0
    8.5864  -15.3120   21.6205 C   0  0  0  0  0  0  0  0  0  0  0  0
    9.7160  -15.7561   22.0293 O   0  0  0  0  0  0  0  0  0  0  0  0
    6.7576  -10.8531   27.0135 C   0  0  0  0  0  0  0  0  0  0  0  0
    6.3003  -12.5818   27.0856 S   0  0  0  0  0  0  0  0  0  0  0  0
    7.4378  -13.6726   26.2365 C   0  0  0  0  0  0  0  0  0  0  0  0
    7.1302  -13.6532   24.7430 C   0  0  0  0  0  0  0  0  0  0  0  0
    8.1555  -14.4464   23.9716 C   0  0  2  0  0  0  0  0  0  0  0  0
    7.8726  -14.5940   22.5865 N   0  0  0  0  0  0  0  0  0  0  0  0
    8.3744  -15.7089   24.7128 C   0  0  0  0  0  0  0  0  0  0  0  0
    7.4247  -16.5355   24.7646 O   0  0  0  0  0  0  0  0  0  0  0  0
    9.6007  -16.0132   25.3537 N   0  0  0  0  0  0  0  0  0  0  0  0
    9.7278  -17.3214   26.0452 C   0  0  1  0  0  0  0  0  0  0  0  0
   10.5956  -18.2151   25.2212 C   0  0  0  0  0  0  0  0  0  0  0  0
   12.0047  -17.6938   25.1715 C   0  0  0  0  0  0  0  0  0  0  0  0
   12.8484  -18.5192   24.2636 C   0  0  0  0  0  0  0  0  0  0  0  0
   13.5462  -17.9741   23.4031 O   0  0  0  0  0  0  0  0  0  0  0  0
   10.2056  -17.0486   27.4130 C   0  0  0  0  0  0  0  0  0  0  0  0
   10.4264  -18.0010   28.2429 O   0  0  0  0  0  0  0  0  0  0  0  0
   12.8416  -19.8921   24.3907 O   0  0  0  0  0  0  0  0  0  0  0  0
   10.4565  -15.7856   27.9211 O   0  0  0  0  0  0  0  0  0  0  0  0
  2  1  1  1
  2  3  1  0
  4  2  1  0
  4  6  1  0
  4  5  1  6
  6 13  1  0
  6  7  2  0
  9  8  1  0
 10  9  1  0
 11 10  1  0
 12 11  1  1
 13 12  1  0
 14 12  1  0
 14 15  2  0
 16 14  1  0
 17 16  1  0
 17 18  1  6
 19 18  1  0
 19 20  1  0
 20 24  1  0
 20 21  2  0
 22 17  1  0
 23 22  2  0
 25 22  1  0
M  END
$$$$
