TME.pdb
     RDKit          3D

 25 24  0  0  1  0  0  0  0  0999 V2000
    7.2726  -14.8991   17.6481 C   0  0  0  0  0  0  0  0  0  0  0  0
    7.7473  -14.9289   19.0579 C   0  0  1  0  0  0  0  0  0  0  0  0
    8.9189  -15.6207   19.1937 O   0  0  0  0  0  0  0  0  0  0  0  0
    7.8088  -13.5405   19.6793 C   0  0  2  0  0  0  0  0  0  0  0  0
    8.6676  -12.7137   18.8386 N   0  0  0  0  0  0  0  0  0  0  0  0
    8.2354  -13.5732   21.0762 C   0  0  0  0  0  0  0  0  0  0  0  0
    9.4936  -13.5759   21.3156 O   0  0  0  0  0  0  0  0  0  0  0  0
    6.7978  -10.9874   27.7856 C   0  0  0  0  0  0  0  0  0  0  0  0
    6.2480  -12.5653   27.1450 S   0  0  0  0  0  0  0  0  0  0  0  0
    7.3976  -13.3299   26.0056 C   0  0  0  0  0  0  0  0  0  0  0  0
    6.8386  -13.2339   24.5900 C   0  0  0  0  0  0  0  0  0  0  0  0
    7.8366  -13.7455   23.5810 C   0  0  2  0  0  0  0  0  0  0  0  0
    7.4364  -13.6017   22.2247 N   0  0  0  0  0  0  0  0  0  0  0  0
    8.2035  -15.1193   23.9923 C   0  0  0  0  0  0  0  0  0  0  0  0
    7.3677  -16.0399   23.7884 O   0  0  0  0  0  0  0  0  0  0  0  0
    9.4476  -15.4269   24.5965 N   0  0  0  0  0  0  0  0  0  0  0  0
    9.7926  -16.8557   24.8090 C   0  0  1  0  0  0  0  0  0  0  0  0
   11.0225  -17.1724   24.0231 C   0  0  0  0  0  0  0  0  0  0  0  0
   12.2223  -16.4794   24.6062 C   0  0  0  0  0  0  0  0  0  0  0  0
   13.3787  -16.5338   23.6696 C   0  0  0  0  0  0  0  0  0  0  0  0
   13.7332  -17.6139   23.1876 O   0  0  0  0  0  0  0  0  0  0  0  0
    9.8899  -17.0705   26.2644 C   0  0  0  0  0  0  0  0  0  0  0  0
    9.7860  -16.0943   27.0895 O   0  0  0  0  0  0  0  0  0  0  0  0
   14.0483  -15.3721   23.3483 O   0  0  0  0  0  0  0  0  0  0  0  0
   10.0939  -18.3005   26.8659 O   0  0  0  0  0  0  0  0  0  0  0  0
  2  1  1  6
  2  3  1  0
  4  2  1  0
  4  6  1  0
  4  5  1  6
  6 13  1  0
  6  7  2  0
  9  8  1  0
 10  9  1  0
 11 10  1  0
 12 11  1  1
 13 12  1  0
 14 12  1  0
 14 15  2  0
 16 14  1  0
 17 16  1  0
 17 18  1  6
 19 18  1  0
 19 20  1  0
 20 24  1  0
 20 21  2  0
 22 17  1  0
 23 22  2  0
 25 22  1  0
M  END
$$$$
