IRE.pdb
     RDKit          3D

 29 28  0  0  1  0  0  0  0  0999 V2000
   19.3982  -20.3839  -11.2161 C   0  0  0  0  0  0  0  0  0  0  0  0
   20.3657  -19.6758  -10.3030 C   0  0  0  0  0  0  0  0  0  0  0  0
   21.6282  -19.2823  -11.0483 C   0  0  2  0  0  0  0  0  0  0  0  0
   21.2245  -18.2996  -12.0936 C   0  0  0  0  0  0  0  0  0  0  0  0
   22.2234  -20.5674  -11.5805 C   0  0  2  0  0  0  0  0  0  0  0  0
   22.4998  -21.3598  -10.3643 N   0  0  0  0  0  0  0  0  0  0  0  0
   23.5362  -20.3941  -12.2310 C   0  0  0  0  0  0  0  0  0  0  0  0
   23.6888  -19.9427  -13.4080 O   0  0  0  0  0  0  0  0  0  0  0  0
   30.9788  -21.5440   -7.8876 N   0  0  0  0  0  0  0  0  0  0  0  0
   31.4547  -21.7704   -9.2211 C   0  0  0  0  0  0  0  0  0  0  0  0
   32.6626  -22.2076   -9.3578 N   0  0  0  0  0  0  0  0  0  0  0  0
   30.6167  -21.5184  -10.3438 N   0  0  0  0  0  0  0  0  0  0  0  0
   29.2195  -21.3313  -10.0937 C   0  0  0  0  0  0  0  0  0  0  0  0
   28.4182  -21.1457  -11.3910 C   0  0  0  0  0  0  0  0  0  0  0  0
   26.9989  -20.9371  -11.0078 C   0  0  0  0  0  0  0  0  0  0  0  0
   26.0388  -20.6808  -12.1461 C   0  0  2  0  0  0  0  0  0  0  0  0
   24.7078  -20.7437  -11.5216 N   0  0  0  0  0  0  0  0  0  0  0  0
   26.1387  -21.6122  -13.2673 C   0  0  0  0  0  0  0  0  0  0  0  0
   25.7402  -22.8121  -13.0519 O   0  0  0  0  0  0  0  0  0  0  0  0
   33.0974  -22.3774  -10.2833 N   0  0  0  0  0  0  0  0  0  0  0  0
   26.6242  -21.2995  -14.5363 C   0  0  1  0  0  0  0  0  0  0  0  0
   26.4617  -22.2433  -15.6640 C   0  0  0  0  0  0  0  0  0  0  0  0
   25.0845  -21.9885  -16.1596 C   0  0  0  0  0  0  0  0  0  0  0  0
   25.0265  -21.6521  -17.6007 C   0  0  0  0  0  0  0  0  0  0  0  0
   23.6709  -21.8564  -18.1402 O   0  0  0  0  0  0  0  0  0  0  0  0
   22.7688  -22.3168  -17.3787 C   0  0  0  0  0  0  0  0  0  0  0  0
   27.6023  -22.0962  -16.5398 O   0  0  0  0  0  0  0  0  0  0  0  0
   27.8577  -23.0300  -17.5410 O   0  0  0  0  0  0  0  0  0  0  0  0
   23.3598  -21.5549  -19.4669 O   0  0  0  0  0  0  0  0  0  0  0  0
  1  2  1  0
  3  4  1  6
  3  2  1  0
  5  6  1  1
  5  3  1  0
  7  5  1  0
  8  7  2  0
  9 10  1  0
 10 12  1  0
 11 10  2  0
 12 13  1  0
 13 14  1  0
 14 15  1  0
 16 15  1  1
 16 18  1  0
 16 17  1  0
 17  7  1  0
 18 19  2  0
 20 21  1  0
 20 18  1  0
 22 23  1  0
 21 22  1  6
 24 25  2  0
 24 23  1  0
 26 27  1  0
 26 21  1  0
 28 24  1  0
 29 26  2  0
M  END
$$$$
