IRE.pdb
     RDKit          3D

 29 28  0  0  1  0  0  0  0  0999 V2000
   28.2498  -20.5070   -6.8450 C   0  0  0  0  0  0  0  0  0  0  0  0
   26.8478  -20.2780   -7.3483 C   0  0  0  0  0  0  0  0  0  0  0  0
   26.7613  -20.5173   -8.8448 C   0  0  2  0  0  0  0  0  0  0  0  0
   27.7607  -19.6160   -9.4852 C   0  0  0  0  0  0  0  0  0  0  0  0
   25.3237  -20.2500   -9.2336 C   0  0  2  0  0  0  0  0  0  0  0  0
   24.5715  -21.3410   -8.5799 N   0  0  0  0  0  0  0  0  0  0  0  0
   25.0545  -20.4097  -10.6754 C   0  0  0  0  0  0  0  0  0  0  0  0
   25.4883  -19.6180  -11.5683 O   0  0  0  0  0  0  0  0  0  0  0  0
   26.1092  -25.5683  -15.6841 N   0  0  0  0  0  0  0  0  0  0  0  0
   25.6675  -24.5490  -16.5907 C   0  0  0  0  0  0  0  0  0  0  0  0
   25.3960  -24.9047  -17.8025 N   0  0  0  0  0  0  0  0  0  0  0  0
   25.5377  -23.1991  -16.1583 N   0  0  0  0  0  0  0  0  0  0  0  0
   25.4125  -22.9676  -14.7510 C   0  0  0  0  0  0  0  0  0  0  0  0
   24.1479  -23.6154  -14.1673 C   0  0  0  0  0  0  0  0  0  0  0  0
   24.0393  -23.1769  -12.7528 C   0  0  0  0  0  0  0  0  0  0  0  0
   23.9236  -21.6867  -12.5308 C   0  0  2  0  0  0  0  0  0  0  0  0
   24.2703  -21.5014  -11.1127 N   0  0  0  0  0  0  0  0  0  0  0  0
   22.6149  -21.1115  -12.8322 C   0  0  0  0  0  0  0  0  0  0  0  0
   21.7184  -21.2201  -11.9214 O   0  0  0  0  0  0  0  0  0  0  0  0
   25.1168  -24.2289  -18.5374 N   0  0  0  0  0  0  0  0  0  0  0  0
   22.2722  -20.4600  -14.0163 C   0  0  2  0  0  0  0  0  0  0  0  0
   20.9244  -19.8779  -14.1986 C   0  0  0  0  0  0  0  0  0  0  0  0
   21.1258  -18.7910  -15.1913 C   0  0  0  0  0  0  0  0  0  0  0  0
   19.8783  -18.0784  -15.5505 C   0  0  0  0  0  0  0  0  0  0  0  0
   20.1364  -17.0234  -16.5459 O   0  0  0  0  0  0  0  0  0  0  0  0
   21.3347  -16.7382  -16.8431 C   0  0  0  0  0  0  0  0  0  0  0  0
   20.0010  -20.9586  -14.4617 O   0  0  0  0  0  0  0  0  0  0  0  0
   18.6887  -20.9040  -13.9985 O   0  0  0  0  0  0  0  0  0  0  0  0
   19.0935  -16.3339  -17.1664 O   0  0  0  0  0  0  0  0  0  0  0  0
  1  2  1  0
  3  4  1  6
  3  2  1  0
  5  6  1  1
  5  3  1  0
  7  5  1  0
  8  7  2  0
  9 10  1  0
 10 12  1  0
 11 10  2  0
 12 13  1  0
 13 14  1  0
 14 15  1  0
 16 15  1  1
 16 18  1  0
 16 17  1  0
 17  7  1  0
 18 19  2  0
 20 21  1  0
 20 18  1  0
 22 23  1  0
 21 22  1  1
 24 25  2  0
 24 23  1  0
 26 27  1  0
 26 21  1  0
 28 24  1  0
 29 26  2  0
M  END
$$$$
