IRE.pdb
     RDKit          3D

 29 28  0  0  1  0  0  0  0  0999 V2000
   30.0653  -21.5802  -10.3474 C   0  0  0  0  0  0  0  0  0  0  0  0
   28.6657  -21.0985  -10.0635 C   0  0  0  0  0  0  0  0  0  0  0  0
   27.9276  -20.7821  -11.3516 C   0  0  2  0  0  0  0  0  0  0  0  0
   28.7137  -19.7276  -12.0524 C   0  0  0  0  0  0  0  0  0  0  0  0
   26.5293  -20.3690  -10.9475 C   0  0  2  0  0  0  0  0  0  0  0  0
   26.0144  -21.5396  -10.2074 N   0  0  0  0  0  0  0  0  0  0  0  0
   25.6044  -20.1974  -12.0840 C   0  0  0  0  0  0  0  0  0  0  0  0
   25.2717  -19.0689  -12.5617 O   0  0  0  0  0  0  0  0  0  0  0  0
   26.6094  -25.8032  -16.1766 N   0  0  0  0  0  0  0  0  0  0  0  0
   25.4319  -25.1890  -16.7174 C   0  0  0  0  0  0  0  0  0  0  0  0
   24.4270  -25.9559  -16.9835 N   0  0  0  0  0  0  0  0  0  0  0  0
   25.3857  -23.7851  -16.9477 N   0  0  0  0  0  0  0  0  0  0  0  0
   26.4978  -23.0063  -16.4934 C   0  0  0  0  0  0  0  0  0  0  0  0
   26.0593  -21.8339  -15.6032 C   0  0  0  0  0  0  0  0  0  0  0  0
   24.8590  -22.2762  -14.8492 C   0  0  0  0  0  0  0  0  0  0  0  0
   24.2441  -21.2499  -13.9263 C   0  0  2  0  0  0  0  0  0  0  0  0
   25.0432  -21.3424  -12.6941 N   0  0  0  0  0  0  0  0  0  0  0  0
   22.8222  -21.4358  -13.6466 C   0  0  0  0  0  0  0  0  0  0  0  0
   22.5161  -22.3917  -12.8482 O   0  0  0  0  0  0  0  0  0  0  0  0
   23.5358  -25.5990  -17.3747 N   0  0  0  0  0  0  0  0  0  0  0  0
   21.7878  -20.6622  -14.1716 C   0  0  2  0  0  0  0  0  0  0  0  0
   20.3813  -20.9186  -13.7915 C   0  0  0  0  0  0  0  0  0  0  0  0
   19.6714  -19.6620  -14.1443 C   0  0  0  0  0  0  0  0  0  0  0  0
   18.1987  -19.7597  -14.0228 C   0  0  0  0  0  0  0  0  0  0  0  0
   17.5448  -18.5176  -14.4702 O   0  0  0  0  0  0  0  0  0  0  0  0
   18.0889  -17.4051  -14.2023 C   0  0  0  0  0  0  0  0  0  0  0  0
   19.9829  -22.1813  -14.3716 O   0  0  0  0  0  0  0  0  0  0  0  0
   20.4973  -22.5970  -15.5973 O   0  0  0  0  0  0  0  0  0  0  0  0
   16.3435  -18.5397  -15.1805 O   0  0  0  0  0  0  0  0  0  0  0  0
  1  2  1  0
  3  4  1  1
  3  2  1  0
  5  6  1  1
  5  3  1  0
  7  5  1  0
  8  7  2  0
  9 10  1  0
 10 12  1  0
 11 10  2  0
 12 13  1  0
 13 14  1  0
 14 15  1  0
 16 15  1  6
 16 18  1  0
 16 17  1  0
 17  7  1  0
 18 19  2  0
 20 21  1  0
 20 18  1  0
 22 23  1  0
 21 22  1  6
 24 25  2  0
 24 23  1  0
 26 27  1  0
 26 21  1  0
 28 24  1  0
 29 26  2  0
M  END
$$$$
