IRE.pdb
     RDKit          3D

 29 28  0  0  1  0  0  0  0  0999 V2000
   28.8709  -19.6195  -12.2341 C   0  0  0  0  0  0  0  0  0  0  0  0
   28.5217  -20.5525  -13.3650 C   0  0  0  0  0  0  0  0  0  0  0  0
   27.0266  -20.5532  -13.6276 C   0  0  2  0  0  0  0  0  0  0  0  0
   26.6168  -19.1303  -13.7971 C   0  0  0  0  0  0  0  0  0  0  0  0
   26.3908  -21.2616  -12.4516 C   0  0  2  0  0  0  0  0  0  0  0  0
   26.8993  -22.6451  -12.5547 N   0  0  0  0  0  0  0  0  0  0  0  0
   24.9239  -21.3846  -12.5493 C   0  0  0  0  0  0  0  0  0  0  0  0
   24.3298  -22.1059  -13.4091 O   0  0  0  0  0  0  0  0  0  0  0  0
   19.8985  -23.3629   -7.0972 N   0  0  0  0  0  0  0  0  0  0  0  0
   19.3733  -23.4535   -8.4283 C   0  0  0  0  0  0  0  0  0  0  0  0
   18.6075  -24.4575   -8.7010 N   0  0  0  0  0  0  0  0  0  0  0  0
   19.6922  -22.4669   -9.4036 N   0  0  0  0  0  0  0  0  0  0  0  0
   20.3818  -21.2955   -8.9541 C   0  0  0  0  0  0  0  0  0  0  0  0
   20.7140  -20.3393  -10.1094 C   0  0  0  0  0  0  0  0  0  0  0  0
   22.1835  -20.3899  -10.3162 C   0  0  0  0  0  0  0  0  0  0  0  0
   22.6418  -20.7082  -11.7205 C   0  0  2  0  0  0  0  0  0  0  0  0
   24.1108  -20.6670  -11.6427 N   0  0  0  0  0  0  0  0  0  0  0  0
   22.1442  -19.8075  -12.7577 C   0  0  0  0  0  0  0  0  0  0  0  0
   22.4485  -18.5678  -12.6334 O   0  0  0  0  0  0  0  0  0  0  0  0
   18.1609  -24.5885   -9.6272 N   0  0  0  0  0  0  0  0  0  0  0  0
   21.3775  -20.1882  -13.8582 C   0  0  2  0  0  0  0  0  0  0  0  0
   20.8620  -19.1786  -14.8087 C   0  0  0  0  0  0  0  0  0  0  0  0
   21.4654  -19.5601  -16.1117 C   0  0  0  0  0  0  0  0  0  0  0  0
   22.9342  -19.3774  -16.1603 C   0  0  0  0  0  0  0  0  0  0  0  0
   23.4801  -19.8029  -17.4608 O   0  0  0  0  0  0  0  0  0  0  0  0
   22.7024  -20.3278  -18.3123 C   0  0  0  0  0  0  0  0  0  0  0  0
   19.4269  -19.1057  -14.6510 O   0  0  0  0  0  0  0  0  0  0  0  0
   18.7564  -19.9881  -13.8075 O   0  0  0  0  0  0  0  0  0  0  0  0
   24.8305  -19.6408  -17.7742 O   0  0  0  0  0  0  0  0  0  0  0  0
  1  2  1  0
  3  4  1  1
  3  2  1  0
  5  6  1  6
  5  3  1  0
  7  5  1  0
  8  7  2  0
  9 10  1  0
 10 12  1  0
 11 10  2  0
 12 13  1  0
 13 14  1  0
 14 15  1  0
 16 15  1  1
 16 18  1  0
 16 17  1  0
 17  7  1  0
 18 19  2  0
 20 21  1  0
 20 18  1  0
 22 23  1  0
 21 22  1  1
 24 25  2  0
 24 23  1  0
 26 27  1  0
 26 21  1  0
 28 24  1  0
 29 26  2  0
M  END
$$$$
