IRE.pdb
     RDKit          3D

 29 28  0  0  1  0  0  0  0  0999 V2000
   22.1116  -16.5872  -18.8055 C   0  0  0  0  0  0  0  0  0  0  0  0
   22.3114  -17.9601  -19.3943 C   0  0  0  0  0  0  0  0  0  0  0  0
   21.9366  -19.0400  -18.3956 C   0  0  2  0  0  0  0  0  0  0  0  0
   20.5099  -18.8131  -18.0287 C   0  0  0  0  0  0  0  0  0  0  0  0
   22.9153  -18.9138  -17.2487 C   0  0  2  0  0  0  0  0  0  0  0  0
   24.2203  -19.2412  -17.8594 N   0  0  0  0  0  0  0  0  0  0  0  0
   22.7258  -19.9209  -16.1873 C   0  0  0  0  0  0  0  0  0  0  0  0
   22.5518  -21.1590  -16.4092 O   0  0  0  0  0  0  0  0  0  0  0  0
   27.1693  -21.4900  -10.7692 N   0  0  0  0  0  0  0  0  0  0  0  0
   27.6217  -21.6572  -12.1195 C   0  0  0  0  0  0  0  0  0  0  0  0
   28.8888  -21.8240  -12.3084 N   0  0  0  0  0  0  0  0  0  0  0  0
   26.6982  -21.6378  -13.2025 N   0  0  0  0  0  0  0  0  0  0  0  0
   25.3140  -21.4580  -12.8842 C   0  0  0  0  0  0  0  0  0  0  0  0
   24.9096  -19.9762  -12.8727 C   0  0  0  0  0  0  0  0  0  0  0  0
   23.4462  -19.9193  -12.6277 C   0  0  0  0  0  0  0  0  0  0  0  0
   22.5705  -20.4655  -13.7314 C   0  0  2  0  0  0  0  0  0  0  0  0
   22.7354  -19.5070  -14.8358 N   0  0  0  0  0  0  0  0  0  0  0  0
   21.1610  -20.6311  -13.3843 C   0  0  0  0  0  0  0  0  0  0  0  0
   20.5362  -19.5758  -13.0086 O   0  0  0  0  0  0  0  0  0  0  0  0
   29.3075  -21.9292  -13.2508 N   0  0  0  0  0  0  0  0  0  0  0  0
   20.4528  -21.8311  -13.4328 C   0  0  2  0  0  0  0  0  0  0  0  0
   19.0275  -21.8866  -13.0402 C   0  0  0  0  0  0  0  0  0  0  0  0
   18.2903  -21.5675  -14.2900 C   0  0  0  0  0  0  0  0  0  0  0  0
   18.2231  -22.6989  -15.2433 C   0  0  0  0  0  0  0  0  0  0  0  0
   17.4745  -22.3279  -16.4567 O   0  0  0  0  0  0  0  0  0  0  0  0
   16.7964  -23.2146  -17.0563 C   0  0  0  0  0  0  0  0  0  0  0  0
   18.8018  -23.1345  -12.3462 O   0  0  0  0  0  0  0  0  0  0  0  0
   17.5978  -23.3778  -11.6898 O   0  0  0  0  0  0  0  0  0  0  0  0
   17.4957  -21.0255  -16.9582 O   0  0  0  0  0  0  0  0  0  0  0  0
  1  2  1  0
  3  4  1  1
  3  2  1  0
  5  6  1  6
  5  3  1  0
  7  5  1  0
  8  7  2  0
  9 10  1  0
 10 12  1  0
 11 10  2  0
 12 13  1  0
 13 14  1  0
 14 15  1  0
 16 15  1  1
 16 18  1  0
 16 17  1  0
 17  7  1  0
 18 19  2  0
 20 21  1  0
 20 18  1  0
 22 23  1  0
 21 22  1  6
 24 25  2  0
 24 23  1  0
 26 27  1  0
 26 21  1  0
 28 24  1  0
 29 26  2  0
M  END
$$$$
