IRE.pdb
     RDKit          3D

 29 28  0  0  1  0  0  0  0  0999 V2000
   26.4034  -20.5416  -21.3476 C   0  0  0  0  0  0  0  0  0  0  0  0
   25.6513  -19.6603  -20.3837 C   0  0  0  0  0  0  0  0  0  0  0  0
   24.8401  -20.4914  -19.4063 C   0  0  2  0  0  0  0  0  0  0  0  0
   24.0254  -21.4398  -20.2176 C   0  0  0  0  0  0  0  0  0  0  0  0
   24.0374  -19.5099  -18.5807 C   0  0  2  0  0  0  0  0  0  0  0  0
   25.0657  -18.7079  -17.8860 N   0  0  0  0  0  0  0  0  0  0  0  0
   23.2496  -20.1385  -17.5034 C   0  0  0  0  0  0  0  0  0  0  0  0
   22.4346  -21.0947  -17.6879 O   0  0  0  0  0  0  0  0  0  0  0  0
   26.0246  -21.1035   -9.9639 N   0  0  0  0  0  0  0  0  0  0  0  0
   25.5565  -21.9729  -11.0036 C   0  0  0  0  0  0  0  0  0  0  0  0
   26.1468  -23.1140  -11.1387 N   0  0  0  0  0  0  0  0  0  0  0  0
   24.4804  -21.5805  -11.8487 N   0  0  0  0  0  0  0  0  0  0  0  0
   23.8490  -20.3259  -11.5712 C   0  0  0  0  0  0  0  0  0  0  0  0
   22.6799  -20.0416  -12.5261 C   0  0  0  0  0  0  0  0  0  0  0  0
   23.2627  -19.6262  -13.8271 C   0  0  0  0  0  0  0  0  0  0  0  0
   22.6741  -20.2834  -15.0538 C   0  0  2  0  0  0  0  0  0  0  0  0
   23.3940  -19.6659  -16.1791 N   0  0  0  0  0  0  0  0  0  0  0  0
   21.2290  -20.1339  -15.2081 C   0  0  0  0  0  0  0  0  0  0  0  0
   20.8022  -18.9584  -15.4928 O   0  0  0  0  0  0  0  0  0  0  0  0
   25.9107  -23.7828  -11.8946 N   0  0  0  0  0  0  0  0  0  0  0  0
   20.2923  -21.1579  -15.0744 C   0  0  2  0  0  0  0  0  0  0  0  0
   18.8455  -20.8859  -15.2215 C   0  0  0  0  0  0  0  0  0  0  0  0
   18.2543  -22.2106  -15.5424 C   0  0  0  0  0  0  0  0  0  0  0  0
   16.7887  -22.1701  -15.7513 C   0  0  0  0  0  0  0  0  0  0  0  0
   16.1841  -23.4961  -15.5355 O   0  0  0  0  0  0  0  0  0  0  0  0
   15.5776  -23.7259  -14.4470 C   0  0  0  0  0  0  0  0  0  0  0  0
   18.4088  -20.1422  -14.0613 O   0  0  0  0  0  0  0  0  0  0  0  0
   17.3232  -19.2732  -14.1384 O   0  0  0  0  0  0  0  0  0  0  0  0
   16.2644  -24.5011  -16.5007 O   0  0  0  0  0  0  0  0  0  0  0  0
  1  2  1  0
  3  4  1  6
  3  2  1  0
  5  6  1  1
  5  3  1  0
  7  5  1  0
  8  7  2  0
  9 10  1  0
 10 12  1  0
 11 10  2  0
 12 13  1  0
 13 14  1  0
 14 15  1  0
 16 15  1  1
 16 18  1  0
 16 17  1  0
 17  7  1  0
 18 19  2  0
 20 21  1  0
 20 18  1  0
 22 23  1  0
 21 22  1  6
 24 25  2  0
 24 23  1  0
 26 27  1  0
 26 21  1  0
 28 24  1  0
 29 26  2  0
M  END
$$$$
