IRE.pdb
     RDKit          3D

 29 28  0  0  1  0  0  0  0  0999 V2000
   22.6318  -19.8767  -10.9495 C   0  0  0  0  0  0  0  0  0  0  0  0
   21.1471  -19.6419  -10.8402 C   0  0  0  0  0  0  0  0  0  0  0  0
   20.3726  -20.6787  -11.6336 C   0  0  2  0  0  0  0  0  0  0  0  0
   19.9405  -20.0204  -12.8990 C   0  0  0  0  0  0  0  0  0  0  0  0
   19.2426  -21.1387  -10.7389 C   0  0  2  0  0  0  0  0  0  0  0  0
   19.9311  -21.7969   -9.6092 N   0  0  0  0  0  0  0  0  0  0  0  0
   18.3966  -22.1895  -11.3363 C   0  0  0  0  0  0  0  0  0  0  0  0
   17.6041  -21.9924  -12.3086 O   0  0  0  0  0  0  0  0  0  0  0  0
   19.4911  -28.9854  -12.4841 N   0  0  0  0  0  0  0  0  0  0  0  0
   20.7651  -28.9014  -11.8317 C   0  0  0  0  0  0  0  0  0  0  0  0
   21.7688  -29.4780  -12.4051 N   0  0  0  0  0  0  0  0  0  0  0  0
   20.9047  -28.2053  -10.5979 N   0  0  0  0  0  0  0  0  0  0  0  0
   19.7577  -27.5058  -10.1031 C   0  0  0  0  0  0  0  0  0  0  0  0
   19.4843  -26.2133  -10.8870 C   0  0  0  0  0  0  0  0  0  0  0  0
   18.0797  -25.8183  -10.6119 C   0  0  0  0  0  0  0  0  0  0  0  0
   17.5916  -24.5778  -11.3233 C   0  0  2  0  0  0  0  0  0  0  0  0
   18.4551  -23.5011  -10.8127 N   0  0  0  0  0  0  0  0  0  0  0  0
   16.1797  -24.2595  -11.1234 C   0  0  0  0  0  0  0  0  0  0  0  0
   15.9016  -23.4819  -10.1421 O   0  0  0  0  0  0  0  0  0  0  0  0
   22.7100  -29.5278  -11.9737 N   0  0  0  0  0  0  0  0  0  0  0  0
   15.1272  -24.7275  -11.9089 C   0  0  1  0  0  0  0  0  0  0  0  0
   13.7806  -24.1227  -11.8106 C   0  0  0  0  0  0  0  0  0  0  0  0
   14.0158  -22.6698  -12.0130 C   0  0  0  0  0  0  0  0  0  0  0  0
   12.7703  -21.8853  -12.1757 C   0  0  0  0  0  0  0  0  0  0  0  0
   12.7590  -20.7142  -11.2818 O   0  0  0  0  0  0  0  0  0  0  0  0
   13.3633  -20.7831  -10.1703 C   0  0  0  0  0  0  0  0  0  0  0  0
   12.8941  -24.8575  -12.6846 O   0  0  0  0  0  0  0  0  0  0  0  0
   13.4012  -25.6653  -13.6994 O   0  0  0  0  0  0  0  0  0  0  0  0
   12.0997  -19.5348  -11.6317 O   0  0  0  0  0  0  0  0  0  0  0  0
  1  2  1  0
  3  4  1  6
  3  2  1  0
  5  6  1  1
  5  3  1  0
  7  5  1  0
  8  7  2  0
  9 10  1  0
 10 12  1  0
 11 10  2  0
 12 13  1  0
 13 14  1  0
 14 15  1  0
 16 15  1  1
 16 18  1  0
 16 17  1  0
 17  7  1  0
 18 19  2  0
 20 21  1  0
 20 18  1  0
 22 23  1  0
 21 22  1  1
 24 25  2  0
 24 23  1  0
 26 27  1  0
 26 21  1  0
 28 24  1  0
 29 26  2  0
M  END
$$$$
