IRE.pdb
     RDKit          3D

 29 28  0  0  1  0  0  0  0  0999 V2000
   26.1936  -12.6708  -16.4811 C   0  0  0  0  0  0  0  0  0  0  0  0
   26.7109  -14.0032  -16.9590 C   0  0  0  0  0  0  0  0  0  0  0  0
   26.0994  -15.1415  -16.1624 C   0  0  2  0  0  0  0  0  0  0  0  0
   26.4288  -14.8926  -14.7303 C   0  0  0  0  0  0  0  0  0  0  0  0
   26.6778  -16.4170  -16.7349 C   0  0  2  0  0  0  0  0  0  0  0  0
   26.1055  -16.4857  -18.0954 N   0  0  0  0  0  0  0  0  0  0  0  0
   26.2086  -17.6421  -16.0598 C   0  0  0  0  0  0  0  0  0  0  0  0
   26.7846  -18.1609  -15.0542 O   0  0  0  0  0  0  0  0  0  0  0  0
   25.9363  -24.6912  -15.3150 N   0  0  0  0  0  0  0  0  0  0  0  0
   24.7001  -24.5423  -14.6040 C   0  0  0  0  0  0  0  0  0  0  0  0
   24.1818  -25.6026  -14.0788 N   0  0  0  0  0  0  0  0  0  0  0  0
   24.0776  -23.2673  -14.4888 N   0  0  0  0  0  0  0  0  0  0  0  0
   24.7301  -22.1571  -15.1144 C   0  0  0  0  0  0  0  0  0  0  0  0
   25.2014  -21.1111  -14.0930 C   0  0  0  0  0  0  0  0  0  0  0  0
   25.4948  -19.8630  -14.8419 C   0  0  0  0  0  0  0  0  0  0  0  0
   24.4280  -19.4083  -15.8106 C   0  0  2  0  0  0  0  0  0  0  0  0
   25.0512  -18.2942  -16.5427 N   0  0  0  0  0  0  0  0  0  0  0  0
   23.1663  -18.9963  -15.1999 C   0  0  0  0  0  0  0  0  0  0  0  0
   23.2478  -18.1887  -14.2069 O   0  0  0  0  0  0  0  0  0  0  0  0
   23.3111  -25.5834  -13.5167 N   0  0  0  0  0  0  0  0  0  0  0  0
   21.8984  -19.4061  -15.6105 C   0  0  2  0  0  0  0  0  0  0  0  0
   20.6836  -18.9146  -14.9240 C   0  0  0  0  0  0  0  0  0  0  0  0
   20.2451  -17.7538  -15.7411 C   0  0  0  0  0  0  0  0  0  0  0  0
   20.1448  -16.4923  -14.9719 C   0  0  0  0  0  0  0  0  0  0  0  0
   19.2651  -15.5246  -15.6501 O   0  0  0  0  0  0  0  0  0  0  0  0
   18.6806  -15.8695  -16.7201 C   0  0  0  0  0  0  0  0  0  0  0  0
   19.8041  -20.0413  -14.7072 O   0  0  0  0  0  0  0  0  0  0  0  0
   18.6834  -19.9240  -13.8888 O   0  0  0  0  0  0  0  0  0  0  0  0
   19.0620  -14.2408  -15.1414 O   0  0  0  0  0  0  0  0  0  0  0  0
  1  2  1  0
  3  4  1  1
  3  2  1  0
  5  6  1  6
  5  3  1  0
  7  5  1  0
  8  7  2  0
  9 10  1  0
 10 12  1  0
 11 10  2  0
 12 13  1  0
 13 14  1  0
 14 15  1  0
 16 15  1  1
 16 18  1  0
 16 17  1  0
 17  7  1  0
 18 19  2  0
 20 21  1  0
 20 18  1  0
 22 23  1  0
 21 22  1  6
 24 25  2  0
 24 23  1  0
 26 27  1  0
 26 21  1  0
 28 24  1  0
 29 26  2  0
M  END
$$$$
