IRE.pdb
     RDKit          3D

 29 28  0  0  1  0  0  0  0  0999 V2000
   28.9404  -19.8959   -4.5252 C   0  0  0  0  0  0  0  0  0  0  0  0
   27.5744  -20.2148   -5.0764 C   0  0  0  0  0  0  0  0  0  0  0  0
   27.4460  -19.7484   -6.5152 C   0  0  2  0  0  0  0  0  0  0  0  0
   27.6280  -18.2692   -6.5080 C   0  0  0  0  0  0  0  0  0  0  0  0
   26.0898  -20.2192   -6.9931 C   0  0  2  0  0  0  0  0  0  0  0  0
   26.1706  -21.6912   -6.8925 N   0  0  0  0  0  0  0  0  0  0  0  0
   25.8308  -19.9466   -8.4197 C   0  0  0  0  0  0  0  0  0  0  0  0
   25.5889  -18.7909   -8.8869 O   0  0  0  0  0  0  0  0  0  0  0  0
   29.0651  -22.5767  -15.1830 N   0  0  0  0  0  0  0  0  0  0  0  0
   27.9365  -21.8456  -15.6807 C   0  0  0  0  0  0  0  0  0  0  0  0
   27.4797  -22.1718  -16.8442 N   0  0  0  0  0  0  0  0  0  0  0  0
   27.3509  -20.8012  -14.9109 N   0  0  0  0  0  0  0  0  0  0  0  0
   27.3925  -20.9309  -13.4858 C   0  0  0  0  0  0  0  0  0  0  0  0
   26.2950  -21.8662  -12.9566 C   0  0  0  0  0  0  0  0  0  0  0  0
   26.3854  -21.8596  -11.4745 C   0  0  0  0  0  0  0  0  0  0  0  0
   25.5474  -20.8203  -10.7668 C   0  0  2  0  0  0  0  0  0  0  0  0
   25.8482  -21.0193   -9.3400 N   0  0  0  0  0  0  0  0  0  0  0  0
   24.1105  -20.9016  -11.0180 C   0  0  0  0  0  0  0  0  0  0  0  0
   23.4584  -21.7703  -10.3359 O   0  0  0  0  0  0  0  0  0  0  0  0
   26.7094  -21.6577  -17.3099 N   0  0  0  0  0  0  0  0  0  0  0  0
   23.4038  -20.1160  -11.9275 C   0  0  2  0  0  0  0  0  0  0  0  0
   21.9366  -20.2480  -12.0638 C   0  0  0  0  0  0  0  0  0  0  0  0
   21.4868  -18.9023  -12.5040 C   0  0  0  0  0  0  0  0  0  0  0  0
   21.5898  -18.6924  -13.9664 C   0  0  0  0  0  0  0  0  0  0  0  0
   20.3348  -18.1499  -14.5153 O   0  0  0  0  0  0  0  0  0  0  0  0
   19.3368  -18.0109  -13.7471 C   0  0  0  0  0  0  0  0  0  0  0  0
   21.6644  -21.4187  -12.8671 O   0  0  0  0  0  0  0  0  0  0  0  0
   20.4002  -22.0029  -12.8707 O   0  0  0  0  0  0  0  0  0  0  0  0
   20.2219  -17.7868  -15.8583 O   0  0  0  0  0  0  0  0  0  0  0  0
  1  2  1  0
  3  4  1  1
  3  2  1  0
  5  6  1  6
  5  3  1  0
  7  5  1  0
  8  7  2  0
  9 10  1  0
 10 12  1  0
 11 10  2  0
 12 13  1  0
 13 14  1  0
 14 15  1  0
 16 15  1  6
 16 18  1  0
 16 17  1  0
 17  7  1  0
 18 19  2  0
 20 21  1  0
 20 18  1  0
 22 23  1  0
 21 22  1  1
 24 25  2  0
 24 23  1  0
 26 27  1  0
 26 21  1  0
 28 24  1  0
 29 26  2  0
M  END
$$$$
