IRE.pdb
     RDKit          3D

 29 28  0  0  1  0  0  0  0  0999 V2000
   27.0497  -19.6147   -6.3335 C   0  0  0  0  0  0  0  0  0  0  0  0
   27.3926  -20.4946   -7.5080 C   0  0  0  0  0  0  0  0  0  0  0  0
   26.5534  -20.1348   -8.7206 C   0  0  2  0  0  0  0  0  0  0  0  0
   25.1274  -20.3262   -8.3316 C   0  0  0  0  0  0  0  0  0  0  0  0
   27.0303  -21.0274   -9.8453 C   0  0  2  0  0  0  0  0  0  0  0  0
   28.4996  -20.8732   -9.8207 N   0  0  0  0  0  0  0  0  0  0  0  0
   26.6197  -20.5705  -11.1866 C   0  0  0  0  0  0  0  0  0  0  0  0
   26.7852  -19.3856  -11.6121 O   0  0  0  0  0  0  0  0  0  0  0  0
   25.0743  -24.6389  -17.9404 N   0  0  0  0  0  0  0  0  0  0  0  0
   25.7338  -23.5850  -18.6548 C   0  0  0  0  0  0  0  0  0  0  0  0
   25.4791  -23.4681  -19.9158 N   0  0  0  0  0  0  0  0  0  0  0  0
   26.6337  -22.7074  -17.9868 N   0  0  0  0  0  0  0  0  0  0  0  0
   26.7761  -22.8632  -16.5708 C   0  0  0  0  0  0  0  0  0  0  0  0
   25.9001  -21.8739  -15.7877 C   0  0  0  0  0  0  0  0  0  0  0  0
   26.2363  -22.0283  -14.3497 C   0  0  0  0  0  0  0  0  0  0  0  0
   25.5340  -21.0832  -13.4026 C   0  0  2  0  0  0  0  0  0  0  0  0
   26.0043  -21.4881  -12.0682 N   0  0  0  0  0  0  0  0  0  0  0  0
   24.0748  -21.0998  -13.4738 C   0  0  0  0  0  0  0  0  0  0  0  0
   23.4805  -22.0308  -12.8217 O   0  0  0  0  0  0  0  0  0  0  0  0
   25.9709  -22.7916  -20.5282 N   0  0  0  0  0  0  0  0  0  0  0  0
   23.2904  -20.1919  -14.1838 C   0  0  2  0  0  0  0  0  0  0  0  0
   21.8139  -20.2406  -14.1037 C   0  0  0  0  0  0  0  0  0  0  0  0
   21.3899  -18.8292  -14.2915 C   0  0  0  0  0  0  0  0  0  0  0  0
   19.9205  -18.6558  -14.3554 C   0  0  0  0  0  0  0  0  0  0  0  0
   19.5627  -17.2598  -14.6614 O   0  0  0  0  0  0  0  0  0  0  0  0
   20.4857  -16.4302  -14.9170 C   0  0  0  0  0  0  0  0  0  0  0  0
   21.3503  -21.2777  -14.9978 O   0  0  0  0  0  0  0  0  0  0  0  0
   20.2257  -22.0378  -14.6861 O   0  0  0  0  0  0  0  0  0  0  0  0
   18.2340  -16.8329  -14.6762 O   0  0  0  0  0  0  0  0  0  0  0  0
  1  2  1  0
  3  4  1  1
  3  2  1  0
  5  6  1  6
  5  3  1  0
  7  5  1  0
  8  7  2  0
  9 10  1  0
 10 12  1  0
 11 10  2  0
 12 13  1  0
 13 14  1  0
 14 15  1  0
 16 15  1  6
 16 18  1  0
 16 17  1  0
 17  7  1  0
 18 19  2  0
 20 21  1  0
 20 18  1  0
 22 23  1  0
 21 22  1  1
 24 25  2  0
 24 23  1  0
 26 27  1  0
 26 21  1  0
 28 24  1  0
 29 26  2  0
M  END
$$$$
