IRE.pdb
     RDKit          3D

 29 28  0  0  1  0  0  0  0  0999 V2000
   28.3598  -13.8502  -16.0442 C   0  0  0  0  0  0  0  0  0  0  0  0
   26.9436  -14.0410  -15.5653 C   0  0  0  0  0  0  0  0  0  0  0  0
   26.0598  -12.8890  -16.0082 C   0  0  2  0  0  0  0  0  0  0  0  0
   26.6585  -11.6446  -15.4476 C   0  0  0  0  0  0  0  0  0  0  0  0
   24.6681  -13.2063  -15.5066 C   0  0  2  0  0  0  0  0  0  0  0  0
   24.3689  -14.5247  -16.1030 N   0  0  0  0  0  0  0  0  0  0  0  0
   23.6241  -12.3041  -16.0288 C   0  0  0  0  0  0  0  0  0  0  0  0
   23.3518  -12.1756  -17.2624 O   0  0  0  0  0  0  0  0  0  0  0  0
   15.8904  -12.4928  -14.2485 N   0  0  0  0  0  0  0  0  0  0  0  0
   16.6612  -12.7981  -15.4184 C   0  0  0  0  0  0  0  0  0  0  0  0
   16.2994  -13.8194  -16.1220 N   0  0  0  0  0  0  0  0  0  0  0  0
   17.7813  -11.9974  -15.7795 N   0  0  0  0  0  0  0  0  0  0  0  0
   18.1405  -10.9306  -14.8948 C   0  0  0  0  0  0  0  0  0  0  0  0
   19.3901  -10.1764  -15.3736 C   0  0  0  0  0  0  0  0  0  0  0  0
   20.5610  -11.0521  -15.1149 C   0  0  0  0  0  0  0  0  0  0  0  0
   21.8967  -10.5235  -15.5837 C   0  0  2  0  0  0  0  0  0  0  0  0
   22.8686  -11.5271  -15.1213 N   0  0  0  0  0  0  0  0  0  0  0  0
   22.2449   -9.1905  -15.0974 C   0  0  0  0  0  0  0  0  0  0  0  0
   22.6630   -9.1138  -13.8873 O   0  0  0  0  0  0  0  0  0  0  0  0
   16.7763  -14.0939  -17.0005 N   0  0  0  0  0  0  0  0  0  0  0  0
   22.1615   -8.0129  -15.8391 C   0  0  2  0  0  0  0  0  0  0  0  0
   22.5891   -6.7204  -15.2601 C   0  0  0  0  0  0  0  0  0  0  0  0
   22.8040   -5.8434  -16.4399 C   0  0  0  0  0  0  0  0  0  0  0  0
   21.6871   -4.9037  -16.6907 C   0  0  0  0  0  0  0  0  0  0  0  0
   21.9552   -4.0619  -17.8696 O   0  0  0  0  0  0  0  0  0  0  0  0
   21.1063   -3.1824  -18.2032 C   0  0  0  0  0  0  0  0  0  0  0  0
   21.6429   -6.3557  -14.2297 O   0  0  0  0  0  0  0  0  0  0  0  0
   21.9776   -5.4215  -13.2525 O   0  0  0  0  0  0  0  0  0  0  0  0
   23.1197   -4.2116  -18.6242 O   0  0  0  0  0  0  0  0  0  0  0  0
  1  2  1  0
  3  4  1  1
  3  2  1  0
  5  6  1  6
  5  3  1  0
  7  5  1  0
  8  7  2  0
  9 10  1  0
 10 12  1  0
 11 10  2  0
 12 13  1  0
 13 14  1  0
 14 15  1  0
 16 15  1  1
 16 18  1  0
 16 17  1  0
 17  7  1  0
 18 19  2  0
 20 21  1  0
 20 18  1  0
 22 23  1  0
 21 22  1  6
 24 25  2  0
 24 23  1  0
 26 27  1  0
 26 21  1  0
 28 24  1  0
 29 26  2  0
M  END
$$$$
