IRE.pdb
     RDKit          3D

 29 28  0  0  1  0  0  0  0  0999 V2000
   28.0372  -10.0105  -16.8747 C   0  0  0  0  0  0  0  0  0  0  0  0
   26.7070  -10.6555  -17.1675 C   0  0  0  0  0  0  0  0  0  0  0  0
   26.2127  -11.4497  -15.9720 C   0  0  2  0  0  0  0  0  0  0  0  0
   27.2401  -12.4921  -15.6909 C   0  0  0  0  0  0  0  0  0  0  0  0
   24.8509  -11.9868  -16.3546 C   0  0  2  0  0  0  0  0  0  0  0  0
   25.0931  -12.6874  -17.6328 N   0  0  0  0  0  0  0  0  0  0  0  0
   23.8628  -10.9388  -16.6736 C   0  0  0  0  0  0  0  0  0  0  0  0
   23.7686  -10.3765  -17.8083 O   0  0  0  0  0  0  0  0  0  0  0  0
   16.4635  -12.7976  -14.3721 N   0  0  0  0  0  0  0  0  0  0  0  0
   17.0105  -13.3465  -15.5785 C   0  0  0  0  0  0  0  0  0  0  0  0
   16.3409  -14.2822  -16.1660 N   0  0  0  0  0  0  0  0  0  0  0  0
   18.2466  -12.8692  -16.0985 N   0  0  0  0  0  0  0  0  0  0  0  0
   18.8303  -11.7263  -15.4639 C   0  0  0  0  0  0  0  0  0  0  0  0
   20.0886  -11.2363  -16.1961 C   0  0  0  0  0  0  0  0  0  0  0  0
   20.6512  -10.1129  -15.4047 C   0  0  0  0  0  0  0  0  0  0  0  0
   21.9262   -9.5027  -15.9389 C   0  0  2  0  0  0  0  0  0  0  0  0
   22.9562  -10.5197  -15.6734 N   0  0  0  0  0  0  0  0  0  0  0  0
   22.2941   -8.2157  -15.3535 C   0  0  0  0  0  0  0  0  0  0  0  0
   22.8304   -8.2489  -14.1889 O   0  0  0  0  0  0  0  0  0  0  0  0
   16.6644  -14.7432  -17.0362 N   0  0  0  0  0  0  0  0  0  0  0  0
   22.1121   -6.9722  -15.9573 C   0  0  2  0  0  0  0  0  0  0  0  0
   22.5340   -5.7291  -15.2750 C   0  0  0  0  0  0  0  0  0  0  0  0
   22.5516   -4.7071  -16.3531 C   0  0  0  0  0  0  0  0  0  0  0  0
   22.9071   -3.3505  -15.8774 C   0  0  0  0  0  0  0  0  0  0  0  0
   22.8291   -2.3662  -16.9708 O   0  0  0  0  0  0  0  0  0  0  0  0
   22.5937   -2.7719  -18.1479 C   0  0  0  0  0  0  0  0  0  0  0  0
   21.7033   -5.5558  -14.1047 O   0  0  0  0  0  0  0  0  0  0  0  0
   22.1251   -4.7603  -13.0422 O   0  0  0  0  0  0  0  0  0  0  0  0
   23.0079   -1.0015  -16.7391 O   0  0  0  0  0  0  0  0  0  0  0  0
  1  2  1  0
  3  4  1  6
  3  2  1  0
  5  6  1  6
  5  3  1  0
  7  5  1  0
  8  7  2  0
  9 10  1  0
 10 12  1  0
 11 10  2  0
 12 13  1  0
 13 14  1  0
 14 15  1  0
 16 15  1  1
 16 18  1  0
 16 17  1  0
 17  7  1  0
 18 19  2  0
 20 21  1  0
 20 18  1  0
 22 23  1  0
 21 22  1  6
 24 25  2  0
 24 23  1  0
 26 27  1  0
 26 21  1  0
 28 24  1  0
 29 26  2  0
M  END
$$$$
