EQC.pdb
     RDKit          3D

 25 24  0  0  1  0  0  0  0  0999 V2000
   17.5066  -11.6385  -18.7131 N   0  0  0  0  0  0  0  0  0  0  0  0
   17.2706  -11.2533  -17.3481 C   0  0  1  0  0  0  0  0  0  0  0  0
   17.7719  -12.3091  -16.3883 C   0  0  0  0  0  0  0  0  0  0  0  0
   19.1778  -12.6882  -16.8408 C   0  0  0  0  0  0  0  0  0  0  0  0
   19.7920  -13.6628  -15.9000 C   0  0  0  0  0  0  0  0  0  0  0  0
   20.9622  -14.0708  -15.9782 O   0  0  0  0  0  0  0  0  0  0  0  0
   17.9275   -9.9414  -17.1192 C   0  0  0  0  0  0  0  0  0  0  0  0
   18.9800   -9.6185  -17.7099 O   0  0  0  0  0  0  0  0  0  0  0  0
   18.9845  -14.1333  -14.8753 O   0  0  0  0  0  0  0  0  0  0  0  0
   14.9499   -5.2813  -14.0557 N   0  0  0  0  0  0  0  0  0  0  0  0
   16.1732   -4.6712  -14.3928 C   0  0  0  0  0  0  0  0  0  0  0  0
   16.3603   -3.4699  -14.1207 O   0  0  0  0  0  0  0  0  0  0  0  0
   17.2240   -5.4559  -15.0648 C   0  0  0  0  0  0  0  0  0  0  0  0
   16.7767   -6.8844  -15.3161 C   0  0  0  0  0  0  0  0  0  0  0  0
   17.8762   -7.6969  -15.9669 C   0  0  2  0  0  0  0  0  0  0  0  0
   17.3671   -9.0156  -16.2139 N   0  0  0  0  0  0  0  0  0  0  0  0
   19.0920   -7.6676  -15.1566 C   0  0  0  0  0  0  0  0  0  0  0  0
   19.2748   -8.5915  -14.3219 O   0  0  0  0  0  0  0  0  0  0  0  0
   20.1059   -6.6735  -15.2255 N   0  0  0  0  0  0  0  0  0  0  0  0
   21.3330   -6.7372  -14.4539 C   0  0  1  0  0  0  0  0  0  0  0  0
   22.4455   -7.4110  -15.2244 C   0  0  0  0  0  0  0  0  0  0  0  0
   22.3039   -9.2078  -15.1293 S   0  0  0  0  0  0  0  0  0  0  0  0
   21.7614   -5.3293  -14.2089 C   0  0  0  0  0  0  0  0  0  0  0  0
   21.1215   -4.2402  -14.8173 O   0  0  0  0  0  0  0  0  0  0  0  0
   22.7207   -5.0301  -13.4436 O   0  0  0  0  0  0  0  0  0  0  0  0
  2  7  1  0
  2  1  1  6
  3  2  1  0
  4  3  1  0
  5  4  1  0
  5  9  1  0
  6  5  2  0
  7  8  2  0
 11 13  1  0
 11 10  1  0
 12 11  2  0
 15 14  1  1
 14 13  1  0
 16 15  1  0
 16  7  1  0
 17 18  2  0
 17 15  1  0
 19 17  1  0
 20 19  1  0
 20 23  1  0
 20 21  1  6
 22 21  1  0
 23 24  1  0
 25 23  2  0
M  END
$$$$
