EQC.pdb
     RDKit          3D

 25 24  0  0  1  0  0  0  0  0999 V2000
   13.6319   -9.9347  -12.7596 N   0  0  0  0  0  0  0  0  0  0  0  0
   14.9053  -10.0775  -12.1074 C   0  0  1  0  0  0  0  0  0  0  0  0
   15.8926  -10.8067  -12.9909 C   0  0  0  0  0  0  0  0  0  0  0  0
   15.3660  -12.2268  -13.1666 C   0  0  0  0  0  0  0  0  0  0  0  0
   16.1703  -12.9689  -14.1739 C   0  0  0  0  0  0  0  0  0  0  0  0
   17.0944  -12.4715  -14.8378 O   0  0  0  0  0  0  0  0  0  0  0  0
   15.3889   -8.7228  -11.7387 C   0  0  0  0  0  0  0  0  0  0  0  0
   15.2195   -7.7358  -12.4857 O   0  0  0  0  0  0  0  0  0  0  0  0
   15.8483  -14.3039  -14.3674 O   0  0  0  0  0  0  0  0  0  0  0  0
   14.0645   -8.5480   -8.8722 N   0  0  0  0  0  0  0  0  0  0  0  0
   13.9434   -7.2307   -8.3899 C   0  0  0  0  0  0  0  0  0  0  0  0
   12.8225   -6.7899   -8.0713 O   0  0  0  0  0  0  0  0  0  0  0  0
   15.1416   -6.3820   -8.2649 C   0  0  0  0  0  0  0  0  0  0  0  0
   16.4073   -7.1554   -8.5867 C   0  0  0  0  0  0  0  0  0  0  0  0
   16.6162   -7.2676  -10.0821 C   0  0  2  0  0  0  0  0  0  0  0  0
   16.0616   -8.5182  -10.5155 N   0  0  0  0  0  0  0  0  0  0  0  0
   18.0256   -7.0883  -10.4240 C   0  0  0  0  0  0  0  0  0  0  0  0
   18.8873   -7.7040   -9.7442 O   0  0  0  0  0  0  0  0  0  0  0  0
   18.5224   -6.2673  -11.4730 N   0  0  0  0  0  0  0  0  0  0  0  0
   19.8705   -6.3798  -11.9976 C   0  0  1  0  0  0  0  0  0  0  0  0
   20.1221   -7.7386  -12.6107 C   0  0  0  0  0  0  0  0  0  0  0  0
   21.7742   -7.8286  -13.3319 S   0  0  0  0  0  0  0  0  0  0  0  0
   19.9909   -5.3761  -13.0948 C   0  0  0  0  0  0  0  0  0  0  0  0
   21.1427   -4.5951  -13.2658 O   0  0  0  0  0  0  0  0  0  0  0  0
   19.0701   -5.1669  -13.9338 O   0  0  0  0  0  0  0  0  0  0  0  0
  2  7  1  0
  2  1  1  6
  3  2  1  0
  4  3  1  0
  5  4  1  0
  5  9  1  0
  6  5  2  0
  7  8  2  0
 11 13  1  0
 11 10  1  0
 12 11  2  0
 15 14  1  1
 14 13  1  0
 16 15  1  0
 16  7  1  0
 17 18  2  0
 17 15  1  0
 19 17  1  0
 20 19  1  0
 20 23  1  0
 20 21  1  6
 22 21  1  0
 23 24  1  0
 25 23  2  0
M  END
$$$$
