EQC.pdb
     RDKit          3D

 25 24  0  0  1  0  0  0  0  0999 V2000
   18.0772  -13.4046  -17.1940 N   0  0  0  0  0  0  0  0  0  0  0  0
   17.5223  -12.2506  -16.5400 C   0  0  1  0  0  0  0  0  0  0  0  0
   17.2297  -12.5361  -15.0840 C   0  0  0  0  0  0  0  0  0  0  0  0
   16.1322  -13.5942  -15.0513 C   0  0  0  0  0  0  0  0  0  0  0  0
   16.5916  -14.8114  -14.3305 C   0  0  0  0  0  0  0  0  0  0  0  0
   17.5308  -14.8327  -13.5184 O   0  0  0  0  0  0  0  0  0  0  0  0
   18.4775  -11.1252  -16.7016 C   0  0  0  0  0  0  0  0  0  0  0  0
   19.7119  -11.2875  -16.5978 O   0  0  0  0  0  0  0  0  0  0  0  0
   15.9105  -15.9891  -14.5997 O   0  0  0  0  0  0  0  0  0  0  0  0
   16.2626   -9.5842  -19.1801 N   0  0  0  0  0  0  0  0  0  0  0  0
   17.1837   -9.0524  -20.1026 C   0  0  0  0  0  0  0  0  0  0  0  0
   17.1052   -9.3673  -21.3055 O   0  0  0  0  0  0  0  0  0  0  0  0
   18.2340   -8.1277  -19.6408 C   0  0  0  0  0  0  0  0  0  0  0  0
   18.0504   -7.7626  -18.1790 C   0  0  0  0  0  0  0  0  0  0  0  0
   18.8334   -8.6944  -17.2784 C   0  0  2  0  0  0  0  0  0  0  0  0
   18.0029   -9.8262  -16.9808 N   0  0  0  0  0  0  0  0  0  0  0  0
   19.3231   -7.9854  -16.0982 C   0  0  0  0  0  0  0  0  0  0  0  0
   18.6384   -8.0386  -15.0437 O   0  0  0  0  0  0  0  0  0  0  0  0
   20.5237   -7.2271  -16.0301 N   0  0  0  0  0  0  0  0  0  0  0  0
   20.9693   -6.5538  -14.8245 C   0  0  1  0  0  0  0  0  0  0  0  0
   22.1503   -7.2560  -14.1940 C   0  0  0  0  0  0  0  0  0  0  0  0
   22.8995   -6.2363  -12.9071 S   0  0  0  0  0  0  0  0  0  0  0  0
   21.4357   -5.1977  -15.2358 C   0  0  0  0  0  0  0  0  0  0  0  0
   21.6221   -4.1622  -14.3092 O   0  0  0  0  0  0  0  0  0  0  0  0
   21.6905   -4.8974  -16.4360 O   0  0  0  0  0  0  0  0  0  0  0  0
  2  7  1  0
  2  1  1  1
  3  2  1  0
  4  3  1  0
  5  4  1  0
  5  9  1  0
  6  5  2  0
  7  8  2  0
 11 13  1  0
 11 10  1  0
 12 11  2  0
 15 14  1  6
 14 13  1  0
 16 15  1  0
 16  7  1  0
 17 18  2  0
 17 15  1  0
 19 17  1  0
 20 19  1  0
 20 23  1  0
 20 21  1  6
 22 21  1  0
 23 24  1  0
 25 23  2  0
M  END
$$$$
