EQC.pdb
     RDKit          3D

 25 24  0  0  1  0  0  0  0  0999 V2000
   22.4291  -19.6409  -16.7760 N   0  0  0  0  0  0  0  0  0  0  0  0
   22.1151  -19.1970  -15.4449 C   0  0  1  0  0  0  0  0  0  0  0  0
   20.6204  -19.0800  -15.2467 C   0  0  0  0  0  0  0  0  0  0  0  0
   20.0772  -18.2836  -16.4281 C   0  0  0  0  0  0  0  0  0  0  0  0
   18.7834  -17.6374  -16.0810 C   0  0  0  0  0  0  0  0  0  0  0  0
   17.7009  -18.2394  -15.9909 O   0  0  0  0  0  0  0  0  0  0  0  0
   22.7273  -20.1499  -14.4847 C   0  0  0  0  0  0  0  0  0  0  0  0
   22.0346  -20.8339  -13.7015 O   0  0  0  0  0  0  0  0  0  0  0  0
   18.8126  -16.2708  -15.8467 O   0  0  0  0  0  0  0  0  0  0  0  0
   27.2103  -22.9718  -16.4175 N   0  0  0  0  0  0  0  0  0  0  0  0
   27.5370  -21.6407  -16.0955 C   0  0  0  0  0  0  0  0  0  0  0  0
   28.4309  -21.0522  -16.7332 O   0  0  0  0  0  0  0  0  0  0  0  0
   26.8205  -20.9521  -15.0073 C   0  0  0  0  0  0  0  0  0  0  0  0
   25.8975  -21.8990  -14.2623 C   0  0  0  0  0  0  0  0  0  0  0  0
   24.8304  -21.1399  -13.5023 C   0  0  2  0  0  0  0  0  0  0  0  0
   24.1287  -20.3059  -14.4357 N   0  0  0  0  0  0  0  0  0  0  0  0
   25.4125  -20.4161  -12.3741 C   0  0  0  0  0  0  0  0  0  0  0  0
   25.6708  -19.1931  -12.5195 O   0  0  0  0  0  0  0  0  0  0  0  0
   25.7197  -20.9764  -11.1041 N   0  0  0  0  0  0  0  0  0  0  0  0
   26.4605  -20.2631  -10.0806 C   0  0  1  0  0  0  0  0  0  0  0  0
   25.9083  -20.5314   -8.6992 C   0  0  0  0  0  0  0  0  0  0  0  0
   26.9548  -19.7923   -7.4279 S   0  0  0  0  0  0  0  0  0  0  0  0
   27.8533  -20.7970  -10.1060 C   0  0  0  0  0  0  0  0  0  0  0  0
   28.9380  -20.0709   -9.5939 O   0  0  0  0  0  0  0  0  0  0  0  0
   28.1429  -21.9286  -10.5866 O   0  0  0  0  0  0  0  0  0  0  0  0
  2  7  1  0
  2  1  1  6
  3  2  1  0
  4  3  1  0
  5  4  1  0
  5  9  1  0
  6  5  2  0
  7  8  2  0
 11 13  1  0
 11 10  1  0
 12 11  2  0
 15 14  1  6
 14 13  1  0
 16 15  1  0
 16  7  1  0
 17 18  2  0
 17 15  1  0
 19 17  1  0
 20 19  1  0
 20 23  1  0
 20 21  1  1
 22 21  1  0
 23 24  1  0
 25 23  2  0
M  END
$$$$
