EQC.pdb
     RDKit          3D

 25 24  0  0  1  0  0  0  0  0999 V2000
   28.3926  -22.1934  -16.6032 N   0  0  0  0  0  0  0  0  0  0  0  0
   26.9963  -22.0810  -16.9275 C   0  0  1  0  0  0  0  0  0  0  0  0
   26.3810  -23.4409  -17.1707 C   0  0  0  0  0  0  0  0  0  0  0  0
   26.5849  -24.2542  -15.8972 C   0  0  0  0  0  0  0  0  0  0  0  0
   25.9368  -25.5881  -16.0113 C   0  0  0  0  0  0  0  0  0  0  0  0
   25.9601  -26.4571  -15.1246 O   0  0  0  0  0  0  0  0  0  0  0  0
   26.3221  -21.3596  -15.8184 C   0  0  0  0  0  0  0  0  0  0  0  0
   26.8878  -21.1566  -14.7231 O   0  0  0  0  0  0  0  0  0  0  0  0
   25.2680  -25.8564  -17.1963 O   0  0  0  0  0  0  0  0  0  0  0  0
   20.8473  -18.3223  -16.7644 N   0  0  0  0  0  0  0  0  0  0  0  0
   21.1187  -18.0175  -15.4169 C   0  0  0  0  0  0  0  0  0  0  0  0
   20.3560  -17.2581  -14.7894 O   0  0  0  0  0  0  0  0  0  0  0  0
   22.3020  -18.5975  -14.7574 C   0  0  0  0  0  0  0  0  0  0  0  0
   23.0933  -19.4776  -15.7077 C   0  0  0  0  0  0  0  0  0  0  0  0
   24.2942  -20.0891  -15.0175 C   0  0  2  0  0  0  0  0  0  0  0  0
   25.0053  -20.8797  -15.9810 N   0  0  0  0  0  0  0  0  0  0  0  0
   23.8867  -20.8260  -13.8232 C   0  0  0  0  0  0  0  0  0  0  0  0
   23.3092  -21.9339  -13.9741 O   0  0  0  0  0  0  0  0  0  0  0  0
   24.0861  -20.3990  -12.4819 N   0  0  0  0  0  0  0  0  0  0  0  0
   23.6069  -21.1440  -11.3327 C   0  0  1  0  0  0  0  0  0  0  0  0
   24.4006  -20.8243  -10.0865 C   0  0  0  0  0  0  0  0  0  0  0  0
   26.0738  -21.4923  -10.1943 S   0  0  0  0  0  0  0  0  0  0  0  0
   22.2050  -20.6983  -11.0845 C   0  0  0  0  0  0  0  0  0  0  0  0
   21.3834  -21.3210  -10.1342 O   0  0  0  0  0  0  0  0  0  0  0  0
   21.6720  -19.7388  -11.7096 O   0  0  0  0  0  0  0  0  0  0  0  0
  2  7  1  0
  2  1  1  1
  3  2  1  0
  4  3  1  0
  5  4  1  0
  5  9  1  0
  6  5  2  0
  7  8  2  0
 11 13  1  0
 11 10  1  0
 12 11  2  0
 15 14  1  6
 14 13  1  0
 16 15  1  0
 16  7  1  0
 17 18  2  0
 17 15  1  0
 19 17  1  0
 20 19  1  0
 20 23  1  0
 20 21  1  1
 22 21  1  0
 23 24  1  0
 25 23  2  0
M  END
$$$$
