EQC.pdb
     RDKit          3D

 25 24  0  0  1  0  0  0  0  0999 V2000
   19.8075  -13.1259  -15.7006 N   0  0  0  0  0  0  0  0  0  0  0  0
   19.3833  -11.8951  -16.3110 C   0  0  1  0  0  0  0  0  0  0  0  0
   18.0397  -11.4543  -15.7747 C   0  0  0  0  0  0  0  0  0  0  0  0
   17.0177  -12.4883  -16.2344 C   0  0  0  0  0  0  0  0  0  0  0  0
   15.6445  -12.0969  -15.8180 C   0  0  0  0  0  0  0  0  0  0  0  0
   15.2809  -10.9275  -15.6120 O   0  0  0  0  0  0  0  0  0  0  0  0
   20.4357  -10.8752  -16.0718 C   0  0  0  0  0  0  0  0  0  0  0  0
   20.9047  -10.6656  -14.9330 O   0  0  0  0  0  0  0  0  0  0  0  0
   14.7264  -13.1235  -15.6553 O   0  0  0  0  0  0  0  0  0  0  0  0
   23.7186   -8.2260  -20.7727 N   0  0  0  0  0  0  0  0  0  0  0  0
   24.1529   -7.4766  -19.6627 C   0  0  0  0  0  0  0  0  0  0  0  0
   25.0676   -6.6420  -19.8003 O   0  0  0  0  0  0  0  0  0  0  0  0
   23.5240   -7.6834  -18.3462 C   0  0  0  0  0  0  0  0  0  0  0  0
   22.4818   -8.7858  -18.3945 C   0  0  0  0  0  0  0  0  0  0  0  0
   21.9065   -9.0573  -17.0204 C   0  0  2  0  0  0  0  0  0  0  0  0
   20.9371  -10.1080  -17.1445 N   0  0  0  0  0  0  0  0  0  0  0  0
   21.3842   -7.8293  -16.4248 C   0  0  0  0  0  0  0  0  0  0  0  0
   20.2450   -7.4311  -16.7815 O   0  0  0  0  0  0  0  0  0  0  0  0
   22.0566   -7.0283  -15.4618 N   0  0  0  0  0  0  0  0  0  0  0  0
   21.4868   -5.8183  -14.8993 C   0  0  1  0  0  0  0  0  0  0  0  0
   21.0958   -6.0034  -13.4508 C   0  0  0  0  0  0  0  0  0  0  0  0
   20.7027   -4.4205  -12.6779 S   0  0  0  0  0  0  0  0  0  0  0  0
   22.5585   -4.7811  -14.9337 C   0  0  0  0  0  0  0  0  0  0  0  0
   22.2758   -3.4143  -14.8003 O   0  0  0  0  0  0  0  0  0  0  0  0
   23.7801   -5.0651  -15.0839 O   0  0  0  0  0  0  0  0  0  0  0  0
  2  7  1  0
  2  1  1  1
  3  2  1  0
  4  3  1  0
  5  4  1  0
  5  9  1  0
  6  5  2  0
  7  8  2  0
 11 13  1  0
 11 10  1  0
 12 11  2  0
 15 14  1  6
 14 13  1  0
 16 15  1  0
 16  7  1  0
 17 18  2  0
 17 15  1  0
 19 17  1  0
 20 19  1  0
 20 23  1  0
 20 21  1  1
 22 21  1  0
 23 24  1  0
 25 23  2  0
M  END
$$$$
