EQC.pdb
     RDKit          3D

 25 24  0  0  1  0  0  0  0  0999 V2000
   20.3360  -12.9693  -17.4605 N   0  0  0  0  0  0  0  0  0  0  0  0
   19.4376  -11.8496  -17.3793 C   0  0  1  0  0  0  0  0  0  0  0  0
   18.4503  -12.0226  -16.2469 C   0  0  0  0  0  0  0  0  0  0  0  0
   17.3715  -12.9801  -16.7415 C   0  0  0  0  0  0  0  0  0  0  0  0
   16.4255  -13.3231  -15.6462 C   0  0  0  0  0  0  0  0  0  0  0  0
   15.4559  -12.6228  -15.3122 O   0  0  0  0  0  0  0  0  0  0  0  0
   20.2504  -10.6170  -17.2207 C   0  0  0  0  0  0  0  0  0  0  0  0
   21.2826  -10.5933  -16.5171 O   0  0  0  0  0  0  0  0  0  0  0  0
   16.6624  -14.5087  -14.9668 O   0  0  0  0  0  0  0  0  0  0  0  0
   19.2171   -5.4535  -20.7430 N   0  0  0  0  0  0  0  0  0  0  0  0
   20.2412   -5.0167  -19.8812 C   0  0  0  0  0  0  0  0  0  0  0  0
   20.7109   -3.8701  -20.0110 O   0  0  0  0  0  0  0  0  0  0  0  0
   20.7509   -5.9170  -18.8318 C   0  0  0  0  0  0  0  0  0  0  0  0
   20.0323   -7.2539  -18.8483 C   0  0  0  0  0  0  0  0  0  0  0  0
   20.5569   -8.1720  -17.7647 C   0  0  2  0  0  0  0  0  0  0  0  0
   19.8674   -9.4258  -17.8726 N   0  0  0  0  0  0  0  0  0  0  0  0
   20.4470   -7.5405  -16.4514 C   0  0  0  0  0  0  0  0  0  0  0  0
   19.3168   -7.5055  -15.8992 O   0  0  0  0  0  0  0  0  0  0  0  0
   21.5188   -6.9510  -15.7268 N   0  0  0  0  0  0  0  0  0  0  0  0
   21.3489   -6.3234  -14.4297 C   0  0  1  0  0  0  0  0  0  0  0  0
   21.8823   -7.1913  -13.3128 C   0  0  0  0  0  0  0  0  0  0  0  0
   21.8829   -6.3002  -11.7432 S   0  0  0  0  0  0  0  0  0  0  0  0
   22.1679   -5.0766  -14.4438 C   0  0  0  0  0  0  0  0  0  0  0  0
   21.8681   -3.9800  -13.6232 O   0  0  0  0  0  0  0  0  0  0  0  0
   23.1764   -4.9297  -15.1901 O   0  0  0  0  0  0  0  0  0  0  0  0
  2  7  1  0
  2  1  1  1
  3  2  1  0
  4  3  1  0
  5  4  1  0
  5  9  1  0
  6  5  2  0
  7  8  2  0
 11 13  1  0
 11 10  1  0
 12 11  2  0
 15 14  1  6
 14 13  1  0
 16 15  1  0
 16  7  1  0
 17 18  2  0
 17 15  1  0
 19 17  1  0
 20 19  1  0
 20 23  1  0
 20 21  1  1
 22 21  1  0
 23 24  1  0
 25 23  2  0
M  END
$$$$
