EQC.pdb
     RDKit          3D

 25 24  0  0  1  0  0  0  0  0999 V2000
   17.9330  -12.7575  -15.6931 N   0  0  0  0  0  0  0  0  0  0  0  0
   18.5869  -11.8254  -16.5711 C   0  0  1  0  0  0  0  0  0  0  0  0
   17.5879  -10.8943  -17.2208 C   0  0  0  0  0  0  0  0  0  0  0  0
   16.7092  -11.7492  -18.1274 C   0  0  0  0  0  0  0  0  0  0  0  0
   15.6800  -10.9167  -18.8055 C   0  0  0  0  0  0  0  0  0  0  0  0
   14.5370  -10.7166  -18.3631 O   0  0  0  0  0  0  0  0  0  0  0  0
   19.6023  -11.0832  -15.7818 C   0  0  0  0  0  0  0  0  0  0  0  0
   19.4282  -10.8075  -14.5758 O   0  0  0  0  0  0  0  0  0  0  0  0
   16.0440  -10.3354  -20.0109 O   0  0  0  0  0  0  0  0  0  0  0  0
   25.6727  -11.1581  -17.1291 N   0  0  0  0  0  0  0  0  0  0  0  0
   25.6293  -10.3405  -15.9837 C   0  0  0  0  0  0  0  0  0  0  0  0
   26.6842  -10.0657  -15.3803 O   0  0  0  0  0  0  0  0  0  0  0  0
   24.3382   -9.8152  -15.5056 C   0  0  0  0  0  0  0  0  0  0  0  0
   23.1759  -10.3993  -16.2877 C   0  0  0  0  0  0  0  0  0  0  0  0
   21.8486   -9.9347  -15.7265 C   0  0  2  0  0  0  0  0  0  0  0  0
   20.8063  -10.6663  -16.3879 N   0  0  0  0  0  0  0  0  0  0  0  0
   21.7200   -8.4829  -15.8328 C   0  0  0  0  0  0  0  0  0  0  0  0
   21.4014   -7.9923  -16.9470 O   0  0  0  0  0  0  0  0  0  0  0  0
   21.9256   -7.5565  -14.7742 N   0  0  0  0  0  0  0  0  0  0  0  0
   21.7973   -6.1208  -14.9404 C   0  0  1  0  0  0  0  0  0  0  0  0
   21.3832   -5.4423  -13.6545 C   0  0  0  0  0  0  0  0  0  0  0  0
   21.4458   -3.6462  -13.8199 S   0  0  0  0  0  0  0  0  0  0  0  0
   23.1526   -5.6048  -15.2902 C   0  0  0  0  0  0  0  0  0  0  0  0
   23.3339   -4.5143  -16.1525 O   0  0  0  0  0  0  0  0  0  0  0  0
   24.2158   -6.1131  -14.8355 O   0  0  0  0  0  0  0  0  0  0  0  0
  2  7  1  0
  2  1  1  1
  3  2  1  0
  4  3  1  0
  5  4  1  0
  5  9  1  0
  6  5  2  0
  7  8  2  0
 11 13  1  0
 11 10  1  0
 12 11  2  0
 15 14  1  6
 14 13  1  0
 16 15  1  0
 16  7  1  0
 17 18  2  0
 17 15  1  0
 19 17  1  0
 20 19  1  0
 20 23  1  0
 20 21  1  1
 22 21  1  0
 23 24  1  0
 25 23  2  0
M  END
$$$$
