EQC.pdb
     RDKit          3D

 25 24  0  0  1  0  0  0  0  0999 V2000
   29.5009  -22.6314  -16.6321 N   0  0  0  0  0  0  0  0  0  0  0  0
   28.6320  -21.5779  -17.0820 C   0  0  1  0  0  0  0  0  0  0  0  0
   27.7908  -22.0276  -18.2556 C   0  0  0  0  0  0  0  0  0  0  0  0
   27.0208  -23.2630  -17.8019 C   0  0  0  0  0  0  0  0  0  0  0  0
   26.1846  -23.8015  -18.9078 C   0  0  0  0  0  0  0  0  0  0  0  0
   26.5997  -24.0218  -20.0573 O   0  0  0  0  0  0  0  0  0  0  0  0
   27.7941  -21.1492  -15.9334 C   0  0  0  0  0  0  0  0  0  0  0  0
   28.2066  -21.2129  -14.7558 O   0  0  0  0  0  0  0  0  0  0  0  0
   24.8561  -24.0675  -18.6117 O   0  0  0  0  0  0  0  0  0  0  0  0
   22.0185  -18.6556  -16.8307 N   0  0  0  0  0  0  0  0  0  0  0  0
   22.2688  -18.3437  -15.4807 C   0  0  0  0  0  0  0  0  0  0  0  0
   21.4367  -17.6772  -14.8360 O   0  0  0  0  0  0  0  0  0  0  0  0
   23.5119  -18.8066  -14.8389 C   0  0  0  0  0  0  0  0  0  0  0  0
   24.4046  -19.5426  -15.8213 C   0  0  0  0  0  0  0  0  0  0  0  0
   25.6703  -20.0335  -15.1507 C   0  0  2  0  0  0  0  0  0  0  0  0
   26.4918  -20.6522  -16.1515 N   0  0  0  0  0  0  0  0  0  0  0  0
   25.3544  -20.8999  -14.0172 C   0  0  0  0  0  0  0  0  0  0  0  0
   25.6572  -22.1188  -14.0956 O   0  0  0  0  0  0  0  0  0  0  0  0
   24.7249  -20.4852  -12.8118 N   0  0  0  0  0  0  0  0  0  0  0  0
   24.5450  -21.3609  -11.6689 C   0  0  1  0  0  0  0  0  0  0  0  0
   25.7749  -21.3963  -10.7906 C   0  0  0  0  0  0  0  0  0  0  0  0
   25.9157  -19.8870   -9.8110 S   0  0  0  0  0  0  0  0  0  0  0  0
   23.4404  -20.7805  -10.8512 C   0  0  0  0  0  0  0  0  0  0  0  0
   22.9797  -21.3963   -9.6789 O   0  0  0  0  0  0  0  0  0  0  0  0
   22.8536  -19.7054  -11.1600 O   0  0  0  0  0  0  0  0  0  0  0  0
  2  7  1  0
  2  1  1  1
  3  2  1  0
  4  3  1  0
  5  4  1  0
  5  9  1  0
  6  5  2  0
  7  8  2  0
 11 13  1  0
 11 10  1  0
 12 11  2  0
 15 14  1  6
 14 13  1  0
 16 15  1  0
 16  7  1  0
 17 18  2  0
 17 15  1  0
 19 17  1  0
 20 19  1  0
 20 23  1  0
 20 21  1  1
 22 21  1  0
 23 24  1  0
 25 23  2  0
M  END
$$$$
