EQC.pdb
     RDKit          3D

 25 24  0  0  1  0  0  0  0  0999 V2000
   21.3652  -13.7129  -18.0830 N   0  0  0  0  0  0  0  0  0  0  0  0
   20.5182  -12.5526  -18.1434 C   0  0  1  0  0  0  0  0  0  0  0  0
   19.1321  -12.8607  -17.6230 C   0  0  0  0  0  0  0  0  0  0  0  0
   18.4621  -13.7635  -18.6532 C   0  0  0  0  0  0  0  0  0  0  0  0
   17.0974  -14.1529  -18.2080 C   0  0  0  0  0  0  0  0  0  0  0  0
   16.0470  -13.6791  -18.6712 O   0  0  0  0  0  0  0  0  0  0  0  0
   21.1700  -11.4653  -17.3701 C   0  0  0  0  0  0  0  0  0  0  0  0
   21.5906  -11.6434  -16.2072 O   0  0  0  0  0  0  0  0  0  0  0  0
   17.0177  -15.1105  -17.2080 O   0  0  0  0  0  0  0  0  0  0  0  0
   23.7952   -6.5043  -20.1376 N   0  0  0  0  0  0  0  0  0  0  0  0
   23.9373   -6.1701  -18.7772 C   0  0  0  0  0  0  0  0  0  0  0  0
   24.5750   -5.1494  -18.4550 O   0  0  0  0  0  0  0  0  0  0  0  0
   23.3316   -7.0282  -17.7437 C   0  0  0  0  0  0  0  0  0  0  0  0
   22.6052   -8.2109  -18.3580 C   0  0  0  0  0  0  0  0  0  0  0  0
   21.9539   -9.0679  -17.2931 C   0  0  2  0  0  0  0  0  0  0  0  0
   21.3309  -10.1858  -17.9424 N   0  0  0  0  0  0  0  0  0  0  0  0
   21.0455   -8.2720  -16.4705 C   0  0  0  0  0  0  0  0  0  0  0  0
   19.9725   -7.8664  -16.9882 O   0  0  0  0  0  0  0  0  0  0  0  0
   21.2660   -7.9068  -15.1143 N   0  0  0  0  0  0  0  0  0  0  0  0
   20.3192   -7.1276  -14.3386 C   0  0  1  0  0  0  0  0  0  0  0  0
   20.5140   -7.3261  -12.8527 C   0  0  0  0  0  0  0  0  0  0  0  0
   19.8115   -8.8978  -12.3109 S   0  0  0  0  0  0  0  0  0  0  0  0
   20.6027   -5.6920  -14.6289 C   0  0  0  0  0  0  0  0  0  0  0  0
   21.6278   -5.2974  -15.5002 O   0  0  0  0  0  0  0  0  0  0  0  0
   19.9428   -4.7469  -14.1123 O   0  0  0  0  0  0  0  0  0  0  0  0
  2  7  1  0
  2  1  1  1
  3  2  1  0
  4  3  1  0
  5  4  1  0
  5  9  1  0
  6  5  2  0
  7  8  2  0
 11 13  1  0
 11 10  1  0
 12 11  2  0
 15 14  1  6
 14 13  1  0
 16 15  1  0
 16  7  1  0
 17 18  2  0
 17 15  1  0
 19 17  1  0
 20 19  1  0
 20 23  1  0
 20 21  1  1
 22 21  1  0
 23 24  1  0
 25 23  2  0
M  END
$$$$
