EQC.pdb
     RDKit          3D

 25 24  0  0  1  0  0  0  0  0999 V2000
   27.3243  -22.0644  -16.6269 N   0  0  0  0  0  0  0  0  0  0  0  0
   26.3014  -21.3107  -17.3000 C   0  0  1  0  0  0  0  0  0  0  0  0
   25.5303  -22.1800  -18.2679 C   0  0  0  0  0  0  0  0  0  0  0  0
   26.5046  -22.5938  -19.3655 C   0  0  0  0  0  0  0  0  0  0  0  0
   25.7995  -23.3276  -20.4502 C   0  0  0  0  0  0  0  0  0  0  0  0
   25.0454  -22.7958  -21.2813 O   0  0  0  0  0  0  0  0  0  0  0  0
   25.4164  -20.7117  -16.2691 C   0  0  0  0  0  0  0  0  0  0  0  0
   25.3527  -21.1684  -15.1080 O   0  0  0  0  0  0  0  0  0  0  0  0
   26.0139  -24.6961  -20.5181 O   0  0  0  0  0  0  0  0  0  0  0  0
   25.4642  -16.5233  -17.9215 N   0  0  0  0  0  0  0  0  0  0  0  0
   25.9053  -16.3251  -16.5992 C   0  0  0  0  0  0  0  0  0  0  0  0
   26.9662  -15.7071  -16.3878 O   0  0  0  0  0  0  0  0  0  0  0  0
   25.1106  -16.8491  -15.4743 C   0  0  0  0  0  0  0  0  0  0  0  0
   23.7975  -17.4436  -15.9499 C   0  0  0  0  0  0  0  0  0  0  0  0
   23.7340  -18.9297  -15.6672 C   0  0  2  0  0  0  0  0  0  0  0  0
   24.6147  -19.5944  -16.5847 N   0  0  0  0  0  0  0  0  0  0  0  0
   22.3537  -19.4076  -15.7109 C   0  0  0  0  0  0  0  0  0  0  0  0
   21.8211  -19.5903  -16.8364 O   0  0  0  0  0  0  0  0  0  0  0  0
   21.5420  -19.6904  -14.5785 N   0  0  0  0  0  0  0  0  0  0  0  0
   20.2071  -20.2498  -14.6792 C   0  0  1  0  0  0  0  0  0  0  0  0
   19.8940  -21.1659  -13.5181 C   0  0  0  0  0  0  0  0  0  0  0  0
   21.0295  -22.5681  -13.4741 S   0  0  0  0  0  0  0  0  0  0  0  0
   19.2534  -19.1052  -14.6024 C   0  0  0  0  0  0  0  0  0  0  0  0
   19.6828  -17.7946  -14.3498 O   0  0  0  0  0  0  0  0  0  0  0  0
   18.0075  -19.2419  -14.7587 O   0  0  0  0  0  0  0  0  0  0  0  0
  2  7  1  0
  2  1  1  1
  3  2  1  0
  4  3  1  0
  5  4  1  0
  5  9  1  0
  6  5  2  0
  7  8  2  0
 11 13  1  0
 11 10  1  0
 12 11  2  0
 15 14  1  6
 14 13  1  0
 16 15  1  0
 16  7  1  0
 17 18  2  0
 17 15  1  0
 19 17  1  0
 20 19  1  0
 20 23  1  0
 20 21  1  1
 22 21  1  0
 23 24  1  0
 25 23  2  0
M  END
$$$$
