EQC.pdb
     RDKit          3D

 25 24  0  0  1  0  0  0  0  0999 V2000
   17.6854  -10.7804  -14.5120 N   0  0  0  0  0  0  0  0  0  0  0  0
   18.9847  -10.1681  -14.4455 C   0  0  1  0  0  0  0  0  0  0  0  0
   19.7737  -10.4228  -15.7103 C   0  0  0  0  0  0  0  0  0  0  0  0
   20.1644  -11.8967  -15.7001 C   0  0  0  0  0  0  0  0  0  0  0  0
   21.0453  -12.2189  -16.8543 C   0  0  0  0  0  0  0  0  0  0  0  0
   20.6369  -12.4626  -18.0015 O   0  0  0  0  0  0  0  0  0  0  0  0
   18.7979   -8.7167  -14.1932 C   0  0  0  0  0  0  0  0  0  0  0  0
   17.7754   -8.1073  -14.5725 O   0  0  0  0  0  0  0  0  0  0  0  0
   22.4101  -12.2430  -16.6088 O   0  0  0  0  0  0  0  0  0  0  0  0
   19.5543   -5.6872   -9.1719 N   0  0  0  0  0  0  0  0  0  0  0  0
   18.3547   -6.0171   -9.8311 C   0  0  0  0  0  0  0  0  0  0  0  0
   17.2908   -6.0760   -9.1854 O   0  0  0  0  0  0  0  0  0  0  0  0
   18.3643   -6.2905  -11.2791 C   0  0  0  0  0  0  0  0  0  0  0  0
   19.7752   -6.2765  -11.8386 C   0  0  0  0  0  0  0  0  0  0  0  0
   19.7781   -6.5591  -13.3261 C   0  0  2  0  0  0  0  0  0  0  0  0
   19.7887   -7.9825  -13.5078 N   0  0  0  0  0  0  0  0  0  0  0  0
   20.8825   -5.8642  -13.9841 C   0  0  0  0  0  0  0  0  0  0  0  0
   22.0589   -6.1795  -13.6672 O   0  0  0  0  0  0  0  0  0  0  0  0
   20.7481   -4.8459  -14.9671 N   0  0  0  0  0  0  0  0  0  0  0  0
   21.8810   -4.2400  -15.6415 C   0  0  1  0  0  0  0  0  0  0  0  0
   21.5699   -3.9245  -17.0868 C   0  0  0  0  0  0  0  0  0  0  0  0
   21.0333   -5.4030  -17.9722 S   0  0  0  0  0  0  0  0  0  0  0  0
   22.1450   -2.9408  -14.9574 C   0  0  0  0  0  0  0  0  0  0  0  0
   23.3490   -2.2423  -15.1261 O   0  0  0  0  0  0  0  0  0  0  0  0
   21.3076   -2.3907  -14.1883 O   0  0  0  0  0  0  0  0  0  0  0  0
  2  7  1  0
  2  1  1  6
  3  2  1  0
  4  3  1  0
  5  4  1  0
  5  9  1  0
  6  5  2  0
  7  8  2  0
 11 13  1  0
 11 10  1  0
 12 11  2  0
 15 14  1  1
 14 13  1  0
 16 15  1  0
 16  7  1  0
 17 18  2  0
 17 15  1  0
 19 17  1  0
 20 19  1  0
 20 23  1  0
 20 21  1  6
 22 21  1  0
 23 24  1  0
 25 23  2  0
M  END
$$$$
