EQC.pdb
     RDKit          3D

 25 24  0  0  1  0  0  0  0  0999 V2000
   28.3595  -22.4386  -16.5080 N   0  0  0  0  0  0  0  0  0  0  0  0
   28.1111  -21.3097  -15.6528 C   0  0  1  0  0  0  0  0  0  0  0  0
   28.0411  -20.0262  -16.4495 C   0  0  0  0  0  0  0  0  0  0  0  0
   26.9783  -20.2284  -17.5239 C   0  0  0  0  0  0  0  0  0  0  0  0
   26.9034  -19.0464  -18.4236 C   0  0  0  0  0  0  0  0  0  0  0  0
   27.8374  -18.6498  -19.1394 O   0  0  0  0  0  0  0  0  0  0  0  0
   26.8539  -21.5656  -14.9052 C   0  0  0  0  0  0  0  0  0  0  0  0
   25.9181  -22.2320  -15.3963 O   0  0  0  0  0  0  0  0  0  0  0  0
   25.7002  -18.3571  -18.4479 O   0  0  0  0  0  0  0  0  0  0  0  0
   26.3234  -20.1887   -8.7483 N   0  0  0  0  0  0  0  0  0  0  0  0
   25.1047  -20.8389   -9.0209 C   0  0  0  0  0  0  0  0  0  0  0  0
   24.3421  -21.1408   -8.0831 O   0  0  0  0  0  0  0  0  0  0  0  0
   24.7385  -21.1583  -10.4121 C   0  0  0  0  0  0  0  0  0  0  0  0
   25.8591  -20.8125  -11.3758 C   0  0  0  0  0  0  0  0  0  0  0  0
   25.5199  -21.2412  -12.7878 C   0  0  2  0  0  0  0  0  0  0  0  0
   26.6867  -21.0526  -13.6015 N   0  0  0  0  0  0  0  0  0  0  0  0
   24.3333  -20.5392  -13.2723 C   0  0  0  0  0  0  0  0  0  0  0  0
   24.4045  -19.2942  -13.4415 O   0  0  0  0  0  0  0  0  0  0  0  0
   23.0830  -21.1440  -13.5756 N   0  0  0  0  0  0  0  0  0  0  0  0
   21.9332  -20.3951  -14.0471 C   0  0  1  0  0  0  0  0  0  0  0  0
   21.6168  -20.7046  -15.4926 C   0  0  0  0  0  0  0  0  0  0  0  0
   22.7467  -19.8398  -16.6030 S   0  0  0  0  0  0  0  0  0  0  0  0
   20.7640  -20.8459  -13.2375 C   0  0  0  0  0  0  0  0  0  0  0  0
   19.5045  -20.2399  -13.3478 O   0  0  0  0  0  0  0  0  0  0  0  0
   20.8329  -21.7952  -12.4070 O   0  0  0  0  0  0  0  0  0  0  0  0
  2  7  1  0
  2  1  1  6
  3  2  1  0
  4  3  1  0
  5  4  1  0
  5  9  1  0
  6  5  2  0
  7  8  2  0
 11 13  1  0
 11 10  1  0
 12 11  2  0
 15 14  1  1
 14 13  1  0
 16 15  1  0
 16  7  1  0
 17 18  2  0
 17 15  1  0
 19 17  1  0
 20 19  1  0
 20 23  1  0
 20 21  1  6
 22 21  1  0
 23 24  1  0
 25 23  2  0
M  END
$$$$
