EQC.pdb
     RDKit          3D

 25 24  0  0  1  0  0  0  0  0999 V2000
   16.8628  -11.7007  -14.1790 N   0  0  0  0  0  0  0  0  0  0  0  0
   16.4689  -10.3228  -14.2967 C   0  0  1  0  0  0  0  0  0  0  0  0
   14.9637  -10.1804  -14.2635 C   0  0  0  0  0  0  0  0  0  0  0  0
   14.4261  -10.8606  -15.5178 C   0  0  0  0  0  0  0  0  0  0  0  0
   12.9460  -10.7354  -15.5949 C   0  0  0  0  0  0  0  0  0  0  0  0
   12.1708  -11.6870  -15.7839 O   0  0  0  0  0  0  0  0  0  0  0  0
   17.1206   -9.5619  -13.2006 C   0  0  0  0  0  0  0  0  0  0  0  0
   17.2728  -10.0480  -12.0598 O   0  0  0  0  0  0  0  0  0  0  0  0
   12.4197   -9.4614  -15.4427 O   0  0  0  0  0  0  0  0  0  0  0  0
   21.3065   -5.0851  -14.1910 N   0  0  0  0  0  0  0  0  0  0  0  0
   21.1548   -5.0151  -12.7930 C   0  0  0  0  0  0  0  0  0  0  0  0
   21.9083   -4.2809  -12.1256 O   0  0  0  0  0  0  0  0  0  0  0  0
   20.1070   -5.8097  -12.1280 C   0  0  0  0  0  0  0  0  0  0  0  0
   19.2823   -6.5944  -13.1319 C   0  0  0  0  0  0  0  0  0  0  0  0
   18.2174   -7.4199  -12.4412 C   0  0  2  0  0  0  0  0  0  0  0  0
   17.5898   -8.2510  -13.4284 N   0  0  0  0  0  0  0  0  0  0  0  0
   17.2911   -6.5615  -11.7061 C   0  0  0  0  0  0  0  0  0  0  0  0
   16.4583   -5.8832  -12.3619 O   0  0  0  0  0  0  0  0  0  0  0  0
   17.2430   -6.4191  -10.2923 N   0  0  0  0  0  0  0  0  0  0  0  0
   16.1884   -5.6996   -9.6030 C   0  0  1  0  0  0  0  0  0  0  0  0
   16.1390   -6.0496   -8.1331 C   0  0  0  0  0  0  0  0  0  0  0  0
   14.9100   -5.0491   -7.2694 S   0  0  0  0  0  0  0  0  0  0  0  0
   16.5246   -4.2491   -9.6959 C   0  0  0  0  0  0  0  0  0  0  0  0
   15.5387   -3.2657   -9.8598 O   0  0  0  0  0  0  0  0  0  0  0  0
   17.7098   -3.8168   -9.6334 O   0  0  0  0  0  0  0  0  0  0  0  0
  2  7  1  0
  2  1  1  1
  3  2  1  0
  4  3  1  0
  5  4  1  0
  5  9  1  0
  6  5  2  0
  7  8  2  0
 11 13  1  0
 11 10  1  0
 12 11  2  0
 15 14  1  6
 14 13  1  0
 16 15  1  0
 16  7  1  0
 17 18  2  0
 17 15  1  0
 19 17  1  0
 20 19  1  0
 20 23  1  0
 20 21  1  1
 22 21  1  0
 23 24  1  0
 25 23  2  0
M  END
$$$$
