ESD.pdb
     RDKit          3D

 24 23  0  0  1  0  0  0  0  0999 V2000
   18.2027  -12.5337  -15.3009 N   0  0  0  0  0  0  0  0  0  0  0  0
   18.3168  -11.2764  -16.0299 C   0  0  1  0  0  0  0  0  0  0  0  0
   16.9918  -10.7647  -16.4764 C   0  0  0  0  0  0  0  0  0  0  0  0
   16.2271  -11.6486  -17.4025 C   0  0  0  0  0  0  0  0  0  0  0  0
   14.9545  -11.0440  -17.8573 C   0  0  0  0  0  0  0  0  0  0  0  0
   14.9783  -10.3077  -18.9040 O   0  0  0  0  0  0  0  0  0  0  0  0
   19.0659  -10.3320  -15.1637 C   0  0  0  0  0  0  0  0  0  0  0  0
   18.7076  -10.1155  -13.9747 O   0  0  0  0  0  0  0  0  0  0  0  0
   13.7442  -11.2100  -17.2426 O   0  0  0  0  0  0  0  0  0  0  0  0
   22.7539   -9.2459  -16.2348 O   0  0  0  0  0  0  0  0  0  0  0  0
   22.4307   -9.0122  -14.8856 C   0  0  0  0  0  0  0  0  0  0  0  0
   20.9463   -8.6934  -14.8234 C   0  0  2  0  0  0  0  0  0  0  0  0
   20.2046   -9.6414  -15.6355 N   0  0  0  0  0  0  0  0  0  0  0  0
   20.7356   -7.3438  -15.3915 C   0  0  0  0  0  0  0  0  0  0  0  0
   20.4763   -7.2175  -16.6093 O   0  0  0  0  0  0  0  0  0  0  0  0
   20.8116   -6.1516  -14.6143 N   0  0  0  0  0  0  0  0  0  0  0  0
   20.7354   -4.8324  -15.1868 C   0  0  1  0  0  0  0  0  0  0  0  0
   19.6919   -4.0661  -14.3781 C   0  0  0  0  0  0  0  0  0  0  0  0
   19.5555   -2.6906  -14.9249 C   0  0  0  0  0  0  0  0  0  0  0  0
   20.1140   -1.7330  -14.3216 O   0  0  0  0  0  0  0  0  0  0  0  0
   22.0482   -4.1271  -15.1269 C   0  0  0  0  0  0  0  0  0  0  0  0
   22.1996   -3.0292  -15.7174 O   0  0  0  0  0  0  0  0  0  0  0  0
   18.8422   -2.3850  -16.0740 O   0  0  0  0  0  0  0  0  0  0  0  0
   23.1289   -4.6466  -14.4311 O   0  0  0  0  0  0  0  0  0  0  0  0
  2  1  1  1
  3  2  1  0
  3  4  1  0
  5  4  1  0
  5  9  1  0
  6  5  2  0
  7  8  2  0
  7  2  1  0
 10 11  1  0
 12 11  1  6
 12 14  1  0
 12 13  1  0
 13  7  1  0
 14 16  1  0
 15 14  2  0
 16 17  1  0
 17 21  1  0
 17 18  1  1
 19 18  1  0
 20 19  2  0
 21 22  2  0
 21 24  1  0
 23 19  1  0
M  END
$$$$
