ESD.pdb
     RDKit          3D

 24 23  0  0  1  0  0  0  0  0999 V2000
   14.9549  -14.6765  -13.9748 N   0  0  0  0  0  0  0  0  0  0  0  0
   14.9964  -13.6660  -15.0247 C   0  0  1  0  0  0  0  0  0  0  0  0
   14.0684  -12.5343  -14.7510 C   0  0  0  0  0  0  0  0  0  0  0  0
   13.1527  -12.7056  -13.5866 C   0  0  0  0  0  0  0  0  0  0  0  0
   12.2375  -11.5571  -13.3988 C   0  0  0  0  0  0  0  0  0  0  0  0
   11.4116  -11.5993  -12.4218 O   0  0  0  0  0  0  0  0  0  0  0  0
   16.4141  -13.2564  -15.1855 C   0  0  0  0  0  0  0  0  0  0  0  0
   17.1680  -13.1150  -14.1851 O   0  0  0  0  0  0  0  0  0  0  0  0
   12.2028  -10.4445  -14.1932 O   0  0  0  0  0  0  0  0  0  0  0  0
   20.1311  -12.7534  -18.2356 O   0  0  0  0  0  0  0  0  0  0  0  0
   18.7313  -12.8471  -18.1307 C   0  0  0  0  0  0  0  0  0  0  0  0
   18.3756  -12.6981  -16.6609 C   0  0  2  0  0  0  0  0  0  0  0  0
   16.9718  -13.0098  -16.4598 N   0  0  0  0  0  0  0  0  0  0  0  0
   18.5896  -11.2872  -16.2708 C   0  0  0  0  0  0  0  0  0  0  0  0
   17.6478  -10.4685  -16.3645 O   0  0  0  0  0  0  0  0  0  0  0  0
   19.8347  -10.7951  -15.7819 N   0  0  0  0  0  0  0  0  0  0  0  0
   20.0282   -9.4356  -15.3483 C   0  0  1  0  0  0  0  0  0  0  0  0
   21.0433   -9.4820  -14.2090 C   0  0  0  0  0  0  0  0  0  0  0  0
   21.2832   -8.1045  -13.7046 C   0  0  0  0  0  0  0  0  0  0  0  0
   20.4285   -7.5732  -12.9430 O   0  0  0  0  0  0  0  0  0  0  0  0
   20.5368   -8.5704  -16.4516 C   0  0  0  0  0  0  0  0  0  0  0  0
   21.1461   -9.0831  -17.4226 O   0  0  0  0  0  0  0  0  0  0  0  0
   22.4036   -7.3516  -14.0218 O   0  0  0  0  0  0  0  0  0  0  0  0
   20.3594   -7.1955  -16.4469 O   0  0  0  0  0  0  0  0  0  0  0  0
  2  1  1  1
  3  2  1  0
  3  4  1  0
  5  4  1  0
  5  9  1  0
  6  5  2  0
  7  8  2  0
  7  2  1  0
 10 11  1  0
 12 11  1  6
 12 14  1  0
 12 13  1  0
 13  7  1  0
 14 16  1  0
 15 14  2  0
 16 17  1  0
 17 21  1  0
 17 18  1  1
 19 18  1  0
 20 19  2  0
 21 22  2  0
 21 24  1  0
 23 19  1  0
M  END
$$$$
