ESD.pdb
     RDKit          3D

 24 23  0  0  1  0  0  0  0  0999 V2000
   28.5287  -20.0784  -16.1957 N   0  0  0  0  0  0  0  0  0  0  0  0
   27.2805  -20.8286  -16.2609 C   0  0  1  0  0  0  0  0  0  0  0  0
   27.4418  -22.2288  -15.7812 C   0  0  0  0  0  0  0  0  0  0  0  0
   28.3566  -23.0933  -16.5808 C   0  0  0  0  0  0  0  0  0  0  0  0
   27.8077  -23.4379  -17.9119 C   0  0  0  0  0  0  0  0  0  0  0  0
   26.7342  -24.1334  -17.9584 O   0  0  0  0  0  0  0  0  0  0  0  0
   26.2600  -20.0506  -15.5148 C   0  0  0  0  0  0  0  0  0  0  0  0
   26.4216  -19.7642  -14.2980 O   0  0  0  0  0  0  0  0  0  0  0  0
   28.3610  -23.0698  -19.1071 O   0  0  0  0  0  0  0  0  0  0  0  0
   23.5304  -17.9640  -17.5946 O   0  0  0  0  0  0  0  0  0  0  0  0
   23.7853  -17.5443  -16.2762 C   0  0  0  0  0  0  0  0  0  0  0  0
   24.0837  -18.7870  -15.4543 C   0  0  2  0  0  0  0  0  0  0  0  0
   25.0728  -19.6025  -16.1360 N   0  0  0  0  0  0  0  0  0  0  0  0
   22.8399  -19.5796  -15.3400 C   0  0  0  0  0  0  0  0  0  0  0  0
   22.5952  -20.4736  -16.1808 O   0  0  0  0  0  0  0  0  0  0  0  0
   21.8824  -19.3802  -14.3033 N   0  0  0  0  0  0  0  0  0  0  0  0
   20.6307  -20.0897  -14.2405 C   0  0  1  0  0  0  0  0  0  0  0  0
   20.3777  -20.3971  -12.7669 C   0  0  0  0  0  0  0  0  0  0  0  0
   19.0695  -21.0885  -12.6240 C   0  0  0  0  0  0  0  0  0  0  0  0
   19.0535  -22.3342  -12.4222 O   0  0  0  0  0  0  0  0  0  0  0  0
   19.5076  -19.2795  -14.7944 C   0  0  0  0  0  0  0  0  0  0  0  0
   18.4543  -19.8449  -15.1788 O   0  0  0  0  0  0  0  0  0  0  0  0
   17.8443  -20.4436  -12.6997 O   0  0  0  0  0  0  0  0  0  0  0  0
   19.5827  -17.8995  -14.9033 O   0  0  0  0  0  0  0  0  0  0  0  0
  2  1  1  1
  3  2  1  0
  3  4  1  0
  5  4  1  0
  5  9  1  0
  6  5  2  0
  7  8  2  0
  7  2  1  0
 10 11  1  0
 12 11  1  6
 12 14  1  0
 12 13  1  0
 13  7  1  0
 14 16  1  0
 15 14  2  0
 16 17  1  0
 17 21  1  0
 17 18  1  1
 19 18  1  0
 20 19  2  0
 21 22  2  0
 21 24  1  0
 23 19  1  0
M  END
$$$$
