ESD.pdb
     RDKit          3D

 24 23  0  0  1  0  0  0  0  0999 V2000
   20.1640  -10.9616  -15.1829 N   0  0  0  0  0  0  0  0  0  0  0  0
   19.8415  -11.0881  -16.5990 C   0  0  1  0  0  0  0  0  0  0  0  0
   19.4366  -12.4746  -16.9603 C   0  0  0  0  0  0  0  0  0  0  0  0
   19.4307  -13.4661  -15.8465 C   0  0  0  0  0  0  0  0  0  0  0  0
   18.9194  -14.7931  -16.2584 C   0  0  0  0  0  0  0  0  0  0  0  0
   18.7109  -15.6670  -15.3467 O   0  0  0  0  0  0  0  0  0  0  0  0
   18.8159  -10.0612  -16.9102 C   0  0  0  0  0  0  0  0  0  0  0  0
   18.3904   -9.9021  -18.0860 O   0  0  0  0  0  0  0  0  0  0  0  0
   18.6501  -15.1638  -17.5469 O   0  0  0  0  0  0  0  0  0  0  0  0
   16.6928   -8.3700  -13.9297 O   0  0  0  0  0  0  0  0  0  0  0  0
   16.1656   -8.2320  -15.2268 C   0  0  0  0  0  0  0  0  0  0  0  0
   17.3400   -8.1543  -16.1878 C   0  0  2  0  0  0  0  0  0  0  0  0
   18.2789   -9.2253  -15.9057 N   0  0  0  0  0  0  0  0  0  0  0  0
   18.0368   -6.8678  -15.9686 C   0  0  0  0  0  0  0  0  0  0  0  0
   19.2079   -6.8645  -15.5276 O   0  0  0  0  0  0  0  0  0  0  0  0
   17.4382   -5.6027  -16.2379 N   0  0  0  0  0  0  0  0  0  0  0  0
   18.1160   -4.3499  -16.0254 C   0  0  1  0  0  0  0  0  0  0  0  0
   19.3672   -4.3778  -16.8994 C   0  0  0  0  0  0  0  0  0  0  0  0
   20.0647   -3.0685  -16.8055 C   0  0  0  0  0  0  0  0  0  0  0  0
   20.8309   -2.8511  -15.8265 O   0  0  0  0  0  0  0  0  0  0  0  0
   17.2583   -3.1875  -16.3965 C   0  0  0  0  0  0  0  0  0  0  0  0
   16.3540   -3.3228  -17.2573 O   0  0  0  0  0  0  0  0  0  0  0  0
   19.9260   -2.0524  -17.7388 O   0  0  0  0  0  0  0  0  0  0  0  0
   17.4238   -1.9392  -15.8167 O   0  0  0  0  0  0  0  0  0  0  0  0
  2  1  1  1
  3  2  1  0
  3  4  1  0
  5  4  1  0
  5  9  1  0
  6  5  2  0
  7  8  2  0
  7  2  1  0
 10 11  1  0
 12 11  1  1
 12 14  1  0
 12 13  1  0
 13  7  1  0
 14 16  1  0
 15 14  2  0
 16 17  1  0
 17 21  1  0
 17 18  1  6
 19 18  1  0
 20 19  2  0
 21 22  2  0
 21 24  1  0
 23 19  1  0
M  END
$$$$
