ESD.pdb
     RDKit          3D

 24 23  0  0  1  0  0  0  0  0999 V2000
   16.7100   -6.8563  -17.9901 N   0  0  0  0  0  0  0  0  0  0  0  0
   17.7956   -6.5663  -17.0614 C   0  0  1  0  0  0  0  0  0  0  0  0
   18.1800   -5.1279  -17.0795 C   0  0  0  0  0  0  0  0  0  0  0  0
   18.5668   -4.5705  -18.4074 C   0  0  0  0  0  0  0  0  0  0  0  0
   18.9189   -3.1336  -18.3492 C   0  0  0  0  0  0  0  0  0  0  0  0
   18.1508   -2.3013  -18.9457 O   0  0  0  0  0  0  0  0  0  0  0  0
   17.3761   -7.0603  -15.7260 C   0  0  0  0  0  0  0  0  0  0  0  0
   16.1622   -7.0668  -15.3865 O   0  0  0  0  0  0  0  0  0  0  0  0
   20.0094   -2.6193  -17.7039 O   0  0  0  0  0  0  0  0  0  0  0  0
   20.2258   -8.0613  -12.9039 O   0  0  0  0  0  0  0  0  0  0  0  0
   19.0769   -8.8733  -12.9007 C   0  0  0  0  0  0  0  0  0  0  0  0
   17.9387   -8.0510  -13.4814 C   0  0  2  0  0  0  0  0  0  0  0  0
   18.3163   -7.5405  -14.7871 N   0  0  0  0  0  0  0  0  0  0  0  0
   17.6990   -6.8938  -12.5914 C   0  0  0  0  0  0  0  0  0  0  0  0
   18.4159   -5.8733  -12.6951 O   0  0  0  0  0  0  0  0  0  0  0  0
   16.6747   -6.8728  -11.6007 N   0  0  0  0  0  0  0  0  0  0  0  0
   16.4616   -5.7597  -10.7121 C   0  0  1  0  0  0  0  0  0  0  0  0
   15.0173   -5.3096  -10.9164 C   0  0  0  0  0  0  0  0  0  0  0  0
   14.7241   -4.1654  -10.0138 C   0  0  0  0  0  0  0  0  0  0  0  0
   15.6518   -3.3605   -9.7235 O   0  0  0  0  0  0  0  0  0  0  0  0
   16.6823   -6.1400   -9.2869 C   0  0  0  0  0  0  0  0  0  0  0  0
   16.5539   -5.2810   -8.3799 O   0  0  0  0  0  0  0  0  0  0  0  0
   13.4768   -3.9203   -9.4600 O   0  0  0  0  0  0  0  0  0  0  0  0
   17.0304   -7.4300   -8.9174 O   0  0  0  0  0  0  0  0  0  0  0  0
  2  1  1  6
  3  2  1  0
  3  4  1  0
  5  4  1  0
  5  9  1  0
  6  5  2  0
  7  8  2  0
  7  2  1  0
 10 11  1  0
 12 11  1  1
 12 14  1  0
 12 13  1  0
 13  7  1  0
 14 16  1  0
 15 14  2  0
 16 17  1  0
 17 21  1  0
 17 18  1  1
 19 18  1  0
 20 19  2  0
 21 22  2  0
 21 24  1  0
 23 19  1  0
M  END
$$$$
