ESD.pdb
     RDKit          3D

 24 23  0  0  1  0  0  0  0  0999 V2000
   13.8763  -16.3833  -15.1584 N   0  0  0  0  0  0  0  0  0  0  0  0
   15.0121  -15.7790  -14.4728 C   0  0  1  0  0  0  0  0  0  0  0  0
   16.3066  -16.1191  -15.1251 C   0  0  0  0  0  0  0  0  0  0  0  0
   16.7475  -17.5385  -15.0040 C   0  0  0  0  0  0  0  0  0  0  0  0
   18.0455  -17.7977  -15.6673 C   0  0  0  0  0  0  0  0  0  0  0  0
   18.0414  -18.0381  -16.9245 O   0  0  0  0  0  0  0  0  0  0  0  0
   14.7476  -14.3211  -14.3841 C   0  0  0  0  0  0  0  0  0  0  0  0
   14.1176  -13.7175  -15.2939 O   0  0  0  0  0  0  0  0  0  0  0  0
   19.2600  -17.8017  -15.0386 O   0  0  0  0  0  0  0  0  0  0  0  0
   16.0013  -12.3984  -11.0720 O   0  0  0  0  0  0  0  0  0  0  0  0
   14.9638  -11.7046  -11.7212 C   0  0  0  0  0  0  0  0  0  0  0  0
   14.9837  -12.1220  -13.1821 C   0  0  2  0  0  0  0  0  0  0  0  0
   15.1896  -13.5558  -13.2818 N   0  0  0  0  0  0  0  0  0  0  0  0
   16.1245  -11.4507  -13.8427 C   0  0  0  0  0  0  0  0  0  0  0  0
   17.2174  -12.0503  -13.9527 O   0  0  0  0  0  0  0  0  0  0  0  0
   16.0490  -10.1306  -14.3746 N   0  0  0  0  0  0  0  0  0  0  0  0
   17.1720   -9.4585  -14.9754 C   0  0  1  0  0  0  0  0  0  0  0  0
   16.5986   -8.4826  -15.9997 C   0  0  0  0  0  0  0  0  0  0  0  0
   17.7120   -7.8299  -16.7373 C   0  0  0  0  0  0  0  0  0  0  0  0
   18.9017   -8.1348  -16.4466 O   0  0  0  0  0  0  0  0  0  0  0  0
   17.9810   -8.7206  -13.9627 C   0  0  0  0  0  0  0  0  0  0  0  0
   19.0065   -8.0881  -14.3168 O   0  0  0  0  0  0  0  0  0  0  0  0
   17.5262   -6.8914  -17.7410 O   0  0  0  0  0  0  0  0  0  0  0  0
   17.6382   -8.7054  -12.6196 O   0  0  0  0  0  0  0  0  0  0  0  0
  2  1  1  6
  3  2  1  0
  3  4  1  0
  5  4  1  0
  5  9  1  0
  6  5  2  0
  7  8  2  0
  7  2  1  0
 10 11  1  0
 12 11  1  1
 12 14  1  0
 12 13  1  0
 13  7  1  0
 14 16  1  0
 15 14  2  0
 16 17  1  0
 17 21  1  0
 17 18  1  6
 19 18  1  0
 20 19  2  0
 21 22  2  0
 21 24  1  0
 23 19  1  0
M  END
$$$$
