ESD.pdb
     RDKit          3D

 24 23  0  0  1  0  0  0  0  0999 V2000
   11.7986  -20.7443    3.1940 N   0  0  0  0  0  0  0  0  0  0  0  0
   13.0807  -20.0545    3.2674 C   0  0  1  0  0  0  0  0  0  0  0  0
   12.9831  -18.7663    4.0076 C   0  0  0  0  0  0  0  0  0  0  0  0
   12.2400  -17.6712    3.3205 C   0  0  0  0  0  0  0  0  0  0  0  0
   12.9381  -16.3676    3.3915 C   0  0  0  0  0  0  0  0  0  0  0  0
   13.6150  -15.9912    2.3724 O   0  0  0  0  0  0  0  0  0  0  0  0
   14.0609  -21.0078    3.8451 C   0  0  0  0  0  0  0  0  0  0  0  0
   13.6993  -21.8990    4.6598 O   0  0  0  0  0  0  0  0  0  0  0  0
   12.9183  -15.5255    4.4689 O   0  0  0  0  0  0  0  0  0  0  0  0
   17.4131  -22.7221    2.0958 O   0  0  0  0  0  0  0  0  0  0  0  0
   17.6624  -21.8670    3.1848 C   0  0  0  0  0  0  0  0  0  0  0  0
   16.4174  -21.8674    4.0560 C   0  0  2  0  0  0  0  0  0  0  0  0
   15.4315  -20.9540    3.5064 N   0  0  0  0  0  0  0  0  0  0  0  0
   16.7906  -21.3793    5.4017 C   0  0  0  0  0  0  0  0  0  0  0  0
   16.8601  -20.1485    5.6174 O   0  0  0  0  0  0  0  0  0  0  0  0
   17.0813  -22.2495    6.4924 N   0  0  0  0  0  0  0  0  0  0  0  0
   17.4061  -21.7754    7.8129 C   0  0  1  0  0  0  0  0  0  0  0  0
   16.2382  -22.1655    8.7152 C   0  0  0  0  0  0  0  0  0  0  0  0
   16.5063  -21.6973   10.1003 C   0  0  0  0  0  0  0  0  0  0  0  0
   16.8178  -22.5432   10.9836 O   0  0  0  0  0  0  0  0  0  0  0  0
   18.6705  -22.3807    8.3221 C   0  0  0  0  0  0  0  0  0  0  0  0
   19.0616  -23.4878    7.8767 O   0  0  0  0  0  0  0  0  0  0  0  0
   16.4349  -20.3692   10.4926 O   0  0  0  0  0  0  0  0  0  0  0  0
   19.4460  -21.7565    9.2869 O   0  0  0  0  0  0  0  0  0  0  0  0
  2  1  1  1
  3  2  1  0
  3  4  1  0
  5  4  1  0
  5  9  1  0
  6  5  2  0
  7  8  2  0
  7  2  1  0
 10 11  1  0
 12 11  1  6
 12 14  1  0
 12 13  1  0
 13  7  1  0
 14 16  1  0
 15 14  2  0
 16 17  1  0
 17 21  1  0
 17 18  1  1
 19 18  1  0
 20 19  2  0
 21 22  2  0
 21 24  1  0
 23 19  1  0
M  END
$$$$
