ESD.pdb
     RDKit          3D

 24 23  0  0  1  0  0  0  0  0999 V2000
   17.8240  -11.5501  -18.7314 N   0  0  0  0  0  0  0  0  0  0  0  0
   19.1069  -11.2181  -18.1239 C   0  0  1  0  0  0  0  0  0  0  0  0
   20.2141  -11.2118  -19.1194 C   0  0  0  0  0  0  0  0  0  0  0  0
   20.5557  -12.5301  -19.7268 C   0  0  0  0  0  0  0  0  0  0  0  0
   21.5480  -13.2907  -18.9339 C   0  0  0  0  0  0  0  0  0  0  0  0
   21.8604  -14.4671  -19.3298 O   0  0  0  0  0  0  0  0  0  0  0  0
   18.9343   -9.9296  -17.4075 C   0  0  0  0  0  0  0  0  0  0  0  0
   18.4025   -8.9367  -17.9734 O   0  0  0  0  0  0  0  0  0  0  0  0
   22.1629  -12.8332  -17.8013 O   0  0  0  0  0  0  0  0  0  0  0  0
   20.0075   -9.5782  -13.3854 O   0  0  0  0  0  0  0  0  0  0  0  0
   18.9020   -8.8509  -13.8628 C   0  0  0  0  0  0  0  0  0  0  0  0
   19.1650   -8.5338  -15.3255 C   0  0  2  0  0  0  0  0  0  0  0  0
   19.3573   -9.7657  -16.0695 N   0  0  0  0  0  0  0  0  0  0  0  0
   20.4153   -7.7480  -15.4140 C   0  0  0  0  0  0  0  0  0  0  0  0
   21.4102   -8.2302  -16.0003 O   0  0  0  0  0  0  0  0  0  0  0  0
   20.5553   -6.4430  -14.8585 N   0  0  0  0  0  0  0  0  0  0  0  0
   21.7524   -5.6539  -14.9942 C   0  0  1  0  0  0  0  0  0  0  0  0
   21.9820   -5.4648  -16.4915 C   0  0  0  0  0  0  0  0  0  0  0  0
   23.1509   -4.5713  -16.7030 C   0  0  0  0  0  0  0  0  0  0  0  0
   23.2128   -3.4823  -16.0681 O   0  0  0  0  0  0  0  0  0  0  0  0
   21.6189   -4.3275  -14.3255 C   0  0  0  0  0  0  0  0  0  0  0  0
   20.5036   -3.7516  -14.2882 O   0  0  0  0  0  0  0  0  0  0  0  0
   24.1959   -4.8603  -17.5675 O   0  0  0  0  0  0  0  0  0  0  0  0
   22.6993   -3.6933  -13.7319 O   0  0  0  0  0  0  0  0  0  0  0  0
  2  1  1  6
  3  2  1  0
  3  4  1  0
  5  4  1  0
  5  9  1  0
  6  5  2  0
  7  8  2  0
  7  2  1  0
 10 11  1  0
 12 11  1  1
 12 14  1  0
 12 13  1  0
 13  7  1  0
 14 16  1  0
 15 14  2  0
 16 17  1  0
 17 21  1  0
 17 18  1  6
 19 18  1  0
 20 19  2  0
 21 22  2  0
 21 24  1  0
 23 19  1  0
M  END
$$$$
