ESD.pdb
     RDKit          3D

 24 23  0  0  1  0  0  0  0  0999 V2000
   13.2485  -11.0331  -10.1825 N   0  0  0  0  0  0  0  0  0  0  0  0
   14.5939  -10.4732  -10.1429 C   0  0  1  0  0  0  0  0  0  0  0  0
   15.4781  -11.0637  -11.1852 C   0  0  0  0  0  0  0  0  0  0  0  0
   15.6299  -12.5467  -11.1513 C   0  0  0  0  0  0  0  0  0  0  0  0
   16.3586  -13.0788  -12.3251 C   0  0  0  0  0  0  0  0  0  0  0  0
   16.7664  -12.2468  -13.2081 O   0  0  0  0  0  0  0  0  0  0  0  0
   14.4594   -8.9977  -10.2331 C   0  0  0  0  0  0  0  0  0  0  0  0
   13.4820   -8.4686  -10.8278 O   0  0  0  0  0  0  0  0  0  0  0  0
   16.6331  -14.4006  -12.5441 O   0  0  0  0  0  0  0  0  0  0  0  0
   16.8878   -6.5822   -8.0147 O   0  0  0  0  0  0  0  0  0  0  0  0
   15.6980   -6.0115   -8.5024 C   0  0  0  0  0  0  0  0  0  0  0  0
   15.3778   -6.6901   -9.8237 C   0  0  2  0  0  0  0  0  0  0  0  0
   15.4171   -8.1321   -9.6590 N   0  0  0  0  0  0  0  0  0  0  0  0
   16.4198   -6.3148  -10.8045 C   0  0  0  0  0  0  0  0  0  0  0  0
   17.3448   -7.1169  -11.0635 O   0  0  0  0  0  0  0  0  0  0  0  0
   16.4310   -5.0642  -11.4881 N   0  0  0  0  0  0  0  0  0  0  0  0
   17.3564   -4.7543  -12.5472 C   0  0  1  0  0  0  0  0  0  0  0  0
   17.0992   -5.7666  -13.6605 C   0  0  0  0  0  0  0  0  0  0  0  0
   17.9873   -5.4680  -14.8145 C   0  0  0  0  0  0  0  0  0  0  0  0
   18.8021   -4.5081  -14.7285 O   0  0  0  0  0  0  0  0  0  0  0  0
   17.1634   -3.3678  -13.0617 C   0  0  0  0  0  0  0  0  0  0  0  0
   17.9580   -2.8965  -13.9123 O   0  0  0  0  0  0  0  0  0  0  0  0
   17.9789   -6.1871  -16.0001 O   0  0  0  0  0  0  0  0  0  0  0  0
   16.1206   -2.5633  -12.6292 O   0  0  0  0  0  0  0  0  0  0  0  0
  2  1  1  6
  3  2  1  0
  3  4  1  0
  5  4  1  0
  5  9  1  0
  6  5  2  0
  7  8  2  0
  7  2  1  0
 10 11  1  0
 12 11  1  1
 12 14  1  0
 12 13  1  0
 13  7  1  0
 14 16  1  0
 15 14  2  0
 16 17  1  0
 17 21  1  0
 17 18  1  6
 19 18  1  0
 20 19  2  0
 21 22  2  0
 21 24  1  0
 23 19  1  0
M  END
$$$$
