ESD.pdb
     RDKit          3D

 24 23  0  0  1  0  0  0  0  0999 V2000
   15.0135  -12.5797  -11.8484 N   0  0  0  0  0  0  0  0  0  0  0  0
   15.2212  -11.2079  -12.2959 C   0  0  1  0  0  0  0  0  0  0  0  0
   14.0249  -10.6573  -12.9905 C   0  0  0  0  0  0  0  0  0  0  0  0
   13.5343  -11.4346  -14.1648 C   0  0  0  0  0  0  0  0  0  0  0  0
   12.3100  -10.8593  -14.7664 C   0  0  0  0  0  0  0  0  0  0  0  0
   12.3152  -10.6133  -16.0225 O   0  0  0  0  0  0  0  0  0  0  0  0
   15.6466  -10.4188  -11.1129 C   0  0  0  0  0  0  0  0  0  0  0  0
   15.1855  -10.6656   -9.9660 O   0  0  0  0  0  0  0  0  0  0  0  0
   11.1632  -10.5663  -14.0813 O   0  0  0  0  0  0  0  0  0  0  0  0
   18.5715   -7.5300  -11.5268 O   0  0  0  0  0  0  0  0  0  0  0  0
   18.4731   -8.1677  -10.2766 C   0  0  0  0  0  0  0  0  0  0  0  0
   17.0215   -8.5757  -10.0886 C   0  0  2  0  0  0  0  0  0  0  0  0
   16.5806   -9.3646  -11.2250 N   0  0  0  0  0  0  0  0  0  0  0  0
   16.1959   -7.3492  -10.0374 C   0  0  0  0  0  0  0  0  0  0  0  0
   15.7249   -6.8745  -11.0952 O   0  0  0  0  0  0  0  0  0  0  0  0
   15.8980   -6.6615   -8.8251 N   0  0  0  0  0  0  0  0  0  0  0  0
   15.1463   -5.4340   -8.7807 C   0  0  1  0  0  0  0  0  0  0  0  0
   14.8648   -5.1487   -7.3077 C   0  0  0  0  0  0  0  0  0  0  0  0
   14.0074   -3.9397   -7.1937 C   0  0  0  0  0  0  0  0  0  0  0  0
   13.3668   -3.5449   -8.2069 O   0  0  0  0  0  0  0  0  0  0  0  0
   15.9029   -4.3001   -9.3860 C   0  0  0  0  0  0  0  0  0  0  0  0
   17.1573   -4.2802   -9.3298 O   0  0  0  0  0  0  0  0  0  0  0  0
   13.8630   -3.2042   -6.0272 O   0  0  0  0  0  0  0  0  0  0  0  0
   15.2628   -3.2469  -10.0206 O   0  0  0  0  0  0  0  0  0  0  0  0
  2  1  1  1
  3  2  1  0
  3  4  1  0
  5  4  1  0
  5  9  1  0
  6  5  2  0
  7  8  2  0
  7  2  1  0
 10 11  1  0
 12 11  1  6
 12 14  1  0
 12 13  1  0
 13  7  1  0
 14 16  1  0
 15 14  2  0
 16 17  1  0
 17 21  1  0
 17 18  1  1
 19 18  1  0
 20 19  2  0
 21 22  2  0
 21 24  1  0
 23 19  1  0
M  END
$$$$
