ESD.pdb
     RDKit          3D

 24 23  0  0  1  0  0  0  0  0999 V2000
   17.2609  -12.8430  -15.6564 N   0  0  0  0  0  0  0  0  0  0  0  0
   17.3559  -11.4404  -16.0422 C   0  0  1  0  0  0  0  0  0  0  0  0
   16.0461  -10.7400  -15.9380 C   0  0  0  0  0  0  0  0  0  0  0  0
   14.9749  -11.2145  -16.8604 C   0  0  0  0  0  0  0  0  0  0  0  0
   13.6998  -10.4821  -16.6886 C   0  0  0  0  0  0  0  0  0  0  0  0
   13.4524   -9.5099  -17.4836 O   0  0  0  0  0  0  0  0  0  0  0  0
   18.4317  -10.8301  -15.2216 C   0  0  0  0  0  0  0  0  0  0  0  0
   18.3400  -10.7748  -13.9656 O   0  0  0  0  0  0  0  0  0  0  0  0
   12.7563  -10.7631  -15.7394 O   0  0  0  0  0  0  0  0  0  0  0  0
   22.9845   -9.6444  -14.6527 O   0  0  0  0  0  0  0  0  0  0  0  0
   22.0016  -10.2395  -15.4645 C   0  0  0  0  0  0  0  0  0  0  0  0
   20.6580   -9.6692  -15.0420 C   0  0  2  0  0  0  0  0  0  0  0  0
   19.5954  -10.2894  -15.8129 N   0  0  0  0  0  0  0  0  0  0  0  0
   20.6522   -8.2204  -15.3412 C   0  0  0  0  0  0  0  0  0  0  0  0
   20.4989   -7.8317  -16.5208 O   0  0  0  0  0  0  0  0  0  0  0  0
   20.8137   -7.2183  -14.3406 N   0  0  0  0  0  0  0  0  0  0  0  0
   20.9513   -5.8174  -14.6445 C   0  0  1  0  0  0  0  0  0  0  0  0
   19.5670   -5.1968  -14.4740 C   0  0  0  0  0  0  0  0  0  0  0  0
   19.6244   -3.7553  -14.8326 C   0  0  0  0  0  0  0  0  0  0  0  0
   20.5011   -3.3616  -15.6505 O   0  0  0  0  0  0  0  0  0  0  0  0
   21.9274   -5.1481  -13.7369 C   0  0  0  0  0  0  0  0  0  0  0  0
   22.2077   -3.9348  -13.8999 O   0  0  0  0  0  0  0  0  0  0  0  0
   18.7631   -2.7981  -14.3181 O   0  0  0  0  0  0  0  0  0  0  0  0
   22.5494   -5.8264  -12.7002 O   0  0  0  0  0  0  0  0  0  0  0  0
  2  1  1  1
  3  2  1  0
  3  4  1  0
  5  4  1  0
  5  9  1  0
  6  5  2  0
  7  8  2  0
  7  2  1  0
 10 11  1  0
 12 11  1  6
 12 14  1  0
 12 13  1  0
 13  7  1  0
 14 16  1  0
 15 14  2  0
 16 17  1  0
 17 21  1  0
 17 18  1  1
 19 18  1  0
 20 19  2  0
 21 22  2  0
 21 24  1  0
 23 19  1  0
M  END
$$$$
