ESD.pdb
     RDKit          3D

 24 23  0  0  1  0  0  0  0  0999 V2000
   16.2051   -7.2614   -8.3684 N   0  0  0  0  0  0  0  0  0  0  0  0
   16.4935   -8.0936   -9.5301 C   0  0  1  0  0  0  0  0  0  0  0  0
   15.2971   -8.2817  -10.3962 C   0  0  0  0  0  0  0  0  0  0  0  0
   14.2521   -9.2097   -9.8764 C   0  0  0  0  0  0  0  0  0  0  0  0
   13.1505   -9.4355  -10.8394 C   0  0  0  0  0  0  0  0  0  0  0  0
   11.9499   -9.2578  -10.4328 O   0  0  0  0  0  0  0  0  0  0  0  0
   17.6533   -7.4861  -10.2295 C   0  0  0  0  0  0  0  0  0  0  0  0
   17.9795   -6.2856  -10.0267 O   0  0  0  0  0  0  0  0  0  0  0  0
   13.3142   -9.8228  -12.1407 O   0  0  0  0  0  0  0  0  0  0  0  0
   21.5505   -8.2032  -13.0236 O   0  0  0  0  0  0  0  0  0  0  0  0
   20.4017   -8.7874  -12.4593 C   0  0  0  0  0  0  0  0  0  0  0  0
   19.5861   -7.6694  -11.8317 C   0  0  2  0  0  0  0  0  0  0  0  0
   18.4337   -8.2260  -11.1458 N   0  0  0  0  0  0  0  0  0  0  0  0
   19.0917   -6.7898  -12.9135 C   0  0  0  0  0  0  0  0  0  0  0  0
   18.0690   -7.1144  -13.5576 O   0  0  0  0  0  0  0  0  0  0  0  0
   19.7266   -5.5653  -13.2724 N   0  0  0  0  0  0  0  0  0  0  0  0
   19.3407   -4.7852  -14.4198 C   0  0  1  0  0  0  0  0  0  0  0  0
   19.7229   -3.3396  -14.1122 C   0  0  0  0  0  0  0  0  0  0  0  0
   19.3375   -2.4726  -15.2565 C   0  0  0  0  0  0  0  0  0  0  0  0
   20.2439   -1.9244  -15.9425 O   0  0  0  0  0  0  0  0  0  0  0  0
   20.0323   -5.2448  -15.6587 C   0  0  0  0  0  0  0  0  0  0  0  0
   19.6461   -4.8377  -16.7822 O   0  0  0  0  0  0  0  0  0  0  0  0
   18.0247   -2.2219  -15.6258 O   0  0  0  0  0  0  0  0  0  0  0  0
   21.1059   -6.1208  -15.6175 O   0  0  0  0  0  0  0  0  0  0  0  0
  2  1  1  1
  3  2  1  0
  3  4  1  0
  5  4  1  0
  5  9  1  0
  6  5  2  0
  7  8  2  0
  7  2  1  0
 10 11  1  0
 12 11  1  6
 12 14  1  0
 12 13  1  0
 13  7  1  0
 14 16  1  0
 15 14  2  0
 16 17  1  0
 17 21  1  0
 17 18  1  1
 19 18  1  0
 20 19  2  0
 21 22  2  0
 21 24  1  0
 23 19  1  0
M  END
$$$$
