RRM.pdb
     RDKit          3D

 31 30  0  0  1  0  0  0  0  0999 V2000
    8.3871  -13.7302   17.2059 N   0  0  0  0  0  0  0  0  0  0  0  0
    8.1664  -12.8542   18.3004 C   0  0  0  0  0  0  0  0  0  0  0  0
    8.5767  -11.6237   18.2966 N   0  0  0  0  0  0  0  0  0  0  0  0
    7.4685  -13.2847   19.4864 N   0  0  0  0  0  0  0  0  0  0  0  0
    7.1525  -14.6901   19.6887 C   0  0  0  0  0  0  0  0  0  0  0  0
    7.8602  -15.1625   20.9311 C   0  0  0  0  0  0  0  0  0  0  0  0
    9.1031  -15.9481   20.6685 C   0  0  0  0  0  0  0  0  0  0  0  0
    9.0455  -17.3833   21.1096 C   0  0  2  0  0  0  0  0  0  0  0  0
    7.9100  -18.0812   20.5823 N   0  0  0  0  0  0  0  0  0  0  0  0
    9.1153  -17.5335   22.5781 C   0  0  0  0  0  0  0  0  0  0  0  0
    8.0802  -17.6892   23.2923 O   0  0  0  0  0  0  0  0  0  0  0  0
    8.3922  -11.0068   19.1300 N   0  0  0  0  0  0  0  0  0  0  0  0
   12.9613  -23.1674   26.9512 C   0  0  0  0  0  0  0  0  0  0  0  0
   13.8519  -22.2070   26.4066 N   0  0  0  0  0  0  0  0  0  0  0  0
   15.1046  -22.2443   26.6830 N   0  0  0  0  0  0  0  0  0  0  0  0
   13.3786  -21.1800   25.5397 C   0  0  0  0  0  0  0  0  0  0  0  0
   11.9888  -20.9895   25.2277 C   0  0  0  0  0  0  0  0  0  0  0  0
   11.8891  -19.7967   24.2859 C   0  0  0  0  0  0  0  0  0  0  0  0
   11.7019  -18.5203   25.0337 C   0  0  2  0  0  0  0  0  0  0  0  0
   10.4151  -17.8001   24.7042 N   0  0  0  0  0  0  0  0  0  0  0  0
   10.3551  -17.5118   23.2721 C   0  0  0  0  0  0  0  0  0  0  0  0
   10.3887  -16.5211   25.4486 O   0  0  0  0  0  0  0  0  0  0  0  0
   11.1615  -15.5806   25.1336 C   0  0  0  0  0  0  0  0  0  0  0  0
   15.7962  -21.5875   26.3130 S   0  0  0  0  0  0  0  0  0  0  0  0
    5.9036  -12.2337   26.3397 C   0  0  0  0  0  0  0  0  0  0  0  0
    6.4598  -12.4035   28.0554 C   0  0  0  0  0  0  0  0  0  0  0  0
    8.1798  -13.0937   28.0389 C   0  0  1  0  0  0  0  0  0  0  0  0
    8.1702  -14.4050   27.3183 N   0  0  0  0  0  0  0  0  0  0  0  0
    9.5271  -14.9826   27.1818 C   0  0  0  0  0  0  0  0  0  0  0  0
    9.5108  -16.2839   26.5355 O   0  0  0  0  0  0  0  0  0  0  0  0
   10.1731  -15.1630   28.4791 O   0  0  0  0  0  0  0  0  0  0  0  0
  2  3  2  0
  2  1  1  0
  4  2  1  0
  5  4  1  0
  6  5  1  0
  7  6  1  0
  8 10  1  0
  8  9  1  1
  8  7  1  0
 10 11  2  0
 13 12  1  0
 14 13  2  0
 15 16  1  0
 15 13  1  0
 17 18  1  0
 17 16  1  0
 19 18  1  6
 19 21  1  0
 20 19  1  0
 20 10  1  0
 21 22  2  0
 21 28  1  0
 23 24  1  0
 24 25  1  0
 25 26  1  0
 27 26  1  1
 27 29  1  0
 28 27  1  0
 29 31  2  0
 29 30  1  0
M  END
$$$$
