RRM.pdb
     RDKit          3D

 31 30  0  0  1  0  0  0  0  0999 V2000
    9.8986  -14.6591   14.2209 N   0  0  0  0  0  0  0  0  0  0  0  0
    8.6540  -14.0315   14.4874 C   0  0  0  0  0  0  0  0  0  0  0  0
    7.5583  -14.3839   13.8892 N   0  0  0  0  0  0  0  0  0  0  0  0
    8.5356  -12.9599   15.4447 N   0  0  0  0  0  0  0  0  0  0  0  0
    8.3798  -13.2488   16.8618 C   0  0  0  0  0  0  0  0  0  0  0  0
    8.1759  -14.7318   17.0250 C   0  0  0  0  0  0  0  0  0  0  0  0
    7.8057  -15.1518   18.4098 C   0  0  0  0  0  0  0  0  0  0  0  0
    8.9667  -15.3168   19.3491 C   0  0  2  0  0  0  0  0  0  0  0  0
    9.9481  -16.2411   18.8620 N   0  0  0  0  0  0  0  0  0  0  0  0
    8.5468  -15.6752   20.7199 C   0  0  0  0  0  0  0  0  0  0  0  0
    7.6216  -15.0583   21.3272 O   0  0  0  0  0  0  0  0  0  0  0  0
    6.6625  -13.8671   14.0883 N   0  0  0  0  0  0  0  0  0  0  0  0
   15.1049  -20.4615   23.7239 C   0  0  0  0  0  0  0  0  0  0  0  0
   13.7504  -20.5351   24.1387 N   0  0  0  0  0  0  0  0  0  0  0  0
   13.3160  -21.5589   24.7792 N   0  0  0  0  0  0  0  0  0  0  0  0
   12.8407  -19.4753   23.8564 C   0  0  0  0  0  0  0  0  0  0  0  0
   11.4215  -19.6654   23.7344 C   0  0  0  0  0  0  0  0  0  0  0  0
   10.8084  -18.3212   23.3644 C   0  0  0  0  0  0  0  0  0  0  0  0
    9.3312  -18.4210   23.1878 C   0  0  1  0  0  0  0  0  0  0  0  0
    8.6768  -17.1289   22.7573 N   0  0  0  0  0  0  0  0  0  0  0  0
    9.1620  -16.7383   21.4345 C   0  0  0  0  0  0  0  0  0  0  0  0
    9.0393  -16.0724   23.7283 O   0  0  0  0  0  0  0  0  0  0  0  0
   10.1787  -15.5413   23.7013 C   0  0  0  0  0  0  0  0  0  0  0  0
   12.3429  -21.6885   25.0670 S   0  0  0  0  0  0  0  0  0  0  0  0
    5.0798  -11.7772   26.0741 C   0  0  0  0  0  0  0  0  0  0  0  0
    6.6423  -11.0465   26.6277 C   0  0  0  0  0  0  0  0  0  0  0  0
    7.9241  -12.3847   26.6645 C   0  0  1  0  0  0  0  0  0  0  0  0
    7.5657  -13.4287   25.6545 N   0  0  0  0  0  0  0  0  0  0  0  0
    8.5652  -14.5199   25.5933 C   0  0  0  0  0  0  0  0  0  0  0  0
    8.1451  -15.6054   24.7236 O   0  0  0  0  0  0  0  0  0  0  0  0
    8.8123  -15.1037   26.9090 O   0  0  0  0  0  0  0  0  0  0  0  0
  2  3  2  0
  2  1  1  0
  4  2  1  0
  5  4  1  0
  6  5  1  0
  7  6  1  0
  8 10  1  0
  8  9  1  6
  8  7  1  0
 10 11  2  0
 13 12  1  0
 14 13  2  0
 15 16  1  0
 15 13  1  0
 17 18  1  0
 17 16  1  0
 19 18  1  6
 19 21  1  0
 20 19  1  0
 20 10  1  0
 21 22  2  0
 21 28  1  0
 23 24  1  0
 24 25  1  0
 25 26  1  0
 27 26  1  1
 27 29  1  0
 28 27  1  0
 29 31  2  0
 29 30  1  0
M  END
$$$$
