RRM.pdb
     RDKit          3D

 31 30  0  0  1  0  0  0  0  0999 V2000
    7.7445  -14.0986   15.2080 N   0  0  0  0  0  0  0  0  0  0  0  0
    7.7553  -15.5163   15.2687 C   0  0  0  0  0  0  0  0  0  0  0  0
    8.7553  -16.2207   14.8368 N   0  0  0  0  0  0  0  0  0  0  0  0
    6.6484  -16.2595   15.8178 N   0  0  0  0  0  0  0  0  0  0  0  0
    6.8556  -17.5829   16.3847 C   0  0  0  0  0  0  0  0  0  0  0  0
    7.1500  -17.4301   17.8536 C   0  0  0  0  0  0  0  0  0  0  0  0
    7.2876  -18.7225   18.5898 C   0  0  0  0  0  0  0  0  0  0  0  0
    7.5301  -18.5833   20.0661 C   0  0  2  0  0  0  0  0  0  0  0  0
    6.5515  -17.7606   20.7144 N   0  0  0  0  0  0  0  0  0  0  0  0
    8.8962  -18.1153   20.3797 C   0  0  0  0  0  0  0  0  0  0  0  0
    9.9207  -18.8326   20.1757 O   0  0  0  0  0  0  0  0  0  0  0  0
    8.7490  -17.2673   14.9539 N   0  0  0  0  0  0  0  0  0  0  0  0
   15.3500  -14.3474   20.9939 C   0  0  0  0  0  0  0  0  0  0  0  0
   15.1829  -14.1922   19.5938 N   0  0  0  0  0  0  0  0  0  0  0  0
   16.1852  -14.2944   18.7990 N   0  0  0  0  0  0  0  0  0  0  0  0
   13.8999  -13.9211   19.0364 C   0  0  0  0  0  0  0  0  0  0  0  0
   12.7342  -13.6537   19.8332 C   0  0  0  0  0  0  0  0  0  0  0  0
   12.3938  -14.9299   20.5915 C   0  0  0  0  0  0  0  0  0  0  0  0
   10.9898  -15.3626   20.3367 C   0  0  2  0  0  0  0  0  0  0  0  0
   10.4875  -16.4122   21.3007 N   0  0  0  0  0  0  0  0  0  0  0  0
    9.1355  -16.8270   20.9296 C   0  0  0  0  0  0  0  0  0  0  0  0
   10.4489  -15.8233   22.6581 O   0  0  0  0  0  0  0  0  0  0  0  0
   11.4129  -15.1397   23.0873 C   0  0  0  0  0  0  0  0  0  0  0  0
   16.1272  -14.1953   17.7825 S   0  0  0  0  0  0  0  0  0  0  0  0
    6.4977  -11.3081   27.3548 C   0  0  0  0  0  0  0  0  0  0  0  0
    6.4879  -12.4185   25.9235 C   0  0  0  0  0  0  0  0  0  0  0  0
    8.0082  -13.4756   26.0028 C   0  0  2  0  0  0  0  0  0  0  0  0
    8.1331  -14.2436   24.7247 N   0  0  0  0  0  0  0  0  0  0  0  0
    9.2807  -15.1796   24.7399 C   0  0  0  0  0  0  0  0  0  0  0  0
    9.3485  -15.9896   23.5356 O   0  0  0  0  0  0  0  0  0  0  0  0
    9.2118  -16.1044   25.8681 O   0  0  0  0  0  0  0  0  0  0  0  0
  2  3  2  0
  2  1  1  0
  4  2  1  0
  5  4  1  0
  6  5  1  0
  7  6  1  0
  8 10  1  0
  8  9  1  6
  8  7  1  0
 10 11  2  0
 13 12  1  0
 14 13  2  0
 15 16  1  0
 15 13  1  0
 17 18  1  0
 17 16  1  0
 19 18  1  6
 19 21  1  0
 20 19  1  0
 20 10  1  0
 21 22  2  0
 21 28  1  0
 23 24  1  0
 24 25  1  0
 25 26  1  0
 27 26  1  1
 27 29  1  0
 28 27  1  0
 29 31  2  0
 29 30  1  0
M  END
$$$$
