RRM.pdb
     RDKit          3D

 31 30  0  0  1  0  0  0  0  0999 V2000
    8.5925  -11.6493   19.1424 N   0  0  0  0  0  0  0  0  0  0  0  0
    8.9576  -13.0149   19.0180 C   0  0  0  0  0  0  0  0  0  0  0  0
   10.1259  -13.3836   18.5914 N   0  0  0  0  0  0  0  0  0  0  0  0
    8.0453  -14.0773   19.3612 N   0  0  0  0  0  0  0  0  0  0  0  0
    7.0230  -13.8744   20.3759 C   0  0  0  0  0  0  0  0  0  0  0  0
    6.2565  -15.1599   20.5422 C   0  0  0  0  0  0  0  0  0  0  0  0
    6.4698  -15.8361   21.8568 C   0  0  0  0  0  0  0  0  0  0  0  0
    7.1383  -17.1791   21.7728 C   0  0  2  0  0  0  0  0  0  0  0  0
    6.2108  -18.2679   21.8682 N   0  0  0  0  0  0  0  0  0  0  0  0
    8.2311  -17.3364   22.7550 C   0  0  0  0  0  0  0  0  0  0  0  0
    8.0320  -17.7866   23.9226 O   0  0  0  0  0  0  0  0  0  0  0  0
   10.3372  -14.4069   18.4596 N   0  0  0  0  0  0  0  0  0  0  0  0
   14.0890  -13.7881   19.7862 C   0  0  0  0  0  0  0  0  0  0  0  0
   13.9816  -15.2022   19.8199 N   0  0  0  0  0  0  0  0  0  0  0  0
   14.0435  -15.8898   18.7381 N   0  0  0  0  0  0  0  0  0  0  0  0
   13.8044  -15.8927   21.0536 C   0  0  0  0  0  0  0  0  0  0  0  0
   13.7056  -17.3232   21.1498 C   0  0  0  0  0  0  0  0  0  0  0  0
   12.3277  -17.6515   21.7095 C   0  0  0  0  0  0  0  0  0  0  0  0
   11.9638  -16.7482   22.8386 C   0  0  2  0  0  0  0  0  0  0  0  0
   10.6198  -17.0530   23.4585 N   0  0  0  0  0  0  0  0  0  0  0  0
    9.5726  -16.9895   22.4401 C   0  0  0  0  0  0  0  0  0  0  0  0
   10.3385  -16.0342   24.4946 O   0  0  0  0  0  0  0  0  0  0  0  0
   10.6035  -14.8223   24.2899 C   0  0  0  0  0  0  0  0  0  0  0  0
   14.0882  -16.9114   18.7063 S   0  0  0  0  0  0  0  0  0  0  0  0
    6.3682  -12.8836   25.6162 C   0  0  0  0  0  0  0  0  0  0  0  0
    7.0023  -12.3989   27.2425 C   0  0  0  0  0  0  0  0  0  0  0  0
    8.0270  -13.7954   27.9020 C   0  0  1  0  0  0  0  0  0  0  0  0
    8.2104  -14.8153   26.8228 N   0  0  0  0  0  0  0  0  0  0  0  0
    9.6063  -15.3032   26.7402 C   0  0  0  0  0  0  0  0  0  0  0  0
    9.7659  -16.3551   25.7507 O   0  0  0  0  0  0  0  0  0  0  0  0
   10.0669  -15.8481   28.0145 O   0  0  0  0  0  0  0  0  0  0  0  0
  2  3  2  0
  2  1  1  0
  4  2  1  0
  5  4  1  0
  6  5  1  0
  7  6  1  0
  8 10  1  0
  8  9  1  1
  8  7  1  0
 10 11  2  0
 13 12  1  0
 14 13  2  0
 15 16  1  0
 15 13  1  0
 17 18  1  0
 17 16  1  0
 19 18  1  6
 19 21  1  0
 20 19  1  0
 20 10  1  0
 21 22  2  0
 21 28  1  0
 23 24  1  0
 24 25  1  0
 25 26  1  0
 27 26  1  1
 27 29  1  0
 28 27  1  0
 29 31  2  0
 29 30  1  0
M  END
$$$$
