RRM.pdb
     RDKit          3D

 31 30  0  0  1  0  0  0  0  0999 V2000
    8.8618  -15.6444   14.9270 N   0  0  0  0  0  0  0  0  0  0  0  0
    8.6376  -14.2731   15.2153 C   0  0  0  0  0  0  0  0  0  0  0  0
    7.8527  -13.5330   14.4951 N   0  0  0  0  0  0  0  0  0  0  0  0
    9.2733  -13.6201   16.3327 N   0  0  0  0  0  0  0  0  0  0  0  0
    8.5460  -13.4043   17.5739 C   0  0  0  0  0  0  0  0  0  0  0  0
    7.3516  -14.3212   17.5906 C   0  0  0  0  0  0  0  0  0  0  0  0
    7.4117  -15.3886   18.6337 C   0  0  0  0  0  0  0  0  0  0  0  0
    8.7086  -15.4580   19.3893 C   0  0  2  0  0  0  0  0  0  0  0  0
    9.6382  -16.3845   18.8129 N   0  0  0  0  0  0  0  0  0  0  0  0
    8.5180  -15.7363   20.8280 C   0  0  0  0  0  0  0  0  0  0  0  0
    7.7029  -15.0795   21.5421 O   0  0  0  0  0  0  0  0  0  0  0  0
    7.7320  -12.5134   14.7297 N   0  0  0  0  0  0  0  0  0  0  0  0
   11.5902  -21.8623   20.6907 C   0  0  0  0  0  0  0  0  0  0  0  0
   12.1328  -20.9221   21.6038 N   0  0  0  0  0  0  0  0  0  0  0  0
   13.3128  -20.4477   21.4320 N   0  0  0  0  0  0  0  0  0  0  0  0
   11.3818  -20.4807   22.7314 C   0  0  0  0  0  0  0  0  0  0  0  0
   11.8613  -19.4966   23.6624 C   0  0  0  0  0  0  0  0  0  0  0  0
   11.1260  -18.1945   23.3733 C   0  0  0  0  0  0  0  0  0  0  0  0
    9.6572  -18.4117   23.2362 C   0  0  1  0  0  0  0  0  0  0  0  0
    8.8876  -17.1699   22.8502 N   0  0  0  0  0  0  0  0  0  0  0  0
    9.2430  -16.7625   21.4917 C   0  0  0  0  0  0  0  0  0  0  0  0
    9.2527  -16.0816   23.7844 O   0  0  0  0  0  0  0  0  0  0  0  0
   10.2789  -15.3832   23.5844 C   0  0  0  0  0  0  0  0  0  0  0  0
   13.7852  -19.8244   22.0915 S   0  0  0  0  0  0  0  0  0  0  0  0
    5.2601  -12.1214   26.4056 C   0  0  0  0  0  0  0  0  0  0  0  0
    6.8012  -11.2629   26.8178 C   0  0  0  0  0  0  0  0  0  0  0  0
    8.1775  -12.5040   26.7935 C   0  0  1  0  0  0  0  0  0  0  0  0
    7.8087  -13.6204   25.8681 N   0  0  0  0  0  0  0  0  0  0  0  0
    8.8806  -14.6361   25.7555 C   0  0  0  0  0  0  0  0  0  0  0  0
    8.4854  -15.7672   24.9337 O   0  0  0  0  0  0  0  0  0  0  0  0
    9.2587  -15.1729   27.0600 O   0  0  0  0  0  0  0  0  0  0  0  0
  2  3  2  0
  2  1  1  0
  4  2  1  0
  5  4  1  0
  6  5  1  0
  7  6  1  0
  8 10  1  0
  8  9  1  6
  8  7  1  0
 10 11  2  0
 13 12  1  0
 14 13  2  0
 15 16  1  0
 15 13  1  0
 17 18  1  0
 17 16  1  0
 19 18  1  6
 19 21  1  0
 20 19  1  0
 20 10  1  0
 21 22  2  0
 21 28  1  0
 23 24  1  0
 24 25  1  0
 25 26  1  0
 27 26  1  1
 27 29  1  0
 28 27  1  0
 29 31  2  0
 29 30  1  0
M  END
$$$$
