RRM.pdb
     RDKit          3D

 31 30  0  0  1  0  0  0  0  0999 V2000
    8.3461  -15.1101   16.0101 N   0  0  0  0  0  0  0  0  0  0  0  0
    8.2164  -13.7078   16.1854 C   0  0  0  0  0  0  0  0  0  0  0  0
    8.8311  -12.8549   15.4255 N   0  0  0  0  0  0  0  0  0  0  0  0
    7.3885  -13.1476   17.2243 N   0  0  0  0  0  0  0  0  0  0  0  0
    7.7985  -13.2241   18.6179 C   0  0  0  0  0  0  0  0  0  0  0  0
    8.1401  -14.6560   18.9349 C   0  0  0  0  0  0  0  0  0  0  0  0
    7.9628  -15.0259   20.3712 C   0  0  0  0  0  0  0  0  0  0  0  0
    8.2591  -16.4635   20.6922 C   0  0  2  0  0  0  0  0  0  0  0  0
    7.2634  -17.3620   20.1862 N   0  0  0  0  0  0  0  0  0  0  0  0
    8.4847  -16.6926   22.1346 C   0  0  0  0  0  0  0  0  0  0  0  0
    7.5787  -16.5025   22.9998 O   0  0  0  0  0  0  0  0  0  0  0  0
    8.7820  -11.8261   15.6452 N   0  0  0  0  0  0  0  0  0  0  0  0
   10.2020  -23.3689   24.7825 C   0  0  0  0  0  0  0  0  0  0  0  0
   11.4262  -22.6866   24.5636 N   0  0  0  0  0  0  0  0  0  0  0  0
   12.4472  -23.3067   24.0944 N   0  0  0  0  0  0  0  0  0  0  0  0
   11.5518  -21.2979   24.8572 C   0  0  0  0  0  0  0  0  0  0  0  0
   10.4694  -20.4968   25.3590 C   0  0  0  0  0  0  0  0  0  0  0  0
   11.0009  -19.0844   25.5650 C   0  0  0  0  0  0  0  0  0  0  0  0
   11.0793  -18.3339   24.2789 C   0  0  2  0  0  0  0  0  0  0  0  0
    9.9369  -17.3689   24.0619 N   0  0  0  0  0  0  0  0  0  0  0  0
    9.7379  -17.1420   22.6313 C   0  0  0  0  0  0  0  0  0  0  0  0
   10.2814  -16.0809   24.7046 O   0  0  0  0  0  0  0  0  0  0  0  0
   11.1652  -15.3351   24.2112 C   0  0  0  0  0  0  0  0  0  0  0  0
   13.3581  -22.8726   23.9263 S   0  0  0  0  0  0  0  0  0  0  0  0
    5.3860  -12.2719   27.8900 C   0  0  0  0  0  0  0  0  0  0  0  0
    6.9767  -11.9531   27.0840 C   0  0  0  0  0  0  0  0  0  0  0  0
    7.9468  -13.5323   27.0768 C   0  0  1  0  0  0  0  0  0  0  0  0
    9.2833  -13.2786   26.4538 N   0  0  0  0  0  0  0  0  0  0  0  0
   10.1852  -14.4487   26.5593 C   0  0  0  0  0  0  0  0  0  0  0  0
    9.6502  -15.6204   25.8870 O   0  0  0  0  0  0  0  0  0  0  0  0
   10.4200  -14.8292   27.9496 O   0  0  0  0  0  0  0  0  0  0  0  0
  2  3  2  0
  2  1  1  0
  4  2  1  0
  5  4  1  0
  6  5  1  0
  7  6  1  0
  8 10  1  0
  8  9  1  1
  8  7  1  0
 10 11  2  0
 13 12  1  0
 14 13  2  0
 15 16  1  0
 15 13  1  0
 17 18  1  0
 17 16  1  0
 19 18  1  6
 19 21  1  0
 20 19  1  0
 20 10  1  0
 21 22  2  0
 21 28  1  0
 23 24  1  0
 24 25  1  0
 25 26  1  0
 27 26  1  6
 27 29  1  0
 28 27  1  0
 29 31  2  0
 29 30  1  0
M  END
$$$$
