RRM.pdb
     RDKit          3D

 31 30  0  0  1  0  0  0  0  0999 V2000
    7.6802  -13.5554   16.0526 N   0  0  0  0  0  0  0  0  0  0  0  0
    8.8651  -13.9050   16.7510 C   0  0  0  0  0  0  0  0  0  0  0  0
    9.9899  -13.2880   16.5593 N   0  0  0  0  0  0  0  0  0  0  0  0
    8.8863  -14.9725   17.7200 N   0  0  0  0  0  0  0  0  0  0  0  0
    7.6862  -15.7486   17.9907 C   0  0  0  0  0  0  0  0  0  0  0  0
    7.6185  -16.0187   19.4706 C   0  0  0  0  0  0  0  0  0  0  0  0
    8.1908  -17.3359   19.8810 C   0  0  0  0  0  0  0  0  0  0  0  0
    7.2045  -18.2853   20.5002 C   0  0  2  0  0  0  0  0  0  0  0  0
    5.9568  -18.3274   19.7958 N   0  0  0  0  0  0  0  0  0  0  0  0
    6.9840  -18.0238   21.9379 C   0  0  0  0  0  0  0  0  0  0  0  0
    6.1516  -17.1615   22.3489 O   0  0  0  0  0  0  0  0  0  0  0  0
   10.8667  -13.6391   17.0252 N   0  0  0  0  0  0  0  0  0  0  0  0
   10.3584  -20.5483   27.5652 C   0  0  0  0  0  0  0  0  0  0  0  0
    9.1353  -20.9329   28.1722 N   0  0  0  0  0  0  0  0  0  0  0  0
    8.9510  -20.7744   29.4323 N   0  0  0  0  0  0  0  0  0  0  0  0
    8.0826  -21.5021   27.3988 C   0  0  0  0  0  0  0  0  0  0  0  0
    8.2275  -21.8659   26.0161 C   0  0  0  0  0  0  0  0  0  0  0  0
    7.4666  -20.8382   25.1888 C   0  0  0  0  0  0  0  0  0  0  0  0
    8.1414  -19.5086   25.2082 C   0  0  2  0  0  0  0  0  0  0  0  0
    7.4576  -18.4620   24.3596 N   0  0  0  0  0  0  0  0  0  0  0  0
    7.6982  -18.7306   22.9427 C   0  0  0  0  0  0  0  0  0  0  0  0
    8.0276  -17.1383   24.6965 O   0  0  0  0  0  0  0  0  0  0  0  0
    9.0193  -16.6891   24.0675 C   0  0  0  0  0  0  0  0  0  0  0  0
    8.1216  -21.0950   29.9383 S   0  0  0  0  0  0  0  0  0  0  0  0
    5.5434  -10.8459   25.5712 C   0  0  0  0  0  0  0  0  0  0  0  0
    6.2187  -11.5155   27.1131 C   0  0  0  0  0  0  0  0  0  0  0  0
    7.5961  -12.6786   26.6829 C   0  0  2  0  0  0  0  0  0  0  0  0
    7.0110  -13.9894   26.2608 N   0  0  0  0  0  0  0  0  0  0  0  0
    8.0511  -14.9829   25.9077 C   0  0  0  0  0  0  0  0  0  0  0  0
    7.5021  -16.3155   25.7238 O   0  0  0  0  0  0  0  0  0  0  0  0
    9.0758  -15.0870   26.9431 O   0  0  0  0  0  0  0  0  0  0  0  0
  2  3  2  0
  2  1  1  0
  4  2  1  0
  5  4  1  0
  6  5  1  0
  7  6  1  0
  8 10  1  0
  8  9  1  6
  8  7  1  0
 10 11  2  0
 13 12  1  0
 14 13  2  0
 15 16  1  0
 15 13  1  0
 17 18  1  0
 17 16  1  0
 19 18  1  6
 19 21  1  0
 20 19  1  0
 20 10  1  0
 21 22  2  0
 21 28  1  0
 23 24  1  0
 24 25  1  0
 25 26  1  0
 27 26  1  1
 27 29  1  0
 28 27  1  0
 29 31  2  0
 29 30  1  0
M  END
$$$$
