RRM.pdb
     RDKit          3D

 31 30  0  0  1  0  0  0  0  0999 V2000
    9.0303  -11.9014   18.3993 N   0  0  0  0  0  0  0  0  0  0  0  0
    8.5404  -13.0999   17.8185 C   0  0  0  0  0  0  0  0  0  0  0  0
    8.8971  -13.4924   16.6348 N   0  0  0  0  0  0  0  0  0  0  0  0
    7.6125  -13.9554   18.5158 N   0  0  0  0  0  0  0  0  0  0  0  0
    7.8063  -15.3969   18.5330 C   0  0  0  0  0  0  0  0  0  0  0  0
    6.6962  -16.0162   19.3403 C   0  0  0  0  0  0  0  0  0  0  0  0
    7.1302  -16.5684   20.6585 C   0  0  0  0  0  0  0  0  0  0  0  0
    8.0566  -15.6795   21.4392 C   0  0  2  0  0  0  0  0  0  0  0  0
    9.2319  -15.3187   20.7023 N   0  0  0  0  0  0  0  0  0  0  0  0
    8.4185  -16.2458   22.7552 C   0  0  0  0  0  0  0  0  0  0  0  0
    7.5585  -16.7628   23.5291 O   0  0  0  0  0  0  0  0  0  0  0  0
    8.5921  -14.4364   16.2812 N   0  0  0  0  0  0  0  0  0  0  0  0
   14.7930  -21.5802   22.5976 C   0  0  0  0  0  0  0  0  0  0  0  0
   14.1168  -20.3333   22.5821 N   0  0  0  0  0  0  0  0  0  0  0  0
   14.7257  -19.2536   22.9143 N   0  0  0  0  0  0  0  0  0  0  0  0
   12.7477  -20.2490   22.1963 C   0  0  0  0  0  0  0  0  0  0  0  0
   11.9797  -19.0368   22.2737 C   0  0  0  0  0  0  0  0  0  0  0  0
   11.3163  -19.0003   23.6442 C   0  0  0  0  0  0  0  0  0  0  0  0
   11.4395  -17.6566   24.2787 C   0  0  2  0  0  0  0  0  0  0  0  0
   10.1211  -16.9404   24.4581 N   0  0  0  0  0  0  0  0  0  0  0  0
    9.7592  -16.2414   23.2259 C   0  0  0  0  0  0  0  0  0  0  0  0
   10.2709  -15.9454   25.5434 O   0  0  0  0  0  0  0  0  0  0  0  0
   11.0171  -14.9442   25.3960 C   0  0  0  0  0  0  0  0  0  0  0  0
   14.2802  -18.3343   22.9695 S   0  0  0  0  0  0  0  0  0  0  0  0
    5.9430  -12.0927   26.0842 C   0  0  0  0  0  0  0  0  0  0  0  0
    6.9224  -12.2368   27.6014 C   0  0  0  0  0  0  0  0  0  0  0  0
    8.4977  -13.1221   27.1894 C   0  0  1  0  0  0  0  0  0  0  0  0
    8.6830  -14.2556   28.1483 N   0  0  0  0  0  0  0  0  0  0  0  0
    9.8707  -15.0791   27.8243 C   0  0  0  0  0  0  0  0  0  0  0  0
    9.5975  -16.0574   26.7854 O   0  0  0  0  0  0  0  0  0  0  0  0
   10.3507  -15.8204   28.9875 O   0  0  0  0  0  0  0  0  0  0  0  0
  2  3  2  0
  2  1  1  0
  4  2  1  0
  5  4  1  0
  6  5  1  0
  7  6  1  0
  8 10  1  0
  8  9  1  6
  8  7  1  0
 10 11  2  0
 13 12  1  0
 14 13  2  0
 15 16  1  0
 15 13  1  0
 17 18  1  0
 17 16  1  0
 19 18  1  6
 19 21  1  0
 20 19  1  0
 20 10  1  0
 21 22  2  0
 21 28  1  0
 23 24  1  0
 24 25  1  0
 25 26  1  0
 27 26  1  1
 27 29  1  0
 28 27  1  0
 29 31  2  0
 29 30  1  0
M  END
$$$$
