RRM.pdb
     RDKit          3D

 31 30  0  0  1  0  0  0  0  0999 V2000
    8.9215  -13.2957   20.9541 N   0  0  0  0  0  0  0  0  0  0  0  0
    8.8784  -13.0647   19.5546 C   0  0  0  0  0  0  0  0  0  0  0  0
    9.5731  -12.1288   18.9853 N   0  0  0  0  0  0  0  0  0  0  0  0
    8.0553  -13.8625   18.6801 N   0  0  0  0  0  0  0  0  0  0  0  0
    6.9557  -14.6501   19.2154 C   0  0  0  0  0  0  0  0  0  0  0  0
    7.5214  -15.6728   20.1649 C   0  0  0  0  0  0  0  0  0  0  0  0
    7.7182  -17.0259   19.5637 C   0  0  0  0  0  0  0  0  0  0  0  0
    6.9921  -18.1383   20.2659 C   0  0  2  0  0  0  0  0  0  0  0  0
    5.7264  -18.4414   19.6651 N   0  0  0  0  0  0  0  0  0  0  0  0
    6.8374  -17.8950   21.7152 C   0  0  0  0  0  0  0  0  0  0  0  0
    5.9281  -17.1464   22.1824 O   0  0  0  0  0  0  0  0  0  0  0  0
    9.4633  -11.9480   17.9536 N   0  0  0  0  0  0  0  0  0  0  0  0
    6.8252  -24.7931   23.1712 C   0  0  0  0  0  0  0  0  0  0  0  0
    6.5631  -23.7806   24.1296 N   0  0  0  0  0  0  0  0  0  0  0  0
    5.3729  -23.5861   24.5683 N   0  0  0  0  0  0  0  0  0  0  0  0
    7.6133  -22.9572   24.6289 C   0  0  0  0  0  0  0  0  0  0  0  0
    7.4141  -21.9446   25.6291 C   0  0  0  0  0  0  0  0  0  0  0  0
    6.8681  -20.7078   24.9277 C   0  0  0  0  0  0  0  0  0  0  0  0
    7.9043  -19.6424   24.8068 C   0  0  2  0  0  0  0  0  0  0  0  0
    7.4228  -18.3967   24.0999 N   0  0  0  0  0  0  0  0  0  0  0  0
    7.7056  -18.4922   22.6686 C   0  0  0  0  0  0  0  0  0  0  0  0
    8.1504  -17.2322   24.6522 O   0  0  0  0  0  0  0  0  0  0  0  0
    9.2437  -16.8642   24.1521 C   0  0  0  0  0  0  0  0  0  0  0  0
    5.1170  -22.8539   25.2354 S   0  0  0  0  0  0  0  0  0  0  0  0
    6.2757  -11.0118   27.7907 C   0  0  0  0  0  0  0  0  0  0  0  0
    5.6042  -12.4749   26.9601 C   0  0  0  0  0  0  0  0  0  0  0  0
    6.9887  -13.3113   26.0554 C   0  0  1  0  0  0  0  0  0  0  0  0
    7.5899  -14.3541   26.9441 N   0  0  0  0  0  0  0  0  0  0  0  0
    8.4263  -15.3193   26.1942 C   0  0  0  0  0  0  0  0  0  0  0  0
    7.6699  -16.4783   25.7518 O   0  0  0  0  0  0  0  0  0  0  0  0
    9.5338  -15.8209   27.0033 O   0  0  0  0  0  0  0  0  0  0  0  0
  2  3  2  0
  2  1  1  0
  4  2  1  0
  5  4  1  0
  6  5  1  0
  7  6  1  0
  8 10  1  0
  8  9  1  6
  8  7  1  0
 10 11  2  0
 13 12  1  0
 14 13  2  0
 15 16  1  0
 15 13  1  0
 17 18  1  0
 17 16  1  0
 19 18  1  6
 19 21  1  0
 20 19  1  0
 20 10  1  0
 21 22  2  0
 21 28  1  0
 23 24  1  0
 24 25  1  0
 25 26  1  0
 27 26  1  1
 27 29  1  0
 28 27  1  0
 29 31  2  0
 29 30  1  0
M  END
$$$$
