RRM.pdb
     RDKit          3D

 31 30  0  0  1  0  0  0  0  0999 V2000
    9.3460  -15.0743   17.5097 N   0  0  0  0  0  0  0  0  0  0  0  0
    8.6980  -13.8194   17.3710 C   0  0  0  0  0  0  0  0  0  0  0  0
    8.2959  -13.3705   16.2224 N   0  0  0  0  0  0  0  0  0  0  0  0
    8.4476  -12.9667   18.5063 N   0  0  0  0  0  0  0  0  0  0  0  0
    8.6493  -13.4600   19.8598 C   0  0  0  0  0  0  0  0  0  0  0  0
    7.3462  -14.0265   20.3584 C   0  0  0  0  0  0  0  0  0  0  0  0
    7.4467  -14.7360   21.6689 C   0  0  0  0  0  0  0  0  0  0  0  0
    8.0923  -16.0913   21.6032 C   0  0  2  0  0  0  0  0  0  0  0  0
    7.1911  -17.1148   21.1616 N   0  0  0  0  0  0  0  0  0  0  0  0
    8.7402  -16.4783   22.8737 C   0  0  0  0  0  0  0  0  0  0  0  0
    8.0789  -16.8949   23.8710 O   0  0  0  0  0  0  0  0  0  0  0  0
    7.9163  -12.3911   16.1458 N   0  0  0  0  0  0  0  0  0  0  0  0
   15.3866  -17.0664   20.5048 C   0  0  0  0  0  0  0  0  0  0  0  0
   15.3746  -16.2813   21.6862 N   0  0  0  0  0  0  0  0  0  0  0  0
   15.9611  -15.1404   21.7207 N   0  0  0  0  0  0  0  0  0  0  0  0
   14.7108  -16.7387   22.8612 C   0  0  0  0  0  0  0  0  0  0  0  0
   14.1452  -18.0539   22.9863 C   0  0  0  0  0  0  0  0  0  0  0  0
   12.6341  -17.8957   23.0911 C   0  0  0  0  0  0  0  0  0  0  0  0
   12.2562  -16.9199   24.1534 C   0  0  2  0  0  0  0  0  0  0  0  0
   10.7648  -16.7489   24.3259 N   0  0  0  0  0  0  0  0  0  0  0  0
   10.1488  -16.4042   23.0455 C   0  0  0  0  0  0  0  0  0  0  0  0
   10.5260  -15.6444   25.2817 O   0  0  0  0  0  0  0  0  0  0  0  0
   11.0468  -14.5148   25.0982 C   0  0  0  0  0  0  0  0  0  0  0  0
   15.9925  -14.5331   22.5433 S   0  0  0  0  0  0  0  0  0  0  0  0
    5.7543  -12.6460   25.3930 C   0  0  0  0  0  0  0  0  0  0  0  0
    6.9218  -12.0015   26.6191 C   0  0  0  0  0  0  0  0  0  0  0  0
    8.5061  -12.9503   26.4619 C   0  0  1  0  0  0  0  0  0  0  0  0
    8.5843  -13.9524   27.5702 N   0  0  0  0  0  0  0  0  0  0  0  0
    9.8022  -14.7910   27.4865 C   0  0  0  0  0  0  0  0  0  0  0  0
    9.7141  -15.7890   26.4342 O   0  0  0  0  0  0  0  0  0  0  0  0
   10.0520  -15.5109   28.7323 O   0  0  0  0  0  0  0  0  0  0  0  0
  2  3  2  0
  2  1  1  0
  4  2  1  0
  5  4  1  0
  6  5  1  0
  7  6  1  0
  8 10  1  0
  8  9  1  1
  8  7  1  0
 10 11  2  0
 13 12  1  0
 14 13  2  0
 15 16  1  0
 15 13  1  0
 17 18  1  0
 17 16  1  0
 19 18  1  6
 19 21  1  0
 20 19  1  0
 20 10  1  0
 21 22  2  0
 21 28  1  0
 23 24  1  0
 24 25  1  0
 25 26  1  0
 27 26  1  1
 27 29  1  0
 28 27  1  0
 29 31  2  0
 29 30  1  0
M  END
$$$$
