NLR.pdb
     RDKit          3D

 28 27  0  0  1  0  0  0  0  0999 V2000
   11.6017  -19.1847   15.6122 N   0  0  0  0  0  0  0  0  0  0  0  0
   10.9870  -17.9175   15.5882 C   0  0  0  0  0  0  0  0  0  0  0  0
   10.3841  -17.5270   14.5495 O   0  0  0  0  0  0  0  0  0  0  0  0
   11.0216  -17.0077   16.7582 C   0  0  0  0  0  0  0  0  0  0  0  0
   10.2560  -17.5787   17.9214 C   0  0  2  0  0  0  0  0  0  0  0  0
    8.8720  -17.7131   17.5610 N   0  0  0  0  0  0  0  0  0  0  0  0
   10.3521  -16.6741   19.0865 C   0  0  0  0  0  0  0  0  0  0  0  0
   11.4655  -16.3472   19.6066 O   0  0  0  0  0  0  0  0  0  0  0  0
    8.6249  -12.7177   19.4060 C   0  0  0  0  0  0  0  0  0  0  0  0
    7.5572  -13.7614   19.7607 C   0  0  2  0  0  0  0  0  0  0  0  0
    6.2396  -13.0879   19.7810 C   0  0  0  0  0  0  0  0  0  0  0  0
    8.0038  -14.4276   21.0078 C   0  0  0  0  0  0  0  0  0  0  0  0
    9.2210  -15.2991   20.8695 C   0  0  2  0  0  0  0  0  0  0  0  0
    9.1949  -16.1153   19.6945 N   0  0  0  0  0  0  0  0  0  0  0  0
    9.5067  -16.0357   22.1210 C   0  0  0  0  0  0  0  0  0  0  0  0
    8.5647  -16.7023   22.6294 O   0  0  0  0  0  0  0  0  0  0  0  0
   14.9986  -21.4684   21.6117 N   0  0  0  0  0  0  0  0  0  0  0  0
   13.6815  -21.4915   21.0420 C   0  0  0  0  0  0  0  0  0  0  0  0
   13.3449  -22.3629   20.1568 N   0  0  0  0  0  0  0  0  0  0  0  0
   12.6913  -20.5403   21.4414 N   0  0  0  0  0  0  0  0  0  0  0  0
   13.0073  -19.5884   22.4858 C   0  0  0  0  0  0  0  0  0  0  0  0
   11.7835  -18.6949   22.6710 C   0  0  0  0  0  0  0  0  0  0  0  0
   12.1110  -17.7516   23.7934 C   0  0  0  0  0  0  0  0  0  0  0  0
   10.9452  -16.8141   24.0168 C   0  0  2  0  0  0  0  0  0  0  0  0
   10.7543  -16.0363   22.7660 N   0  0  0  0  0  0  0  0  0  0  0  0
   11.2103  -15.8103   25.0666 C   0  0  0  0  0  0  0  0  0  0  0  0
   11.4975  -14.5913   24.8061 O   0  0  0  0  0  0  0  0  0  0  0  0
   11.1593  -16.1363   26.4106 O   0  0  0  0  0  0  0  0  0  0  0  0
  1  2  1  0
  2  4  1  0
  3  2  2  0
  4  5  1  0
  5  6  1  6
  7  5  1  0
  8  7  2  0
 10  9  1  1
 10 12  1  0
 11 10  1  0
 13 12  1  1
 13 14  1  0
 14  7  1  0
 15 25  1  0
 15 13  1  0
 16 15  2  0
 18 17  1  0
 18 19  2  0
 20 18  1  0
 21 20  1  0
 22 21  1  0
 23 22  1  0
 24 23  1  6
 24 25  1  0
 26 28  1  0
 26 24  1  0
 27 26  2  0
M  END
$$$$
