NLR.pdb
     RDKit          3D

 28 27  0  0  1  0  0  0  0  0999 V2000
    7.7344  -17.5966   19.6173 N   0  0  0  0  0  0  0  0  0  0  0  0
    7.7663  -16.1896   19.5574 C   0  0  0  0  0  0  0  0  0  0  0  0
    7.4321  -15.5945   18.4948 O   0  0  0  0  0  0  0  0  0  0  0  0
    8.1852  -15.3653   20.7162 C   0  0  0  0  0  0  0  0  0  0  0  0
    8.5550  -16.2234   21.8961 C   0  0  2  0  0  0  0  0  0  0  0  0
    7.3946  -16.9406   22.3460 N   0  0  0  0  0  0  0  0  0  0  0  0
    9.0443  -15.3783   23.0058 C   0  0  0  0  0  0  0  0  0  0  0  0
   10.1956  -14.8386   22.9961 O   0  0  0  0  0  0  0  0  0  0  0  0
    7.4002  -11.8278   25.1365 C   0  0  0  0  0  0  0  0  0  0  0  0
    6.6592  -13.1062   25.5509 C   0  0  2  0  0  0  0  0  0  0  0  0
    5.4528  -12.7158   26.3140 C   0  0  0  0  0  0  0  0  0  0  0  0
    7.6482  -13.9752   26.2331 C   0  0  0  0  0  0  0  0  0  0  0  0
    8.7410  -14.5168   25.3542 C   0  0  2  0  0  0  0  0  0  0  0  0
    8.2474  -15.1205   24.1545 N   0  0  0  0  0  0  0  0  0  0  0  0
    9.6866  -15.3593   26.1199 C   0  0  0  0  0  0  0  0  0  0  0  0
    9.6586  -15.2666   27.3772 O   0  0  0  0  0  0  0  0  0  0  0  0
    9.2690  -21.6633   30.5568 N   0  0  0  0  0  0  0  0  0  0  0  0
   10.5891  -21.1669   30.8225 C   0  0  0  0  0  0  0  0  0  0  0  0
   11.1934  -21.4177   31.9308 N   0  0  0  0  0  0  0  0  0  0  0  0
   11.2830  -20.3710   29.8583 N   0  0  0  0  0  0  0  0  0  0  0  0
   10.5824  -19.9323   28.6693 C   0  0  0  0  0  0  0  0  0  0  0  0
   11.5170  -18.9915   27.9130 C   0  0  0  0  0  0  0  0  0  0  0  0
   10.6385  -18.0327   27.1609 C   0  0  0  0  0  0  0  0  0  0  0  0
   11.5029  -17.0618   26.3875 C   0  0  2  0  0  0  0  0  0  0  0  0
   10.6015  -16.2482   25.5322 N   0  0  0  0  0  0  0  0  0  0  0  0
   12.4271  -17.7358   25.4539 C   0  0  0  0  0  0  0  0  0  0  0  0
   13.6921  -17.7801   25.6387 O   0  0  0  0  0  0  0  0  0  0  0  0
   11.9693  -18.3687   24.3115 O   0  0  0  0  0  0  0  0  0  0  0  0
  1  2  1  0
  2  4  1  0
  3  2  2  0
  4  5  1  0
  5  6  1  1
  7  5  1  0
  8  7  2  0
 10  9  1  1
 10 12  1  0
 11 10  1  0
 13 12  1  1
 13 14  1  0
 14  7  1  0
 15 25  1  0
 15 13  1  0
 16 15  2  0
 18 17  1  0
 18 19  2  0
 20 18  1  0
 21 20  1  0
 22 21  1  0
 23 22  1  0
 24 23  1  6
 24 25  1  0
 26 28  1  0
 26 24  1  0
 27 26  2  0
M  END
$$$$
