NLR.pdb
     RDKit          3D

 28 27  0  0  1  0  0  0  0  0999 V2000
   12.8382  -19.6375   14.9831 N   0  0  0  0  0  0  0  0  0  0  0  0
   11.6743  -18.8652   15.1645 C   0  0  0  0  0  0  0  0  0  0  0  0
   10.6757  -19.0404   14.4116 O   0  0  0  0  0  0  0  0  0  0  0  0
   11.5753  -17.8347   16.2257 C   0  0  0  0  0  0  0  0  0  0  0  0
   10.6747  -18.2833   17.3451 C   0  0  2  0  0  0  0  0  0  0  0  0
    9.3678  -18.5669   16.8207 N   0  0  0  0  0  0  0  0  0  0  0  0
   10.5522  -17.2142   18.3585 C   0  0  0  0  0  0  0  0  0  0  0  0
   11.5551  -16.7566   18.9923 O   0  0  0  0  0  0  0  0  0  0  0  0
    6.2094  -13.2434   20.3109 C   0  0  0  0  0  0  0  0  0  0  0  0
    7.6656  -13.7093   20.4441 C   0  0  2  0  0  0  0  0  0  0  0  0
    8.5467  -12.5351   20.2569 C   0  0  0  0  0  0  0  0  0  0  0  0
    7.8396  -14.8501   19.5130 C   0  0  0  0  0  0  0  0  0  0  0  0
    9.1089  -15.6358   19.6907 C   0  0  2  0  0  0  0  0  0  0  0  0
    9.2954  -16.6341   18.6827 N   0  0  0  0  0  0  0  0  0  0  0  0
    9.2511  -16.1316   21.0779 C   0  0  0  0  0  0  0  0  0  0  0  0
    8.3674  -16.9238   21.5040 O   0  0  0  0  0  0  0  0  0  0  0  0
   14.9820  -22.0385   22.1397 N   0  0  0  0  0  0  0  0  0  0  0  0
   15.0408  -20.6434   22.4715 C   0  0  0  0  0  0  0  0  0  0  0  0
   16.1109  -19.9519   22.2906 N   0  0  0  0  0  0  0  0  0  0  0  0
   13.9043  -19.9694   23.0182 N   0  0  0  0  0  0  0  0  0  0  0  0
   14.0064  -18.5615   23.3412 C   0  0  0  0  0  0  0  0  0  0  0  0
   12.6173  -18.0914   23.7656 C   0  0  0  0  0  0  0  0  0  0  0  0
   12.1231  -17.1847   22.6745 C   0  0  0  0  0  0  0  0  0  0  0  0
   10.7304  -16.7028   23.0155 C   0  0  2  0  0  0  0  0  0  0  0  0
   10.3043  -15.7757   21.9363 N   0  0  0  0  0  0  0  0  0  0  0  0
   10.6883  -15.9052   24.2573 C   0  0  0  0  0  0  0  0  0  0  0  0
   10.5143  -14.6379   24.2640 O   0  0  0  0  0  0  0  0  0  0  0  0
   10.8340  -16.4932   25.5016 O   0  0  0  0  0  0  0  0  0  0  0  0
  1  2  1  0
  2  4  1  0
  3  2  2  0
  4  5  1  0
  5  6  1  6
  7  5  1  0
  8  7  2  0
 10  9  1  6
 10 12  1  0
 11 10  1  0
 13 12  1  1
 13 14  1  0
 14  7  1  0
 15 25  1  0
 15 13  1  0
 16 15  2  0
 18 17  1  0
 18 19  2  0
 20 18  1  0
 21 20  1  0
 22 21  1  0
 23 22  1  0
 24 23  1  6
 24 25  1  0
 26 28  1  0
 26 24  1  0
 27 26  2  0
M  END
$$$$
