NLR.pdb
     RDKit          3D

 28 27  0  0  1  0  0  0  0  0999 V2000
    3.4865  -18.7332   21.0777 N   0  0  0  0  0  0  0  0  0  0  0  0
    4.1523  -18.2941   22.2388 C   0  0  0  0  0  0  0  0  0  0  0  0
    4.2245  -19.0480   23.2494 O   0  0  0  0  0  0  0  0  0  0  0  0
    4.7835  -16.9552   22.3210 C   0  0  0  0  0  0  0  0  0  0  0  0
    6.2846  -17.0565   22.3595 C   0  0  2  0  0  0  0  0  0  0  0  0
    6.6639  -18.2409   23.0783 N   0  0  0  0  0  0  0  0  0  0  0  0
    6.8557  -15.8829   23.0535 C   0  0  0  0  0  0  0  0  0  0  0  0
    6.2659  -14.7569   23.0881 O   0  0  0  0  0  0  0  0  0  0  0  0
    7.7414  -12.2292   24.5133 C   0  0  0  0  0  0  0  0  0  0  0  0
    6.8014  -13.2701   25.1362 C   0  0  2  0  0  0  0  0  0  0  0  0
    5.9817  -12.5959   26.1675 C   0  0  0  0  0  0  0  0  0  0  0  0
    7.6467  -14.4082   25.5709 C   0  0  0  0  0  0  0  0  0  0  0  0
    8.6316  -14.9034   24.5488 C   0  0  2  0  0  0  0  0  0  0  0  0
    8.1065  -15.9497   23.7259 N   0  0  0  0  0  0  0  0  0  0  0  0
    9.9444  -15.2062   25.1615 C   0  0  0  0  0  0  0  0  0  0  0  0
   10.3174  -14.4794   26.1221 O   0  0  0  0  0  0  0  0  0  0  0  0
   11.6793  -20.4223   29.8050 N   0  0  0  0  0  0  0  0  0  0  0  0
   10.2543  -20.5903   29.7723 C   0  0  0  0  0  0  0  0  0  0  0  0
    9.5437  -20.5314   30.8437 N   0  0  0  0  0  0  0  0  0  0  0  0
    9.5706  -20.8304   28.5396 N   0  0  0  0  0  0  0  0  0  0  0  0
    9.1799  -19.7039   27.7179 C   0  0  0  0  0  0  0  0  0  0  0  0
   10.4608  -19.0470   27.2096 C   0  0  0  0  0  0  0  0  0  0  0  0
   10.0341  -17.9212   26.3112 C   0  0  0  0  0  0  0  0  0  0  0  0
   11.2590  -17.2641   25.7146 C   0  0  2  0  0  0  0  0  0  0  0  0
   10.7877  -16.2472   24.7400 N   0  0  0  0  0  0  0  0  0  0  0  0
   12.0888  -18.2022   24.9326 C   0  0  0  0  0  0  0  0  0  0  0  0
   11.9343  -18.3855   23.6761 O   0  0  0  0  0  0  0  0  0  0  0  0
   13.0965  -18.9441   25.5236 O   0  0  0  0  0  0  0  0  0  0  0  0
  1  2  1  0
  2  4  1  0
  3  2  2  0
  4  5  1  0
  5  6  1  1
  7  5  1  0
  8  7  2  0
 10  9  1  1
 10 12  1  0
 11 10  1  0
 13 12  1  1
 13 14  1  0
 14  7  1  0
 15 25  1  0
 15 13  1  0
 16 15  2  0
 18 17  1  0
 18 19  2  0
 20 18  1  0
 21 20  1  0
 22 21  1  0
 23 22  1  0
 24 23  1  6
 24 25  1  0
 26 28  1  0
 26 24  1  0
 27 26  2  0
M  END
$$$$
