NLR.pdb
     RDKit          3D

 28 27  0  0  1  0  0  0  0  0999 V2000
   11.1308  -22.2939   19.8642 N   0  0  0  0  0  0  0  0  0  0  0  0
    9.9336  -21.5685   19.7071 C   0  0  0  0  0  0  0  0  0  0  0  0
    8.9649  -22.0765   19.0759 O   0  0  0  0  0  0  0  0  0  0  0  0
    9.7643  -20.2055   20.2653 C   0  0  0  0  0  0  0  0  0  0  0  0
    9.5357  -19.1906   19.1777 C   0  0  2  0  0  0  0  0  0  0  0  0
   10.4974  -19.3905   18.1296 N   0  0  0  0  0  0  0  0  0  0  0  0
    9.7035  -17.8236   19.7145 C   0  0  0  0  0  0  0  0  0  0  0  0
   10.8468  -17.2969   19.8949 O   0  0  0  0  0  0  0  0  0  0  0  0
    6.0644  -12.9905   21.1160 C   0  0  0  0  0  0  0  0  0  0  0  0
    7.4982  -13.5362   21.0757 C   0  0  2  0  0  0  0  0  0  0  0  0
    8.3365  -12.5807   20.3179 C   0  0  0  0  0  0  0  0  0  0  0  0
    7.4157  -14.9265   20.5668 C   0  0  0  0  0  0  0  0  0  0  0  0
    8.6878  -15.7218   20.6632 C   0  0  2  0  0  0  0  0  0  0  0  0
    8.5862  -17.0161   20.0614 N   0  0  0  0  0  0  0  0  0  0  0  0
    9.2212  -15.7281   22.0437 C   0  0  0  0  0  0  0  0  0  0  0  0
    9.3965  -14.6115   22.6027 O   0  0  0  0  0  0  0  0  0  0  0  0
    7.2882  -22.2679   26.7212 N   0  0  0  0  0  0  0  0  0  0  0  0
    6.5664  -21.0683   27.0369 C   0  0  0  0  0  0  0  0  0  0  0  0
    5.4493  -21.1017   27.6750 N   0  0  0  0  0  0  0  0  0  0  0  0
    7.0673  -19.7859   26.6505 N   0  0  0  0  0  0  0  0  0  0  0  0
    8.3096  -19.7069   25.9105 C   0  0  0  0  0  0  0  0  0  0  0  0
    8.5466  -18.2361   25.5774 C   0  0  0  0  0  0  0  0  0  0  0  0
    9.8222  -18.1792   24.7861 C   0  0  0  0  0  0  0  0  0  0  0  0
    9.9730  -16.8030   24.1764 C   0  0  2  0  0  0  0  0  0  0  0  0
    9.5371  -16.8945   22.7595 N   0  0  0  0  0  0  0  0  0  0  0  0
   11.3772  -16.3493   24.1265 C   0  0  0  0  0  0  0  0  0  0  0  0
   11.9035  -15.6164   25.0332 O   0  0  0  0  0  0  0  0  0  0  0  0
   12.2151  -16.6990   23.0821 O   0  0  0  0  0  0  0  0  0  0  0  0
  1  2  1  0
  2  4  1  0
  3  2  2  0
  4  5  1  0
  5  6  1  6
  7  5  1  0
  8  7  2  0
 10  9  1  6
 10 12  1  0
 11 10  1  0
 13 12  1  1
 13 14  1  0
 14  7  1  0
 15 25  1  0
 15 13  1  0
 16 15  2  0
 18 17  1  0
 18 19  2  0
 20 18  1  0
 21 20  1  0
 22 21  1  0
 23 22  1  0
 24 23  1  6
 24 25  1  0
 26 28  1  0
 26 24  1  0
 27 26  2  0
M  END
$$$$
