NLR.pdb
     RDKit          3D

 28 27  0  0  1  0  0  0  0  0999 V2000
    6.5989  -14.9268   18.3926 N   0  0  0  0  0  0  0  0  0  0  0  0
    7.3178  -13.7577   18.7096 C   0  0  0  0  0  0  0  0  0  0  0  0
    7.4941  -12.8666   17.8323 O   0  0  0  0  0  0  0  0  0  0  0  0
    7.8863  -13.5294   20.0597 C   0  0  0  0  0  0  0  0  0  0  0  0
    7.7483  -14.7509   20.9280 C   0  0  2  0  0  0  0  0  0  0  0  0
    6.3553  -15.0348   21.1333 N   0  0  0  0  0  0  0  0  0  0  0  0
    8.3780  -14.5128   22.2440 C   0  0  0  0  0  0  0  0  0  0  0  0
    9.6193  -14.2687   22.3724 O   0  0  0  0  0  0  0  0  0  0  0  0
    7.9337  -11.8265   26.0016 C   0  0  0  0  0  0  0  0  0  0  0  0
    6.7347  -12.7470   25.7364 C   0  0  2  0  0  0  0  0  0  0  0  0
    5.6367  -12.3513   26.6462 C   0  0  0  0  0  0  0  0  0  0  0  0
    7.2325  -14.1406   25.8309 C   0  0  0  0  0  0  0  0  0  0  0  0
    8.2018  -14.5501   24.7573 C   0  0  2  0  0  0  0  0  0  0  0  0
    7.6235  -14.5441   23.4485 N   0  0  0  0  0  0  0  0  0  0  0  0
    8.9058  -15.8032   25.1104 C   0  0  0  0  0  0  0  0  0  0  0  0
    8.2026  -16.7703   25.5107 O   0  0  0  0  0  0  0  0  0  0  0  0
   13.4840  -14.8224   20.4573 N   0  0  0  0  0  0  0  0  0  0  0  0
   14.1609  -15.1783   21.6716 C   0  0  0  0  0  0  0  0  0  0  0  0
   15.2857  -14.6447   21.9979 N   0  0  0  0  0  0  0  0  0  0  0  0
   13.6050  -16.1449   22.5668 N   0  0  0  0  0  0  0  0  0  0  0  0
   12.2254  -16.5516   22.3986 C   0  0  0  0  0  0  0  0  0  0  0  0
   12.0102  -17.7936   23.2599 C   0  0  0  0  0  0  0  0  0  0  0  0
   12.2404  -17.3699   24.6827 C   0  0  0  0  0  0  0  0  0  0  0  0
   10.9114  -17.2742   25.3986 C   0  0  2  0  0  0  0  0  0  0  0  0
   10.2971  -15.9750   25.0234 N   0  0  0  0  0  0  0  0  0  0  0  0
   11.0537  -17.2314   26.8676 C   0  0  0  0  0  0  0  0  0  0  0  0
   11.0156  -16.1427   27.5382 O   0  0  0  0  0  0  0  0  0  0  0  0
   11.2362  -18.3837   27.6120 O   0  0  0  0  0  0  0  0  0  0  0  0
  1  2  1  0
  2  4  1  0
  3  2  2  0
  4  5  1  0
  5  6  1  1
  7  5  1  0
  8  7  2  0
 10  9  1  1
 10 12  1  0
 11 10  1  0
 13 12  1  1
 13 14  1  0
 14  7  1  0
 15 25  1  0
 15 13  1  0
 16 15  2  0
 18 17  1  0
 18 19  2  0
 20 18  1  0
 21 20  1  0
 22 21  1  0
 23 22  1  0
 24 23  1  6
 24 25  1  0
 26 28  1  0
 26 24  1  0
 27 26  2  0
M  END
$$$$
