NLR.pdb
     RDKit          3D

 28 27  0  0  1  0  0  0  0  0999 V2000
   11.2304  -19.4659   17.8731 N   0  0  0  0  0  0  0  0  0  0  0  0
   11.6637  -18.1372   17.6970 C   0  0  0  0  0  0  0  0  0  0  0  0
   12.3908  -17.8350   16.7097 O   0  0  0  0  0  0  0  0  0  0  0  0
   11.2914  -17.0595   18.6446 C   0  0  0  0  0  0  0  0  0  0  0  0
   10.5555  -17.6069   19.8379 C   0  0  2  0  0  0  0  0  0  0  0  0
    9.2768  -18.1101   19.4196 N   0  0  0  0  0  0  0  0  0  0  0  0
   10.3362  -16.5374   20.8344 C   0  0  0  0  0  0  0  0  0  0  0  0
   11.2337  -16.1812   21.6619 O   0  0  0  0  0  0  0  0  0  0  0  0
    8.8340  -12.6682   19.7083 C   0  0  0  0  0  0  0  0  0  0  0  0
    7.6684  -13.6144   20.0259 C   0  0  2  0  0  0  0  0  0  0  0  0
    6.4250  -13.0124   19.4952 C   0  0  0  0  0  0  0  0  0  0  0  0
    7.7255  -13.8948   21.4808 C   0  0  0  0  0  0  0  0  0  0  0  0
    8.8066  -14.8477   21.9089 C   0  0  2  0  0  0  0  0  0  0  0  0
    9.0992  -15.8425   20.9228 N   0  0  0  0  0  0  0  0  0  0  0  0
    8.5518  -15.3848   23.2643 C   0  0  0  0  0  0  0  0  0  0  0  0
    8.3752  -14.5517   24.1943 O   0  0  0  0  0  0  0  0  0  0  0  0
    5.6878  -23.1159   26.4537 N   0  0  0  0  0  0  0  0  0  0  0  0
    6.1202  -22.3679   27.5996 C   0  0  0  0  0  0  0  0  0  0  0  0
    6.0347  -22.8487   28.7903 N   0  0  0  0  0  0  0  0  0  0  0  0
    6.6648  -21.0535   27.4565 N   0  0  0  0  0  0  0  0  0  0  0  0
    6.7183  -20.4508   26.1409 C   0  0  0  0  0  0  0  0  0  0  0  0
    7.4682  -19.1281   26.2778 C   0  0  0  0  0  0  0  0  0  0  0  0
    7.5672  -18.5499   24.8948 C   0  0  0  0  0  0  0  0  0  0  0  0
    8.2381  -17.1959   24.9644 C   0  0  2  0  0  0  0  0  0  0  0  0
    8.4938  -16.7545   23.5695 N   0  0  0  0  0  0  0  0  0  0  0  0
    9.5653  -17.2467   25.6095 C   0  0  0  0  0  0  0  0  0  0  0  0
   10.6498  -17.4256   24.9552 O   0  0  0  0  0  0  0  0  0  0  0  0
    9.7122  -17.0986   26.9776 O   0  0  0  0  0  0  0  0  0  0  0  0
  1  2  1  0
  2  4  1  0
  3  2  2  0
  4  5  1  0
  5  6  1  6
  7  5  1  0
  8  7  2  0
 10  9  1  1
 10 12  1  0
 11 10  1  0
 13 12  1  6
 13 14  1  0
 14  7  1  0
 15 25  1  0
 15 13  1  0
 16 15  2  0
 18 17  1  0
 18 19  2  0
 20 18  1  0
 21 20  1  0
 22 21  1  0
 23 22  1  0
 24 23  1  6
 24 25  1  0
 26 28  1  0
 26 24  1  0
 27 26  2  0
M  END
$$$$
