NLR.pdb
     RDKit          3D

 28 27  0  0  1  0  0  0  0  0999 V2000
    8.5313  -18.7183   14.4705 N   0  0  0  0  0  0  0  0  0  0  0  0
    9.5043  -17.7002   14.4407 C   0  0  0  0  0  0  0  0  0  0  0  0
   10.1434  -17.4675   13.3767 O   0  0  0  0  0  0  0  0  0  0  0  0
    9.8125  -16.8760   15.6339 C   0  0  0  0  0  0  0  0  0  0  0  0
    9.0680  -17.3650   16.8470 C   0  0  2  0  0  0  0  0  0  0  0  0
    7.6789  -17.0203   16.7246 N   0  0  0  0  0  0  0  0  0  0  0  0
    9.6052  -16.7239   18.0658 C   0  0  0  0  0  0  0  0  0  0  0  0
   10.8332  -16.7934   18.3886 O   0  0  0  0  0  0  0  0  0  0  0  0
    7.2527  -12.1985   20.8161 C   0  0  0  0  0  0  0  0  0  0  0  0
    8.3377  -13.0503   20.1436 C   0  0  2  0  0  0  0  0  0  0  0  0
    8.1683  -12.9434   18.6773 C   0  0  0  0  0  0  0  0  0  0  0  0
    8.2568  -14.4035   20.7444 C   0  0  0  0  0  0  0  0  0  0  0  0
    9.2183  -15.4136   20.1830 C   0  0  2  0  0  0  0  0  0  0  0  0
    8.7711  -15.9883   18.9512 N   0  0  0  0  0  0  0  0  0  0  0  0
    9.6282  -16.4008   21.2066 C   0  0  0  0  0  0  0  0  0  0  0  0
    8.8340  -17.3501   21.4475 O   0  0  0  0  0  0  0  0  0  0  0  0
   17.1537  -19.4331   23.8081 N   0  0  0  0  0  0  0  0  0  0  0  0
   16.2787  -20.5379   24.0790 C   0  0  0  0  0  0  0  0  0  0  0  0
   16.6916  -21.5901   24.6943 N   0  0  0  0  0  0  0  0  0  0  0  0
   14.9083  -20.5072   23.6714 N   0  0  0  0  0  0  0  0  0  0  0  0
   14.4520  -19.4371   22.8092 C   0  0  0  0  0  0  0  0  0  0  0  0
   13.0862  -18.9902   23.3244 C   0  0  0  0  0  0  0  0  0  0  0  0
   12.5924  -17.9426   22.3677 C   0  0  0  0  0  0  0  0  0  0  0  0
   11.2306  -17.4581   22.8139 C   0  0  2  0  0  0  0  0  0  0  0  0
   10.8395  -16.3422   21.9152 N   0  0  0  0  0  0  0  0  0  0  0  0
   11.2449  -16.8810   24.1729 C   0  0  0  0  0  0  0  0  0  0  0  0
   11.2160  -15.6213   24.3935 O   0  0  0  0  0  0  0  0  0  0  0  0
   11.2882  -17.6825   25.3002 O   0  0  0  0  0  0  0  0  0  0  0  0
  1  2  1  0
  2  4  1  0
  3  2  2  0
  4  5  1  0
  5  6  1  6
  7  5  1  0
  8  7  2  0
 10  9  1  1
 10 12  1  0
 11 10  1  0
 13 12  1  1
 13 14  1  0
 14  7  1  0
 15 25  1  0
 15 13  1  0
 16 15  2  0
 18 17  1  0
 18 19  2  0
 20 18  1  0
 21 20  1  0
 22 21  1  0
 23 22  1  0
 24 23  1  6
 24 25  1  0
 26 28  1  0
 26 24  1  0
 27 26  2  0
M  END
$$$$
