NLR.pdb
     RDKit          3D

 28 27  0  0  1  0  0  0  0  0999 V2000
    7.7828  -17.0673   18.2820 N   0  0  0  0  0  0  0  0  0  0  0  0
    8.2568  -15.7437   18.3683 C   0  0  0  0  0  0  0  0  0  0  0  0
    8.4386  -15.0676   17.3172 O   0  0  0  0  0  0  0  0  0  0  0  0
    8.5561  -15.1020   19.6708 C   0  0  0  0  0  0  0  0  0  0  0  0
    8.2813  -16.0350   20.8192 C   0  0  2  0  0  0  0  0  0  0  0  0
    6.8693  -16.2852   20.9025 N   0  0  0  0  0  0  0  0  0  0  0  0
    8.7255  -15.4226   22.0892 C   0  0  0  0  0  0  0  0  0  0  0  0
    9.9252  -15.5035   22.5029 O   0  0  0  0  0  0  0  0  0  0  0  0
    6.0101  -12.4189   26.7961 C   0  0  0  0  0  0  0  0  0  0  0  0
    7.2993  -13.0955   26.3112 C   0  0  2  0  0  0  0  0  0  0  0  0
    8.4418  -12.2246   26.6666 C   0  0  0  0  0  0  0  0  0  0  0  0
    7.1041  -13.4160   24.8766 C   0  0  0  0  0  0  0  0  0  0  0  0
    8.0758  -14.4093   24.3028 C   0  0  2  0  0  0  0  0  0  0  0  0
    7.8277  -14.7036   22.9247 N   0  0  0  0  0  0  0  0  0  0  0  0
    8.2093  -15.6015   25.1696 C   0  0  0  0  0  0  0  0  0  0  0  0
    7.1517  -16.2141   25.4799 O   0  0  0  0  0  0  0  0  0  0  0  0
   11.5005  -19.4981   21.0819 N   0  0  0  0  0  0  0  0  0  0  0  0
   12.6775  -19.2346   21.8595 C   0  0  0  0  0  0  0  0  0  0  0  0
   13.8202  -19.0286   21.3045 N   0  0  0  0  0  0  0  0  0  0  0  0
   12.6206  -19.1918   23.2877 N   0  0  0  0  0  0  0  0  0  0  0  0
   11.3532  -19.4178   23.9508 C   0  0  0  0  0  0  0  0  0  0  0  0
   11.1212  -18.2439   24.8987 C   0  0  0  0  0  0  0  0  0  0  0  0
    9.7826  -18.4733   25.5406 C   0  0  0  0  0  0  0  0  0  0  0  0
    9.4714  -17.3253   26.4752 C   0  0  2  0  0  0  0  0  0  0  0  0
    9.4338  -16.0852   25.6587 N   0  0  0  0  0  0  0  0  0  0  0  0
   10.5298  -17.1016   27.4800 C   0  0  0  0  0  0  0  0  0  0  0  0
   11.3789  -16.1486   27.3949 O   0  0  0  0  0  0  0  0  0  0  0  0
   10.6624  -17.9207   28.5876 O   0  0  0  0  0  0  0  0  0  0  0  0
  1  2  1  0
  2  4  1  0
  3  2  2  0
  4  5  1  0
  5  6  1  1
  7  5  1  0
  8  7  2  0
 10  9  1  6
 10 12  1  0
 11 10  1  0
 13 12  1  1
 13 14  1  0
 14  7  1  0
 15 25  1  0
 15 13  1  0
 16 15  2  0
 18 17  1  0
 18 19  2  0
 20 18  1  0
 21 20  1  0
 22 21  1  0
 23 22  1  0
 24 23  1  6
 24 25  1  0
 26 28  1  0
 26 24  1  0
 27 26  2  0
M  END
$$$$
