NLR.pdb
     RDKit          3D

 28 27  0  0  1  0  0  0  0  0999 V2000
    7.6484  -15.8943   18.8357 N   0  0  0  0  0  0  0  0  0  0  0  0
    8.1672  -14.6093   19.0884 C   0  0  0  0  0  0  0  0  0  0  0  0
    8.3707  -13.8105   18.1317 O   0  0  0  0  0  0  0  0  0  0  0  0
    8.4895  -14.1504   20.4608 C   0  0  0  0  0  0  0  0  0  0  0  0
    8.2879  -15.2492   21.4693 C   0  0  2  0  0  0  0  0  0  0  0  0
    6.8949  -15.5953   21.5249 N   0  0  0  0  0  0  0  0  0  0  0  0
    8.7123  -14.7929   22.8098 C   0  0  0  0  0  0  0  0  0  0  0  0
    9.9361  -14.6803   23.1364 O   0  0  0  0  0  0  0  0  0  0  0  0
    7.8038  -11.1541   25.0416 C   0  0  0  0  0  0  0  0  0  0  0  0
    6.6316  -12.1425   25.1056 C   0  0  2  0  0  0  0  0  0  0  0  0
    5.4439  -11.4206   25.6138 C   0  0  0  0  0  0  0  0  0  0  0  0
    7.1006  -13.3173   25.8794 C   0  0  0  0  0  0  0  0  0  0  0  0
    8.1083  -14.1861   25.1796 C   0  0  2  0  0  0  0  0  0  0  0  0
    7.7673  -14.4523   23.8156 N   0  0  0  0  0  0  0  0  0  0  0  0
    8.4336  -15.3902   25.9762 C   0  0  0  0  0  0  0  0  0  0  0  0
    8.7872  -15.2151   27.1739 O   0  0  0  0  0  0  0  0  0  0  0  0
    5.6130  -22.7390   28.1889 N   0  0  0  0  0  0  0  0  0  0  0  0
    7.0156  -22.9911   28.3580 C   0  0  0  0  0  0  0  0  0  0  0  0
    7.4429  -24.0173   29.0066 N   0  0  0  0  0  0  0  0  0  0  0  0
    7.9934  -22.1045   27.8077 N   0  0  0  0  0  0  0  0  0  0  0  0
    7.5535  -20.9259   27.0906 C   0  0  0  0  0  0  0  0  0  0  0  0
    8.7875  -20.3005   26.4451 C   0  0  0  0  0  0  0  0  0  0  0  0
    8.3035  -19.1108   25.6659 C   0  0  0  0  0  0  0  0  0  0  0  0
    8.7854  -17.8430   26.3356 C   0  0  2  0  0  0  0  0  0  0  0  0
    8.3691  -16.7026   25.4800 N   0  0  0  0  0  0  0  0  0  0  0  0
   10.2575  -17.7594   26.4119 C   0  0  0  0  0  0  0  0  0  0  0  0
   10.9200  -18.0985   27.4524 O   0  0  0  0  0  0  0  0  0  0  0  0
   11.0140  -17.3055   25.3457 O   0  0  0  0  0  0  0  0  0  0  0  0
  1  2  1  0
  2  4  1  0
  3  2  2  0
  4  5  1  0
  5  6  1  1
  7  5  1  0
  8  7  2  0
 10  9  1  1
 10 12  1  0
 11 10  1  0
 13 12  1  1
 13 14  1  0
 14  7  1  0
 15 25  1  0
 15 13  1  0
 16 15  2  0
 18 17  1  0
 18 19  2  0
 20 18  1  0
 21 20  1  0
 22 21  1  0
 23 22  1  0
 24 23  1  6
 24 25  1  0
 26 28  1  0
 26 24  1  0
 27 26  2  0
M  END
$$$$
