NLR.pdb
     RDKit          3D

 28 27  0  0  1  0  0  0  0  0999 V2000
    8.0479  -12.5454   19.9145 N   0  0  0  0  0  0  0  0  0  0  0  0
    8.1594  -13.9473   19.9955 C   0  0  0  0  0  0  0  0  0  0  0  0
    7.2215  -14.6813   19.5757 O   0  0  0  0  0  0  0  0  0  0  0  0
    9.3589  -14.6062   20.5658 C   0  0  0  0  0  0  0  0  0  0  0  0
    9.0300  -15.3410   21.8374 C   0  0  2  0  0  0  0  0  0  0  0  0
    7.6329  -15.6746   21.8473 N   0  0  0  0  0  0  0  0  0  0  0  0
    9.3168  -14.4850   23.0079 C   0  0  0  0  0  0  0  0  0  0  0  0
   10.4930  -14.1001   23.2999 O   0  0  0  0  0  0  0  0  0  0  0  0
    7.4302  -11.4933   26.0627 C   0  0  0  0  0  0  0  0  0  0  0  0
    6.4053  -12.5623   25.6602 C   0  0  2  0  0  0  0  0  0  0  0  0
    5.1174  -12.2387   26.3134 C   0  0  0  0  0  0  0  0  0  0  0  0
    7.0146  -13.8793   25.9650 C   0  0  0  0  0  0  0  0  0  0  0  0
    8.3394  -14.1419   25.3049 C   0  0  2  0  0  0  0  0  0  0  0  0
    8.2842  -14.0416   23.8786 N   0  0  0  0  0  0  0  0  0  0  0  0
    8.9595  -15.3880   25.8080 C   0  0  0  0  0  0  0  0  0  0  0  0
    9.3461  -15.3998   27.0082 O   0  0  0  0  0  0  0  0  0  0  0  0
   12.2336  -21.2560   21.1872 N   0  0  0  0  0  0  0  0  0  0  0  0
   10.9421  -21.6547   21.6695 C   0  0  0  0  0  0  0  0  0  0  0  0
   10.4659  -22.8265   21.4319 N   0  0  0  0  0  0  0  0  0  0  0  0
   10.1344  -20.7574   22.4358 N   0  0  0  0  0  0  0  0  0  0  0  0
   10.4265  -19.3395   22.4006 C   0  0  0  0  0  0  0  0  0  0  0  0
   10.8391  -18.9260   23.8111 C   0  0  0  0  0  0  0  0  0  0  0  0
    9.5796  -18.8870   24.6288 C   0  0  0  0  0  0  0  0  0  0  0  0
    9.6821  -17.7804   25.6550 C   0  0  2  0  0  0  0  0  0  0  0  0
    9.1375  -16.5462   25.0336 N   0  0  0  0  0  0  0  0  0  0  0  0
   11.0781  -17.4572   26.0114 C   0  0  0  0  0  0  0  0  0  0  0  0
   11.6626  -16.3852   25.6299 O   0  0  0  0  0  0  0  0  0  0  0  0
   11.8422  -18.3072   26.7917 O   0  0  0  0  0  0  0  0  0  0  0  0
  1  2  1  0
  2  4  1  0
  3  2  2  0
  4  5  1  0
  5  6  1  6
  7  5  1  0
  8  7  2  0
 10  9  1  1
 10 12  1  0
 11 10  1  0
 13 12  1  1
 13 14  1  0
 14  7  1  0
 15 25  1  0
 15 13  1  0
 16 15  2  0
 18 17  1  0
 18 19  2  0
 20 18  1  0
 21 20  1  0
 22 21  1  0
 23 22  1  0
 24 23  1  6
 24 25  1  0
 26 28  1  0
 26 24  1  0
 27 26  2  0
M  END
$$$$
