NLR.pdb
     RDKit          3D

 28 27  0  0  1  0  0  0  0  0999 V2000
    9.5049  -16.2528   18.7137 N   0  0  0  0  0  0  0  0  0  0  0  0
    8.4892  -16.0124   19.6597 C   0  0  0  0  0  0  0  0  0  0  0  0
    7.3216  -16.4492   19.4583 O   0  0  0  0  0  0  0  0  0  0  0  0
    8.7438  -15.2515   20.9064 C   0  0  0  0  0  0  0  0  0  0  0  0
    8.5443  -16.1112   22.1255 C   0  0  2  0  0  0  0  0  0  0  0  0
    7.1394  -16.3301   22.3294 N   0  0  0  0  0  0  0  0  0  0  0  0
    9.0924  -15.4345   23.3199 C   0  0  0  0  0  0  0  0  0  0  0  0
   10.2991  -15.0391   23.3866 O   0  0  0  0  0  0  0  0  0  0  0  0
    7.8799  -11.7907   25.2023 C   0  0  0  0  0  0  0  0  0  0  0  0
    6.9684  -12.9460   25.6375 C   0  0  2  0  0  0  0  0  0  0  0  0
    5.7560  -12.3702   26.2609 C   0  0  0  0  0  0  0  0  0  0  0  0
    7.7947  -13.8586   26.4641 C   0  0  0  0  0  0  0  0  0  0  0  0
    8.8025  -14.6762   25.7053 C   0  0  2  0  0  0  0  0  0  0  0  0
    8.2934  -15.1867   24.4693 N   0  0  0  0  0  0  0  0  0  0  0  0
    9.4405  -15.6924   26.5717 C   0  0  0  0  0  0  0  0  0  0  0  0
    9.9336  -15.2970   27.6629 O   0  0  0  0  0  0  0  0  0  0  0  0
   14.9583  -20.3752   23.1761 N   0  0  0  0  0  0  0  0  0  0  0  0
   13.8298  -19.8071   22.4953 C   0  0  0  0  0  0  0  0  0  0  0  0
   13.8173  -19.6606   21.2168 N   0  0  0  0  0  0  0  0  0  0  0  0
   12.6726  -19.3813   23.2194 N   0  0  0  0  0  0  0  0  0  0  0  0
   12.8093  -19.0059   24.6113 C   0  0  0  0  0  0  0  0  0  0  0  0
   11.4109  -18.6888   25.1352 C   0  0  0  0  0  0  0  0  0  0  0  0
   11.5754  -18.2940   26.5753 C   0  0  0  0  0  0  0  0  0  0  0  0
   10.2176  -17.9957   27.1716 C   0  0  2  0  0  0  0  0  0  0  0  0
    9.5248  -17.0575   26.2521 N   0  0  0  0  0  0  0  0  0  0  0  0
   10.3027  -17.2873   28.4643 C   0  0  0  0  0  0  0  0  0  0  0  0
   10.7918  -17.8213   29.5188 O   0  0  0  0  0  0  0  0  0  0  0  0
    9.8540  -15.9861   28.6084 O   0  0  0  0  0  0  0  0  0  0  0  0
  1  2  1  0
  2  4  1  0
  3  2  2  0
  4  5  1  0
  5  6  1  1
  7  5  1  0
  8  7  2  0
 10  9  1  1
 10 12  1  0
 11 10  1  0
 13 12  1  1
 13 14  1  0
 14  7  1  0
 15 25  1  0
 15 13  1  0
 16 15  2  0
 18 17  1  0
 18 19  2  0
 20 18  1  0
 21 20  1  0
 22 21  1  0
 23 22  1  0
 24 23  1  6
 24 25  1  0
 26 28  1  0
 26 24  1  0
 27 26  2  0
M  END
$$$$
