NLR.pdb
     RDKit          3D

 28 27  0  0  1  0  0  0  0  0999 V2000
    9.5428  -12.3720   17.7941 N   0  0  0  0  0  0  0  0  0  0  0  0
    8.4233  -12.7705   18.5505 C   0  0  0  0  0  0  0  0  0  0  0  0
    7.3890  -13.2028   17.9691 O   0  0  0  0  0  0  0  0  0  0  0  0
    8.4131  -12.7003   20.0313 C   0  0  0  0  0  0  0  0  0  0  0  0
    8.3979  -14.0737   20.6467 C   0  0  2  0  0  0  0  0  0  0  0  0
    7.1085  -14.6730   20.4428 N   0  0  0  0  0  0  0  0  0  0  0  0
    8.6486  -13.9822   22.1006 C   0  0  0  0  0  0  0  0  0  0  0  0
    9.7281  -13.5095   22.5784 O   0  0  0  0  0  0  0  0  0  0  0  0
    6.9065  -12.0213   25.8284 C   0  0  0  0  0  0  0  0  0  0  0  0
    6.0200  -13.0760   25.1525 C   0  0  2  0  0  0  0  0  0  0  0  0
    4.6556  -12.9634   25.7143 C   0  0  0  0  0  0  0  0  0  0  0  0
    6.7137  -14.3785   25.2973 C   0  0  0  0  0  0  0  0  0  0  0  0
    7.9469  -14.5462   24.4540 C   0  0  2  0  0  0  0  0  0  0  0  0
    7.6882  -14.4214   23.0522 N   0  0  0  0  0  0  0  0  0  0  0  0
    8.7023  -15.7615   24.8319 C   0  0  0  0  0  0  0  0  0  0  0  0
    8.1151  -16.8707   24.7095 O   0  0  0  0  0  0  0  0  0  0  0  0
   14.7506  -14.7265   21.0799 N   0  0  0  0  0  0  0  0  0  0  0  0
   13.5520  -15.2847   20.5217 C   0  0  0  0  0  0  0  0  0  0  0  0
   13.2747  -15.1716   19.2701 N   0  0  0  0  0  0  0  0  0  0  0  0
   12.6182  -15.9905   21.3431 N   0  0  0  0  0  0  0  0  0  0  0  0
   12.8954  -16.1432   22.7562 C   0  0  0  0  0  0  0  0  0  0  0  0
   11.7224  -16.9040   23.3692 C   0  0  0  0  0  0  0  0  0  0  0  0
   12.0167  -17.0289   24.8370 C   0  0  0  0  0  0  0  0  0  0  0  0
   10.7168  -17.0280   25.6107 C   0  0  2  0  0  0  0  0  0  0  0  0
   10.0224  -15.7497   25.3115 N   0  0  0  0  0  0  0  0  0  0  0  0
   10.9206  -17.0310   27.0731 C   0  0  0  0  0  0  0  0  0  0  0  0
   10.6713  -16.0167   27.8117 O   0  0  0  0  0  0  0  0  0  0  0  0
   11.3969  -18.1483   27.7363 O   0  0  0  0  0  0  0  0  0  0  0  0
  1  2  1  0
  2  4  1  0
  3  2  2  0
  4  5  1  0
  5  6  1  1
  7  5  1  0
  8  7  2  0
 10  9  1  1
 10 12  1  0
 11 10  1  0
 13 12  1  1
 13 14  1  0
 14  7  1  0
 15 25  1  0
 15 13  1  0
 16 15  2  0
 18 17  1  0
 18 19  2  0
 20 18  1  0
 21 20  1  0
 22 21  1  0
 23 22  1  0
 24 23  1  6
 24 25  1  0
 26 28  1  0
 26 24  1  0
 27 26  2  0
M  END
$$$$
