PVN.pdb
     RDKit          3D

 23 23  0  0  1  0  0  0  0  0999 V2000
    6.9437  -15.6636   21.5195 N   0  0  0  0  0  0  0  0  0  0  0  0
    6.9129  -15.6211   20.0464 C   0  0  0  0  0  0  0  0  0  0  0  0
    7.1109  -14.1563   19.7700 C   0  0  0  0  0  0  0  0  0  0  0  0
    8.0410  -13.6944   20.8618 C   0  0  0  0  0  0  0  0  0  0  0  0
    8.1677  -14.9107   21.7385 C   0  0  1  0  0  0  0  0  0  0  0  0
    8.4819  -14.6421   23.1368 C   0  0  0  0  0  0  0  0  0  0  0  0
    9.6770  -14.3814   23.4223 O   0  0  0  0  0  0  0  0  0  0  0  0
    7.5703  -12.9918   27.6111 C   0  0  0  0  0  0  0  0  0  0  0  0
    6.9509  -13.5300   26.3153 C   0  0  1  0  0  0  0  0  0  0  0  0
    6.4968  -12.2844   25.5598 C   0  0  0  0  0  0  0  0  0  0  0  0
    7.9945  -14.2781   25.5130 C   0  0  2  0  0  0  0  0  0  0  0  0
    7.5524  -14.6514   24.2069 N   0  0  0  0  0  0  0  0  0  0  0  0
    8.4974  -15.4689   26.2206 C   0  0  0  0  0  0  0  0  0  0  0  0
    7.7448  -16.4342   26.5071 O   0  0  0  0  0  0  0  0  0  0  0  0
   12.2340  -16.5366   24.1625 N   0  0  0  0  0  0  0  0  0  0  0  0
   11.5188  -17.3396   25.1280 C   0  0  0  0  0  0  0  0  0  0  0  0
   10.7552  -18.1936   24.6261 O   0  0  0  0  0  0  0  0  0  0  0  0
   11.7304  -17.1060   26.5729 C   0  0  0  0  0  0  0  0  0  0  0  0
   10.4589  -16.6987   27.2539 C   0  0  2  0  0  0  0  0  0  0  0  0
    9.8509  -15.5507   26.5941 N   0  0  0  0  0  0  0  0  0  0  0  0
   10.5570  -16.5367   28.6946 C   0  0  0  0  0  0  0  0  0  0  0  0
   10.4683  -15.4502   29.2695 O   0  0  0  0  0  0  0  0  0  0  0  0
   10.7661  -17.6428   29.5588 O   0  0  0  0  0  0  0  0  0  0  0  0
  1  5  1  0
  1  2  1  0
  2  3  1  0
  4  3  1  0
  5  4  1  0
  6 12  1  0
  5  6  1  1
  7  6  2  0
  9  8  1  1
  9 11  1  0
 10  9  1  0
 11 12  1  6
 11 13  1  0
 13 14  2  0
 13 20  1  0
 16 15  1  0
 17 16  2  0
 18 16  1  0
 19 18  1  6
 19 21  1  0
 20 19  1  0
 21 23  1  0
 22 21  2  0
M  END
$$$$
