PVN.pdb
     RDKit          3D

 23 23  0  0  1  0  0  0  0  0999 V2000
    6.8260  -15.6110   21.7330 N   0  0  0  0  0  0  0  0  0  0  0  0
    6.6169  -15.5912   20.2739 C   0  0  0  0  0  0  0  0  0  0  0  0
    6.7933  -14.1333   19.9508 C   0  0  0  0  0  0  0  0  0  0  0  0
    7.8533  -13.6647   20.9138 C   0  0  0  0  0  0  0  0  0  0  0  0
    8.0743  -14.8684   21.7891 C   0  0  1  0  0  0  0  0  0  0  0  0
    8.5584  -14.5814   23.1344 C   0  0  0  0  0  0  0  0  0  0  0  0
    9.8005  -14.4856   23.2948 O   0  0  0  0  0  0  0  0  0  0  0  0
    7.3053  -11.7625   25.5325 C   0  0  0  0  0  0  0  0  0  0  0  0
    7.5369  -13.0516   26.3306 C   0  0  1  0  0  0  0  0  0  0  0  0
    6.1382  -13.6131   26.5688 C   0  0  0  0  0  0  0  0  0  0  0  0
    8.3608  -14.0258   25.5152 C   0  0  2  0  0  0  0  0  0  0  0  0
    7.7459  -14.4022   24.2819 N   0  0  0  0  0  0  0  0  0  0  0  0
    8.7137  -15.2362   26.2779 C   0  0  0  0  0  0  0  0  0  0  0  0
    7.8789  -16.1527   26.4863 O   0  0  0  0  0  0  0  0  0  0  0  0
   11.0966  -18.2966   25.0544 N   0  0  0  0  0  0  0  0  0  0  0  0
   11.8126  -17.2022   25.6693 C   0  0  0  0  0  0  0  0  0  0  0  0
   12.4195  -16.4635   24.8628 O   0  0  0  0  0  0  0  0  0  0  0  0
   11.7786  -17.0404   27.1389 C   0  0  0  0  0  0  0  0  0  0  0  0
   10.4501  -16.5240   27.6024 C   0  0  2  0  0  0  0  0  0  0  0  0
   10.0123  -15.3931   26.7948 N   0  0  0  0  0  0  0  0  0  0  0  0
   10.3521  -16.2712   29.0300 C   0  0  0  0  0  0  0  0  0  0  0  0
   10.1314  -15.1602   29.5154 O   0  0  0  0  0  0  0  0  0  0  0  0
   10.5070  -17.3091   29.9853 O   0  0  0  0  0  0  0  0  0  0  0  0
  1  5  1  0
  1  2  1  0
  2  3  1  0
  4  3  1  0
  5  4  1  0
  6 12  1  0
  5  6  1  1
  7  6  2  0
  9  8  1  6
  9 11  1  0
 10  9  1  0
 11 12  1  6
 11 13  1  0
 13 14  2  0
 13 20  1  0
 16 15  1  0
 17 16  2  0
 18 16  1  0
 19 18  1  1
 19 21  1  0
 20 19  1  0
 21 23  1  0
 22 21  2  0
M  END
$$$$
