PVN.pdb
     RDKit          3D

 23 23  0  0  1  0  0  0  0  0999 V2000
    6.8566  -14.7071   20.9224 N   0  0  0  0  0  0  0  0  0  0  0  0
    6.8194  -14.5513   19.4571 C   0  0  0  0  0  0  0  0  0  0  0  0
    7.2891  -13.1338   19.2797 C   0  0  0  0  0  0  0  0  0  0  0  0
    8.3010  -12.9372   20.3787 C   0  0  0  0  0  0  0  0  0  0  0  0
    8.2034  -14.2167   21.1644 C   0  0  1  0  0  0  0  0  0  0  0  0
    8.5770  -14.1158   22.5703 C   0  0  0  0  0  0  0  0  0  0  0  0
    9.7992  -14.1859   22.8513 O   0  0  0  0  0  0  0  0  0  0  0  0
    5.9939  -13.4039   26.0876 C   0  0  0  0  0  0  0  0  0  0  0  0
    7.3563  -12.7657   25.7894 C   0  0  1  0  0  0  0  0  0  0  0  0
    7.9912  -12.5557   27.1609 C   0  0  0  0  0  0  0  0  0  0  0  0
    8.2011  -13.7096   24.9598 C   0  0  2  0  0  0  0  0  0  0  0  0
    7.6771  -13.9467   23.6522 N   0  0  0  0  0  0  0  0  0  0  0  0
    8.4316  -14.9975   25.6379 C   0  0  0  0  0  0  0  0  0  0  0  0
    7.5029  -15.8256   25.8166 O   0  0  0  0  0  0  0  0  0  0  0  0
   11.9222  -16.5588   23.8118 N   0  0  0  0  0  0  0  0  0  0  0  0
   11.1788  -17.3956   24.7258 C   0  0  0  0  0  0  0  0  0  0  0  0
   10.4668  -18.2616   24.1714 O   0  0  0  0  0  0  0  0  0  0  0  0
   11.3066  -17.1792   26.1833 C   0  0  0  0  0  0  0  0  0  0  0  0
   10.0568  -16.5868   26.7606 C   0  0  2  0  0  0  0  0  0  0  0  0
    9.7157  -15.3313   26.1046 N   0  0  0  0  0  0  0  0  0  0  0  0
   10.0335  -16.4919   28.2104 C   0  0  0  0  0  0  0  0  0  0  0  0
   10.0670  -15.4258   28.8279 O   0  0  0  0  0  0  0  0  0  0  0  0
    9.9690  -17.6457   29.0341 O   0  0  0  0  0  0  0  0  0  0  0  0
  1  5  1  0
  1  2  1  0
  2  3  1  0
  4  3  1  0
  5  4  1  0
  6 12  1  0
  5  6  1  1
  7  6  2  0
  9  8  1  1
  9 11  1  0
 10  9  1  0
 11 12  1  6
 11 13  1  0
 13 14  2  0
 13 20  1  0
 16 15  1  0
 17 16  2  0
 18 16  1  0
 19 18  1  6
 19 21  1  0
 20 19  1  0
 21 23  1  0
 22 21  2  0
M  END
$$$$
