PVN.pdb
     RDKit          3D

 23 23  0  0  1  0  0  0  0  0999 V2000
    6.8755  -14.4526   20.6021 N   0  0  0  0  0  0  0  0  0  0  0  0
    6.9937  -14.0651   19.1848 C   0  0  0  0  0  0  0  0  0  0  0  0
    7.4371  -12.6318   19.2868 C   0  0  0  0  0  0  0  0  0  0  0  0
    8.3167  -12.6008   20.5098 C   0  0  0  0  0  0  0  0  0  0  0  0
    8.1725  -13.9906   21.0683 C   0  0  1  0  0  0  0  0  0  0  0  0
    8.3874  -14.1111   22.5055 C   0  0  0  0  0  0  0  0  0  0  0  0
    9.5719  -14.2290   22.9063 O   0  0  0  0  0  0  0  0  0  0  0  0
    7.3180  -13.1710   27.1652 C   0  0  0  0  0  0  0  0  0  0  0  0
    6.7665  -13.2995   25.7399 C   0  0  1  0  0  0  0  0  0  0  0  0
    6.6348  -11.8614   25.2472 C   0  0  0  0  0  0  0  0  0  0  0  0
    7.7443  -14.0633   24.8720 C   0  0  2  0  0  0  0  0  0  0  0  0
    7.3713  -14.1084   23.4938 N   0  0  0  0  0  0  0  0  0  0  0  0
    7.9777  -15.4329   25.3632 C   0  0  0  0  0  0  0  0  0  0  0  0
    7.0457  -16.2723   25.4476 O   0  0  0  0  0  0  0  0  0  0  0  0
   11.5701  -17.0889   23.2345 N   0  0  0  0  0  0  0  0  0  0  0  0
   11.4669  -17.2800   24.6632 C   0  0  0  0  0  0  0  0  0  0  0  0
   12.4230  -16.8098   25.3182 O   0  0  0  0  0  0  0  0  0  0  0  0
   10.2935  -17.9845   25.2235 C   0  0  0  0  0  0  0  0  0  0  0  0
    9.6034  -17.1566   26.2651 C   0  0  2  0  0  0  0  0  0  0  0  0
    9.2682  -15.8347   25.7520 N   0  0  0  0  0  0  0  0  0  0  0  0
   10.2702  -17.1101   27.5553 C   0  0  0  0  0  0  0  0  0  0  0  0
   10.7085  -16.0763   28.0632 O   0  0  0  0  0  0  0  0  0  0  0  0
   10.4669  -18.2778   28.3375 O   0  0  0  0  0  0  0  0  0  0  0  0
  1  5  1  0
  1  2  1  0
  2  3  1  0
  4  3  1  0
  5  4  1  0
  6 12  1  0
  5  6  1  1
  7  6  2  0
  9  8  1  1
  9 11  1  0
 10  9  1  0
 11 12  1  6
 11 13  1  0
 13 14  2  0
 13 20  1  0
 16 15  1  0
 17 16  2  0
 18 16  1  0
 19 18  1  6
 19 21  1  0
 20 19  1  0
 21 23  1  0
 22 21  2  0
M  END
$$$$
