PVN.pdb
     RDKit          3D

 23 23  0  0  1  0  0  0  0  0999 V2000
    6.9345  -14.6907   21.1538 N   0  0  0  0  0  0  0  0  0  0  0  0
    6.7651  -14.3662   19.7259 C   0  0  0  0  0  0  0  0  0  0  0  0
    7.0154  -12.8835   19.7087 C   0  0  0  0  0  0  0  0  0  0  0  0
    8.0696  -12.6722   20.7644 C   0  0  0  0  0  0  0  0  0  0  0  0
    8.2131  -14.0374   21.3805 C   0  0  1  0  0  0  0  0  0  0  0  0
    8.6740  -14.0525   22.7639 C   0  0  0  0  0  0  0  0  0  0  0  0
    9.9063  -13.9163   22.9654 O   0  0  0  0  0  0  0  0  0  0  0  0
    7.4097  -11.8952   25.6780 C   0  0  0  0  0  0  0  0  0  0  0  0
    7.6101  -13.3263   26.1920 C   0  0  1  0  0  0  0  0  0  0  0  0
    6.2004  -13.9029   26.2842 C   0  0  0  0  0  0  0  0  0  0  0  0
    8.4378  -14.1213   25.2043 C   0  0  2  0  0  0  0  0  0  0  0  0
    7.8491  -14.2099   23.9057 N   0  0  0  0  0  0  0  0  0  0  0  0
    8.7491  -15.4750   25.6962 C   0  0  0  0  0  0  0  0  0  0  0  0
    7.8690  -16.3695   25.7710 O   0  0  0  0  0  0  0  0  0  0  0  0
   11.0708  -18.0264   23.8657 N   0  0  0  0  0  0  0  0  0  0  0  0
   11.9708  -17.3237   24.7516 C   0  0  0  0  0  0  0  0  0  0  0  0
   12.8258  -16.6210   24.1689 O   0  0  0  0  0  0  0  0  0  0  0  0
   11.8240  -17.4776   26.2151 C   0  0  0  0  0  0  0  0  0  0  0  0
   10.4544  -17.0765   26.6733 C   0  0  2  0  0  0  0  0  0  0  0  0
   10.0579  -15.7986   26.0967 N   0  0  0  0  0  0  0  0  0  0  0  0
   10.2432  -17.1389   28.1096 C   0  0  0  0  0  0  0  0  0  0  0  0
   10.0611  -16.1478   28.8190 O   0  0  0  0  0  0  0  0  0  0  0  0
   10.2314  -18.3728   28.8105 O   0  0  0  0  0  0  0  0  0  0  0  0
  1  5  1  0
  1  2  1  0
  2  3  1  0
  4  3  1  0
  5  4  1  0
  6 12  1  0
  5  6  1  1
  7  6  2  0
  9  8  1  6
  9 11  1  0
 10  9  1  0
 11 12  1  6
 11 13  1  0
 13 14  2  0
 13 20  1  0
 16 15  1  0
 17 16  2  0
 18 16  1  0
 19 18  1  1
 19 21  1  0
 20 19  1  0
 21 23  1  0
 22 21  2  0
M  END
$$$$
