PVN.pdb
     RDKit          3D

 23 23  0  0  1  0  0  0  0  0999 V2000
    7.0804  -14.8529   20.7459 N   0  0  0  0  0  0  0  0  0  0  0  0
    7.0101  -14.5801   19.2990 C   0  0  0  0  0  0  0  0  0  0  0  0
    7.1518  -13.0838   19.2540 C   0  0  0  0  0  0  0  0  0  0  0  0
    8.0938  -12.7654   20.3862 C   0  0  0  0  0  0  0  0  0  0  0  0
    8.2837  -14.0990   21.0565 C   0  0  1  0  0  0  0  0  0  0  0  0
    8.6248  -14.0425   22.4731 C   0  0  0  0  0  0  0  0  0  0  0  0
    9.8435  -14.0001   22.7743 O   0  0  0  0  0  0  0  0  0  0  0  0
    5.9339  -13.5802   25.9330 C   0  0  0  0  0  0  0  0  0  0  0  0
    7.3187  -12.9543   25.7259 C   0  0  1  0  0  0  0  0  0  0  0  0
    7.9006  -12.8340   27.1313 C   0  0  0  0  0  0  0  0  0  0  0  0
    8.1795  -13.8677   24.8788 C   0  0  2  0  0  0  0  0  0  0  0  0
    7.6968  -14.0331   23.5445 N   0  0  0  0  0  0  0  0  0  0  0  0
    8.3718  -15.1904   25.4993 C   0  0  0  0  0  0  0  0  0  0  0  0
    7.4020  -15.9503   25.7492 O   0  0  0  0  0  0  0  0  0  0  0  0
   11.7549  -16.7849   23.5664 N   0  0  0  0  0  0  0  0  0  0  0  0
   11.0072  -17.6799   24.4199 C   0  0  0  0  0  0  0  0  0  0  0  0
   10.2829  -18.4944   23.8066 O   0  0  0  0  0  0  0  0  0  0  0  0
   11.1449  -17.5745   25.8886 C   0  0  0  0  0  0  0  0  0  0  0  0
    9.9590  -16.8939   26.5025 C   0  0  2  0  0  0  0  0  0  0  0  0
    9.6644  -15.6363   25.8282 N   0  0  0  0  0  0  0  0  0  0  0  0
   10.0051  -16.7630   27.9489 C   0  0  0  0  0  0  0  0  0  0  0  0
   10.1085  -15.6845   28.5363 O   0  0  0  0  0  0  0  0  0  0  0  0
    9.9323  -17.8929   28.8044 O   0  0  0  0  0  0  0  0  0  0  0  0
  1  5  1  0
  1  2  1  0
  2  3  1  0
  4  3  1  0
  5  4  1  0
  6 12  1  0
  5  6  1  1
  7  6  2  0
  9  8  1  1
  9 11  1  0
 10  9  1  0
 11 12  1  6
 11 13  1  0
 13 14  2  0
 13 20  1  0
 16 15  1  0
 17 16  2  0
 18 16  1  0
 19 18  1  6
 19 21  1  0
 20 19  1  0
 21 23  1  0
 22 21  2  0
M  END
$$$$
