PVN.pdb
     RDKit          3D

 23 23  0  0  1  0  0  0  0  0999 V2000
    9.2478  -18.5495   18.2782 N   0  0  0  0  0  0  0  0  0  0  0  0
    8.4951  -18.8889   17.0572 C   0  0  0  0  0  0  0  0  0  0  0  0
    7.0741  -18.6497   17.4871 C   0  0  0  0  0  0  0  0  0  0  0  0
    7.1635  -17.4786   18.4311 C   0  0  0  0  0  0  0  0  0  0  0  0
    8.6462  -17.2563   18.5585 C   0  0  1  0  0  0  0  0  0  0  0  0
    9.0792  -16.6343   19.8043 C   0  0  0  0  0  0  0  0  0  0  0  0
   10.3138  -16.4797   19.9759 O   0  0  0  0  0  0  0  0  0  0  0  0
    6.5904  -15.0697   23.0613 C   0  0  0  0  0  0  0  0  0  0  0  0
    7.8758  -14.4256   22.5273 C   0  0  1  0  0  0  0  0  0  0  0  0
    8.5200  -13.7806   23.7509 C   0  0  0  0  0  0  0  0  0  0  0  0
    8.7890  -15.4883   21.9533 C   0  0  2  0  0  0  0  0  0  0  0  0
    8.2246  -16.1887   20.8435 N   0  0  0  0  0  0  0  0  0  0  0  0
    9.2309  -16.4568   22.9723 C   0  0  0  0  0  0  0  0  0  0  0  0
    8.5335  -17.4564   23.2803 O   0  0  0  0  0  0  0  0  0  0  0  0
   14.1611  -16.7638   22.7459 N   0  0  0  0  0  0  0  0  0  0  0  0
   13.0834  -17.5387   23.3174 C   0  0  0  0  0  0  0  0  0  0  0  0
   12.7198  -18.5113   22.6202 O   0  0  0  0  0  0  0  0  0  0  0  0
   12.5140  -17.1458   24.6245 C   0  0  0  0  0  0  0  0  0  0  0  0
   11.0164  -17.2047   24.6094 C   0  0  2  0  0  0  0  0  0  0  0  0
   10.4615  -16.2799   23.6298 N   0  0  0  0  0  0  0  0  0  0  0  0
   10.3831  -17.0955   25.9127 C   0  0  0  0  0  0  0  0  0  0  0  0
   10.6055  -17.8652   26.8491 O   0  0  0  0  0  0  0  0  0  0  0  0
    9.4440  -16.0723   26.2040 O   0  0  0  0  0  0  0  0  0  0  0  0
  1  5  1  0
  1  2  1  0
  2  3  1  0
  4  3  1  0
  5  4  1  0
  6 12  1  0
  5  6  1  1
  7  6  2  0
  9  8  1  1
  9 11  1  0
 10  9  1  0
 11 12  1  6
 11 13  1  0
 13 14  2  0
 13 20  1  0
 16 15  1  0
 17 16  2  0
 18 16  1  0
 19 18  1  1
 19 21  1  0
 20 19  1  0
 21 23  1  0
 22 21  2  0
M  END
$$$$
