PVN.pdb
     RDKit          3D

 23 23  0  0  1  0  0  0  0  0999 V2000
    9.1731  -18.2592   16.6742 N   0  0  0  0  0  0  0  0  0  0  0  0
    8.3343  -19.2423   15.9651 C   0  0  0  0  0  0  0  0  0  0  0  0
    7.6965  -19.9903   17.1031 C   0  0  0  0  0  0  0  0  0  0  0  0
    7.4978  -18.9450   18.1701 C   0  0  0  0  0  0  0  0  0  0  0  0
    8.1739  -17.7327   17.5893 C   0  0  1  0  0  0  0  0  0  0  0  0
    8.6787  -16.7727   18.5640 C   0  0  0  0  0  0  0  0  0  0  0  0
    9.8974  -16.8356   18.8615 O   0  0  0  0  0  0  0  0  0  0  0  0
    6.4760  -13.8213   21.0242 C   0  0  0  0  0  0  0  0  0  0  0  0
    7.8282  -13.5854   20.3399 C   0  0  1  0  0  0  0  0  0  0  0  0
    8.6015  -12.6987   21.3116 C   0  0  0  0  0  0  0  0  0  0  0  0
    8.5487  -14.9031   20.1463 C   0  0  2  0  0  0  0  0  0  0  0  0
    7.9101  -15.7716   19.2089 N   0  0  0  0  0  0  0  0  0  0  0  0
    8.7571  -15.6195   21.4171 C   0  0  0  0  0  0  0  0  0  0  0  0
    7.9216  -16.4529   21.8504 O   0  0  0  0  0  0  0  0  0  0  0  0
   13.6385  -16.1438   21.9718 N   0  0  0  0  0  0  0  0  0  0  0  0
   12.4761  -16.7698   22.5596 C   0  0  0  0  0  0  0  0  0  0  0  0
   12.1907  -17.8874   22.0761 O   0  0  0  0  0  0  0  0  0  0  0  0
   11.7411  -16.0776   23.6403 C   0  0  0  0  0  0  0  0  0  0  0  0
   10.2620  -16.1019   23.3995 C   0  0  2  0  0  0  0  0  0  0  0  0
    9.9135  -15.3822   22.1815 N   0  0  0  0  0  0  0  0  0  0  0  0
    9.4467  -15.7147   24.5382 C   0  0  0  0  0  0  0  0  0  0  0  0
    8.8392  -14.6451   24.6138 O   0  0  0  0  0  0  0  0  0  0  0  0
    9.2896  -16.5601   25.6671 O   0  0  0  0  0  0  0  0  0  0  0  0
  1  5  1  0
  1  2  1  0
  2  3  1  0
  4  3  1  0
  5  4  1  0
  6 12  1  0
  5  6  1  1
  7  6  2  0
  9  8  1  1
  9 11  1  0
 10  9  1  0
 11 12  1  6
 11 13  1  0
 13 14  2  0
 13 20  1  0
 16 15  1  0
 17 16  2  0
 18 16  1  0
 19 18  1  1
 19 21  1  0
 20 19  1  0
 21 23  1  0
 22 21  2  0
M  END
$$$$
