PVN.pdb
     RDKit          3D

 23 23  0  0  1  0  0  0  0  0999 V2000
    7.0123  -14.7145   20.6165 N   0  0  0  0  0  0  0  0  0  0  0  0
    6.8733  -14.2097   19.2386 C   0  0  0  0  0  0  0  0  0  0  0  0
    7.0260  -12.7261   19.4305 C   0  0  0  0  0  0  0  0  0  0  0  0
    8.0254  -12.5970   20.5507 C   0  0  0  0  0  0  0  0  0  0  0  0
    8.2362  -14.0221   20.9850 C   0  0  1  0  0  0  0  0  0  0  0  0
    8.6471  -14.1974   22.3730 C   0  0  0  0  0  0  0  0  0  0  0  0
    9.8788  -14.2724   22.6075 O   0  0  0  0  0  0  0  0  0  0  0  0
    7.3201  -12.0300   25.2889 C   0  0  0  0  0  0  0  0  0  0  0  0
    7.4943  -13.4692   25.7895 C   0  0  1  0  0  0  0  0  0  0  0  0
    6.0758  -14.0273   25.8574 C   0  0  0  0  0  0  0  0  0  0  0  0
    8.3236  -14.2647   24.8034 C   0  0  2  0  0  0  0  0  0  0  0  0
    7.7737  -14.2926   23.4853 N   0  0  0  0  0  0  0  0  0  0  0  0
    8.5699  -15.6431   25.2626 C   0  0  0  0  0  0  0  0  0  0  0  0
    7.6794  -16.5285   25.2026 O   0  0  0  0  0  0  0  0  0  0  0  0
   11.1062  -18.5426   23.5010 N   0  0  0  0  0  0  0  0  0  0  0  0
   11.6834  -17.5819   24.4133 C   0  0  0  0  0  0  0  0  0  0  0  0
   12.3006  -16.6470   23.8573 O   0  0  0  0  0  0  0  0  0  0  0  0
   11.5112  -17.7633   25.8710 C   0  0  0  0  0  0  0  0  0  0  0  0
   10.1541  -17.3149   26.3222 C   0  0  2  0  0  0  0  0  0  0  0  0
    9.8260  -16.0014   25.7838 N   0  0  0  0  0  0  0  0  0  0  0  0
    9.9167  -17.4156   27.7522 C   0  0  0  0  0  0  0  0  0  0  0  0
    9.6089  -16.4582   28.4646 O   0  0  0  0  0  0  0  0  0  0  0  0
   10.0248  -18.6506   28.4428 O   0  0  0  0  0  0  0  0  0  0  0  0
  1  5  1  0
  1  2  1  0
  2  3  1  0
  4  3  1  0
  5  4  1  0
  6 12  1  0
  5  6  1  1
  7  6  2  0
  9  8  1  6
  9 11  1  0
 10  9  1  0
 11 12  1  6
 11 13  1  0
 13 14  2  0
 13 20  1  0
 16 15  1  0
 17 16  2  0
 18 16  1  0
 19 18  1  1
 19 21  1  0
 20 19  1  0
 21 23  1  0
 22 21  2  0
M  END
$$$$
