PVN.pdb
     RDKit          3D

 23 23  0  0  1  0  0  0  0  0999 V2000
    7.0352  -14.9730   20.6906 N   0  0  0  0  0  0  0  0  0  0  0  0
    6.8918  -14.6973   19.2497 C   0  0  0  0  0  0  0  0  0  0  0  0
    6.9925  -13.1976   19.2051 C   0  0  0  0  0  0  0  0  0  0  0  0
    7.9767  -12.8585   20.2945 C   0  0  0  0  0  0  0  0  0  0  0  0
    8.2315  -14.1889   20.9495 C   0  0  1  0  0  0  0  0  0  0  0  0
    8.6354  -14.1283   22.3493 C   0  0  0  0  0  0  0  0  0  0  0  0
    9.8658  -14.1645   22.5993 O   0  0  0  0  0  0  0  0  0  0  0  0
    6.1389  -13.4929   25.9439 C   0  0  0  0  0  0  0  0  0  0  0  0
    7.5347  -12.9304   25.6479 C   0  0  1  0  0  0  0  0  0  0  0  0
    8.2012  -12.8157   27.0158 C   0  0  0  0  0  0  0  0  0  0  0  0
    8.3058  -13.8918   24.7683 C   0  0  2  0  0  0  0  0  0  0  0  0
    7.7565  -14.0335   23.4573 N   0  0  0  0  0  0  0  0  0  0  0  0
    8.4523  -15.2216   25.3862 C   0  0  0  0  0  0  0  0  0  0  0  0
    7.4825  -16.0156   25.4831 O   0  0  0  0  0  0  0  0  0  0  0  0
   12.0606  -16.9850   23.7209 N   0  0  0  0  0  0  0  0  0  0  0  0
   11.1796  -17.7495   24.5739 C   0  0  0  0  0  0  0  0  0  0  0  0
   10.4371  -18.5507   23.9648 O   0  0  0  0  0  0  0  0  0  0  0  0
   11.2166  -17.5406   26.0375 C   0  0  0  0  0  0  0  0  0  0  0  0
    9.9472  -16.9172   26.5340 C   0  0  2  0  0  0  0  0  0  0  0  0
    9.6999  -15.6358   25.8863 N   0  0  0  0  0  0  0  0  0  0  0  0
    9.8169  -16.8546   27.9799 C   0  0  0  0  0  0  0  0  0  0  0  0
    9.7692  -15.8017   28.6186 O   0  0  0  0  0  0  0  0  0  0  0  0
    9.7335  -18.0275   28.7744 O   0  0  0  0  0  0  0  0  0  0  0  0
  1  5  1  0
  1  2  1  0
  2  3  1  0
  4  3  1  0
  5  4  1  0
  6 12  1  0
  5  6  1  1
  7  6  2  0
  9  8  1  1
  9 11  1  0
 10  9  1  0
 11 12  1  6
 11 13  1  0
 13 14  2  0
 13 20  1  0
 16 15  1  0
 17 16  2  0
 18 16  1  0
 19 18  1  1
 19 21  1  0
 20 19  1  0
 21 23  1  0
 22 21  2  0
M  END
$$$$
