PVN.pdb
     RDKit          3D

 23 23  0  0  1  0  0  0  0  0999 V2000
    9.0720  -18.1104   16.7867 N   0  0  0  0  0  0  0  0  0  0  0  0
    8.2097  -18.9193   15.9064 C   0  0  0  0  0  0  0  0  0  0  0  0
    7.2892  -19.5839   16.8924 C   0  0  0  0  0  0  0  0  0  0  0  0
    7.0938  -18.5517   17.9727 C   0  0  0  0  0  0  0  0  0  0  0  0
    8.0378  -17.4522   17.5679 C   0  0  1  0  0  0  0  0  0  0  0  0
    8.5289  -16.6183   18.6586 C   0  0  0  0  0  0  0  0  0  0  0  0
    9.7711  -16.4548   18.7487 O   0  0  0  0  0  0  0  0  0  0  0  0
    8.1035  -13.2358   22.2195 C   0  0  0  0  0  0  0  0  0  0  0  0
    7.4317  -13.9977   21.0703 C   0  0  1  0  0  0  0  0  0  0  0  0
    7.2339  -12.9505   19.9783 C   0  0  0  0  0  0  0  0  0  0  0  0
    8.3426  -15.1026   20.5780 C   0  0  2  0  0  0  0  0  0  0  0  0
    7.7233  -15.9748   19.6312 N   0  0  0  0  0  0  0  0  0  0  0  0
    8.9066  -15.8976   21.6831 C   0  0  0  0  0  0  0  0  0  0  0  0
    8.2298  -16.7730   22.2797 O   0  0  0  0  0  0  0  0  0  0  0  0
   13.7541  -16.9242   24.8186 N   0  0  0  0  0  0  0  0  0  0  0  0
   13.2048  -17.4339   23.5829 C   0  0  0  0  0  0  0  0  0  0  0  0
   13.4332  -18.6461   23.3768 O   0  0  0  0  0  0  0  0  0  0  0  0
   12.4471  -16.5289   22.6917 C   0  0  0  0  0  0  0  0  0  0  0  0
   10.9764  -16.5865   22.9749 C   0  0  2  0  0  0  0  0  0  0  0  0
   10.2344  -15.6904   22.0978 N   0  0  0  0  0  0  0  0  0  0  0  0
   10.6128  -16.4380   24.3739 C   0  0  0  0  0  0  0  0  0  0  0  0
   10.7939  -17.3105   25.2252 O   0  0  0  0  0  0  0  0  0  0  0  0
   10.0109  -15.2516   24.8680 O   0  0  0  0  0  0  0  0  0  0  0  0
  1  5  1  0
  1  2  1  0
  2  3  1  0
  4  3  1  0
  5  4  1  0
  6 12  1  0
  5  6  1  1
  7  6  2  0
  9  8  1  1
  9 11  1  0
 10  9  1  0
 11 12  1  6
 11 13  1  0
 13 14  2  0
 13 20  1  0
 16 15  1  0
 17 16  2  0
 18 16  1  0
 19 18  1  1
 19 21  1  0
 20 19  1  0
 21 23  1  0
 22 21  2  0
M  END
$$$$
