PCD.pdb
     RDKit          3D

 22 22  0  0  1  0  0  0  0  0999 V2000
    7.3889  -15.0899   19.5460 N   0  0  0  0  0  0  0  0  0  0  0  0
    6.8351  -14.4860   18.3437 C   0  0  0  0  0  0  0  0  0  0  0  0
    7.6309  -13.2391   18.0656 C   0  0  0  0  0  0  0  0  0  0  0  0
    8.3432  -13.0132   19.3819 C   0  0  0  0  0  0  0  0  0  0  0  0
    8.6678  -14.4628   19.7619 C   0  0  1  0  0  0  0  0  0  0  0  0
    9.1485  -14.5826   21.1422 C   0  0  0  0  0  0  0  0  0  0  0  0
   10.3598  -14.2695   21.3566 O   0  0  0  0  0  0  0  0  0  0  0  0
    8.3902  -15.0102   22.2369 N   0  0  0  0  0  0  0  0  0  0  0  0
    8.9751  -15.1265   23.5912 C   0  0  1  0  0  0  0  0  0  0  0  0
    7.7775  -14.9995   24.5412 C   0  0  0  0  0  0  0  0  0  0  0  0
    8.2157  -15.3353   26.2574 S   0  0  0  0  0  0  0  0  0  0  0  0
    9.5483  -16.4700   23.7706 C   0  0  0  0  0  0  0  0  0  0  0  0
    8.8384  -17.4691   23.4339 O   0  0  0  0  0  0  0  0  0  0  0  0
   10.8389  -16.6982   24.2930 N   0  0  0  0  0  0  0  0  0  0  0  0
   11.3301  -18.0636   24.3283 C   0  0  1  0  0  0  0  0  0  0  0  0
   12.7432  -18.1588   23.8035 C   0  0  0  0  0  0  0  0  0  0  0  0
   13.2489  -19.5536   23.8351 C   0  0  0  0  0  0  0  0  0  0  0  0
   12.5875  -20.4447   23.2838 O   0  0  0  0  0  0  0  0  0  0  0  0
   11.3716  -18.5534   25.7435 C   0  0  0  0  0  0  0  0  0  0  0  0
   11.1737  -17.7161   26.6360 O   0  0  0  0  0  0  0  0  0  0  0  0
   14.4364  -19.8554   24.4677 O   0  0  0  0  0  0  0  0  0  0  0  0
   11.6168  -19.8664   26.0444 O   0  0  0  0  0  0  0  0  0  0  0  0
  1  2  1  0
  3  2  1  0
  4  3  1  0
  4  5  1  0
  5  1  1  0
  5  6  1  1
  7  6  2  0
  8  6  1  0
  9  8  1  0
  9 12  1  0
  9 10  1  1
 11 10  1  0
 12 14  1  0
 13 12  2  0
 14 15  1  0
 15 16  1  1
 15 19  1  0
 16 17  1  0
 17 21  1  0
 17 18  2  0
 19 20  2  0
 19 22  1  0
M  END
$$$$
