PCD.pdb
     RDKit          3D

 22 22  0  0  1  0  0  0  0  0999 V2000
    7.2020  -14.8935   20.3157 N   0  0  0  0  0  0  0  0  0  0  0  0
    6.7876  -14.3544   19.0294 C   0  0  0  0  0  0  0  0  0  0  0  0
    7.4201  -12.9956   18.8924 C   0  0  0  0  0  0  0  0  0  0  0  0
    7.8411  -12.6931   20.3145 C   0  0  0  0  0  0  0  0  0  0  0  0
    8.3100  -14.0847   20.7557 C   0  0  1  0  0  0  0  0  0  0  0  0
    8.5473  -14.1604   22.2009 C   0  0  0  0  0  0  0  0  0  0  0  0
    9.7572  -14.2142   22.5811 O   0  0  0  0  0  0  0  0  0  0  0  0
    7.5596  -14.1782   23.1909 N   0  0  0  0  0  0  0  0  0  0  0  0
    7.8987  -14.2915   24.6268 C   0  0  1  0  0  0  0  0  0  0  0  0
    6.6004  -13.9306   25.3598 C   0  0  0  0  0  0  0  0  0  0  0  0
    6.4872  -12.1729   25.7443 S   0  0  0  0  0  0  0  0  0  0  0  0
    8.2221  -15.6899   24.9516 C   0  0  0  0  0  0  0  0  0  0  0  0
    7.3468  -16.5766   24.6999 O   0  0  0  0  0  0  0  0  0  0  0  0
    9.4489  -16.0887   25.5231 N   0  0  0  0  0  0  0  0  0  0  0  0
    9.6974  -17.5095   25.6852 C   0  0  1  0  0  0  0  0  0  0  0  0
   10.2905  -18.1154   24.4353 C   0  0  0  0  0  0  0  0  0  0  0  0
   11.5103  -17.3918   23.9986 C   0  0  0  0  0  0  0  0  0  0  0  0
   11.9079  -16.4273   24.6672 O   0  0  0  0  0  0  0  0  0  0  0  0
   10.6988  -17.7300   26.7773 C   0  0  0  0  0  0  0  0  0  0  0  0
   10.9731  -18.9050   27.0621 O   0  0  0  0  0  0  0  0  0  0  0  0
   12.1922  -17.7851   22.8664 O   0  0  0  0  0  0  0  0  0  0  0  0
   11.2886  -16.6844   27.4357 O   0  0  0  0  0  0  0  0  0  0  0  0
  1  2  1  0
  3  2  1  0
  4  3  1  0
  4  5  1  0
  5  1  1  0
  5  6  1  1
  7  6  2  0
  8  6  1  0
  9  8  1  0
  9 12  1  0
  9 10  1  1
 11 10  1  0
 12 14  1  0
 13 12  2  0
 14 15  1  0
 15 16  1  6
 15 19  1  0
 16 17  1  0
 17 21  1  0
 17 18  2  0
 19 20  2  0
 19 22  1  0
M  END
$$$$
