PCD.pdb
     RDKit          3D

 22 22  0  0  1  0  0  0  0  0999 V2000
    7.0233  -15.1115   20.9353 N   0  0  0  0  0  0  0  0  0  0  0  0
    6.4310  -14.8028   19.6427 C   0  0  0  0  0  0  0  0  0  0  0  0
    7.1364  -13.5845   19.1103 C   0  0  0  0  0  0  0  0  0  0  0  0
    7.8271  -13.0484   20.3458 C   0  0  0  0  0  0  0  0  0  0  0  0
    8.2535  -14.3652   21.0056 C   0  0  1  0  0  0  0  0  0  0  0  0
    8.7378  -14.1703   22.3761 C   0  0  0  0  0  0  0  0  0  0  0  0
    9.9194  -13.7261   22.5088 O   0  0  0  0  0  0  0  0  0  0  0  0
    8.0127  -14.4308   23.5433 N   0  0  0  0  0  0  0  0  0  0  0  0
    8.5368  -14.0757   24.8809 C   0  0  1  0  0  0  0  0  0  0  0  0
    7.3244  -13.5133   25.6338 C   0  0  0  0  0  0  0  0  0  0  0  0
    7.6912  -13.1428   27.3596 S   0  0  0  0  0  0  0  0  0  0  0  0
    8.9736  -15.2936   25.5821 C   0  0  0  0  0  0  0  0  0  0  0  0
    8.1367  -16.2426   25.7034 O   0  0  0  0  0  0  0  0  0  0  0  0
   10.2679  -15.4558   26.1200 N   0  0  0  0  0  0  0  0  0  0  0  0
   10.5747  -16.7018   26.7983 C   0  0  1  0  0  0  0  0  0  0  0  0
   12.0093  -17.1172   26.5740 C   0  0  0  0  0  0  0  0  0  0  0  0
   12.3088  -17.3044   25.1327 C   0  0  0  0  0  0  0  0  0  0  0  0
   11.4292  -17.7652   24.3916 O   0  0  0  0  0  0  0  0  0  0  0  0
   10.4114  -16.5298   28.2776 C   0  0  0  0  0  0  0  0  0  0  0  0
   10.1627  -15.3869   28.6883 O   0  0  0  0  0  0  0  0  0  0  0  0
   13.5465  -16.9713   24.6239 O   0  0  0  0  0  0  0  0  0  0  0  0
   10.5304  -17.5842   29.1428 O   0  0  0  0  0  0  0  0  0  0  0  0
  1  2  1  0
  3  2  1  0
  4  3  1  0
  4  5  1  0
  5  1  1  0
  5  6  1  1
  7  6  2  0
  8  6  1  0
  9  8  1  0
  9 12  1  0
  9 10  1  1
 11 10  1  0
 12 14  1  0
 13 12  2  0
 14 15  1  0
 15 16  1  1
 15 19  1  0
 16 17  1  0
 17 21  1  0
 17 18  2  0
 19 20  2  0
 19 22  1  0
M  END
$$$$
