PCD.pdb
     RDKit          3D

 22 22  0  0  1  0  0  0  0  0999 V2000
    7.0657  -15.0915   21.0036 N   0  0  0  0  0  0  0  0  0  0  0  0
    6.4840  -14.8105   19.7000 C   0  0  0  0  0  0  0  0  0  0  0  0
    7.2437  -13.6504   19.1149 C   0  0  0  0  0  0  0  0  0  0  0  0
    7.9633  -13.0953   20.3253 C   0  0  0  0  0  0  0  0  0  0  0  0
    8.3299  -14.4015   21.0400 C   0  0  1  0  0  0  0  0  0  0  0  0
    8.8277  -14.1714   22.4002 C   0  0  0  0  0  0  0  0  0  0  0  0
    9.9903  -13.6736   22.5086 O   0  0  0  0  0  0  0  0  0  0  0  0
    8.1345  -14.4523   23.5820 N   0  0  0  0  0  0  0  0  0  0  0  0
    8.6756  -14.0818   24.9086 C   0  0  1  0  0  0  0  0  0  0  0  0
    7.5134  -13.3728   25.6153 C   0  0  0  0  0  0  0  0  0  0  0  0
    7.9012  -12.9384   27.3215 S   0  0  0  0  0  0  0  0  0  0  0  0
    8.9893  -15.2989   25.6741 C   0  0  0  0  0  0  0  0  0  0  0  0
    8.0756  -16.1733   25.8015 O   0  0  0  0  0  0  0  0  0  0  0  0
   10.2471  -15.5387   26.2667 N   0  0  0  0  0  0  0  0  0  0  0  0
   10.4234  -16.7647   27.0234 C   0  0  1  0  0  0  0  0  0  0  0  0
   11.7644  -17.4012   26.7444 C   0  0  0  0  0  0  0  0  0  0  0  0
   11.8467  -17.9256   25.3586 C   0  0  0  0  0  0  0  0  0  0  0  0
   10.9057  -17.7156   24.5803 O   0  0  0  0  0  0  0  0  0  0  0  0
   10.3952  -16.4658   28.4911 C   0  0  0  0  0  0  0  0  0  0  0  0
   10.3615  -15.2717   28.8228 O   0  0  0  0  0  0  0  0  0  0  0  0
   12.9526  -18.6359   24.9415 O   0  0  0  0  0  0  0  0  0  0  0  0
   10.4061  -17.4626   29.4296 O   0  0  0  0  0  0  0  0  0  0  0  0
  1  2  1  0
  3  2  1  0
  4  3  1  0
  4  5  1  0
  5  1  1  0
  5  6  1  1
  7  6  2  0
  8  6  1  0
  9  8  1  0
  9 12  1  0
  9 10  1  1
 11 10  1  0
 12 14  1  0
 13 12  2  0
 14 15  1  0
 15 16  1  6
 15 19  1  0
 16 17  1  0
 17 21  1  0
 17 18  2  0
 19 20  2  0
 19 22  1  0
M  END
$$$$
