PCD.pdb
     RDKit          3D

 22 22  0  0  1  0  0  0  0  0999 V2000
    8.3127  -13.3971   19.8881 N   0  0  0  0  0  0  0  0  0  0  0  0
    7.8042  -13.9607   18.6469 C   0  0  0  0  0  0  0  0  0  0  0  0
    6.7545  -14.9742   19.0162 C   0  0  0  0  0  0  0  0  0  0  0  0
    7.0276  -15.1967   20.4883 C   0  0  0  0  0  0  0  0  0  0  0  0
    7.3718  -13.7647   20.9152 C   0  0  1  0  0  0  0  0  0  0  0  0
    7.9355  -13.7070   22.2678 C   0  0  0  0  0  0  0  0  0  0  0  0
    9.1828  -13.9150   22.3784 O   0  0  0  0  0  0  0  0  0  0  0  0
    7.2199  -13.4438   23.4403 N   0  0  0  0  0  0  0  0  0  0  0  0
    7.8722  -13.4507   24.7685 C   0  0  1  0  0  0  0  0  0  0  0  0
    6.8042  -12.9072   25.7261 C   0  0  0  0  0  0  0  0  0  0  0  0
    7.2980  -13.0280   27.4557 S   0  0  0  0  0  0  0  0  0  0  0  0
    8.1690  -14.8355   25.1686 C   0  0  0  0  0  0  0  0  0  0  0  0
    7.2645  -15.7114   24.9949 O   0  0  0  0  0  0  0  0  0  0  0  0
    9.4012  -15.2326   25.7296 N   0  0  0  0  0  0  0  0  0  0  0  0
    9.5768  -16.6323   26.0715 C   0  0  1  0  0  0  0  0  0  0  0  0
   10.6874  -17.2650   25.2670 C   0  0  0  0  0  0  0  0  0  0  0  0
   10.9346  -18.6689   25.6797 C   0  0  0  0  0  0  0  0  0  0  0  0
   10.0091  -19.3169   26.1885 O   0  0  0  0  0  0  0  0  0  0  0  0
    9.9730  -16.7590   27.5107 C   0  0  0  0  0  0  0  0  0  0  0  0
   10.2248  -15.7096   28.1208 O   0  0  0  0  0  0  0  0  0  0  0  0
   12.1745  -19.2452   25.5007 O   0  0  0  0  0  0  0  0  0  0  0  0
   10.0553  -17.9770   28.1305 O   0  0  0  0  0  0  0  0  0  0  0  0
  1  2  1  0
  3  2  1  0
  4  3  1  0
  4  5  1  0
  5  1  1  0
  5  6  1  1
  7  6  2  0
  8  6  1  0
  9  8  1  0
  9 12  1  0
  9 10  1  1
 11 10  1  0
 12 14  1  0
 13 12  2  0
 14 15  1  0
 15 16  1  6
 15 19  1  0
 16 17  1  0
 17 21  1  0
 17 18  2  0
 19 20  2  0
 19 22  1  0
M  END
$$$$
