PCD.pdb
     RDKit          3D

 22 22  0  0  1  0  0  0  0  0999 V2000
    8.1251  -14.9309   18.2381 N   0  0  0  0  0  0  0  0  0  0  0  0
    7.1307  -14.4650   17.2837 C   0  0  0  0  0  0  0  0  0  0  0  0
    7.2961  -12.9739   17.1617 C   0  0  0  0  0  0  0  0  0  0  0  0
    8.1344  -12.6438   18.3781 C   0  0  0  0  0  0  0  0  0  0  0  0
    9.0725  -13.8566   18.3927 C   0  0  1  0  0  0  0  0  0  0  0  0
    9.8523  -13.9428   19.6318 C   0  0  0  0  0  0  0  0  0  0  0  0
   10.8008  -13.1110   19.7712 O   0  0  0  0  0  0  0  0  0  0  0  0
    9.6410  -14.8586   20.6676 N   0  0  0  0  0  0  0  0  0  0  0  0
   10.4488  -14.8316   21.9072 C   0  0  1  0  0  0  0  0  0  0  0  0
    9.5399  -15.4553   22.9739 C   0  0  0  0  0  0  0  0  0  0  0  0
   10.3875  -15.7082   24.5448 S   0  0  0  0  0  0  0  0  0  0  0  0
   11.6231  -15.7051   21.7534 C   0  0  0  0  0  0  0  0  0  0  0  0
   11.4314  -16.8923   21.3416 O   0  0  0  0  0  0  0  0  0  0  0  0
   12.9409  -15.2888   22.0380 N   0  0  0  0  0  0  0  0  0  0  0  0
   14.0121  -16.2552   21.8791 C   0  0  1  0  0  0  0  0  0  0  0  0
   15.2444  -15.6237   21.2759 C   0  0  0  0  0  0  0  0  0  0  0  0
   14.9612  -15.0236   19.9486 C   0  0  0  0  0  0  0  0  0  0  0  0
   14.2691  -15.6564   19.1388 O   0  0  0  0  0  0  0  0  0  0  0  0
   14.4224  -16.7855   23.2189 C   0  0  0  0  0  0  0  0  0  0  0  0
   13.8398  -16.3233   24.2107 O   0  0  0  0  0  0  0  0  0  0  0  0
   15.4598  -13.7807   19.6194 O   0  0  0  0  0  0  0  0  0  0  0  0
   15.3968  -17.7385   23.3487 O   0  0  0  0  0  0  0  0  0  0  0  0
  1  2  1  0
  3  2  1  0
  4  3  1  0
  4  5  1  0
  5  1  1  0
  5  6  1  1
  7  6  2  0
  8  6  1  0
  9  8  1  0
  9 12  1  0
  9 10  1  1
 11 10  1  0
 12 14  1  0
 13 12  2  0
 14 15  1  0
 15 16  1  1
 15 19  1  0
 16 17  1  0
 17 21  1  0
 17 18  2  0
 19 20  2  0
 19 22  1  0
M  END
$$$$
