PCD.pdb
     RDKit          3D

 22 22  0  0  1  0  0  0  0  0999 V2000
    7.0429  -14.8637   20.7099 N   0  0  0  0  0  0  0  0  0  0  0  0
    6.6537  -14.6112   19.3309 C   0  0  0  0  0  0  0  0  0  0  0  0
    7.4957  -13.4669   18.8339 C   0  0  0  0  0  0  0  0  0  0  0  0
    8.0394  -12.8860   20.1215 C   0  0  0  0  0  0  0  0  0  0  0  0
    8.2931  -14.1763   20.9101 C   0  0  1  0  0  0  0  0  0  0  0  0
    8.5941  -13.9164   22.3218 C   0  0  0  0  0  0  0  0  0  0  0  0
    9.7845  -13.5753   22.6006 O   0  0  0  0  0  0  0  0  0  0  0  0
    7.6863  -14.0116   23.3814 N   0  0  0  0  0  0  0  0  0  0  0  0
    8.0674  -13.6587   24.7670 C   0  0  1  0  0  0  0  0  0  0  0  0
    6.7808  -13.1046   25.3921 C   0  0  0  0  0  0  0  0  0  0  0  0
    6.9798  -12.6905   27.1354 S   0  0  0  0  0  0  0  0  0  0  0  0
    8.4355  -14.8769   25.5061 C   0  0  0  0  0  0  0  0  0  0  0  0
    7.5795  -15.8142   25.5715 O   0  0  0  0  0  0  0  0  0  0  0  0
    9.6845  -15.0516   26.1387 N   0  0  0  0  0  0  0  0  0  0  0  0
    9.9312  -16.3039   26.8297 C   0  0  1  0  0  0  0  0  0  0  0  0
   11.2555  -16.9084   26.4273 C   0  0  0  0  0  0  0  0  0  0  0  0
   11.1223  -17.7794   25.2332 C   0  0  0  0  0  0  0  0  0  0  0  0
   10.0231  -18.2950   24.9857 O   0  0  0  0  0  0  0  0  0  0  0  0
   10.0081  -16.0640   28.3065 C   0  0  0  0  0  0  0  0  0  0  0  0
   10.0377  -17.0635   29.0393 O   0  0  0  0  0  0  0  0  0  0  0  0
   12.2041  -18.0127   24.4105 O   0  0  0  0  0  0  0  0  0  0  0  0
   10.0444  -14.7994   28.8300 O   0  0  0  0  0  0  0  0  0  0  0  0
  1  2  1  0
  3  2  1  0
  4  3  1  0
  4  5  1  0
  5  1  1  0
  5  6  1  1
  7  6  2  0
  8  6  1  0
  9  8  1  0
  9 12  1  0
  9 10  1  1
 11 10  1  0
 12 14  1  0
 13 12  2  0
 14 15  1  0
 15 16  1  6
 15 19  1  0
 16 17  1  0
 17 21  1  0
 17 18  2  0
 19 20  2  0
 19 22  1  0
M  END
$$$$
