PCD.pdb
     RDKit          3D

 22 22  0  0  1  0  0  0  0  0999 V2000
    7.1088  -14.9459   20.6457 N   0  0  0  0  0  0  0  0  0  0  0  0
    6.7363  -14.6613   19.2684 C   0  0  0  0  0  0  0  0  0  0  0  0
    7.5485  -13.4745   18.8245 C   0  0  0  0  0  0  0  0  0  0  0  0
    8.0493  -12.9186   20.1402 C   0  0  0  0  0  0  0  0  0  0  0  0
    8.3316  -14.2251   20.8917 C   0  0  1  0  0  0  0  0  0  0  0  0
    8.5984  -14.0017   22.3164 C   0  0  0  0  0  0  0  0  0  0  0  0
    9.8061  -13.7954   22.6480 O   0  0  0  0  0  0  0  0  0  0  0  0
    7.6407  -13.9967   23.3356 N   0  0  0  0  0  0  0  0  0  0  0  0
    8.0006  -13.7022   24.7404 C   0  0  1  0  0  0  0  0  0  0  0  0
    6.7398  -13.0629   25.3361 C   0  0  0  0  0  0  0  0  0  0  0  0
    6.8824  -12.7712   27.1095 S   0  0  0  0  0  0  0  0  0  0  0  0
    8.2490  -14.9597   25.4633 C   0  0  0  0  0  0  0  0  0  0  0  0
    7.4525  -15.9294   25.2607 O   0  0  0  0  0  0  0  0  0  0  0  0
    9.3222  -15.1379   26.3617 N   0  0  0  0  0  0  0  0  0  0  0  0
    9.6088  -16.4829   26.8258 C   0  0  1  0  0  0  0  0  0  0  0  0
   10.5910  -17.1855   25.9187 C   0  0  0  0  0  0  0  0  0  0  0  0
   10.9502  -18.5303   26.4334 C   0  0  0  0  0  0  0  0  0  0  0  0
   10.0449  -19.3362   26.6908 O   0  0  0  0  0  0  0  0  0  0  0  0
   10.2483  -16.4292   28.1795 C   0  0  0  0  0  0  0  0  0  0  0  0
   10.6307  -15.3196   28.5788 O   0  0  0  0  0  0  0  0  0  0  0  0
   12.2707  -18.8796   26.6230 O   0  0  0  0  0  0  0  0  0  0  0  0
   10.4065  -17.5522   28.9465 O   0  0  0  0  0  0  0  0  0  0  0  0
  1  2  1  0
  3  2  1  0
  4  3  1  0
  4  5  1  0
  5  1  1  0
  5  6  1  1
  7  6  2  0
  8  6  1  0
  9  8  1  0
  9 12  1  0
  9 10  1  1
 11 10  1  0
 12 14  1  0
 13 12  2  0
 14 15  1  0
 15 16  1  6
 15 19  1  0
 16 17  1  0
 17 21  1  0
 17 18  2  0
 19 20  2  0
 19 22  1  0
M  END
$$$$
