PCD.pdb
     RDKit          3D

 22 22  0  0  1  0  0  0  0  0999 V2000
    7.3843  -14.9618   20.5885 N   0  0  0  0  0  0  0  0  0  0  0  0
    6.9166  -14.6641   19.2434 C   0  0  0  0  0  0  0  0  0  0  0  0
    7.4722  -13.3166   18.8677 C   0  0  0  0  0  0  0  0  0  0  0  0
    7.9037  -12.7626   20.2085 C   0  0  0  0  0  0  0  0  0  0  0  0
    8.4555  -14.0370   20.8587 C   0  0  1  0  0  0  0  0  0  0  0  0
    8.7245  -13.8608   22.2896 C   0  0  0  0  0  0  0  0  0  0  0  0
    9.9425  -13.7871   22.6390 O   0  0  0  0  0  0  0  0  0  0  0  0
    7.7586  -13.7675   23.2967 N   0  0  0  0  0  0  0  0  0  0  0  0
    8.1296  -13.5601   24.7142 C   0  0  1  0  0  0  0  0  0  0  0  0
    6.8584  -13.0043   25.3686 C   0  0  0  0  0  0  0  0  0  0  0  0
    7.0062  -12.8625   27.1598 S   0  0  0  0  0  0  0  0  0  0  0  0
    8.4273  -14.8563   25.3441 C   0  0  0  0  0  0  0  0  0  0  0  0
    7.5807  -15.7940   25.2039 O   0  0  0  0  0  0  0  0  0  0  0  0
    9.5998  -15.1047   26.0888 N   0  0  0  0  0  0  0  0  0  0  0  0
    9.7862  -16.4313   26.6475 C   0  0  1  0  0  0  0  0  0  0  0  0
   10.8975  -17.1771   25.9476 C   0  0  0  0  0  0  0  0  0  0  0  0
   11.2741  -18.4137   26.6764 C   0  0  0  0  0  0  0  0  0  0  0  0
   10.4056  -19.2700   26.8950 O   0  0  0  0  0  0  0  0  0  0  0  0
   10.1896  -16.3257   28.0864 C   0  0  0  0  0  0  0  0  0  0  0  0
   10.3612  -15.1855   28.5417 O   0  0  0  0  0  0  0  0  0  0  0  0
   12.5703  -18.6087   27.1048 O   0  0  0  0  0  0  0  0  0  0  0  0
   10.3628  -17.4355   28.8692 O   0  0  0  0  0  0  0  0  0  0  0  0
  1  2  1  0
  3  2  1  0
  4  3  1  0
  4  5  1  0
  5  1  1  0
  5  6  1  1
  7  6  2  0
  8  6  1  0
  9  8  1  0
  9 12  1  0
  9 10  1  1
 11 10  1  0
 12 14  1  0
 13 12  2  0
 14 15  1  0
 15 16  1  6
 15 19  1  0
 16 17  1  0
 17 21  1  0
 17 18  2  0
 19 20  2  0
 19 22  1  0
M  END
$$$$
