PCD.pdb
     RDKit          3D

 22 22  0  0  1  0  0  0  0  0999 V2000
    7.9517  -14.6587   20.0381 N   0  0  0  0  0  0  0  0  0  0  0  0
    7.2855  -15.4100   18.9853 C   0  0  0  0  0  0  0  0  0  0  0  0
    6.2838  -16.3150   19.6508 C   0  0  0  0  0  0  0  0  0  0  0  0
    6.7400  -16.2920   21.0939 C   0  0  0  0  0  0  0  0  0  0  0  0
    7.1462  -14.8189   21.2217 C   0  0  1  0  0  0  0  0  0  0  0  0
    7.8777  -14.5486   22.4638 C   0  0  0  0  0  0  0  0  0  0  0  0
    9.1271  -14.7721   22.4535 O   0  0  0  0  0  0  0  0  0  0  0  0
    7.3190  -14.0679   23.6525 N   0  0  0  0  0  0  0  0  0  0  0  0
    8.1342  -13.8705   24.8716 C   0  0  1  0  0  0  0  0  0  0  0  0
    7.2029  -13.1354   25.8439 C   0  0  0  0  0  0  0  0  0  0  0  0
    7.9408  -12.9095   27.4733 S   0  0  0  0  0  0  0  0  0  0  0  0
    8.4619  -15.1761   25.4664 C   0  0  0  0  0  0  0  0  0  0  0  0
    7.5211  -16.0195   25.6047 O   0  0  0  0  0  0  0  0  0  0  0  0
    9.7613  -15.5324   25.8851 N   0  0  0  0  0  0  0  0  0  0  0  0
    9.9685  -16.8717   26.4049 C   0  0  1  0  0  0  0  0  0  0  0  0
   11.2221  -17.4979   25.8414 C   0  0  0  0  0  0  0  0  0  0  0  0
   11.5287  -16.9877   24.4820 C   0  0  0  0  0  0  0  0  0  0  0  0
   10.8045  -17.3274   23.5357 O   0  0  0  0  0  0  0  0  0  0  0  0
   10.1544  -16.8183   27.8904 C   0  0  0  0  0  0  0  0  0  0  0  0
   10.1339  -15.6982   28.4214 O   0  0  0  0  0  0  0  0  0  0  0  0
   12.6027  -16.1484   24.2731 O   0  0  0  0  0  0  0  0  0  0  0  0
   10.3391  -17.9527   28.6345 O   0  0  0  0  0  0  0  0  0  0  0  0
  1  2  1  0
  3  2  1  0
  4  3  1  0
  4  5  1  0
  5  1  1  0
  5  6  1  1
  7  6  2  0
  8  6  1  0
  9  8  1  0
  9 12  1  0
  9 10  1  1
 11 10  1  0
 12 14  1  0
 13 12  2  0
 14 15  1  0
 15 16  1  6
 15 19  1  0
 16 17  1  0
 17 21  1  0
 17 18  2  0
 19 20  2  0
 19 22  1  0
M  END
$$$$
