PCD.pdb
     RDKit          3D

 22 22  0  0  1  0  0  0  0  0999 V2000
    7.2230  -14.9370   20.4635 N   0  0  0  0  0  0  0  0  0  0  0  0
    6.6341  -14.4567   19.2228 C   0  0  0  0  0  0  0  0  0  0  0  0
    7.3619  -13.1946   18.8448 C   0  0  0  0  0  0  0  0  0  0  0  0
    8.0655  -12.8316   20.1348 C   0  0  0  0  0  0  0  0  0  0  0  0
    8.4677  -14.2289   20.6216 C   0  0  1  0  0  0  0  0  0  0  0  0
    8.9585  -14.2174   22.0036 C   0  0  0  0  0  0  0  0  0  0  0  0
   10.2166  -14.2642   22.1654 O   0  0  0  0  0  0  0  0  0  0  0  0
    8.1630  -14.1596   23.1524 N   0  0  0  0  0  0  0  0  0  0  0  0
    8.7530  -14.0082   24.5010 C   0  0  1  0  0  0  0  0  0  0  0  0
    7.6878  -13.2528   25.3059 C   0  0  0  0  0  0  0  0  0  0  0  0
    8.1277  -13.0787   27.0455 S   0  0  0  0  0  0  0  0  0  0  0  0
    8.9253  -15.3326   25.1190 C   0  0  0  0  0  0  0  0  0  0  0  0
    7.9454  -16.1411   25.0756 O   0  0  0  0  0  0  0  0  0  0  0  0
   10.1181  -15.7435   25.7506 N   0  0  0  0  0  0  0  0  0  0  0  0
   10.2008  -17.1105   26.2314 C   0  0  1  0  0  0  0  0  0  0  0  0
   11.4947  -17.7684   25.8141 C   0  0  0  0  0  0  0  0  0  0  0  0
   11.6144  -19.1427   26.3610 C   0  0  0  0  0  0  0  0  0  0  0  0
   12.3222  -19.3318   27.3603 O   0  0  0  0  0  0  0  0  0  0  0  0
   10.1837  -17.1254   27.7294 C   0  0  0  0  0  0  0  0  0  0  0  0
   10.4872  -16.0715   28.3072 O   0  0  0  0  0  0  0  0  0  0  0  0
   10.9490  -20.1947   25.7676 O   0  0  0  0  0  0  0  0  0  0  0  0
    9.8485  -18.2499   28.4348 O   0  0  0  0  0  0  0  0  0  0  0  0
  1  2  1  0
  3  2  1  0
  4  3  1  0
  4  5  1  0
  5  1  1  0
  5  6  1  1
  7  6  2  0
  8  6  1  0
  9  8  1  0
  9 12  1  0
  9 10  1  1
 11 10  1  0
 12 14  1  0
 13 12  2  0
 14 15  1  0
 15 16  1  1
 15 19  1  0
 16 17  1  0
 17 21  1  0
 17 18  2  0
 19 20  2  0
 19 22  1  0
M  END
$$$$
