PCD.pdb
     RDKit          3D

 22 22  0  0  1  0  0  0  0  0999 V2000
    7.0188  -14.9393   20.4470 N   0  0  0  0  0  0  0  0  0  0  0  0
    6.5709  -14.4203   19.1637 C   0  0  0  0  0  0  0  0  0  0  0  0
    7.4115  -13.2102   18.8559 C   0  0  0  0  0  0  0  0  0  0  0  0
    8.0260  -12.8957   20.2029 C   0  0  0  0  0  0  0  0  0  0  0  0
    8.2904  -14.3170   20.7140 C   0  0  1  0  0  0  0  0  0  0  0  0
    8.6619  -14.3387   22.1326 C   0  0  0  0  0  0  0  0  0  0  0  0
    9.8455  -13.9819   22.4207 O   0  0  0  0  0  0  0  0  0  0  0  0
    7.8278  -14.7170   23.1895 N   0  0  0  0  0  0  0  0  0  0  0  0
    8.2893  -14.6848   24.5952 C   0  0  1  0  0  0  0  0  0  0  0  0
    7.0145  -14.4474   25.4147 C   0  0  0  0  0  0  0  0  0  0  0  0
    6.6790  -12.6966   25.6830 S   0  0  0  0  0  0  0  0  0  0  0  0
    8.8248  -16.0026   24.9721 C   0  0  0  0  0  0  0  0  0  0  0  0
    8.0457  -17.0043   24.8987 O   0  0  0  0  0  0  0  0  0  0  0  0
   10.1522  -16.2042   25.4060 N   0  0  0  0  0  0  0  0  0  0  0  0
   10.5897  -17.5652   25.6572 C   0  0  1  0  0  0  0  0  0  0  0  0
   12.0739  -17.7226   25.4263 C   0  0  0  0  0  0  0  0  0  0  0  0
   12.4975  -17.1179   24.1390 C   0  0  0  0  0  0  0  0  0  0  0  0
   13.3787  -16.2468   24.1460 O   0  0  0  0  0  0  0  0  0  0  0  0
   10.3455  -17.9220   27.0916 C   0  0  0  0  0  0  0  0  0  0  0  0
   10.5302  -19.1036   27.4180 O   0  0  0  0  0  0  0  0  0  0  0  0
   11.9206  -17.5179   22.9521 O   0  0  0  0  0  0  0  0  0  0  0  0
    9.9364  -16.9891   28.0063 O   0  0  0  0  0  0  0  0  0  0  0  0
  1  2  1  0
  3  2  1  0
  4  3  1  0
  4  5  1  0
  5  1  1  0
  5  6  1  1
  7  6  2  0
  8  6  1  0
  9  8  1  0
  9 12  1  0
  9 10  1  1
 11 10  1  0
 12 14  1  0
 13 12  2  0
 14 15  1  0
 15 16  1  1
 15 19  1  0
 16 17  1  0
 17 21  1  0
 17 18  2  0
 19 20  2  0
 19 22  1  0
M  END
$$$$
