EQE.pdb
     RDKit          3D

 28 27  0  0  1  0  0  0  0  0999 V2000
   17.3814  -14.6429  -16.3487 N   0  0  0  0  0  0  0  0  0  0  0  0
   18.5374  -14.1109  -15.6291 C   0  0  1  0  0  0  0  0  0  0  0  0
   19.6536  -15.0767  -15.8529 C   0  0  0  0  0  0  0  0  0  0  0  0
   19.2112  -16.4896  -16.1454 C   0  0  0  0  0  0  0  0  0  0  0  0
   20.4360  -17.3027  -16.2638 C   0  0  0  0  0  0  0  0  0  0  0  0
   21.4813  -16.7821  -16.7135 O   0  0  0  0  0  0  0  0  0  0  0  0
   18.7973  -12.7454  -16.1089 C   0  0  0  0  0  0  0  0  0  0  0  0
   19.3193  -12.5775  -17.2684 O   0  0  0  0  0  0  0  0  0  0  0  0
   20.4334  -18.6246  -15.8788 O   0  0  0  0  0  0  0  0  0  0  0  0
   15.9669   -9.8755  -19.4219 N   0  0  0  0  0  0  0  0  0  0  0  0
   16.7967   -8.8094  -18.9831 C   0  0  0  0  0  0  0  0  0  0  0  0
   16.7120   -7.7123  -19.6223 O   0  0  0  0  0  0  0  0  0  0  0  0
   17.7097   -8.9578  -17.8498 C   0  0  0  0  0  0  0  0  0  0  0  0
   17.6852  -10.2989  -17.1750 C   0  0  0  0  0  0  0  0  0  0  0  0
   18.6522  -10.2919  -16.0082 C   0  0  2  0  0  0  0  0  0  0  0  0
   18.4994  -11.5803  -15.3512 N   0  0  0  0  0  0  0  0  0  0  0  0
   18.3190   -9.2217  -15.0369 C   0  0  0  0  0  0  0  0  0  0  0  0
   17.2250   -9.2521  -14.4154 O   0  0  0  0  0  0  0  0  0  0  0  0
   19.2054   -8.1797  -14.8027 N   0  0  0  0  0  0  0  0  0  0  0  0
   18.9916   -7.0877  -13.8192 C   0  0  1  0  0  0  0  0  0  0  0  0
   20.3693   -6.6469  -13.4820 C   0  0  0  0  0  0  0  0  0  0  0  0
   21.0931   -5.7427  -14.3830 C   0  0  0  0  0  0  0  0  0  0  0  0
   22.4876   -5.5209  -13.9665 C   0  0  0  0  0  0  0  0  0  0  0  0
   22.8832   -6.0239  -12.8804 O   0  0  0  0  0  0  0  0  0  0  0  0
   18.0474   -6.1467  -14.3862 C   0  0  0  0  0  0  0  0  0  0  0  0
   17.8629   -6.1509  -15.6575 O   0  0  0  0  0  0  0  0  0  0  0  0
   23.4125   -4.7930  -14.6827 O   0  0  0  0  0  0  0  0  0  0  0  0
   17.2891   -5.2079  -13.6929 O   0  0  0  0  0  0  0  0  0  0  0  0
  2  1  1  6
  2  3  1  0
  2  7  1  0
  4  3  1  0
  4  5  1  0
  5  6  2  0
  7  8  2  0
  9  5  1  0
 10 11  1  0
 11 12  2  0
 13 11  1  0
 13 14  1  0
 15 14  1  6
 16  7  1  0
 16 15  1  0
 17 15  1  0
 17 18  2  0
 19 17  1  0
 20 25  1  0
 20 19  1  0
 20 21  1  6
 22 21  1  0
 23 27  1  0
 23 22  1  0
 24 23  2  0
 25 28  1  0
 26 25  2  0
M  END
$$$$
