EQE.pdb
     RDKit          3D

 28 27  0  0  1  0  0  0  0  0999 V2000
   23.6796  -19.7790  -14.9483 N   0  0  0  0  0  0  0  0  0  0  0  0
   23.3303  -21.1105  -14.4560 C   0  0  1  0  0  0  0  0  0  0  0  0
   24.6152  -21.7698  -14.0776 C   0  0  0  0  0  0  0  0  0  0  0  0
   25.7771  -21.4462  -14.9847 C   0  0  0  0  0  0  0  0  0  0  0  0
   26.0606  -22.6660  -15.7638 C   0  0  0  0  0  0  0  0  0  0  0  0
   25.4460  -23.7237  -15.5001 O   0  0  0  0  0  0  0  0  0  0  0  0
   22.3651  -20.9628  -13.3565 C   0  0  0  0  0  0  0  0  0  0  0  0
   22.4693  -19.9614  -12.5618 O   0  0  0  0  0  0  0  0  0  0  0  0
   26.9916  -22.6430  -16.7780 O   0  0  0  0  0  0  0  0  0  0  0  0
   18.1278  -18.2271  -13.9540 N   0  0  0  0  0  0  0  0  0  0  0  0
   17.7616  -19.5834  -14.1636 C   0  0  0  0  0  0  0  0  0  0  0  0
   16.7679  -19.8006  -14.9285 O   0  0  0  0  0  0  0  0  0  0  0  0
   18.4877  -20.6856  -13.5328 C   0  0  0  0  0  0  0  0  0  0  0  0
   19.6204  -20.2796  -12.6348 C   0  0  0  0  0  0  0  0  0  0  0  0
   20.3172  -21.5200  -12.1130 C   0  0  2  0  0  0  0  0  0  0  0  0
   21.3053  -21.8793  -13.1177 N   0  0  0  0  0  0  0  0  0  0  0  0
   19.3671  -22.6482  -11.9574 C   0  0  0  0  0  0  0  0  0  0  0  0
   19.0603  -23.3562  -12.9516 O   0  0  0  0  0  0  0  0  0  0  0  0
   18.8084  -22.9352  -10.7198 N   0  0  0  0  0  0  0  0  0  0  0  0
   18.0012  -24.1433  -10.4120 C   0  0  1  0  0  0  0  0  0  0  0  0
   17.8334  -24.0845   -8.9373 C   0  0  0  0  0  0  0  0  0  0  0  0
   18.9736  -24.3610   -8.0561 C   0  0  0  0  0  0  0  0  0  0  0  0
   18.6148  -24.3111   -6.6292 C   0  0  0  0  0  0  0  0  0  0  0  0
   19.5210  -24.4826   -5.7698 O   0  0  0  0  0  0  0  0  0  0  0  0
   16.8377  -24.1417  -11.2749 C   0  0  0  0  0  0  0  0  0  0  0  0
   16.3396  -23.0134  -11.6341 O   0  0  0  0  0  0  0  0  0  0  0  0
   17.3428  -24.0879   -6.1489 O   0  0  0  0  0  0  0  0  0  0  0  0
   16.1742  -25.2561  -11.7800 O   0  0  0  0  0  0  0  0  0  0  0  0
  2  1  1  1
  2  3  1  0
  2  7  1  0
  4  3  1  0
  4  5  1  0
  5  6  2  0
  7  8  2  0
  9  5  1  0
 10 11  1  0
 11 12  2  0
 13 11  1  0
 13 14  1  0
 15 14  1  6
 16  7  1  0
 16 15  1  0
 17 15  1  0
 17 18  2  0
 19 17  1  0
 20 25  1  0
 20 19  1  0
 20 21  1  1
 22 21  1  0
 23 27  1  0
 23 22  1  0
 24 23  2  0
 25 28  1  0
 26 25  2  0
M  END
$$$$
