EQE.pdb
     RDKit          3D

 28 27  0  0  1  0  0  0  0  0999 V2000
   18.9392  -11.5626  -14.6231 N   0  0  0  0  0  0  0  0  0  0  0  0
   19.7458  -11.1448  -15.7685 C   0  0  1  0  0  0  0  0  0  0  0  0
   18.7941  -10.5774  -16.7691 C   0  0  0  0  0  0  0  0  0  0  0  0
   17.8024  -11.5702  -17.3244 C   0  0  0  0  0  0  0  0  0  0  0  0
   16.9750  -10.8418  -18.3042 C   0  0  0  0  0  0  0  0  0  0  0  0
   15.8949  -11.3407  -18.6921 O   0  0  0  0  0  0  0  0  0  0  0  0
   20.7761  -10.2079  -15.2963 C   0  0  0  0  0  0  0  0  0  0  0  0
   20.5208   -9.4489  -14.2943 O   0  0  0  0  0  0  0  0  0  0  0  0
   17.3835   -9.6189  -18.7873 O   0  0  0  0  0  0  0  0  0  0  0  0
   26.9095  -10.5728  -16.3776 N   0  0  0  0  0  0  0  0  0  0  0  0
   26.0768  -11.2041  -15.4155 C   0  0  0  0  0  0  0  0  0  0  0  0
   26.5351  -12.2503  -14.8543 O   0  0  0  0  0  0  0  0  0  0  0  0
   24.7520  -10.6824  -15.0798 C   0  0  0  0  0  0  0  0  0  0  0  0
   24.3419   -9.4427  -15.8210 C   0  0  0  0  0  0  0  0  0  0  0  0
   22.9415   -9.0454  -15.3993 C   0  0  2  0  0  0  0  0  0  0  0  0
   22.0603  -10.0911  -15.8943 N   0  0  0  0  0  0  0  0  0  0  0  0
   22.5383   -7.7562  -16.0117 C   0  0  0  0  0  0  0  0  0  0  0  0
   22.1133   -7.7258  -17.1959 O   0  0  0  0  0  0  0  0  0  0  0  0
   22.6241   -6.5741  -15.2895 N   0  0  0  0  0  0  0  0  0  0  0  0
   22.0744   -5.2670  -15.7315 C   0  0  1  0  0  0  0  0  0  0  0  0
   20.6129   -5.5157  -15.8221 C   0  0  0  0  0  0  0  0  0  0  0  0
   19.6924   -4.4026  -16.0806 C   0  0  0  0  0  0  0  0  0  0  0  0
   18.2784   -4.7937  -15.9584 C   0  0  0  0  0  0  0  0  0  0  0  0
   17.7807   -4.9165  -14.8068 O   0  0  0  0  0  0  0  0  0  0  0  0
   22.5819   -4.2399  -14.8449 C   0  0  0  0  0  0  0  0  0  0  0  0
   22.9880   -4.5824  -13.6753 O   0  0  0  0  0  0  0  0  0  0  0  0
   17.4397   -5.0415  -17.0231 O   0  0  0  0  0  0  0  0  0  0  0  0
   22.6869   -2.8797  -15.1205 O   0  0  0  0  0  0  0  0  0  0  0  0
  2  1  1  1
  2  3  1  0
  2  7  1  0
  4  3  1  0
  4  5  1  0
  5  6  2  0
  7  8  2  0
  9  5  1  0
 10 11  1  0
 11 12  2  0
 13 11  1  0
 13 14  1  0
 15 14  1  6
 16  7  1  0
 16 15  1  0
 17 15  1  0
 17 18  2  0
 19 17  1  0
 20 25  1  0
 20 19  1  0
 20 21  1  1
 22 21  1  0
 23 27  1  0
 23 22  1  0
 24 23  2  0
 25 28  1  0
 26 25  2  0
M  END
$$$$
