EQE.pdb
     RDKit          3D

 28 27  0  0  1  0  0  0  0  0999 V2000
   17.9828  -12.9374  -15.0722 N   0  0  0  0  0  0  0  0  0  0  0  0
   18.3977  -11.9368  -16.0539 C   0  0  1  0  0  0  0  0  0  0  0  0
   17.1940  -11.1005  -16.3372 C   0  0  0  0  0  0  0  0  0  0  0  0
   16.0740  -11.8304  -17.0375 C   0  0  0  0  0  0  0  0  0  0  0  0
   14.9593  -10.8735  -17.1681 C   0  0  0  0  0  0  0  0  0  0  0  0
   14.8462  -10.1966  -18.2146 O   0  0  0  0  0  0  0  0  0  0  0  0
   19.5478  -11.1991  -15.5103 C   0  0  0  0  0  0  0  0  0  0  0  0
   19.5047  -10.7746  -14.3007 O   0  0  0  0  0  0  0  0  0  0  0  0
   14.0451  -10.7269  -16.1489 O   0  0  0  0  0  0  0  0  0  0  0  0
   25.7059  -11.8034  -16.8208 N   0  0  0  0  0  0  0  0  0  0  0  0
   25.5791  -10.8199  -15.8038 C   0  0  0  0  0  0  0  0  0  0  0  0
   26.6572  -10.3738  -15.2956 O   0  0  0  0  0  0  0  0  0  0  0  0
   24.2732  -10.3369  -15.3553 C   0  0  0  0  0  0  0  0  0  0  0  0
   23.0896  -10.9315  -16.0623 C   0  0  0  0  0  0  0  0  0  0  0  0
   21.8220  -10.2634  -15.5690 C   0  0  2  0  0  0  0  0  0  0  0  0
   20.7246  -10.9236  -16.2582 N   0  0  0  0  0  0  0  0  0  0  0  0
   21.8010   -8.8216  -15.9161 C   0  0  0  0  0  0  0  0  0  0  0  0
   21.5996   -8.4618  -17.1052 O   0  0  0  0  0  0  0  0  0  0  0  0
   22.0018   -7.8571  -14.9385 N   0  0  0  0  0  0  0  0  0  0  0  0
   21.8432   -6.3946  -15.1432 C   0  0  1  0  0  0  0  0  0  0  0  0
   20.4203   -6.2506  -15.5441 C   0  0  0  0  0  0  0  0  0  0  0  0
   19.7778   -4.9317  -15.5138 C   0  0  0  0  0  0  0  0  0  0  0  0
   18.4507   -4.9308  -16.1510 C   0  0  0  0  0  0  0  0  0  0  0  0
   18.0154   -6.0050  -16.6467 O   0  0  0  0  0  0  0  0  0  0  0  0
   22.3360   -5.7166  -13.9617 C   0  0  0  0  0  0  0  0  0  0  0  0
   22.4680   -4.4392  -13.9955 O   0  0  0  0  0  0  0  0  0  0  0  0
   17.6309   -3.8280  -16.2511 O   0  0  0  0  0  0  0  0  0  0  0  0
   22.6937   -6.3051  -12.7523 O   0  0  0  0  0  0  0  0  0  0  0  0
  2  1  1  1
  2  3  1  0
  2  7  1  0
  4  3  1  0
  4  5  1  0
  5  6  2  0
  7  8  2  0
  9  5  1  0
 10 11  1  0
 11 12  2  0
 13 11  1  0
 13 14  1  0
 15 14  1  6
 16  7  1  0
 16 15  1  0
 17 15  1  0
 17 18  2  0
 19 17  1  0
 20 25  1  0
 20 19  1  0
 20 21  1  1
 22 21  1  0
 23 27  1  0
 23 22  1  0
 24 23  2  0
 25 28  1  0
 26 25  2  0
M  END
$$$$
