EQE.pdb
     RDKit          3D

 28 27  0  0  1  0  0  0  0  0999 V2000
   17.1185  -14.8483  -15.9391 N   0  0  0  0  0  0  0  0  0  0  0  0
   17.0427  -13.4461  -16.3457 C   0  0  1  0  0  0  0  0  0  0  0  0
   15.8844  -12.8568  -15.6110 C   0  0  0  0  0  0  0  0  0  0  0  0
   14.5351  -13.3658  -16.0557 C   0  0  0  0  0  0  0  0  0  0  0  0
   13.5274  -12.6807  -15.2247 C   0  0  0  0  0  0  0  0  0  0  0  0
   12.7314  -13.3579  -14.5362 O   0  0  0  0  0  0  0  0  0  0  0  0
   18.3386  -12.8093  -16.0676 C   0  0  0  0  0  0  0  0  0  0  0  0
   18.9634  -13.1058  -14.9874 O   0  0  0  0  0  0  0  0  0  0  0  0
   13.4633  -11.3056  -15.2012 O   0  0  0  0  0  0  0  0  0  0  0  0
   23.1835  -12.6384  -19.4308 N   0  0  0  0  0  0  0  0  0  0  0  0
   22.0374  -11.8903  -19.8109 C   0  0  0  0  0  0  0  0  0  0  0  0
   21.9625  -11.5294  -21.0290 O   0  0  0  0  0  0  0  0  0  0  0  0
   20.9874  -11.5459  -18.8524 C   0  0  0  0  0  0  0  0  0  0  0  0
   21.2733  -11.9135  -17.4250 C   0  0  0  0  0  0  0  0  0  0  0  0
   20.2216  -11.2945  -16.5265 C   0  0  2  0  0  0  0  0  0  0  0  0
   18.9508  -11.8685  -16.9396 N   0  0  0  0  0  0  0  0  0  0  0  0
   20.1575   -9.8234  -16.7040 C   0  0  0  0  0  0  0  0  0  0  0  0
   19.3654   -9.3232  -17.5444 O   0  0  0  0  0  0  0  0  0  0  0  0
   20.9659   -8.9852  -15.9488 N   0  0  0  0  0  0  0  0  0  0  0  0
   20.9831   -7.5036  -16.0508 C   0  0  1  0  0  0  0  0  0  0  0  0
   21.5196   -7.0695  -14.7355 C   0  0  0  0  0  0  0  0  0  0  0  0
   21.7222   -5.6427  -14.4589 C   0  0  0  0  0  0  0  0  0  0  0  0
   22.3866   -5.4026  -13.1673 C   0  0  0  0  0  0  0  0  0  0  0  0
   22.7598   -4.2318  -12.8860 O   0  0  0  0  0  0  0  0  0  0  0  0
   21.6748   -7.1424  -17.2712 C   0  0  0  0  0  0  0  0  0  0  0  0
   21.3808   -6.0277  -17.8381 O   0  0  0  0  0  0  0  0  0  0  0  0
   22.6381   -6.3742  -12.2235 O   0  0  0  0  0  0  0  0  0  0  0  0
   22.6551   -7.8844  -17.9235 O   0  0  0  0  0  0  0  0  0  0  0  0
  2  1  1  1
  2  3  1  0
  2  7  1  0
  4  3  1  0
  4  5  1  0
  5  6  2  0
  7  8  2  0
  9  5  1  0
 10 11  1  0
 11 12  2  0
 13 11  1  0
 13 14  1  0
 15 14  1  6
 16  7  1  0
 16 15  1  0
 17 15  1  0
 17 18  2  0
 19 17  1  0
 20 25  1  0
 20 19  1  0
 20 21  1  1
 22 21  1  0
 23 27  1  0
 23 22  1  0
 24 23  2  0
 25 28  1  0
 26 25  2  0
M  END
$$$$
