EQE.pdb
     RDKit          3D

 28 27  0  0  1  0  0  0  0  0999 V2000
   20.8901   -6.9099  -17.6297 N   0  0  0  0  0  0  0  0  0  0  0  0
   22.1192   -7.1684  -16.8816 C   0  0  1  0  0  0  0  0  0  0  0  0
   21.7534   -7.1037  -15.4356 C   0  0  0  0  0  0  0  0  0  0  0  0
   20.6040   -7.9976  -15.0389 C   0  0  0  0  0  0  0  0  0  0  0  0
   20.2514   -7.6456  -13.6507 C   0  0  0  0  0  0  0  0  0  0  0  0
   19.3706   -6.7825  -13.4375 O   0  0  0  0  0  0  0  0  0  0  0  0
   22.6703   -8.4587  -17.3217 C   0  0  0  0  0  0  0  0  0  0  0  0
   22.1074   -9.0825  -18.2908 O   0  0  0  0  0  0  0  0  0  0  0  0
   20.8820   -8.2640  -12.5945 O   0  0  0  0  0  0  0  0  0  0  0  0
   28.1168  -11.5641  -15.6692 N   0  0  0  0  0  0  0  0  0  0  0  0
   27.4521  -12.3088  -16.6797 C   0  0  0  0  0  0  0  0  0  0  0  0
   28.0341  -13.3605  -17.0979 O   0  0  0  0  0  0  0  0  0  0  0  0
   26.1580  -11.8928  -17.2205 C   0  0  0  0  0  0  0  0  0  0  0  0
   25.6113  -10.6093  -16.6656 C   0  0  0  0  0  0  0  0  0  0  0  0
   24.2373  -10.3535  -17.2515 C   0  0  2  0  0  0  0  0  0  0  0  0
   23.8093   -9.0664  -16.7269 N   0  0  0  0  0  0  0  0  0  0  0  0
   23.2654  -11.3880  -16.8211 C   0  0  0  0  0  0  0  0  0  0  0  0
   22.7978  -11.3671  -15.6529 O   0  0  0  0  0  0  0  0  0  0  0  0
   22.8621  -12.3859  -17.6973 N   0  0  0  0  0  0  0  0  0  0  0  0
   21.9281  -13.4891  -17.3561 C   0  0  1  0  0  0  0  0  0  0  0  0
   20.6369  -13.0472  -17.9425 C   0  0  0  0  0  0  0  0  0  0  0  0
   19.4447  -13.8934  -17.8172 C   0  0  0  0  0  0  0  0  0  0  0  0
   18.2799  -13.3440  -18.5304 C   0  0  0  0  0  0  0  0  0  0  0  0
   17.5959  -12.4445  -17.9718 O   0  0  0  0  0  0  0  0  0  0  0  0
   22.5281  -14.7373  -17.7808 C   0  0  0  0  0  0  0  0  0  0  0  0
   23.2322  -14.7473  -18.8552 O   0  0  0  0  0  0  0  0  0  0  0  0
   17.8696  -13.7427  -19.7838 O   0  0  0  0  0  0  0  0  0  0  0  0
   22.4305  -15.9687  -17.1395 O   0  0  0  0  0  0  0  0  0  0  0  0
  2  1  1  6
  2  3  1  0
  2  7  1  0
  4  3  1  0
  4  5  1  0
  5  6  2  0
  7  8  2  0
  9  5  1  0
 10 11  1  0
 11 12  2  0
 13 11  1  0
 13 14  1  0
 15 14  1  1
 16  7  1  0
 16 15  1  0
 17 15  1  0
 17 18  2  0
 19 17  1  0
 20 25  1  0
 20 19  1  0
 20 21  1  6
 22 21  1  0
 23 27  1  0
 23 22  1  0
 24 23  2  0
 25 28  1  0
 26 25  2  0
M  END
$$$$
