EQE.pdb
     RDKit          3D

 28 27  0  0  1  0  0  0  0  0999 V2000
   15.1251  -11.1202  -17.1745 N   0  0  0  0  0  0  0  0  0  0  0  0
   15.7567  -10.9048  -15.8737 C   0  0  1  0  0  0  0  0  0  0  0  0
   16.7564  -12.0005  -15.7045 C   0  0  0  0  0  0  0  0  0  0  0  0
   16.1579  -13.3774  -15.5517 C   0  0  0  0  0  0  0  0  0  0  0  0
   17.2845  -14.3146  -15.3853 C   0  0  0  0  0  0  0  0  0  0  0  0
   17.7930  -14.8537  -16.3938 O   0  0  0  0  0  0  0  0  0  0  0  0
   16.3192   -9.5464  -15.8478 C   0  0  0  0  0  0  0  0  0  0  0  0
   16.7022   -9.0060  -16.9462 O   0  0  0  0  0  0  0  0  0  0  0  0
   17.7785  -14.5929  -14.1306 O   0  0  0  0  0  0  0  0  0  0  0  0
   12.8427   -7.4803  -15.8556 N   0  0  0  0  0  0  0  0  0  0  0  0
   13.7129   -7.1610  -14.7792 C   0  0  0  0  0  0  0  0  0  0  0  0
   13.4601   -7.6998  -13.6543 O   0  0  0  0  0  0  0  0  0  0  0  0
   14.8492   -6.2553  -14.9476 C   0  0  0  0  0  0  0  0  0  0  0  0
   16.0279   -6.5295  -14.0588 C   0  0  0  0  0  0  0  0  0  0  0  0
   17.0022   -7.4371  -14.7824 C   0  0  2  0  0  0  0  0  0  0  0  0
   16.4666   -8.7835  -14.6577 N   0  0  0  0  0  0  0  0  0  0  0  0
   18.3444   -7.4005  -14.1523 C   0  0  0  0  0  0  0  0  0  0  0  0
   18.6472   -8.2385  -13.2635 O   0  0  0  0  0  0  0  0  0  0  0  0
   19.2777   -6.4468  -14.5339 N   0  0  0  0  0  0  0  0  0  0  0  0
   20.6950   -6.4205  -14.0907 C   0  0  1  0  0  0  0  0  0  0  0  0
   21.2902   -7.6086  -14.7543 C   0  0  0  0  0  0  0  0  0  0  0  0
   22.7141   -7.9147  -14.5747 C   0  0  0  0  0  0  0  0  0  0  0  0
   23.1524   -9.0708  -15.3737 C   0  0  0  0  0  0  0  0  0  0  0  0
   23.9298   -8.8756  -16.3466 O   0  0  0  0  0  0  0  0  0  0  0  0
   21.2272   -5.0994  -14.3553 C   0  0  0  0  0  0  0  0  0  0  0  0
   20.6824   -4.3900  -15.2773 O   0  0  0  0  0  0  0  0  0  0  0  0
   22.7731  -10.3743  -15.1384 O   0  0  0  0  0  0  0  0  0  0  0  0
   22.2940   -4.4860  -13.7051 O   0  0  0  0  0  0  0  0  0  0  0  0
  2  1  1  6
  2  3  1  0
  2  7  1  0
  4  3  1  0
  4  5  1  0
  5  6  2  0
  7  8  2  0
  9  5  1  0
 10 11  1  0
 11 12  2  0
 13 11  1  0
 13 14  1  0
 15 14  1  1
 16  7  1  0
 16 15  1  0
 17 15  1  0
 17 18  2  0
 19 17  1  0
 20 25  1  0
 20 19  1  0
 20 21  1  6
 22 21  1  0
 23 27  1  0
 23 22  1  0
 24 23  2  0
 25 28  1  0
 26 25  2  0
M  END
$$$$
