EQE.pdb
     RDKit          3D

 28 27  0  0  1  0  0  0  0  0999 V2000
   20.1800  -15.1003  -16.1849 N   0  0  0  0  0  0  0  0  0  0  0  0
   19.4768  -13.9251  -16.6965 C   0  0  1  0  0  0  0  0  0  0  0  0
   18.2388  -13.7841  -15.8742 C   0  0  0  0  0  0  0  0  0  0  0  0
   17.2246  -14.8836  -16.0742 C   0  0  0  0  0  0  0  0  0  0  0  0
   16.0592  -14.5444  -15.2363 C   0  0  0  0  0  0  0  0  0  0  0  0
   15.6345  -15.3765  -14.4036 O   0  0  0  0  0  0  0  0  0  0  0  0
   20.3900  -12.7739  -16.6396 C   0  0  0  0  0  0  0  0  0  0  0  0
   20.8953  -12.4303  -15.5118 O   0  0  0  0  0  0  0  0  0  0  0  0
   15.4432  -13.3196  -15.3642 O   0  0  0  0  0  0  0  0  0  0  0  0
   24.7378  -10.6492  -20.6377 N   0  0  0  0  0  0  0  0  0  0  0  0
   24.6601   -9.7084  -19.5763 C   0  0  0  0  0  0  0  0  0  0  0  0
   25.5612   -8.8108  -19.5343 O   0  0  0  0  0  0  0  0  0  0  0  0
   23.5965   -9.7622  -18.5733 C   0  0  0  0  0  0  0  0  0  0  0  0
   22.6283  -10.9001  -18.7223 C   0  0  0  0  0  0  0  0  0  0  0  0
   21.6401  -10.8725  -17.5738 C   0  0  2  0  0  0  0  0  0  0  0  0
   20.7524  -12.0060  -17.7794 N   0  0  0  0  0  0  0  0  0  0  0  0
   20.8320   -9.6289  -17.5862 C   0  0  0  0  0  0  0  0  0  0  0  0
   20.0550   -9.3910  -18.5473 O   0  0  0  0  0  0  0  0  0  0  0  0
   20.9223   -8.7177  -16.5432 N   0  0  0  0  0  0  0  0  0  0  0  0
   20.0883   -7.4963  -16.4079 C   0  0  1  0  0  0  0  0  0  0  0  0
   18.8361   -7.9961  -15.7847 C   0  0  0  0  0  0  0  0  0  0  0  0
   18.6798   -7.9702  -14.3259 C   0  0  0  0  0  0  0  0  0  0  0  0
   17.3527   -8.4331  -13.8878 C   0  0  0  0  0  0  0  0  0  0  0  0
   17.2797   -9.4501  -13.1464 O   0  0  0  0  0  0  0  0  0  0  0  0
   20.8769   -6.4820  -15.7387 C   0  0  0  0  0  0  0  0  0  0  0  0
   22.0566   -6.7883  -15.3329 O   0  0  0  0  0  0  0  0  0  0  0  0
   16.1613   -7.8321  -14.2304 O   0  0  0  0  0  0  0  0  0  0  0  0
   20.4954   -5.1695  -15.4763 O   0  0  0  0  0  0  0  0  0  0  0  0
  2  1  1  1
  2  3  1  0
  2  7  1  0
  4  3  1  0
  4  5  1  0
  5  6  2  0
  7  8  2  0
  9  5  1  0
 10 11  1  0
 11 12  2  0
 13 11  1  0
 13 14  1  0
 15 14  1  6
 16  7  1  0
 16 15  1  0
 17 15  1  0
 17 18  2  0
 19 17  1  0
 20 25  1  0
 20 19  1  0
 20 21  1  1
 22 21  1  0
 23 27  1  0
 23 22  1  0
 24 23  2  0
 25 28  1  0
 26 25  2  0
M  END
$$$$
