EQE.pdb
     RDKit          3D

 28 27  0  0  1  0  0  0  0  0999 V2000
   13.5318  -11.9746  -11.2503 N   0  0  0  0  0  0  0  0  0  0  0  0
   14.8649  -11.3764  -11.2013 C   0  0  1  0  0  0  0  0  0  0  0  0
   15.6129  -11.9183  -12.3741 C   0  0  0  0  0  0  0  0  0  0  0  0
   15.9540  -13.3852  -12.2771 C   0  0  0  0  0  0  0  0  0  0  0  0
   16.6934  -13.7319  -13.5053 C   0  0  0  0  0  0  0  0  0  0  0  0
   16.0900  -14.2792  -14.4552 O   0  0  0  0  0  0  0  0  0  0  0  0
   14.7191   -9.9133  -11.1846 C   0  0  0  0  0  0  0  0  0  0  0  0
   13.9391   -9.3517  -12.0339 O   0  0  0  0  0  0  0  0  0  0  0  0
   18.0375  -13.4523  -13.6105 O   0  0  0  0  0  0  0  0  0  0  0  0
   14.9335   -5.9236   -6.2943 N   0  0  0  0  0  0  0  0  0  0  0  0
   14.7442   -5.1358   -7.4609 C   0  0  0  0  0  0  0  0  0  0  0  0
   14.5042   -3.8980   -7.2880 O   0  0  0  0  0  0  0  0  0  0  0  0
   14.8198   -5.7129   -8.8030 C   0  0  0  0  0  0  0  0  0  0  0  0
   15.0888   -7.1892   -8.8545 C   0  0  0  0  0  0  0  0  0  0  0  0
   15.0923   -7.6492  -10.2984 C   0  0  2  0  0  0  0  0  0  0  0  0
   15.4029   -9.0696  -10.2675 N   0  0  0  0  0  0  0  0  0  0  0  0
   16.1387   -6.9520  -11.0849 C   0  0  0  0  0  0  0  0  0  0  0  0
   17.3555   -7.1588  -10.8390 O   0  0  0  0  0  0  0  0  0  0  0  0
   15.7901   -6.0680  -12.0965 N   0  0  0  0  0  0  0  0  0  0  0  0
   16.7530   -5.2595  -12.8870 C   0  0  1  0  0  0  0  0  0  0  0  0
   16.1128   -5.1629  -14.2238 C   0  0  0  0  0  0  0  0  0  0  0  0
   16.7040   -4.3112  -15.2622 C   0  0  0  0  0  0  0  0  0  0  0  0
   15.9655   -4.3699  -16.5344 C   0  0  0  0  0  0  0  0  0  0  0  0
   16.3374   -3.6314  -17.4860 O   0  0  0  0  0  0  0  0  0  0  0  0
   17.0548   -4.0564  -12.1387 C   0  0  0  0  0  0  0  0  0  0  0  0
   16.1552   -3.5757  -11.3577 O   0  0  0  0  0  0  0  0  0  0  0  0
   14.8790   -5.1830  -16.7724 O   0  0  0  0  0  0  0  0  0  0  0  0
   18.2454   -3.3361  -12.1651 O   0  0  0  0  0  0  0  0  0  0  0  0
  2  1  1  6
  2  3  1  0
  2  7  1  0
  4  3  1  0
  4  5  1  0
  5  6  2  0
  7  8  2  0
  9  5  1  0
 10 11  1  0
 11 12  2  0
 13 11  1  0
 13 14  1  0
 15 14  1  1
 16  7  1  0
 16 15  1  0
 17 15  1  0
 17 18  2  0
 19 17  1  0
 20 25  1  0
 20 19  1  0
 20 21  1  6
 22 21  1  0
 23 27  1  0
 23 22  1  0
 24 23  2  0
 25 28  1  0
 26 25  2  0
M  END
$$$$
