EQE.pdb
     RDKit          3D

 28 27  0  0  1  0  0  0  0  0999 V2000
   18.6089  -12.2096  -17.0246 N   0  0  0  0  0  0  0  0  0  0  0  0
   19.3676  -11.2449  -17.8189 C   0  0  1  0  0  0  0  0  0  0  0  0
   18.3704  -10.2888  -18.3849 C   0  0  0  0  0  0  0  0  0  0  0  0
   17.6676  -10.7781  -19.6275 C   0  0  0  0  0  0  0  0  0  0  0  0
   18.5179  -10.4027  -20.7725 C   0  0  0  0  0  0  0  0  0  0  0  0
   18.9973  -11.2972  -21.5048 O   0  0  0  0  0  0  0  0  0  0  0  0
   20.3897  -10.6326  -16.9571 C   0  0  0  0  0  0  0  0  0  0  0  0
   20.0626  -10.2362  -15.7819 O   0  0  0  0  0  0  0  0  0  0  0  0
   18.7807   -9.0777  -21.0391 O   0  0  0  0  0  0  0  0  0  0  0  0
   26.7395  -11.3176  -16.9635 N   0  0  0  0  0  0  0  0  0  0  0  0
   26.3965  -10.4378  -15.9024 C   0  0  0  0  0  0  0  0  0  0  0  0
   27.3376  -10.0776  -15.1252 O   0  0  0  0  0  0  0  0  0  0  0  0
   25.0268   -9.9634  -15.7049 C   0  0  0  0  0  0  0  0  0  0  0  0
   24.0100  -10.5167  -16.6610 C   0  0  0  0  0  0  0  0  0  0  0  0
   22.6613   -9.8849  -16.3811 C   0  0  2  0  0  0  0  0  0  0  0  0
   21.7418  -10.4506  -17.3557 N   0  0  0  0  0  0  0  0  0  0  0  0
   22.7045   -8.4142  -16.5678 C   0  0  0  0  0  0  0  0  0  0  0  0
   23.0975   -7.9282  -17.6602 O   0  0  0  0  0  0  0  0  0  0  0  0
   22.3135   -7.5609  -15.5454 N   0  0  0  0  0  0  0  0  0  0  0  0
   22.3548   -6.0779  -15.6145 C   0  0  1  0  0  0  0  0  0  0  0  0
   21.0153   -5.7157  -16.1443 C   0  0  0  0  0  0  0  0  0  0  0  0
   20.5276   -4.3365  -16.0295 C   0  0  0  0  0  0  0  0  0  0  0  0
   20.1292   -3.7644  -17.3262 C   0  0  0  0  0  0  0  0  0  0  0  0
   19.9240   -4.5440  -18.2954 O   0  0  0  0  0  0  0  0  0  0  0  0
   22.7845   -5.5769  -14.3250 C   0  0  0  0  0  0  0  0  0  0  0  0
   23.3757   -4.4375  -14.2735 O   0  0  0  0  0  0  0  0  0  0  0  0
   19.9598   -2.4190  -17.5695 O   0  0  0  0  0  0  0  0  0  0  0  0
   22.6253   -6.2043  -13.0929 O   0  0  0  0  0  0  0  0  0  0  0  0
  2  1  1  1
  2  3  1  0
  2  7  1  0
  4  3  1  0
  4  5  1  0
  5  6  2  0
  7  8  2  0
  9  5  1  0
 10 11  1  0
 11 12  2  0
 13 11  1  0
 13 14  1  0
 15 14  1  6
 16  7  1  0
 16 15  1  0
 17 15  1  0
 17 18  2  0
 19 17  1  0
 20 25  1  0
 20 19  1  0
 20 21  1  1
 22 21  1  0
 23 27  1  0
 23 22  1  0
 24 23  2  0
 25 28  1  0
 26 25  2  0
M  END
$$$$
