EQE.pdb
     RDKit          3D

 28 27  0  0  1  0  0  0  0  0999 V2000
   26.4983  -12.7085  -16.3245 N   0  0  0  0  0  0  0  0  0  0  0  0
   26.5145  -11.3798  -15.7150 C   0  0  1  0  0  0  0  0  0  0  0  0
   27.8905  -10.8387  -15.9215 C   0  0  0  0  0  0  0  0  0  0  0  0
   28.2951  -10.6892  -17.3677 C   0  0  0  0  0  0  0  0  0  0  0  0
   29.6728  -10.1628  -17.3713 C   0  0  0  0  0  0  0  0  0  0  0  0
   30.5577  -10.7536  -18.0302 O   0  0  0  0  0  0  0  0  0  0  0  0
   25.4390  -10.5776  -16.3168 C   0  0  0  0  0  0  0  0  0  0  0  0
   24.8716  -10.9944  -17.3890 O   0  0  0  0  0  0  0  0  0  0  0  0
   29.9854   -9.0266  -16.6592 O   0  0  0  0  0  0  0  0  0  0  0  0
   20.4787  -11.1793  -15.1801 N   0  0  0  0  0  0  0  0  0  0  0  0
   21.0971  -10.2547  -14.2968 C   0  0  0  0  0  0  0  0  0  0  0  0
   20.6142  -10.1679  -13.1226 O   0  0  0  0  0  0  0  0  0  0  0  0
   22.2367   -9.4359  -14.7102 C   0  0  0  0  0  0  0  0  0  0  0  0
   22.6518   -9.5883  -16.1450 C   0  0  0  0  0  0  0  0  0  0  0  0
   23.8505   -8.7022  -16.4180 C   0  0  2  0  0  0  0  0  0  0  0  0
   24.9829   -9.3467  -15.7719 N   0  0  0  0  0  0  0  0  0  0  0  0
   23.6714   -7.3539  -15.8267 C   0  0  0  0  0  0  0  0  0  0  0  0
   24.0632   -7.1225  -14.6533 O   0  0  0  0  0  0  0  0  0  0  0  0
   23.0731   -6.3365  -16.5569 N   0  0  0  0  0  0  0  0  0  0  0  0
   22.9353   -4.9304  -16.0990 C   0  0  1  0  0  0  0  0  0  0  0  0
   22.3988   -4.2259  -17.2915 C   0  0  0  0  0  0  0  0  0  0  0  0
   20.9624   -3.9444  -17.3946 C   0  0  0  0  0  0  0  0  0  0  0  0
   20.6060   -3.2571  -18.6468 C   0  0  0  0  0  0  0  0  0  0  0  0
   21.5143   -3.0205  -19.4883 O   0  0  0  0  0  0  0  0  0  0  0  0
   22.1869   -4.9299  -14.8587 C   0  0  0  0  0  0  0  0  0  0  0  0
   21.3025   -5.8430  -14.6734 O   0  0  0  0  0  0  0  0  0  0  0  0
   19.3343   -2.8434  -18.9784 O   0  0  0  0  0  0  0  0  0  0  0  0
   22.3186   -4.0277  -13.8071 O   0  0  0  0  0  0  0  0  0  0  0  0
  2  1  1  6
  2  3  1  0
  2  7  1  0
  4  3  1  0
  4  5  1  0
  5  6  2  0
  7  8  2  0
  9  5  1  0
 10 11  1  0
 11 12  2  0
 13 11  1  0
 13 14  1  0
 15 14  1  1
 16  7  1  0
 16 15  1  0
 17 15  1  0
 17 18  2  0
 19 17  1  0
 20 25  1  0
 20 19  1  0
 20 21  1  6
 22 21  1  0
 23 27  1  0
 23 22  1  0
 24 23  2  0
 25 28  1  0
 26 25  2  0
M  END
$$$$
