EQE.pdb
     RDKit          3D

 28 27  0  0  1  0  0  0  0  0999 V2000
   14.3707  -13.0215  -16.8525 N   0  0  0  0  0  0  0  0  0  0  0  0
   14.8974  -12.3541  -15.6632 C   0  0  1  0  0  0  0  0  0  0  0  0
   15.4101  -13.4327  -14.7674 C   0  0  0  0  0  0  0  0  0  0  0  0
   16.0395  -14.5998  -15.4879 C   0  0  0  0  0  0  0  0  0  0  0  0
   16.3925  -15.5948  -14.4580 C   0  0  0  0  0  0  0  0  0  0  0  0
   15.7883  -16.6903  -14.4254 O   0  0  0  0  0  0  0  0  0  0  0  0
   15.9066  -11.3726  -16.0878 C   0  0  0  0  0  0  0  0  0  0  0  0
   17.0143  -11.7876  -16.5838 O   0  0  0  0  0  0  0  0  0  0  0  0
   17.3825  -15.3248  -13.5401 O   0  0  0  0  0  0  0  0  0  0  0  0
   13.8391   -6.5978  -19.4385 N   0  0  0  0  0  0  0  0  0  0  0  0
   13.9423   -7.7658  -18.6368 C   0  0  0  0  0  0  0  0  0  0  0  0
   13.1793   -8.7395  -18.9357 O   0  0  0  0  0  0  0  0  0  0  0  0
   14.8795   -7.8535  -17.5170 C   0  0  0  0  0  0  0  0  0  0  0  0
   16.1808   -8.5389  -17.8191 C   0  0  0  0  0  0  0  0  0  0  0  0
   16.7574   -9.1090  -16.5388 C   0  0  2  0  0  0  0  0  0  0  0  0
   15.7249   -9.9670  -15.9795 N   0  0  0  0  0  0  0  0  0  0  0  0
   17.0646   -8.0374  -15.5606 C   0  0  0  0  0  0  0  0  0  0  0  0
   16.2920   -7.8294  -14.5892 O   0  0  0  0  0  0  0  0  0  0  0  0
   18.2024   -7.2555  -15.7040 N   0  0  0  0  0  0  0  0  0  0  0  0
   18.6176   -6.1803  -14.7674 C   0  0  1  0  0  0  0  0  0  0  0  0
   20.0780   -6.4000  -14.6092 C   0  0  0  0  0  0  0  0  0  0  0  0
   20.8673   -5.5073  -13.7528 C   0  0  0  0  0  0  0  0  0  0  0  0
   22.2992   -5.8490  -13.7418 C   0  0  0  0  0  0  0  0  0  0  0  0
   23.1188   -5.0114  -13.2771 O   0  0  0  0  0  0  0  0  0  0  0  0
   18.1254   -4.9183  -15.2807 C   0  0  0  0  0  0  0  0  0  0  0  0
   18.0398   -4.7631  -16.5530 O   0  0  0  0  0  0  0  0  0  0  0  0
   22.8252   -7.0339  -14.2083 O   0  0  0  0  0  0  0  0  0  0  0  0
   17.7184   -3.8172  -14.5330 O   0  0  0  0  0  0  0  0  0  0  0  0
  2  1  1  6
  2  3  1  0
  2  7  1  0
  4  3  1  0
  4  5  1  0
  5  6  2  0
  7  8  2  0
  9  5  1  0
 10 11  1  0
 11 12  2  0
 13 11  1  0
 13 14  1  0
 15 14  1  6
 16  7  1  0
 16 15  1  0
 17 15  1  0
 17 18  2  0
 19 17  1  0
 20 25  1  0
 20 19  1  0
 20 21  1  6
 22 21  1  0
 23 27  1  0
 23 22  1  0
 24 23  2  0
 25 28  1  0
 26 25  2  0
M  END
$$$$
