EQE.pdb
     RDKit          3D

 28 27  0  0  1  0  0  0  0  0999 V2000
   24.6707  -23.5803  -15.1685 N   0  0  0  0  0  0  0  0  0  0  0  0
   23.2282  -23.7397  -15.3441 C   0  0  1  0  0  0  0  0  0  0  0  0
   22.9808  -25.2051  -15.4862 C   0  0  0  0  0  0  0  0  0  0  0  0
   23.6822  -25.8489  -16.6570 C   0  0  0  0  0  0  0  0  0  0  0  0
   23.2920  -27.2712  -16.6567 C   0  0  0  0  0  0  0  0  0  0  0  0
   23.9748  -28.0985  -16.0121 O   0  0  0  0  0  0  0  0  0  0  0  0
   22.5470  -23.1063  -14.2053 C   0  0  0  0  0  0  0  0  0  0  0  0
   23.1178  -23.1034  -13.0566 O   0  0  0  0  0  0  0  0  0  0  0  0
   22.1818  -27.6882  -17.3563 O   0  0  0  0  0  0  0  0  0  0  0  0
   19.5020  -20.0686  -10.7477 N   0  0  0  0  0  0  0  0  0  0  0  0
   20.5543  -19.2979  -11.3101 C   0  0  0  0  0  0  0  0  0  0  0  0
   21.0920  -18.4219  -10.5597 O   0  0  0  0  0  0  0  0  0  0  0  0
   21.0049  -19.4954  -12.6878 C   0  0  0  0  0  0  0  0  0  0  0  0
   20.2373  -20.5173  -13.4757 C   0  0  0  0  0  0  0  0  0  0  0  0
   20.7104  -21.9054  -13.0937 C   0  0  2  0  0  0  0  0  0  0  0  0
   21.2717  -22.4863  -14.3030 N   0  0  0  0  0  0  0  0  0  0  0  0
   19.5825  -22.7545  -12.6391 C   0  0  0  0  0  0  0  0  0  0  0  0
   18.7214  -23.1548  -13.4650 O   0  0  0  0  0  0  0  0  0  0  0  0
   19.4643  -23.1161  -11.3043 N   0  0  0  0  0  0  0  0  0  0  0  0
   18.3569  -23.9287  -10.7395 C   0  0  1  0  0  0  0  0  0  0  0  0
   18.7747  -24.1581   -9.3327 C   0  0  0  0  0  0  0  0  0  0  0  0
   17.9312  -24.9569   -8.4362 C   0  0  0  0  0  0  0  0  0  0  0  0
   18.4977  -25.0812   -7.0831 C   0  0  0  0  0  0  0  0  0  0  0  0
   19.5865  -24.5002   -6.8259 O   0  0  0  0  0  0  0  0  0  0  0  0
   17.1083  -23.2517  -11.0241 C   0  0  0  0  0  0  0  0  0  0  0  0
   17.0670  -21.9713  -10.9283 O   0  0  0  0  0  0  0  0  0  0  0  0
   17.9218  -25.7961   -6.0557 O   0  0  0  0  0  0  0  0  0  0  0  0
   15.9076  -23.8442  -11.4040 O   0  0  0  0  0  0  0  0  0  0  0  0
  2  1  1  1
  2  3  1  0
  2  7  1  0
  4  3  1  0
  4  5  1  0
  5  6  2  0
  7  8  2  0
  9  5  1  0
 10 11  1  0
 11 12  2  0
 13 11  1  0
 13 14  1  0
 15 14  1  6
 16  7  1  0
 16 15  1  0
 17 15  1  0
 17 18  2  0
 19 17  1  0
 20 25  1  0
 20 19  1  0
 20 21  1  1
 22 21  1  0
 23 27  1  0
 23 22  1  0
 24 23  2  0
 25 28  1  0
 26 25  2  0
M  END
$$$$
