FNC.pdb
     RDKit          3D

 26 26  0  0  1  0  0  0  0  0999 V2000
   23.0825  -12.5295  -17.9832 N   0  0  0  0  0  0  0  0  0  0  0  0
   22.6086  -11.2397  -18.4427 C   0  0  1  0  0  0  0  0  0  0  0  0
   21.6519  -11.4874  -19.6128 C   0  0  0  0  0  0  0  0  0  0  0  0
   22.3679  -12.0330  -20.7774 C   0  0  0  0  0  0  0  0  0  0  0  0
   23.1797  -11.2121  -21.5322 C   0  0  0  0  0  0  0  0  0  0  0  0
   23.8573  -11.7082  -22.6266 C   0  0  0  0  0  0  0  0  0  0  0  0
   23.7082  -13.0453  -22.9540 C   0  0  0  0  0  0  0  0  0  0  0  0
   22.9052  -13.8988  -22.2238 C   0  0  0  0  0  0  0  0  0  0  0  0
   22.2448  -13.3595  -21.1353 C   0  0  0  0  0  0  0  0  0  0  0  0
   21.7804  -10.6556  -17.3512 C   0  0  0  0  0  0  0  0  0  0  0  0
   21.0984  -11.3270  -16.5665 O   0  0  0  0  0  0  0  0  0  0  0  0
   19.6825   -8.4050  -13.9234 N   0  0  0  0  0  0  0  0  0  0  0  0
   21.1034   -8.2651  -13.8115 C   0  0  0  0  0  0  0  0  0  0  0  0
   21.5605   -8.1615  -12.6512 O   0  0  0  0  0  0  0  0  0  0  0  0
   21.8803   -8.2563  -15.0514 C   0  0  0  0  0  0  0  0  0  0  0  0
   20.9933   -8.5103  -16.2637 C   0  0  2  0  0  0  0  0  0  0  0  0
   21.7923   -9.2427  -17.2262 N   0  0  0  0  0  0  0  0  0  0  0  0
   20.6547   -7.2013  -16.9286 C   0  0  0  0  0  0  0  0  0  0  0  0
   21.5075   -6.4705  -17.4793 O   0  0  0  0  0  0  0  0  0  0  0  0
   19.3037   -6.7473  -16.9466 N   0  0  0  0  0  0  0  0  0  0  0  0
   18.8693   -5.5355  -17.5612 C   0  0  1  0  0  0  0  0  0  0  0  0
   17.4050   -5.5262  -17.9248 C   0  0  0  0  0  0  0  0  0  0  0  0
   16.9935   -7.0181  -18.8720 S   0  0  0  0  0  0  0  0  0  0  0  0
   19.1765   -4.3795  -16.6869 C   0  0  0  0  0  0  0  0  0  0  0  0
   19.3353   -3.1288  -17.2568 O   0  0  0  0  0  0  0  0  0  0  0  0
   19.2985   -4.4905  -15.4481 O   0  0  0  0  0  0  0  0  0  0  0  0
  2  1  1  1
  2 10  1  0
  2  3  1  0
  3  4  1  0
  4  5  2  0
  6  5  1  0
  7  6  2  0
  8  9  2  0
  8  7  1  0
  9  4  1  0
 10 17  1  0
 11 10  2  0
 13 12  1  0
 14 13  2  0
 15 13  1  0
 16 15  1  1
 16 18  1  0
 17 16  1  0
 18 19  2  0
 18 20  1  0
 20 21  1  0
 21 24  1  0
 21 22  1  1
 23 22  1  0
 24 26  2  0
 24 25  1  0
M  END
$$$$
