FNC.pdb
     RDKit          3D

 26 26  0  0  1  0  0  0  0  0999 V2000
   25.6193  -21.6301   -6.9810 N   0  0  0  0  0  0  0  0  0  0  0  0
   25.9064  -20.4925   -7.8311 C   0  0  1  0  0  0  0  0  0  0  0  0
   27.4168  -20.2446   -7.7794 C   0  0  0  0  0  0  0  0  0  0  0  0
   27.8203  -19.6968   -6.4741 C   0  0  0  0  0  0  0  0  0  0  0  0
   27.5738  -18.3724   -6.1780 C   0  0  0  0  0  0  0  0  0  0  0  0
   27.9457  -17.8440   -4.9593 C   0  0  0  0  0  0  0  0  0  0  0  0
   28.5712  -18.6670   -4.0380 C   0  0  0  0  0  0  0  0  0  0  0  0
   28.8354  -19.9973   -4.2966 C   0  0  0  0  0  0  0  0  0  0  0  0
   28.4456  -20.4849   -5.5302 C   0  0  0  0  0  0  0  0  0  0  0  0
   25.6041  -20.8971   -9.2324 C   0  0  0  0  0  0  0  0  0  0  0  0
   26.0962  -21.8880   -9.7869 O   0  0  0  0  0  0  0  0  0  0  0  0
   23.1900  -20.8193  -13.7136 N   0  0  0  0  0  0  0  0  0  0  0  0
   22.3837  -20.0213  -12.8394 C   0  0  0  0  0  0  0  0  0  0  0  0
   21.2751  -19.6540  -13.2889 O   0  0  0  0  0  0  0  0  0  0  0  0
   22.9256  -19.7128  -11.5157 C   0  0  0  0  0  0  0  0  0  0  0  0
   24.3121  -20.3163  -11.3295 C   0  0  2  0  0  0  0  0  0  0  0  0
   24.6945  -20.0799   -9.9513 N   0  0  0  0  0  0  0  0  0  0  0  0
   25.3120  -19.5589  -12.1644 C   0  0  0  0  0  0  0  0  0  0  0  0
   25.5114  -18.3295  -12.0488 O   0  0  0  0  0  0  0  0  0  0  0  0
   26.0835  -20.2513  -13.1427 N   0  0  0  0  0  0  0  0  0  0  0  0
   27.0836  -19.6431  -13.9580 C   0  0  1  0  0  0  0  0  0  0  0  0
   28.4939  -20.0230  -13.5795 C   0  0  0  0  0  0  0  0  0  0  0  0
   28.6069  -21.8175  -13.3365 S   0  0  0  0  0  0  0  0  0  0  0  0
   26.8439  -19.9617  -15.3849 C   0  0  0  0  0  0  0  0  0  0  0  0
   25.8101  -20.8186  -15.7182 O   0  0  0  0  0  0  0  0  0  0  0  0
   27.5428  -19.4840  -16.3044 O   0  0  0  0  0  0  0  0  0  0  0  0
  2  1  1  1
  2 10  1  0
  2  3  1  0
  3  4  1  0
  4  5  2  0
  6  5  1  0
  7  6  2  0
  8  9  2  0
  8  7  1  0
  9  4  1  0
 10 17  1  0
 11 10  2  0
 13 12  1  0
 14 13  2  0
 15 13  1  0
 16 15  1  1
 16 18  1  0
 17 16  1  0
 18 19  2  0
 18 20  1  0
 20 21  1  0
 21 24  1  0
 21 22  1  1
 23 22  1  0
 24 26  2  0
 24 25  1  0
M  END
$$$$
