FNC.pdb
     RDKit          3D

 26 26  0  0  1  0  0  0  0  0999 V2000
   25.3807  -21.0129   -6.6151 N   0  0  0  0  0  0  0  0  0  0  0  0
   26.0539  -20.2435   -7.6419 C   0  0  1  0  0  0  0  0  0  0  0  0
   27.5618  -20.4046   -7.4282 C   0  0  0  0  0  0  0  0  0  0  0  0
   27.9897  -19.7742   -6.1687 C   0  0  0  0  0  0  0  0  0  0  0  0
   28.4947  -20.5516   -5.1473 C   0  0  0  0  0  0  0  0  0  0  0  0
   28.8999  -19.9761   -3.9610 C   0  0  0  0  0  0  0  0  0  0  0  0
   28.7906  -18.6036   -3.8135 C   0  0  0  0  0  0  0  0  0  0  0  0
   28.2904  -17.7916   -4.8120 C   0  0  0  0  0  0  0  0  0  0  0  0
   27.8964  -18.4104   -5.9839 C   0  0  0  0  0  0  0  0  0  0  0  0
   25.7530  -20.8888   -8.9501 C   0  0  0  0  0  0  0  0  0  0  0  0
   25.8133  -22.1088   -9.1489 O   0  0  0  0  0  0  0  0  0  0  0  0
   24.0738  -21.2204  -13.7421 N   0  0  0  0  0  0  0  0  0  0  0  0
   23.1984  -20.3749  -12.9872 C   0  0  0  0  0  0  0  0  0  0  0  0
   22.0983  -20.1017  -13.5172 O   0  0  0  0  0  0  0  0  0  0  0  0
   23.6671  -19.9140  -11.6799 C   0  0  0  0  0  0  0  0  0  0  0  0
   25.0351  -20.4947  -11.3447 C   0  0  2  0  0  0  0  0  0  0  0  0
   25.3773  -20.0302  -10.0148 N   0  0  0  0  0  0  0  0  0  0  0  0
   26.0756  -19.9052  -12.2614 C   0  0  0  0  0  0  0  0  0  0  0  0
   26.1339  -18.6872  -12.5400 O   0  0  0  0  0  0  0  0  0  0  0  0
   27.0551  -20.7534  -12.8555 N   0  0  0  0  0  0  0  0  0  0  0  0
   28.1067  -20.2977  -13.7048 C   0  0  1  0  0  0  0  0  0  0  0  0
   29.2945  -21.2265  -13.7578 C   0  0  0  0  0  0  0  0  0  0  0  0
   29.9370  -21.5050  -12.0839 S   0  0  0  0  0  0  0  0  0  0  0  0
   27.5927  -20.0618  -15.0742 C   0  0  0  0  0  0  0  0  0  0  0  0
   26.2706  -20.3565  -15.3562 O   0  0  0  0  0  0  0  0  0  0  0  0
   28.3104  -19.6046  -15.9895 O   0  0  0  0  0  0  0  0  0  0  0  0
  2  1  1  1
  2 10  1  0
  2  3  1  0
  3  4  1  0
  4  5  2  0
  6  5  1  0
  7  6  2  0
  8  9  2  0
  8  7  1  0
  9  4  1  0
 10 17  1  0
 11 10  2  0
 13 12  1  0
 14 13  2  0
 15 13  1  0
 16 15  1  6
 16 18  1  0
 17 16  1  0
 18 19  2  0
 18 20  1  0
 20 21  1  0
 21 24  1  0
 21 22  1  6
 23 22  1  0
 24 26  2  0
 24 25  1  0
M  END
$$$$
