FNC.pdb
     RDKit          3D

 26 26  0  0  1  0  0  0  0  0999 V2000
   27.0456  -18.3299   -8.1319 N   0  0  0  0  0  0  0  0  0  0  0  0
   27.0735  -19.7436   -8.4483 C   0  0  1  0  0  0  0  0  0  0  0  0
   26.6319  -20.5076   -7.1965 C   0  0  0  0  0  0  0  0  0  0  0  0
   27.5898  -20.3198   -6.0947 C   0  0  0  0  0  0  0  0  0  0  0  0
   28.9324  -20.5583   -6.3023 C   0  0  0  0  0  0  0  0  0  0  0  0
   29.8426  -20.3870   -5.2801 C   0  0  0  0  0  0  0  0  0  0  0  0
   29.3844  -19.9712   -4.0413 C   0  0  0  0  0  0  0  0  0  0  0  0
   28.0490  -19.7222   -3.7939 C   0  0  0  0  0  0  0  0  0  0  0  0
   27.1720  -19.9067   -4.8466 C   0  0  0  0  0  0  0  0  0  0  0  0
   26.0212  -19.9908   -9.4731 C   0  0  0  0  0  0  0  0  0  0  0  0
   24.8993  -19.4689   -9.4512 O   0  0  0  0  0  0  0  0  0  0  0  0
   25.8286  -20.4371  -14.5962 N   0  0  0  0  0  0  0  0  0  0  0  0
   27.0832  -20.9678  -14.1542 C   0  0  0  0  0  0  0  0  0  0  0  0
   27.9313  -21.2005  -15.0444 O   0  0  0  0  0  0  0  0  0  0  0  0
   27.2549  -21.1862  -12.7175 C   0  0  0  0  0  0  0  0  0  0  0  0
   26.0870  -20.6116  -11.9256 C   0  0  2  0  0  0  0  0  0  0  0  0
   26.3516  -20.8818  -10.5261 N   0  0  0  0  0  0  0  0  0  0  0  0
   24.8276  -21.3703  -12.2551 C   0  0  0  0  0  0  0  0  0  0  0  0
   24.7596  -22.6193  -12.2571 O   0  0  0  0  0  0  0  0  0  0  0  0
   23.6390  -20.6561  -12.5849 N   0  0  0  0  0  0  0  0  0  0  0  0
   22.3736  -21.2675  -12.8294 C   0  0  1  0  0  0  0  0  0  0  0  0
   21.1966  -20.3606  -12.5672 C   0  0  0  0  0  0  0  0  0  0  0  0
   21.2346  -19.7790  -10.8490 S   0  0  0  0  0  0  0  0  0  0  0  0
   22.3126  -21.7800  -14.2181 C   0  0  0  0  0  0  0  0  0  0  0  0
   21.3004  -22.6559  -14.5678 O   0  0  0  0  0  0  0  0  0  0  0  0
   23.1443  -21.4503  -15.0908 O   0  0  0  0  0  0  0  0  0  0  0  0
  2  1  1  1
  2 10  1  0
  2  3  1  0
  3  4  1  0
  4  5  2  0
  6  5  1  0
  7  6  2  0
  8  9  2  0
  8  7  1  0
  9  4  1  0
 10 17  1  0
 11 10  2  0
 13 12  1  0
 14 13  2  0
 15 13  1  0
 16 15  1  6
 16 18  1  0
 17 16  1  0
 18 19  2  0
 18 20  1  0
 20 21  1  0
 21 24  1  0
 21 22  1  6
 23 22  1  0
 24 26  2  0
 24 25  1  0
M  END
$$$$
