FNC.pdb
     RDKit          3D

 26 26  0  0  1  0  0  0  0  0999 V2000
   18.8304  -12.8178  -16.7816 N   0  0  0  0  0  0  0  0  0  0  0  0
   19.5251  -11.6063  -17.1673 C   0  0  1  0  0  0  0  0  0  0  0  0
   18.8568  -11.0731  -18.4380 C   0  0  0  0  0  0  0  0  0  0  0  0
   19.1080  -11.9631  -19.5832 C   0  0  0  0  0  0  0  0  0  0  0  0
   20.2476  -11.8011  -20.3433 C   0  0  0  0  0  0  0  0  0  0  0  0
   20.4973  -12.6270  -21.4196 C   0  0  0  0  0  0  0  0  0  0  0  0
   19.5835  -13.6218  -21.7236 C   0  0  0  0  0  0  0  0  0  0  0  0
   18.4316  -13.8159  -20.9873 C   0  0  0  0  0  0  0  0  0  0  0  0
   18.2214  -12.9656  -19.9175 C   0  0  0  0  0  0  0  0  0  0  0  0
   19.2669  -10.5898  -16.1096 C   0  0  0  0  0  0  0  0  0  0  0  0
   18.5204  -10.7756  -15.1402 O   0  0  0  0  0  0  0  0  0  0  0  0
   19.3624   -7.7529  -12.0312 N   0  0  0  0  0  0  0  0  0  0  0  0
   20.4831   -7.8148  -12.9207 C   0  0  0  0  0  0  0  0  0  0  0  0
   21.3975   -6.9847  -12.7188 O   0  0  0  0  0  0  0  0  0  0  0  0
   20.4550   -8.8323  -13.9718 C   0  0  0  0  0  0  0  0  0  0  0  0
   19.8620   -8.2806  -15.2622 C   0  0  2  0  0  0  0  0  0  0  0  0
   19.9291   -9.3429  -16.2464 N   0  0  0  0  0  0  0  0  0  0  0  0
   20.7403   -7.1778  -15.7940 C   0  0  0  0  0  0  0  0  0  0  0  0
   21.9128   -7.3639  -16.1879 O   0  0  0  0  0  0  0  0  0  0  0  0
   20.2371   -5.8460  -15.8634 N   0  0  0  0  0  0  0  0  0  0  0  0
   20.9599   -4.7387  -16.3984 C   0  0  1  0  0  0  0  0  0  0  0  0
   20.3371   -4.1443  -17.6375 C   0  0  0  0  0  0  0  0  0  0  0  0
   21.2852   -2.6921  -18.1706 S   0  0  0  0  0  0  0  0  0  0  0  0
   21.1247   -3.6885  -15.3665 C   0  0  0  0  0  0  0  0  0  0  0  0
   22.2062   -2.8293  -15.4481 O   0  0  0  0  0  0  0  0  0  0  0  0
   20.3209   -3.5475  -14.4200 O   0  0  0  0  0  0  0  0  0  0  0  0
  2  1  1  1
  2 10  1  0
  2  3  1  0
  3  4  1  0
  4  5  2  0
  6  5  1  0
  7  6  2  0
  8  9  2  0
  8  7  1  0
  9  4  1  0
 10 17  1  0
 11 10  2  0
 13 12  1  0
 14 13  2  0
 15 13  1  0
 16 15  1  1
 16 18  1  0
 17 16  1  0
 18 19  2  0
 18 20  1  0
 20 21  1  0
 21 24  1  0
 21 22  1  6
 23 22  1  0
 24 26  2  0
 24 25  1  0
M  END
$$$$
