FNC.pdb
     RDKit          3D

 26 26  0  0  1  0  0  0  0  0999 V2000
   28.0165  -20.5221   -9.9755 N   0  0  0  0  0  0  0  0  0  0  0  0
   26.6273  -20.8140   -9.6852 C   0  0  1  0  0  0  0  0  0  0  0  0
   26.1978  -19.9147   -8.5223 C   0  0  0  0  0  0  0  0  0  0  0  0
   27.1939  -19.9364   -7.4388 C   0  0  0  0  0  0  0  0  0  0  0  0
   27.8148  -18.7671   -7.0517 C   0  0  0  0  0  0  0  0  0  0  0  0
   28.7504  -18.7708   -6.0380 C   0  0  0  0  0  0  0  0  0  0  0  0
   29.0553  -19.9696   -5.4156 C   0  0  0  0  0  0  0  0  0  0  0  0
   28.4558  -21.1606   -5.7742 C   0  0  0  0  0  0  0  0  0  0  0  0
   27.5243  -21.1107   -6.7947 C   0  0  0  0  0  0  0  0  0  0  0  0
   25.8257  -20.3756  -10.8616 C   0  0  0  0  0  0  0  0  0  0  0  0
   25.9193  -19.2574  -11.3835 O   0  0  0  0  0  0  0  0  0  0  0  0
   27.1068  -21.9436  -14.1525 N   0  0  0  0  0  0  0  0  0  0  0  0
   25.8542  -21.2611  -14.2795 C   0  0  0  0  0  0  0  0  0  0  0  0
   25.8791  -20.1640  -14.8811 O   0  0  0  0  0  0  0  0  0  0  0  0
   24.6740  -21.9034  -13.7001 C   0  0  0  0  0  0  0  0  0  0  0  0
   24.0893  -21.0701  -12.5666 C   0  0  2  0  0  0  0  0  0  0  0  0
   24.9077  -21.3159  -11.3955 N   0  0  0  0  0  0  0  0  0  0  0  0
   22.7156  -21.5810  -12.2169 C   0  0  0  0  0  0  0  0  0  0  0  0
   22.5061  -22.4289  -11.3214 O   0  0  0  0  0  0  0  0  0  0  0  0
   21.5791  -21.0920  -12.9248 N   0  0  0  0  0  0  0  0  0  0  0  0
   20.2342  -21.4876  -12.6609 C   0  0  1  0  0  0  0  0  0  0  0  0
   19.7600  -21.1479  -11.2694 C   0  0  0  0  0  0  0  0  0  0  0  0
   19.6820  -19.3467  -11.0651 S   0  0  0  0  0  0  0  0  0  0  0  0
   19.3196  -20.8913  -13.6623 C   0  0  0  0  0  0  0  0  0  0  0  0
   17.9897  -21.2730  -13.6698 O   0  0  0  0  0  0  0  0  0  0  0  0
   19.7043  -20.0525  -14.5051 O   0  0  0  0  0  0  0  0  0  0  0  0
  2  1  1  6
  2 10  1  0
  2  3  1  0
  3  4  1  0
  4  5  2  0
  6  5  1  0
  7  6  2  0
  8  9  2  0
  8  7  1  0
  9  4  1  0
 10 17  1  0
 11 10  2  0
 13 12  1  0
 14 13  2  0
 15 13  1  0
 16 15  1  6
 16 18  1  0
 17 16  1  0
 18 19  2  0
 18 20  1  0
 20 21  1  0
 21 24  1  0
 21 22  1  1
 23 22  1  0
 24 26  2  0
 24 25  1  0
M  END
$$$$
