FNC.pdb
     RDKit          3D

 26 26  0  0  1  0  0  0  0  0999 V2000
   23.8951   -9.9019  -18.1538 N   0  0  0  0  0  0  0  0  0  0  0  0
   22.9652   -8.8628  -18.5475 C   0  0  1  0  0  0  0  0  0  0  0  0
   21.9227   -9.4994  -19.4713 C   0  0  0  0  0  0  0  0  0  0  0  0
   22.2140  -10.9243  -19.6980 C   0  0  0  0  0  0  0  0  0  0  0  0
   23.3256  -11.2916  -20.4273 C   0  0  0  0  0  0  0  0  0  0  0  0
   23.6122  -12.6227  -20.6486 C   0  0  0  0  0  0  0  0  0  0  0  0
   22.7639  -13.5840  -20.1253 C   0  0  0  0  0  0  0  0  0  0  0  0
   21.6419  -13.2567  -19.3903 C   0  0  0  0  0  0  0  0  0  0  0  0
   21.3929  -11.9111  -19.1930 C   0  0  0  0  0  0  0  0  0  0  0  0
   22.2273   -8.4400  -17.3247 C   0  0  0  0  0  0  0  0  0  0  0  0
   22.1317   -9.1303  -16.3020 O   0  0  0  0  0  0  0  0  0  0  0  0
   23.2805   -3.9222  -15.4461 N   0  0  0  0  0  0  0  0  0  0  0  0
   22.3163   -4.9460  -15.1756 C   0  0  0  0  0  0  0  0  0  0  0  0
   22.4778   -5.5940  -14.1174 O   0  0  0  0  0  0  0  0  0  0  0  0
   21.2430   -5.1369  -16.1517 C   0  0  0  0  0  0  0  0  0  0  0  0
   20.8476   -6.6041  -16.2614 C   0  0  2  0  0  0  0  0  0  0  0  0
   21.6063   -7.1653  -17.3619 N   0  0  0  0  0  0  0  0  0  0  0  0
   19.4009   -6.7113  -16.6687 C   0  0  0  0  0  0  0  0  0  0  0  0
   18.9244   -6.1292  -17.6682 O   0  0  0  0  0  0  0  0  0  0  0  0
   18.5070   -7.5083  -15.8958 N   0  0  0  0  0  0  0  0  0  0  0  0
   17.1055   -7.6138  -16.1400 C   0  0  1  0  0  0  0  0  0  0  0  0
   16.4385   -8.7408  -15.3907 C   0  0  0  0  0  0  0  0  0  0  0  0
   14.6749   -8.8053  -15.8124 S   0  0  0  0  0  0  0  0  0  0  0  0
   16.4329   -6.3326  -15.8221 C   0  0  0  0  0  0  0  0  0  0  0  0
   15.6129   -5.7499  -16.7720 O   0  0  0  0  0  0  0  0  0  0  0  0
   16.5780   -5.7544  -14.7237 O   0  0  0  0  0  0  0  0  0  0  0  0
  2  1  1  1
  2 10  1  0
  2  3  1  0
  3  4  1  0
  4  5  2  0
  6  5  1  0
  7  6  2  0
  8  9  2  0
  8  7  1  0
  9  4  1  0
 10 17  1  0
 11 10  2  0
 13 12  1  0
 14 13  2  0
 15 13  1  0
 16 15  1  6
 16 18  1  0
 17 16  1  0
 18 19  2  0
 18 20  1  0
 20 21  1  0
 21 24  1  0
 21 22  1  1
 23 22  1  0
 24 26  2  0
 24 25  1  0
M  END
$$$$
