FNC.pdb
     RDKit          3D

 26 26  0  0  1  0  0  0  0  0999 V2000
   28.0842  -21.4578  -14.1659 N   0  0  0  0  0  0  0  0  0  0  0  0
   26.8820  -21.4242  -13.3580 C   0  0  1  0  0  0  0  0  0  0  0  0
   26.9208  -20.1414  -12.5222 C   0  0  0  0  0  0  0  0  0  0  0  0
   26.5676  -20.4112  -11.1190 C   0  0  0  0  0  0  0  0  0  0  0  0
   25.2488  -20.3553  -10.7187 C   0  0  0  0  0  0  0  0  0  0  0  0
   24.9015  -20.6055   -9.4074 C   0  0  0  0  0  0  0  0  0  0  0  0
   25.9006  -20.9140   -8.4996 C   0  0  0  0  0  0  0  0  0  0  0  0
   27.2315  -20.9798   -8.8612 C   0  0  0  0  0  0  0  0  0  0  0  0
   27.5343  -20.7219  -10.1853 C   0  0  0  0  0  0  0  0  0  0  0  0
   25.7266  -21.2753  -14.2860 C   0  0  0  0  0  0  0  0  0  0  0  0
   25.7434  -20.5698  -15.3027 O   0  0  0  0  0  0  0  0  0  0  0  0
   21.3478  -22.1626  -16.5521 N   0  0  0  0  0  0  0  0  0  0  0  0
   22.1821  -23.3236  -16.4690 C   0  0  0  0  0  0  0  0  0  0  0  0
   21.9273  -24.2481  -17.2729 O   0  0  0  0  0  0  0  0  0  0  0  0
   23.2440  -23.3209  -15.4622 C   0  0  0  0  0  0  0  0  0  0  0  0
   23.3404  -21.9715  -14.7614 C   0  0  2  0  0  0  0  0  0  0  0  0
   24.5490  -21.9962  -13.9612 N   0  0  0  0  0  0  0  0  0  0  0  0
   22.2061  -21.8266  -13.7802 C   0  0  0  0  0  0  0  0  0  0  0  0
   22.3376  -22.0012  -12.5486 O   0  0  0  0  0  0  0  0  0  0  0  0
   20.9074  -21.4736  -14.2496 N   0  0  0  0  0  0  0  0  0  0  0  0
   20.0414  -20.5442  -13.6007 C   0  0  1  0  0  0  0  0  0  0  0  0
   20.6623  -19.1881  -13.3728 C   0  0  0  0  0  0  0  0  0  0  0  0
   19.5515  -18.1596  -12.3725 S   0  0  0  0  0  0  0  0  0  0  0  0
   18.7821  -20.3971  -14.3671 C   0  0  0  0  0  0  0  0  0  0  0  0
   17.5745  -20.5879  -13.7193 O   0  0  0  0  0  0  0  0  0  0  0  0
   18.7677  -20.1058  -15.5824 O   0  0  0  0  0  0  0  0  0  0  0  0
  2  1  1  6
  2 10  1  0
  2  3  1  0
  3  4  1  0
  4  5  2  0
  6  5  1  0
  7  6  2  0
  8  9  2  0
  8  7  1  0
  9  4  1  0
 10 17  1  0
 11 10  2  0
 13 12  1  0
 14 13  2  0
 15 13  1  0
 16 15  1  1
 16 18  1  0
 17 16  1  0
 18 19  2  0
 18 20  1  0
 20 21  1  0
 21 24  1  0
 21 22  1  6
 23 22  1  0
 24 26  2  0
 24 25  1  0
M  END
$$$$
