FNC.pdb
     RDKit          3D

 26 26  0  0  1  0  0  0  0  0999 V2000
   23.8317  -10.3913  -17.6918 N   0  0  0  0  0  0  0  0  0  0  0  0
   23.2887   -9.6794  -16.5527 C   0  0  1  0  0  0  0  0  0  0  0  0
   24.3181   -8.6271  -16.1300 C   0  0  0  0  0  0  0  0  0  0  0  0
   25.6430   -9.2340  -15.9229 C   0  0  0  0  0  0  0  0  0  0  0  0
   26.7154   -8.8215  -16.6861 C   0  0  0  0  0  0  0  0  0  0  0  0
   27.9634   -9.3804  -16.5042 C   0  0  0  0  0  0  0  0  0  0  0  0
   28.1206  -10.3632  -15.5416 C   0  0  0  0  0  0  0  0  0  0  0  0
   27.0723  -10.8030  -14.7579 C   0  0  0  0  0  0  0  0  0  0  0  0
   25.8394  -10.2156  -14.9739 C   0  0  0  0  0  0  0  0  0  0  0  0
   22.0979   -8.9216  -17.0283 C   0  0  0  0  0  0  0  0  0  0  0  0
   21.9348   -8.5546  -18.1989 O   0  0  0  0  0  0  0  0  0  0  0  0
   18.1092  -11.0054  -15.2155 N   0  0  0  0  0  0  0  0  0  0  0  0
   18.3359   -9.9046  -16.1032 C   0  0  0  0  0  0  0  0  0  0  0  0
   18.1313  -10.1213  -17.3185 O   0  0  0  0  0  0  0  0  0  0  0  0
   18.7810   -8.6421  -15.5125 C   0  0  0  0  0  0  0  0  0  0  0  0
   19.8456   -7.9723  -16.3722 C   0  0  2  0  0  0  0  0  0  0  0  0
   21.1069   -8.6155  -16.0608 N   0  0  0  0  0  0  0  0  0  0  0  0
   20.0077   -6.5345  -15.9515 C   0  0  0  0  0  0  0  0  0  0  0  0
   20.4836   -6.1923  -14.8465 O   0  0  0  0  0  0  0  0  0  0  0  0
   19.6076   -5.4907  -16.8359 N   0  0  0  0  0  0  0  0  0  0  0  0
   19.7335   -4.0992  -16.5487 C   0  0  1  0  0  0  0  0  0  0  0  0
   19.9844   -3.2447  -17.7667 C   0  0  0  0  0  0  0  0  0  0  0  0
   20.4613   -1.5693  -17.2592 S   0  0  0  0  0  0  0  0  0  0  0  0
   18.5302   -3.6132  -15.8341 C   0  0  0  0  0  0  0  0  0  0  0  0
   18.6827   -2.7092  -14.7978 O   0  0  0  0  0  0  0  0  0  0  0  0
   17.3764   -3.9899  -16.1322 O   0  0  0  0  0  0  0  0  0  0  0  0
  2  1  1  6
  2 10  1  0
  2  3  1  0
  3  4  1  0
  4  5  2  0
  6  5  1  0
  7  6  2  0
  8  9  2  0
  8  7  1  0
  9  4  1  0
 10 17  1  0
 11 10  2  0
 13 12  1  0
 14 13  2  0
 15 13  1  0
 16 15  1  1
 16 18  1  0
 17 16  1  0
 18 19  2  0
 18 20  1  0
 20 21  1  0
 21 24  1  0
 21 22  1  6
 23 22  1  0
 24 26  2  0
 24 25  1  0
M  END
$$$$
