FNC.pdb
     RDKit          3D

 26 26  0  0  1  0  0  0  0  0999 V2000
   26.8714  -22.4345  -11.5271 N   0  0  0  0  0  0  0  0  0  0  0  0
   25.8999  -21.4474  -11.1016 C   0  0  1  0  0  0  0  0  0  0  0  0
   26.6494  -20.1341  -10.8586 C   0  0  0  0  0  0  0  0  0  0  0  0
   27.3310  -20.1456   -9.5540 C   0  0  0  0  0  0  0  0  0  0  0  0
   28.6598  -20.5073   -9.4753 C   0  0  0  0  0  0  0  0  0  0  0  0
   29.3127  -20.5231   -8.2603 C   0  0  0  0  0  0  0  0  0  0  0  0
   28.6105  -20.1693   -7.1206 C   0  0  0  0  0  0  0  0  0  0  0  0
   27.2801  -19.8015   -7.1580 C   0  0  0  0  0  0  0  0  0  0  0  0
   26.6654  -19.7996   -8.3964 C   0  0  0  0  0  0  0  0  0  0  0  0
   24.9898  -21.1941  -12.2531 C   0  0  0  0  0  0  0  0  0  0  0  0
   25.3238  -21.3186  -13.4382 O   0  0  0  0  0  0  0  0  0  0  0  0
   21.3890  -22.9198  -12.5103 N   0  0  0  0  0  0  0  0  0  0  0  0
   20.7100  -21.7826  -11.9656 C   0  0  0  0  0  0  0  0  0  0  0  0
   19.6514  -22.0160  -11.3405 O   0  0  0  0  0  0  0  0  0  0  0  0
   21.3110  -20.4672  -12.1885 C   0  0  0  0  0  0  0  0  0  0  0  0
   22.6321  -20.5809  -12.9387 C   0  0  2  0  0  0  0  0  0  0  0  0
   23.6665  -20.7871  -11.9442 N   0  0  0  0  0  0  0  0  0  0  0  0
   22.9574  -19.2650  -13.5967 C   0  0  0  0  0  0  0  0  0  0  0  0
   23.7336  -18.4211  -13.0968 O   0  0  0  0  0  0  0  0  0  0  0  0
   22.3663  -18.9382  -14.8519 N   0  0  0  0  0  0  0  0  0  0  0  0
   23.1022  -18.6863  -16.0476 C   0  0  1  0  0  0  0  0  0  0  0  0
   24.2719  -19.6172  -16.2520 C   0  0  0  0  0  0  0  0  0  0  0  0
   25.1528  -19.1780  -17.7763 S   0  0  0  0  0  0  0  0  0  0  0  0
   22.2031  -18.7444  -17.2237 C   0  0  0  0  0  0  0  0  0  0  0  0
   22.1207  -17.6469  -18.0621 O   0  0  0  0  0  0  0  0  0  0  0  0
   21.5125  -19.7515  -17.4897 O   0  0  0  0  0  0  0  0  0  0  0  0
  2  1  1  6
  2 10  1  0
  2  3  1  0
  3  4  1  0
  4  5  2  0
  6  5  1  0
  7  6  2  0
  8  9  2  0
  8  7  1  0
  9  4  1  0
 10 17  1  0
 11 10  2  0
 13 12  1  0
 14 13  2  0
 15 13  1  0
 16 15  1  1
 16 18  1  0
 17 16  1  0
 18 19  2  0
 18 20  1  0
 20 21  1  0
 21 24  1  0
 21 22  1  6
 23 22  1  0
 24 26  2  0
 24 25  1  0
M  END
$$$$
