RHG.pdb
     RDKit          3D

 26 26  0  0  1  0  0  0  0  0999 V2000
   13.6386  -19.9223   14.0353 N   0  0  0  0  0  0  0  0  0  0  0  0
   13.0372  -19.6308   15.3218 C   0  0  0  0  0  0  0  0  0  0  0  0
   11.9099  -20.1588   15.6358 N   0  0  0  0  0  0  0  0  0  0  0  0
   13.6695  -18.7710   16.2433 N   0  0  0  0  0  0  0  0  0  0  0  0
   13.1132  -18.4769   17.5440 C   0  0  0  0  0  0  0  0  0  0  0  0
   11.6993  -17.9705   17.3322 C   0  0  0  0  0  0  0  0  0  0  0  0
   11.5088  -16.8383   18.3161 C   0  0  0  0  0  0  0  0  0  0  0  0
   10.1683  -16.1598   18.1951 C   0  0  2  0  0  0  0  0  0  0  0  0
    9.9687  -15.5292   16.9260 N   0  0  0  0  0  0  0  0  0  0  0  0
   10.0707  -15.1954   19.3217 C   0  0  0  0  0  0  0  0  0  0  0  0
   10.1163  -13.9741   19.0384 O   0  0  0  0  0  0  0  0  0  0  0  0
   11.4781  -19.9974   16.5626 N   0  0  0  0  0  0  0  0  0  0  0  0
    9.9334  -15.6071   20.6498 C   0  0  2  0  0  0  0  0  0  0  0  0
    9.5832  -14.6984   21.7424 C   0  0  0  0  0  0  0  0  0  0  0  0
    8.2570  -14.0823   21.4325 C   0  0  0  0  0  0  0  0  0  0  0  0
    8.0695  -13.8290   19.9828 C   0  0  0  0  0  0  0  0  0  0  0  0
    8.5036  -12.7311   19.2723 N   0  0  0  0  0  0  0  0  0  0  0  0
    8.1307  -12.8887   17.9957 C   0  0  0  0  0  0  0  0  0  0  0  0
    7.4730  -14.0508   17.8687 N   0  0  0  0  0  0  0  0  0  0  0  0
    7.4457  -14.6109   19.0934 C   0  0  0  0  0  0  0  0  0  0  0  0
    9.6215  -15.4658   23.0075 O   0  0  0  0  0  0  0  0  0  0  0  0
    9.3330  -14.8695   24.0748 N   0  0  0  0  0  0  0  0  0  0  0  0
    9.9666  -16.8384   23.0817 C   0  0  0  0  0  0  0  0  0  0  0  0
   11.2362  -17.3795   22.6588 C   0  0  0  0  0  0  0  0  0  0  0  0
   12.1973  -17.2918   23.7718 O   0  0  0  0  0  0  0  0  0  0  0  0
   11.9990  -16.4842   24.7090 O   0  0  0  0  0  0  0  0  0  0  0  0
  2  3  2  0
  2  1  1  0
  4  2  1  0
  5  4  1  0
  6  5  1  0
  7  8  1  0
  7  6  1  0
  8 10  1  0
  8  9  1  6
 10 11  2  0
 12 10  1  0
 12 13  1  0
 13 20  1  0
 13 14  1  6
 15 14  1  0
 16 15  2  0
 17 18  1  0
 17 16  1  0
 18 19  2  0
 19 15  1  0
 20 21  2  0
 22 23  1  0
 22 20  1  0
 24 23  1  0
 25 24  2  0
 26 24  1  0
M  END
$$$$
