RHG.pdb
     RDKit          3D

 26 26  0  0  1  0  0  0  0  0999 V2000
    2.5563  -21.5017   21.6052 N   0  0  0  0  0  0  0  0  0  0  0  0
    2.6484  -20.2284   22.2922 C   0  0  0  0  0  0  0  0  0  0  0  0
    1.5975  -19.5077   22.4483 N   0  0  0  0  0  0  0  0  0  0  0  0
    3.8793  -19.7601   22.7962 N   0  0  0  0  0  0  0  0  0  0  0  0
    5.1507  -20.1349   22.2210 C   0  0  0  0  0  0  0  0  0  0  0  0
    5.6830  -18.9320   21.4662 C   0  0  0  0  0  0  0  0  0  0  0  0
    6.9136  -19.4113   20.7297 C   0  0  0  0  0  0  0  0  0  0  0  0
    7.6091  -18.3216   19.9545 C   0  0  2  0  0  0  0  0  0  0  0  0
    8.6547  -18.8113   19.1089 N   0  0  0  0  0  0  0  0  0  0  0  0
    8.1079  -17.3368   20.9496 C   0  0  0  0  0  0  0  0  0  0  0  0
    9.2817  -17.4855   21.3669 O   0  0  0  0  0  0  0  0  0  0  0  0
    1.6261  -18.6200   22.9800 N   0  0  0  0  0  0  0  0  0  0  0  0
    7.3215  -16.2806   21.4166 C   0  0  2  0  0  0  0  0  0  0  0  0
    7.8557  -15.1612   22.1938 C   0  0  0  0  0  0  0  0  0  0  0  0
    7.2357  -13.8997   21.6849 C   0  0  0  0  0  0  0  0  0  0  0  0
    7.7238  -13.5275   20.3343 C   0  0  0  0  0  0  0  0  0  0  0  0
    6.9904  -12.9524   19.3195 N   0  0  0  0  0  0  0  0  0  0  0  0
    7.8011  -12.7800   18.2675 C   0  0  0  0  0  0  0  0  0  0  0  0
    9.0273  -13.2263   18.5780 N   0  0  0  0  0  0  0  0  0  0  0  0
    8.9603  -13.6792   19.8449 C   0  0  0  0  0  0  0  0  0  0  0  0
    7.6015  -15.4343   23.6261 O   0  0  0  0  0  0  0  0  0  0  0  0
    7.8935  -14.5443   24.4631 N   0  0  0  0  0  0  0  0  0  0  0  0
    7.0463  -16.6466   24.1066 C   0  0  0  0  0  0  0  0  0  0  0  0
    6.6848  -16.8834   25.4838 C   0  0  0  0  0  0  0  0  0  0  0  0
    7.6906  -17.7614   26.1065 O   0  0  0  0  0  0  0  0  0  0  0  0
    8.7103  -18.1014   25.4629 O   0  0  0  0  0  0  0  0  0  0  0  0
  2  3  2  0
  2  1  1  0
  4  2  1  0
  5  4  1  0
  6  5  1  0
  7  8  1  0
  7  6  1  0
  8 10  1  0
  8  9  1  1
 10 11  2  0
 12 10  1  0
 12 13  1  0
 13 20  1  0
 13 14  1  6
 15 14  1  0
 16 15  2  0
 17 18  1  0
 17 16  1  0
 18 19  2  0
 19 15  1  0
 20 21  2  0
 22 23  1  0
 22 20  1  0
 24 23  1  0
 25 24  2  0
 26 24  1  0
M  END
$$$$
