RHG.pdb
     RDKit          3D

 26 26  0  0  1  0  0  0  0  0999 V2000
   10.2772  -23.0236   16.8104 N   0  0  0  0  0  0  0  0  0  0  0  0
   11.4964  -22.4812   16.2437 C   0  0  0  0  0  0  0  0  0  0  0  0
   12.1116  -23.1217   15.3166 N   0  0  0  0  0  0  0  0  0  0  0  0
   12.0260  -21.2545   16.6942 N   0  0  0  0  0  0  0  0  0  0  0  0
   11.4331  -20.4984   17.7734 C   0  0  0  0  0  0  0  0  0  0  0  0
   10.4060  -19.5628   17.1651 C   0  0  0  0  0  0  0  0  0  0  0  0
   10.8076  -18.1681   17.5895 C   0  0  0  0  0  0  0  0  0  0  0  0
    9.6375  -17.3006   17.9771 C   0  0  2  0  0  0  0  0  0  0  0  0
    9.1031  -16.5527   16.8802 N   0  0  0  0  0  0  0  0  0  0  0  0
   10.1009  -16.4214   19.0821 C   0  0  0  0  0  0  0  0  0  0  0  0
   10.9272  -15.5226   18.7936 O   0  0  0  0  0  0  0  0  0  0  0  0
   12.9984  -22.7700   14.9150 N   0  0  0  0  0  0  0  0  0  0  0  0
    9.6497  -16.5697   20.3961 C   0  0  1  0  0  0  0  0  0  0  0  0
   10.0598  -15.6909   21.4924 C   0  0  0  0  0  0  0  0  0  0  0  0
    8.8327  -15.0727   22.0812 C   0  0  0  0  0  0  0  0  0  0  0  0
    8.0464  -14.3035   21.0857 C   0  0  0  0  0  0  0  0  0  0  0  0
    8.1352  -12.9531   20.8267 N   0  0  0  0  0  0  0  0  0  0  0  0
    7.2555  -12.6568   19.8613 C   0  0  0  0  0  0  0  0  0  0  0  0
    6.6086  -13.7736   19.4962 N   0  0  0  0  0  0  0  0  0  0  0  0
    7.1055  -14.7692   20.2554 C   0  0  0  0  0  0  0  0  0  0  0  0
   10.8610  -16.4902   22.4462 O   0  0  0  0  0  0  0  0  0  0  0  0
   10.4049  -17.5975   22.8257 N   0  0  0  0  0  0  0  0  0  0  0  0
   12.1164  -16.0749   22.9563 C   0  0  0  0  0  0  0  0  0  0  0  0
   12.9500  -16.8818   23.8151 C   0  0  0  0  0  0  0  0  0  0  0  0
   14.1882  -16.1453   24.1227 O   0  0  0  0  0  0  0  0  0  0  0  0
   14.6397  -15.3096   23.3057 O   0  0  0  0  0  0  0  0  0  0  0  0
  2  3  2  0
  2  1  1  0
  4  2  1  0
  5  4  1  0
  6  5  1  0
  7  8  1  0
  7  6  1  0
  8 10  1  0
  8  9  1  6
 10 11  2  0
 12 10  1  0
 12 13  1  0
 13 20  1  0
 13 14  1  6
 15 14  1  0
 16 15  2  0
 17 18  1  0
 17 16  1  0
 18 19  2  0
 19 15  1  0
 20 21  2  0
 22 23  1  0
 22 20  1  0
 24 23  1  0
 25 24  2  0
 26 24  1  0
M  END
$$$$
