RHG.pdb
     RDKit          3D

 26 26  0  0  1  0  0  0  0  0999 V2000
   10.0574  -23.3599   21.0377 N   0  0  0  0  0  0  0  0  0  0  0  0
   10.3024  -23.6331   19.6352 C   0  0  0  0  0  0  0  0  0  0  0  0
   11.2655  -24.4100   19.2931 N   0  0  0  0  0  0  0  0  0  0  0  0
    9.4986  -23.0575   18.6298 N   0  0  0  0  0  0  0  0  0  0  0  0
    8.4885  -22.0637   18.9127 C   0  0  0  0  0  0  0  0  0  0  0  0
    9.2034  -20.7759   19.2744 C   0  0  0  0  0  0  0  0  0  0  0  0
    8.1192  -19.7688   19.5853 C   0  0  0  0  0  0  0  0  0  0  0  0
    8.3192  -18.4429   18.8968 C   0  0  2  0  0  0  0  0  0  0  0  0
    9.0393  -18.5509   17.6648 N   0  0  0  0  0  0  0  0  0  0  0  0
    9.0033  -17.5516   19.8696 C   0  0  0  0  0  0  0  0  0  0  0  0
   10.2498  -17.4461   19.7746 O   0  0  0  0  0  0  0  0  0  0  0  0
   11.4465  -24.6400   18.3002 N   0  0  0  0  0  0  0  0  0  0  0  0
    8.3091  -16.8497   20.8584 C   0  0  1  0  0  0  0  0  0  0  0  0
    8.9252  -15.8228   21.6999 C   0  0  0  0  0  0  0  0  0  0  0  0
    7.9414  -14.7117   21.8790 C   0  0  0  0  0  0  0  0  0  0  0  0
    7.7827  -13.8863   20.6565 C   0  0  0  0  0  0  0  0  0  0  0  0
    8.4852  -14.0111   19.4777 N   0  0  0  0  0  0  0  0  0  0  0  0
    8.0408  -13.0754   18.6286 C   0  0  0  0  0  0  0  0  0  0  0  0
    7.0784  -12.3581   19.2271 N   0  0  0  0  0  0  0  0  0  0  0  0
    6.9348  -12.8685   20.4655 C   0  0  0  0  0  0  0  0  0  0  0  0
    9.3617  -16.4637   22.9606 O   0  0  0  0  0  0  0  0  0  0  0  0
    8.4893  -16.9949   23.6919 N   0  0  0  0  0  0  0  0  0  0  0  0
   10.7117  -16.5111   23.3895 C   0  0  0  0  0  0  0  0  0  0  0  0
   11.1560  -17.1613   24.5992 C   0  0  0  0  0  0  0  0  0  0  0  0
   12.6287  -17.1811   24.6280 O   0  0  0  0  0  0  0  0  0  0  0  0
   13.2808  -16.7131   23.6660 O   0  0  0  0  0  0  0  0  0  0  0  0
  2  3  2  0
  2  1  1  0
  4  2  1  0
  5  4  1  0
  6  5  1  0
  7  8  1  0
  7  6  1  0
  8 10  1  0
  8  9  1  6
 10 11  2  0
 12 10  1  0
 12 13  1  0
 13 20  1  0
 13 14  1  1
 15 14  1  0
 16 15  2  0
 17 18  1  0
 17 16  1  0
 18 19  2  0
 19 15  1  0
 20 21  2  0
 22 23  1  0
 22 20  1  0
 24 23  1  0
 25 24  2  0
 26 24  1  0
M  END
$$$$
