RHG.pdb
     RDKit          3D

 26 26  0  0  1  0  0  0  0  0999 V2000
    7.6244  -13.4231   21.8639 N   0  0  0  0  0  0  0  0  0  0  0  0
    7.8976  -12.7235   20.6239 C   0  0  0  0  0  0  0  0  0  0  0  0
    8.4375  -11.5590   20.6515 N   0  0  0  0  0  0  0  0  0  0  0  0
    7.5790  -13.2998   19.3771 N   0  0  0  0  0  0  0  0  0  0  0  0
    8.2939  -14.4330   18.8362 C   0  0  0  0  0  0  0  0  0  0  0  0
    8.0375  -15.6143   19.7522 C   0  0  0  0  0  0  0  0  0  0  0  0
    8.1500  -16.8480   18.8852 C   0  0  0  0  0  0  0  0  0  0  0  0
    9.3963  -16.8718   18.0376 C   0  0  2  0  0  0  0  0  0  0  0  0
    9.4783  -18.0210   17.1888 N   0  0  0  0  0  0  0  0  0  0  0  0
   10.5514  -16.7787   18.9682 C   0  0  0  0  0  0  0  0  0  0  0  0
   10.8596  -17.8134   19.6072 O   0  0  0  0  0  0  0  0  0  0  0  0
    8.6161  -11.0265   19.7820 N   0  0  0  0  0  0  0  0  0  0  0  0
   11.2798  -15.5990   19.1416 C   0  0  2  0  0  0  0  0  0  0  0  0
   12.3631  -15.4573   20.1155 C   0  0  0  0  0  0  0  0  0  0  0  0
   13.2310  -14.3178   19.6882 C   0  0  0  0  0  0  0  0  0  0  0  0
   14.2439  -14.7175   18.6806 C   0  0  0  0  0  0  0  0  0  0  0  0
   14.7024  -15.9924   18.4298 N   0  0  0  0  0  0  0  0  0  0  0  0
   15.6108  -15.9213   17.4482 C   0  0  0  0  0  0  0  0  0  0  0  0
   15.7468  -14.6432   17.0650 N   0  0  0  0  0  0  0  0  0  0  0  0
   14.9035  -13.9227   17.8294 C   0  0  0  0  0  0  0  0  0  0  0  0
   11.7568  -15.2964   21.4561 O   0  0  0  0  0  0  0  0  0  0  0  0
   10.8797  -14.4105   21.6108 N   0  0  0  0  0  0  0  0  0  0  0  0
   12.1118  -16.0876   22.5772 C   0  0  0  0  0  0  0  0  0  0  0  0
   11.4277  -16.0473   23.8476 C   0  0  0  0  0  0  0  0  0  0  0  0
   11.9954  -17.0741   24.7384 O   0  0  0  0  0  0  0  0  0  0  0  0
   12.8501  -17.8795   24.3020 O   0  0  0  0  0  0  0  0  0  0  0  0
  2  3  2  0
  2  1  1  0
  4  2  1  0
  5  4  1  0
  6  5  1  0
  7  8  1  0
  7  6  1  0
  8 10  1  0
  8  9  1  1
 10 11  2  0
 12 10  1  0
 12 13  1  0
 13 20  1  0
 13 14  1  6
 15 14  1  0
 16 15  2  0
 17 18  1  0
 17 16  1  0
 18 19  2  0
 19 15  1  0
 20 21  2  0
 22 23  1  0
 22 20  1  0
 24 23  1  0
 25 24  2  0
 26 24  1  0
M  END
$$$$
