RHG.pdb
     RDKit          3D

 26 26  0  0  1  0  0  0  0  0999 V2000
    9.1466  -14.0418   12.9994 N   0  0  0  0  0  0  0  0  0  0  0  0
    9.3806  -15.1326   13.9252 C   0  0  0  0  0  0  0  0  0  0  0  0
    9.4538  -16.3378   13.4891 N   0  0  0  0  0  0  0  0  0  0  0  0
    9.5296  -14.8956   15.3073 N   0  0  0  0  0  0  0  0  0  0  0  0
    8.4446  -15.0571   16.2477 C   0  0  0  0  0  0  0  0  0  0  0  0
    8.9979  -14.7886   17.6340 C   0  0  0  0  0  0  0  0  0  0  0  0
    7.8249  -14.9014   18.5816 C   0  0  0  0  0  0  0  0  0  0  0  0
    7.3590  -13.5718   19.1176 C   0  0  2  0  0  0  0  0  0  0  0  0
    7.6762  -12.4745   18.2555 N   0  0  0  0  0  0  0  0  0  0  0  0
    7.9619  -13.4167   20.4672 C   0  0  0  0  0  0  0  0  0  0  0  0
    8.8842  -12.5753   20.5916 O   0  0  0  0  0  0  0  0  0  0  0  0
    9.8019  -17.1078   14.0871 N   0  0  0  0  0  0  0  0  0  0  0  0
    7.5365  -14.1653   21.5676 C   0  0  2  0  0  0  0  0  0  0  0  0
    7.8446  -13.8070   22.9529 C   0  0  0  0  0  0  0  0  0  0  0  0
    6.6309  -14.0687   23.7853 C   0  0  0  0  0  0  0  0  0  0  0  0
    6.7980  -13.6306   25.1929 C   0  0  0  0  0  0  0  0  0  0  0  0
    7.8991  -13.0089   25.7401 N   0  0  0  0  0  0  0  0  0  0  0  0
    7.6476  -12.7841   27.0363 C   0  0  0  0  0  0  0  0  0  0  0  0
    6.4224  -13.2421   27.3335 N   0  0  0  0  0  0  0  0  0  0  0  0
    5.9191  -13.7557   26.1945 C   0  0  0  0  0  0  0  0  0  0  0  0
    9.0463  -14.5654   23.3667 O   0  0  0  0  0  0  0  0  0  0  0  0
    9.5363  -14.3334   24.4999 N   0  0  0  0  0  0  0  0  0  0  0  0
    9.6764  -15.5405   22.5537 C   0  0  0  0  0  0  0  0  0  0  0  0
   10.8351  -16.3033   22.9527 C   0  0  0  0  0  0  0  0  0  0  0  0
   10.4026  -17.4625   23.7522 O   0  0  0  0  0  0  0  0  0  0  0  0
    9.3314  -17.4125   24.4001 O   0  0  0  0  0  0  0  0  0  0  0  0
  2  3  2  0
  2  1  1  0
  4  2  1  0
  5  4  1  0
  6  5  1  0
  7  8  1  0
  7  6  1  0
  8 10  1  0
  8  9  1  6
 10 11  2  0
 12 10  1  0
 12 13  1  0
 13 20  1  0
 13 14  1  6
 15 14  1  0
 16 15  2  0
 17 18  1  0
 17 16  1  0
 18 19  2  0
 19 15  1  0
 20 21  2  0
 22 23  1  0
 22 20  1  0
 24 23  1  0
 25 24  2  0
 26 24  1  0
M  END
$$$$
