RHG.pdb
     RDKit          3D

 26 26  0  0  1  0  0  0  0  0999 V2000
    9.7416  -13.7794   15.6186 N   0  0  0  0  0  0  0  0  0  0  0  0
    8.3044  -13.9290   15.5006 C   0  0  0  0  0  0  0  0  0  0  0  0
    7.7914  -14.3324   14.3951 N   0  0  0  0  0  0  0  0  0  0  0  0
    7.4504  -13.6371   16.5840 N   0  0  0  0  0  0  0  0  0  0  0  0
    7.9436  -13.1998   17.8699 C   0  0  0  0  0  0  0  0  0  0  0  0
    8.4828  -14.4200   18.5913 C   0  0  0  0  0  0  0  0  0  0  0  0
    7.6277  -14.5870   19.8272 C   0  0  0  0  0  0  0  0  0  0  0  0
    8.0069  -15.7852   20.6595 C   0  0  2  0  0  0  0  0  0  0  0  0
    7.5035  -17.0177   20.1346 N   0  0  0  0  0  0  0  0  0  0  0  0
    7.5195  -15.5228   22.0388 C   0  0  0  0  0  0  0  0  0  0  0  0
    6.3071  -15.2300   22.1741 O   0  0  0  0  0  0  0  0  0  0  0  0
    6.7804  -14.5393   14.3131 N   0  0  0  0  0  0  0  0  0  0  0  0
    8.3573  -15.5928   23.1548 C   0  0  1  0  0  0  0  0  0  0  0  0
    8.2781  -14.6613   24.2810 C   0  0  0  0  0  0  0  0  0  0  0  0
    6.8595  -14.6128   24.7498 C   0  0  0  0  0  0  0  0  0  0  0  0
    6.6645  -13.6779   25.8851 C   0  0  0  0  0  0  0  0  0  0  0  0
    7.3112  -12.4784   26.0889 N   0  0  0  0  0  0  0  0  0  0  0  0
    6.8498  -11.9464   27.2281 C   0  0  0  0  0  0  0  0  0  0  0  0
    5.9304  -12.7670   27.7575 N   0  0  0  0  0  0  0  0  0  0  0  0
    5.8309  -13.8195   26.9227 C   0  0  0  0  0  0  0  0  0  0  0  0
    9.2482  -15.1005   25.3089 O   0  0  0  0  0  0  0  0  0  0  0  0
    9.5234  -14.3092   26.2449 N   0  0  0  0  0  0  0  0  0  0  0  0
    9.8854  -16.3664   25.2955 C   0  0  0  0  0  0  0  0  0  0  0  0
   10.8092  -16.8202   26.3075 C   0  0  0  0  0  0  0  0  0  0  0  0
   10.0566  -17.2168   27.5102 O   0  0  0  0  0  0  0  0  0  0  0  0
    8.8071  -17.1270   27.5257 O   0  0  0  0  0  0  0  0  0  0  0  0
  2  3  2  0
  2  1  1  0
  4  2  1  0
  5  4  1  0
  6  5  1  0
  7  8  1  0
  7  6  1  0
  8 10  1  0
  8  9  1  6
 10 11  2  0
 12 10  1  0
 12 13  1  0
 13 20  1  0
 13 14  1  6
 15 14  1  0
 16 15  2  0
 17 18  1  0
 17 16  1  0
 18 19  2  0
 19 15  1  0
 20 21  2  0
 22 23  1  0
 22 20  1  0
 24 23  1  0
 25 24  2  0
 26 24  1  0
M  END
$$$$
