RHG.pdb
     RDKit          3D

 26 26  0  0  1  0  0  0  0  0999 V2000
    9.5225  -14.3509   16.9029 N   0  0  0  0  0  0  0  0  0  0  0  0
    8.2924  -13.6746   16.5407 C   0  0  0  0  0  0  0  0  0  0  0  0
    8.0871  -13.3287   15.3215 N   0  0  0  0  0  0  0  0  0  0  0  0
    7.3083  -13.3852   17.5082 N   0  0  0  0  0  0  0  0  0  0  0  0
    7.6182  -13.2159   18.9094 C   0  0  0  0  0  0  0  0  0  0  0  0
    8.0485  -14.5667   19.4484 C   0  0  0  0  0  0  0  0  0  0  0  0
    8.3673  -14.3512   20.9107 C   0  0  0  0  0  0  0  0  0  0  0  0
    8.7763  -15.6134   21.6260 C   0  0  2  0  0  0  0  0  0  0  0  0
    7.8914  -16.7113   21.3817 N   0  0  0  0  0  0  0  0  0  0  0  0
    8.8683  -15.2786   23.0711 C   0  0  0  0  0  0  0  0  0  0  0  0
    8.6249  -14.0935   23.4032 O   0  0  0  0  0  0  0  0  0  0  0  0
    7.1898  -12.9070   15.0242 N   0  0  0  0  0  0  0  0  0  0  0  0
    9.2098  -16.2267   24.0389 C   0  0  1  0  0  0  0  0  0  0  0  0
    9.0590  -15.9998   25.4770 C   0  0  0  0  0  0  0  0  0  0  0  0
    7.6088  -15.7821   25.7672 C   0  0  0  0  0  0  0  0  0  0  0  0
    7.2242  -14.3502   25.7140 C   0  0  0  0  0  0  0  0  0  0  0  0
    8.0515  -13.2811   25.4473 N   0  0  0  0  0  0  0  0  0  0  0  0
    7.3149  -12.1637   25.4965 C   0  0  0  0  0  0  0  0  0  0  0  0
    6.0452  -12.4849   25.7859 N   0  0  0  0  0  0  0  0  0  0  0  0
    6.0095  -13.8253   25.9151 C   0  0  0  0  0  0  0  0  0  0  0  0
    9.6601  -17.1500   26.1886 O   0  0  0  0  0  0  0  0  0  0  0  0
    9.8705  -17.0433   27.4224 N   0  0  0  0  0  0  0  0  0  0  0  0
   10.0125  -18.3674   25.5540 C   0  0  0  0  0  0  0  0  0  0  0  0
   11.2067  -18.5548   24.7652 C   0  0  0  0  0  0  0  0  0  0  0  0
   12.3333  -18.8777   25.6577 O   0  0  0  0  0  0  0  0  0  0  0  0
   12.1621  -18.9048   26.8986 O   0  0  0  0  0  0  0  0  0  0  0  0
  2  3  2  0
  2  1  1  0
  4  2  1  0
  5  4  1  0
  6  5  1  0
  7  8  1  0
  7  6  1  0
  8 10  1  0
  8  9  1  1
 10 11  2  0
 12 10  1  0
 12 13  1  0
 13 20  1  0
 13 14  1  1
 15 14  1  0
 16 15  2  0
 17 18  1  0
 17 16  1  0
 18 19  2  0
 19 15  1  0
 20 21  2  0
 22 23  1  0
 22 20  1  0
 24 23  1  0
 25 24  2  0
 26 24  1  0
M  END
$$$$
