RHG.pdb
     RDKit          3D

 26 26  0  0  1  0  0  0  0  0999 V2000
    8.7205  -20.2186   24.6678 N   0  0  0  0  0  0  0  0  0  0  0  0
    7.2736  -20.1855   24.5826 C   0  0  0  0  0  0  0  0  0  0  0  0
    6.5653  -20.4176   25.6278 N   0  0  0  0  0  0  0  0  0  0  0  0
    6.6221  -19.9022   23.3645 N   0  0  0  0  0  0  0  0  0  0  0  0
    7.2526  -20.0970   22.0791 C   0  0  0  0  0  0  0  0  0  0  0  0
    8.0605  -18.8505   21.7731 C   0  0  0  0  0  0  0  0  0  0  0  0
    7.1184  -17.9058   21.0614 C   0  0  0  0  0  0  0  0  0  0  0  0
    7.7977  -16.6674   20.5351 C   0  0  2  0  0  0  0  0  0  0  0  0
    8.8924  -16.9545   19.6591 N   0  0  0  0  0  0  0  0  0  0  0  0
    8.2199  -15.8725   21.7178 C   0  0  0  0  0  0  0  0  0  0  0  0
    9.3431  -15.3161   21.6653 O   0  0  0  0  0  0  0  0  0  0  0  0
    5.5317  -20.3681   25.6011 N   0  0  0  0  0  0  0  0  0  0  0  0
    7.4170  -15.7357   22.8532 C   0  0  2  0  0  0  0  0  0  0  0  0
    7.6274  -14.7026   23.8685 C   0  0  0  0  0  0  0  0  0  0  0  0
    6.3368  -14.4864   24.5911 C   0  0  0  0  0  0  0  0  0  0  0  0
    6.4398  -13.4490   25.6467 C   0  0  0  0  0  0  0  0  0  0  0  0
    7.5379  -12.6680   25.9341 N   0  0  0  0  0  0  0  0  0  0  0  0
    7.2186  -11.8624   26.9552 C   0  0  0  0  0  0  0  0  0  0  0  0
    5.9531  -12.1040   27.3284 N   0  0  0  0  0  0  0  0  0  0  0  0
    5.4940  -13.0765   26.5173 C   0  0  0  0  0  0  0  0  0  0  0  0
    8.7494  -15.1310   24.7334 O   0  0  0  0  0  0  0  0  0  0  0  0
    9.1503  -14.3410   25.6240 N   0  0  0  0  0  0  0  0  0  0  0  0
    9.3981  -16.3854   24.6122 C   0  0  0  0  0  0  0  0  0  0  0  0
   10.5383  -16.7883   25.4004 C   0  0  0  0  0  0  0  0  0  0  0  0
   10.0699  -17.4555   26.6274 O   0  0  0  0  0  0  0  0  0  0  0  0
    8.8448  -17.6431   26.8103 O   0  0  0  0  0  0  0  0  0  0  0  0
  2  3  2  0
  2  1  1  0
  4  2  1  0
  5  4  1  0
  6  5  1  0
  7  8  1  0
  7  6  1  0
  8 10  1  0
  8  9  1  1
 10 11  2  0
 12 10  1  0
 12 13  1  0
 13 20  1  0
 13 14  1  6
 15 14  1  0
 16 15  2  0
 17 18  1  0
 17 16  1  0
 18 19  2  0
 19 15  1  0
 20 21  2  0
 22 23  1  0
 22 20  1  0
 24 23  1  0
 25 24  2  0
 26 24  1  0
M  END
$$$$
