RHG.pdb
     RDKit          3D

 26 26  0  0  1  0  0  0  0  0999 V2000
    7.8069  -13.9794   21.6395 N   0  0  0  0  0  0  0  0  0  0  0  0
    7.6189  -13.9229   20.2030 C   0  0  0  0  0  0  0  0  0  0  0  0
    7.4686  -12.7885   19.6212 N   0  0  0  0  0  0  0  0  0  0  0  0
    7.5963  -15.0986   19.4248 N   0  0  0  0  0  0  0  0  0  0  0  0
    8.5832  -16.1448   19.5636 C   0  0  0  0  0  0  0  0  0  0  0  0
    8.2696  -16.9022   20.8396 C   0  0  0  0  0  0  0  0  0  0  0  0
    9.4825  -17.7584   21.1266 C   0  0  0  0  0  0  0  0  0  0  0  0
   10.7635  -16.9693   21.2182 C   0  0  2  0  0  0  0  0  0  0  0  0
   11.8623  -17.5997   20.5525 N   0  0  0  0  0  0  0  0  0  0  0  0
   11.0334  -16.7531   22.6637 C   0  0  0  0  0  0  0  0  0  0  0  0
   11.9253  -17.4584   23.1937 O   0  0  0  0  0  0  0  0  0  0  0  0
    7.3118  -12.7225   18.6001 N   0  0  0  0  0  0  0  0  0  0  0  0
   10.3361  -15.8095   23.4224 C   0  0  1  0  0  0  0  0  0  0  0  0
   10.5055  -15.6543   24.8680 C   0  0  0  0  0  0  0  0  0  0  0  0
    9.7305  -14.4527   25.3040 C   0  0  0  0  0  0  0  0  0  0  0  0
    9.8673  -14.1804   26.7559 C   0  0  0  0  0  0  0  0  0  0  0  0
   10.6289  -14.8866   27.6614 N   0  0  0  0  0  0  0  0  0  0  0  0
   10.4758  -14.3188   28.8647 C   0  0  0  0  0  0  0  0  0  0  0  0
    9.6417  -13.2739   28.7564 N   0  0  0  0  0  0  0  0  0  0  0  0
    9.2806  -13.2054   27.4604 C   0  0  0  0  0  0  0  0  0  0  0  0
   10.0917  -16.9186   25.5168 O   0  0  0  0  0  0  0  0  0  0  0  0
    8.8892  -17.2698   25.4246 N   0  0  0  0  0  0  0  0  0  0  0  0
   10.9786  -17.7564   26.2381 C   0  0  0  0  0  0  0  0  0  0  0  0
   10.6191  -19.0475   26.7742 C   0  0  0  0  0  0  0  0  0  0  0  0
   10.6912  -19.0006   28.2448 O   0  0  0  0  0  0  0  0  0  0  0  0
   11.0570  -17.9501   28.8213 O   0  0  0  0  0  0  0  0  0  0  0  0
  2  3  2  0
  2  1  1  0
  4  2  1  0
  5  4  1  0
  6  5  1  0
  7  8  1  0
  7  6  1  0
  8 10  1  0
  8  9  1  1
 10 11  2  0
 12 10  1  0
 12 13  1  0
 13 20  1  0
 13 14  1  6
 15 14  1  0
 16 15  2  0
 17 18  1  0
 17 16  1  0
 18 19  2  0
 19 15  1  0
 20 21  2  0
 22 23  1  0
 22 20  1  0
 24 23  1  0
 25 24  2  0
 26 24  1  0
M  END
$$$$
