RHG.pdb
     RDKit          3D

 26 26  0  0  1  0  0  0  0  0999 V2000
   10.3057  -16.4057   14.4952 N   0  0  0  0  0  0  0  0  0  0  0  0
    9.8543  -17.7417   14.8315 C   0  0  0  0  0  0  0  0  0  0  0  0
    8.7691  -18.1985   14.3199 N   0  0  0  0  0  0  0  0  0  0  0  0
   10.5883  -18.5570   15.7175 N   0  0  0  0  0  0  0  0  0  0  0  0
   11.0854  -18.0785   16.9871 C   0  0  0  0  0  0  0  0  0  0  0  0
   12.3787  -17.3328   16.7195 C   0  0  0  0  0  0  0  0  0  0  0  0
   12.8327  -16.7901   18.0558 C   0  0  0  0  0  0  0  0  0  0  0  0
   12.9199  -15.2857   18.0920 C   0  0  2  0  0  0  0  0  0  0  0  0
   14.2503  -14.7938   17.9019 N   0  0  0  0  0  0  0  0  0  0  0  0
   12.3424  -14.8522   19.3910 C   0  0  0  0  0  0  0  0  0  0  0  0
   13.0015  -14.0249   20.0657 O   0  0  0  0  0  0  0  0  0  0  0  0
    8.3861  -19.1185   14.5999 N   0  0  0  0  0  0  0  0  0  0  0  0
   11.1179  -15.3318   19.8631 C   0  0  2  0  0  0  0  0  0  0  0  0
   10.5128  -14.8939   21.1219 C   0  0  0  0  0  0  0  0  0  0  0  0
    9.0271  -14.9111   20.9583 C   0  0  0  0  0  0  0  0  0  0  0  0
    8.5442  -13.8739   20.0139 C   0  0  0  0  0  0  0  0  0  0  0  0
    9.2954  -12.8850   19.4169 N   0  0  0  0  0  0  0  0  0  0  0  0
    8.4824  -12.1586   18.6390 C   0  0  0  0  0  0  0  0  0  0  0  0
    7.2377  -12.6514   18.7204 N   0  0  0  0  0  0  0  0  0  0  0  0
    7.2954  -13.6992   19.5651 C   0  0  0  0  0  0  0  0  0  0  0  0
   11.0202  -15.7678   22.2034 O   0  0  0  0  0  0  0  0  0  0  0  0
   10.6199  -15.5585   23.3755 N   0  0  0  0  0  0  0  0  0  0  0  0
   11.9346  -16.8294   21.9895 C   0  0  0  0  0  0  0  0  0  0  0  0
   12.3783  -17.7375   23.0200 C   0  0  0  0  0  0  0  0  0  0  0  0
   13.5678  -17.1763   23.6836 O   0  0  0  0  0  0  0  0  0  0  0  0
   14.0615  -16.0984   23.2785 O   0  0  0  0  0  0  0  0  0  0  0  0
  2  3  2  0
  2  1  1  0
  4  2  1  0
  5  4  1  0
  6  5  1  0
  7  8  1  0
  7  6  1  0
  8 10  1  0
  8  9  1  1
 10 11  2  0
 12 10  1  0
 12 13  1  0
 13 20  1  0
 13 14  1  6
 15 14  1  0
 16 15  2  0
 17 18  1  0
 17 16  1  0
 18 19  2  0
 19 15  1  0
 20 21  2  0
 22 23  1  0
 22 20  1  0
 24 23  1  0
 25 24  2  0
 26 24  1  0
M  END
$$$$
