RHG.pdb
     RDKit          3D

 26 26  0  0  1  0  0  0  0  0999 V2000
    9.6800  -14.1353   17.1069 N   0  0  0  0  0  0  0  0  0  0  0  0
    8.4007  -13.4917   16.8811 C   0  0  0  0  0  0  0  0  0  0  0  0
    8.0083  -13.2503   15.6828 N   0  0  0  0  0  0  0  0  0  0  0  0
    7.5713  -13.1212   17.9596 N   0  0  0  0  0  0  0  0  0  0  0  0
    8.0067  -13.1852   19.3359 C   0  0  0  0  0  0  0  0  0  0  0  0
    7.6694  -14.5688   19.8578 C   0  0  0  0  0  0  0  0  0  0  0  0
    7.2972  -14.3879   21.3122 C   0  0  0  0  0  0  0  0  0  0  0  0
    7.5751  -15.6052   22.1566 C   0  0  2  0  0  0  0  0  0  0  0  0
    6.4818  -16.5280   22.1916 N   0  0  0  0  0  0  0  0  0  0  0  0
    7.9386  -15.1152   23.5118 C   0  0  0  0  0  0  0  0  0  0  0  0
    7.2659  -14.1648   23.9789 O   0  0  0  0  0  0  0  0  0  0  0  0
    7.0982  -12.7944   15.4947 N   0  0  0  0  0  0  0  0  0  0  0  0
    8.9822  -15.6732   24.2546 C   0  0  1  0  0  0  0  0  0  0  0  0
    9.3437  -15.2230   25.5996 C   0  0  0  0  0  0  0  0  0  0  0  0
    8.1025  -15.1904   26.4320 C   0  0  0  0  0  0  0  0  0  0  0  0
    7.3395  -13.9283   26.2709 C   0  0  0  0  0  0  0  0  0  0  0  0
    7.8206  -12.6461   26.4227 N   0  0  0  0  0  0  0  0  0  0  0  0
    6.8128  -11.7946   26.1922 C   0  0  0  0  0  0  0  0  0  0  0  0
    5.7050  -12.4915   25.8986 N   0  0  0  0  0  0  0  0  0  0  0  0
    6.0467  -13.7934   25.9517 C   0  0  0  0  0  0  0  0  0  0  0  0
   10.4031  -16.1193   26.1142 O   0  0  0  0  0  0  0  0  0  0  0  0
   10.8006  -15.9554   27.2945 N   0  0  0  0  0  0  0  0  0  0  0  0
   10.9953  -17.1541   25.3478 C   0  0  0  0  0  0  0  0  0  0  0  0
   11.9304  -18.1195   25.8740 C   0  0  0  0  0  0  0  0  0  0  0  0
   12.2641  -19.0963   24.8229 O   0  0  0  0  0  0  0  0  0  0  0  0
   13.0740  -20.0219   25.0616 O   0  0  0  0  0  0  0  0  0  0  0  0
  2  3  2  0
  2  1  1  0
  4  2  1  0
  5  4  1  0
  6  5  1  0
  7  8  1  0
  7  6  1  0
  8 10  1  0
  8  9  1  1
 10 11  2  0
 12 10  1  0
 12 13  1  0
 13 20  1  0
 13 14  1  1
 15 14  1  0
 16 15  2  0
 17 18  1  0
 17 16  1  0
 18 19  2  0
 19 15  1  0
 20 21  2  0
 22 23  1  0
 22 20  1  0
 24 23  1  0
 25 24  2  0
 26 24  1  0
M  END
$$$$
