TYF.pdb
     RDKit          3D

 31 32  0  0  1  0  0  0  0  0999 V2000
   29.8008  -33.6368  -15.4114 C   0  0  0  0  0  0  0  0  0  0  0  0
   30.3717  -33.2885  -16.7897 C   0  0  1  0  0  0  0  0  0  0  0  0
   31.0300  -34.4159  -17.2382 O   0  0  0  0  0  0  0  0  0  0  0  0
   29.1859  -33.0485  -17.6965 C   0  0  2  0  0  0  0  0  0  0  0  0
   29.6409  -32.7636  -19.0390 N   0  0  0  0  0  0  0  0  0  0  0  0
   28.3364  -31.9340  -17.2267 C   0  0  0  0  0  0  0  0  0  0  0  0
   27.8257  -32.0068  -16.0847 O   0  0  0  0  0  0  0  0  0  0  0  0
   24.8415  -23.7599  -16.7740 O   0  0  0  0  0  0  0  0  0  0  0  0
   25.5847  -24.8933  -17.0922 C   0  0  0  0  0  0  0  0  0  0  0  0
   26.3588  -25.5204  -16.1412 C   0  0  0  0  0  0  0  0  0  0  0  0
   27.1002  -26.6503  -16.4572 C   0  0  0  0  0  0  0  0  0  0  0  0
   27.1016  -27.1964  -17.7182 C   0  0  0  0  0  0  0  0  0  0  0  0
   27.8753  -28.3972  -18.0985 C   0  0  0  0  0  0  0  0  0  0  0  0
   27.2498  -29.6668  -17.5485 C   0  0  2  0  0  0  0  0  0  0  0  0
   28.0627  -30.7749  -18.0009 N   0  0  0  0  0  0  0  0  0  0  0  0
   25.8340  -29.7674  -17.9097 C   0  0  0  0  0  0  0  0  0  0  0  0
   25.4396  -30.1604  -19.0537 O   0  0  0  0  0  0  0  0  0  0  0  0
   26.3213  -26.5607  -18.6685 C   0  0  0  0  0  0  0  0  0  0  0  0
   25.5814  -25.4374  -18.3634 C   0  0  0  0  0  0  0  0  0  0  0  0
   24.8398  -29.4264  -16.9810 N   0  0  0  0  0  0  0  0  0  0  0  0
   23.4112  -29.4238  -17.3133 C   0  0  1  0  0  0  0  0  0  0  0  0
   22.6993  -29.7004  -16.0039 C   0  0  0  0  0  0  0  0  0  0  0  0
   21.2424  -29.7785  -16.1153 C   0  0  0  0  0  0  0  0  0  0  0  0
   20.4337  -28.7147  -15.7866 C   0  0  0  0  0  0  0  0  0  0  0  0
   19.0711  -28.8582  -15.9183 C   0  0  0  0  0  0  0  0  0  0  0  0
   18.5153  -30.0361  -16.3683 C   0  0  0  0  0  0  0  0  0  0  0  0
   19.3093  -31.1096  -16.7013 C   0  0  0  0  0  0  0  0  0  0  0  0
   20.6716  -30.9496  -16.5638 C   0  0  0  0  0  0  0  0  0  0  0  0
   23.0598  -28.1356  -17.8940 C   0  0  0  0  0  0  0  0  0  0  0  0
   23.5051  -27.0791  -17.3834 O   0  0  0  0  0  0  0  0  0  0  0  0
   22.2428  -28.0216  -19.0038 O   0  0  0  0  0  0  0  0  0  0  0  0
  2  1  1  1
  3  2  1  0
  4  2  1  0
  4  5  1  6
  6  4  1  0
  6  7  2  0
  8  9  1  0
  9 19  2  0
 10  9  1  0
 10 11  2  0
 11 12  1  0
 12 18  2  0
 12 13  1  0
 14 13  1  6
 14 15  1  0
 15  6  1  0
 16 14  1  0
 16 20  1  0
 17 16  2  0
 19 18  1  0
 21 20  1  0
 21 29  1  0
 22 23  1  0
 21 22  1  1
 23 24  2  0
 24 25  1  0
 26 25  2  0
 27 26  1  0
 28 27  2  0
 28 23  1  0
 29 30  2  0
 29 31  1  0
M  END
$$$$
