TYF.pdb
     RDKit          3D

 31 32  0  0  1  0  0  0  0  0999 V2000
   29.0996  -22.2156  -15.7128 C   0  0  0  0  0  0  0  0  0  0  0  0
   27.7430  -21.5767  -15.3992 C   0  0  1  0  0  0  0  0  0  0  0  0
   28.0095  -20.3334  -14.8616 O   0  0  0  0  0  0  0  0  0  0  0  0
   27.0485  -21.3723  -16.7264 C   0  0  2  0  0  0  0  0  0  0  0  0
   27.8425  -20.5082  -17.5710 N   0  0  0  0  0  0  0  0  0  0  0  0
   25.6993  -20.7896  -16.5703 C   0  0  0  0  0  0  0  0  0  0  0  0
   25.5977  -19.5655  -16.3219 O   0  0  0  0  0  0  0  0  0  0  0  0
   16.9982  -19.3898  -16.6136 O   0  0  0  0  0  0  0  0  0  0  0  0
   18.2768  -19.9027  -16.8141 C   0  0  0  0  0  0  0  0  0  0  0  0
   18.5879  -21.1911  -16.4396 C   0  0  0  0  0  0  0  0  0  0  0  0
   19.8623  -21.7036  -16.6390 C   0  0  0  0  0  0  0  0  0  0  0  0
   20.8678  -20.9633  -17.2127 C   0  0  0  0  0  0  0  0  0  0  0  0
   22.2378  -21.4683  -17.4437 C   0  0  0  0  0  0  0  0  0  0  0  0
   23.1880  -21.0426  -16.3383 C   0  0  2  0  0  0  0  0  0  0  0  0
   24.5004  -21.5425  -16.6862 N   0  0  0  0  0  0  0  0  0  0  0  0
   22.7064  -21.4697  -15.0228 C   0  0  0  0  0  0  0  0  0  0  0  0
   22.8509  -22.6562  -14.5866 O   0  0  0  0  0  0  0  0  0  0  0  0
   20.5476  -19.6695  -17.5865 C   0  0  0  0  0  0  0  0  0  0  0  0
   19.2841  -19.1521  -17.3922 C   0  0  0  0  0  0  0  0  0  0  0  0
   22.0545  -20.5603  -14.1772 N   0  0  0  0  0  0  0  0  0  0  0  0
   21.6771  -20.8892  -12.7985 C   0  0  1  0  0  0  0  0  0  0  0  0
   22.4100  -19.8810  -11.9359 C   0  0  0  0  0  0  0  0  0  0  0  0
   23.7640  -20.2851  -11.5557 C   0  0  0  0  0  0  0  0  0  0  0  0
   24.0789  -20.6319  -10.2617 C   0  0  0  0  0  0  0  0  0  0  0  0
   25.3729  -21.0044   -9.9763 C   0  0  0  0  0  0  0  0  0  0  0  0
   26.3420  -21.0339  -10.9554 C   0  0  0  0  0  0  0  0  0  0  0  0
   26.0443  -20.6903  -12.2542 C   0  0  0  0  0  0  0  0  0  0  0  0
   24.7441  -20.3197  -12.5235 C   0  0  0  0  0  0  0  0  0  0  0  0
   20.2291  -20.8071  -12.6688 C   0  0  0  0  0  0  0  0  0  0  0  0
   19.5659  -20.1355  -13.4961 O   0  0  0  0  0  0  0  0  0  0  0  0
   19.5387  -21.4482  -11.6566 O   0  0  0  0  0  0  0  0  0  0  0  0
  2  1  1  6
  3  2  1  0
  4  2  1  0
  4  5  1  6
  6  4  1  0
  6  7  2  0
  8  9  1  0
  9 19  2  0
 10  9  1  0
 10 11  2  0
 11 12  1  0
 12 18  2  0
 12 13  1  0
 14 13  1  6
 14 15  1  0
 15  6  1  0
 16 14  1  0
 16 20  1  0
 17 16  2  0
 19 18  1  0
 21 20  1  0
 21 29  1  0
 22 23  1  0
 21 22  1  1
 23 24  2  0
 24 25  1  0
 26 25  2  0
 27 26  1  0
 28 27  2  0
 28 23  1  0
 29 30  2  0
 29 31  1  0
M  END
$$$$
