TYF.pdb
     RDKit          3D

 31 32  0  0  1  0  0  0  0  0999 V2000
   29.0306  -20.8995  -15.4228 C   0  0  0  0  0  0  0  0  0  0  0  0
   28.2031  -20.9762  -14.1358 C   0  0  1  0  0  0  0  0  0  0  0  0
   29.0465  -20.6143  -13.1046 O   0  0  0  0  0  0  0  0  0  0  0  0
   27.1291  -19.9186  -14.2534 C   0  0  2  0  0  0  0  0  0  0  0  0
   27.7209  -18.6536  -14.6274 N   0  0  0  0  0  0  0  0  0  0  0  0
   26.3715  -19.7456  -12.9962 C   0  0  0  0  0  0  0  0  0  0  0  0
   26.3621  -18.6178  -12.4498 O   0  0  0  0  0  0  0  0  0  0  0  0
   20.5232  -18.7432  -15.5508 O   0  0  0  0  0  0  0  0  0  0  0  0
   21.2553  -19.3780  -14.5512 C   0  0  0  0  0  0  0  0  0  0  0  0
   22.0454  -20.4688  -14.8388 C   0  0  0  0  0  0  0  0  0  0  0  0
   22.7757  -21.1025  -13.8430 C   0  0  0  0  0  0  0  0  0  0  0  0
   22.7499  -20.6815  -12.5352 C   0  0  0  0  0  0  0  0  0  0  0  0
   23.5107  -21.3259  -11.4439 C   0  0  0  0  0  0  0  0  0  0  0  0
   24.8295  -20.6195  -11.1843 C   0  0  2  0  0  0  0  0  0  0  0  0
   25.6470  -20.7920  -12.3655 N   0  0  0  0  0  0  0  0  0  0  0  0
   25.4526  -21.0853   -9.9433 C   0  0  0  0  0  0  0  0  0  0  0  0
   25.0063  -22.0715   -9.2747 O   0  0  0  0  0  0  0  0  0  0  0  0
   21.9536  -19.5847  -12.2540 C   0  0  0  0  0  0  0  0  0  0  0  0
   21.2246  -18.9488  -13.2371 C   0  0  0  0  0  0  0  0  0  0  0  0
   26.5930  -20.4436   -9.4387 N   0  0  0  0  0  0  0  0  0  0  0  0
   27.1698  -20.7648   -8.1289 C   0  0  1  0  0  0  0  0  0  0  0  0
   28.1923  -19.6765   -7.8686 C   0  0  0  0  0  0  0  0  0  0  0  0
   28.7077  -19.6494   -6.4993 C   0  0  0  0  0  0  0  0  0  0  0  0
   28.2125  -18.7772   -5.5572 C   0  0  0  0  0  0  0  0  0  0  0  0
   28.7431  -18.8087   -4.2875 C   0  0  0  0  0  0  0  0  0  0  0  0
   29.7487  -19.6895   -3.9534 C   0  0  0  0  0  0  0  0  0  0  0  0
   30.2553  -20.5684   -4.8831 C   0  0  0  0  0  0  0  0  0  0  0  0
   29.7132  -20.5242   -6.1498 C   0  0  0  0  0  0  0  0  0  0  0  0
   26.1056  -20.7987   -7.1356 C   0  0  0  0  0  0  0  0  0  0  0  0
   26.0594  -21.7365   -6.3028 O   0  0  0  0  0  0  0  0  0  0  0  0
   25.1255  -19.8255   -7.0668 O   0  0  0  0  0  0  0  0  0  0  0  0
  2  1  1  6
  3  2  1  0
  4  2  1  0
  4  5  1  1
  6  4  1  0
  6  7  2  0
  8  9  1  0
  9 19  2  0
 10  9  1  0
 10 11  2  0
 11 12  1  0
 12 18  2  0
 12 13  1  0
 14 13  1  6
 14 15  1  0
 15  6  1  0
 16 14  1  0
 16 20  1  0
 17 16  2  0
 19 18  1  0
 21 20  1  0
 21 29  1  0
 22 23  1  0
 21 22  1  1
 23 24  2  0
 24 25  1  0
 26 25  2  0
 27 26  1  0
 28 27  2  0
 28 23  1  0
 29 30  2  0
 29 31  1  0
M  END
$$$$
