TYF.pdb
     RDKit          3D

 31 32  0  0  1  0  0  0  0  0999 V2000
   28.6138  -18.7130  -20.2252 C   0  0  0  0  0  0  0  0  0  0  0  0
   27.8291  -19.1354  -18.9790 C   0  0  1  0  0  0  0  0  0  0  0  0
   28.7159  -19.8154  -18.1685 O   0  0  0  0  0  0  0  0  0  0  0  0
   27.4322  -17.8604  -18.2701 C   0  0  2  0  0  0  0  0  0  0  0  0
   28.6081  -17.0714  -17.9780 N   0  0  0  0  0  0  0  0  0  0  0  0
   26.7002  -18.1215  -17.0130 C   0  0  0  0  0  0  0  0  0  0  0  0
   27.2870  -17.9251  -15.9232 O   0  0  0  0  0  0  0  0  0  0  0  0
   20.0883  -20.6801  -11.6027 O   0  0  0  0  0  0  0  0  0  0  0  0
   20.8425  -20.2544  -12.6926 C   0  0  0  0  0  0  0  0  0  0  0  0
   21.0401  -18.9129  -12.9343 C   0  0  0  0  0  0  0  0  0  0  0  0
   21.7919  -18.4873  -14.0206 C   0  0  0  0  0  0  0  0  0  0  0  0
   22.3711  -19.3692  -14.9010 C   0  0  0  0  0  0  0  0  0  0  0  0
   23.1786  -18.9604  -16.0698 C   0  0  0  0  0  0  0  0  0  0  0  0
   24.6632  -18.9482  -15.7513 C   0  0  2  0  0  0  0  0  0  0  0  0
   25.3587  -18.5861  -16.9673 N   0  0  0  0  0  0  0  0  0  0  0  0
   25.0958  -20.2169  -15.1612 C   0  0  0  0  0  0  0  0  0  0  0  0
   25.2625  -21.2758  -15.8465 O   0  0  0  0  0  0  0  0  0  0  0  0
   22.1681  -20.7156  -14.6517 C   0  0  0  0  0  0  0  0  0  0  0  0
   21.4226  -21.1475  -13.5747 C   0  0  0  0  0  0  0  0  0  0  0  0
   25.3491  -20.3084  -13.7847 N   0  0  0  0  0  0  0  0  0  0  0  0
   25.9000  -21.5145  -13.1579 C   0  0  1  0  0  0  0  0  0  0  0  0
   27.0515  -21.0256  -12.3019 C   0  0  0  0  0  0  0  0  0  0  0  0
   26.6594  -20.5719  -10.9671 C   0  0  0  0  0  0  0  0  0  0  0  0
   26.4516  -19.2405  -10.6876 C   0  0  0  0  0  0  0  0  0  0  0  0
   26.0818  -18.8859   -9.4101 C   0  0  0  0  0  0  0  0  0  0  0  0
   25.9195  -19.8331   -8.4227 C   0  0  0  0  0  0  0  0  0  0  0  0
   26.1231  -21.1686   -8.6849 C   0  0  0  0  0  0  0  0  0  0  0  0
   26.4930  -21.5071   -9.9691 C   0  0  0  0  0  0  0  0  0  0  0  0
   24.8534  -22.1709  -12.3872 C   0  0  0  0  0  0  0  0  0  0  0  0
   23.8516  -21.5152  -12.0108 O   0  0  0  0  0  0  0  0  0  0  0  0
   24.9142  -23.5095  -12.0455 O   0  0  0  0  0  0  0  0  0  0  0  0
  2  1  1  6
  3  2  1  0
  4  2  1  0
  4  5  1  1
  6  4  1  0
  6  7  2  0
  8  9  1  0
  9 19  2  0
 10  9  1  0
 10 11  2  0
 11 12  1  0
 12 18  2  0
 12 13  1  0
 14 13  1  6
 14 15  1  0
 15  6  1  0
 16 14  1  0
 16 20  1  0
 17 16  2  0
 19 18  1  0
 21 20  1  0
 21 29  1  0
 22 23  1  0
 21 22  1  1
 23 24  2  0
 24 25  1  0
 26 25  2  0
 27 26  1  0
 28 27  2  0
 28 23  1  0
 29 30  2  0
 29 31  1  0
M  END
$$$$
