TYF.pdb
     RDKit          3D

 31 32  0  0  1  0  0  0  0  0999 V2000
   21.0056  -13.4551    6.5040 C   0  0  0  0  0  0  0  0  0  0  0  0
   19.8046  -12.5453    6.2265 C   0  0  1  0  0  0  0  0  0  0  0  0
   20.3183  -11.3092    5.8892 O   0  0  0  0  0  0  0  0  0  0  0  0
   19.1112  -13.1110    5.0079 C   0  0  2  0  0  0  0  0  0  0  0  0
   18.0442  -12.2280    4.5928 N   0  0  0  0  0  0  0  0  0  0  0  0
   18.5563  -14.4588    5.2527 C   0  0  0  0  0  0  0  0  0  0  0  0
   17.4109  -14.5563    5.7516 O   0  0  0  0  0  0  0  0  0  0  0  0
   13.1719  -17.4774    2.1259 O   0  0  0  0  0  0  0  0  0  0  0  0
   14.4904  -17.5384    2.5684 C   0  0  0  0  0  0  0  0  0  0  0  0
   14.9344  -18.6027    3.3215 C   0  0  0  0  0  0  0  0  0  0  0  0
   16.2487  -18.6646    3.7633 C   0  0  0  0  0  0  0  0  0  0  0  0
   17.1647  -17.6810    3.4769 C   0  0  0  0  0  0  0  0  0  0  0  0
   18.5727  -17.7061    3.9265 C   0  0  0  0  0  0  0  0  0  0  0  0
   18.7531  -16.9858    5.2510 C   0  0  2  0  0  0  0  0  0  0  0  0
   19.2516  -15.6606    4.9529 N   0  0  0  0  0  0  0  0  0  0  0  0
   19.5933  -17.7561    6.1706 C   0  0  0  0  0  0  0  0  0  0  0  0
   20.8016  -18.0593    5.9121 O   0  0  0  0  0  0  0  0  0  0  0  0
   16.7112  -16.6147    2.7197 C   0  0  0  0  0  0  0  0  0  0  0  0
   15.4070  -16.5450    2.2765 C   0  0  0  0  0  0  0  0  0  0  0  0
   19.0806  -18.1951    7.4001 N   0  0  0  0  0  0  0  0  0  0  0  0
   19.8576  -19.0135    8.3369 C   0  0  1  0  0  0  0  0  0  0  0  0
   20.0409  -18.1440    9.5649 C   0  0  0  0  0  0  0  0  0  0  0  0
   21.0804  -17.1229    9.4300 C   0  0  0  0  0  0  0  0  0  0  0  0
   20.7731  -15.8094    9.1576 C   0  0  0  0  0  0  0  0  0  0  0  0
   21.8021  -14.9020    9.0467 C   0  0  0  0  0  0  0  0  0  0  0  0
   23.1160  -15.2866    9.2026 C   0  0  0  0  0  0  0  0  0  0  0  0
   23.4409  -16.5957    9.4753 C   0  0  0  0  0  0  0  0  0  0  0  0
   22.3990  -17.4919    9.5833 C   0  0  0  0  0  0  0  0  0  0  0  0
   19.1289  -20.2440    8.6114 C   0  0  0  0  0  0  0  0  0  0  0  0
   18.0200  -20.4483    8.0604 O   0  0  0  0  0  0  0  0  0  0  0  0
   19.6131  -21.2161    9.4675 O   0  0  0  0  0  0  0  0  0  0  0  0
  2  1  1  6
  3  2  1  0
  4  2  1  0
  4  5  1  1
  6  4  1  0
  6  7  2  0
  8  9  1  0
  9 19  2  0
 10  9  1  0
 10 11  2  0
 11 12  1  0
 12 18  2  0
 12 13  1  0
 14 13  1  6
 14 15  1  0
 15  6  1  0
 16 14  1  0
 16 20  1  0
 17 16  2  0
 19 18  1  0
 21 20  1  0
 21 29  1  0
 22 23  1  0
 21 22  1  1
 23 24  2  0
 24 25  1  0
 26 25  2  0
 27 26  1  0
 28 27  2  0
 28 23  1  0
 29 30  2  0
 29 31  1  0
M  END
$$$$
