TYF.pdb
     RDKit          3D

 31 32  0  0  1  0  0  0  0  0999 V2000
   28.9870  -21.2953  -15.8531 C   0  0  0  0  0  0  0  0  0  0  0  0
   28.4769  -20.9533  -14.4496 C   0  0  1  0  0  0  0  0  0  0  0  0
   29.2609  -19.9145  -13.9893 O   0  0  0  0  0  0  0  0  0  0  0  0
   27.0673  -20.4341  -14.6207 C   0  0  2  0  0  0  0  0  0  0  0  0
   27.0704  -19.2723  -15.4814 N   0  0  0  0  0  0  0  0  0  0  0  0
   26.4393  -20.0790  -13.3308 C   0  0  0  0  0  0  0  0  0  0  0  0
   26.5138  -18.8934  -12.9316 O   0  0  0  0  0  0  0  0  0  0  0  0
   20.6260  -18.4976  -15.0346 O   0  0  0  0  0  0  0  0  0  0  0  0
   21.4037  -19.1556  -14.0857 C   0  0  0  0  0  0  0  0  0  0  0  0
   21.9765  -20.3765  -14.3653 C   0  0  0  0  0  0  0  0  0  0  0  0
   22.7520  -21.0334  -13.4200 C   0  0  0  0  0  0  0  0  0  0  0  0
   22.9865  -20.5082  -12.1720 C   0  0  0  0  0  0  0  0  0  0  0  0
   23.8049  -21.1727  -11.1357 C   0  0  0  0  0  0  0  0  0  0  0  0
   25.2524  -20.7161  -11.1837 C   0  0  2  0  0  0  0  0  0  0  0  0
   25.7503  -21.0111  -12.5098 N   0  0  0  0  0  0  0  0  0  0  0  0
   26.0374  -21.3059  -10.0971 C   0  0  0  0  0  0  0  0  0  0  0  0
   26.4287  -22.5165  -10.1065 O   0  0  0  0  0  0  0  0  0  0  0  0
   22.4076  -19.2810  -11.8984 C   0  0  0  0  0  0  0  0  0  0  0  0
   21.6356  -18.6211  -12.8316 C   0  0  0  0  0  0  0  0  0  0  0  0
   26.3947  -20.5347   -8.9814 N   0  0  0  0  0  0  0  0  0  0  0  0
   27.0865  -21.0972   -7.8168 C   0  0  1  0  0  0  0  0  0  0  0  0
   28.3256  -20.2421   -7.6409 C   0  0  0  0  0  0  0  0  0  0  0  0
   28.5070  -19.7158   -6.2876 C   0  0  0  0  0  0  0  0  0  0  0  0
   27.9366  -18.5279   -5.8910 C   0  0  0  0  0  0  0  0  0  0  0  0
   28.1473  -18.0946   -4.6017 C   0  0  0  0  0  0  0  0  0  0  0  0
   28.9109  -18.8243   -3.7167 C   0  0  0  0  0  0  0  0  0  0  0  0
   29.4885  -20.0141   -4.0968 C   0  0  0  0  0  0  0  0  0  0  0  0
   29.2678  -20.4341   -5.3911 C   0  0  0  0  0  0  0  0  0  0  0  0
   26.1944  -21.0543   -6.6667 C   0  0  0  0  0  0  0  0  0  0  0  0
   25.1493  -20.3610   -6.7135 O   0  0  0  0  0  0  0  0  0  0  0  0
   26.4513  -21.7569   -5.5037 O   0  0  0  0  0  0  0  0  0  0  0  0
  2  1  1  6
  3  2  1  0
  4  2  1  0
  4  5  1  6
  6  4  1  0
  6  7  2  0
  8  9  1  0
  9 19  2  0
 10  9  1  0
 10 11  2  0
 11 12  1  0
 12 18  2  0
 12 13  1  0
 14 13  1  6
 14 15  1  0
 15  6  1  0
 16 14  1  0
 16 20  1  0
 17 16  2  0
 19 18  1  0
 21 20  1  0
 21 29  1  0
 22 23  1  0
 21 22  1  1
 23 24  2  0
 24 25  1  0
 26 25  2  0
 27 26  1  0
 28 27  2  0
 28 23  1  0
 29 30  2  0
 29 31  1  0
M  END
$$$$
