TYF.pdb
     RDKit          3D

 31 32  0  0  1  0  0  0  0  0999 V2000
   29.2346  -21.7306  -15.7773 C   0  0  0  0  0  0  0  0  0  0  0  0
   29.1037  -21.3318  -17.2507 C   0  0  1  0  0  0  0  0  0  0  0  0
   30.3888  -21.2036  -17.7383 O   0  0  0  0  0  0  0  0  0  0  0  0
   28.4517  -22.5002  -17.9545 C   0  0  2  0  0  0  0  0  0  0  0  0
   28.4796  -22.2927  -19.3851 N   0  0  0  0  0  0  0  0  0  0  0  0
   27.0533  -22.7065  -17.5226 C   0  0  0  0  0  0  0  0  0  0  0  0
   26.1724  -21.9192  -17.9403 O   0  0  0  0  0  0  0  0  0  0  0  0
   19.7212  -26.4288  -14.2009 O   0  0  0  0  0  0  0  0  0  0  0  0
   21.0165  -26.1697  -14.6403 C   0  0  0  0  0  0  0  0  0  0  0  0
   21.2446  -25.6202  -15.8824 C   0  0  0  0  0  0  0  0  0  0  0  0
   22.5356  -25.3615  -16.3215 C   0  0  0  0  0  0  0  0  0  0  0  0
   23.6400  -25.6360  -15.5512 C   0  0  0  0  0  0  0  0  0  0  0  0
   25.0313  -25.3772  -15.9786 C   0  0  0  0  0  0  0  0  0  0  0  0
   25.3110  -23.8908  -16.1133 C   0  0  2  0  0  0  0  0  0  0  0  0
   26.6460  -23.7541  -16.6542 N   0  0  0  0  0  0  0  0  0  0  0  0
   25.0957  -23.1874  -14.8469 C   0  0  0  0  0  0  0  0  0  0  0  0
   25.7018  -23.4989  -13.7724 O   0  0  0  0  0  0  0  0  0  0  0  0
   23.4028  -26.1881  -14.3042 C   0  0  0  0  0  0  0  0  0  0  0  0
   22.1235  -26.4485  -13.8598 C   0  0  0  0  0  0  0  0  0  0  0  0
   24.1917  -22.1175  -14.7753 N   0  0  0  0  0  0  0  0  0  0  0  0
   23.8564  -21.4450  -13.5157 C   0  0  1  0  0  0  0  0  0  0  0  0
   24.6768  -20.1704  -13.5164 C   0  0  0  0  0  0  0  0  0  0  0  0
   26.0715  -20.3516  -13.1126 C   0  0  0  0  0  0  0  0  0  0  0  0
   27.1151  -19.9802  -13.9291 C   0  0  0  0  0  0  0  0  0  0  0  0
   28.4023  -20.1777  -13.4833 C   0  0  0  0  0  0  0  0  0  0  0  0
   28.6549  -20.7342  -12.2484 C   0  0  0  0  0  0  0  0  0  0  0  0
   27.6232  -21.1112  -11.4194 C   0  0  0  0  0  0  0  0  0  0  0  0
   26.3403  -20.9067  -11.8805 C   0  0  0  0  0  0  0  0  0  0  0  0
   22.4215  -21.2013  -13.4735 C   0  0  0  0  0  0  0  0  0  0  0  0
   21.7225  -21.4133  -14.4941 O   0  0  0  0  0  0  0  0  0  0  0  0
   21.7820  -20.7386  -12.3380 O   0  0  0  0  0  0  0  0  0  0  0  0
  2  1  1  1
  3  2  1  0
  4  2  1  0
  4  5  1  6
  6  4  1  0
  6  7  2  0
  8  9  1  0
  9 19  2  0
 10  9  1  0
 10 11  2  0
 11 12  1  0
 12 18  2  0
 12 13  1  0
 14 13  1  1
 14 15  1  0
 15  6  1  0
 16 14  1  0
 16 20  1  0
 17 16  2  0
 19 18  1  0
 21 20  1  0
 21 29  1  0
 22 23  1  0
 21 22  1  6
 23 24  2  0
 24 25  1  0
 26 25  2  0
 27 26  1  0
 28 27  2  0
 28 23  1  0
 29 30  2  0
 29 31  1  0
M  END
$$$$
