TYF.pdb
     RDKit          3D

 31 32  0  0  1  0  0  0  0  0999 V2000
   21.6213   -6.7006  -20.8936 C   0  0  0  0  0  0  0  0  0  0  0  0
   20.7408   -7.9500  -20.9967 C   0  0  1  0  0  0  0  0  0  0  0  0
   20.4376   -8.1072  -22.3343 O   0  0  0  0  0  0  0  0  0  0  0  0
   21.6027   -9.1177  -20.5731 C   0  0  2  0  0  0  0  0  0  0  0  0
   20.9186  -10.3614  -20.8479 N   0  0  0  0  0  0  0  0  0  0  0  0
   21.9535   -9.0652  -19.1383 C   0  0  0  0  0  0  0  0  0  0  0  0
   21.0567   -9.2857  -18.2912 O   0  0  0  0  0  0  0  0  0  0  0  0
   23.8449  -15.0952  -17.5448 O   0  0  0  0  0  0  0  0  0  0  0  0
   24.0960  -13.7306  -17.4315 C   0  0  0  0  0  0  0  0  0  0  0  0
   24.3727  -12.9684  -18.5449 C   0  0  0  0  0  0  0  0  0  0  0  0
   24.6233  -11.6079  -18.4332 C   0  0  0  0  0  0  0  0  0  0  0  0
   24.6089  -10.9574  -17.2228 C   0  0  0  0  0  0  0  0  0  0  0  0
   24.8699   -9.5118  -17.0579 C   0  0  0  0  0  0  0  0  0  0  0  0
   23.6112   -8.6864  -17.2586 C   0  0  2  0  0  0  0  0  0  0  0  0
   23.2592   -8.7768  -18.6591 N   0  0  0  0  0  0  0  0  0  0  0  0
   23.7820   -7.3184  -16.7643 C   0  0  0  0  0  0  0  0  0  0  0  0
   24.6387   -6.5115  -17.2479 O   0  0  0  0  0  0  0  0  0  0  0  0
   24.3301  -11.7299  -16.1086 C   0  0  0  0  0  0  0  0  0  0  0  0
   24.0799  -13.0824  -16.2101 C   0  0  0  0  0  0  0  0  0  0  0  0
   22.9845   -6.8394  -15.7147 N   0  0  0  0  0  0  0  0  0  0  0  0
   23.0441   -5.4521  -15.2424 C   0  0  1  0  0  0  0  0  0  0  0  0
   22.6439   -4.6093  -16.4370 C   0  0  0  0  0  0  0  0  0  0  0  0
   21.2059   -4.5921  -16.7073 C   0  0  0  0  0  0  0  0  0  0  0  0
   20.6478   -5.3602  -17.7034 C   0  0  0  0  0  0  0  0  0  0  0  0
   19.2870   -5.2959  -17.9001 C   0  0  0  0  0  0  0  0  0  0  0  0
   18.4889   -4.4843  -17.1237 C   0  0  0  0  0  0  0  0  0  0  0  0
   19.0304   -3.7098  -16.1235 C   0  0  0  0  0  0  0  0  0  0  0  0
   20.3946   -3.7856  -15.9394 C   0  0  0  0  0  0  0  0  0  0  0  0
   22.1460   -5.2969  -14.1067 C   0  0  0  0  0  0  0  0  0  0  0  0
   21.4062   -6.2502  -13.7618 O   0  0  0  0  0  0  0  0  0  0  0  0
   22.0706   -4.1246  -13.3771 O   0  0  0  0  0  0  0  0  0  0  0  0
  2  1  1  6
  3  2  1  0
  4  2  1  0
  4  5  1  1
  6  4  1  0
  6  7  2  0
  8  9  1  0
  9 19  2  0
 10  9  1  0
 10 11  2  0
 11 12  1  0
 12 18  2  0
 12 13  1  0
 14 13  1  6
 14 15  1  0
 15  6  1  0
 16 14  1  0
 16 20  1  0
 17 16  2  0
 19 18  1  0
 21 20  1  0
 21 29  1  0
 22 23  1  0
 21 22  1  6
 23 24  2  0
 24 25  1  0
 26 25  2  0
 27 26  1  0
 28 27  2  0
 28 23  1  0
 29 30  2  0
 29 31  1  0
M  END
$$$$
