TYF.pdb
     RDKit          3D

 31 32  0  0  1  0  0  0  0  0999 V2000
   29.3140  -19.3300  -13.5993 C   0  0  0  0  0  0  0  0  0  0  0  0
   28.5260  -18.3290  -14.4502 C   0  0  1  0  0  0  0  0  0  0  0  0
   29.1730  -18.2535  -15.6673 O   0  0  0  0  0  0  0  0  0  0  0  0
   27.1641  -18.9431  -14.6828 C   0  0  2  0  0  0  0  0  0  0  0  0
   26.3765  -18.0865  -15.5409 N   0  0  0  0  0  0  0  0  0  0  0  0
   26.4288  -19.1723  -13.4214 C   0  0  0  0  0  0  0  0  0  0  0  0
   25.8465  -18.2038  -12.8799 O   0  0  0  0  0  0  0  0  0  0  0  0
   19.9515  -19.8456  -14.3267 O   0  0  0  0  0  0  0  0  0  0  0  0
   21.1031  -20.3196  -13.7043 C   0  0  0  0  0  0  0  0  0  0  0  0
   22.1505  -20.8218  -14.4444 C   0  0  0  0  0  0  0  0  0  0  0  0
   23.2990  -21.2946  -13.8250 C   0  0  0  0  0  0  0  0  0  0  0  0
   23.4506  -21.2871  -12.4592 C   0  0  0  0  0  0  0  0  0  0  0  0
   24.6550  -21.7803  -11.7582 C   0  0  0  0  0  0  0  0  0  0  0  0
   25.6642  -20.6699  -11.5248 C   0  0  2  0  0  0  0  0  0  0  0  0
   26.3428  -20.4375  -12.7813 N   0  0  0  0  0  0  0  0  0  0  0  0
   26.5545  -20.9809  -10.4042 C   0  0  0  0  0  0  0  0  0  0  0  0
   27.5215  -21.8023  -10.4982 O   0  0  0  0  0  0  0  0  0  0  0  0
   22.3939  -20.7810  -11.7222 C   0  0  0  0  0  0  0  0  0  0  0  0
   21.2489  -20.3091  -12.3292 C   0  0  0  0  0  0  0  0  0  0  0  0
   26.3664  -20.3657   -9.1579 N   0  0  0  0  0  0  0  0  0  0  0  0
   27.1235  -20.7491   -7.9616 C   0  0  1  0  0  0  0  0  0  0  0  0
   27.9223  -19.5168   -7.5863 C   0  0  0  0  0  0  0  0  0  0  0  0
   28.5940  -19.6063   -6.2893 C   0  0  0  0  0  0  0  0  0  0  0  0
   29.5809  -20.5346   -6.0484 C   0  0  0  0  0  0  0  0  0  0  0  0
   30.1714  -20.5602   -4.8054 C   0  0  0  0  0  0  0  0  0  0  0  0
   29.7923  -19.6811   -3.8143 C   0  0  0  0  0  0  0  0  0  0  0  0
   28.8073  -18.7466   -4.0383 C   0  0  0  0  0  0  0  0  0  0  0  0
   28.2260  -18.7341   -5.2883 C   0  0  0  0  0  0  0  0  0  0  0  0
   26.1926  -21.1654   -6.9222 C   0  0  0  0  0  0  0  0  0  0  0  0
   24.9776  -20.8653   -7.0166 O   0  0  0  0  0  0  0  0  0  0  0  0
   26.5943  -21.8904   -5.8153 O   0  0  0  0  0  0  0  0  0  0  0  0
  2  1  1  1
  3  2  1  0
  4  2  1  0
  4  5  1  6
  6  4  1  0
  6  7  2  0
  8  9  1  0
  9 19  2  0
 10  9  1  0
 10 11  2  0
 11 12  1  0
 12 18  2  0
 12 13  1  0
 14 13  1  6
 14 15  1  0
 15  6  1  0
 16 14  1  0
 16 20  1  0
 17 16  2  0
 19 18  1  0
 21 20  1  0
 21 29  1  0
 22 23  1  0
 21 22  1  1
 23 24  2  0
 24 25  1  0
 26 25  2  0
 27 26  1  0
 28 27  2  0
 28 23  1  0
 29 30  2  0
 29 31  1  0
M  END
$$$$
