TYF.pdb
     RDKit          3D

 31 32  0  0  1  0  0  0  0  0999 V2000
   29.6666  -19.5459  -16.1109 C   0  0  0  0  0  0  0  0  0  0  0  0
   28.9247  -19.8635  -14.8086 C   0  0  1  0  0  0  0  0  0  0  0  0
   29.7185  -19.3957  -13.7806 O   0  0  0  0  0  0  0  0  0  0  0  0
   27.6547  -19.0434  -14.8281 C   0  0  2  0  0  0  0  0  0  0  0  0
   27.9685  -17.6534  -15.0729 N   0  0  0  0  0  0  0  0  0  0  0  0
   26.8963  -19.1529  -13.5643 C   0  0  0  0  0  0  0  0  0  0  0  0
   26.9391  -18.1993  -12.7524 O   0  0  0  0  0  0  0  0  0  0  0  0
   19.4425  -19.6433   -9.6505 O   0  0  0  0  0  0  0  0  0  0  0  0
   20.6113  -20.0656  -10.2779 C   0  0  0  0  0  0  0  0  0  0  0  0
   21.5458  -20.8163   -9.5994 C   0  0  0  0  0  0  0  0  0  0  0  0
   22.7114  -21.2378  -10.2239 C   0  0  0  0  0  0  0  0  0  0  0  0
   22.9917  -20.9331  -11.5342 C   0  0  0  0  0  0  0  0  0  0  0  0
   24.2193  -21.3607  -12.2382 C   0  0  0  0  0  0  0  0  0  0  0  0
   25.3772  -20.4142  -11.9750 C   0  0  2  0  0  0  0  0  0  0  0  0
   26.1147  -20.2858  -13.2131 N   0  0  0  0  0  0  0  0  0  0  0  0
   26.1820  -20.8555  -10.8337 C   0  0  0  0  0  0  0  0  0  0  0  0
   27.0258  -21.8047  -10.9098 O   0  0  0  0  0  0  0  0  0  0  0  0
   22.0480  -20.1785  -12.2095 C   0  0  0  0  0  0  0  0  0  0  0  0
   20.8870  -19.7553  -11.5969 C   0  0  0  0  0  0  0  0  0  0  0  0
   26.0468  -20.2283   -9.5865 N   0  0  0  0  0  0  0  0  0  0  0  0
   26.8007  -20.6495   -8.4009 C   0  0  1  0  0  0  0  0  0  0  0  0
   27.5449  -19.4105   -7.9438 C   0  0  0  0  0  0  0  0  0  0  0  0
   28.2156  -19.5534   -6.6512 C   0  0  0  0  0  0  0  0  0  0  0  0
   29.1826  -20.5094   -6.4398 C   0  0  0  0  0  0  0  0  0  0  0  0
   29.7735  -20.5850   -5.1989 C   0  0  0  0  0  0  0  0  0  0  0  0
   29.4142  -19.7283   -4.1813 C   0  0  0  0  0  0  0  0  0  0  0  0
   28.4492  -18.7666   -4.3756 C   0  0  0  0  0  0  0  0  0  0  0  0
   27.8673  -18.7041   -5.6237 C   0  0  0  0  0  0  0  0  0  0  0  0
   25.8716  -21.1592   -7.4023 C   0  0  0  0  0  0  0  0  0  0  0  0
   26.3099  -21.7664   -6.3951 O   0  0  0  0  0  0  0  0  0  0  0  0
   24.5025  -21.0010   -7.5155 O   0  0  0  0  0  0  0  0  0  0  0  0
  2  1  1  6
  3  2  1  0
  4  2  1  0
  4  5  1  1
  6  4  1  0
  6  7  2  0
  8  9  1  0
  9 19  2  0
 10  9  1  0
 10 11  2  0
 11 12  1  0
 12 18  2  0
 12 13  1  0
 14 13  1  6
 14 15  1  0
 15  6  1  0
 16 14  1  0
 16 20  1  0
 17 16  2  0
 19 18  1  0
 21 20  1  0
 21 29  1  0
 22 23  1  0
 21 22  1  1
 23 24  2  0
 24 25  1  0
 26 25  2  0
 27 26  1  0
 28 27  2  0
 28 23  1  0
 29 30  2  0
 29 31  1  0
M  END
$$$$
