TYF.pdb
     RDKit          3D

 31 32  0  0  1  0  0  0  0  0999 V2000
   23.2964    3.1119  -20.8252 C   0  0  0  0  0  0  0  0  0  0  0  0
   23.4174    4.4821  -20.1508 C   0  0  1  0  0  0  0  0  0  0  0  0
   24.0345    5.3152  -21.0623 O   0  0  0  0  0  0  0  0  0  0  0  0
   22.0062    4.9828  -19.9416 C   0  0  2  0  0  0  0  0  0  0  0  0
   22.0333    6.3202  -19.3928 N   0  0  0  0  0  0  0  0  0  0  0  0
   21.2271    4.1063  -19.0421 C   0  0  0  0  0  0  0  0  0  0  0  0
   21.2972    4.2984  -17.8057 O   0  0  0  0  0  0  0  0  0  0  0  0
   14.8433   -1.5529  -16.4984 O   0  0  0  0  0  0  0  0  0  0  0  0
   15.6777   -0.6847  -17.1971 C   0  0  0  0  0  0  0  0  0  0  0  0
   15.7555    0.6475  -16.8565 C   0  0  0  0  0  0  0  0  0  0  0  0
   16.5869    1.5140  -17.5524 C   0  0  0  0  0  0  0  0  0  0  0  0
   17.3662    1.0950  -18.6038 C   0  0  0  0  0  0  0  0  0  0  0  0
   18.2648    1.9823  -19.3721 C   0  0  0  0  0  0  0  0  0  0  0  0
   19.5723    2.2289  -18.6402 C   0  0  2  0  0  0  0  0  0  0  0  0
   20.3962    3.0496  -19.5011 N   0  0  0  0  0  0  0  0  0  0  0  0
   20.1979    0.9727  -18.2213 C   0  0  0  0  0  0  0  0  0  0  0  0
   20.6314    0.1081  -19.0480 O   0  0  0  0  0  0  0  0  0  0  0  0
   17.2827   -0.2452  -18.9402 C   0  0  0  0  0  0  0  0  0  0  0  0
   16.4593   -1.1133  -18.2543 C   0  0  0  0  0  0  0  0  0  0  0  0
   20.3454    0.6743  -16.8589 N   0  0  0  0  0  0  0  0  0  0  0  0
   21.0332   -0.5295  -16.3803 C   0  0  1  0  0  0  0  0  0  0  0  0
   22.5112   -0.2224  -16.5174 C   0  0  0  0  0  0  0  0  0  0  0  0
   22.9730    0.8955  -15.6938 C   0  0  0  0  0  0  0  0  0  0  0  0
   23.1705    2.1504  -16.2227 C   0  0  0  0  0  0  0  0  0  0  0  0
   23.6037    3.1558  -15.3883 C   0  0  0  0  0  0  0  0  0  0  0  0
   23.8385    2.9246  -14.0504 C   0  0  0  0  0  0  0  0  0  0  0  0
   23.6460    1.6758  -13.5052 C   0  0  0  0  0  0  0  0  0  0  0  0
   23.2120    0.6801  -14.3541 C   0  0  0  0  0  0  0  0  0  0  0  0
   20.6294   -0.7941  -15.0066 C   0  0  0  0  0  0  0  0  0  0  0  0
   19.8795    0.0163  -14.4098 O   0  0  0  0  0  0  0  0  0  0  0  0
   21.0421   -1.9195  -14.3170 O   0  0  0  0  0  0  0  0  0  0  0  0
  2  1  1  6
  3  2  1  0
  4  2  1  0
  4  5  1  1
  6  4  1  0
  6  7  2  0
  8  9  1  0
  9 19  2  0
 10  9  1  0
 10 11  2  0
 11 12  1  0
 12 18  2  0
 12 13  1  0
 14 13  1  6
 14 15  1  0
 15  6  1  0
 16 14  1  0
 16 20  1  0
 17 16  2  0
 19 18  1  0
 21 20  1  0
 21 29  1  0
 22 23  1  0
 21 22  1  1
 23 24  2  0
 24 25  1  0
 26 25  2  0
 27 26  1  0
 28 27  2  0
 28 23  1  0
 29 30  2  0
 29 31  1  0
M  END
$$$$
