TYF.pdb
     RDKit          3D

 31 32  0  0  1  0  0  0  0  0999 V2000
   18.6361   -7.2996  -20.6630 C   0  0  0  0  0  0  0  0  0  0  0  0
   17.4781   -8.3025  -20.6812 C   0  0  1  0  0  0  0  0  0  0  0  0
   17.2264   -8.5874  -22.0083 O   0  0  0  0  0  0  0  0  0  0  0  0
   17.9921   -9.5625  -20.0226 C   0  0  2  0  0  0  0  0  0  0  0  0
   17.0020  -10.6113  -20.1232 N   0  0  0  0  0  0  0  0  0  0  0  0
   18.3326   -9.3534  -18.5996 C   0  0  0  0  0  0  0  0  0  0  0  0
   17.4353   -8.9611  -17.8177 O   0  0  0  0  0  0  0  0  0  0  0  0
   16.6796  -14.7730  -16.0574 O   0  0  0  0  0  0  0  0  0  0  0  0
   17.6266  -13.7526  -16.0677 C   0  0  0  0  0  0  0  0  0  0  0  0
   17.7493  -12.8918  -14.9996 C   0  0  0  0  0  0  0  0  0  0  0  0
   18.6930  -11.8741  -15.0088 C   0  0  0  0  0  0  0  0  0  0  0  0
   19.5436  -11.6736  -16.0692 C   0  0  0  0  0  0  0  0  0  0  0  0
   20.5622  -10.6036  -16.1214 C   0  0  0  0  0  0  0  0  0  0  0  0
   19.9944   -9.3135  -16.6861 C   0  0  2  0  0  0  0  0  0  0  0  0
   19.6288   -9.5731  -18.0618 N   0  0  0  0  0  0  0  0  0  0  0  0
   20.9228   -8.1950  -16.5071 C   0  0  0  0  0  0  0  0  0  0  0  0
   21.7822   -7.8638  -17.3848 O   0  0  0  0  0  0  0  0  0  0  0  0
   19.4143  -12.5426  -17.1389 C   0  0  0  0  0  0  0  0  0  0  0  0
   18.4795  -13.5566  -17.1384 C   0  0  0  0  0  0  0  0  0  0  0  0
   20.8930   -7.4306  -15.3315 N   0  0  0  0  0  0  0  0  0  0  0  0
   21.7510   -6.2590  -15.1250 C   0  0  1  0  0  0  0  0  0  0  0  0
   21.4810   -5.3560  -16.3121 C   0  0  0  0  0  0  0  0  0  0  0  0
   22.1510   -4.0568  -16.2452 C   0  0  0  0  0  0  0  0  0  0  0  0
   23.4977   -3.9237  -16.4948 C   0  0  0  0  0  0  0  0  0  0  0  0
   24.0611   -2.6703  -16.4162 C   0  0  0  0  0  0  0  0  0  0  0  0
   23.3048   -1.5641  -16.0956 C   0  0  0  0  0  0  0  0  0  0  0  0
   21.9569   -1.6793  -15.8432 C   0  0  0  0  0  0  0  0  0  0  0  0
   21.4081   -2.9412  -15.9260 C   0  0  0  0  0  0  0  0  0  0  0  0
   21.4154   -5.6421  -13.8495 C   0  0  0  0  0  0  0  0  0  0  0  0
   20.2308   -5.6693  -13.4360 O   0  0  0  0  0  0  0  0  0  0  0  0
   22.3611   -5.0164  -13.0580 O   0  0  0  0  0  0  0  0  0  0  0  0
  2  1  1  6
  3  2  1  0
  4  2  1  0
  4  5  1  1
  6  4  1  0
  6  7  2  0
  8  9  1  0
  9 19  2  0
 10  9  1  0
 10 11  2  0
 11 12  1  0
 12 18  2  0
 12 13  1  0
 14 13  1  6
 14 15  1  0
 15  6  1  0
 16 14  1  0
 16 20  1  0
 17 16  2  0
 19 18  1  0
 21 20  1  0
 21 29  1  0
 22 23  1  0
 21 22  1  6
 23 24  2  0
 24 25  1  0
 26 25  2  0
 27 26  1  0
 28 27  2  0
 28 23  1  0
 29 30  2  0
 29 31  1  0
M  END
$$$$
