TYF.pdb
     RDKit          3D

 31 32  0  0  1  0  0  0  0  0999 V2000
   29.4133  -20.5269  -13.4777 C   0  0  0  0  0  0  0  0  0  0  0  0
   28.9749  -19.3032  -14.2884 C   0  0  1  0  0  0  0  0  0  0  0  0
   29.6206  -19.3869  -15.5057 O   0  0  0  0  0  0  0  0  0  0  0  0
   27.4917  -19.4615  -14.5350 C   0  0  2  0  0  0  0  0  0  0  0  0
   27.0114  -18.3807  -15.3666 N   0  0  0  0  0  0  0  0  0  0  0  0
   26.7134  -19.4880  -13.2788 C   0  0  0  0  0  0  0  0  0  0  0  0
   26.4275  -18.4007  -12.7252 O   0  0  0  0  0  0  0  0  0  0  0  0
   20.3396  -19.4962  -14.9811 O   0  0  0  0  0  0  0  0  0  0  0  0
   21.3276  -20.0370  -14.1630 C   0  0  0  0  0  0  0  0  0  0  0  0
   22.2897  -20.8772  -14.6781 C   0  0  0  0  0  0  0  0  0  0  0  0
   23.2752  -21.4170  -13.8634 C   0  0  0  0  0  0  0  0  0  0  0  0
   23.3429  -21.1459  -12.5179 C   0  0  0  0  0  0  0  0  0  0  0  0
   24.3738  -21.6984  -11.6140 C   0  0  0  0  0  0  0  0  0  0  0  0
   25.5255  -20.7288  -11.4150 C   0  0  2  0  0  0  0  0  0  0  0  0
   26.2667  -20.6844  -12.6568 N   0  0  0  0  0  0  0  0  0  0  0  0
   26.3288  -21.0832  -10.2428 C   0  0  0  0  0  0  0  0  0  0  0  0
   27.5262  -21.5048  -10.3282 O   0  0  0  0  0  0  0  0  0  0  0  0
   22.3727  -20.3007  -12.0075 C   0  0  0  0  0  0  0  0  0  0  0  0
   21.3897  -19.7598  -12.8096 C   0  0  0  0  0  0  0  0  0  0  0  0
   25.7909  -20.9648   -8.9529 N   0  0  0  0  0  0  0  0  0  0  0  0
   26.5982  -21.1248   -7.7389 C   0  0  1  0  0  0  0  0  0  0  0  0
   27.5766  -19.9672   -7.7581 C   0  0  0  0  0  0  0  0  0  0  0  0
   28.2768  -19.7493   -6.4918 C   0  0  0  0  0  0  0  0  0  0  0  0
   27.8402  -18.8214   -5.5742 C   0  0  0  0  0  0  0  0  0  0  0  0
   28.5467  -18.6713   -4.4026 C   0  0  0  0  0  0  0  0  0  0  0  0
   29.6687  -19.4272   -4.1411 C   0  0  0  0  0  0  0  0  0  0  0  0
   30.1190  -20.3595   -5.0476 C   0  0  0  0  0  0  0  0  0  0  0  0
   29.4003  -20.4976   -6.2159 C   0  0  0  0  0  0  0  0  0  0  0  0
   25.7196  -21.1114   -6.5777 C   0  0  0  0  0  0  0  0  0  0  0  0
   26.1631  -21.4581   -5.4560 O   0  0  0  0  0  0  0  0  0  0  0  0
   24.3938  -20.7262   -6.6567 O   0  0  0  0  0  0  0  0  0  0  0  0
  2  1  1  1
  3  2  1  0
  4  2  1  0
  4  5  1  6
  6  4  1  0
  6  7  2  0
  8  9  1  0
  9 19  2  0
 10  9  1  0
 10 11  2  0
 11 12  1  0
 12 18  2  0
 12 13  1  0
 14 13  1  6
 14 15  1  0
 15  6  1  0
 16 14  1  0
 16 20  1  0
 17 16  2  0
 19 18  1  0
 21 20  1  0
 21 29  1  0
 22 23  1  0
 21 22  1  1
 23 24  2  0
 24 25  1  0
 26 25  2  0
 27 26  1  0
 28 27  2  0
 28 23  1  0
 29 30  2  0
 29 31  1  0
M  END
$$$$
