TYF.pdb
     RDKit          3D

 31 32  0  0  1  0  0  0  0  0999 V2000
   25.0132   -9.6424  -23.0409 C   0  0  0  0  0  0  0  0  0  0  0  0
   24.0290   -8.9676  -22.0802 C   0  0  1  0  0  0  0  0  0  0  0  0
   23.0221   -8.4348  -22.8600 O   0  0  0  0  0  0  0  0  0  0  0  0
   23.4314  -10.0696  -21.2351 C   0  0  2  0  0  0  0  0  0  0  0  0
   22.7367  -11.0167  -22.0782 N   0  0  0  0  0  0  0  0  0  0  0  0
   22.4946   -9.5506  -20.2164 C   0  0  0  0  0  0  0  0  0  0  0  0
   21.2819   -9.8538  -20.3044 O   0  0  0  0  0  0  0  0  0  0  0  0
   18.7415   -8.3978  -12.5302 O   0  0  0  0  0  0  0  0  0  0  0  0
   19.4296   -8.6824  -13.7065 C   0  0  0  0  0  0  0  0  0  0  0  0
   18.8268   -8.5212  -14.9343 C   0  0  0  0  0  0  0  0  0  0  0  0
   19.5118   -8.8047  -16.1077 C   0  0  0  0  0  0  0  0  0  0  0  0
   20.8100   -9.2551  -16.1073 C   0  0  0  0  0  0  0  0  0  0  0  0
   21.5767   -9.5691  -17.3315 C   0  0  0  0  0  0  0  0  0  0  0  0
   22.0158   -8.3103  -18.0585 C   0  0  2  0  0  0  0  0  0  0  0  0
   22.8921   -8.7211  -19.1341 N   0  0  0  0  0  0  0  0  0  0  0  0
   22.6042   -7.3359  -17.1368 C   0  0  0  0  0  0  0  0  0  0  0  0
   23.7837   -7.4489  -16.6733 O   0  0  0  0  0  0  0  0  0  0  0  0
   21.4092   -9.4147  -14.8696 C   0  0  0  0  0  0  0  0  0  0  0  0
   20.7361   -9.1354  -13.6987 C   0  0  0  0  0  0  0  0  0  0  0  0
   21.8677   -6.2155  -16.7250 N   0  0  0  0  0  0  0  0  0  0  0  0
   22.4021   -5.2116  -15.7988 C   0  0  1  0  0  0  0  0  0  0  0  0
   23.4558   -4.4630  -16.5907 C   0  0  0  0  0  0  0  0  0  0  0  0
   22.9226   -3.6493  -17.6838 C   0  0  0  0  0  0  0  0  0  0  0  0
   22.3307   -2.4283  -17.4545 C   0  0  0  0  0  0  0  0  0  0  0  0
   21.8534   -1.7156  -18.5310 C   0  0  0  0  0  0  0  0  0  0  0  0
   21.9594   -2.2022  -19.8157 C   0  0  0  0  0  0  0  0  0  0  0  0
   22.5483   -3.4211  -20.0628 C   0  0  0  0  0  0  0  0  0  0  0  0
   23.0212   -4.1223  -18.9741 C   0  0  0  0  0  0  0  0  0  0  0  0
   21.3144   -4.3569  -15.3440 C   0  0  0  0  0  0  0  0  0  0  0  0
   21.5408   -3.4547  -14.5014 O   0  0  0  0  0  0  0  0  0  0  0  0
   20.0191   -4.4969  -15.8076 O   0  0  0  0  0  0  0  0  0  0  0  0
  2  1  1  6
  3  2  1  0
  4  2  1  0
  4  5  1  6
  6  4  1  0
  6  7  2  0
  8  9  1  0
  9 19  2  0
 10  9  1  0
 10 11  2  0
 11 12  1  0
 12 18  2  0
 12 13  1  0
 14 13  1  1
 14 15  1  0
 15  6  1  0
 16 14  1  0
 16 20  1  0
 17 16  2  0
 19 18  1  0
 21 20  1  0
 21 29  1  0
 22 23  1  0
 21 22  1  6
 23 24  2  0
 24 25  1  0
 26 25  2  0
 27 26  1  0
 28 27  2  0
 28 23  1  0
 29 30  2  0
 29 31  1  0
M  END
$$$$
