ILR.pdb
     RDKit          3D

 28 27  0  0  1  0  0  0  0  0999 V2000
   27.4171  -17.6679  -17.9719 C   0  0  0  0  0  0  0  0  0  0  0  0
   28.0435  -18.2591  -16.7227 C   0  0  0  0  0  0  0  0  0  0  0  0
   26.9123  -19.0187  -15.9879 C   0  0  2  0  0  0  0  0  0  0  0  0
   25.7858  -18.0541  -15.6981 C   0  0  0  0  0  0  0  0  0  0  0  0
   27.4820  -19.6168  -14.7321 C   0  0  2  0  0  0  0  0  0  0  0  0
   28.5791  -20.5500  -15.0865 N   0  0  0  0  0  0  0  0  0  0  0  0
   26.5317  -20.3588  -13.8938 C   0  0  0  0  0  0  0  0  0  0  0  0
   26.0990  -21.5057  -14.2909 O   0  0  0  0  0  0  0  0  0  0  0  0
   26.1229  -20.1485   -8.2145 C   0  0  0  0  0  0  0  0  0  0  0  0
   26.1951  -20.7099   -9.6196 C   0  0  1  0  0  0  0  0  0  0  0  0
   26.4987  -22.1664   -9.5940 C   0  0  0  0  0  0  0  0  0  0  0  0
   25.0642  -20.2780  -10.4781 C   0  0  0  0  0  0  0  0  0  0  0  0
   25.0738  -20.7639  -11.8878 C   0  0  2  0  0  0  0  0  0  0  0  0
   26.0148  -19.9519  -12.6512 N   0  0  0  0  0  0  0  0  0  0  0  0
   23.7194  -20.5499  -12.5217 C   0  0  0  0  0  0  0  0  0  0  0  0
   23.2632  -19.3987  -12.7271 O   0  0  0  0  0  0  0  0  0  0  0  0
   19.4146  -26.5156  -17.0986 N   0  0  0  0  0  0  0  0  0  0  0  0
   19.1537  -26.3620  -15.6998 C   0  0  0  0  0  0  0  0  0  0  0  0
   18.7210  -27.3111  -14.9661 N   0  0  0  0  0  0  0  0  0  0  0  0
   19.3825  -25.0874  -15.0637 N   0  0  0  0  0  0  0  0  0  0  0  0
   19.8861  -23.9874  -15.8613 C   0  0  0  0  0  0  0  0  0  0  0  0
   20.1295  -22.7373  -15.0193 C   0  0  0  0  0  0  0  0  0  0  0  0
   21.4588  -22.7806  -14.3441 C   0  0  0  0  0  0  0  0  0  0  0  0
   21.6782  -21.5497  -13.5228 C   0  0  2  0  0  0  0  0  0  0  0  0
   22.9795  -21.6991  -12.8779 N   0  0  0  0  0  0  0  0  0  0  0  0
   20.6185  -21.2788  -12.5657 C   0  0  0  0  0  0  0  0  0  0  0  0
   20.6137  -21.6010  -11.3597 O   0  0  0  0  0  0  0  0  0  0  0  0
   19.4801  -20.5909  -13.0178 O   0  0  0  0  0  0  0  0  0  0  0  0
  2  3  1  0
  2  1  1  0
  3  5  1  0
  3  4  1  1
  5  7  1  0
  5  6  1  6
  7  8  2  0
 10  9  1  1
 10 12  1  0
 11 10  1  0
 13 12  1  1
 14 13  1  0
 14  7  1  0
 15 13  1  0
 15 16  2  0
 17 18  1  0
 18 20  1  0
 18 19  2  0
 20 21  1  0
 21 22  1  0
 22 23  1  0
 24 23  1  1
 24 25  1  0
 24 26  1  0
 25 15  1  0
 26 27  2  0
 26 28  1  0
M  END
$$$$
