ILR.pdb
     RDKit          3D

 28 27  0  0  1  0  0  0  0  0999 V2000
   11.6116  -24.1510   -1.3837 C   0  0  0  0  0  0  0  0  0  0  0  0
   12.2215  -22.9017   -1.9917 C   0  0  0  0  0  0  0  0  0  0  0  0
   13.5116  -23.3571   -2.7161 C   0  0  2  0  0  0  0  0  0  0  0  0
   13.1934  -24.5666   -3.5641 C   0  0  0  0  0  0  0  0  0  0  0  0
   14.5577  -23.6533   -1.6781 C   0  0  2  0  0  0  0  0  0  0  0  0
   14.9316  -22.3963   -0.9851 N   0  0  0  0  0  0  0  0  0  0  0  0
   15.7970  -24.2601   -2.1801 C   0  0  0  0  0  0  0  0  0  0  0  0
   16.6195  -23.5439   -2.8666 O   0  0  0  0  0  0  0  0  0  0  0  0
   19.3167  -28.3118   -0.0495 C   0  0  0  0  0  0  0  0  0  0  0  0
   18.9325  -27.0668   -0.8223 C   0  0  1  0  0  0  0  0  0  0  0  0
   20.1427  -26.3366   -1.2874 C   0  0  0  0  0  0  0  0  0  0  0  0
   17.8711  -27.3114   -1.8303 C   0  0  0  0  0  0  0  0  0  0  0  0
   17.4160  -26.1309   -2.6193 C   0  0  2  0  0  0  0  0  0  0  0  0
   16.2161  -25.5888   -1.9916 N   0  0  0  0  0  0  0  0  0  0  0  0
   17.0093  -26.5590   -4.0098 C   0  0  0  0  0  0  0  0  0  0  0  0
   15.9272  -27.1580   -4.2239 O   0  0  0  0  0  0  0  0  0  0  0  0
   18.4828  -22.3836   -9.7761 N   0  0  0  0  0  0  0  0  0  0  0  0
   17.8184  -23.2441  -10.7068 C   0  0  0  0  0  0  0  0  0  0  0  0
   16.8986  -22.8392  -11.4920 N   0  0  0  0  0  0  0  0  0  0  0  0
   18.1855  -24.6372  -10.7830 N   0  0  0  0  0  0  0  0  0  0  0  0
   18.9589  -25.2174   -9.7036 C   0  0  0  0  0  0  0  0  0  0  0  0
   18.0925  -26.0594   -8.7701 C   0  0  0  0  0  0  0  0  0  0  0  0
   18.3831  -25.7648   -7.3370 C   0  0  0  0  0  0  0  0  0  0  0  0
   17.5266  -26.5997   -6.4385 C   0  0  2  0  0  0  0  0  0  0  0  0
   17.8958  -26.2591   -5.0676 N   0  0  0  0  0  0  0  0  0  0  0  0
   17.6161  -28.0278   -6.6930 C   0  0  0  0  0  0  0  0  0  0  0  0
   18.3332  -28.8433   -6.0774 O   0  0  0  0  0  0  0  0  0  0  0  0
   16.8307  -28.5650   -7.7266 O   0  0  0  0  0  0  0  0  0  0  0  0
  2  3  1  0
  2  1  1  0
  3  5  1  0
  3  4  1  1
  5  7  1  0
  5  6  1  6
  7  8  2  0
 10  9  1  6
 10 12  1  0
 11 10  1  0
 13 12  1  1
 14 13  1  0
 14  7  1  0
 15 13  1  0
 15 16  2  0
 17 18  1  0
 18 20  1  0
 18 19  2  0
 20 21  1  0
 21 22  1  0
 22 23  1  0
 24 23  1  6
 24 25  1  0
 24 26  1  0
 25 15  1  0
 26 27  2  0
 26 28  1  0
M  END
$$$$
