ILR.pdb
     RDKit          3D

 28 27  0  0  1  0  0  0  0  0999 V2000
   26.9737  -16.2956  -17.9145 C   0  0  0  0  0  0  0  0  0  0  0  0
   27.6135  -16.8795  -16.6687 C   0  0  0  0  0  0  0  0  0  0  0  0
   26.6444  -17.9715  -16.1543 C   0  0  2  0  0  0  0  0  0  0  0  0
   25.3118  -17.3320  -15.8403 C   0  0  0  0  0  0  0  0  0  0  0  0
   27.2599  -18.6191  -14.9455 C   0  0  2  0  0  0  0  0  0  0  0  0
   28.5479  -19.2478  -15.3275 N   0  0  0  0  0  0  0  0  0  0  0  0
   26.4455  -19.6534  -14.2948 C   0  0  0  0  0  0  0  0  0  0  0  0
   26.2767  -20.7882  -14.8814 O   0  0  0  0  0  0  0  0  0  0  0  0
   26.0386  -20.3035   -8.7732 C   0  0  0  0  0  0  0  0  0  0  0  0
   26.2020  -20.5492  -10.2591 C   0  0  1  0  0  0  0  0  0  0  0  0
   27.0333  -21.7578  -10.5086 C   0  0  0  0  0  0  0  0  0  0  0  0
   24.9256  -20.4494  -11.0096 C   0  0  0  0  0  0  0  0  0  0  0  0
   25.0043  -20.6373  -12.4868 C   0  0  2  0  0  0  0  0  0  0  0  0
   25.7998  -19.5520  -13.0500 N   0  0  0  0  0  0  0  0  0  0  0  0
   23.6295  -20.5168  -13.1012 C   0  0  0  0  0  0  0  0  0  0  0  0
   22.9289  -19.4864  -12.9499 O   0  0  0  0  0  0  0  0  0  0  0  0
   21.2187  -26.9197  -13.9355 N   0  0  0  0  0  0  0  0  0  0  0  0
   19.9037  -26.8020  -14.4880 C   0  0  0  0  0  0  0  0  0  0  0  0
   18.9145  -27.4953  -14.0793 N   0  0  0  0  0  0  0  0  0  0  0  0
   19.6563  -25.8639  -15.5557 N   0  0  0  0  0  0  0  0  0  0  0  0
   20.6945  -24.9173  -15.9106 C   0  0  0  0  0  0  0  0  0  0  0  0
   20.7358  -23.7303  -14.9513 C   0  0  0  0  0  0  0  0  0  0  0  0
   21.7148  -22.6974  -15.3981 C   0  0  0  0  0  0  0  0  0  0  0  0
   21.8035  -21.5836  -14.4034 C   0  0  2  0  0  0  0  0  0  0  0  0
   23.1573  -21.6123  -13.8573 N   0  0  0  0  0  0  0  0  0  0  0  0
   20.7901  -21.6358  -13.3629 C   0  0  0  0  0  0  0  0  0  0  0  0
   20.9296  -22.1203  -12.2210 O   0  0  0  0  0  0  0  0  0  0  0  0
   19.5241  -21.0967  -13.6463 O   0  0  0  0  0  0  0  0  0  0  0  0
  2  3  1  0
  2  1  1  0
  3  5  1  0
  3  4  1  1
  5  7  1  0
  5  6  1  6
  7  8  2  0
 10  9  1  1
 10 12  1  0
 11 10  1  0
 13 12  1  1
 14 13  1  0
 14  7  1  0
 15 13  1  0
 15 16  2  0
 17 18  1  0
 18 20  1  0
 18 19  2  0
 20 21  1  0
 21 22  1  0
 22 23  1  0
 24 23  1  6
 24 25  1  0
 24 26  1  0
 25 15  1  0
 26 27  2  0
 26 28  1  0
M  END
$$$$
