ILR.pdb
     RDKit          3D

 28 27  0  0  1  0  0  0  0  0999 V2000
   19.9601  -23.3939   -9.7606 C   0  0  0  0  0  0  0  0  0  0  0  0
   19.8884  -22.0113   -9.1396 C   0  0  0  0  0  0  0  0  0  0  0  0
   21.0918  -21.2186   -9.7053 C   0  0  2  0  0  0  0  0  0  0  0  0
   21.2903  -21.6015  -11.1535 C   0  0  0  0  0  0  0  0  0  0  0  0
   22.3000  -21.5304   -8.8670 C   0  0  2  0  0  0  0  0  0  0  0  0
   21.9863  -21.2761   -7.4398 N   0  0  0  0  0  0  0  0  0  0  0  0
   23.5118  -20.7666   -9.1902 C   0  0  0  0  0  0  0  0  0  0  0  0
   23.4469  -19.4824   -9.2745 O   0  0  0  0  0  0  0  0  0  0  0  0
   28.1721  -20.6646   -6.6285 C   0  0  0  0  0  0  0  0  0  0  0  0
   27.0192  -20.2162   -7.5029 C   0  0  1  0  0  0  0  0  0  0  0  0
   26.8156  -18.7459   -7.3994 C   0  0  0  0  0  0  0  0  0  0  0  0
   27.0689  -20.7893   -8.8709 C   0  0  0  0  0  0  0  0  0  0  0  0
   25.9344  -20.4505   -9.7774 C   0  0  2  0  0  0  0  0  0  0  0  0
   24.7947  -21.2908   -9.4271 N   0  0  0  0  0  0  0  0  0  0  0  0
   26.2888  -20.7923  -11.2056 C   0  0  0  0  0  0  0  0  0  0  0  0
   27.0679  -21.7366  -11.4825 O   0  0  0  0  0  0  0  0  0  0  0  0
   27.2229  -25.8540  -15.5303 N   0  0  0  0  0  0  0  0  0  0  0  0
   25.9724  -25.5653  -16.1637 C   0  0  0  0  0  0  0  0  0  0  0  0
   25.1638  -26.4729  -16.5493 N   0  0  0  0  0  0  0  0  0  0  0  0
   25.5823  -24.1947  -16.3881 N   0  0  0  0  0  0  0  0  0  0  0  0
   25.9836  -23.1863  -15.4279 C   0  0  0  0  0  0  0  0  0  0  0  0
   24.8021  -22.3371  -14.9654 C   0  0  0  0  0  0  0  0  0  0  0  0
   25.0044  -21.8237  -13.5797 C   0  0  0  0  0  0  0  0  0  0  0  0
   25.6979  -20.4983  -13.5999 C   0  0  2  0  0  0  0  0  0  0  0  0
   25.7080  -20.0063  -12.2253 N   0  0  0  0  0  0  0  0  0  0  0  0
   25.1155  -19.5384  -14.5228 C   0  0  0  0  0  0  0  0  0  0  0  0
   24.1004  -18.8412  -14.3187 O   0  0  0  0  0  0  0  0  0  0  0  0
   25.7361  -19.3617  -15.7708 O   0  0  0  0  0  0  0  0  0  0  0  0
  2  3  1  0
  2  1  1  0
  3  5  1  0
  3  4  1  6
  5  7  1  0
  5  6  1  1
  7  8  2  0
 10  9  1  6
 10 12  1  0
 11 10  1  0
 13 12  1  1
 14 13  1  0
 14  7  1  0
 15 13  1  0
 15 16  2  0
 17 18  1  0
 18 20  1  0
 18 19  2  0
 20 21  1  0
 21 22  1  0
 22 23  1  0
 24 23  1  1
 24 25  1  0
 24 26  1  0
 25 15  1  0
 26 27  2  0
 26 28  1  0
M  END
$$$$
