ILR.pdb
     RDKit          3D

 28 27  0  0  1  0  0  0  0  0999 V2000
   24.5109  -19.7608  -18.1970 C   0  0  0  0  0  0  0  0  0  0  0  0
   25.5965  -19.1044  -17.3645 C   0  0  0  0  0  0  0  0  0  0  0  0
   25.8331  -20.0338  -16.1494 C   0  0  2  0  0  0  0  0  0  0  0  0
   26.2277  -21.4029  -16.6525 C   0  0  0  0  0  0  0  0  0  0  0  0
   24.5727  -20.0734  -15.3313 C   0  0  2  0  0  0  0  0  0  0  0  0
   24.1030  -18.6880  -15.0858 N   0  0  0  0  0  0  0  0  0  0  0  0
   24.6837  -20.7345  -14.0248 C   0  0  0  0  0  0  0  0  0  0  0  0
   24.8486  -22.0115  -13.9736 O   0  0  0  0  0  0  0  0  0  0  0  0
   26.0599  -22.0065   -9.0198 C   0  0  0  0  0  0  0  0  0  0  0  0
   25.4840  -20.6099   -9.1317 C   0  0  1  0  0  0  0  0  0  0  0  0
   26.0557  -19.7153   -8.0890 C   0  0  0  0  0  0  0  0  0  0  0  0
   25.4745  -20.0937  -10.5230 C   0  0  0  0  0  0  0  0  0  0  0  0
   24.6741  -20.8668  -11.5156 C   0  0  2  0  0  0  0  0  0  0  0  0
   24.6324  -20.1139  -12.7642 N   0  0  0  0  0  0  0  0  0  0  0  0
   23.2429  -20.9900  -11.0481 C   0  0  0  0  0  0  0  0  0  0  0  0
   22.6255  -20.0152  -10.5542 O   0  0  0  0  0  0  0  0  0  0  0  0
   17.5890  -24.6671   -6.5344 N   0  0  0  0  0  0  0  0  0  0  0  0
   18.5178  -25.2068   -7.4801 C   0  0  0  0  0  0  0  0  0  0  0  0
   18.4257  -26.3905   -7.9455 N   0  0  0  0  0  0  0  0  0  0  0  0
   19.6172  -24.3976   -7.9467 N   0  0  0  0  0  0  0  0  0  0  0  0
   19.6738  -23.0026   -7.5587 C   0  0  0  0  0  0  0  0  0  0  0  0
   19.8127  -22.0799   -8.7671 C   0  0  0  0  0  0  0  0  0  0  0  0
   21.2106  -22.0634   -9.2872 C   0  0  0  0  0  0  0  0  0  0  0  0
   21.2424  -22.4287  -10.7375 C   0  0  2  0  0  0  0  0  0  0  0  0
   22.6198  -22.2498  -11.1876 N   0  0  0  0  0  0  0  0  0  0  0  0
   20.2964  -21.6889  -11.5562 C   0  0  0  0  0  0  0  0  0  0  0  0
   20.4890  -20.5720  -12.0791 O   0  0  0  0  0  0  0  0  0  0  0  0
   19.0376  -22.2653  -11.7949 O   0  0  0  0  0  0  0  0  0  0  0  0
  2  3  1  0
  2  1  1  0
  3  5  1  0
  3  4  1  6
  5  7  1  0
  5  6  1  1
  7  8  2  0
 10  9  1  6
 10 12  1  0
 11 10  1  0
 13 12  1  1
 14 13  1  0
 14  7  1  0
 15 13  1  0
 15 16  2  0
 17 18  1  0
 18 20  1  0
 18 19  2  0
 20 21  1  0
 21 22  1  0
 22 23  1  0
 24 23  1  1
 24 25  1  0
 24 26  1  0
 25 15  1  0
 26 27  2  0
 26 28  1  0
M  END
$$$$
