ILR.pdb
     RDKit          3D

 28 27  0  0  1  0  0  0  0  0999 V2000
   24.1948  -15.1251  -17.6770 C   0  0  0  0  0  0  0  0  0  0  0  0
   25.3965  -15.4488  -16.8089 C   0  0  0  0  0  0  0  0  0  0  0  0
   25.1365  -16.8543  -16.2145 C   0  0  2  0  0  0  0  0  0  0  0  0
   23.8151  -16.8367  -15.4817 C   0  0  0  0  0  0  0  0  0  0  0  0
   26.2823  -17.2034  -15.3064 C   0  0  2  0  0  0  0  0  0  0  0  0
   27.5459  -17.1904  -16.0830 N   0  0  0  0  0  0  0  0  0  0  0  0
   26.1915  -18.5101  -14.6425 C   0  0  0  0  0  0  0  0  0  0  0  0
   26.5349  -19.5722  -15.2861 O   0  0  0  0  0  0  0  0  0  0  0  0
   27.0234  -22.1416  -10.7785 C   0  0  0  0  0  0  0  0  0  0  0  0
   25.9431  -21.1416  -10.4214 C   0  0  1  0  0  0  0  0  0  0  0  0
   25.8529  -20.9620   -8.9471 C   0  0  0  0  0  0  0  0  0  0  0  0
   25.9980  -19.9069  -11.2429 C   0  0  0  0  0  0  0  0  0  0  0  0
   25.8161  -20.0756  -12.7133 C   0  0  2  0  0  0  0  0  0  0  0  0
   25.7579  -18.7538  -13.3274 N   0  0  0  0  0  0  0  0  0  0  0  0
   24.4878  -20.7348  -13.0016 C   0  0  0  0  0  0  0  0  0  0  0  0
   24.3254  -21.9727  -12.8722 O   0  0  0  0  0  0  0  0  0  0  0  0
   19.8379  -21.8674   -9.1235 N   0  0  0  0  0  0  0  0  0  0  0  0
   18.8956  -22.4677  -10.0179 C   0  0  0  0  0  0  0  0  0  0  0  0
   18.5182  -23.6816   -9.9163 N   0  0  0  0  0  0  0  0  0  0  0  0
   18.3298  -21.6881  -11.0919 N   0  0  0  0  0  0  0  0  0  0  0  0
   18.9946  -20.4652  -11.4948 C   0  0  0  0  0  0  0  0  0  0  0  0
   19.8648  -20.6705  -12.7325 C   0  0  0  0  0  0  0  0  0  0  0  0
   21.2748  -20.2498  -12.4879 C   0  0  0  0  0  0  0  0  0  0  0  0
   22.1178  -20.4857  -13.7010 C   0  0  2  0  0  0  0  0  0  0  0  0
   23.4276  -19.9029  -13.4245 N   0  0  0  0  0  0  0  0  0  0  0  0
   21.5391  -19.9768  -14.9334 C   0  0  0  0  0  0  0  0  0  0  0  0
   21.9976  -19.0535  -15.6374 O   0  0  0  0  0  0  0  0  0  0  0  0
   20.3493  -20.5635  -15.3959 O   0  0  0  0  0  0  0  0  0  0  0  0
  2  3  1  0
  2  1  1  0
  3  5  1  0
  3  4  1  1
  5  7  1  0
  5  6  1  6
  7  8  2  0
 10  9  1  1
 10 12  1  0
 11 10  1  0
 13 12  1  1
 14 13  1  0
 14  7  1  0
 15 13  1  0
 15 16  2  0
 17 18  1  0
 18 20  1  0
 18 19  2  0
 20 21  1  0
 21 22  1  0
 22 23  1  0
 24 23  1  1
 24 25  1  0
 24 26  1  0
 25 15  1  0
 26 27  2  0
 26 28  1  0
M  END
$$$$
