ILR.pdb
     RDKit          3D

 28 27  0  0  1  0  0  0  0  0999 V2000
   28.2879  -18.4652  -16.2248 C   0  0  0  0  0  0  0  0  0  0  0  0
   28.8391  -19.2715  -15.0637 C   0  0  0  0  0  0  0  0  0  0  0  0
   27.6375  -19.5723  -14.1352 C   0  0  2  0  0  0  0  0  0  0  0  0
   27.0397  -18.2640  -13.6723 C   0  0  0  0  0  0  0  0  0  0  0  0
   28.1255  -20.4093  -12.9859 C   0  0  2  0  0  0  0  0  0  0  0  0
   28.6368  -21.7023  -13.5023 N   0  0  0  0  0  0  0  0  0  0  0  0
   27.1266  -20.7159  -11.9540 C   0  0  0  0  0  0  0  0  0  0  0  0
   26.2978  -21.6842  -12.1433 O   0  0  0  0  0  0  0  0  0  0  0  0
   27.8902  -19.4695   -6.5685 C   0  0  0  0  0  0  0  0  0  0  0  0
   27.5587  -20.2353   -7.8328 C   0  0  1  0  0  0  0  0  0  0  0  0
   27.7686  -21.6956   -7.6388 C   0  0  0  0  0  0  0  0  0  0  0  0
   26.2717  -19.8206   -8.4443 C   0  0  0  0  0  0  0  0  0  0  0  0
   25.9322  -20.4308   -9.7618 C   0  0  2  0  0  0  0  0  0  0  0  0
   26.9590  -20.0519  -10.7261 N   0  0  0  0  0  0  0  0  0  0  0  0
   24.6333  -19.8603  -10.2809 C   0  0  0  0  0  0  0  0  0  0  0  0
   24.5313  -18.6552  -10.6167 O   0  0  0  0  0  0  0  0  0  0  0  0
   20.2787  -21.7540  -16.4339 N   0  0  0  0  0  0  0  0  0  0  0  0
   19.8817  -21.7285  -15.0591 C   0  0  0  0  0  0  0  0  0  0  0  0
   18.6961  -21.9973  -14.6739 N   0  0  0  0  0  0  0  0  0  0  0  0
   20.8454  -21.3879  -14.0411 N   0  0  0  0  0  0  0  0  0  0  0  0
   22.2562  -21.4357  -14.3685 C   0  0  0  0  0  0  0  0  0  0  0  0
   23.1332  -21.1191  -13.1595 C   0  0  0  0  0  0  0  0  0  0  0  0
   22.6353  -19.9243  -12.4182 C   0  0  0  0  0  0  0  0  0  0  0  0
   22.2949  -20.2792  -11.0054 C   0  0  2  0  0  0  0  0  0  0  0  0
   23.5302  -20.7372  -10.3760 N   0  0  0  0  0  0  0  0  0  0  0  0
   21.2214  -21.2510  -10.8803 C   0  0  0  0  0  0  0  0  0  0  0  0
   20.0297  -21.0802  -11.2100 O   0  0  0  0  0  0  0  0  0  0  0  0
   21.5300  -22.5098  -10.3380 O   0  0  0  0  0  0  0  0  0  0  0  0
  2  3  1  0
  2  1  1  0
  3  5  1  0
  3  4  1  1
  5  7  1  0
  5  6  1  6
  7  8  2  0
 10  9  1  1
 10 12  1  0
 11 10  1  0
 13 12  1  1
 14 13  1  0
 14  7  1  0
 15 13  1  0
 15 16  2  0
 17 18  1  0
 18 20  1  0
 18 19  2  0
 20 21  1  0
 21 22  1  0
 22 23  1  0
 24 23  1  6
 24 25  1  0
 24 26  1  0
 25 15  1  0
 26 27  2  0
 26 28  1  0
M  END
$$$$
