ILR.pdb
     RDKit          3D

 28 27  0  0  1  0  0  0  0  0999 V2000
   16.6963  -24.4038  -15.8600 C   0  0  0  0  0  0  0  0  0  0  0  0
   17.7339  -23.4686  -15.2674 C   0  0  0  0  0  0  0  0  0  0  0  0
   17.9846  -23.9594  -13.8208 C   0  0  2  0  0  0  0  0  0  0  0  0
   16.6736  -23.9519  -13.0695 C   0  0  0  0  0  0  0  0  0  0  0  0
   19.0058  -23.0577  -13.1855 C   0  0  2  0  0  0  0  0  0  0  0  0
   20.2736  -23.1353  -13.9515 N   0  0  0  0  0  0  0  0  0  0  0  0
   19.3254  -23.3492  -11.7822 C   0  0  0  0  0  0  0  0  0  0  0  0
   19.9755  -24.4229  -11.4909 O   0  0  0  0  0  0  0  0  0  0  0  0
   21.1316  -19.6245   -8.3597 C   0  0  0  0  0  0  0  0  0  0  0  0
   21.0068  -21.0306   -8.9093 C   0  0  1  0  0  0  0  0  0  0  0  0
   22.2445  -21.8141   -8.6478 C   0  0  0  0  0  0  0  0  0  0  0  0
   19.7187  -21.6798   -8.5605 C   0  0  0  0  0  0  0  0  0  0  0  0
   19.3763  -22.9250   -9.3061 C   0  0  2  0  0  0  0  0  0  0  0  0
   18.9950  -22.5606  -10.6661 N   0  0  0  0  0  0  0  0  0  0  0  0
   18.1651  -23.5847   -8.6898 C   0  0  0  0  0  0  0  0  0  0  0  0
   17.0459  -23.0169   -8.6679 O   0  0  0  0  0  0  0  0  0  0  0  0
   16.1438  -24.7077   -1.7464 N   0  0  0  0  0  0  0  0  0  0  0  0
   16.2699  -26.1243   -1.5862 C   0  0  0  0  0  0  0  0  0  0  0  0
   15.6606  -26.7767   -0.6754 N   0  0  0  0  0  0  0  0  0  0  0  0
   17.1167  -26.8743   -2.4814 N   0  0  0  0  0  0  0  0  0  0  0  0
   17.9088  -26.1577   -3.4606 C   0  0  0  0  0  0  0  0  0  0  0  0
   17.2028  -26.0702   -4.8115 C   0  0  0  0  0  0  0  0  0  0  0  0
   18.0751  -25.4449   -5.8473 C   0  0  0  0  0  0  0  0  0  0  0  0
   17.3706  -25.3771   -7.1652 C   0  0  2  0  0  0  0  0  0  0  0  0
   18.3378  -24.8722   -8.1353 N   0  0  0  0  0  0  0  0  0  0  0  0
   16.1498  -24.5886   -7.1451 C   0  0  0  0  0  0  0  0  0  0  0  0
   16.0752  -23.3472   -7.0383 O   0  0  0  0  0  0  0  0  0  0  0  0
   14.9240  -25.2663   -7.2536 O   0  0  0  0  0  0  0  0  0  0  0  0
  2  3  1  0
  2  1  1  0
  3  5  1  0
  3  4  1  1
  5  7  1  0
  5  6  1  6
  7  8  2  0
 10  9  1  1
 10 12  1  0
 11 10  1  0
 13 12  1  1
 14 13  1  0
 14  7  1  0
 15 13  1  0
 15 16  2  0
 17 18  1  0
 18 20  1  0
 18 19  2  0
 20 21  1  0
 21 22  1  0
 22 23  1  0
 24 23  1  1
 24 25  1  0
 24 26  1  0
 25 15  1  0
 26 27  2  0
 26 28  1  0
M  END
$$$$
