ILR.pdb
     RDKit          3D

 28 27  0  0  1  0  0  0  0  0999 V2000
   24.7192  -24.6478  -14.2426 C   0  0  0  0  0  0  0  0  0  0  0  0
   25.5824  -23.5805  -13.5960 C   0  0  0  0  0  0  0  0  0  0  0  0
   25.0327  -22.2201  -14.0896 C   0  0  2  0  0  0  0  0  0  0  0  0
   25.1353  -22.1707  -15.5964 C   0  0  0  0  0  0  0  0  0  0  0  0
   25.8237  -21.1236  -13.4325 C   0  0  2  0  0  0  0  0  0  0  0  0
   25.7326  -21.2677  -11.9591 N   0  0  0  0  0  0  0  0  0  0  0  0
   25.4084  -19.7546  -13.7636 C   0  0  0  0  0  0  0  0  0  0  0  0
   24.3167  -19.2862  -13.2644 O   0  0  0  0  0  0  0  0  0  0  0  0
   25.6366  -14.4659  -14.7474 C   0  0  0  0  0  0  0  0  0  0  0  0
   26.4195  -15.2833  -15.7542 C   0  0  1  0  0  0  0  0  0  0  0  0
   27.5411  -14.4891  -16.3248 C   0  0  0  0  0  0  0  0  0  0  0  0
   26.7455  -16.6474  -15.2694 C   0  0  0  0  0  0  0  0  0  0  0  0
   25.5937  -17.5059  -14.8694 C   0  0  2  0  0  0  0  0  0  0  0  0
   26.0907  -18.8497  -14.5957 N   0  0  0  0  0  0  0  0  0  0  0  0
   24.6209  -17.6404  -16.0173 C   0  0  0  0  0  0  0  0  0  0  0  0
   24.9447  -18.2019  -17.0921 O   0  0  0  0  0  0  0  0  0  0  0  0
   20.2923  -22.6269  -15.2676 N   0  0  0  0  0  0  0  0  0  0  0  0
   20.0097  -21.5709  -14.3440 C   0  0  0  0  0  0  0  0  0  0  0  0
   19.9131  -21.7564  -13.0860 N   0  0  0  0  0  0  0  0  0  0  0  0
   19.8220  -20.2253  -14.8292 N   0  0  0  0  0  0  0  0  0  0  0  0
   19.8700  -19.9830  -16.2571 C   0  0  0  0  0  0  0  0  0  0  0  0
   21.1702  -19.3012  -16.6763 C   0  0  0  0  0  0  0  0  0  0  0  0
   21.1368  -17.8365  -16.3966 C   0  0  0  0  0  0  0  0  0  0  0  0
   22.3615  -17.1650  -16.9323 C   0  0  2  0  0  0  0  0  0  0  0  0
   23.3251  -17.1084  -15.8368 N   0  0  0  0  0  0  0  0  0  0  0  0
   22.1137  -15.8564  -17.5142 C   0  0  0  0  0  0  0  0  0  0  0  0
   21.9784  -14.7846  -16.8889 O   0  0  0  0  0  0  0  0  0  0  0  0
   22.0116  -15.7640  -18.9123 O   0  0  0  0  0  0  0  0  0  0  0  0
  2  3  1  0
  2  1  1  0
  3  5  1  0
  3  4  1  6
  5  7  1  0
  5  6  1  1
  7  8  2  0
 10  9  1  1
 10 12  1  0
 11 10  1  0
 13 12  1  6
 14 13  1  0
 14  7  1  0
 15 13  1  0
 15 16  2  0
 17 18  1  0
 18 20  1  0
 18 19  2  0
 20 21  1  0
 21 22  1  0
 22 23  1  0
 24 23  1  1
 24 25  1  0
 24 26  1  0
 25 15  1  0
 26 27  2  0
 26 28  1  0
M  END
$$$$
