ILR.pdb
     RDKit          3D

 28 27  0  0  1  0  0  0  0  0999 V2000
   27.9084  -18.7547  -17.1303 C   0  0  0  0  0  0  0  0  0  0  0  0
   28.4468  -19.4682  -15.9042 C   0  0  0  0  0  0  0  0  0  0  0  0
   27.2191  -19.8027  -15.0226 C   0  0  2  0  0  0  0  0  0  0  0  0
   26.5150  -18.5160  -14.6591 C   0  0  0  0  0  0  0  0  0  0  0  0
   27.6974  -20.5483  -13.8083 C   0  0  2  0  0  0  0  0  0  0  0  0
   28.3513  -21.8102  -14.2329 N   0  0  0  0  0  0  0  0  0  0  0  0
   26.6605  -20.9017  -12.8304 C   0  0  0  0  0  0  0  0  0  0  0  0
   25.8639  -21.8835  -13.0794 O   0  0  0  0  0  0  0  0  0  0  0  0
   27.0201  -19.1919   -7.6012 C   0  0  0  0  0  0  0  0  0  0  0  0
   26.8007  -20.1346   -8.7666 C   0  0  1  0  0  0  0  0  0  0  0  0
   27.1879  -21.5249   -8.4044 C   0  0  0  0  0  0  0  0  0  0  0  0
   25.4793  -19.9571   -9.4182 C   0  0  0  0  0  0  0  0  0  0  0  0
   25.2936  -20.6203  -10.7408 C   0  0  2  0  0  0  0  0  0  0  0  0
   26.4223  -20.2713  -11.5965 N   0  0  0  0  0  0  0  0  0  0  0  0
   24.0605  -20.0799  -11.4260 C   0  0  0  0  0  0  0  0  0  0  0  0
   24.0761  -18.9873  -12.0436 O   0  0  0  0  0  0  0  0  0  0  0  0
   22.1602  -25.0786  -15.2651 N   0  0  0  0  0  0  0  0  0  0  0  0
   21.0118  -24.6304  -14.5380 C   0  0  0  0  0  0  0  0  0  0  0  0
   20.1641  -25.4290  -14.0185 N   0  0  0  0  0  0  0  0  0  0  0  0
   20.7776  -23.2171  -14.3683 N   0  0  0  0  0  0  0  0  0  0  0  0
   21.6836  -22.2769  -14.9967 C   0  0  0  0  0  0  0  0  0  0  0  0
   22.5975  -21.5985  -13.9790 C   0  0  0  0  0  0  0  0  0  0  0  0
   22.0168  -20.3145  -13.4902 C   0  0  0  0  0  0  0  0  0  0  0  0
   21.6752  -20.4049  -12.0366 C   0  0  2  0  0  0  0  0  0  0  0  0
   22.8814  -20.8533  -11.3468 N   0  0  0  0  0  0  0  0  0  0  0  0
   20.5301  -21.2523  -11.7482 C   0  0  0  0  0  0  0  0  0  0  0  0
   20.5526  -22.3387  -11.1339 O   0  0  0  0  0  0  0  0  0  0  0  0
   19.2667  -20.8297  -12.1943 O   0  0  0  0  0  0  0  0  0  0  0  0
  2  3  1  0
  2  1  1  0
  3  5  1  0
  3  4  1  1
  5  7  1  0
  5  6  1  6
  7  8  2  0
 10  9  1  1
 10 12  1  0
 11 10  1  0
 13 12  1  1
 14 13  1  0
 14  7  1  0
 15 13  1  0
 15 16  2  0
 17 18  1  0
 18 20  1  0
 18 19  2  0
 20 21  1  0
 21 22  1  0
 22 23  1  0
 24 23  1  6
 24 25  1  0
 24 26  1  0
 25 15  1  0
 26 27  2  0
 26 28  1  0
M  END
$$$$
