ILR.pdb
     RDKit          3D

 28 27  0  0  1  0  0  0  0  0999 V2000
   20.8717  -25.4830  -18.4877 C   0  0  0  0  0  0  0  0  0  0  0  0
   21.2281  -24.0317  -18.2249 C   0  0  0  0  0  0  0  0  0  0  0  0
   21.2570  -23.8638  -16.6862 C   0  0  2  0  0  0  0  0  0  0  0  0
   19.9067  -24.2495  -16.1284 C   0  0  0  0  0  0  0  0  0  0  0  0
   21.6123  -22.4373  -16.3725 C   0  0  2  0  0  0  0  0  0  0  0  0
   22.9876  -22.1570  -16.8519 N   0  0  0  0  0  0  0  0  0  0  0  0
   21.5613  -22.0675  -14.9523 C   0  0  0  0  0  0  0  0  0  0  0  0
   22.5466  -22.3771  -14.1818 O   0  0  0  0  0  0  0  0  0  0  0  0
   21.4076  -19.2318  -10.5106 C   0  0  0  0  0  0  0  0  0  0  0  0
   20.1736  -19.0476  -11.3698 C   0  0  1  0  0  0  0  0  0  0  0  0
   19.6346  -17.6673  -11.2350 C   0  0  0  0  0  0  0  0  0  0  0  0
   20.3419  -19.5675  -12.7495 C   0  0  0  0  0  0  0  0  0  0  0  0
   20.5734  -21.0343  -12.8858 C   0  0  2  0  0  0  0  0  0  0  0  0
   20.5205  -21.3820  -14.3015 N   0  0  0  0  0  0  0  0  0  0  0  0
   19.4559  -21.8021  -12.2197 C   0  0  0  0  0  0  0  0  0  0  0  0
   18.3108  -21.8723  -12.7290 O   0  0  0  0  0  0  0  0  0  0  0  0
   18.3871  -26.1384   -5.4988 N   0  0  0  0  0  0  0  0  0  0  0  0
   17.1848  -26.5153   -6.1776 C   0  0  0  0  0  0  0  0  0  0  0  0
   16.1595  -26.9714   -5.5718 N   0  0  0  0  0  0  0  0  0  0  0  0
   17.0999  -26.3832   -7.6117 N   0  0  0  0  0  0  0  0  0  0  0  0
   18.2021  -25.7694   -8.3246 C   0  0  0  0  0  0  0  0  0  0  0  0
   18.2318  -24.2549   -8.1336 C   0  0  0  0  0  0  0  0  0  0  0  0
   19.2748  -23.6146   -8.9863 C   0  0  0  0  0  0  0  0  0  0  0  0
   18.6949  -23.1703  -10.2917 C   0  0  2  0  0  0  0  0  0  0  0  0
   19.7473  -22.4428  -10.9952 N   0  0  0  0  0  0  0  0  0  0  0  0
   17.4771  -22.3874  -10.1637 C   0  0  0  0  0  0  0  0  0  0  0  0
   17.4008  -21.1964   -9.7977 O   0  0  0  0  0  0  0  0  0  0  0  0
   16.2564  -23.0092  -10.4751 O   0  0  0  0  0  0  0  0  0  0  0  0
  2  3  1  0
  2  1  1  0
  3  5  1  0
  3  4  1  6
  5  7  1  0
  5  6  1  1
  7  8  2  0
 10  9  1  6
 10 12  1  0
 11 10  1  0
 13 12  1  6
 14 13  1  0
 14  7  1  0
 15 13  1  0
 15 16  2  0
 17 18  1  0
 18 20  1  0
 18 19  2  0
 20 21  1  0
 21 22  1  0
 22 23  1  0
 24 23  1  1
 24 25  1  0
 24 26  1  0
 25 15  1  0
 26 27  2  0
 26 28  1  0
M  END
$$$$
