ILR.pdb
     RDKit          3D

 28 27  0  0  1  0  0  0  0  0999 V2000
   28.8195  -18.4849  -16.6821 C   0  0  0  0  0  0  0  0  0  0  0  0
   29.3071  -19.1568  -15.4121 C   0  0  0  0  0  0  0  0  0  0  0  0
   28.0398  -19.6076  -14.6457 C   0  0  2  0  0  0  0  0  0  0  0  0
   27.1880  -18.3936  -14.3557 C   0  0  0  0  0  0  0  0  0  0  0  0
   28.4717  -20.3090  -13.3883 C   0  0  2  0  0  0  0  0  0  0  0  0
   29.2677  -21.5089  -13.7440 N   0  0  0  0  0  0  0  0  0  0  0  0
   27.3868  -20.7518  -12.5031 C   0  0  0  0  0  0  0  0  0  0  0  0
   26.7491  -21.8373  -12.7777 O   0  0  0  0  0  0  0  0  0  0  0  0
   27.1489  -19.2257   -7.1322 C   0  0  0  0  0  0  0  0  0  0  0  0
   27.1215  -20.1236   -8.3520 C   0  0  1  0  0  0  0  0  0  0  0  0
   27.4795  -21.5217   -7.9897 C   0  0  0  0  0  0  0  0  0  0  0  0
   25.9063  -19.9390   -9.1836 C   0  0  0  0  0  0  0  0  0  0  0  0
   25.8809  -20.6499  -10.4942 C   0  0  2  0  0  0  0  0  0  0  0  0
   26.9406  -20.1063  -11.3365 N   0  0  0  0  0  0  0  0  0  0  0  0
   24.5828  -20.3693  -11.2140 C   0  0  0  0  0  0  0  0  0  0  0  0
   24.2475  -19.2034  -11.5363 O   0  0  0  0  0  0  0  0  0  0  0  0
   17.9760  -24.6289  -12.7334 N   0  0  0  0  0  0  0  0  0  0  0  0
   17.8571  -24.0314  -14.0284 C   0  0  0  0  0  0  0  0  0  0  0  0
   16.7334  -23.7963  -14.5838 N   0  0  0  0  0  0  0  0  0  0  0  0
   19.0450  -23.6672  -14.7616 N   0  0  0  0  0  0  0  0  0  0  0  0
   20.3324  -23.7707  -14.1045 C   0  0  0  0  0  0  0  0  0  0  0  0
   20.7221  -22.4703  -13.4059 C   0  0  0  0  0  0  0  0  0  0  0  0
   22.0903  -22.5520  -12.8177 C   0  0  0  0  0  0  0  0  0  0  0  0
   22.4718  -21.2550  -12.1772 C   0  0  2  0  0  0  0  0  0  0  0  0
   23.7541  -21.4730  -11.5138 N   0  0  0  0  0  0  0  0  0  0  0  0
   21.4677  -20.7233  -11.2709 C   0  0  0  0  0  0  0  0  0  0  0  0
   21.4096  -20.9165  -10.0390 O   0  0  0  0  0  0  0  0  0  0  0  0
   20.4548  -19.9124  -11.8096 O   0  0  0  0  0  0  0  0  0  0  0  0
  2  3  1  0
  2  1  1  0
  3  5  1  0
  3  4  1  1
  5  7  1  0
  5  6  1  6
  7  8  2  0
 10  9  1  1
 10 12  1  0
 11 10  1  0
 13 12  1  1
 14 13  1  0
 14  7  1  0
 15 13  1  0
 15 16  2  0
 17 18  1  0
 18 20  1  0
 18 19  2  0
 20 21  1  0
 21 22  1  0
 22 23  1  0
 24 23  1  1
 24 25  1  0
 24 26  1  0
 25 15  1  0
 26 27  2  0
 26 28  1  0
M  END
$$$$
