ILR.pdb
     RDKit          3D

 28 27  0  0  1  0  0  0  0  0999 V2000
   24.5555  -21.4827  -17.3019 C   0  0  0  0  0  0  0  0  0  0  0  0
   25.2700  -20.5927  -16.3020 C   0  0  0  0  0  0  0  0  0  0  0  0
   24.7908  -21.0428  -14.9005 C   0  0  2  0  0  0  0  0  0  0  0  0
   23.7560  -20.0617  -14.4008 C   0  0  0  0  0  0  0  0  0  0  0  0
   25.9865  -21.1154  -13.9924 C   0  0  2  0  0  0  0  0  0  0  0  0
   26.8911  -22.1952  -14.4570 N   0  0  0  0  0  0  0  0  0  0  0  0
   25.6941  -21.3704  -12.5761 C   0  0  0  0  0  0  0  0  0  0  0  0
   25.5499  -22.5842  -12.1681 O   0  0  0  0  0  0  0  0  0  0  0  0
   26.3578  -21.2066   -7.2140 C   0  0  0  0  0  0  0  0  0  0  0  0
   25.7980  -19.9436   -7.8355 C   0  0  1  0  0  0  0  0  0  0  0  0
   26.1374  -18.7517   -7.0119 C   0  0  0  0  0  0  0  0  0  0  0  0
   26.0609  -19.8458   -9.2927 C   0  0  0  0  0  0  0  0  0  0  0  0
   25.2794  -20.7600  -10.1742 C   0  0  2  0  0  0  0  0  0  0  0  0
   25.5484  -20.4060  -11.5634 N   0  0  0  0  0  0  0  0  0  0  0  0
   23.7987  -20.5477   -9.9628 C   0  0  0  0  0  0  0  0  0  0  0  0
   23.1942  -19.5727  -10.4722 O   0  0  0  0  0  0  0  0  0  0  0  0
   18.0935  -25.7330   -5.4847 N   0  0  0  0  0  0  0  0  0  0  0  0
   17.2812  -25.0313   -6.4313 C   0  0  0  0  0  0  0  0  0  0  0  0
   16.0342  -25.2553   -6.5767 N   0  0  0  0  0  0  0  0  0  0  0  0
   17.8725  -24.0189   -7.2719 N   0  0  0  0  0  0  0  0  0  0  0  0
   19.3093  -23.8332   -7.2390 C   0  0  0  0  0  0  0  0  0  0  0  0
   19.7552  -22.6764   -8.1300 C   0  0  0  0  0  0  0  0  0  0  0  0
   21.2412  -22.5534   -8.1670 C   0  0  0  0  0  0  0  0  0  0  0  0
   21.6593  -21.4272   -9.0586 C   0  0  2  0  0  0  0  0  0  0  0  0
   23.1140  -21.4919   -9.1663 N   0  0  0  0  0  0  0  0  0  0  0  0
   21.1985  -20.1207   -8.6194 C   0  0  0  0  0  0  0  0  0  0  0  0
   21.6649  -19.4538   -7.6729 O   0  0  0  0  0  0  0  0  0  0  0  0
   20.1258  -19.5322   -9.3099 O   0  0  0  0  0  0  0  0  0  0  0  0
  2  3  1  0
  2  1  1  0
  3  5  1  0
  3  4  1  1
  5  7  1  0
  5  6  1  6
  7  8  2  0
 10  9  1  1
 10 12  1  0
 11 10  1  0
 13 12  1  1
 14 13  1  0
 14  7  1  0
 15 13  1  0
 15 16  2  0
 17 18  1  0
 18 20  1  0
 18 19  2  0
 20 21  1  0
 21 22  1  0
 22 23  1  0
 24 23  1  1
 24 25  1  0
 24 26  1  0
 25 15  1  0
 26 27  2  0
 26 28  1  0
M  END
$$$$
