HPY.pdb
     RDKit          3D

 30 32  0  0  1  0  0  0  0  0999 V2000
    8.4286  -17.1580   17.5264 N   0  0  0  0  0  0  0  0  0  0  0  0
    8.5919  -17.9788   18.6819 C   0  0  1  0  0  0  0  0  0  0  0  0
   10.0321  -18.4774   18.7091 C   0  0  0  0  0  0  0  0  0  0  0  0
   10.2305  -19.3588   17.5005 C   0  0  0  0  0  0  0  0  0  0  0  0
    9.2600  -20.0313   16.7966 C   0  0  0  0  0  0  0  0  0  0  0  0
    9.8519  -20.6994   15.7891 N   0  0  0  0  0  0  0  0  0  0  0  0
   11.1650  -20.4739   15.8291 C   0  0  0  0  0  0  0  0  0  0  0  0
   11.3958  -19.6548   16.8743 N   0  0  0  0  0  0  0  0  0  0  0  0
    8.1515  -17.4021   19.9532 C   0  0  0  0  0  0  0  0  0  0  0  0
    8.4047  -16.1923   20.1542 O   0  0  0  0  0  0  0  0  0  0  0  0
    7.4515  -18.1184   20.9911 N   0  0  0  0  0  0  0  0  0  0  0  0
    6.7640  -19.3458   20.6698 C   0  0  0  0  0  0  0  0  0  0  0  0
    6.0841  -19.7675   21.9545 C   0  0  0  0  0  0  0  0  0  0  0  0
    7.0020  -19.1843   23.0202 C   0  0  0  0  0  0  0  0  0  0  0  0
    7.2839  -17.8262   22.3621 C   0  0  1  0  0  0  0  0  0  0  0  0
    8.4225  -17.1805   23.0555 C   0  0  0  0  0  0  0  0  0  0  0  0
    9.4335  -16.8250   22.4320 O   0  0  0  0  0  0  0  0  0  0  0  0
    5.3284  -12.1108   27.5665 O   0  0  0  0  0  0  0  0  0  0  0  0
    6.3590  -12.7711   26.9059 C   0  0  0  0  0  0  0  0  0  0  0  0
    7.6584  -12.3210   26.8988 C   0  0  0  0  0  0  0  0  0  0  0  0
    8.6889  -12.9875   26.2356 C   0  0  0  0  0  0  0  0  0  0  0  0
    8.4100  -14.1510   25.5517 C   0  0  0  0  0  0  0  0  0  0  0  0
    9.4912  -14.8727   24.8454 C   0  0  0  0  0  0  0  0  0  0  0  0
    9.4810  -16.3636   25.1985 C   0  0  2  0  0  0  0  0  0  0  0  0
    8.4002  -16.9421   24.4699 N   0  0  0  0  0  0  0  0  0  0  0  0
    9.3459  -16.4694   26.6606 C   0  0  0  0  0  0  0  0  0  0  0  0
   10.2473  -16.0440   27.4345 O   0  0  0  0  0  0  0  0  0  0  0  0
    7.1050  -14.6018   25.5599 C   0  0  0  0  0  0  0  0  0  0  0  0
    6.0951  -13.9367   26.2169 C   0  0  0  0  0  0  0  0  0  0  0  0
    8.2345  -17.0345   27.2543 O   0  0  0  0  0  0  0  0  0  0  0  0
  2  1  1  6
  3  2  1  0
  3  4  1  0
  4  5  2  0
  4  8  1  0
  5  6  1  0
  6  7  1  0
  8  7  2  0
  9  2  1  0
 10  9  2  0
 11  9  1  0
 12 11  1  0
 13 12  1  0
 14 13  1  0
 15 14  1  0
 15 11  1  0
 15 16  1  1
 17 16  2  0
 19 20  2  0
 19 18  1  0
 21 20  1  0
 22 21  2  0
 23 22  1  0
 24 23  1  1
 24 25  1  0
 25 16  1  0
 26 24  1  0
 26 30  1  0
 27 26  2  0
 28 22  1  0
 28 29  2  0
 29 19  1  0
M  END
$$$$
