HPY.pdb
     RDKit          3D

 30 32  0  0  1  0  0  0  0  0999 V2000
   11.0487  -14.9893   18.0888 N   0  0  0  0  0  0  0  0  0  0  0  0
    9.8870  -14.6504   18.8444 C   0  0  1  0  0  0  0  0  0  0  0  0
    8.7064  -15.4263   18.2720 C   0  0  0  0  0  0  0  0  0  0  0  0
    8.5489  -15.0143   16.8290 C   0  0  0  0  0  0  0  0  0  0  0  0
    8.1310  -13.7930   16.3564 C   0  0  0  0  0  0  0  0  0  0  0  0
    8.1315  -13.8352   15.0110 N   0  0  0  0  0  0  0  0  0  0  0  0
    8.5357  -15.0415   14.6132 C   0  0  0  0  0  0  0  0  0  0  0  0
    8.7910  -15.7612   15.7238 N   0  0  0  0  0  0  0  0  0  0  0  0
   10.0058  -14.7610   20.2992 C   0  0  0  0  0  0  0  0  0  0  0  0
   11.1039  -15.1502   20.7586 O   0  0  0  0  0  0  0  0  0  0  0  0
    8.9576  -14.4590   21.2428 N   0  0  0  0  0  0  0  0  0  0  0  0
    7.7565  -13.8019   20.7866 C   0  0  0  0  0  0  0  0  0  0  0  0
    6.9325  -13.5704   22.0348 C   0  0  0  0  0  0  0  0  0  0  0  0
    7.3692  -14.7175   22.9357 C   0  0  0  0  0  0  0  0  0  0  0  0
    8.8742  -14.6865   22.6336 C   0  0  1  0  0  0  0  0  0  0  0  0
    9.4961  -15.9279   23.1498 C   0  0  0  0  0  0  0  0  0  0  0  0
    9.3650  -17.0062   22.5518 O   0  0  0  0  0  0  0  0  0  0  0  0
    9.3108  -14.6466   30.5368 O   0  0  0  0  0  0  0  0  0  0  0  0
    9.9593  -15.0923   29.3898 C   0  0  0  0  0  0  0  0  0  0  0  0
   10.1857  -14.2924   28.2945 C   0  0  0  0  0  0  0  0  0  0  0  0
   10.8376  -14.7439   27.1468 C   0  0  0  0  0  0  0  0  0  0  0  0
   11.2813  -16.0475   27.0911 C   0  0  0  0  0  0  0  0  0  0  0  0
   11.9775  -16.5423   25.8831 C   0  0  0  0  0  0  0  0  0  0  0  0
   10.9782  -17.0684   24.8476 C   0  0  2  0  0  0  0  0  0  0  0  0
   10.2715  -15.9313   24.3567 N   0  0  0  0  0  0  0  0  0  0  0  0
   10.1260  -18.0613   25.5223 C   0  0  0  0  0  0  0  0  0  0  0  0
    8.9072  -17.8298   25.7533 O   0  0  0  0  0  0  0  0  0  0  0  0
   11.0534  -16.8493   28.1917 C   0  0  0  0  0  0  0  0  0  0  0  0
   10.4088  -16.3946   29.3193 C   0  0  0  0  0  0  0  0  0  0  0  0
   10.6134  -19.2865   25.9326 O   0  0  0  0  0  0  0  0  0  0  0  0
  2  1  1  6
  3  2  1  0
  3  4  1  0
  4  5  2  0
  4  8  1  0
  5  6  1  0
  6  7  1  0
  8  7  2  0
  9  2  1  0
 10  9  2  0
 11  9  1  0
 12 11  1  0
 13 12  1  0
 14 13  1  0
 15 14  1  0
 15 11  1  0
 15 16  1  6
 17 16  2  0
 19 20  2  0
 19 18  1  0
 21 20  1  0
 22 21  2  0
 23 22  1  0
 24 23  1  1
 24 25  1  0
 25 16  1  0
 26 24  1  0
 26 30  1  0
 27 26  2  0
 28 22  1  0
 28 29  2  0
 29 19  1  0
M  END
$$$$
