HPY.pdb
     RDKit          3D

 30 32  0  0  1  0  0  0  0  0999 V2000
    9.6109  -17.8654   18.1262 N   0  0  0  0  0  0  0  0  0  0  0  0
    8.7149  -17.0579   18.8884 C   0  0  1  0  0  0  0  0  0  0  0  0
    7.7105  -17.9794   19.5707 C   0  0  0  0  0  0  0  0  0  0  0  0
    6.8725  -18.6174   18.4900 C   0  0  0  0  0  0  0  0  0  0  0  0
    6.9719  -18.4126   17.1344 C   0  0  0  0  0  0  0  0  0  0  0  0
    6.0459  -19.1727   16.5209 N   0  0  0  0  0  0  0  0  0  0  0  0
    5.3620  -19.8533   17.4405 C   0  0  0  0  0  0  0  0  0  0  0  0
    5.8675  -19.5142   18.6431 N   0  0  0  0  0  0  0  0  0  0  0  0
    9.3301  -16.0913   19.7993 C   0  0  0  0  0  0  0  0  0  0  0  0
   10.3742  -16.4449   20.3936 O   0  0  0  0  0  0  0  0  0  0  0  0
    8.8270  -14.7662   20.0664 N   0  0  0  0  0  0  0  0  0  0  0  0
    7.8583  -14.1788   19.1725 C   0  0  0  0  0  0  0  0  0  0  0  0
    7.6262  -12.7804   19.7027 C   0  0  0  0  0  0  0  0  0  0  0  0
    7.8968  -12.9433   21.1922 C   0  0  0  0  0  0  0  0  0  0  0  0
    9.1277  -13.8566   21.1033 C   0  0  1  0  0  0  0  0  0  0  0  0
    9.4014  -14.4298   22.4415 C   0  0  0  0  0  0  0  0  0  0  0  0
   10.3166  -13.9884   23.1522 O   0  0  0  0  0  0  0  0  0  0  0  0
    5.7383  -10.9254   26.8933 O   0  0  0  0  0  0  0  0  0  0  0  0
    6.0919  -12.1724   26.3888 C   0  0  0  0  0  0  0  0  0  0  0  0
    5.1841  -13.0465   25.8384 C   0  0  0  0  0  0  0  0  0  0  0  0
    5.5439  -14.2958   25.3326 C   0  0  0  0  0  0  0  0  0  0  0  0
    6.8643  -14.6878   25.3786 C   0  0  0  0  0  0  0  0  0  0  0  0
    7.2643  -16.0080   24.8439 C   0  0  0  0  0  0  0  0  0  0  0  0
    8.7011  -15.9753   24.3127 C   0  0  2  0  0  0  0  0  0  0  0  0
    8.6215  -15.5137   22.9658 N   0  0  0  0  0  0  0  0  0  0  0  0
    9.2535  -17.3328   24.4518 C   0  0  0  0  0  0  0  0  0  0  0  0
    9.2169  -18.1562   23.4964 O   0  0  0  0  0  0  0  0  0  0  0  0
    7.7746  -13.8092   25.9314 C   0  0  0  0  0  0  0  0  0  0  0  0
    7.4096  -12.5788   26.4281 C   0  0  0  0  0  0  0  0  0  0  0  0
    9.8356  -17.7697   25.6254 O   0  0  0  0  0  0  0  0  0  0  0  0
  2  1  1  1
  3  2  1  0
  3  4  1  0
  4  5  2  0
  4  8  1  0
  5  6  1  0
  6  7  1  0
  8  7  2  0
  9  2  1  0
 10  9  2  0
 11  9  1  0
 12 11  1  0
 13 12  1  0
 14 13  1  0
 15 14  1  0
 15 11  1  0
 15 16  1  1
 17 16  2  0
 19 20  2  0
 19 18  1  0
 21 20  1  0
 22 21  2  0
 23 22  1  0
 24 23  1  6
 24 25  1  0
 25 16  1  0
 26 24  1  0
 26 30  1  0
 27 26  2  0
 28 22  1  0
 28 29  2  0
 29 19  1  0
M  END
$$$$
