HPY.pdb
     RDKit          3D

 30 32  0  0  1  0  0  0  0  0999 V2000
    9.5705  -16.4630   15.9270 N   0  0  0  0  0  0  0  0  0  0  0  0
    8.7517  -16.2701   17.0793 C   0  0  1  0  0  0  0  0  0  0  0  0
    8.0919  -17.6012   17.4200 C   0  0  0  0  0  0  0  0  0  0  0  0
    7.3161  -18.0476   16.2051 C   0  0  0  0  0  0  0  0  0  0  0  0
    5.9520  -18.1749   16.0933 C   0  0  0  0  0  0  0  0  0  0  0  0
    5.6652  -18.5953   14.8471 N   0  0  0  0  0  0  0  0  0  0  0  0
    6.8006  -18.7390   14.1639 C   0  0  0  0  0  0  0  0  0  0  0  0
    7.8087  -18.4040   14.9935 N   0  0  0  0  0  0  0  0  0  0  0  0
    9.3917  -15.6269   18.2280 C   0  0  0  0  0  0  0  0  0  0  0  0
   10.5714  -15.9568   18.4883 O   0  0  0  0  0  0  0  0  0  0  0  0
    8.7695  -14.6459   19.0829 N   0  0  0  0  0  0  0  0  0  0  0  0
    7.7895  -13.7409   18.5324 C   0  0  0  0  0  0  0  0  0  0  0  0
    7.4211  -12.8147   19.6713 C   0  0  0  0  0  0  0  0  0  0  0  0
    7.6478  -13.6910   20.8955 C   0  0  0  0  0  0  0  0  0  0  0  0
    8.9535  -14.3678   20.4547 C   0  0  1  0  0  0  0  0  0  0  0  0
    9.2235  -15.5216   21.3437 C   0  0  0  0  0  0  0  0  0  0  0  0
    8.6014  -16.5866   21.2173 O   0  0  0  0  0  0  0  0  0  0  0  0
   13.4533  -22.1196   24.7180 O   0  0  0  0  0  0  0  0  0  0  0  0
   12.9763  -20.9781   24.0824 C   0  0  0  0  0  0  0  0  0  0  0  0
   13.7839  -20.1156   23.3789 C   0  0  0  0  0  0  0  0  0  0  0  0
   13.3006  -18.9724   22.7421 C   0  0  0  0  0  0  0  0  0  0  0  0
   11.9558  -18.6789   22.8109 C   0  0  0  0  0  0  0  0  0  0  0  0
   11.4254  -17.4724   22.1388 C   0  0  0  0  0  0  0  0  0  0  0  0
   10.6666  -16.5799   23.1263 C   0  0  2  0  0  0  0  0  0  0  0  0
   10.2115  -15.4522   22.3815 N   0  0  0  0  0  0  0  0  0  0  0  0
   11.5937  -16.2446   24.2196 C   0  0  0  0  0  0  0  0  0  0  0  0
   12.4734  -15.3504   24.0817 O   0  0  0  0  0  0  0  0  0  0  0  0
   11.1463  -19.5459   23.5174 C   0  0  0  0  0  0  0  0  0  0  0  0
   11.6328  -20.6711   24.1427 C   0  0  0  0  0  0  0  0  0  0  0  0
   11.5476  -16.8862   25.4415 O   0  0  0  0  0  0  0  0  0  0  0  0
  2  1  1  6
  3  2  1  0
  3  4  1  0
  4  5  2  0
  4  8  1  0
  5  6  1  0
  6  7  1  0
  8  7  2  0
  9  2  1  0
 10  9  2  0
 11  9  1  0
 12 11  1  0
 13 12  1  0
 14 13  1  0
 15 14  1  0
 15 11  1  0
 15 16  1  1
 17 16  2  0
 19 20  2  0
 19 18  1  0
 21 20  1  0
 22 21  2  0
 23 22  1  0
 24 23  1  6
 24 25  1  0
 25 16  1  0
 26 24  1  0
 26 30  1  0
 27 26  2  0
 28 22  1  0
 28 29  2  0
 29 19  1  0
M  END
$$$$
