HPY.pdb
     RDKit          3D

 30 32  0  0  1  0  0  0  0  0999 V2000
    7.5559  -18.0190   18.2743 N   0  0  0  0  0  0  0  0  0  0  0  0
    8.6914  -17.7649   19.0999 C   0  0  1  0  0  0  0  0  0  0  0  0
    9.4956  -16.6363   18.4651 C   0  0  0  0  0  0  0  0  0  0  0  0
    9.8918  -17.0844   17.0798 C   0  0  0  0  0  0  0  0  0  0  0  0
   11.1407  -17.4772   16.6609 C   0  0  0  0  0  0  0  0  0  0  0  0
   11.0689  -17.8013   15.3565 N   0  0  0  0  0  0  0  0  0  0  0  0
    9.8170  -17.6280   14.9328 C   0  0  0  0  0  0  0  0  0  0  0  0
    9.0983  -17.1905   15.9857 N   0  0  0  0  0  0  0  0  0  0  0  0
    8.4233  -17.5589   20.5241 C   0  0  0  0  0  0  0  0  0  0  0  0
    8.2379  -16.3820   20.9100 O   0  0  0  0  0  0  0  0  0  0  0  0
    8.3580  -18.6040   21.5160 N   0  0  0  0  0  0  0  0  0  0  0  0
    8.1287  -19.9668   21.1002 C   0  0  0  0  0  0  0  0  0  0  0  0
    8.0365  -20.7629   22.3841 C   0  0  0  0  0  0  0  0  0  0  0  0
    8.9162  -19.9609   23.3333 C   0  0  0  0  0  0  0  0  0  0  0  0
    8.4712  -18.5502   22.9221 C   0  0  1  0  0  0  0  0  0  0  0  0
    9.4214  -17.5615   23.4823 C   0  0  0  0  0  0  0  0  0  0  0  0
   10.4247  -17.2061   22.8462 O   0  0  0  0  0  0  0  0  0  0  0  0
    5.2044  -12.1139   26.7065 O   0  0  0  0  0  0  0  0  0  0  0  0
    6.3478  -12.7306   26.2094 C   0  0  0  0  0  0  0  0  0  0  0  0
    7.6213  -12.3022   26.5018 C   0  0  0  0  0  0  0  0  0  0  0  0
    8.7651  -12.9249   26.0016 C   0  0  0  0  0  0  0  0  0  0  0  0
    8.6311  -14.0199   25.1756 C   0  0  0  0  0  0  0  0  0  0  0  0
    9.8333  -14.6945   24.6386 C   0  0  0  0  0  0  0  0  0  0  0  0
   10.0936  -16.0180   25.3653 C   0  0  2  0  0  0  0  0  0  0  0  0
    9.2189  -16.9786   24.7773 N   0  0  0  0  0  0  0  0  0  0  0  0
    9.8567  -15.7871   26.7999 C   0  0  0  0  0  0  0  0  0  0  0  0
   10.6041  -15.0253   27.4731 O   0  0  0  0  0  0  0  0  0  0  0  0
    7.3518  -14.4488   24.8830 C   0  0  0  0  0  0  0  0  0  0  0  0
    6.2295  -13.8275   25.3812 C   0  0  0  0  0  0  0  0  0  0  0  0
    8.8126  -16.3875   27.4755 O   0  0  0  0  0  0  0  0  0  0  0  0
  2  1  1  6
  3  2  1  0
  3  4  1  0
  4  5  2  0
  4  8  1  0
  5  6  1  0
  6  7  1  0
  8  7  2  0
  9  2  1  0
 10  9  2  0
 11  9  1  0
 12 11  1  0
 13 12  1  0
 14 13  1  0
 15 14  1  0
 15 11  1  0
 15 16  1  6
 17 16  2  0
 19 20  2  0
 19 18  1  0
 21 20  1  0
 22 21  2  0
 23 22  1  0
 24 23  1  6
 24 25  1  0
 25 16  1  0
 26 24  1  0
 26 30  1  0
 27 26  2  0
 28 22  1  0
 28 29  2  0
 29 19  1  0
M  END
$$$$
