HPY.pdb
     RDKit          3D

 30 32  0  0  1  0  0  0  0  0999 V2000
   10.4638  -15.1904   15.0882 N   0  0  0  0  0  0  0  0  0  0  0  0
    9.4050  -15.1015   16.0404 C   0  0  1  0  0  0  0  0  0  0  0  0
    8.5555  -16.3616   15.9233 C   0  0  0  0  0  0  0  0  0  0  0  0
    9.3463  -17.4996   16.5205 C   0  0  0  0  0  0  0  0  0  0  0  0
   10.1188  -18.4155   15.8469 C   0  0  0  0  0  0  0  0  0  0  0  0
   10.6567  -19.2607   16.7459 N   0  0  0  0  0  0  0  0  0  0  0  0
   10.2522  -18.9125   17.9673 C   0  0  0  0  0  0  0  0  0  0  0  0
    9.4522  -17.8366   17.8293 N   0  0  0  0  0  0  0  0  0  0  0  0
    9.7960  -14.7889   17.4159 C   0  0  0  0  0  0  0  0  0  0  0  0
   10.8523  -15.3066   17.8453 O   0  0  0  0  0  0  0  0  0  0  0  0
    9.0594  -13.9339   18.3141 N   0  0  0  0  0  0  0  0  0  0  0  0
    8.0797  -13.0177   17.7818 C   0  0  0  0  0  0  0  0  0  0  0  0
    7.5765  -12.2369   18.9767 C   0  0  0  0  0  0  0  0  0  0  0  0
    7.7523  -13.2300   20.1173 C   0  0  0  0  0  0  0  0  0  0  0  0
    9.1215  -13.7982   19.7179 C   0  0  1  0  0  0  0  0  0  0  0  0
    9.3809  -15.0287   20.5009 C   0  0  0  0  0  0  0  0  0  0  0  0
    8.9413  -16.1274   20.1311 O   0  0  0  0  0  0  0  0  0  0  0  0
   15.9798  -14.2396   19.8320 O   0  0  0  0  0  0  0  0  0  0  0  0
   14.8568  -14.9310   20.2741 C   0  0  0  0  0  0  0  0  0  0  0  0
   14.8237  -15.6362   21.4541 C   0  0  0  0  0  0  0  0  0  0  0  0
   13.6945  -16.3272   21.8938 C   0  0  0  0  0  0  0  0  0  0  0  0
   12.5519  -16.3132   21.1233 C   0  0  0  0  0  0  0  0  0  0  0  0
   11.3441  -17.0379   21.5758 C   0  0  0  0  0  0  0  0  0  0  0  0
   10.4770  -16.1545   22.4786 C   0  0  2  0  0  0  0  0  0  0  0  0
   10.1478  -14.9974   21.7128 N   0  0  0  0  0  0  0  0  0  0  0  0
   11.2553  -15.8694   23.6952 C   0  0  0  0  0  0  0  0  0  0  0  0
   11.5425  -14.6863   24.0272 O   0  0  0  0  0  0  0  0  0  0  0  0
   12.5867  -15.6046   19.9389 C   0  0  0  0  0  0  0  0  0  0  0  0
   13.7060  -14.9263   19.5135 C   0  0  0  0  0  0  0  0  0  0  0  0
   11.7063  -16.8743   24.5282 O   0  0  0  0  0  0  0  0  0  0  0  0
  2  1  1  6
  3  2  1  0
  3  4  1  0
  4  5  2  0
  4  8  1  0
  5  6  1  0
  6  7  1  0
  8  7  2  0
  9  2  1  0
 10  9  2  0
 11  9  1  0
 12 11  1  0
 13 12  1  0
 14 13  1  0
 15 14  1  0
 15 11  1  0
 15 16  1  1
 17 16  2  0
 19 20  2  0
 19 18  1  0
 21 20  1  0
 22 21  2  0
 23 22  1  0
 24 23  1  6
 24 25  1  0
 25 16  1  0
 26 24  1  0
 26 30  1  0
 27 26  2  0
 28 22  1  0
 28 29  2  0
 29 19  1  0
M  END
$$$$
