HPY.pdb
     RDKit          3D

 30 32  0  0  1  0  0  0  0  0999 V2000
    9.6154  -16.4705   17.5059 N   0  0  0  0  0  0  0  0  0  0  0  0
    8.6325  -16.1992   18.5038 C   0  0  1  0  0  0  0  0  0  0  0  0
    7.6672  -17.3779   18.5508 C   0  0  0  0  0  0  0  0  0  0  0  0
    8.4712  -18.6103   18.8851 C   0  0  0  0  0  0  0  0  0  0  0  0
    9.1935  -19.3905   18.0139 C   0  0  0  0  0  0  0  0  0  0  0  0
    9.7652  -20.3893   18.7120 N   0  0  0  0  0  0  0  0  0  0  0  0
    9.4308  -20.2698   19.9967 C   0  0  0  0  0  0  0  0  0  0  0  0
    8.6408  -19.1829   20.1022 N   0  0  0  0  0  0  0  0  0  0  0  0
    9.1378  -15.8079   19.8207 C   0  0  0  0  0  0  0  0  0  0  0  0
   10.3175  -16.1214   20.1004 O   0  0  0  0  0  0  0  0  0  0  0  0
    8.3832  -15.0921   20.8200 N   0  0  0  0  0  0  0  0  0  0  0  0
    7.2036  -14.3575   20.4307 C   0  0  0  0  0  0  0  0  0  0  0  0
    6.7265  -13.6749   21.6945 C   0  0  0  0  0  0  0  0  0  0  0  0
    7.2086  -14.6233   22.7836 C   0  0  0  0  0  0  0  0  0  0  0  0
    8.5944  -14.9481   22.2084 C   0  0  1  0  0  0  0  0  0  0  0  0
    9.1543  -16.1160   22.9274 C   0  0  0  0  0  0  0  0  0  0  0  0
    8.8327  -17.2728   22.6179 O   0  0  0  0  0  0  0  0  0  0  0  0
    9.2469  -13.7405   29.9668 O   0  0  0  0  0  0  0  0  0  0  0  0
    9.8571  -14.3787   28.8922 C   0  0  0  0  0  0  0  0  0  0  0  0
   10.0507  -13.7772   27.6709 C   0  0  0  0  0  0  0  0  0  0  0  0
   10.6644  -14.4212   26.5964 C   0  0  0  0  0  0  0  0  0  0  0  0
   11.1025  -15.7190   26.7481 C   0  0  0  0  0  0  0  0  0  0  0  0
   11.7584  -16.4163   25.6201 C   0  0  0  0  0  0  0  0  0  0  0  0
   10.7218  -17.0395   24.6796 C   0  0  2  0  0  0  0  0  0  0  0  0
   10.0868  -15.9551   24.0056 N   0  0  0  0  0  0  0  0  0  0  0  0
    9.8114  -17.8519   25.5033 C   0  0  0  0  0  0  0  0  0  0  0  0
    8.6108  -17.5087   25.6859 O   0  0  0  0  0  0  0  0  0  0  0  0
   10.9077  -16.3216   27.9749 C   0  0  0  0  0  0  0  0  0  0  0  0
   10.3006  -15.6778   29.0289 C   0  0  0  0  0  0  0  0  0  0  0  0
   10.2218  -19.0213   26.1124 O   0  0  0  0  0  0  0  0  0  0  0  0
  2  1  1  6
  3  2  1  0
  3  4  1  0
  4  5  2  0
  4  8  1  0
  5  6  1  0
  6  7  1  0
  8  7  2  0
  9  2  1  0
 10  9  2  0
 11  9  1  0
 12 11  1  0
 13 12  1  0
 14 13  1  0
 15 14  1  0
 15 11  1  0
 15 16  1  1
 17 16  2  0
 19 20  2  0
 19 18  1  0
 21 20  1  0
 22 21  2  0
 23 22  1  0
 24 23  1  1
 24 25  1  0
 25 16  1  0
 26 24  1  0
 26 30  1  0
 27 26  2  0
 28 22  1  0
 28 29  2  0
 29 19  1  0
M  END
$$$$
