HPY.pdb
     RDKit          3D

 30 32  0  0  1  0  0  0  0  0999 V2000
   12.9458  -14.2096   18.3698 N   0  0  0  0  0  0  0  0  0  0  0  0
   11.6259  -14.7434   18.4620 C   0  0  1  0  0  0  0  0  0  0  0  0
   11.6738  -16.2033   18.0265 C   0  0  0  0  0  0  0  0  0  0  0  0
   11.9808  -16.2267   16.5493 C   0  0  0  0  0  0  0  0  0  0  0  0
   11.0842  -16.1073   15.5142 C   0  0  0  0  0  0  0  0  0  0  0  0
   11.7631  -16.1758   14.3539 N   0  0  0  0  0  0  0  0  0  0  0  0
   13.0601  -16.3344   14.6170 C   0  0  0  0  0  0  0  0  0  0  0  0
   13.1928  -16.3650   15.9579 N   0  0  0  0  0  0  0  0  0  0  0  0
   10.9319  -14.5381   19.7343 C   0  0  0  0  0  0  0  0  0  0  0  0
   11.5512  -14.8346   20.7816 O   0  0  0  0  0  0  0  0  0  0  0  0
    9.5919  -14.0234   19.8751 N   0  0  0  0  0  0  0  0  0  0  0  0
    8.9353  -13.4262   18.7372 C   0  0  0  0  0  0  0  0  0  0  0  0
    7.6056  -12.9294   19.2622 C   0  0  0  0  0  0  0  0  0  0  0  0
    7.3206  -13.8948   20.4046 C   0  0  0  0  0  0  0  0  0  0  0  0
    8.7351  -13.9744   20.9961 C   0  0  1  0  0  0  0  0  0  0  0  0
    8.7999  -15.1130   21.9415 C   0  0  0  0  0  0  0  0  0  0  0  0
    9.0025  -16.2683   21.5393 O   0  0  0  0  0  0  0  0  0  0  0  0
    5.2342  -11.2615   26.9119 O   0  0  0  0  0  0  0  0  0  0  0  0
    6.1460  -12.2684   26.6128 C   0  0  0  0  0  0  0  0  0  0  0  0
    5.8803  -13.6044   26.8015 C   0  0  0  0  0  0  0  0  0  0  0  0
    6.7978  -14.6107   26.4989 C   0  0  0  0  0  0  0  0  0  0  0  0
    8.0307  -14.2686   25.9871 C   0  0  0  0  0  0  0  0  0  0  0  0
    9.0148  -15.3230   25.6575 C   0  0  0  0  0  0  0  0  0  0  0  0
    8.6898  -15.9791   24.3116 C   0  0  2  0  0  0  0  0  0  0  0  0
    8.6317  -14.9245   23.3536 N   0  0  0  0  0  0  0  0  0  0  0  0
    7.4249  -16.7148   24.4740 C   0  0  0  0  0  0  0  0  0  0  0  0
    6.3501  -16.2899   23.9676 O   0  0  0  0  0  0  0  0  0  0  0  0
    8.2959  -12.9269   25.7981 C   0  0  0  0  0  0  0  0  0  0  0  0
    7.3842  -11.9413   26.1001 C   0  0  0  0  0  0  0  0  0  0  0  0
    7.3517  -17.8979   25.1825 O   0  0  0  0  0  0  0  0  0  0  0  0
  2  1  1  1
  3  2  1  0
  3  4  1  0
  4  5  2  0
  4  8  1  0
  5  6  1  0
  6  7  1  0
  8  7  2  0
  9  2  1  0
 10  9  2  0
 11  9  1  0
 12 11  1  0
 13 12  1  0
 14 13  1  0
 15 14  1  0
 15 11  1  0
 15 16  1  1
 17 16  2  0
 19 20  2  0
 19 18  1  0
 21 20  1  0
 22 21  2  0
 23 22  1  0
 24 23  1  1
 24 25  1  0
 25 16  1  0
 26 24  1  0
 26 30  1  0
 27 26  2  0
 28 22  1  0
 28 29  2  0
 29 19  1  0
M  END
$$$$
