HPY.pdb
     RDKit          3D

 30 32  0  0  1  0  0  0  0  0999 V2000
   10.0424  -18.1809   18.4683 N   0  0  0  0  0  0  0  0  0  0  0  0
    9.2715  -18.0205   19.6580 C   0  0  1  0  0  0  0  0  0  0  0  0
    9.1280  -19.3873   20.3174 C   0  0  0  0  0  0  0  0  0  0  0  0
    8.0309  -20.1280   19.5930 C   0  0  0  0  0  0  0  0  0  0  0  0
    6.8427  -19.6098   19.1355 C   0  0  0  0  0  0  0  0  0  0  0  0
    6.1476  -20.5990   18.5439 N   0  0  0  0  0  0  0  0  0  0  0  0
    6.8538  -21.7275   18.6099 C   0  0  0  0  0  0  0  0  0  0  0  0
    8.0042  -21.4394   19.2503 N   0  0  0  0  0  0  0  0  0  0  0  0
    9.7141  -16.9732   20.5799 C   0  0  0  0  0  0  0  0  0  0  0  0
   10.9473  -16.8471   20.7578 O   0  0  0  0  0  0  0  0  0  0  0  0
    8.8415  -16.0780   21.2995 N   0  0  0  0  0  0  0  0  0  0  0  0
    7.4371  -16.0351   20.9702 C   0  0  0  0  0  0  0  0  0  0  0  0
    6.8575  -14.9459   21.8468 C   0  0  0  0  0  0  0  0  0  0  0  0
    7.7745  -14.9774   23.0617 C   0  0  0  0  0  0  0  0  0  0  0  0
    9.1142  -15.1564   22.3335 C   0  0  1  0  0  0  0  0  0  0  0  0
   10.1520  -15.5398   23.3187 C   0  0  0  0  0  0  0  0  0  0  0  0
   11.3521  -15.3123   23.1057 O   0  0  0  0  0  0  0  0  0  0  0  0
    7.0012  -12.1495   28.3016 O   0  0  0  0  0  0  0  0  0  0  0  0
    8.0407  -12.8973   27.7584 C   0  0  0  0  0  0  0  0  0  0  0  0
    8.3807  -12.8568   26.4266 C   0  0  0  0  0  0  0  0  0  0  0  0
    9.4250  -13.6079   25.8868 C   0  0  0  0  0  0  0  0  0  0  0  0
   10.1593  -14.4330   26.7109 C   0  0  0  0  0  0  0  0  0  0  0  0
   11.2724  -15.2343   26.1560 C   0  0  0  0  0  0  0  0  0  0  0  0
   10.7600  -16.5467   25.5539 C   0  0  2  0  0  0  0  0  0  0  0  0
    9.8105  -16.1864   24.5528 N   0  0  0  0  0  0  0  0  0  0  0  0
   10.1992  -17.3474   26.6547 C   0  0  0  0  0  0  0  0  0  0  0  0
   10.9300  -17.7820   27.5872 O   0  0  0  0  0  0  0  0  0  0  0  0
    9.8169  -14.4724   28.0478 C   0  0  0  0  0  0  0  0  0  0  0  0
    8.7845  -13.7278   28.5709 C   0  0  0  0  0  0  0  0  0  0  0  0
    8.8559  -17.6602   26.7221 O   0  0  0  0  0  0  0  0  0  0  0  0
  2  1  1  6
  3  2  1  0
  3  4  1  0
  4  5  2  0
  4  8  1  0
  5  6  1  0
  6  7  1  0
  8  7  2  0
  9  2  1  0
 10  9  2  0
 11  9  1  0
 12 11  1  0
 13 12  1  0
 14 13  1  0
 15 14  1  0
 15 11  1  0
 15 16  1  1
 17 16  2  0
 19 20  2  0
 19 18  1  0
 21 20  1  0
 22 21  2  0
 23 22  1  0
 24 23  1  1
 24 25  1  0
 25 16  1  0
 26 24  1  0
 26 30  1  0
 27 26  2  0
 28 22  1  0
 28 29  2  0
 29 19  1  0
M  END
$$$$
