HPY.pdb
     RDKit          3D

 30 32  0  0  1  0  0  0  0  0999 V2000
   11.8033  -16.0938   17.7186 N   0  0  0  0  0  0  0  0  0  0  0  0
   10.4580  -15.7365   18.0319 C   0  0  1  0  0  0  0  0  0  0  0  0
    9.5591  -16.9139   17.6722 C   0  0  0  0  0  0  0  0  0  0  0  0
    9.0963  -16.7140   16.2499 C   0  0  0  0  0  0  0  0  0  0  0  0
    8.4450  -15.6179   15.7363 C   0  0  0  0  0  0  0  0  0  0  0  0
    8.2132  -15.8357   14.4284 N   0  0  0  0  0  0  0  0  0  0  0  0
    8.6953  -17.0325   14.0940 C   0  0  0  0  0  0  0  0  0  0  0  0
    9.2350  -17.5685   15.2067 N   0  0  0  0  0  0  0  0  0  0  0  0
   10.2236  -15.2158   19.3797 C   0  0  0  0  0  0  0  0  0  0  0  0
   11.0480  -15.5294   20.2688 O   0  0  0  0  0  0  0  0  0  0  0  0
    9.1179  -14.3727   19.7630 N   0  0  0  0  0  0  0  0  0  0  0  0
    8.4294  -13.6003   18.7570 C   0  0  0  0  0  0  0  0  0  0  0  0
    7.4040  -12.7855   19.5154 C   0  0  0  0  0  0  0  0  0  0  0  0
    7.1074  -13.6679   20.7203 C   0  0  0  0  0  0  0  0  0  0  0  0
    8.5401  -14.1265   21.0273 C   0  0  1  0  0  0  0  0  0  0  0  0
    8.4905  -15.2629   21.9761 C   0  0  0  0  0  0  0  0  0  0  0  0
    8.3502  -16.4273   21.5737 O   0  0  0  0  0  0  0  0  0  0  0  0
    5.2090  -11.3812   26.9603 O   0  0  0  0  0  0  0  0  0  0  0  0
    6.1389  -12.3672   26.6479 C   0  0  0  0  0  0  0  0  0  0  0  0
    7.4517  -12.0940   26.3433 C   0  0  0  0  0  0  0  0  0  0  0  0
    8.3809  -13.0867   26.0317 C   0  0  0  0  0  0  0  0  0  0  0  0
    7.9824  -14.4059   26.0239 C   0  0  0  0  0  0  0  0  0  0  0  0
    8.9553  -15.4720   25.6988 C   0  0  0  0  0  0  0  0  0  0  0  0
    8.6328  -16.1194   24.3481 C   0  0  2  0  0  0  0  0  0  0  0  0
    8.6027  -15.0618   23.3921 N   0  0  0  0  0  0  0  0  0  0  0  0
    7.3540  -16.8336   24.4958 C   0  0  0  0  0  0  0  0  0  0  0  0
    6.2894  -16.3825   23.9904 O   0  0  0  0  0  0  0  0  0  0  0  0
    6.6641  -14.6787   26.3300 C   0  0  0  0  0  0  0  0  0  0  0  0
    5.7547  -13.6921   26.6358 C   0  0  0  0  0  0  0  0  0  0  0  0
    7.2559  -18.0241   25.1887 O   0  0  0  0  0  0  0  0  0  0  0  0
  2  1  1  1
  3  2  1  0
  3  4  1  0
  4  5  2  0
  4  8  1  0
  5  6  1  0
  6  7  1  0
  8  7  2  0
  9  2  1  0
 10  9  2  0
 11  9  1  0
 12 11  1  0
 13 12  1  0
 14 13  1  0
 15 14  1  0
 15 11  1  0
 15 16  1  1
 17 16  2  0
 19 20  2  0
 19 18  1  0
 21 20  1  0
 22 21  2  0
 23 22  1  0
 24 23  1  1
 24 25  1  0
 25 16  1  0
 26 24  1  0
 26 30  1  0
 27 26  2  0
 28 22  1  0
 28 29  2  0
 29 19  1  0
M  END
$$$$
