HPY.pdb
     RDKit          3D

 30 32  0  0  1  0  0  0  0  0999 V2000
   10.0837  -18.5520   18.8580 N   0  0  0  0  0  0  0  0  0  0  0  0
    8.9884  -17.9212   19.5198 C   0  0  1  0  0  0  0  0  0  0  0  0
    8.0439  -19.0100   20.0156 C   0  0  0  0  0  0  0  0  0  0  0  0
    8.7771  -19.8015   21.0706 C   0  0  0  0  0  0  0  0  0  0  0  0
   10.0857  -19.6475   21.4625 C   0  0  0  0  0  0  0  0  0  0  0  0
   10.3479  -20.5457   22.4300 N   0  0  0  0  0  0  0  0  0  0  0  0
    9.2506  -21.2646   22.6660 C   0  0  0  0  0  0  0  0  0  0  0  0
    8.2913  -20.8095   21.8359 N   0  0  0  0  0  0  0  0  0  0  0  0
    9.3328  -16.9372   20.5474 C   0  0  0  0  0  0  0  0  0  0  0  0
   10.4669  -17.0255   21.0712 O   0  0  0  0  0  0  0  0  0  0  0  0
    8.4681  -15.8769   21.0040 N   0  0  0  0  0  0  0  0  0  0  0  0
    7.1851  -15.6827   20.3724 C   0  0  0  0  0  0  0  0  0  0  0  0
    6.5989  -14.4547   21.0348 C   0  0  0  0  0  0  0  0  0  0  0  0
    7.2267  -14.4964   22.4213 C   0  0  0  0  0  0  0  0  0  0  0  0
    8.6488  -14.9103   22.0169 C   0  0  1  0  0  0  0  0  0  0  0  0
    9.3905  -15.3355   23.2266 C   0  0  0  0  0  0  0  0  0  0  0  0
   10.6218  -15.2097   23.2999 O   0  0  0  0  0  0  0  0  0  0  0  0
    4.8939  -11.7684   26.4634 O   0  0  0  0  0  0  0  0  0  0  0  0
    6.0569  -12.5308   26.4379 C   0  0  0  0  0  0  0  0  0  0  0  0
    7.2756  -12.0588   26.8655 C   0  0  0  0  0  0  0  0  0  0  0  0
    8.4391  -12.8279   26.8390 C   0  0  0  0  0  0  0  0  0  0  0  0
    8.3829  -14.1210   26.3658 C   0  0  0  0  0  0  0  0  0  0  0  0
    9.6065  -14.9521   26.3334 C   0  0  0  0  0  0  0  0  0  0  0  0
    9.3634  -16.2618   25.5764 C   0  0  2  0  0  0  0  0  0  0  0  0
    8.7159  -15.9070   24.3564 N   0  0  0  0  0  0  0  0  0  0  0  0
    8.5626  -17.1343   26.4509 C   0  0  0  0  0  0  0  0  0  0  0  0
    9.0003  -17.5201   27.5698 O   0  0  0  0  0  0  0  0  0  0  0  0
    7.1586  -14.5936   25.9369 C   0  0  0  0  0  0  0  0  0  0  0  0
    6.0163  -13.8268   25.9667 C   0  0  0  0  0  0  0  0  0  0  0  0
    7.3020  -17.5706   26.0939 O   0  0  0  0  0  0  0  0  0  0  0  0
  2  1  1  1
  3  2  1  0
  3  4  1  0
  4  5  2  0
  4  8  1  0
  5  6  1  0
  6  7  1  0
  8  7  2  0
  9  2  1  0
 10  9  2  0
 11  9  1  0
 12 11  1  0
 13 12  1  0
 14 13  1  0
 15 14  1  0
 15 11  1  0
 15 16  1  1
 17 16  2  0
 19 20  2  0
 19 18  1  0
 21 20  1  0
 22 21  2  0
 23 22  1  0
 24 23  1  1
 24 25  1  0
 25 16  1  0
 26 24  1  0
 26 30  1  0
 27 26  2  0
 28 22  1  0
 28 29  2  0
 29 19  1  0
M  END
$$$$
