TKF.pdb
     RDKit          3D

 28 28  0  0  1  0  0  0  0  0999 V2000
    9.5508  -13.6313   18.1522 C   0  0  0  0  0  0  0  0  0  0  0  0
    9.2375  -14.2363   19.4980 C   0  0  1  0  0  0  0  0  0  0  0  0
    9.9417  -13.5475   20.4877 O   0  0  0  0  0  0  0  0  0  0  0  0
    7.7451  -14.1917   19.7537 C   0  0  2  0  0  0  0  0  0  0  0  0
    7.2449  -12.8418   19.6485 N   0  0  0  0  0  0  0  0  0  0  0  0
    7.3899  -14.7962   21.0797 C   0  0  0  0  0  0  0  0  0  0  0  0
    7.1291  -14.0693   22.0732 O   0  0  0  0  0  0  0  0  0  0  0  0
    7.3529  -16.2133   21.1965 N   0  0  0  0  0  0  0  0  0  0  0  0
    7.0192  -16.8870   22.4307 C   0  0  1  0  0  0  0  0  0  0  0  0
    6.8608  -18.3614   22.2919 C   0  0  0  0  0  0  0  0  0  0  0  0
    6.4829  -19.0573   23.5765 C   0  0  0  0  0  0  0  0  0  0  0  0
    6.2732  -20.5337   23.3978 C   0  0  0  0  0  0  0  0  0  0  0  0
    5.7733  -21.1668   24.6729 C   0  0  0  0  0  0  0  0  0  0  0  0
    5.6002  -22.5827   24.4725 N   0  0  0  0  0  0  0  0  0  0  0  0
    7.9764  -16.5263   23.5189 C   0  0  0  0  0  0  0  0  0  0  0  0
    9.1834  -16.4554   23.2289 O   0  0  0  0  0  0  0  0  0  0  0  0
    7.5765  -16.2677   24.8388 N   0  0  0  0  0  0  0  0  0  0  0  0
    8.5641  -15.9169   25.8677 C   0  0  1  0  0  0  0  0  0  0  0  0
    7.9426  -15.0965   26.9473 C   0  0  0  0  0  0  0  0  0  0  0  0
    7.3879  -13.8093   26.5148 C   0  0  0  0  0  0  0  0  0  0  0  0
    6.0852  -13.4582   26.7952 C   0  0  0  0  0  0  0  0  0  0  0  0
    5.5443  -12.2474   26.4081 C   0  0  0  0  0  0  0  0  0  0  0  0
    6.3594  -11.3735   25.7157 C   0  0  0  0  0  0  0  0  0  0  0  0
    7.6800  -11.6966   25.4160 C   0  0  0  0  0  0  0  0  0  0  0  0
    8.1848  -12.9242   25.8235 C   0  0  0  0  0  0  0  0  0  0  0  0
    9.2403  -17.1477   26.3399 C   0  0  0  0  0  0  0  0  0  0  0  0
    8.8620  -18.2708   25.9242 O   0  0  0  0  0  0  0  0  0  0  0  0
   10.2847  -17.0269   27.2369 O   0  0  0  0  0  0  0  0  0  0  0  0
  2  1  1  6
  3  2  1  0
  4  2  1  0
  4  6  1  0
  4  5  1  1
  6  8  1  0
  7  6  2  0
  8  9  1  0
  9 10  1  6
  9 15  1  0
 11 10  1  0
 12 11  1  0
 13 12  1  0
 14 13  1  0
 15 16  2  0
 15 17  1  0
 17 18  1  0
 18 26  1  0
 18 19  1  1
 19 20  1  0
 20 21  2  0
 20 25  1  0
 21 22  1  0
 22 23  2  0
 24 23  1  0
 25 24  2  0
 26 28  1  0
 27 26  2  0
M  END
$$$$
