TKF.pdb
     RDKit          3D

 28 28  0  0  1  0  0  0  0  0999 V2000
    9.2134  -12.8059   19.8725 C   0  0  0  0  0  0  0  0  0  0  0  0
    8.3653  -13.1863   18.6845 C   0  0  1  0  0  0  0  0  0  0  0  0
    8.5052  -12.2166   17.6895 O   0  0  0  0  0  0  0  0  0  0  0  0
    8.7657  -14.5562   18.1766 C   0  0  2  0  0  0  0  0  0  0  0  0
    8.0091  -14.9101   16.9995 N   0  0  0  0  0  0  0  0  0  0  0  0
    8.6298  -15.6051   19.2402 C   0  0  0  0  0  0  0  0  0  0  0  0
    7.4976  -16.0251   19.5938 O   0  0  0  0  0  0  0  0  0  0  0  0
    9.8089  -16.1199   19.8465 N   0  0  0  0  0  0  0  0  0  0  0  0
    9.7812  -16.9436   21.0337 C   0  0  1  0  0  0  0  0  0  0  0  0
   10.8825  -17.9440   21.1022 C   0  0  0  0  0  0  0  0  0  0  0  0
   10.9114  -18.7312   22.3894 C   0  0  0  0  0  0  0  0  0  0  0  0
   10.7914  -20.2118   22.1679 C   0  0  0  0  0  0  0  0  0  0  0  0
   10.5749  -20.9376   23.4730 C   0  0  0  0  0  0  0  0  0  0  0  0
   11.8448  -21.3596   24.0062 N   0  0  0  0  0  0  0  0  0  0  0  0
    9.7056  -16.1081   22.2692 C   0  0  0  0  0  0  0  0  0  0  0  0
   10.6645  -15.3575   22.5207 O   0  0  0  0  0  0  0  0  0  0  0  0
    8.6120  -16.1340   23.1480 N   0  0  0  0  0  0  0  0  0  0  0  0
    8.5395  -15.2065   24.2843 C   0  0  1  0  0  0  0  0  0  0  0  0
    7.3404  -14.3255   24.1795 C   0  0  0  0  0  0  0  0  0  0  0  0
    7.1321  -13.4142   25.3099 C   0  0  0  0  0  0  0  0  0  0  0  0
    7.9205  -12.2981   25.4871 C   0  0  0  0  0  0  0  0  0  0  0  0
    7.7363  -11.4197   26.5373 C   0  0  0  0  0  0  0  0  0  0  0  0
    6.7175  -11.6921   27.4292 C   0  0  0  0  0  0  0  0  0  0  0  0
    5.9024  -12.8108   27.2796 C   0  0  0  0  0  0  0  0  0  0  0  0
    6.1213  -13.6685   26.2099 C   0  0  0  0  0  0  0  0  0  0  0  0
    8.6344  -15.9711   25.5498 C   0  0  0  0  0  0  0  0  0  0  0  0
    8.0258  -17.0629   25.6708 O   0  0  0  0  0  0  0  0  0  0  0  0
    9.4016  -15.4571   26.5781 O   0  0  0  0  0  0  0  0  0  0  0  0
  2  1  1  1
  3  2  1  0
  4  2  1  0
  4  6  1  0
  4  5  1  6
  6  8  1  0
  7  6  2  0
  8  9  1  0
  9 10  1  1
  9 15  1  0
 11 10  1  0
 12 11  1  0
 13 12  1  0
 14 13  1  0
 15 16  2  0
 15 17  1  0
 17 18  1  0
 18 26  1  0
 18 19  1  1
 19 20  1  0
 20 21  2  0
 20 25  1  0
 21 22  1  0
 22 23  2  0
 24 23  1  0
 25 24  2  0
 26 28  1  0
 27 26  2  0
M  END
$$$$
