TKF.pdb
     RDKit          3D

 28 28  0  0  1  0  0  0  0  0999 V2000
   10.2174  -14.1972   20.0582 C   0  0  0  0  0  0  0  0  0  0  0  0
    9.0704  -13.3256   19.6113 C   0  0  1  0  0  0  0  0  0  0  0  0
    9.3945  -12.7272   18.3920 O   0  0  0  0  0  0  0  0  0  0  0  0
    7.8039  -14.1491   19.4995 C   0  0  2  0  0  0  0  0  0  0  0  0
    6.7177  -13.3546   18.9775 N   0  0  0  0  0  0  0  0  0  0  0  0
    7.4312  -14.7767   20.8099 C   0  0  0  0  0  0  0  0  0  0  0  0
    6.8605  -14.1067   21.7092 O   0  0  0  0  0  0  0  0  0  0  0  0
    7.7360  -16.1499   21.0208 N   0  0  0  0  0  0  0  0  0  0  0  0
    7.4086  -16.8436   22.2456 C   0  0  1  0  0  0  0  0  0  0  0  0
    7.1228  -18.2938   22.0621 C   0  0  0  0  0  0  0  0  0  0  0  0
    6.9162  -19.0426   23.3559 C   0  0  0  0  0  0  0  0  0  0  0  0
    6.5382  -20.4802   23.1414 C   0  0  0  0  0  0  0  0  0  0  0  0
    6.1544  -21.1382   24.4439 C   0  0  0  0  0  0  0  0  0  0  0  0
    5.6680  -22.4694   24.1866 N   0  0  0  0  0  0  0  0  0  0  0  0
    8.4442  -16.6051   23.2949 C   0  0  0  0  0  0  0  0  0  0  0  0
    9.6351  -16.7830   22.9847 O   0  0  0  0  0  0  0  0  0  0  0  0
    8.1343  -16.1942   24.6003 N   0  0  0  0  0  0  0  0  0  0  0  0
    9.1992  -15.8815   25.5620 C   0  0  1  0  0  0  0  0  0  0  0  0
    9.5212  -14.4251   25.5480 C   0  0  0  0  0  0  0  0  0  0  0  0
    8.4153  -13.5357   25.9190 C   0  0  0  0  0  0  0  0  0  0  0  0
    7.3960  -13.2508   25.0368 C   0  0  0  0  0  0  0  0  0  0  0  0
    6.3387  -12.4254   25.3674 C   0  0  0  0  0  0  0  0  0  0  0  0
    6.3255  -11.8777   26.6353 C   0  0  0  0  0  0  0  0  0  0  0  0
    7.3394  -12.1449   27.5512 C   0  0  0  0  0  0  0  0  0  0  0  0
    8.3841  -12.9800   27.1787 C   0  0  0  0  0  0  0  0  0  0  0  0
    8.8332  -16.4196   26.8930 C   0  0  0  0  0  0  0  0  0  0  0  0
    7.6917  -16.9084   27.0802 O   0  0  0  0  0  0  0  0  0  0  0  0
    9.7701  -16.3702   27.9077 O   0  0  0  0  0  0  0  0  0  0  0  0
  2  1  1  6
  3  2  1  0
  4  2  1  0
  4  6  1  0
  4  5  1  1
  6  8  1  0
  7  6  2  0
  8  9  1  0
  9 10  1  6
  9 15  1  0
 11 10  1  0
 12 11  1  0
 13 12  1  0
 14 13  1  0
 15 16  2  0
 15 17  1  0
 17 18  1  0
 18 26  1  0
 18 19  1  1
 19 20  1  0
 20 21  2  0
 20 25  1  0
 21 22  1  0
 22 23  2  0
 24 23  1  0
 25 24  2  0
 26 28  1  0
 27 26  2  0
M  END
$$$$
