TKF.pdb
     RDKit          3D

 28 28  0  0  1  0  0  0  0  0999 V2000
    5.9132  -18.6438   24.5736 C   0  0  0  0  0  0  0  0  0  0  0  0
    6.2430  -19.5845   23.4416 C   0  0  1  0  0  0  0  0  0  0  0  0
    5.2985  -20.6125   23.4071 O   0  0  0  0  0  0  0  0  0  0  0  0
    6.2792  -18.8277   22.1299 C   0  0  2  0  0  0  0  0  0  0  0  0
    6.3183  -19.7386   21.0109 N   0  0  0  0  0  0  0  0  0  0  0  0
    7.4244  -17.8604   22.0775 C   0  0  0  0  0  0  0  0  0  0  0  0
    8.5828  -18.2450   21.7716 O   0  0  0  0  0  0  0  0  0  0  0  0
    7.1781  -16.4930   22.3816 N   0  0  0  0  0  0  0  0  0  0  0  0
    8.2342  -15.5110   22.4756 C   0  0  1  0  0  0  0  0  0  0  0  0
    7.9762  -14.2681   21.6966 C   0  0  0  0  0  0  0  0  0  0  0  0
    7.8672  -14.4934   20.2084 C   0  0  0  0  0  0  0  0  0  0  0  0
    8.2098  -13.2691   19.4086 C   0  0  0  0  0  0  0  0  0  0  0  0
    8.0040  -13.5121   17.9337 C   0  0  0  0  0  0  0  0  0  0  0  0
    8.3363  -12.3193   17.1977 N   0  0  0  0  0  0  0  0  0  0  0  0
    8.5750  -15.2189   23.9000 C   0  0  0  0  0  0  0  0  0  0  0  0
    8.3226  -14.0816   24.3346 O   0  0  0  0  0  0  0  0  0  0  0  0
    9.1615  -16.1615   24.7580 N   0  0  0  0  0  0  0  0  0  0  0  0
    9.3622  -15.8592   26.1811 C   0  0  1  0  0  0  0  0  0  0  0  0
    8.0592  -15.6136   26.8643 C   0  0  0  0  0  0  0  0  0  0  0  0
    7.4883  -14.2776   26.6622 C   0  0  0  0  0  0  0  0  0  0  0  0
    8.1786  -13.1400   27.0203 C   0  0  0  0  0  0  0  0  0  0  0  0
    7.6663  -11.8713   26.8295 C   0  0  0  0  0  0  0  0  0  0  0  0
    6.4140  -11.7655   26.2566 C   0  0  0  0  0  0  0  0  0  0  0  0
    5.6897  -12.8941   25.8830 C   0  0  0  0  0  0  0  0  0  0  0  0
    6.2410  -14.1511   26.0923 C   0  0  0  0  0  0  0  0  0  0  0  0
   10.1911  -16.9215   26.7972 C   0  0  0  0  0  0  0  0  0  0  0  0
   10.5386  -17.9195   26.1186 O   0  0  0  0  0  0  0  0  0  0  0  0
   10.5667  -16.7848   28.1201 O   0  0  0  0  0  0  0  0  0  0  0  0
  2  1  1  1
  3  2  1  0
  4  2  1  0
  4  6  1  0
  4  5  1  6
  6  8  1  0
  7  6  2  0
  8  9  1  0
  9 10  1  1
  9 15  1  0
 11 10  1  0
 12 11  1  0
 13 12  1  0
 14 13  1  0
 15 16  2  0
 15 17  1  0
 17 18  1  0
 18 26  1  0
 18 19  1  1
 19 20  1  0
 20 21  2  0
 20 25  1  0
 21 22  1  0
 22 23  2  0
 24 23  1  0
 25 24  2  0
 26 28  1  0
 27 26  2  0
M  END
$$$$
