TKF.pdb
     RDKit          3D

 28 28  0  0  1  0  0  0  0  0999 V2000
   11.0933  -14.7940   19.4245 C   0  0  0  0  0  0  0  0  0  0  0  0
   10.2988  -13.5725   19.0344 C   0  0  1  0  0  0  0  0  0  0  0  0
   10.7831  -13.0759   17.8226 O   0  0  0  0  0  0  0  0  0  0  0  0
    8.8272  -13.9181   18.9377 C   0  0  2  0  0  0  0  0  0  0  0  0
    8.0693  -12.8027   18.4227 N   0  0  0  0  0  0  0  0  0  0  0  0
    8.2771  -14.3816   20.2539 C   0  0  0  0  0  0  0  0  0  0  0  0
    7.9920  -13.5585   21.1620 O   0  0  0  0  0  0  0  0  0  0  0  0
    8.0823  -15.7753   20.4602 N   0  0  0  0  0  0  0  0  0  0  0  0
    7.5624  -16.3172   21.6950 C   0  0  1  0  0  0  0  0  0  0  0  0
    7.0192  -17.6982   21.5687 C   0  0  0  0  0  0  0  0  0  0  0  0
    6.7515  -18.1198   20.1447 C   0  0  0  0  0  0  0  0  0  0  0  0
    6.3068  -19.5502   20.0358 C   0  0  0  0  0  0  0  0  0  0  0  0
    5.9986  -19.9129   18.6040 C   0  0  0  0  0  0  0  0  0  0  0  0
    7.1624  -20.5046   17.9955 N   0  0  0  0  0  0  0  0  0  0  0  0
    8.5644  -16.2077   22.7970 C   0  0  0  0  0  0  0  0  0  0  0  0
    9.7523  -16.4564   22.5268 O   0  0  0  0  0  0  0  0  0  0  0  0
    8.2263  -15.8413   24.1086 N   0  0  0  0  0  0  0  0  0  0  0  0
    9.2522  -15.7723   25.1573 C   0  0  1  0  0  0  0  0  0  0  0  0
    9.5345  -14.3576   25.5366 C   0  0  0  0  0  0  0  0  0  0  0  0
    8.3584  -13.5609   25.9023 C   0  0  0  0  0  0  0  0  0  0  0  0
    7.9443  -13.4513   27.2119 C   0  0  0  0  0  0  0  0  0  0  0  0
    6.8469  -12.6980   27.5817 C   0  0  0  0  0  0  0  0  0  0  0  0
    6.1558  -12.0397   26.5834 C   0  0  0  0  0  0  0  0  0  0  0  0
    6.5472  -12.1289   25.2503 C   0  0  0  0  0  0  0  0  0  0  0  0
    7.6562  -12.8968   24.9213 C   0  0  0  0  0  0  0  0  0  0  0  0
    8.8601  -16.6474   26.2867 C   0  0  0  0  0  0  0  0  0  0  0  0
    9.6147  -16.7611   27.2841 O   0  0  0  0  0  0  0  0  0  0  0  0
    7.6574  -17.3243   26.2135 O   0  0  0  0  0  0  0  0  0  0  0  0
  2  1  1  6
  3  2  1  0
  4  2  1  0
  4  6  1  0
  4  5  1  1
  6  8  1  0
  7  6  2  0
  8  9  1  0
  9 10  1  6
  9 15  1  0
 11 10  1  0
 12 11  1  0
 13 12  1  0
 14 13  1  0
 15 16  2  0
 15 17  1  0
 17 18  1  0
 18 26  1  0
 18 19  1  1
 19 20  1  0
 20 21  2  0
 20 25  1  0
 21 22  1  0
 22 23  2  0
 24 23  1  0
 25 24  2  0
 26 28  1  0
 27 26  2  0
M  END
$$$$
