TKF.pdb
     RDKit          3D

 28 28  0  0  1  0  0  0  0  0999 V2000
   10.3468  -15.3267   19.5195 C   0  0  0  0  0  0  0  0  0  0  0  0
    9.6405  -14.0828   19.0408 C   0  0  1  0  0  0  0  0  0  0  0  0
   10.1463  -13.7181   17.7914 O   0  0  0  0  0  0  0  0  0  0  0  0
    8.1463  -14.3238   18.9795 C   0  0  2  0  0  0  0  0  0  0  0  0
    7.4667  -13.1955   18.3891 N   0  0  0  0  0  0  0  0  0  0  0  0
    7.5795  -14.6480   20.3299 C   0  0  0  0  0  0  0  0  0  0  0  0
    7.5200  -13.7742   21.2335 O   0  0  0  0  0  0  0  0  0  0  0  0
    7.1078  -15.9675   20.5739 N   0  0  0  0  0  0  0  0  0  0  0  0
    6.5929  -16.3882   21.8571 C   0  0  1  0  0  0  0  0  0  0  0  0
    5.8520  -17.6797   21.8180 C   0  0  0  0  0  0  0  0  0  0  0  0
    4.5279  -17.6009   21.0983 C   0  0  0  0  0  0  0  0  0  0  0  0
    3.7784  -18.9023   21.1161 C   0  0  0  0  0  0  0  0  0  0  0  0
    2.4796  -18.7883   20.3568 C   0  0  0  0  0  0  0  0  0  0  0  0
    1.8315  -20.0741   20.3145 N   0  0  0  0  0  0  0  0  0  0  0  0
    7.6659  -16.3890   22.8958 C   0  0  0  0  0  0  0  0  0  0  0  0
    8.7861  -16.8204   22.5714 O   0  0  0  0  0  0  0  0  0  0  0  0
    7.4661  -15.9299   24.2066 N   0  0  0  0  0  0  0  0  0  0  0  0
    8.5617  -15.9494   25.1844 C   0  0  1  0  0  0  0  0  0  0  0  0
    9.0136  -14.5652   25.5083 C   0  0  0  0  0  0  0  0  0  0  0  0
    7.9836  -13.6861   26.0720 C   0  0  0  0  0  0  0  0  0  0  0  0
    7.0708  -13.0408   25.2662 C   0  0  0  0  0  0  0  0  0  0  0  0
    6.0852  -12.2172   25.7749 C   0  0  0  0  0  0  0  0  0  0  0  0
    6.0335  -12.0504   27.1450 C   0  0  0  0  0  0  0  0  0  0  0  0
    6.9402  -12.6875   27.9878 C   0  0  0  0  0  0  0  0  0  0  0  0
    7.9155  -13.5071   27.4357 C   0  0  0  0  0  0  0  0  0  0  0  0
    8.1580  -16.7572   26.3589 C   0  0  0  0  0  0  0  0  0  0  0  0
    6.9948  -17.2253   26.4291 O   0  0  0  0  0  0  0  0  0  0  0  0
    9.0845  -16.9790   27.3601 O   0  0  0  0  0  0  0  0  0  0  0  0
  2  1  1  6
  3  2  1  0
  4  2  1  0
  4  6  1  0
  4  5  1  1
  6  8  1  0
  7  6  2  0
  8  9  1  0
  9 10  1  6
  9 15  1  0
 11 10  1  0
 12 11  1  0
 13 12  1  0
 14 13  1  0
 15 16  2  0
 15 17  1  0
 17 18  1  0
 18 26  1  0
 18 19  1  1
 19 20  1  0
 20 21  2  0
 20 25  1  0
 21 22  1  0
 22 23  2  0
 24 23  1  0
 25 24  2  0
 26 28  1  0
 27 26  2  0
M  END
$$$$
