TKF.pdb
     RDKit          3D

 28 28  0  0  1  0  0  0  0  0999 V2000
    5.6050  -20.6263   25.1170 C   0  0  0  0  0  0  0  0  0  0  0  0
    6.4913  -19.4708   24.7240 C   0  0  1  0  0  0  0  0  0  0  0  0
    7.7678  -19.6683   25.2546 O   0  0  0  0  0  0  0  0  0  0  0  0
    6.5376  -19.3400   23.2156 C   0  0  2  0  0  0  0  0  0  0  0  0
    6.9646  -20.5761   22.6046 N   0  0  0  0  0  0  0  0  0  0  0  0
    7.4068  -18.1966   22.7830 C   0  0  0  0  0  0  0  0  0  0  0  0
    8.6522  -18.3370   22.6707 O   0  0  0  0  0  0  0  0  0  0  0  0
    6.7964  -16.9434   22.5005 N   0  0  0  0  0  0  0  0  0  0  0  0
    7.5587  -15.7554   22.1905 C   0  0  1  0  0  0  0  0  0  0  0  0
    6.7733  -14.6955   21.4989 C   0  0  0  0  0  0  0  0  0  0  0  0
    7.6193  -13.5802   20.9353 C   0  0  0  0  0  0  0  0  0  0  0  0
    7.7415  -13.6424   19.4396 C   0  0  0  0  0  0  0  0  0  0  0  0
    8.6416  -12.5462   18.9250 C   0  0  0  0  0  0  0  0  0  0  0  0
    8.6715  -12.5832   17.4853 N   0  0  0  0  0  0  0  0  0  0  0  0
    8.2607  -15.2329   23.4006 C   0  0  0  0  0  0  0  0  0  0  0  0
    8.0559  -14.0498   23.7237 O   0  0  0  0  0  0  0  0  0  0  0  0
    9.1316  -16.0107   24.1788 N   0  0  0  0  0  0  0  0  0  0  0  0
    9.4426  -15.6321   25.5634 C   0  0  1  0  0  0  0  0  0  0  0  0
    8.1991  -15.5236   26.3800 C   0  0  0  0  0  0  0  0  0  0  0  0
    7.5680  -14.1994   26.3868 C   0  0  0  0  0  0  0  0  0  0  0  0
    8.3031  -13.0548   26.6061 C   0  0  0  0  0  0  0  0  0  0  0  0
    7.7330  -11.7965   26.6061 C   0  0  0  0  0  0  0  0  0  0  0  0
    6.3741  -11.7087   26.3752 C   0  0  0  0  0  0  0  0  0  0  0  0
    5.6019  -12.8450   26.1499 C   0  0  0  0  0  0  0  0  0  0  0  0
    6.2143  -14.0911   26.1583 C   0  0  0  0  0  0  0  0  0  0  0  0
   10.4605  -16.5598   26.1097 C   0  0  0  0  0  0  0  0  0  0  0  0
   10.7806  -17.5899   25.4668 O   0  0  0  0  0  0  0  0  0  0  0  0
   11.0402  -16.2632   27.3287 O   0  0  0  0  0  0  0  0  0  0  0  0
  2  1  1  6
  3  2  1  0
  4  2  1  0
  4  6  1  0
  4  5  1  6
  6  8  1  0
  7  6  2  0
  8  9  1  0
  9 10  1  1
  9 15  1  0
 11 10  1  0
 12 11  1  0
 13 12  1  0
 14 13  1  0
 15 16  2  0
 15 17  1  0
 17 18  1  0
 18 26  1  0
 18 19  1  1
 19 20  1  0
 20 21  2  0
 20 25  1  0
 21 22  1  0
 22 23  2  0
 24 23  1  0
 25 24  2  0
 26 28  1  0
 27 26  2  0
M  END
$$$$
