TKF.pdb
     RDKit          3D

 28 28  0  0  1  0  0  0  0  0999 V2000
   10.1869  -12.7918   17.3050 C   0  0  0  0  0  0  0  0  0  0  0  0
    9.8885  -13.4931   18.6067 C   0  0  1  0  0  0  0  0  0  0  0  0
    9.6584  -12.5402   19.6010 O   0  0  0  0  0  0  0  0  0  0  0  0
    8.6964  -14.4129   18.4408 C   0  0  2  0  0  0  0  0  0  0  0  0
    7.5224  -13.6688   18.0513 N   0  0  0  0  0  0  0  0  0  0  0  0
    8.4380  -15.2173   19.6802 C   0  0  0  0  0  0  0  0  0  0  0  0
    7.4811  -14.9349   20.4470 O   0  0  0  0  0  0  0  0  0  0  0  0
    9.2979  -16.3108   19.9764 N   0  0  0  0  0  0  0  0  0  0  0  0
    9.1378  -17.1339   21.1535 C   0  0  1  0  0  0  0  0  0  0  0  0
   10.0055  -18.3443   21.1683 C   0  0  0  0  0  0  0  0  0  0  0  0
    9.7829  -19.2391   22.3629 C   0  0  0  0  0  0  0  0  0  0  0  0
   10.7369  -20.3982   22.4068 C   0  0  0  0  0  0  0  0  0  0  0  0
   10.4502  -21.2896   23.5900 C   0  0  0  0  0  0  0  0  0  0  0  0
   11.4192  -22.3544   23.6372 N   0  0  0  0  0  0  0  0  0  0  0  0
    9.2817  -16.3260   22.4012 C   0  0  0  0  0  0  0  0  0  0  0  0
   10.2988  -15.6209   22.5209 O   0  0  0  0  0  0  0  0  0  0  0  0
    8.3298  -16.3292   23.4321 N   0  0  0  0  0  0  0  0  0  0  0  0
    8.3536  -15.3000   24.4796 C   0  0  1  0  0  0  0  0  0  0  0  0
    7.1332  -14.4447   24.4162 C   0  0  0  0  0  0  0  0  0  0  0  0
    7.0069  -13.4534   25.4900 C   0  0  0  0  0  0  0  0  0  0  0  0
    7.2901  -12.1221   25.2753 C   0  0  0  0  0  0  0  0  0  0  0  0
    7.1679  -11.1689   26.2678 C   0  0  0  0  0  0  0  0  0  0  0  0
    6.7444  -11.5909   27.5128 C   0  0  0  0  0  0  0  0  0  0  0  0
    6.4498  -12.9283   27.7638 C   0  0  0  0  0  0  0  0  0  0  0  0
    6.5859  -13.8544   26.7384 C   0  0  0  0  0  0  0  0  0  0  0  0
    8.5896  -15.9418   25.7939 C   0  0  0  0  0  0  0  0  0  0  0  0
    9.3788  -15.4154   26.6168 O   0  0  0  0  0  0  0  0  0  0  0  0
    7.9254  -17.1182   26.0853 O   0  0  0  0  0  0  0  0  0  0  0  0
  2  1  1  6
  3  2  1  0
  4  2  1  0
  4  6  1  0
  4  5  1  1
  6  8  1  0
  7  6  2  0
  8  9  1  0
  9 10  1  1
  9 15  1  0
 11 10  1  0
 12 11  1  0
 13 12  1  0
 14 13  1  0
 15 16  2  0
 15 17  1  0
 17 18  1  0
 18 26  1  0
 18 19  1  1
 19 20  1  0
 20 21  2  0
 20 25  1  0
 21 22  1  0
 22 23  2  0
 24 23  1  0
 25 24  2  0
 26 28  1  0
 27 26  2  0
M  END
$$$$
