TKF.pdb
     RDKit          3D

 28 28  0  0  1  0  0  0  0  0999 V2000
    9.5556  -13.3735   17.6146 C   0  0  0  0  0  0  0  0  0  0  0  0
    9.3021  -13.9599   18.9810 C   0  0  1  0  0  0  0  0  0  0  0  0
   10.1144  -13.3159   19.9165 O   0  0  0  0  0  0  0  0  0  0  0  0
    7.8368  -13.8258   19.3411 C   0  0  2  0  0  0  0  0  0  0  0  0
    7.4115  -12.4487   19.2630 N   0  0  0  0  0  0  0  0  0  0  0  0
    7.5411  -14.4054   20.6926 C   0  0  0  0  0  0  0  0  0  0  0  0
    7.3483  -13.6602   21.6881 O   0  0  0  0  0  0  0  0  0  0  0  0
    7.4821  -15.8197   20.8314 N   0  0  0  0  0  0  0  0  0  0  0  0
    7.0358  -16.4678   22.0436 C   0  0  1  0  0  0  0  0  0  0  0  0
    6.6931  -17.9067   21.8697 C   0  0  0  0  0  0  0  0  0  0  0  0
    5.6351  -18.1590   20.8236 C   0  0  0  0  0  0  0  0  0  0  0  0
    5.2677  -19.6105   20.7067 C   0  0  0  0  0  0  0  0  0  0  0  0
    4.2607  -19.8260   19.6039 C   0  0  0  0  0  0  0  0  0  0  0  0
    3.8638  -21.2104   19.5773 N   0  0  0  0  0  0  0  0  0  0  0  0
    8.0054  -16.2536   23.1591 C   0  0  0  0  0  0  0  0  0  0  0  0
    9.2151  -16.2097   22.8749 O   0  0  0  0  0  0  0  0  0  0  0  0
    7.6142  -16.1021   24.4981 N   0  0  0  0  0  0  0  0  0  0  0  0
    8.6164  -15.9502   25.5608 C   0  0  1  0  0  0  0  0  0  0  0  0
    8.1007  -15.0868   26.6624 C   0  0  0  0  0  0  0  0  0  0  0  0
    7.7233  -13.7257   26.2667 C   0  0  0  0  0  0  0  0  0  0  0  0
    8.5929  -12.9123   25.5732 C   0  0  0  0  0  0  0  0  0  0  0  0
    8.2560  -11.6315   25.1803 C   0  0  0  0  0  0  0  0  0  0  0  0
    6.9949  -11.1721   25.5065 C   0  0  0  0  0  0  0  0  0  0  0  0
    6.0918  -11.9676   26.2062 C   0  0  0  0  0  0  0  0  0  0  0  0
    6.4703  -13.2494   26.5825 C   0  0  0  0  0  0  0  0  0  0  0  0
    9.0818  -17.2889   25.9926 C   0  0  0  0  0  0  0  0  0  0  0  0
    8.5464  -18.3221   25.5205 O   0  0  0  0  0  0  0  0  0  0  0  0
   10.1078  -17.3675   26.9152 O   0  0  0  0  0  0  0  0  0  0  0  0
  2  1  1  6
  3  2  1  0
  4  2  1  0
  4  6  1  0
  4  5  1  1
  6  8  1  0
  7  6  2  0
  8  9  1  0
  9 10  1  6
  9 15  1  0
 11 10  1  0
 12 11  1  0
 13 12  1  0
 14 13  1  0
 15 16  2  0
 15 17  1  0
 17 18  1  0
 18 26  1  0
 18 19  1  1
 19 20  1  0
 20 21  2  0
 20 25  1  0
 21 22  1  0
 22 23  2  0
 24 23  1  0
 25 24  2  0
 26 28  1  0
 27 26  2  0
M  END
$$$$
