TKF.pdb
     RDKit          3D

 28 28  0  0  1  0  0  0  0  0999 V2000
    9.9168  -13.3022   18.0866 C   0  0  0  0  0  0  0  0  0  0  0  0
    9.5221  -13.9514   19.3897 C   0  0  1  0  0  0  0  0  0  0  0  0
   10.1756  -13.3067   20.4419 O   0  0  0  0  0  0  0  0  0  0  0  0
    8.0181  -13.8989   19.5627 C   0  0  2  0  0  0  0  0  0  0  0  0
    7.5352  -12.5426   19.4600 N   0  0  0  0  0  0  0  0  0  0  0  0
    7.5845  -14.5292   20.8529 C   0  0  0  0  0  0  0  0  0  0  0  0
    7.1652  -13.8253   21.8080 O   0  0  0  0  0  0  0  0  0  0  0  0
    7.6559  -15.9440   20.9799 N   0  0  0  0  0  0  0  0  0  0  0  0
    7.1849  -16.6480   22.1509 C   0  0  1  0  0  0  0  0  0  0  0  0
    6.9170  -18.0949   21.9204 C   0  0  0  0  0  0  0  0  0  0  0  0
    5.8304  -18.3595   20.9072 C   0  0  0  0  0  0  0  0  0  0  0  0
    5.5747  -19.8247   20.6984 C   0  0  0  0  0  0  0  0  0  0  0  0
    4.4183  -20.0422   19.7540 C   0  0  0  0  0  0  0  0  0  0  0  0
    4.1903  -21.4549   19.5884 N   0  0  0  0  0  0  0  0  0  0  0  0
    8.0915  -16.4247   23.3165 C   0  0  0  0  0  0  0  0  0  0  0  0
    9.3121  -16.3432   23.0938 O   0  0  0  0  0  0  0  0  0  0  0  0
    7.6302  -16.3051   24.6362 N   0  0  0  0  0  0  0  0  0  0  0  0
    8.5720  -16.1110   25.7463 C   0  0  1  0  0  0  0  0  0  0  0  0
    7.9677  -15.2685   26.8187 C   0  0  0  0  0  0  0  0  0  0  0  0
    7.6010  -13.9072   26.4136 C   0  0  0  0  0  0  0  0  0  0  0  0
    6.2894  -13.4848   26.4199 C   0  0  0  0  0  0  0  0  0  0  0  0
    5.9213  -12.2048   26.0534 C   0  0  0  0  0  0  0  0  0  0  0  0
    6.9232  -11.3347   25.6703 C   0  0  0  0  0  0  0  0  0  0  0  0
    8.2584  -11.7289   25.6526 C   0  0  0  0  0  0  0  0  0  0  0  0
    8.5857  -13.0248   26.0285 C   0  0  0  0  0  0  0  0  0  0  0  0
    9.0702  -17.4289   26.2044 C   0  0  0  0  0  0  0  0  0  0  0  0
    8.5927  -18.4840   25.7187 O   0  0  0  0  0  0  0  0  0  0  0  0
   10.0617  -17.4641   27.1665 O   0  0  0  0  0  0  0  0  0  0  0  0
  2  1  1  6
  3  2  1  0
  4  2  1  0
  4  6  1  0
  4  5  1  1
  6  8  1  0
  7  6  2  0
  8  9  1  0
  9 10  1  6
  9 15  1  0
 11 10  1  0
 12 11  1  0
 13 12  1  0
 14 13  1  0
 15 16  2  0
 15 17  1  0
 17 18  1  0
 18 26  1  0
 18 19  1  1
 19 20  1  0
 20 21  2  0
 20 25  1  0
 21 22  1  0
 22 23  2  0
 24 23  1  0
 25 24  2  0
 26 28  1  0
 27 26  2  0
M  END
$$$$
