EMA.pdb
     RDKit          3D

 23 22  0  0  1  0  0  0  0  0999 V2000
   28.3866  -21.0127  -16.1071 N   0  0  0  0  0  0  0  0  0  0  0  0
   27.8139  -20.0108  -15.2577 C   0  0  1  0  0  0  0  0  0  0  0  0
   27.2395  -18.8631  -16.0105 C   0  0  0  0  0  0  0  0  0  0  0  0
   28.2120  -18.0178  -16.7551 C   0  0  0  0  0  0  0  0  0  0  0  0
   28.2220  -18.1218  -18.2142 C   0  0  0  0  0  0  0  0  0  0  0  0
   28.9890  -17.4421  -18.9160 O   0  0  0  0  0  0  0  0  0  0  0  0
   26.7633  -20.6883  -14.4134 C   0  0  0  0  0  0  0  0  0  0  0  0
   26.0302  -21.5504  -14.9467 O   0  0  0  0  0  0  0  0  0  0  0  0
   27.3718  -18.9894  -18.9039 O   0  0  0  0  0  0  0  0  0  0  0  0
   23.3983  -21.4721   -7.1954 C   0  0  0  0  0  0  0  0  0  0  0  0
   24.7412  -20.7908   -8.1872 S   0  0  0  0  0  0  0  0  0  0  0  0
   24.5608  -21.1984   -9.9351 C   0  0  0  0  0  0  0  0  0  0  0  0
   25.6717  -20.6311  -10.7810 C   0  0  0  0  0  0  0  0  0  0  0  0
   25.5228  -20.9782  -12.2417 C   0  0  2  0  0  0  0  0  0  0  0  0
   26.5615  -20.4019  -13.0511 N   0  0  0  0  0  0  0  0  0  0  0  0
   24.1655  -20.5384  -12.6577 C   0  0  0  0  0  0  0  0  0  0  0  0
   23.9192  -19.3084  -12.6673 O   0  0  0  0  0  0  0  0  0  0  0  0
   21.2819  -22.0298  -14.4155 C   0  0  0  0  0  0  0  0  0  0  0  0
   21.7881  -21.0132  -13.4139 C   0  0  2  0  0  0  0  0  0  0  0  0
   23.1299  -21.4237  -13.0448 N   0  0  0  0  0  0  0  0  0  0  0  0
   20.8735  -20.9886  -12.2367 C   0  0  0  0  0  0  0  0  0  0  0  0
   19.6920  -20.2744  -12.2499 O   0  0  0  0  0  0  0  0  0  0  0  0
   21.1655  -21.6251  -11.2010 O   0  0  0  0  0  0  0  0  0  0  0  0
  2  1  1  6
  2  7  1  0
  3  2  1  0
  4  3  1  0
  4  5  1  0
  5  6  2  0
  7  8  2  0
  9  5  1  0
 10 11  1  0
 11 12  1  0
 12 13  1  0
 14 13  1  1
 14 16  1  0
 15  7  1  0
 15 14  1  0
 16 17  2  0
 19 18  1  6
 19 21  1  0
 20 19  1  0
 20 16  1  0
 21 22  1  0
 23 21  2  0
M  END
$$$$
