EMA.pdb
     RDKit          3D

 23 22  0  0  1  0  0  0  0  0999 V2000
   29.5330  -31.3696  -15.2400 N   0  0  0  0  0  0  0  0  0  0  0  0
   29.1901  -31.7683  -16.5729 C   0  0  1  0  0  0  0  0  0  0  0  0
   30.1858  -32.6904  -17.1830 C   0  0  0  0  0  0  0  0  0  0  0  0
   31.4511  -32.0656  -17.6556 C   0  0  0  0  0  0  0  0  0  0  0  0
   31.4343  -31.4052  -18.9609 C   0  0  0  0  0  0  0  0  0  0  0  0
   30.8376  -31.8918  -19.9356 O   0  0  0  0  0  0  0  0  0  0  0  0
   27.8244  -32.4059  -16.5111 C   0  0  0  0  0  0  0  0  0  0  0  0
   27.3403  -32.8882  -17.5590 O   0  0  0  0  0  0  0  0  0  0  0  0
   32.0865  -30.1912  -19.1887 O   0  0  0  0  0  0  0  0  0  0  0  0
   27.0371  -37.5306  -12.2796 C   0  0  0  0  0  0  0  0  0  0  0  0
   26.1698  -35.9500  -12.2993 S   0  0  0  0  0  0  0  0  0  0  0  0
   26.3275  -35.1156  -13.8908 C   0  0  0  0  0  0  0  0  0  0  0  0
   25.5464  -33.8282  -13.9512 C   0  0  0  0  0  0  0  0  0  0  0  0
   25.7554  -33.0836  -15.2466 C   0  0  2  0  0  0  0  0  0  0  0  0
   27.0608  -32.4881  -15.3327 N   0  0  0  0  0  0  0  0  0  0  0  0
   24.6632  -32.0814  -15.3540 C   0  0  0  0  0  0  0  0  0  0  0  0
   24.8384  -30.9568  -14.8267 O   0  0  0  0  0  0  0  0  0  0  0  0
   21.3712  -31.9125  -17.1311 C   0  0  0  0  0  0  0  0  0  0  0  0
   22.3586  -31.3498  -16.1307 C   0  0  2  0  0  0  0  0  0  0  0  0
   23.4336  -32.3176  -16.0160 N   0  0  0  0  0  0  0  0  0  0  0  0
   21.6666  -31.1347  -14.8277 C   0  0  0  0  0  0  0  0  0  0  0  0
   20.9434  -29.9871  -14.5705 O   0  0  0  0  0  0  0  0  0  0  0  0
   21.7300  -32.0043  -13.9317 O   0  0  0  0  0  0  0  0  0  0  0  0
  2  1  1  1
  2  7  1  0
  3  2  1  0
  4  3  1  0
  4  5  1  0
  5  6  2  0
  7  8  2  0
  9  5  1  0
 10 11  1  0
 11 12  1  0
 12 13  1  0
 14 13  1  1
 14 16  1  0
 15  7  1  0
 15 14  1  0
 16 17  2  0
 19 18  1  6
 19 21  1  0
 20 19  1  0
 20 16  1  0
 21 22  1  0
 23 21  2  0
M  END
$$$$
