EMA.pdb
     RDKit          3D

 23 22  0  0  1  0  0  0  0  0999 V2000
   28.4060  -20.9857  -16.7811 N   0  0  0  0  0  0  0  0  0  0  0  0
   28.1952  -20.0499  -15.7167 C   0  0  1  0  0  0  0  0  0  0  0  0
   27.8543  -18.6835  -16.1969 C   0  0  0  0  0  0  0  0  0  0  0  0
   26.7973  -18.6029  -17.2413 C   0  0  0  0  0  0  0  0  0  0  0  0
   27.1846  -18.8961  -18.6213 C   0  0  0  0  0  0  0  0  0  0  0  0
   28.2236  -18.4367  -19.1236 O   0  0  0  0  0  0  0  0  0  0  0  0
   27.1007  -20.6079  -14.8414 C   0  0  0  0  0  0  0  0  0  0  0  0
   26.2504  -21.3675  -15.3563 O   0  0  0  0  0  0  0  0  0  0  0  0
   26.4114  -19.7078  -19.4544 O   0  0  0  0  0  0  0  0  0  0  0  0
   24.2029  -21.5824   -7.5100 C   0  0  0  0  0  0  0  0  0  0  0  0
   25.5087  -20.9494   -8.5802 S   0  0  0  0  0  0  0  0  0  0  0  0
   24.9781  -20.8476  -10.3013 C   0  0  0  0  0  0  0  0  0  0  0  0
   26.0477  -20.2927  -11.2065 C   0  0  0  0  0  0  0  0  0  0  0  0
   25.9065  -20.7700  -12.6308 C   0  0  2  0  0  0  0  0  0  0  0  0
   26.9831  -20.3191  -13.4698 N   0  0  0  0  0  0  0  0  0  0  0  0
   24.5774  -20.3126  -13.1136 C   0  0  0  0  0  0  0  0  0  0  0  0
   24.3715  -19.0781  -13.1985 O   0  0  0  0  0  0  0  0  0  0  0  0
   21.6983  -21.8488  -14.8562 C   0  0  0  0  0  0  0  0  0  0  0  0
   22.2201  -20.7553  -13.9482 C   0  0  2  0  0  0  0  0  0  0  0  0
   23.5258  -21.1858  -13.4845 N   0  0  0  0  0  0  0  0  0  0  0  0
   21.2676  -20.5618  -12.8176 C   0  0  0  0  0  0  0  0  0  0  0  0
   21.5685  -20.9766  -11.5356 O   0  0  0  0  0  0  0  0  0  0  0  0
   20.1626  -20.0112  -13.0145 O   0  0  0  0  0  0  0  0  0  0  0  0
  2  1  1  6
  2  7  1  0
  3  2  1  0
  4  3  1  0
  4  5  1  0
  5  6  2  0
  7  8  2  0
  9  5  1  0
 10 11  1  0
 11 12  1  0
 12 13  1  0
 14 13  1  1
 14 16  1  0
 15  7  1  0
 15 14  1  0
 16 17  2  0
 19 18  1  6
 19 21  1  0
 20 19  1  0
 20 16  1  0
 21 22  1  0
 23 21  2  0
M  END
$$$$
