EMA.pdb
     RDKit          3D

 23 22  0  0  1  0  0  0  0  0999 V2000
   17.7591  -11.7264  -15.9701 N   0  0  0  0  0  0  0  0  0  0  0  0
   18.2270  -10.6236  -16.7565 C   0  0  1  0  0  0  0  0  0  0  0  0
   17.2518   -9.5024  -16.8320 C   0  0  0  0  0  0  0  0  0  0  0  0
   16.1106   -9.6911  -17.7684 C   0  0  0  0  0  0  0  0  0  0  0  0
   15.1615   -8.5870  -17.9108 C   0  0  0  0  0  0  0  0  0  0  0  0
   14.1725   -8.4711  -17.1684 O   0  0  0  0  0  0  0  0  0  0  0  0
   19.5336  -10.1688  -16.1553 C   0  0  0  0  0  0  0  0  0  0  0  0
   19.7545  -10.4118  -14.9481 O   0  0  0  0  0  0  0  0  0  0  0  0
   15.3100   -7.5998  -18.8878 O   0  0  0  0  0  0  0  0  0  0  0  0
   26.1967   -9.6233  -14.3349 C   0  0  0  0  0  0  0  0  0  0  0  0
   24.6230  -10.0425  -15.1088 S   0  0  0  0  0  0  0  0  0  0  0  0
   24.2518   -8.9640  -16.5062 C   0  0  0  0  0  0  0  0  0  0  0  0
   22.9482   -9.3120  -17.1777 C   0  0  0  0  0  0  0  0  0  0  0  0
   21.7498   -8.9857  -16.3212 C   0  0  2  0  0  0  0  0  0  0  0  0
   20.5230   -9.4823  -16.8820 N   0  0  0  0  0  0  0  0  0  0  0  0
   21.7360   -7.5112  -16.1352 C   0  0  0  0  0  0  0  0  0  0  0  0
   21.7984   -6.7855  -17.1564 O   0  0  0  0  0  0  0  0  0  0  0  0
   22.2270   -5.1959  -13.2846 C   0  0  0  0  0  0  0  0  0  0  0  0
   21.6728   -5.4357  -14.6731 C   0  0  2  0  0  0  0  0  0  0  0  0
   21.6569   -6.8727  -14.8735 N   0  0  0  0  0  0  0  0  0  0  0  0
   22.5399   -4.7475  -15.6718 C   0  0  0  0  0  0  0  0  0  0  0  0
   22.3227   -3.4345  -16.0394 O   0  0  0  0  0  0  0  0  0  0  0  0
   23.4940   -5.3574  -16.2015 O   0  0  0  0  0  0  0  0  0  0  0  0
  2  1  1  1
  2  7  1  0
  3  2  1  0
  4  3  1  0
  4  5  1  0
  5  6  2  0
  7  8  2  0
  9  5  1  0
 10 11  1  0
 11 12  1  0
 12 13  1  0
 14 13  1  6
 14 16  1  0
 15  7  1  0
 15 14  1  0
 16 17  2  0
 19 18  1  1
 19 21  1  0
 20 19  1  0
 20 16  1  0
 21 22  1  0
 23 21  2  0
M  END
$$$$
