EMA.pdb
     RDKit          3D

 23 22  0  0  1  0  0  0  0  0999 V2000
   16.7125  -11.5175  -12.2959 N   0  0  0  0  0  0  0  0  0  0  0  0
   17.4711  -10.4532  -11.7085 C   0  0  1  0  0  0  0  0  0  0  0  0
   18.6077  -10.0058  -12.5582 C   0  0  0  0  0  0  0  0  0  0  0  0
   18.2638   -9.5984  -13.9476 C   0  0  0  0  0  0  0  0  0  0  0  0
   19.3550   -9.1464  -14.8107 C   0  0  0  0  0  0  0  0  0  0  0  0
   19.5747   -9.6650  -15.9178 O   0  0  0  0  0  0  0  0  0  0  0  0
   16.5142   -9.3189  -11.4383 C   0  0  0  0  0  0  0  0  0  0  0  0
   15.6412   -9.0544  -12.2945 O   0  0  0  0  0  0  0  0  0  0  0  0
   20.2130   -8.1074  -14.4427 O   0  0  0  0  0  0  0  0  0  0  0  0
   12.7865   -4.7711   -6.1351 C   0  0  0  0  0  0  0  0  0  0  0  0
   13.9309   -6.1236   -6.4701 S   0  0  0  0  0  0  0  0  0  0  0  0
   14.3494   -6.2329   -8.2213 C   0  0  0  0  0  0  0  0  0  0  0  0
   15.3213   -7.3461   -8.5175 C   0  0  0  0  0  0  0  0  0  0  0  0
   15.6512   -7.4521   -9.9858 C   0  0  2  0  0  0  0  0  0  0  0  0
   16.5500   -8.5374  -10.2692 N   0  0  0  0  0  0  0  0  0  0  0  0
   16.1972   -6.1351  -10.4056 C   0  0  0  0  0  0  0  0  0  0  0  0
   17.3350   -5.8072   -9.9915 O   0  0  0  0  0  0  0  0  0  0  0  0
   15.1349   -3.4516  -12.7874 C   0  0  0  0  0  0  0  0  0  0  0  0
   16.0328   -3.9387  -11.6699 C   0  0  2  0  0  0  0  0  0  0  0  0
   15.5112   -5.2246  -11.2461 N   0  0  0  0  0  0  0  0  0  0  0  0
   16.0178   -2.9428  -10.5605 C   0  0  0  0  0  0  0  0  0  0  0  0
   16.7719   -1.7873  -10.6118 O   0  0  0  0  0  0  0  0  0  0  0  0
   15.3103   -3.1400   -9.5488 O   0  0  0  0  0  0  0  0  0  0  0  0
  2  1  1  6
  2  7  1  0
  3  2  1  0
  4  3  1  0
  4  5  1  0
  5  6  2  0
  7  8  2  0
  9  5  1  0
 10 11  1  0
 11 12  1  0
 12 13  1  0
 14 13  1  1
 14 16  1  0
 15  7  1  0
 15 14  1  0
 16 17  2  0
 19 18  1  6
 19 21  1  0
 20 19  1  0
 20 16  1  0
 21 22  1  0
 23 21  2  0
M  END
$$$$
