EMA.pdb
     RDKit          3D

 23 22  0  0  1  0  0  0  0  0999 V2000
   25.3917  -32.9213   -7.4475 N   0  0  0  0  0  0  0  0  0  0  0  0
   24.9030  -34.0299   -6.6823 C   0  0  1  0  0  0  0  0  0  0  0  0
   25.9656  -35.0075   -6.3230 C   0  0  0  0  0  0  0  0  0  0  0  0
   26.1022  -36.1843   -7.2236 C   0  0  0  0  0  0  0  0  0  0  0  0
   25.6618  -37.4827   -6.7133 C   0  0  0  0  0  0  0  0  0  0  0  0
   25.0985  -38.3174   -7.4404 O   0  0  0  0  0  0  0  0  0  0  0  0
   24.2435  -33.4651   -5.4488 C   0  0  0  0  0  0  0  0  0  0  0  0
   24.7928  -32.5071   -4.8609 O   0  0  0  0  0  0  0  0  0  0  0  0
   25.8479  -37.8604   -5.3815 O   0  0  0  0  0  0  0  0  0  0  0  0
   18.1066  -31.6989   -4.7052 C   0  0  0  0  0  0  0  0  0  0  0  0
   18.4374  -32.3734   -3.0661 S   0  0  0  0  0  0  0  0  0  0  0  0
   20.2006  -32.6345   -2.7890 C   0  0  0  0  0  0  0  0  0  0  0  0
   20.8919  -33.2424   -3.9822 C   0  0  0  0  0  0  0  0  0  0  0  0
   22.3736  -33.4238   -3.7633 C   0  0  2  0  0  0  0  0  0  0  0  0
   23.0375  -33.9597   -4.9202 N   0  0  0  0  0  0  0  0  0  0  0  0
   22.5342  -34.2858   -2.5633 C   0  0  0  0  0  0  0  0  0  0  0  0
   22.0303  -35.4343   -2.5882 O   0  0  0  0  0  0  0  0  0  0  0  0
   24.4757  -34.0581    0.6251 C   0  0  0  0  0  0  0  0  0  0  0  0
   23.4211  -34.7332   -0.2261 C   0  0  2  0  0  0  0  0  0  0  0  0
   23.2223  -33.8903   -1.3902 N   0  0  0  0  0  0  0  0  0  0  0  0
   22.1695  -34.8804    0.5706 C   0  0  0  0  0  0  0  0  0  0  0  0
   21.1567  -33.9439    0.5113 O   0  0  0  0  0  0  0  0  0  0  0  0
   22.0132  -35.8706    1.3176 O   0  0  0  0  0  0  0  0  0  0  0  0
  2  1  1  1
  2  7  1  0
  3  2  1  0
  4  3  1  0
  4  5  1  0
  5  6  2  0
  7  8  2  0
  9  5  1  0
 10 11  1  0
 11 12  1  0
 12 13  1  0
 14 13  1  6
 14 16  1  0
 15  7  1  0
 15 14  1  0
 16 17  2  0
 19 18  1  1
 19 21  1  0
 20 19  1  0
 20 16  1  0
 21 22  1  0
 23 21  2  0
M  END
$$$$
