EMA.pdb
     RDKit          3D

 23 22  0  0  1  0  0  0  0  0999 V2000
   21.4489  -14.6730  -19.9283 N   0  0  0  0  0  0  0  0  0  0  0  0
   21.3846  -13.2690  -20.2077 C   0  0  1  0  0  0  0  0  0  0  0  0
   19.9980  -12.7803  -20.4370 C   0  0  0  0  0  0  0  0  0  0  0  0
   19.3780  -13.1596  -21.7355 C   0  0  0  0  0  0  0  0  0  0  0  0
   19.9521  -12.5871  -22.9533 C   0  0  0  0  0  0  0  0  0  0  0  0
   19.9786  -11.3616  -23.1537 O   0  0  0  0  0  0  0  0  0  0  0  0
   22.0291  -12.5526  -19.0472 C   0  0  0  0  0  0  0  0  0  0  0  0
   21.8598  -13.0068  -17.8938 O   0  0  0  0  0  0  0  0  0  0  0  0
   20.5031  -13.3822  -23.9609 O   0  0  0  0  0  0  0  0  0  0  0  0
   26.8947  -10.3182  -14.6086 C   0  0  0  0  0  0  0  0  0  0  0  0
   26.0175  -11.0131  -16.0223 S   0  0  0  0  0  0  0  0  0  0  0  0
   25.6203   -9.7552  -17.2526 C   0  0  0  0  0  0  0  0  0  0  0  0
   24.8816  -10.3173  -18.4399 C   0  0  0  0  0  0  0  0  0  0  0  0
   23.4628  -10.7084  -18.1077 C   0  0  2  0  0  0  0  0  0  0  0  0
   22.8148  -11.3948  -19.1917 N   0  0  0  0  0  0  0  0  0  0  0  0
   22.7498   -9.4658  -17.7122 C   0  0  0  0  0  0  0  0  0  0  0  0
   22.6051   -8.5667  -18.5749 O   0  0  0  0  0  0  0  0  0  0  0  0
   21.0647   -8.2415  -14.5915 C   0  0  0  0  0  0  0  0  0  0  0  0
   21.5367   -8.0200  -16.0129 C   0  0  2  0  0  0  0  0  0  0  0  0
   22.2224   -9.2326  -16.4186 N   0  0  0  0  0  0  0  0  0  0  0  0
   22.4405   -6.8347  -16.0495 C   0  0  0  0  0  0  0  0  0  0  0  0
   21.9513   -5.5532  -16.2068 O   0  0  0  0  0  0  0  0  0  0  0  0
   23.6766   -6.9837  -15.9360 O   0  0  0  0  0  0  0  0  0  0  0  0
  2  1  1  1
  2  7  1  0
  3  2  1  0
  4  3  1  0
  4  5  1  0
  5  6  2  0
  7  8  2  0
  9  5  1  0
 10 11  1  0
 11 12  1  0
 12 13  1  0
 14 13  1  6
 14 16  1  0
 15  7  1  0
 15 14  1  0
 16 17  2  0
 19 18  1  1
 19 21  1  0
 20 19  1  0
 20 16  1  0
 21 22  1  0
 23 21  2  0
M  END
$$$$
