EMA.pdb
     RDKit          3D

 23 22  0  0  1  0  0  0  0  0999 V2000
   18.8967  -11.9440  -18.4463 N   0  0  0  0  0  0  0  0  0  0  0  0
   19.1646  -10.5421  -18.5733 C   0  0  1  0  0  0  0  0  0  0  0  0
   17.9465   -9.6984  -18.4381 C   0  0  0  0  0  0  0  0  0  0  0  0
   16.9740   -9.7702  -19.5622 C   0  0  0  0  0  0  0  0  0  0  0  0
   15.7783   -8.9315  -19.4782 C   0  0  0  0  0  0  0  0  0  0  0  0
   14.8137   -9.0842  -20.2457 O   0  0  0  0  0  0  0  0  0  0  0  0
   20.1915  -10.1870  -17.5270 C   0  0  0  0  0  0  0  0  0  0  0  0
   20.0174  -10.5898  -16.3554 O   0  0  0  0  0  0  0  0  0  0  0  0
   15.6501   -7.9115  -18.5326 O   0  0  0  0  0  0  0  0  0  0  0  0
   27.0745   -9.8531  -14.7232 C   0  0  0  0  0  0  0  0  0  0  0  0
   25.9375  -10.1744  -16.0852 S   0  0  0  0  0  0  0  0  0  0  0  0
   24.7786   -8.8139  -16.3297 C   0  0  0  0  0  0  0  0  0  0  0  0
   23.7336   -9.1216  -17.3713 C   0  0  0  0  0  0  0  0  0  0  0  0
   22.3306   -9.0632  -16.8197 C   0  0  2  0  0  0  0  0  0  0  0  0
   21.3410   -9.4230  -17.7981 N   0  0  0  0  0  0  0  0  0  0  0  0
   22.1303   -7.6915  -16.2836 C   0  0  0  0  0  0  0  0  0  0  0  0
   22.0941   -6.7377  -17.0976 O   0  0  0  0  0  0  0  0  0  0  0  0
   21.6923   -6.2080  -12.8643 C   0  0  0  0  0  0  0  0  0  0  0  0
   21.7809   -6.0606  -14.3686 C   0  0  2  0  0  0  0  0  0  0  0  0
   21.9775   -7.3933  -14.9075 N   0  0  0  0  0  0  0  0  0  0  0  0
   22.9161   -5.1545  -14.7057 C   0  0  0  0  0  0  0  0  0  0  0  0
   24.0884   -5.6332  -15.2560 O   0  0  0  0  0  0  0  0  0  0  0  0
   22.8238   -3.9261  -14.4928 O   0  0  0  0  0  0  0  0  0  0  0  0
  2  1  1  1
  2  7  1  0
  3  2  1  0
  4  3  1  0
  4  5  1  0
  5  6  2  0
  7  8  2  0
  9  5  1  0
 10 11  1  0
 11 12  1  0
 12 13  1  0
 14 13  1  6
 14 16  1  0
 15  7  1  0
 15 14  1  0
 16 17  2  0
 19 18  1  1
 19 21  1  0
 20 19  1  0
 20 16  1  0
 21 22  1  0
 23 21  2  0
M  END
$$$$
