EMA.pdb
     RDKit          3D

 23 22  0  0  1  0  0  0  0  0999 V2000
   20.6209  -20.1491  -11.9981 N   0  0  0  0  0  0  0  0  0  0  0  0
   21.4609  -21.1211  -12.6329 C   0  0  1  0  0  0  0  0  0  0  0  0
   21.1234  -21.3408  -14.0653 C   0  0  0  0  0  0  0  0  0  0  0  0
   20.1546  -20.3821  -14.6627 C   0  0  0  0  0  0  0  0  0  0  0  0
   19.0268  -20.9368  -15.4114 C   0  0  0  0  0  0  0  0  0  0  0  0
   18.8548  -22.1613  -15.5286 O   0  0  0  0  0  0  0  0  0  0  0  0
   22.8856  -20.6513  -12.4754 C   0  0  0  0  0  0  0  0  0  0  0  0
   23.1986  -19.5259  -12.9234 O   0  0  0  0  0  0  0  0  0  0  0  0
   18.0785  -20.1248  -16.0378 O   0  0  0  0  0  0  0  0  0  0  0  0
   29.0573  -19.7990   -8.3774 C   0  0  0  0  0  0  0  0  0  0  0  0
   27.4637  -20.5799   -8.6962 S   0  0  0  0  0  0  0  0  0  0  0  0
   27.3628  -21.2447  -10.3700 C   0  0  0  0  0  0  0  0  0  0  0  0
   26.0052  -21.8176  -10.6862 C   0  0  0  0  0  0  0  0  0  0  0  0
   25.2603  -21.0077  -11.7184 C   0  0  2  0  0  0  0  0  0  0  0  0
   23.8876  -21.4139  -11.8485 N   0  0  0  0  0  0  0  0  0  0  0  0
   26.0141  -21.1284  -12.9936 C   0  0  0  0  0  0  0  0  0  0  0  0
   26.0123  -22.2378  -13.5791 O   0  0  0  0  0  0  0  0  0  0  0  0
   28.1112  -18.8190  -15.0787 C   0  0  0  0  0  0  0  0  0  0  0  0
   27.4034  -20.1421  -14.8768 C   0  0  2  0  0  0  0  0  0  0  0  0
   26.7364  -20.0664  -13.5905 N   0  0  0  0  0  0  0  0  0  0  0  0
   28.4063  -21.2447  -14.9158 C   0  0  0  0  0  0  0  0  0  0  0  0
   28.9022  -21.7332  -16.1081 O   0  0  0  0  0  0  0  0  0  0  0  0
   28.8222  -21.7533  -13.8522 O   0  0  0  0  0  0  0  0  0  0  0  0
  2  1  1  6
  2  7  1  0
  3  2  1  0
  4  3  1  0
  4  5  1  0
  5  6  2  0
  7  8  2  0
  9  5  1  0
 10 11  1  0
 11 12  1  0
 12 13  1  0
 14 13  1  1
 14 16  1  0
 15  7  1  0
 15 14  1  0
 16 17  2  0
 19 18  1  1
 19 21  1  0
 20 19  1  0
 20 16  1  0
 21 22  1  0
 23 21  2  0
M  END
$$$$
