ISQ.pdb
     RDKit          3D

 24 23  0  0  1  0  0  0  0  0999 V2000
   17.3997  -11.8949  -19.8711 C   0  0  0  0  0  0  0  0  0  0  0  0
   17.4123  -12.0910  -18.3720 C   0  0  0  0  0  0  0  0  0  0  0  0
   17.6479  -10.7653  -17.6625 C   0  0  2  0  0  0  0  0  0  0  0  0
   19.0356  -10.2400  -17.9486 C   0  0  0  0  0  0  0  0  0  0  0  0
   17.5082  -10.9488  -16.1602 C   0  0  2  0  0  0  0  0  0  0  0  0
   16.2644  -11.5961  -15.8146 N   0  0  0  0  0  0  0  0  0  0  0  0
   17.6691   -9.6473  -15.4700 C   0  0  0  0  0  0  0  0  0  0  0  0
   16.9947   -8.6459  -15.8066 O   0  0  0  0  0  0  0  0  0  0  0  0
   17.6865   -8.8619  -11.6034 O   0  0  0  0  0  0  0  0  0  0  0  0
   18.8315   -8.3922  -12.2140 C   0  0  0  0  0  0  0  0  0  0  0  0
   18.6730   -8.2260  -13.7072 C   0  0  2  0  0  0  0  0  0  0  0  0
   18.5922   -9.4876  -14.4035 N   0  0  0  0  0  0  0  0  0  0  0  0
   19.8078   -7.3963  -14.2012 C   0  0  0  0  0  0  0  0  0  0  0  0
   20.8471   -7.8479  -14.7021 O   0  0  0  0  0  0  0  0  0  0  0  0
   18.4732   -1.5971  -15.6466 N   0  0  0  0  0  0  0  0  0  0  0  0
   19.8869   -1.5109  -15.6329 C   0  0  0  0  0  0  0  0  0  0  0  0
   20.3854   -0.3577  -15.8838 O   0  0  0  0  0  0  0  0  0  0  0  0
   20.7961   -2.6444  -15.3464 C   0  0  0  0  0  0  0  0  0  0  0  0
   20.0257   -3.8389  -14.9521 C   0  0  0  0  0  0  0  0  0  0  0  0
   20.7489   -5.0688  -14.5560 C   0  0  2  0  0  0  0  0  0  0  0  0
   19.6823   -5.9911  -14.0872 N   0  0  0  0  0  0  0  0  0  0  0  0
   21.8033   -5.0166  -13.5760 C   0  0  0  0  0  0  0  0  0  0  0  0
   23.1443   -4.7797  -13.8418 O   0  0  0  0  0  0  0  0  0  0  0  0
   21.5453   -5.2035  -12.3338 O   0  0  0  0  0  0  0  0  0  0  0  0
  1  2  1  0
  3  5  1  0
  3  2  1  0
  3  4  1  1
  5  7  1  0
  5  6  1  6
  7  8  2  0
 10  9  1  0
 11 10  1  1
 12 11  1  0
 12  7  1  0
 13 21  1  0
 13 11  1  0
 14 13  2  0
 16 17  2  0
 16 15  1  0
 18 16  1  0
 19 18  1  0
 20 21  1  0
 20 19  1  1
 22 20  1  0
 23 22  1  0
 24 22  2  0
M  END
$$$$
