ISQ.pdb
     RDKit          3D

 24 23  0  0  1  0  0  0  0  0999 V2000
   13.2677  -12.8921  -10.9486 C   0  0  0  0  0  0  0  0  0  0  0  0
   13.5445  -11.8826   -9.8576 C   0  0  0  0  0  0  0  0  0  0  0  0
   14.0633  -10.5818  -10.4534 C   0  0  2  0  0  0  0  0  0  0  0  0
   15.3876  -10.7978  -11.1486 C   0  0  0  0  0  0  0  0  0  0  0  0
   14.2647   -9.5515   -9.3542 C   0  0  2  0  0  0  0  0  0  0  0  0
   13.0428   -9.3015   -8.6263 N   0  0  0  0  0  0  0  0  0  0  0  0
   14.8405   -8.3084   -9.9193 C   0  0  0  0  0  0  0  0  0  0  0  0
   14.1100   -7.3421  -10.2410 O   0  0  0  0  0  0  0  0  0  0  0  0
   17.0850   -5.8176   -8.5345 O   0  0  0  0  0  0  0  0  0  0  0  0
   16.4662   -5.7431   -9.7657 C   0  0  0  0  0  0  0  0  0  0  0  0
   16.7682   -6.9331  -10.6460 C   0  0  2  0  0  0  0  0  0  0  0  0
   16.2391   -8.1673  -10.1168 N   0  0  0  0  0  0  0  0  0  0  0  0
   18.2446   -7.0033  -10.8349 C   0  0  0  0  0  0  0  0  0  0  0  0
   19.0484   -7.3941   -9.9769 O   0  0  0  0  0  0  0  0  0  0  0  0
   19.9811  -10.1651  -15.0757 N   0  0  0  0  0  0  0  0  0  0  0  0
   21.2539   -9.6488  -14.7301 C   0  0  0  0  0  0  0  0  0  0  0  0
   22.2650  -10.2554  -15.2313 O   0  0  0  0  0  0  0  0  0  0  0  0
   21.4763   -8.4766  -13.8527 C   0  0  0  0  0  0  0  0  0  0  0  0
   20.1951   -7.9836  -13.3131 C   0  0  0  0  0  0  0  0  0  0  0  0
   20.1881   -6.7818  -12.4481 C   0  0  2  0  0  0  0  0  0  0  0  0
   18.7590   -6.5927  -12.0879 N   0  0  0  0  0  0  0  0  0  0  0  0
   20.7333   -5.5348  -12.9200 C   0  0  0  0  0  0  0  0  0  0  0  0
   22.0581   -5.1374  -12.8100 O   0  0  0  0  0  0  0  0  0  0  0  0
   19.9785   -4.6721  -13.4949 O   0  0  0  0  0  0  0  0  0  0  0  0
  1  2  1  0
  3  5  1  0
  3  2  1  0
  3  4  1  1
  5  7  1  0
  5  6  1  6
  7  8  2  0
 10  9  1  0
 11 10  1  1
 12 11  1  0
 12  7  1  0
 13 21  1  0
 13 11  1  0
 14 13  2  0
 16 17  2  0
 16 15  1  0
 18 16  1  0
 19 18  1  0
 20 21  1  0
 20 19  1  6
 22 20  1  0
 23 22  1  0
 24 22  2  0
M  END
$$$$
