ISQ.pdb
     RDKit          3D

 24 23  0  0  1  0  0  0  0  0999 V2000
   21.1142  -28.5801  -13.3917 C   0  0  0  0  0  0  0  0  0  0  0  0
   19.9017  -28.6235  -12.4895 C   0  0  0  0  0  0  0  0  0  0  0  0
   20.1252  -27.7636  -11.2538 C   0  0  2  0  0  0  0  0  0  0  0  0
   21.1989  -28.3569  -10.3713 C   0  0  0  0  0  0  0  0  0  0  0  0
   18.8409  -27.6724  -10.4459 C   0  0  2  0  0  0  0  0  0  0  0  0
   17.7235  -27.2631  -11.2638 N   0  0  0  0  0  0  0  0  0  0  0  0
   19.0342  -26.7787   -9.2796 C   0  0  0  0  0  0  0  0  0  0  0  0
   20.0963  -26.1311   -9.1266 O   0  0  0  0  0  0  0  0  0  0  0  0
   17.6126  -23.3522   -7.0873 O   0  0  0  0  0  0  0  0  0  0  0  0
   18.4349  -24.2708   -7.7073 C   0  0  0  0  0  0  0  0  0  0  0  0
   18.2111  -25.6820   -7.2168 C   0  0  2  0  0  0  0  0  0  0  0  0
   18.0242  -26.6241   -8.2941 N   0  0  0  0  0  0  0  0  0  0  0  0
   17.0447  -25.6678   -6.2896 C   0  0  0  0  0  0  0  0  0  0  0  0
   15.8586  -25.6513   -6.6472 O   0  0  0  0  0  0  0  0  0  0  0  0
   18.1913  -29.6307   -1.4315 N   0  0  0  0  0  0  0  0  0  0  0  0
   18.2236  -28.2449   -1.7226 C   0  0  0  0  0  0  0  0  0  0  0  0
   18.6829  -27.4841   -0.7997 O   0  0  0  0  0  0  0  0  0  0  0  0
   17.7758  -27.6427   -2.9994 C   0  0  0  0  0  0  0  0  0  0  0  0
   16.8895  -26.4913   -2.7458 C   0  0  0  0  0  0  0  0  0  0  0  0
   16.2393  -25.8121   -3.8897 C   0  0  2  0  0  0  0  0  0  0  0  0
   17.3192  -25.6739   -4.9011 N   0  0  0  0  0  0  0  0  0  0  0  0
   15.5823  -24.5425   -3.7124 C   0  0  0  0  0  0  0  0  0  0  0  0
   14.4034  -24.3322   -3.0118 O   0  0  0  0  0  0  0  0  0  0  0  0
   16.0770  -23.4776   -4.2280 O   0  0  0  0  0  0  0  0  0  0  0  0
  1  2  1  0
  3  5  1  0
  3  2  1  0
  3  4  1  1
  5  7  1  0
  5  6  1  6
  7  8  2  0
 10  9  1  0
 11 10  1  6
 12 11  1  0
 12  7  1  0
 13 21  1  0
 13 11  1  0
 14 13  2  0
 16 17  2  0
 16 15  1  0
 18 16  1  0
 19 18  1  0
 20 21  1  0
 20 19  1  1
 22 20  1  0
 23 22  1  0
 24 22  2  0
M  END
$$$$
