ISQ.pdb
     RDKit          3D

 24 23  0  0  1  0  0  0  0  0999 V2000
   24.7420  -31.0217  -16.9828 C   0  0  0  0  0  0  0  0  0  0  0  0
   25.9190  -31.7666  -16.3948 C   0  0  0  0  0  0  0  0  0  0  0  0
   27.2125  -31.3435  -17.0761 C   0  0  2  0  0  0  0  0  0  0  0  0
   27.1401  -31.5832  -18.5664 C   0  0  0  0  0  0  0  0  0  0  0  0
   28.3781  -32.1453  -16.5205 C   0  0  2  0  0  0  0  0  0  0  0  0
   28.6378  -31.8216  -15.1374 N   0  0  0  0  0  0  0  0  0  0  0  0
   29.5774  -31.9584  -17.3708 C   0  0  0  0  0  0  0  0  0  0  0  0
   29.5310  -32.1455  -18.6092 O   0  0  0  0  0  0  0  0  0  0  0  0
   33.4113  -30.7806  -15.8408 O   0  0  0  0  0  0  0  0  0  0  0  0
   32.9659  -30.3876  -17.0864 C   0  0  0  0  0  0  0  0  0  0  0  0
   31.9576  -31.3453  -17.6769 C   0  0  2  0  0  0  0  0  0  0  0  0
   30.8212  -31.5613  -16.8138 N   0  0  0  0  0  0  0  0  0  0  0  0
   32.6620  -32.6208  -17.9891 C   0  0  0  0  0  0  0  0  0  0  0  0
   33.6643  -32.7154  -18.7112 O   0  0  0  0  0  0  0  0  0  0  0  0
   29.9705  -37.6668  -17.1080 N   0  0  0  0  0  0  0  0  0  0  0  0
   31.2438  -38.2305  -16.8490 C   0  0  0  0  0  0  0  0  0  0  0  0
   31.3024  -39.5102  -16.8312 O   0  0  0  0  0  0  0  0  0  0  0  0
   32.4780  -37.4471  -16.6109 C   0  0  0  0  0  0  0  0  0  0  0  0
   32.1794  -36.0027  -16.5961 C   0  0  0  0  0  0  0  0  0  0  0  0
   32.7974  -35.1250  -17.6160 C   0  0  2  0  0  0  0  0  0  0  0  0
   32.1431  -33.8060  -17.4154 N   0  0  0  0  0  0  0  0  0  0  0  0
   32.7511  -35.4766  -19.0121 C   0  0  0  0  0  0  0  0  0  0  0  0
   31.6823  -35.2529  -19.8680 O   0  0  0  0  0  0  0  0  0  0  0  0
   33.7508  -36.0546  -19.5699 O   0  0  0  0  0  0  0  0  0  0  0  0
  1  2  1  0
  3  5  1  0
  3  2  1  0
  3  4  1  6
  5  7  1  0
  5  6  1  1
  7  8  2  0
 10  9  1  0
 11 10  1  1
 12 11  1  0
 12  7  1  0
 13 21  1  0
 13 11  1  0
 14 13  2  0
 16 17  2  0
 16 15  1  0
 18 16  1  0
 19 18  1  0
 20 21  1  0
 20 19  1  1
 22 20  1  0
 23 22  1  0
 24 22  2  0
M  END
$$$$
