ISQ.pdb
     RDKit          3D

 24 23  0  0  1  0  0  0  0  0999 V2000
   28.0677  -17.7557  -17.2158 C   0  0  0  0  0  0  0  0  0  0  0  0
   28.4637  -18.8700  -16.2737 C   0  0  0  0  0  0  0  0  0  0  0  0
   27.2537  -19.3652  -15.4946 C   0  0  2  0  0  0  0  0  0  0  0  0
   26.7762  -18.3165  -14.5169 C   0  0  0  0  0  0  0  0  0  0  0  0
   27.6171  -20.6162  -14.7117 C   0  0  2  0  0  0  0  0  0  0  0  0
   28.0871  -21.6711  -15.5787 N   0  0  0  0  0  0  0  0  0  0  0  0
   26.4695  -21.0490  -13.8799 C   0  0  0  0  0  0  0  0  0  0  0  0
   25.4793  -21.6247  -14.3886 O   0  0  0  0  0  0  0  0  0  0  0  0
   25.9003  -19.7285   -9.8756 O   0  0  0  0  0  0  0  0  0  0  0  0
   25.4685  -20.9909  -10.2282 C   0  0  0  0  0  0  0  0  0  0  0  0
   25.2657  -21.1459  -11.7173 C   0  0  2  0  0  0  0  0  0  0  0  0
   26.4501  -20.8271  -12.4779 N   0  0  0  0  0  0  0  0  0  0  0  0
   24.1098  -20.2940  -12.1157 C   0  0  0  0  0  0  0  0  0  0  0  0
   24.1835  -19.0887  -12.3932 O   0  0  0  0  0  0  0  0  0  0  0  0
   22.9715  -19.7803  -16.8561 N   0  0  0  0  0  0  0  0  0  0  0  0
   21.6575  -19.3780  -16.5132 C   0  0  0  0  0  0  0  0  0  0  0  0
   20.9311  -18.9415  -17.4741 O   0  0  0  0  0  0  0  0  0  0  0  0
   21.0889  -19.4379  -15.1469 C   0  0  0  0  0  0  0  0  0  0  0  0
   22.0595  -20.0312  -14.2080 C   0  0  0  0  0  0  0  0  0  0  0  0
   21.6677  -20.2361  -12.7948 C   0  0  2  0  0  0  0  0  0  0  0  0
   22.8388  -20.9133  -12.1800 N   0  0  0  0  0  0  0  0  0  0  0  0
   20.4666  -20.9592  -12.4638 C   0  0  0  0  0  0  0  0  0  0  0  0
   20.4023  -22.2941  -12.0911 O   0  0  0  0  0  0  0  0  0  0  0  0
   19.3253  -20.3759  -12.5043 O   0  0  0  0  0  0  0  0  0  0  0  0
  1  2  1  0
  3  5  1  0
  3  2  1  0
  3  4  1  1
  5  7  1  0
  5  6  1  6
  7  8  2  0
 10  9  1  0
 11 10  1  1
 12 11  1  0
 12  7  1  0
 13 21  1  0
 13 11  1  0
 14 13  2  0
 16 17  2  0
 16 15  1  0
 18 16  1  0
 19 18  1  0
 20 21  1  0
 20 19  1  6
 22 20  1  0
 23 22  1  0
 24 22  2  0
M  END
$$$$
