ISQ.pdb
     RDKit          3D

 24 23  0  0  1  0  0  0  0  0999 V2000
   16.3043  -10.5456  -19.7624 C   0  0  0  0  0  0  0  0  0  0  0  0
   17.5633  -11.2752  -19.3519 C   0  0  0  0  0  0  0  0  0  0  0  0
   18.2911  -10.5090  -18.2567 C   0  0  2  0  0  0  0  0  0  0  0  0
   18.7809   -9.1737  -18.7674 C   0  0  0  0  0  0  0  0  0  0  0  0
   19.4933  -11.3057  -17.7770 C   0  0  2  0  0  0  0  0  0  0  0  0
   19.1159  -12.6278  -17.3353 N   0  0  0  0  0  0  0  0  0  0  0  0
   20.2177  -10.5531  -16.7258 C   0  0  0  0  0  0  0  0  0  0  0  0
   19.6573  -10.2372  -15.6501 O   0  0  0  0  0  0  0  0  0  0  0  0
   24.1815   -9.0274  -17.2617 O   0  0  0  0  0  0  0  0  0  0  0  0
   23.7164   -9.3560  -16.0047 C   0  0  0  0  0  0  0  0  0  0  0  0
   22.2089   -9.3253  -15.9114 C   0  0  2  0  0  0  0  0  0  0  0  0
   21.5715  -10.1629  -16.8990 N   0  0  0  0  0  0  0  0  0  0  0  0
   21.7692   -7.9062  -16.0268 C   0  0  0  0  0  0  0  0  0  0  0  0
   21.2390   -7.4107  -17.0310 O   0  0  0  0  0  0  0  0  0  0  0  0
   18.1425   -5.1893  -17.0983 N   0  0  0  0  0  0  0  0  0  0  0  0
   18.3241   -4.2735  -16.0332 C   0  0  0  0  0  0  0  0  0  0  0  0
   17.5181   -3.2783  -15.9998 O   0  0  0  0  0  0  0  0  0  0  0  0
   19.3592   -4.4008  -14.9816 C   0  0  0  0  0  0  0  0  0  0  0  0
   20.1305   -5.6450  -15.1626 C   0  0  0  0  0  0  0  0  0  0  0  0
   21.5904   -5.6343  -14.9154 C   0  0  2  0  0  0  0  0  0  0  0  0
   21.9748   -7.0696  -14.9038 N   0  0  0  0  0  0  0  0  0  0  0  0
   22.1328   -4.9827  -13.7508 C   0  0  0  0  0  0  0  0  0  0  0  0
   22.5196   -3.6525  -13.6741 O   0  0  0  0  0  0  0  0  0  0  0  0
   22.3030   -5.6366  -12.6608 O   0  0  0  0  0  0  0  0  0  0  0  0
  1  2  1  0
  3  5  1  0
  3  2  1  0
  3  4  1  6
  5  7  1  0
  5  6  1  1
  7  8  2  0
 10  9  1  0
 11 10  1  6
 12 11  1  0
 12  7  1  0
 13 21  1  0
 13 11  1  0
 14 13  2  0
 16 17  2  0
 16 15  1  0
 18 16  1  0
 19 18  1  0
 20 21  1  0
 20 19  1  1
 22 20  1  0
 23 22  1  0
 24 22  2  0
M  END
$$$$
