ISQ.pdb
     RDKit          3D

 24 23  0  0  1  0  0  0  0  0999 V2000
   17.0539  -12.5226  -19.2577 C   0  0  0  0  0  0  0  0  0  0  0  0
   17.8903  -12.6403  -18.0037 C   0  0  0  0  0  0  0  0  0  0  0  0
   17.9309  -11.3114  -17.2628 C   0  0  2  0  0  0  0  0  0  0  0  0
   18.6334  -10.2566  -18.0859 C   0  0  0  0  0  0  0  0  0  0  0  0
   18.6824  -11.4712  -15.9514 C   0  0  2  0  0  0  0  0  0  0  0  0
   18.1002  -12.5019  -15.1244 N   0  0  0  0  0  0  0  0  0  0  0  0
   18.7610  -10.1700  -15.2465 C   0  0  0  0  0  0  0  0  0  0  0  0
   17.7347   -9.6185  -14.7846 O   0  0  0  0  0  0  0  0  0  0  0  0
   22.3677   -7.9492  -15.0625 O   0  0  0  0  0  0  0  0  0  0  0  0
   21.3981   -7.7199  -14.1076 C   0  0  0  0  0  0  0  0  0  0  0  0
   20.0217   -8.1531  -14.5548 C   0  0  2  0  0  0  0  0  0  0  0  0
   20.0007   -9.5014  -15.0693 N   0  0  0  0  0  0  0  0  0  0  0  0
   19.5353   -7.1711  -15.5646 C   0  0  0  0  0  0  0  0  0  0  0  0
   19.4382   -7.3964  -16.7790 O   0  0  0  0  0  0  0  0  0  0  0  0
   16.7536   -6.0443  -19.2871 N   0  0  0  0  0  0  0  0  0  0  0  0
   16.0705   -5.0240  -18.5811 C   0  0  0  0  0  0  0  0  0  0  0  0
   15.1398   -4.4196  -19.2213 O   0  0  0  0  0  0  0  0  0  0  0  0
   16.3579   -4.6316  -17.1823 C   0  0  0  0  0  0  0  0  0  0  0  0
   17.4171   -5.4856  -16.6125 C   0  0  0  0  0  0  0  0  0  0  0  0
   18.6102   -4.8520  -16.0061 C   0  0  2  0  0  0  0  0  0  0  0  0
   19.1584   -5.8901  -15.0951 N   0  0  0  0  0  0  0  0  0  0  0  0
   18.4976   -3.6027  -15.2978 C   0  0  0  0  0  0  0  0  0  0  0  0
   18.5539   -2.3401  -15.8699 O   0  0  0  0  0  0  0  0  0  0  0  0
   18.3362   -3.5897  -14.0256 O   0  0  0  0  0  0  0  0  0  0  0  0
  1  2  1  0
  3  5  1  0
  3  2  1  0
  3  4  1  6
  5  7  1  0
  5  6  1  1
  7  8  2  0
 10  9  1  0
 11 10  1  6
 12 11  1  0
 12  7  1  0
 13 21  1  0
 13 11  1  0
 14 13  2  0
 16 17  2  0
 16 15  1  0
 18 16  1  0
 19 18  1  0
 20 21  1  0
 20 19  1  1
 22 20  1  0
 23 22  1  0
 24 22  2  0
M  END
$$$$
