ISQ.pdb
     RDKit          3D

 24 23  0  0  1  0  0  0  0  0999 V2000
   20.8197  -14.5350  -16.2754 C   0  0  0  0  0  0  0  0  0  0  0  0
   22.1602  -13.8429  -16.3762 C   0  0  0  0  0  0  0  0  0  0  0  0
   22.0313  -12.3733  -16.0020 C   0  0  2  0  0  0  0  0  0  0  0  0
   21.0725  -11.6631  -16.9293 C   0  0  0  0  0  0  0  0  0  0  0  0
   23.3858  -11.6912  -16.1037 C   0  0  2  0  0  0  0  0  0  0  0  0
   24.3567  -12.2982  -15.2238 N   0  0  0  0  0  0  0  0  0  0  0  0
   23.2444  -10.2366  -15.8580 C   0  0  0  0  0  0  0  0  0  0  0  0
   22.7456   -9.8033  -14.7930 O   0  0  0  0  0  0  0  0  0  0  0  0
   23.8402   -5.6465  -17.3605 O   0  0  0  0  0  0  0  0  0  0  0  0
   24.0682   -6.9854  -17.6049 C   0  0  0  0  0  0  0  0  0  0  0  0
   23.3305   -7.8897  -16.6454 C   0  0  2  0  0  0  0  0  0  0  0  0
   23.6682   -9.2821  -16.8194 N   0  0  0  0  0  0  0  0  0  0  0  0
   21.8698   -7.6517  -16.8190 C   0  0  0  0  0  0  0  0  0  0  0  0
   21.1522   -8.2362  -17.6428 O   0  0  0  0  0  0  0  0  0  0  0  0
   18.0917   -9.3398  -13.5411 N   0  0  0  0  0  0  0  0  0  0  0  0
   17.2423   -8.3661  -14.1212 C   0  0  0  0  0  0  0  0  0  0  0  0
   16.0095   -8.4135  -13.7758 O   0  0  0  0  0  0  0  0  0  0  0  0
   17.6866   -7.3213  -15.0723 C   0  0  0  0  0  0  0  0  0  0  0  0
   19.1412   -7.4128  -15.2991 C   0  0  0  0  0  0  0  0  0  0  0  0
   19.8203   -6.3544  -16.0808 C   0  0  2  0  0  0  0  0  0  0  0  0
   21.2649   -6.6870  -15.9784 N   0  0  0  0  0  0  0  0  0  0  0  0
   19.6238   -4.9641  -15.7590 C   0  0  0  0  0  0  0  0  0  0  0  0
   18.4590   -4.2409  -15.9715 O   0  0  0  0  0  0  0  0  0  0  0  0
   20.5721   -4.2786  -15.2341 O   0  0  0  0  0  0  0  0  0  0  0  0
  1  2  1  0
  3  5  1  0
  3  2  1  0
  3  4  1  6
  5  7  1  0
  5  6  1  1
  7  8  2  0
 10  9  1  0
 11 10  1  6
 12 11  1  0
 12  7  1  0
 13 21  1  0
 13 11  1  0
 14 13  2  0
 16 17  2  0
 16 15  1  0
 18 16  1  0
 19 18  1  0
 20 21  1  0
 20 19  1  1
 22 20  1  0
 23 22  1  0
 24 22  2  0
M  END
$$$$
