ISQ.pdb
     RDKit          3D

 24 23  0  0  1  0  0  0  0  0999 V2000
   23.8311  -24.8073  -13.2470 C   0  0  0  0  0  0  0  0  0  0  0  0
   24.8260  -23.7959  -12.7243 C   0  0  0  0  0  0  0  0  0  0  0  0
   24.5901  -22.4354  -13.3643 C   0  0  2  0  0  0  0  0  0  0  0  0
   24.8024  -22.4988  -14.8591 C   0  0  0  0  0  0  0  0  0  0  0  0
   25.5590  -21.4158  -12.7882 C   0  0  2  0  0  0  0  0  0  0  0  0
   25.4441  -21.3222  -11.3517 N   0  0  0  0  0  0  0  0  0  0  0  0
   25.3704  -20.1027  -13.4486 C   0  0  0  0  0  0  0  0  0  0  0  0
   24.4295  -19.3413  -13.1234 O   0  0  0  0  0  0  0  0  0  0  0  0
   27.8184  -18.7887  -16.6731 O   0  0  0  0  0  0  0  0  0  0  0  0
   27.1999  -17.8632  -15.8574 C   0  0  0  0  0  0  0  0  0  0  0  0
   25.9805  -18.4194  -15.1603 C   0  0  2  0  0  0  0  0  0  0  0  0
   26.2479  -19.6600  -14.4729 N   0  0  0  0  0  0  0  0  0  0  0  0
   24.9004  -18.5742  -16.1752 C   0  0  0  0  0  0  0  0  0  0  0  0
   24.3774  -19.6520  -16.4909 O   0  0  0  0  0  0  0  0  0  0  0  0
   19.2996  -17.1348  -15.8396 N   0  0  0  0  0  0  0  0  0  0  0  0
   19.9816  -18.3484  -16.1006 C   0  0  0  0  0  0  0  0  0  0  0  0
   19.2688  -19.3105  -16.5566 O   0  0  0  0  0  0  0  0  0  0  0  0
   21.4319  -18.5608  -15.8891 C   0  0  0  0  0  0  0  0  0  0  0  0
   22.1851  -17.3299  -16.1942 C   0  0  0  0  0  0  0  0  0  0  0  0
   23.0707  -17.2981  -17.3805 C   0  0  2  0  0  0  0  0  0  0  0  0
   24.4435  -17.4005  -16.8210 N   0  0  0  0  0  0  0  0  0  0  0  0
   23.0122  -16.1999  -18.3108 C   0  0  0  0  0  0  0  0  0  0  0  0
   22.1304  -16.0877  -19.3761 O   0  0  0  0  0  0  0  0  0  0  0  0
   23.8232  -15.2125  -18.2018 O   0  0  0  0  0  0  0  0  0  0  0  0
  1  2  1  0
  3  5  1  0
  3  2  1  0
  3  4  1  6
  5  7  1  0
  5  6  1  1
  7  8  2  0
 10  9  1  0
 11 10  1  6
 12 11  1  0
 12  7  1  0
 13 21  1  0
 13 11  1  0
 14 13  2  0
 16 17  2  0
 16 15  1  0
 18 16  1  0
 19 18  1  0
 20 21  1  0
 20 19  1  1
 22 20  1  0
 23 22  1  0
 24 22  2  0
M  END
$$$$
