ISQ.pdb
     RDKit          3D

 24 23  0  0  1  0  0  0  0  0999 V2000
   19.5213  -13.1870  -18.3743 C   0  0  0  0  0  0  0  0  0  0  0  0
   18.3285  -12.6347  -17.6274 C   0  0  0  0  0  0  0  0  0  0  0  0
   18.6716  -11.2964  -16.9890 C   0  0  2  0  0  0  0  0  0  0  0  0
   19.7917  -11.4490  -15.9862 C   0  0  0  0  0  0  0  0  0  0  0  0
   17.4565  -10.7399  -16.2651 C   0  0  2  0  0  0  0  0  0  0  0  0
   16.3095  -10.6507  -17.1379 N   0  0  0  0  0  0  0  0  0  0  0  0
   17.7859   -9.4357  -15.6433 C   0  0  0  0  0  0  0  0  0  0  0  0
   18.1082   -8.4462  -16.3418 O   0  0  0  0  0  0  0  0  0  0  0  0
   18.1489   -8.8485  -11.4138 O   0  0  0  0  0  0  0  0  0  0  0  0
   17.6572   -7.8457  -12.2245 C   0  0  0  0  0  0  0  0  0  0  0  0
   18.1019   -7.9836  -13.6617 C   0  0  2  0  0  0  0  0  0  0  0  0
   17.7485   -9.2600  -14.2352 N   0  0  0  0  0  0  0  0  0  0  0  0
   19.5719   -7.7448  -13.7138 C   0  0  0  0  0  0  0  0  0  0  0  0
   20.4286   -8.6342  -13.8131 O   0  0  0  0  0  0  0  0  0  0  0  0
   22.2522   -7.5862  -17.7386 N   0  0  0  0  0  0  0  0  0  0  0  0
   23.2958   -6.9370  -17.0345 C   0  0  0  0  0  0  0  0  0  0  0  0
   24.4261   -6.8707  -17.6340 O   0  0  0  0  0  0  0  0  0  0  0  0
   23.1570   -6.3412  -15.6858 C   0  0  0  0  0  0  0  0  0  0  0  0
   21.7909   -6.5449  -15.1681 C   0  0  0  0  0  0  0  0  0  0  0  0
   21.4442   -6.0383  -13.8206 C   0  0  2  0  0  0  0  0  0  0  0  0
   20.0142   -6.4021  -13.6446 N   0  0  0  0  0  0  0  0  0  0  0  0
   21.6305   -4.6491  -13.4885 C   0  0  0  0  0  0  0  0  0  0  0  0
   22.8001   -4.0830  -13.0021 O   0  0  0  0  0  0  0  0  0  0  0  0
   20.6675   -3.8135  -13.6265 O   0  0  0  0  0  0  0  0  0  0  0  0
  1  2  1  0
  3  5  1  0
  3  2  1  0
  3  4  1  1
  5  7  1  0
  5  6  1  6
  7  8  2  0
 10  9  1  0
 11 10  1  1
 12 11  1  0
 12  7  1  0
 13 21  1  0
 13 11  1  0
 14 13  2  0
 16 17  2  0
 16 15  1  0
 18 16  1  0
 19 18  1  0
 20 21  1  0
 20 19  1  6
 22 20  1  0
 23 22  1  0
 24 22  2  0
M  END
$$$$
