ISQ.pdb
     RDKit          3D

 24 23  0  0  1  0  0  0  0  0999 V2000
   11.1438   -9.3678   -9.3657 C   0  0  0  0  0  0  0  0  0  0  0  0
   12.6338   -9.6092   -9.2799 C   0  0  0  0  0  0  0  0  0  0  0  0
   13.4012   -8.3681   -9.7124 C   0  0  2  0  0  0  0  0  0  0  0  0
   13.0735   -8.0025  -11.1416 C   0  0  0  0  0  0  0  0  0  0  0  0
   14.8966   -8.6229   -9.6166 C   0  0  2  0  0  0  0  0  0  0  0  0
   15.3070   -8.8891   -8.2580 N   0  0  0  0  0  0  0  0  0  0  0  0
   15.6461   -7.4922  -10.2133 C   0  0  0  0  0  0  0  0  0  0  0  0
   15.6453   -7.2934  -11.4507 O   0  0  0  0  0  0  0  0  0  0  0  0
   15.9475   -3.8338   -8.7640 O   0  0  0  0  0  0  0  0  0  0  0  0
   17.1935   -4.2822   -9.1525 C   0  0  0  0  0  0  0  0  0  0  0  0
   17.1271   -5.5160  -10.0219 C   0  0  2  0  0  0  0  0  0  0  0  0
   16.3917   -6.5941   -9.4055 N   0  0  0  0  0  0  0  0  0  0  0  0
   18.5221   -5.9207  -10.3543 C   0  0  0  0  0  0  0  0  0  0  0  0
   19.2844   -6.5238   -9.5860 O   0  0  0  0  0  0  0  0  0  0  0  0
   21.4349   -9.5766  -15.3904 N   0  0  0  0  0  0  0  0  0  0  0  0
   20.9164   -9.1404  -14.1466 C   0  0  0  0  0  0  0  0  0  0  0  0
   20.0290   -9.8921  -13.6093 O   0  0  0  0  0  0  0  0  0  0  0  0
   21.3348   -7.9032  -13.4481 C   0  0  0  0  0  0  0  0  0  0  0  0
   20.1759   -7.2535  -12.8075 C   0  0  0  0  0  0  0  0  0  0  0  0
   20.3686   -5.9720  -12.0911 C   0  0  2  0  0  0  0  0  0  0  0  0
   19.0046   -5.5892  -11.6429 N   0  0  0  0  0  0  0  0  0  0  0  0
   20.9907   -4.8508  -12.7475 C   0  0  0  0  0  0  0  0  0  0  0  0
   22.3565   -4.6363  -12.8630 O   0  0  0  0  0  0  0  0  0  0  0  0
   20.2738   -3.9339  -13.2860 O   0  0  0  0  0  0  0  0  0  0  0  0
  1  2  1  0
  3  5  1  0
  3  2  1  0
  3  4  1  6
  5  7  1  0
  5  6  1  1
  7  8  2  0
 10  9  1  0
 11 10  1  1
 12 11  1  0
 12  7  1  0
 13 21  1  0
 13 11  1  0
 14 13  2  0
 16 17  2  0
 16 15  1  0
 18 16  1  0
 19 18  1  0
 20 21  1  0
 20 19  1  6
 22 20  1  0
 23 22  1  0
 24 22  2  0
M  END
$$$$
