ISQ.pdb
     RDKit          3D

 24 23  0  0  1  0  0  0  0  0999 V2000
   17.0287  -12.7711  -19.8794 C   0  0  0  0  0  0  0  0  0  0  0  0
   18.2109  -12.8377  -18.9394 C   0  0  0  0  0  0  0  0  0  0  0  0
   18.2880  -11.5779  -18.0889 C   0  0  2  0  0  0  0  0  0  0  0  0
   18.5464  -10.3623  -18.9486 C   0  0  0  0  0  0  0  0  0  0  0  0
   19.4207  -11.6996  -17.0827 C   0  0  2  0  0  0  0  0  0  0  0  0
   19.2942  -12.8918  -16.2778 N   0  0  0  0  0  0  0  0  0  0  0  0
   19.5004  -10.4738  -16.2535 C   0  0  0  0  0  0  0  0  0  0  0  0
   18.5441  -10.1190  -15.5254 O   0  0  0  0  0  0  0  0  0  0  0  0
   22.5752   -8.8510  -14.1100 O   0  0  0  0  0  0  0  0  0  0  0  0
   22.0526   -8.0094  -15.0708 C   0  0  0  0  0  0  0  0  0  0  0  0
   20.6679   -8.4174  -15.5163 C   0  0  2  0  0  0  0  0  0  0  0  0
   20.6620   -9.6578  -16.2542 N   0  0  0  0  0  0  0  0  0  0  0  0
   20.0930   -7.2988  -16.3155 C   0  0  0  0  0  0  0  0  0  0  0  0
   19.8887   -7.3358  -17.5369 O   0  0  0  0  0  0  0  0  0  0  0  0
   17.2711   -5.6174  -19.6387 N   0  0  0  0  0  0  0  0  0  0  0  0
   16.5674   -4.7280  -18.7901 C   0  0  0  0  0  0  0  0  0  0  0  0
   15.6170   -4.0620  -19.3328 O   0  0  0  0  0  0  0  0  0  0  0  0
   16.8551   -4.5345  -17.3502 C   0  0  0  0  0  0  0  0  0  0  0  0
   17.8967   -5.4765  -16.8994 C   0  0  0  0  0  0  0  0  0  0  0  0
   19.1490   -4.9456  -16.3142 C   0  0  2  0  0  0  0  0  0  0  0  0
   19.7580   -6.1111  -15.6223 N   0  0  0  0  0  0  0  0  0  0  0  0
   19.1201   -3.8173  -15.4191 C   0  0  0  0  0  0  0  0  0  0  0  0
   19.2106   -3.8789  -14.0360 O   0  0  0  0  0  0  0  0  0  0  0  0
   18.9955   -2.6266  -15.8788 O   0  0  0  0  0  0  0  0  0  0  0  0
  1  2  1  0
  3  5  1  0
  3  2  1  0
  3  4  1  6
  5  7  1  0
  5  6  1  1
  7  8  2  0
 10  9  1  0
 11 10  1  6
 12 11  1  0
 12  7  1  0
 13 21  1  0
 13 11  1  0
 14 13  2  0
 16 17  2  0
 16 15  1  0
 18 16  1  0
 19 18  1  0
 20 21  1  0
 20 19  1  1
 22 20  1  0
 23 22  1  0
 24 22  2  0
M  END
$$$$
