ISQ.pdb
     RDKit          3D

 24 23  0  0  1  0  0  0  0  0999 V2000
   20.3633  -19.0885  -16.9264 C   0  0  0  0  0  0  0  0  0  0  0  0
   21.6994  -18.7240  -17.5329 C   0  0  0  0  0  0  0  0  0  0  0  0
   22.8198  -19.5097  -16.8669 C   0  0  2  0  0  0  0  0  0  0  0  0
   22.8578  -19.2396  -15.3805 C   0  0  0  0  0  0  0  0  0  0  0  0
   24.1601  -19.1056  -17.4590 C   0  0  2  0  0  0  0  0  0  0  0  0
   24.2448  -19.4345  -18.8625 N   0  0  0  0  0  0  0  0  0  0  0  0
   25.2657  -19.7088  -16.6779 C   0  0  0  0  0  0  0  0  0  0  0  0
   25.5180  -20.9343  -16.7494 O   0  0  0  0  0  0  0  0  0  0  0  0
   28.5622  -18.1225  -16.5680 O   0  0  0  0  0  0  0  0  0  0  0  0
   28.4817  -18.7317  -15.3323 C   0  0  0  0  0  0  0  0  0  0  0  0
   27.2065  -19.5211  -15.1505 C   0  0  2  0  0  0  0  0  0  0  0  0
   26.0782  -18.9210  -15.8211 N   0  0  0  0  0  0  0  0  0  0  0  0
   26.9620  -19.6705  -13.6881 C   0  0  0  0  0  0  0  0  0  0  0  0
   27.8232  -19.5238  -12.8096 O   0  0  0  0  0  0  0  0  0  0  0  0
   20.6911  -20.2268   -9.7201 N   0  0  0  0  0  0  0  0  0  0  0  0
   21.6895  -19.8943  -10.6681 C   0  0  0  0  0  0  0  0  0  0  0  0
   21.2895  -19.2779  -11.7176 O   0  0  0  0  0  0  0  0  0  0  0  0
   23.1299  -20.2036  -10.5166 C   0  0  0  0  0  0  0  0  0  0  0  0
   23.8515  -19.9380  -11.7753 C   0  0  0  0  0  0  0  0  0  0  0  0
   25.3029  -20.2213  -11.8517 C   0  0  2  0  0  0  0  0  0  0  0  0
   25.6483  -20.0039  -13.2804 N   0  0  0  0  0  0  0  0  0  0  0  0
   25.8262  -21.4918  -11.4192 C   0  0  0  0  0  0  0  0  0  0  0  0
   25.9088  -22.6393  -12.1947 O   0  0  0  0  0  0  0  0  0  0  0  0
   26.2634  -21.6410  -10.2229 O   0  0  0  0  0  0  0  0  0  0  0  0
  1  2  1  0
  3  5  1  0
  3  2  1  0
  3  4  1  1
  5  7  1  0
  5  6  1  6
  7  8  2  0
 10  9  1  0
 11 10  1  1
 12 11  1  0
 12  7  1  0
 13 21  1  0
 13 11  1  0
 14 13  2  0
 16 17  2  0
 16 15  1  0
 18 16  1  0
 19 18  1  0
 20 21  1  0
 20 19  1  6
 22 20  1  0
 23 22  1  0
 24 22  2  0
M  END
$$$$
