ISQ.pdb
     RDKit          3D

 24 23  0  0  1  0  0  0  0  0999 V2000
   33.9038  -24.5368  -14.7016 C   0  0  0  0  0  0  0  0  0  0  0  0
   32.8043  -23.9384  -15.5494 C   0  0  0  0  0  0  0  0  0  0  0  0
   31.9383  -25.0353  -16.1521 C   0  0  2  0  0  0  0  0  0  0  0  0
   32.7856  -26.0488  -16.8859 C   0  0  0  0  0  0  0  0  0  0  0  0
   30.9521  -24.4340  -17.1401 C   0  0  2  0  0  0  0  0  0  0  0  0
   30.1575  -23.3916  -16.5339 N   0  0  0  0  0  0  0  0  0  0  0  0
   30.1119  -25.4998  -17.7352 C   0  0  0  0  0  0  0  0  0  0  0  0
   29.0219  -25.8342  -17.2148 O   0  0  0  0  0  0  0  0  0  0  0  0
   30.5403  -26.7272  -21.6996 O   0  0  0  0  0  0  0  0  0  0  0  0
   30.1725  -27.7145  -20.8082 C   0  0  0  0  0  0  0  0  0  0  0  0
   29.6342  -27.1605  -19.5099 C   0  0  2  0  0  0  0  0  0  0  0  0
   30.5111  -26.1804  -18.9153 N   0  0  0  0  0  0  0  0  0  0  0  0
   29.3836  -28.3052  -18.5895 C   0  0  0  0  0  0  0  0  0  0  0  0
   30.1937  -28.7296  -17.7536 O   0  0  0  0  0  0  0  0  0  0  0  0
   23.8098  -30.0267  -17.8487 N   0  0  0  0  0  0  0  0  0  0  0  0
   24.3683  -30.7728  -16.7820 C   0  0  0  0  0  0  0  0  0  0  0  0
   23.5773  -31.5852  -16.1856 O   0  0  0  0  0  0  0  0  0  0  0  0
   25.7765  -30.6751  -16.3339 C   0  0  0  0  0  0  0  0  0  0  0  0
   26.5131  -29.6936  -17.1523 C   0  0  0  0  0  0  0  0  0  0  0  0
   27.7721  -30.1032  -17.8154 C   0  0  2  0  0  0  0  0  0  0  0  0
   28.1268  -28.9495  -18.6822 N   0  0  0  0  0  0  0  0  0  0  0  0
   27.8341  -31.3191  -18.5854 C   0  0  0  0  0  0  0  0  0  0  0  0
   27.6830  -31.4143  -19.9612 O   0  0  0  0  0  0  0  0  0  0  0  0
   28.0378  -32.4450  -18.0062 O   0  0  0  0  0  0  0  0  0  0  0  0
  1  2  1  0
  3  5  1  0
  3  2  1  0
  3  4  1  6
  5  7  1  0
  5  6  1  1
  7  8  2  0
 10  9  1  0
 11 10  1  6
 12 11  1  0
 12  7  1  0
 13 21  1  0
 13 11  1  0
 14 13  2  0
 16 17  2  0
 16 15  1  0
 18 16  1  0
 19 18  1  0
 20 21  1  0
 20 19  1  6
 22 20  1  0
 23 22  1  0
 24 22  2  0
M  END
$$$$
