MIN.pdb
     RDKit          3D

 25 24  0  0  1  0  0  0  0  0999 V2000
    8.4233  -11.5495   19.5045 C   0  0  0  0  0  0  0  0  0  0  0  0
    7.3815  -12.8134   18.8050 S   0  0  0  0  0  0  0  0  0  0  0  0
    7.3172  -14.3487   19.7056 C   0  0  0  0  0  0  0  0  0  0  0  0
    8.1162  -14.2788   20.9596 C   0  0  0  0  0  0  0  0  0  0  0  0
    8.0900  -15.4847   21.8285 C   0  0  2  0  0  0  0  0  0  0  0  0
    6.7353  -15.8867   22.1741 N   0  0  0  0  0  0  0  0  0  0  0  0
    8.8250  -15.1089   23.0948 C   0  0  0  0  0  0  0  0  0  0  0  0
   10.0403  -14.8206   23.0327 O   0  0  0  0  0  0  0  0  0  0  0  0
    6.0792  -12.0193   26.0959 C   0  0  0  0  0  0  0  0  0  0  0  0
    7.2864  -12.6873   25.4319 C   0  0  0  0  0  0  0  0  0  0  0  0
    7.8136  -13.7996   26.2739 C   0  0  2  0  0  0  0  0  0  0  0  0
    8.2224  -13.3512   27.6565 C   0  0  0  0  0  0  0  0  0  0  0  0
    8.8470  -14.6196   25.5864 C   0  0  2  0  0  0  0  0  0  0  0  0
    8.1798  -15.0756   24.3336 N   0  0  0  0  0  0  0  0  0  0  0  0
    9.2971  -15.8298   26.2615 C   0  0  0  0  0  0  0  0  0  0  0  0
    9.9009  -15.7676   27.3949 O   0  0  0  0  0  0  0  0  0  0  0  0
    6.3561  -19.0161   25.9341 N   0  0  0  0  0  0  0  0  0  0  0  0
    7.3854  -19.2361   26.8803 C   0  0  0  0  0  0  0  0  0  0  0  0
    7.1140  -19.1617   28.1001 O   0  0  0  0  0  0  0  0  0  0  0  0
    8.7535  -19.5506   26.3883 C   0  0  0  0  0  0  0  0  0  0  0  0
    9.6437  -18.3301   26.4978 C   0  0  2  0  0  0  0  0  0  0  0  0
    9.1427  -17.1722   25.8008 N   0  0  0  0  0  0  0  0  0  0  0  0
   11.0615  -18.6000   26.2078 C   0  0  0  0  0  0  0  0  0  0  0  0
   11.4993  -18.3929   24.9067 O   0  0  0  0  0  0  0  0  0  0  0  0
   11.8783  -19.0062   27.0824 O   0  0  0  0  0  0  0  0  0  0  0  0
  1  2  1  0
  3  2  1  0
  4  5  1  0
  4  3  1  0
  5  6  1  1
  7  5  1  0
  8  7  2  0
  9 10  1  0
 10 11  1  0
 11 13  1  0
 11 12  1  1
 13 14  1  6
 14  7  1  0
 15 22  1  0
 15 13  1  0
 16 15  2  0
 17 18  1  0
 18 19  2  0
 18 20  1  0
 21 20  1  6
 21 23  1  0
 21 22  1  0
 23 24  1  0
 25 23  2  0
M  END
$$$$
