MIN.pdb
     RDKit          3D

 25 24  0  0  1  0  0  0  0  0999 V2000
    4.9780  -19.5479   22.9516 C   0  0  0  0  0  0  0  0  0  0  0  0
    5.1073  -19.2364   21.2029 S   0  0  0  0  0  0  0  0  0  0  0  0
    5.6423  -17.6000   20.7462 C   0  0  0  0  0  0  0  0  0  0  0  0
    6.4238  -16.9576   21.8382 C   0  0  0  0  0  0  0  0  0  0  0  0
    6.8235  -15.5424   21.6211 C   0  0  2  0  0  0  0  0  0  0  0  0
    7.5328  -15.3557   20.3648 N   0  0  0  0  0  0  0  0  0  0  0  0
    7.7493  -15.1853   22.7614 C   0  0  0  0  0  0  0  0  0  0  0  0
    8.9854  -15.2004   22.5719 O   0  0  0  0  0  0  0  0  0  0  0  0
    5.8290  -11.5983   26.1785 C   0  0  0  0  0  0  0  0  0  0  0  0
    6.7804  -12.4091   25.2942 C   0  0  0  0  0  0  0  0  0  0  0  0
    7.3020  -13.6020   26.0215 C   0  0  2  0  0  0  0  0  0  0  0  0
    7.9415  -13.2544   27.3443 C   0  0  0  0  0  0  0  0  0  0  0  0
    8.1410  -14.4893   25.1718 C   0  0  2  0  0  0  0  0  0  0  0  0
    7.2580  -14.8388   24.0226 N   0  0  0  0  0  0  0  0  0  0  0  0
    8.5666  -15.7581   25.7479 C   0  0  0  0  0  0  0  0  0  0  0  0
    7.7058  -16.6012   26.1963 O   0  0  0  0  0  0  0  0  0  0  0  0
   12.3177  -17.4330   23.5313 N   0  0  0  0  0  0  0  0  0  0  0  0
   11.3296  -18.1051   24.2898 C   0  0  0  0  0  0  0  0  0  0  0  0
   10.3696  -18.6438   23.6936 O   0  0  0  0  0  0  0  0  0  0  0  0
   11.4708  -18.1482   25.7699 C   0  0  0  0  0  0  0  0  0  0  0  0
   10.2658  -17.5115   26.4305 C   0  0  2  0  0  0  0  0  0  0  0  0
    9.9085  -16.2250   25.8875 N   0  0  0  0  0  0  0  0  0  0  0  0
   10.3240  -17.5123   27.9015 C   0  0  0  0  0  0  0  0  0  0  0  0
   10.2753  -16.2829   28.5446 O   0  0  0  0  0  0  0  0  0  0  0  0
   10.4160  -18.5702   28.5866 O   0  0  0  0  0  0  0  0  0  0  0  0
  1  2  1  0
  3  2  1  0
  4  5  1  0
  4  3  1  0
  5  6  1  6
  7  5  1  0
  8  7  2  0
  9 10  1  0
 10 11  1  0
 11 13  1  0
 11 12  1  1
 13 14  1  6
 14  7  1  0
 15 22  1  0
 15 13  1  0
 16 15  2  0
 17 18  1  0
 18 19  2  0
 18 20  1  0
 21 20  1  6
 21 23  1  0
 21 22  1  0
 23 24  1  0
 25 23  2  0
M  END
$$$$
