MIN.pdb
     RDKit          3D

 25 24  0  0  1  0  0  0  0  0999 V2000
    5.8098  -19.7134   22.0743 C   0  0  0  0  0  0  0  0  0  0  0  0
    5.2549  -18.9216   20.5786 S   0  0  0  0  0  0  0  0  0  0  0  0
    5.9761  -17.3302   20.2326 C   0  0  0  0  0  0  0  0  0  0  0  0
    6.2774  -16.5844   21.4851 C   0  0  0  0  0  0  0  0  0  0  0  0
    6.8218  -15.2108   21.3222 C   0  0  2  0  0  0  0  0  0  0  0  0
    7.6298  -15.0764   20.1199 N   0  0  0  0  0  0  0  0  0  0  0  0
    7.6969  -14.9575   22.5285 C   0  0  0  0  0  0  0  0  0  0  0  0
    8.9216  -15.2000   22.4561 O   0  0  0  0  0  0  0  0  0  0  0  0
    6.1583  -11.0757   25.8235 C   0  0  0  0  0  0  0  0  0  0  0  0
    7.0139  -12.0523   25.0120 C   0  0  0  0  0  0  0  0  0  0  0  0
    7.2572  -13.3115   25.7732 C   0  0  2  0  0  0  0  0  0  0  0  0
    7.8683  -13.0712   27.1327 C   0  0  0  0  0  0  0  0  0  0  0  0
    7.9657  -14.3516   24.9796 C   0  0  2  0  0  0  0  0  0  0  0  0
    7.1709  -14.4590   23.7229 N   0  0  0  0  0  0  0  0  0  0  0  0
    8.0156  -15.6973   25.5361 C   0  0  0  0  0  0  0  0  0  0  0  0
    7.1071  -16.5621   25.2542 O   0  0  0  0  0  0  0  0  0  0  0  0
   10.8841  -19.7807   24.8520 N   0  0  0  0  0  0  0  0  0  0  0  0
   11.3440  -18.4873   24.5071 C   0  0  0  0  0  0  0  0  0  0  0  0
   12.4997  -18.3581   24.0437 O   0  0  0  0  0  0  0  0  0  0  0  0
   10.4335  -17.3281   24.7065 C   0  0  0  0  0  0  0  0  0  0  0  0
    9.8477  -17.3553   26.1030 C   0  0  2  0  0  0  0  0  0  0  0  0
    9.0126  -16.2222   26.4128 N   0  0  0  0  0  0  0  0  0  0  0  0
   10.8353  -17.6398   27.1569 C   0  0  0  0  0  0  0  0  0  0  0  0
   10.7129  -18.8416   27.8411 O   0  0  0  0  0  0  0  0  0  0  0  0
   11.7713  -16.8453   27.4565 O   0  0  0  0  0  0  0  0  0  0  0  0
  1  2  1  0
  3  2  1  0
  4  5  1  0
  4  3  1  0
  5  6  1  6
  7  5  1  0
  8  7  2  0
  9 10  1  0
 10 11  1  0
 11 13  1  0
 11 12  1  1
 13 14  1  6
 14  7  1  0
 15 22  1  0
 15 13  1  0
 16 15  2  0
 17 18  1  0
 18 19  2  0
 18 20  1  0
 21 20  1  6
 21 23  1  0
 21 22  1  0
 23 24  1  0
 25 23  2  0
M  END
$$$$
