MIN.pdb
     RDKit          3D

 25 24  0  0  1  0  0  0  0  0999 V2000
   10.8641  -14.4562   29.1724 C   0  0  0  0  0  0  0  0  0  0  0  0
   10.9933  -16.1972   29.5252 S   0  0  0  0  0  0  0  0  0  0  0  0
    9.5974  -17.1907   29.0382 C   0  0  0  0  0  0  0  0  0  0  0  0
    8.9242  -16.6316   27.8340 C   0  0  0  0  0  0  0  0  0  0  0  0
    7.6027  -17.2157   27.4842 C   0  0  2  0  0  0  0  0  0  0  0  0
    7.6585  -18.6625   27.3438 N   0  0  0  0  0  0  0  0  0  0  0  0
    7.2126  -16.6114   26.1547 C   0  0  0  0  0  0  0  0  0  0  0  0
    6.7085  -17.3441   25.2755 O   0  0  0  0  0  0  0  0  0  0  0  0
    6.0224  -11.6527   26.5683 C   0  0  0  0  0  0  0  0  0  0  0  0
    5.7885  -12.9282   25.7541 C   0  0  0  0  0  0  0  0  0  0  0  0
    6.9362  -13.1988   24.8409 C   0  0  2  0  0  0  0  0  0  0  0  0
    6.9241  -12.3325   23.6044 C   0  0  0  0  0  0  0  0  0  0  0  0
    7.1290  -14.6450   24.5504 C   0  0  2  0  0  0  0  0  0  0  0  0
    7.4015  -15.2540   25.8836 N   0  0  0  0  0  0  0  0  0  0  0  0
    8.2587  -15.0117   23.7063 C   0  0  0  0  0  0  0  0  0  0  0  0
    9.4670  -14.8632   24.1196 O   0  0  0  0  0  0  0  0  0  0  0  0
    7.7062  -13.2208   19.3644 N   0  0  0  0  0  0  0  0  0  0  0  0
    8.0880  -14.5186   19.7807 C   0  0  0  0  0  0  0  0  0  0  0  0
    7.2925  -15.4695   19.6078 O   0  0  0  0  0  0  0  0  0  0  0  0
    9.4243  -14.7042   20.4072 C   0  0  0  0  0  0  0  0  0  0  0  0
    9.3420  -15.7211   21.5267 C   0  0  2  0  0  0  0  0  0  0  0  0
    8.1981  -15.5564   22.3881 N   0  0  0  0  0  0  0  0  0  0  0  0
   10.5991  -15.8852   22.2749 C   0  0  0  0  0  0  0  0  0  0  0  0
   11.1921  -14.7401   22.7891 O   0  0  0  0  0  0  0  0  0  0  0  0
   11.1480  -17.0081   22.4616 O   0  0  0  0  0  0  0  0  0  0  0  0
  1  2  1  0
  3  2  1  0
  4  5  1  0
  4  3  1  0
  5  6  1  6
  7  5  1  0
  8  7  2  0
  9 10  1  0
 10 11  1  0
 11 13  1  0
 11 12  1  6
 13 14  1  1
 14  7  1  0
 15 22  1  0
 15 13  1  0
 16 15  2  0
 17 18  1  0
 18 19  2  0
 18 20  1  0
 21 20  1  6
 21 23  1  0
 21 22  1  0
 23 24  1  0
 25 23  2  0
M  END
$$$$
