MIN.pdb
     RDKit          3D

 25 24  0  0  1  0  0  0  0  0999 V2000
    6.7136  -19.3775   21.7533 C   0  0  0  0  0  0  0  0  0  0  0  0
    6.4849  -18.7416   20.1055 S   0  0  0  0  0  0  0  0  0  0  0  0
    6.5962  -16.9719   19.9371 C   0  0  0  0  0  0  0  0  0  0  0  0
    7.1435  -16.3406   21.1690 C   0  0  0  0  0  0  0  0  0  0  0  0
    7.1897  -14.8549   21.1862 C   0  0  2  0  0  0  0  0  0  0  0  0
    7.7697  -14.3066   19.9700 N   0  0  0  0  0  0  0  0  0  0  0  0
    8.0642  -14.4730   22.3585 C   0  0  0  0  0  0  0  0  0  0  0  0
    9.2739  -14.2239   22.1622 O   0  0  0  0  0  0  0  0  0  0  0  0
    5.5587  -11.6425   26.1412 C   0  0  0  0  0  0  0  0  0  0  0  0
    6.6591  -12.1288   25.1941 C   0  0  0  0  0  0  0  0  0  0  0  0
    7.3471  -13.3318   25.7451 C   0  0  2  0  0  0  0  0  0  0  0  0
    7.8674  -13.1244   27.1472 C   0  0  0  0  0  0  0  0  0  0  0  0
    8.3563  -13.9095   24.8171 C   0  0  2  0  0  0  0  0  0  0  0  0
    7.5541  -14.3916   23.6567 N   0  0  0  0  0  0  0  0  0  0  0  0
    9.1116  -15.0636   25.2866 C   0  0  0  0  0  0  0  0  0  0  0  0
    9.9510  -14.9540   26.2543 O   0  0  0  0  0  0  0  0  0  0  0  0
   11.7413  -20.1290   24.5729 N   0  0  0  0  0  0  0  0  0  0  0  0
   11.9341  -18.7939   25.0014 C   0  0  0  0  0  0  0  0  0  0  0  0
   12.8022  -18.5555   25.8712 O   0  0  0  0  0  0  0  0  0  0  0  0
   11.0976  -17.7217   24.3986 C   0  0  0  0  0  0  0  0  0  0  0  0
    9.8613  -17.4851   25.2410 C   0  0  2  0  0  0  0  0  0  0  0  0
    9.0357  -16.3966   24.7812 N   0  0  0  0  0  0  0  0  0  0  0  0
   10.1294  -17.4248   26.6872 C   0  0  0  0  0  0  0  0  0  0  0  0
   10.1118  -18.6209   27.3918 O   0  0  0  0  0  0  0  0  0  0  0  0
   10.3693  -16.3452   27.2989 O   0  0  0  0  0  0  0  0  0  0  0  0
  1  2  1  0
  3  2  1  0
  4  5  1  0
  4  3  1  0
  5  6  1  6
  7  5  1  0
  8  7  2  0
  9 10  1  0
 10 11  1  0
 11 13  1  0
 11 12  1  1
 13 14  1  6
 14  7  1  0
 15 22  1  0
 15 13  1  0
 16 15  2  0
 17 18  1  0
 18 19  2  0
 18 20  1  0
 21 20  1  6
 21 23  1  0
 21 22  1  0
 23 24  1  0
 25 23  2  0
M  END
$$$$
