MIN.pdb
     RDKit          3D

 25 24  0  0  1  0  0  0  0  0999 V2000
    8.6910  -11.3855   26.8543 C   0  0  0  0  0  0  0  0  0  0  0  0
    7.4463  -12.1582   27.8670 S   0  0  0  0  0  0  0  0  0  0  0  0
    6.3247  -13.2493   27.0161 C   0  0  0  0  0  0  0  0  0  0  0  0
    7.0401  -14.1063   26.0314 C   0  0  0  0  0  0  0  0  0  0  0  0
    6.1925  -14.9672   25.1652 C   0  0  2  0  0  0  0  0  0  0  0  0
    5.5201  -16.0151   25.9175 N   0  0  0  0  0  0  0  0  0  0  0  0
    7.1262  -15.6083   24.1640 C   0  0  0  0  0  0  0  0  0  0  0  0
    7.2779  -16.8496   24.1785 O   0  0  0  0  0  0  0  0  0  0  0  0
    7.2301  -12.6343   19.8578 C   0  0  0  0  0  0  0  0  0  0  0  0
    7.1754  -13.9020   20.7148 C   0  0  0  0  0  0  0  0  0  0  0  0
    8.5472  -14.3938   21.0319 C   0  0  2  0  0  0  0  0  0  0  0  0
    9.3460  -14.7504   19.8014 C   0  0  0  0  0  0  0  0  0  0  0  0
    8.5662  -15.4509   22.0786 C   0  0  2  0  0  0  0  0  0  0  0  0
    7.8242  -14.8480   23.2225 N   0  0  0  0  0  0  0  0  0  0  0  0
    9.8658  -15.8426   22.6084 C   0  0  0  0  0  0  0  0  0  0  0  0
   10.5277  -15.0567   23.3811 O   0  0  0  0  0  0  0  0  0  0  0  0
    9.8029  -19.8002   23.9875 N   0  0  0  0  0  0  0  0  0  0  0  0
   10.9878  -19.1367   24.3862 C   0  0  0  0  0  0  0  0  0  0  0  0
   11.1401  -18.8398   25.5927 O   0  0  0  0  0  0  0  0  0  0  0  0
   12.0109  -18.8188   23.3543 C   0  0  0  0  0  0  0  0  0  0  0  0
   11.8576  -17.3860   22.8877 C   0  0  2  0  0  0  0  0  0  0  0  0
   10.5496  -17.0729   22.3695 N   0  0  0  0  0  0  0  0  0  0  0  0
   12.9439  -16.9280   22.0061 C   0  0  0  0  0  0  0  0  0  0  0  0
   14.2370  -16.9683   22.5097 O   0  0  0  0  0  0  0  0  0  0  0  0
   12.7462  -16.5068   20.8311 O   0  0  0  0  0  0  0  0  0  0  0  0
  1  2  1  0
  3  2  1  0
  4  5  1  0
  4  3  1  0
  5  6  1  1
  7  5  1  0
  8  7  2  0
  9 10  1  0
 10 11  1  0
 11 13  1  0
 11 12  1  6
 13 14  1  1
 14  7  1  0
 15 22  1  0
 15 13  1  0
 16 15  2  0
 17 18  1  0
 18 19  2  0
 18 20  1  0
 21 20  1  6
 21 23  1  0
 21 22  1  0
 23 24  1  0
 25 23  2  0
M  END
$$$$
