MIN.pdb
     RDKit          3D

 25 24  0  0  1  0  0  0  0  0999 V2000
    9.0743  -13.7826   29.9700 C   0  0  0  0  0  0  0  0  0  0  0  0
    9.3308  -15.5438   30.0366 S   0  0  0  0  0  0  0  0  0  0  0  0
    9.8758  -16.3038   28.5207 C   0  0  0  0  0  0  0  0  0  0  0  0
    9.3111  -17.6721   28.3634 C   0  0  0  0  0  0  0  0  0  0  0  0
    7.9032  -17.7564   27.8938 C   0  0  2  0  0  0  0  0  0  0  0  0
    7.4259  -19.1288   27.8240 N   0  0  0  0  0  0  0  0  0  0  0  0
    7.8853  -17.1627   26.5037 C   0  0  0  0  0  0  0  0  0  0  0  0
    7.9900  -17.9208   25.5147 O   0  0  0  0  0  0  0  0  0  0  0  0
    6.2495  -11.9677   26.5794 C   0  0  0  0  0  0  0  0  0  0  0  0
    6.1754  -13.4015   26.0475 C   0  0  0  0  0  0  0  0  0  0  0  0
    7.3744  -13.7301   25.2238 C   0  0  2  0  0  0  0  0  0  0  0  0
    7.4947  -12.8720   23.9873 C   0  0  0  0  0  0  0  0  0  0  0  0
    7.5217  -15.1855   24.9527 C   0  0  2  0  0  0  0  0  0  0  0  0
    7.7548  -15.7872   26.2966 N   0  0  0  0  0  0  0  0  0  0  0  0
    8.6496  -15.6004   24.1289 C   0  0  0  0  0  0  0  0  0  0  0  0
    8.5374  -15.6861   22.8511 O   0  0  0  0  0  0  0  0  0  0  0  0
   12.7857  -17.1958   21.8435 N   0  0  0  0  0  0  0  0  0  0  0  0
   12.6018  -15.7939   21.9079 C   0  0  0  0  0  0  0  0  0  0  0  0
   13.2617  -15.0597   21.1382 O   0  0  0  0  0  0  0  0  0  0  0  0
   11.6270  -15.2451   22.8883 C   0  0  0  0  0  0  0  0  0  0  0  0
   11.0323  -16.3633   23.7188 C   0  0  2  0  0  0  0  0  0  0  0  0
    9.9578  -15.9459   24.5842 N   0  0  0  0  0  0  0  0  0  0  0  0
   12.0355  -17.1869   24.4133 C   0  0  0  0  0  0  0  0  0  0  0  0
   11.8081  -17.4795   25.7513 O   0  0  0  0  0  0  0  0  0  0  0  0
   13.0761  -17.6277   23.8476 O   0  0  0  0  0  0  0  0  0  0  0  0
  1  2  1  0
  3  2  1  0
  4  5  1  0
  4  3  1  0
  5  6  1  6
  7  5  1  0
  8  7  2  0
  9 10  1  0
 10 11  1  0
 11 13  1  0
 11 12  1  6
 13 14  1  1
 14  7  1  0
 15 22  1  0
 15 13  1  0
 16 15  2  0
 17 18  1  0
 18 19  2  0
 18 20  1  0
 21 20  1  1
 21 23  1  0
 21 22  1  0
 23 24  1  0
 25 23  2  0
M  END
$$$$
