MIN.pdb
     RDKit          3D

 25 24  0  0  1  0  0  0  0  0999 V2000
    6.3619  -19.9501   22.9507 C   0  0  0  0  0  0  0  0  0  0  0  0
    6.3067  -19.5498   21.2162 S   0  0  0  0  0  0  0  0  0  0  0  0
    6.7408  -17.8745   20.7949 C   0  0  0  0  0  0  0  0  0  0  0  0
    7.0793  -17.0782   22.0061 C   0  0  0  0  0  0  0  0  0  0  0  0
    7.4043  -15.6445   21.7855 C   0  0  2  0  0  0  0  0  0  0  0  0
    8.2079  -15.4384   20.5905 N   0  0  0  0  0  0  0  0  0  0  0  0
    8.2013  -15.2017   22.9912 C   0  0  0  0  0  0  0  0  0  0  0  0
    9.4506  -15.2182   22.9370 O   0  0  0  0  0  0  0  0  0  0  0  0
    6.2023  -11.3213   25.9027 C   0  0  0  0  0  0  0  0  0  0  0  0
    7.1726  -12.2837   25.2123 C   0  0  0  0  0  0  0  0  0  0  0  0
    7.5040  -13.4371   26.0977 C   0  0  2  0  0  0  0  0  0  0  0  0
    8.0554  -13.0135   27.4379 C   0  0  0  0  0  0  0  0  0  0  0  0
    8.3211  -14.4814   25.4232 C   0  0  2  0  0  0  0  0  0  0  0  0
    7.5763  -14.7744   24.1654 N   0  0  0  0  0  0  0  0  0  0  0  0
    8.4674  -15.7598   26.1069 C   0  0  0  0  0  0  0  0  0  0  0  0
    7.8883  -16.8172   25.6603 O   0  0  0  0  0  0  0  0  0  0  0  0
   10.4708  -19.3135   25.6841 N   0  0  0  0  0  0  0  0  0  0  0  0
   10.8482  -18.0297   25.2228 C   0  0  0  0  0  0  0  0  0  0  0  0
   10.8420  -17.8014   23.9920 O   0  0  0  0  0  0  0  0  0  0  0  0
   11.2364  -16.9971   26.2207 C   0  0  0  0  0  0  0  0  0  0  0  0
   10.2687  -17.0036   27.3858 C   0  0  2  0  0  0  0  0  0  0  0  0
    9.2255  -16.0136   27.2896 N   0  0  0  0  0  0  0  0  0  0  0  0
   10.9244  -17.0137   28.7037 C   0  0  0  0  0  0  0  0  0  0  0  0
   11.1763  -15.7868   29.3026 O   0  0  0  0  0  0  0  0  0  0  0  0
   11.2605  -18.0773   29.2978 O   0  0  0  0  0  0  0  0  0  0  0  0
  1  2  1  0
  3  2  1  0
  4  5  1  0
  4  3  1  0
  5  6  1  6
  7  5  1  0
  8  7  2  0
  9 10  1  0
 10 11  1  0
 11 13  1  0
 11 12  1  1
 13 14  1  6
 14  7  1  0
 15 22  1  0
 15 13  1  0
 16 15  2  0
 17 18  1  0
 18 19  2  0
 18 20  1  0
 21 20  1  6
 21 23  1  0
 21 22  1  0
 23 24  1  0
 25 23  2  0
M  END
$$$$
