MIN.pdb
     RDKit          3D

 25 24  0  0  1  0  0  0  0  0999 V2000
    9.5159  -14.0788   29.2572 C   0  0  0  0  0  0  0  0  0  0  0  0
    9.2400  -15.8142   29.5472 S   0  0  0  0  0  0  0  0  0  0  0  0
   10.3168  -16.9264   28.6663 C   0  0  0  0  0  0  0  0  0  0  0  0
    9.5465  -17.9916   27.9678 C   0  0  0  0  0  0  0  0  0  0  0  0
    8.1037  -17.7198   27.7352 C   0  0  2  0  0  0  0  0  0  0  0  0
    7.3182  -18.9415   27.6530 N   0  0  0  0  0  0  0  0  0  0  0  0
    8.0184  -16.9954   26.4113 C   0  0  0  0  0  0  0  0  0  0  0  0
    7.9935  -17.6600   25.3522 O   0  0  0  0  0  0  0  0  0  0  0  0
    5.7416  -12.3226   26.9776 C   0  0  0  0  0  0  0  0  0  0  0  0
    5.9939  -13.5868   26.1514 C   0  0  0  0  0  0  0  0  0  0  0  0
    7.3142  -13.5210   25.4611 C   0  0  2  0  0  0  0  0  0  0  0  0
    7.3494  -12.4996   24.3498 C   0  0  0  0  0  0  0  0  0  0  0  0
    7.8347  -14.8550   25.0576 C   0  0  2  0  0  0  0  0  0  0  0  0
    7.9668  -15.6010   26.3415 N   0  0  0  0  0  0  0  0  0  0  0  0
    9.1511  -14.8976   24.4345 C   0  0  0  0  0  0  0  0  0  0  0  0
   10.2201  -14.8186   25.1442 O   0  0  0  0  0  0  0  0  0  0  0  0
   13.4172  -17.4262   23.0429 N   0  0  0  0  0  0  0  0  0  0  0  0
   12.4656  -16.6304   23.7244 C   0  0  0  0  0  0  0  0  0  0  0  0
   12.8684  -15.7388   24.5054 O   0  0  0  0  0  0  0  0  0  0  0  0
   11.0195  -16.8825   23.4842 C   0  0  0  0  0  0  0  0  0  0  0  0
   10.4675  -15.8726   22.4996 C   0  0  2  0  0  0  0  0  0  0  0  0
    9.4322  -15.0283   23.0409 N   0  0  0  0  0  0  0  0  0  0  0  0
   10.1067  -16.4501   21.1945 C   0  0  0  0  0  0  0  0  0  0  0  0
   11.0651  -16.4118   20.1907 O   0  0  0  0  0  0  0  0  0  0  0  0
    8.9785  -16.9684   20.9587 O   0  0  0  0  0  0  0  0  0  0  0  0
  1  2  1  0
  3  2  1  0
  4  5  1  0
  4  3  1  0
  5  6  1  6
  7  5  1  0
  8  7  2  0
  9 10  1  0
 10 11  1  0
 11 13  1  0
 11 12  1  6
 13 14  1  1
 14  7  1  0
 15 22  1  0
 15 13  1  0
 16 15  2  0
 17 18  1  0
 18 19  2  0
 18 20  1  0
 21 20  1  1
 21 23  1  0
 21 22  1  0
 23 24  1  0
 25 23  2  0
M  END
$$$$
