MIN.pdb
     RDKit          3D

 25 24  0  0  1  0  0  0  0  0999 V2000
    5.9142  -21.4462   18.7486 C   0  0  0  0  0  0  0  0  0  0  0  0
    7.4507  -21.6213   17.8651 S   0  0  0  0  0  0  0  0  0  0  0  0
    8.0773  -20.1390   17.1017 C   0  0  0  0  0  0  0  0  0  0  0  0
    8.0848  -18.9962   18.0555 C   0  0  0  0  0  0  0  0  0  0  0  0
    8.4034  -17.6609   17.4851 C   0  0  2  0  0  0  0  0  0  0  0  0
    9.2815  -17.7499   16.3288 N   0  0  0  0  0  0  0  0  0  0  0  0
    9.1120  -16.8931   18.5775 C   0  0  0  0  0  0  0  0  0  0  0  0
   10.3623  -16.8774   18.6003 O   0  0  0  0  0  0  0  0  0  0  0  0
    6.8427  -12.3051   19.9504 C   0  0  0  0  0  0  0  0  0  0  0  0
    7.9333  -13.3460   19.6833 C   0  0  0  0  0  0  0  0  0  0  0  0
    8.1016  -14.2575   20.8517 C   0  0  2  0  0  0  0  0  0  0  0  0
    8.3515  -13.5197   22.1451 C   0  0  0  0  0  0  0  0  0  0  0  0
    9.0666  -15.3620   20.6026 C   0  0  2  0  0  0  0  0  0  0  0  0
    8.4042  -16.2004   19.5630 N   0  0  0  0  0  0  0  0  0  0  0  0
    9.3558  -16.2592   21.7136 C   0  0  0  0  0  0  0  0  0  0  0  0
    8.4492  -17.0391   22.1854 O   0  0  0  0  0  0  0  0  0  0  0  0
   13.5220  -18.2153   21.2434 N   0  0  0  0  0  0  0  0  0  0  0  0
   12.3911  -18.6158   21.9943 C   0  0  0  0  0  0  0  0  0  0  0  0
   11.5922  -19.4400   21.4947 O   0  0  0  0  0  0  0  0  0  0  0  0
   12.1955  -18.0428   23.3530 C   0  0  0  0  0  0  0  0  0  0  0  0
   10.8480  -17.3574   23.4442 C   0  0  2  0  0  0  0  0  0  0  0  0
   10.6026  -16.4004   22.3947 N   0  0  0  0  0  0  0  0  0  0  0  0
   10.5399  -16.8266   24.7822 C   0  0  0  0  0  0  0  0  0  0  0  0
   10.2426  -15.4741   24.8813 O   0  0  0  0  0  0  0  0  0  0  0  0
   10.5371  -17.5426   25.8235 O   0  0  0  0  0  0  0  0  0  0  0  0
  1  2  1  0
  3  2  1  0
  4  5  1  0
  4  3  1  0
  5  6  1  6
  7  5  1  0
  8  7  2  0
  9 10  1  0
 10 11  1  0
 11 13  1  0
 11 12  1  1
 13 14  1  6
 14  7  1  0
 15 22  1  0
 15 13  1  0
 16 15  2  0
 17 18  1  0
 18 19  2  0
 18 20  1  0
 21 20  1  1
 21 23  1  0
 21 22  1  0
 23 24  1  0
 25 23  2  0
M  END
$$$$
