MIN.pdb
     RDKit          3D

 25 24  0  0  1  0  0  0  0  0999 V2000
    8.4364  -11.4621   19.1379 C   0  0  0  0  0  0  0  0  0  0  0  0
    7.1729  -12.6508   18.7353 S   0  0  0  0  0  0  0  0  0  0  0  0
    7.3635  -14.2616   19.4714 C   0  0  0  0  0  0  0  0  0  0  0  0
    7.9039  -14.1678   20.8552 C   0  0  0  0  0  0  0  0  0  0  0  0
    8.0479  -15.4480   21.5970 C   0  0  2  0  0  0  0  0  0  0  0  0
    6.7630  -16.0649   21.8879 N   0  0  0  0  0  0  0  0  0  0  0  0
    8.7309  -15.1057   22.9014 C   0  0  0  0  0  0  0  0  0  0  0  0
    9.9525  -14.8379   22.8991 O   0  0  0  0  0  0  0  0  0  0  0  0
    5.9396  -12.1332   26.0759 C   0  0  0  0  0  0  0  0  0  0  0  0
    7.1581  -12.7620   25.3947 C   0  0  0  0  0  0  0  0  0  0  0  0
    7.6266  -13.9659   26.1400 C   0  0  2  0  0  0  0  0  0  0  0  0
    7.9886  -13.6682   27.5752 C   0  0  0  0  0  0  0  0  0  0  0  0
    8.6692  -14.7393   25.4133 C   0  0  2  0  0  0  0  0  0  0  0  0
    8.0308  -15.0812   24.1102 N   0  0  0  0  0  0  0  0  0  0  0  0
    9.0881  -16.0070   25.9967 C   0  0  0  0  0  0  0  0  0  0  0  0
    8.2421  -16.9550   26.1929 O   0  0  0  0  0  0  0  0  0  0  0  0
   13.4722  -19.6716   27.6882 N   0  0  0  0  0  0  0  0  0  0  0  0
   12.3767  -19.5536   26.7998 C   0  0  0  0  0  0  0  0  0  0  0  0
   11.7141  -20.5767   26.5146 O   0  0  0  0  0  0  0  0  0  0  0  0
   12.0518  -18.2146   26.2393 C   0  0  0  0  0  0  0  0  0  0  0  0
   10.7857  -17.6746   26.8713 C   0  0  2  0  0  0  0  0  0  0  0  0
   10.4087  -16.3637   26.4056 N   0  0  0  0  0  0  0  0  0  0  0  0
   10.7587  -17.7870   28.3388 C   0  0  0  0  0  0  0  0  0  0  0  0
   10.9242  -16.6206   29.0733 O   0  0  0  0  0  0  0  0  0  0  0  0
   10.5945  -18.8850   28.9427 O   0  0  0  0  0  0  0  0  0  0  0  0
  1  2  1  0
  3  2  1  0
  4  5  1  0
  4  3  1  0
  5  6  1  1
  7  5  1  0
  8  7  2  0
  9 10  1  0
 10 11  1  0
 11 13  1  0
 11 12  1  1
 13 14  1  6
 14  7  1  0
 15 22  1  0
 15 13  1  0
 16 15  2  0
 17 18  1  0
 18 19  2  0
 18 20  1  0
 21 20  1  1
 21 23  1  0
 21 22  1  0
 23 24  1  0
 25 23  2  0
M  END
$$$$
