MIN.pdb
     RDKit          3D

 25 24  0  0  1  0  0  0  0  0999 V2000
    8.4392  -11.2008   19.3031 C   0  0  0  0  0  0  0  0  0  0  0  0
    7.3957  -12.4275   18.5427 S   0  0  0  0  0  0  0  0  0  0  0  0
    7.4872  -14.0625   19.2434 C   0  0  0  0  0  0  0  0  0  0  0  0
    7.6881  -14.0132   20.7175 C   0  0  0  0  0  0  0  0  0  0  0  0
    7.7988  -15.3219   21.4139 C   0  0  2  0  0  0  0  0  0  0  0  0
    6.4979  -15.9071   21.6991 N   0  0  0  0  0  0  0  0  0  0  0  0
    8.5064  -15.0462   22.7210 C   0  0  0  0  0  0  0  0  0  0  0  0
    9.7086  -14.7019   22.7037 O   0  0  0  0  0  0  0  0  0  0  0  0
    6.0133  -12.1163   26.0803 C   0  0  0  0  0  0  0  0  0  0  0  0
    7.1498  -12.8241   25.3374 C   0  0  0  0  0  0  0  0  0  0  0  0
    7.5223  -14.0983   26.0170 C   0  0  2  0  0  0  0  0  0  0  0  0
    7.8870  -13.9082   27.4697 C   0  0  0  0  0  0  0  0  0  0  0  0
    8.5159  -14.9027   25.2561 C   0  0  2  0  0  0  0  0  0  0  0  0
    7.8503  -15.1666   23.9485 N   0  0  0  0  0  0  0  0  0  0  0  0
    8.8697  -16.2096   25.7943 C   0  0  0  0  0  0  0  0  0  0  0  0
    7.9612  -17.0709   26.0870 O   0  0  0  0  0  0  0  0  0  0  0  0
   13.4637  -17.6029   25.1452 N   0  0  0  0  0  0  0  0  0  0  0  0
   12.1466  -17.9894   24.7997 C   0  0  0  0  0  0  0  0  0  0  0  0
   11.6661  -17.5997   23.7114 O   0  0  0  0  0  0  0  0  0  0  0  0
   11.3825  -18.8480   25.7438 C   0  0  0  0  0  0  0  0  0  0  0  0
   10.4724  -17.9984   26.6062 C   0  0  2  0  0  0  0  0  0  0  0  0
   10.1857  -16.6977   26.0554 N   0  0  0  0  0  0  0  0  0  0  0  0
   10.8761  -17.9413   28.0207 C   0  0  0  0  0  0  0  0  0  0  0  0
   11.1794  -19.1417   28.6487 O   0  0  0  0  0  0  0  0  0  0  0  0
   10.9540  -16.8609   28.6718 O   0  0  0  0  0  0  0  0  0  0  0  0
  1  2  1  0
  3  2  1  0
  4  5  1  0
  4  3  1  0
  5  6  1  1
  7  5  1  0
  8  7  2  0
  9 10  1  0
 10 11  1  0
 11 13  1  0
 11 12  1  1
 13 14  1  6
 14  7  1  0
 15 22  1  0
 15 13  1  0
 16 15  2  0
 17 18  1  0
 18 19  2  0
 18 20  1  0
 21 20  1  6
 21 23  1  0
 21 22  1  0
 23 24  1  0
 25 23  2  0
M  END
$$$$
