MIN.pdb
     RDKit          3D

 25 24  0  0  1  0  0  0  0  0999 V2000
    8.2257  -11.3209   19.4217 C   0  0  0  0  0  0  0  0  0  0  0  0
    7.0375  -12.5216   18.8575 S   0  0  0  0  0  0  0  0  0  0  0  0
    7.1820  -14.1471   19.5712 C   0  0  0  0  0  0  0  0  0  0  0  0
    7.9545  -14.1171   20.8433 C   0  0  0  0  0  0  0  0  0  0  0  0
    8.1113  -15.4141   21.5525 C   0  0  2  0  0  0  0  0  0  0  0  0
    6.8327  -16.0515   21.8264 N   0  0  0  0  0  0  0  0  0  0  0  0
    8.7898  -15.0980   22.8658 C   0  0  0  0  0  0  0  0  0  0  0  0
    9.9549  -14.6438   22.8573 O   0  0  0  0  0  0  0  0  0  0  0  0
    6.1090  -12.3104   26.0422 C   0  0  0  0  0  0  0  0  0  0  0  0
    7.2832  -12.9984   25.3407 C   0  0  0  0  0  0  0  0  0  0  0  0
    7.7540  -14.1804   26.1187 C   0  0  2  0  0  0  0  0  0  0  0  0
    8.1407  -13.8378   27.5374 C   0  0  0  0  0  0  0  0  0  0  0  0
    8.7792  -14.9863   25.4025 C   0  0  2  0  0  0  0  0  0  0  0  0
    8.1470  -15.3009   24.0895 N   0  0  0  0  0  0  0  0  0  0  0  0
    9.1465  -16.2700   25.9858 C   0  0  0  0  0  0  0  0  0  0  0  0
    8.2526  -17.1560   26.2477 O   0  0  0  0  0  0  0  0  0  0  0  0
   13.0682  -17.8601   24.2939 N   0  0  0  0  0  0  0  0  0  0  0  0
   12.0753  -18.6220   24.9550 C   0  0  0  0  0  0  0  0  0  0  0  0
   11.2581  -19.2779   24.2702 O   0  0  0  0  0  0  0  0  0  0  0  0
   12.0422  -18.6165   26.4421 C   0  0  0  0  0  0  0  0  0  0  0  0
   10.7596  -17.9797   26.9357 C   0  0  2  0  0  0  0  0  0  0  0  0
   10.4620  -16.7077   26.3265 N   0  0  0  0  0  0  0  0  0  0  0  0
   10.6355  -17.9514   28.4023 C   0  0  0  0  0  0  0  0  0  0  0  0
   10.7093  -16.7139   29.0272 O   0  0  0  0  0  0  0  0  0  0  0  0
   10.4685  -18.9921   29.0996 O   0  0  0  0  0  0  0  0  0  0  0  0
  1  2  1  0
  3  2  1  0
  4  5  1  0
  4  3  1  0
  5  6  1  1
  7  5  1  0
  8  7  2  0
  9 10  1  0
 10 11  1  0
 11 13  1  0
 11 12  1  1
 13 14  1  6
 14  7  1  0
 15 22  1  0
 15 13  1  0
 16 15  2  0
 17 18  1  0
 18 19  2  0
 18 20  1  0
 21 20  1  1
 21 23  1  0
 21 22  1  0
 23 24  1  0
 25 23  2  0
M  END
$$$$
