MWP.pdb
     RDKit          3D

 30 32  0  0  1  0  0  0  0  0999 V2000
   18.8635  -22.0071  -16.3909 C   0  0  0  0  0  0  0  0  0  0  0  0
   19.4780  -21.5049  -14.7593 S   0  0  0  0  0  0  0  0  0  0  0  0
   20.3825  -19.9152  -14.8894 C   0  0  0  0  0  0  0  0  0  0  0  0
   20.8676  -19.5693  -13.5046 C   0  0  0  0  0  0  0  0  0  0  0  0
   21.7540  -20.6548  -12.9454 C   0  0  2  0  0  0  0  0  0  0  0  0
   21.2577  -21.1637  -11.6861 N   0  0  0  0  0  0  0  0  0  0  0  0
   23.1736  -20.1965  -12.8101 C   0  0  0  0  0  0  0  0  0  0  0  0
   23.4381  -19.0326  -13.1968 O   0  0  0  0  0  0  0  0  0  0  0  0
   24.1858  -21.0092  -12.2778 N   0  0  0  0  0  0  0  0  0  0  0  0
   25.6356  -20.7537  -12.4251 C   0  0  1  0  0  0  0  0  0  0  0  0
   26.2417  -21.3972  -11.2442 C   0  0  0  0  0  0  0  0  0  0  0  0
   26.1621  -20.7945   -9.9396 C   0  0  0  0  0  0  0  0  0  0  0  0
   25.0564  -20.2804   -9.3014 C   0  0  0  0  0  0  0  0  0  0  0  0
   25.4450  -19.8020   -8.0946 N   0  0  0  0  0  0  0  0  0  0  0  0
   26.7533  -19.9881   -7.9322 C   0  0  0  0  0  0  0  0  0  0  0  0
   27.5734  -19.6759   -6.8675 C   0  0  0  0  0  0  0  0  0  0  0  0
   28.9290  -19.9886   -6.9251 C   0  0  0  0  0  0  0  0  0  0  0  0
   29.4136  -20.6028   -8.0480 C   0  0  0  0  0  0  0  0  0  0  0  0
   28.5773  -20.9023   -9.0940 C   0  0  0  0  0  0  0  0  0  0  0  0
   27.2249  -20.6091   -9.0771 C   0  0  0  0  0  0  0  0  0  0  0  0
   26.1321  -21.0994  -13.7549 C   0  0  0  0  0  0  0  0  0  0  0  0
   25.4508  -21.8766  -14.4756 O   0  0  0  0  0  0  0  0  0  0  0  0
   27.3304  -20.6248  -14.3366 N   0  0  0  0  0  0  0  0  0  0  0  0
   28.3673  -19.9046  -13.6194 C   0  0  0  0  0  0  0  0  0  0  0  0
   28.8623  -18.8662  -14.6157 C   0  0  0  0  0  0  0  0  0  0  0  0
   28.1572  -19.1886  -15.8880 C   0  0  0  0  0  0  0  0  0  0  0  0
   27.7720  -20.6761  -15.7172 C   0  0  1  0  0  0  0  0  0  0  0  0
   29.0274  -21.4135  -15.9360 C   0  0  0  0  0  0  0  0  0  0  0  0
   29.4736  -21.5349  -17.2508 O   0  0  0  0  0  0  0  0  0  0  0  0
   29.7285  -21.9402  -15.0495 O   0  0  0  0  0  0  0  0  0  0  0  0
  1  2  1  0
  3  2  1  0
  4  3  1  0
  5  6  1  1
  5  4  1  0
  7  5  1  0
  8  7  2  0
  9  7  1  0
 10 21  1  0
 10  9  1  0
 11 12  1  0
 10 11  1  1
 12 13  2  0
 14 13  1  0
 15 14  1  0
 16 15  2  0
 17 16  1  0
 18 19  1  0
 18 17  2  0
 19 20  2  0
 20 15  1  0
 20 12  1  0
 21 22  2  0
 23 24  1  0
 23 21  1  0
 25 24  1  0
 26 27  1  0
 26 25  1  0
 27 23  1  0
 27 28  1  1
 28 29  1  0
 30 28  2  0
M  END
$$$$
