MWP.pdb
     RDKit          3D

 30 32  0  0  1  0  0  0  0  0999 V2000
   25.0876  -16.2651  -18.0212 C   0  0  0  0  0  0  0  0  0  0  0  0
   26.6095  -16.0653  -18.9885 S   0  0  0  0  0  0  0  0  0  0  0  0
   27.1304  -17.6804  -19.6831 C   0  0  0  0  0  0  0  0  0  0  0  0
   26.7253  -18.7392  -18.6892 C   0  0  0  0  0  0  0  0  0  0  0  0
   27.9157  -19.2531  -17.9176 C   0  0  2  0  0  0  0  0  0  0  0  0
   28.8253  -19.9987  -18.7589 N   0  0  0  0  0  0  0  0  0  0  0  0
   27.4982  -20.0697  -16.7334 C   0  0  0  0  0  0  0  0  0  0  0  0
   27.1219  -21.2461  -16.9539 O   0  0  0  0  0  0  0  0  0  0  0  0
   27.5162  -19.5698  -15.4226 N   0  0  0  0  0  0  0  0  0  0  0  0
   26.9054  -20.2439  -14.2557 C   0  0  1  0  0  0  0  0  0  0  0  0
   27.5728  -19.6333  -13.0905 C   0  0  0  0  0  0  0  0  0  0  0  0
   27.1175  -19.8873  -11.7489 C   0  0  0  0  0  0  0  0  0  0  0  0
   25.8550  -19.7173  -11.2279 C   0  0  0  0  0  0  0  0  0  0  0  0
   25.8836  -20.0669   -9.9190 N   0  0  0  0  0  0  0  0  0  0  0  0
   27.1112  -20.4542   -9.5791 C   0  0  0  0  0  0  0  0  0  0  0  0
   27.6023  -20.9038   -8.3707 C   0  0  0  0  0  0  0  0  0  0  0  0
   28.9408  -21.2722   -8.2632 C   0  0  0  0  0  0  0  0  0  0  0  0
   29.7387  -21.1764   -9.3709 C   0  0  0  0  0  0  0  0  0  0  0  0
   29.2264  -20.7255  -10.5614 C   0  0  0  0  0  0  0  0  0  0  0  0
   27.9029  -20.3498  -10.7111 C   0  0  0  0  0  0  0  0  0  0  0  0
   25.4457  -20.2507  -14.3147 C   0  0  0  0  0  0  0  0  0  0  0  0
   24.8517  -19.2497  -14.7973 O   0  0  0  0  0  0  0  0  0  0  0  0
   24.6080  -21.3049  -13.8831 N   0  0  0  0  0  0  0  0  0  0  0  0
   25.0774  -22.5311  -13.2632 C   0  0  0  0  0  0  0  0  0  0  0  0
   24.1596  -23.6097  -13.8202 C   0  0  0  0  0  0  0  0  0  0  0  0
   23.1322  -22.8708  -14.6065 C   0  0  0  0  0  0  0  0  0  0  0  0
   23.1694  -21.4498  -13.9985 C   0  0  1  0  0  0  0  0  0  0  0  0
   22.4574  -21.5746  -12.7159 C   0  0  0  0  0  0  0  0  0  0  0  0
   21.0647  -21.5392  -12.7548 O   0  0  0  0  0  0  0  0  0  0  0  0
   22.9891  -21.7092  -11.5960 O   0  0  0  0  0  0  0  0  0  0  0  0
  1  2  1  0
  3  2  1  0
  4  3  1  0
  5  6  1  6
  5  4  1  0
  7  5  1  0
  8  7  2  0
  9  7  1  0
 10 21  1  0
 10  9  1  0
 11 12  1  0
 10 11  1  1
 12 13  2  0
 14 13  1  0
 15 14  1  0
 16 15  2  0
 17 16  1  0
 18 19  1  0
 18 17  2  0
 19 20  2  0
 20 15  1  0
 20 12  1  0
 21 22  2  0
 23 24  1  0
 23 21  1  0
 25 24  1  0
 26 27  1  0
 26 25  1  0
 27 23  1  0
 27 28  1  1
 28 29  1  0
 30 28  2  0
M  END
$$$$
