MWP.pdb
     RDKit          3D

 30 32  0  0  1  0  0  0  0  0999 V2000
   30.5542  -22.5237  -15.5489 C   0  0  0  0  0  0  0  0  0  0  0  0
   29.2563  -23.5161  -16.3378 S   0  0  0  0  0  0  0  0  0  0  0  0
   27.6327  -23.1580  -15.5646 C   0  0  0  0  0  0  0  0  0  0  0  0
   27.8730  -22.1264  -14.4918 C   0  0  0  0  0  0  0  0  0  0  0  0
   26.6242  -21.8722  -13.6841 C   0  0  2  0  0  0  0  0  0  0  0  0
   25.5123  -21.4725  -14.5178 N   0  0  0  0  0  0  0  0  0  0  0  0
   26.8612  -20.8678  -12.5984 C   0  0  0  0  0  0  0  0  0  0  0  0
   27.1530  -19.7003  -12.9532 O   0  0  0  0  0  0  0  0  0  0  0  0
   26.7680  -21.1874  -11.2355 N   0  0  0  0  0  0  0  0  0  0  0  0
   27.0204  -20.2385  -10.1288 C   0  0  1  0  0  0  0  0  0  0  0  0
   25.8884  -19.2949  -10.1913 C   0  0  0  0  0  0  0  0  0  0  0  0
   24.5257  -19.7572  -10.1601 C   0  0  0  0  0  0  0  0  0  0  0  0
   23.8310  -20.2998   -9.1031 C   0  0  0  0  0  0  0  0  0  0  0  0
   22.5809  -20.6060   -9.5271 N   0  0  0  0  0  0  0  0  0  0  0  0
   22.4449  -20.2822  -10.8114 C   0  0  0  0  0  0  0  0  0  0  0  0
   21.3559  -20.3992  -11.6504 C   0  0  0  0  0  0  0  0  0  0  0  0
   21.4525  -19.9695  -12.9713 C   0  0  0  0  0  0  0  0  0  0  0  0
   22.6374  -19.4383  -13.4036 C   0  0  0  0  0  0  0  0  0  0  0  0
   23.7064  -19.3335  -12.5495 C   0  0  0  0  0  0  0  0  0  0  0  0
   23.6524  -19.7480  -11.2302 C   0  0  0  0  0  0  0  0  0  0  0  0
   27.3113  -20.9154   -8.8672 C   0  0  0  0  0  0  0  0  0  0  0  0
   27.1836  -22.1674   -8.8050 O   0  0  0  0  0  0  0  0  0  0  0  0
   27.7471  -20.2889   -7.6768 N   0  0  0  0  0  0  0  0  0  0  0  0
   28.0266  -18.8702   -7.5454 C   0  0  0  0  0  0  0  0  0  0  0  0
   29.2337  -18.8085   -6.6206 C   0  0  0  0  0  0  0  0  0  0  0  0
   29.4487  -20.2142   -6.1761 C   0  0  0  0  0  0  0  0  0  0  0  0
   28.0659  -20.8723   -6.3877 C   0  0  1  0  0  0  0  0  0  0  0  0
   27.2445  -20.3815   -5.2687 C   0  0  0  0  0  0  0  0  0  0  0  0
   26.2291  -19.4767   -5.5733 O   0  0  0  0  0  0  0  0  0  0  0  0
   27.3759  -20.7027   -4.0710 O   0  0  0  0  0  0  0  0  0  0  0  0
  1  2  1  0
  3  2  1  0
  4  3  1  0
  5  6  1  6
  5  4  1  0
  7  5  1  0
  8  7  2  0
  9  7  1  0
 10 21  1  0
 10  9  1  0
 11 12  1  0
 10 11  1  1
 12 13  2  0
 14 13  1  0
 15 14  1  0
 16 15  2  0
 17 16  1  0
 18 19  1  0
 18 17  2  0
 19 20  2  0
 20 15  1  0
 20 12  1  0
 21 22  2  0
 23 24  1  0
 23 21  1  0
 25 24  1  0
 26 27  1  0
 26 25  1  0
 27 23  1  0
 27 28  1  1
 28 29  1  0
 30 28  2  0
M  END
$$$$
