MWP.pdb
     RDKit          3D

 30 32  0  0  1  0  0  0  0  0999 V2000
   21.2631  -24.0889  -15.1959 C   0  0  0  0  0  0  0  0  0  0  0  0
   19.9517  -23.5113  -16.3086 S   0  0  0  0  0  0  0  0  0  0  0  0
   19.3890  -21.8406  -15.8045 C   0  0  0  0  0  0  0  0  0  0  0  0
   20.6167  -20.9705  -15.7134 C   0  0  0  0  0  0  0  0  0  0  0  0
   20.8673  -20.5199  -14.2954 C   0  0  2  0  0  0  0  0  0  0  0  0
   19.9393  -19.4906  -13.8826 N   0  0  0  0  0  0  0  0  0  0  0  0
   22.2820  -20.0686  -14.0989 C   0  0  0  0  0  0  0  0  0  0  0  0
   22.7236  -19.2072  -14.8972 O   0  0  0  0  0  0  0  0  0  0  0  0
   23.1026  -20.5678  -13.0763 N   0  0  0  0  0  0  0  0  0  0  0  0
   24.5555  -20.3129  -12.9624 C   0  0  1  0  0  0  0  0  0  0  0  0
   24.8377  -20.4455  -11.5206 C   0  0  0  0  0  0  0  0  0  0  0  0
   26.1794  -20.3504  -11.0085 C   0  0  0  0  0  0  0  0  0  0  0  0
   27.3438  -20.1085  -11.7013 C   0  0  0  0  0  0  0  0  0  0  0  0
   28.3735  -20.1183  -10.8204 N   0  0  0  0  0  0  0  0  0  0  0  0
   27.9182  -20.3560   -9.5921 C   0  0  0  0  0  0  0  0  0  0  0  0
   28.5929  -20.4423   -8.3917 C   0  0  0  0  0  0  0  0  0  0  0  0
   27.8853  -20.6873   -7.2179 C   0  0  0  0  0  0  0  0  0  0  0  0
   26.5268  -20.8372   -7.2896 C   0  0  0  0  0  0  0  0  0  0  0  0
   25.8791  -20.7475   -8.4961 C   0  0  0  0  0  0  0  0  0  0  0  0
   26.5442  -20.5052   -9.6853 C   0  0  0  0  0  0  0  0  0  0  0  0
   25.3375  -21.0987  -13.9139 C   0  0  0  0  0  0  0  0  0  0  0  0
   24.8985  -22.2211  -14.2817 O   0  0  0  0  0  0  0  0  0  0  0  0
   26.5683  -20.7087  -14.4904 N   0  0  0  0  0  0  0  0  0  0  0  0
   27.4335  -19.6684  -13.9637 C   0  0  0  0  0  0  0  0  0  0  0  0
   27.9882  -18.9778  -15.2013 C   0  0  0  0  0  0  0  0  0  0  0  0
   27.5008  -19.7952  -16.3476 C   0  0  0  0  0  0  0  0  0  0  0  0
   27.2077  -21.1715  -15.7072 C   0  0  1  0  0  0  0  0  0  0  0  0
   28.5332  -21.7821  -15.5134 C   0  0  0  0  0  0  0  0  0  0  0  0
   29.1648  -22.3040  -16.6409 O   0  0  0  0  0  0  0  0  0  0  0  0
   29.1428  -21.8748  -14.4295 O   0  0  0  0  0  0  0  0  0  0  0  0
  1  2  1  0
  3  2  1  0
  4  3  1  0
  5  6  1  6
  5  4  1  0
  7  5  1  0
  8  7  2  0
  9  7  1  0
 10 21  1  0
 10  9  1  0
 11 12  1  0
 10 11  1  1
 12 13  2  0
 14 13  1  0
 15 14  1  0
 16 15  2  0
 17 16  1  0
 18 19  1  0
 18 17  2  0
 19 20  2  0
 20 15  1  0
 20 12  1  0
 21 22  2  0
 23 24  1  0
 23 21  1  0
 25 24  1  0
 26 27  1  0
 26 25  1  0
 27 23  1  0
 27 28  1  1
 28 29  1  0
 30 28  2  0
M  END
$$$$
