MWP.pdb
     RDKit          3D

 30 32  0  0  1  0  0  0  0  0999 V2000
   21.4116  -23.8709  -15.8597 C   0  0  0  0  0  0  0  0  0  0  0  0
   19.7443  -23.3805  -15.3388 S   0  0  0  0  0  0  0  0  0  0  0  0
   19.7856  -21.7078  -14.5887 C   0  0  0  0  0  0  0  0  0  0  0  0
   21.2362  -21.3189  -14.4578 C   0  0  0  0  0  0  0  0  0  0  0  0
   21.6015  -21.0337  -13.0219 C   0  0  2  0  0  0  0  0  0  0  0  0
   20.6726  -20.1171  -12.3989 N   0  0  0  0  0  0  0  0  0  0  0  0
   23.0071  -20.5315  -12.8966 C   0  0  0  0  0  0  0  0  0  0  0  0
   23.1948  -19.3049  -13.0826 O   0  0  0  0  0  0  0  0  0  0  0  0
   24.0877  -21.3704  -12.5858 N   0  0  0  0  0  0  0  0  0  0  0  0
   25.5121  -21.0019  -12.7420 C   0  0  1  0  0  0  0  0  0  0  0  0
   26.1890  -21.6750  -11.6175 C   0  0  0  0  0  0  0  0  0  0  0  0
   26.1805  -21.1117  -10.2930 C   0  0  0  0  0  0  0  0  0  0  0  0
   25.1115  -20.6162   -9.5816 C   0  0  0  0  0  0  0  0  0  0  0  0
   25.5650  -20.1746   -8.3834 N   0  0  0  0  0  0  0  0  0  0  0  0
   26.8797  -20.3664   -8.2967 C   0  0  0  0  0  0  0  0  0  0  0  0
   27.7561  -20.0869   -7.2685 C   0  0  0  0  0  0  0  0  0  0  0  0
   29.1060  -20.3987   -7.4076 C   0  0  0  0  0  0  0  0  0  0  0  0
   29.5287  -20.9792   -8.5727 C   0  0  0  0  0  0  0  0  0  0  0  0
   28.6371  -21.2466   -9.5810 C   0  0  0  0  0  0  0  0  0  0  0  0
   27.2882  -20.9530   -9.4833 C   0  0  0  0  0  0  0  0  0  0  0  0
   26.0014  -21.2240  -14.1005 C   0  0  0  0  0  0  0  0  0  0  0  0
   25.3538  -21.9903  -14.8627 O   0  0  0  0  0  0  0  0  0  0  0  0
   27.1568  -20.6375  -14.6668 N   0  0  0  0  0  0  0  0  0  0  0  0
   28.1521  -19.8882  -13.9211 C   0  0  0  0  0  0  0  0  0  0  0  0
   28.5620  -18.7657  -14.8634 C   0  0  0  0  0  0  0  0  0  0  0  0
   27.8633  -19.0659  -16.1446 C   0  0  0  0  0  0  0  0  0  0  0  0
   27.5822  -20.5833  -16.0524 C   0  0  1  0  0  0  0  0  0  0  0  0
   28.8816  -21.2201  -16.3238 C   0  0  0  0  0  0  0  0  0  0  0  0
   29.3834  -21.1158  -17.6199 O   0  0  0  0  0  0  0  0  0  0  0  0
   29.5748  -21.8455  -15.4972 O   0  0  0  0  0  0  0  0  0  0  0  0
  1  2  1  0
  3  2  1  0
  4  3  1  0
  5  6  1  6
  5  4  1  0
  7  5  1  0
  8  7  2  0
  9  7  1  0
 10 21  1  0
 10  9  1  0
 11 12  1  0
 10 11  1  1
 12 13  2  0
 14 13  1  0
 15 14  1  0
 16 15  2  0
 17 16  1  0
 18 19  1  0
 18 17  2  0
 19 20  2  0
 20 15  1  0
 20 12  1  0
 21 22  2  0
 23 24  1  0
 23 21  1  0
 25 24  1  0
 26 27  1  0
 26 25  1  0
 27 23  1  0
 27 28  1  1
 28 29  1  0
 30 28  2  0
M  END
$$$$
