MWP.pdb
     RDKit          3D

 30 32  0  0  1  0  0  0  0  0999 V2000
   26.5577  -18.8607  -20.8171 C   0  0  0  0  0  0  0  0  0  0  0  0
   27.9792  -19.9669  -20.5993 S   0  0  0  0  0  0  0  0  0  0  0  0
   28.8061  -19.6216  -18.9995 C   0  0  0  0  0  0  0  0  0  0  0  0
   27.9811  -20.2828  -17.9248 C   0  0  0  0  0  0  0  0  0  0  0  0
   28.8501  -21.0484  -16.9577 C   0  0  2  0  0  0  0  0  0  0  0  0
   29.5505  -22.1362  -17.6036 N   0  0  0  0  0  0  0  0  0  0  0  0
   28.0661  -21.5458  -15.7822 C   0  0  0  0  0  0  0  0  0  0  0  0
   27.5524  -22.6863  -15.8788 O   0  0  0  0  0  0  0  0  0  0  0  0
   27.8959  -20.7933  -14.6104 N   0  0  0  0  0  0  0  0  0  0  0  0
   26.9803  -21.1518  -13.5050 C   0  0  1  0  0  0  0  0  0  0  0  0
   27.6146  -20.5762  -12.3040 C   0  0  0  0  0  0  0  0  0  0  0  0
   26.8957  -20.4545  -11.0631 C   0  0  0  0  0  0  0  0  0  0  0  0
   25.5554  -20.2068  -10.8722 C   0  0  0  0  0  0  0  0  0  0  0  0
   25.3162  -20.1609   -9.5392 N   0  0  0  0  0  0  0  0  0  0  0  0
   26.4467  -20.3690   -8.8674 C   0  0  0  0  0  0  0  0  0  0  0  0
   26.6799  -20.4237   -7.5087 C   0  0  0  0  0  0  0  0  0  0  0  0
   27.9661  -20.6752   -7.0384 C   0  0  0  0  0  0  0  0  0  0  0  0
   28.9722  -20.8626   -7.9471 C   0  0  0  0  0  0  0  0  0  0  0  0
   28.7145  -20.8026   -9.2936 C   0  0  0  0  0  0  0  0  0  0  0  0
   27.4515  -20.5555   -9.8026 C   0  0  0  0  0  0  0  0  0  0  0  0
   25.5889  -20.8192  -13.8012 C   0  0  0  0  0  0  0  0  0  0  0  0
   25.3311  -19.7157  -14.3520 O   0  0  0  0  0  0  0  0  0  0  0  0
   24.4700  -21.6419  -13.5353 N   0  0  0  0  0  0  0  0  0  0  0  0
   24.5329  -22.9313  -12.8707 C   0  0  0  0  0  0  0  0  0  0  0  0
   23.4954  -23.7783  -13.5933 C   0  0  0  0  0  0  0  0  0  0  0  0
   22.8123  -22.8367  -14.5241 C   0  0  0  0  0  0  0  0  0  0  0  0
   23.0766  -21.4515  -13.8904 C   0  0  1  0  0  0  0  0  0  0  0  0
   22.1526  -21.3829  -12.7463 C   0  0  0  0  0  0  0  0  0  0  0  0
   20.8189  -21.0867  -13.0219 O   0  0  0  0  0  0  0  0  0  0  0  0
   22.4563  -21.5659  -11.5508 O   0  0  0  0  0  0  0  0  0  0  0  0
  1  2  1  0
  3  2  1  0
  4  3  1  0
  5  6  1  6
  5  4  1  0
  7  5  1  0
  8  7  2  0
  9  7  1  0
 10 21  1  0
 10  9  1  0
 11 12  1  0
 10 11  1  1
 12 13  2  0
 14 13  1  0
 15 14  1  0
 16 15  2  0
 17 16  1  0
 18 19  1  0
 18 17  2  0
 19 20  2  0
 20 15  1  0
 20 12  1  0
 21 22  2  0
 23 24  1  0
 23 21  1  0
 25 24  1  0
 26 27  1  0
 26 25  1  0
 27 23  1  0
 27 28  1  1
 28 29  1  0
 30 28  2  0
M  END
$$$$
