MWP.pdb
     RDKit          3D

 30 32  0  0  1  0  0  0  0  0999 V2000
   17.6794  -22.0426  -15.9743 C   0  0  0  0  0  0  0  0  0  0  0  0
   19.2664  -21.1636  -15.9992 S   0  0  0  0  0  0  0  0  0  0  0  0
   20.3404  -21.7649  -14.6401 C   0  0  0  0  0  0  0  0  0  0  0  0
   21.6099  -20.9534  -14.6893 C   0  0  0  0  0  0  0  0  0  0  0  0
   21.9103  -20.3211  -13.3526 C   0  0  2  0  0  0  0  0  0  0  0  0
   21.1267  -19.1260  -13.1309 N   0  0  0  0  0  0  0  0  0  0  0  0
   23.3716  -20.0350  -13.1905 C   0  0  0  0  0  0  0  0  0  0  0  0
   23.7979  -18.9524  -13.6601 O   0  0  0  0  0  0  0  0  0  0  0  0
   24.2509  -20.9184  -12.5465 N   0  0  0  0  0  0  0  0  0  0  0  0
   25.7249  -20.8763  -12.6666 C   0  0  1  0  0  0  0  0  0  0  0  0
   26.2084  -21.6358  -11.4982 C   0  0  0  0  0  0  0  0  0  0  0  0
   26.1533  -21.0826  -10.1706 C   0  0  0  0  0  0  0  0  0  0  0  0
   25.0489  -20.6647   -9.4637 C   0  0  0  0  0  0  0  0  0  0  0  0
   25.4638  -20.2010   -8.2599 N   0  0  0  0  0  0  0  0  0  0  0  0
   26.7879  -20.3044   -8.1652 C   0  0  0  0  0  0  0  0  0  0  0  0
   27.6368  -19.9728   -7.1294 C   0  0  0  0  0  0  0  0  0  0  0  0
   29.0055  -20.1921   -7.2611 C   0  0  0  0  0  0  0  0  0  0  0  0
   29.4738  -20.7356   -8.4266 C   0  0  0  0  0  0  0  0  0  0  0  0
   28.6089  -21.0561   -9.4426 C   0  0  0  0  0  0  0  0  0  0  0  0
   27.2426  -20.8547   -9.3524 C   0  0  0  0  0  0  0  0  0  0  0  0
   26.1883  -21.2537  -13.9997 C   0  0  0  0  0  0  0  0  0  0  0  0
   25.4826  -22.0366  -14.6901 O   0  0  0  0  0  0  0  0  0  0  0  0
   27.3790  -20.8048  -14.6164 N   0  0  0  0  0  0  0  0  0  0  0  0
   28.4481  -20.1002  -13.9317 C   0  0  0  0  0  0  0  0  0  0  0  0
   28.9352  -19.0768  -14.9472 C   0  0  0  0  0  0  0  0  0  0  0  0
   28.1901  -19.3929  -16.1981 C   0  0  0  0  0  0  0  0  0  0  0  0
   27.7821  -20.8720  -16.0080 C   0  0  1  0  0  0  0  0  0  0  0  0
   29.0173  -21.6339  -16.2561 C   0  0  0  0  0  0  0  0  0  0  0  0
   29.4893  -21.6723  -17.5669 O   0  0  0  0  0  0  0  0  0  0  0  0
   29.6801  -22.2493  -15.3976 O   0  0  0  0  0  0  0  0  0  0  0  0
  1  2  1  0
  3  2  1  0
  4  3  1  0
  5  6  1  6
  5  4  1  0
  7  5  1  0
  8  7  2  0
  9  7  1  0
 10 21  1  0
 10  9  1  0
 11 12  1  0
 10 11  1  1
 12 13  2  0
 14 13  1  0
 15 14  1  0
 16 15  2  0
 17 16  1  0
 18 19  1  0
 18 17  2  0
 19 20  2  0
 20 15  1  0
 20 12  1  0
 21 22  2  0
 23 24  1  0
 23 21  1  0
 25 24  1  0
 26 27  1  0
 26 25  1  0
 27 23  1  0
 27 28  1  1
 28 29  1  0
 30 28  2  0
M  END
$$$$
