MWP.pdb
     RDKit          3D

 30 32  0  0  1  0  0  0  0  0999 V2000
   18.1666  -21.1569  -13.0974 C   0  0  0  0  0  0  0  0  0  0  0  0
   19.2205  -22.3984  -13.8972 S   0  0  0  0  0  0  0  0  0  0  0  0
   20.5762  -22.8956  -12.7671 C   0  0  0  0  0  0  0  0  0  0  0  0
   21.6654  -21.8623  -12.9036 C   0  0  0  0  0  0  0  0  0  0  0  0
   21.7463  -20.9837  -11.6796 C   0  0  2  0  0  0  0  0  0  0  0  0
   20.7491  -19.9366  -11.6981 N   0  0  0  0  0  0  0  0  0  0  0  0
   23.1172  -20.4077  -11.5002 C   0  0  0  0  0  0  0  0  0  0  0  0
   23.4115  -19.4047  -12.1942 O   0  0  0  0  0  0  0  0  0  0  0  0
   24.0539  -20.9432  -10.6033 N   0  0  0  0  0  0  0  0  0  0  0  0
   25.5025  -20.6430  -10.6196 C   0  0  1  0  0  0  0  0  0  0  0  0
   25.9684  -21.0180   -9.2712 C   0  0  0  0  0  0  0  0  0  0  0  0
   26.5487  -20.0460   -8.3823 C   0  0  0  0  0  0  0  0  0  0  0  0
   26.5500  -18.6746   -8.4984 C   0  0  0  0  0  0  0  0  0  0  0  0
   27.2234  -18.1581   -7.4420 N   0  0  0  0  0  0  0  0  0  0  0  0
   27.6537  -19.1408   -6.6533 C   0  0  0  0  0  0  0  0  0  0  0  0
   28.3638  -19.0901   -5.4715 C   0  0  0  0  0  0  0  0  0  0  0  0
   28.6891  -20.2714   -4.8101 C   0  0  0  0  0  0  0  0  0  0  0  0
   28.2910  -21.4609   -5.3574 C   0  0  0  0  0  0  0  0  0  0  0  0
   27.5861  -21.4847   -6.5346 C   0  0  0  0  0  0  0  0  0  0  0  0
   27.2424  -20.3345   -7.2233 C   0  0  0  0  0  0  0  0  0  0  0  0
   26.1774  -21.2070  -11.7861 C   0  0  0  0  0  0  0  0  0  0  0  0
   25.8912  -22.3800  -12.1464 O   0  0  0  0  0  0  0  0  0  0  0  0
   27.1393  -20.5439  -12.5827 N   0  0  0  0  0  0  0  0  0  0  0  0
   27.7544  -19.2724  -12.2466 C   0  0  0  0  0  0  0  0  0  0  0  0
   27.8845  -18.5528  -13.5813 C   0  0  0  0  0  0  0  0  0  0  0  0
   27.4635  -19.5550  -14.6002 C   0  0  0  0  0  0  0  0  0  0  0  0
   27.6743  -20.9072  -13.8810 C   0  0  1  0  0  0  0  0  0  0  0  0
   29.1306  -21.1214  -13.9097 C   0  0  0  0  0  0  0  0  0  0  0  0
   29.6743  -21.9340  -12.9164 O   0  0  0  0  0  0  0  0  0  0  0  0
   29.9228  -20.6404  -14.7439 O   0  0  0  0  0  0  0  0  0  0  0  0
  1  2  1  0
  3  2  1  0
  4  3  1  0
  5  6  1  6
  5  4  1  0
  7  5  1  0
  8  7  2  0
  9  7  1  0
 10 21  1  0
 10  9  1  0
 11 12  1  0
 10 11  1  1
 12 13  2  0
 14 13  1  0
 15 14  1  0
 16 15  2  0
 17 16  1  0
 18 19  1  0
 18 17  2  0
 19 20  2  0
 20 15  1  0
 20 12  1  0
 21 22  2  0
 23 24  1  0
 23 21  1  0
 25 24  1  0
 26 27  1  0
 26 25  1  0
 27 23  1  0
 27 28  1  1
 28 29  1  0
 30 28  2  0
M  END
$$$$
