MWP.pdb
     RDKit          3D

 30 32  0  0  1  0  0  0  0  0999 V2000
   25.7966  -17.8364  -18.7286 C   0  0  0  0  0  0  0  0  0  0  0  0
   27.4070  -17.8200  -19.5644 S   0  0  0  0  0  0  0  0  0  0  0  0
   28.5970  -18.8809  -18.6586 C   0  0  0  0  0  0  0  0  0  0  0  0
   27.8043  -19.6684  -17.6466 C   0  0  0  0  0  0  0  0  0  0  0  0
   28.7023  -20.5358  -16.7993 C   0  0  2  0  0  0  0  0  0  0  0  0
   29.4176  -21.5111  -17.5918 N   0  0  0  0  0  0  0  0  0  0  0  0
   27.9448  -21.2037  -15.6931 C   0  0  0  0  0  0  0  0  0  0  0  0
   27.1800  -22.1460  -16.0113 O   0  0  0  0  0  0  0  0  0  0  0  0
   28.0639  -20.8160  -14.3500 N   0  0  0  0  0  0  0  0  0  0  0  0
   27.1079  -21.1788  -13.2807 C   0  0  1  0  0  0  0  0  0  0  0  0
   27.7422  -20.6896  -12.0421 C   0  0  0  0  0  0  0  0  0  0  0  0
   26.9997  -20.5787  -10.8141 C   0  0  0  0  0  0  0  0  0  0  0  0
   25.6423  -20.4253  -10.6466 C   0  0  0  0  0  0  0  0  0  0  0  0
   25.3825  -20.3509   -9.3187 N   0  0  0  0  0  0  0  0  0  0  0  0
   26.5163  -20.4505   -8.6278 C   0  0  0  0  0  0  0  0  0  0  0  0
   26.7348  -20.4402   -7.2656 C   0  0  0  0  0  0  0  0  0  0  0  0
   28.0297  -20.5785   -6.7728 C   0  0  0  0  0  0  0  0  0  0  0  0
   29.0589  -20.7219   -7.6634 C   0  0  0  0  0  0  0  0  0  0  0  0
   28.8155  -20.7282   -9.0139 C   0  0  0  0  0  0  0  0  0  0  0  0
   27.5446  -20.5940   -9.5449 C   0  0  0  0  0  0  0  0  0  0  0  0
   25.7408  -20.7659  -13.5891 C   0  0  0  0  0  0  0  0  0  0  0  0
   25.5393  -19.5957  -14.0106 O   0  0  0  0  0  0  0  0  0  0  0  0
   24.5882  -21.5762  -13.4703 N   0  0  0  0  0  0  0  0  0  0  0  0
   24.5836  -22.9349  -12.9583 C   0  0  0  0  0  0  0  0  0  0  0  0
   23.5585  -23.6583  -13.8196 C   0  0  0  0  0  0  0  0  0  0  0  0
   22.9468  -22.5937  -14.6635 C   0  0  0  0  0  0  0  0  0  0  0  0
   23.2191  -21.3002  -13.8617 C   0  0  1  0  0  0  0  0  0  0  0  0
   22.2440  -21.3332  -12.7590 C   0  0  0  0  0  0  0  0  0  0  0  0
   22.7176  -21.7024  -11.5012 O   0  0  0  0  0  0  0  0  0  0  0  0
   21.0307  -21.0603  -12.8492 O   0  0  0  0  0  0  0  0  0  0  0  0
  1  2  1  0
  3  2  1  0
  4  3  1  0
  5  6  1  6
  5  4  1  0
  7  5  1  0
  8  7  2  0
  9  7  1  0
 10 21  1  0
 10  9  1  0
 11 12  1  0
 10 11  1  1
 12 13  2  0
 14 13  1  0
 15 14  1  0
 16 15  2  0
 17 16  1  0
 18 19  1  0
 18 17  2  0
 19 20  2  0
 20 15  1  0
 20 12  1  0
 21 22  2  0
 23 24  1  0
 23 21  1  0
 25 24  1  0
 26 27  1  0
 26 25  1  0
 27 23  1  0
 27 28  1  1
 28 29  1  0
 30 28  2  0
M  END
$$$$
