MWP.pdb
     RDKit          3D

 30 32  0  0  1  0  0  0  0  0999 V2000
   26.7591  -16.8556  -18.7748 C   0  0  0  0  0  0  0  0  0  0  0  0
   28.3434  -16.9606  -17.8968 S   0  0  0  0  0  0  0  0  0  0  0  0
   29.1448  -18.5747  -18.2354 C   0  0  0  0  0  0  0  0  0  0  0  0
   28.2208  -19.6445  -17.7114 C   0  0  0  0  0  0  0  0  0  0  0  0
   28.9307  -20.5580  -16.7429 C   0  0  2  0  0  0  0  0  0  0  0  0
   29.6099  -21.6410  -17.4188 N   0  0  0  0  0  0  0  0  0  0  0  0
   27.9994  -21.0871  -15.6958 C   0  0  0  0  0  0  0  0  0  0  0  0
   27.0481  -21.8056  -16.0869 O   0  0  0  0  0  0  0  0  0  0  0  0
   28.1574  -20.8098  -14.3296 N   0  0  0  0  0  0  0  0  0  0  0  0
   27.1779  -21.1652  -13.2793 C   0  0  1  0  0  0  0  0  0  0  0  0
   27.8264  -20.7527  -12.0203 C   0  0  0  0  0  0  0  0  0  0  0  0
   27.0576  -20.4987  -10.8303 C   0  0  0  0  0  0  0  0  0  0  0  0
   25.7176  -20.2029  -10.7251 C   0  0  0  0  0  0  0  0  0  0  0  0
   25.4216  -20.0271   -9.4145 N   0  0  0  0  0  0  0  0  0  0  0  0
   26.5155  -20.1981   -8.6750 C   0  0  0  0  0  0  0  0  0  0  0  0
   26.6875  -20.1311   -7.3078 C   0  0  0  0  0  0  0  0  0  0  0  0
   27.9445  -20.3677   -6.7574 C   0  0  0  0  0  0  0  0  0  0  0  0
   28.9837  -20.6628   -7.5976 C   0  0  0  0  0  0  0  0  0  0  0  0
   28.7869  -20.7228   -8.9544 C   0  0  0  0  0  0  0  0  0  0  0  0
   27.5547  -20.4946   -9.5417 C   0  0  0  0  0  0  0  0  0  0  0  0
   25.8343  -20.6758  -13.5792 C   0  0  0  0  0  0  0  0  0  0  0  0
   25.6938  -19.4880  -13.9754 O   0  0  0  0  0  0  0  0  0  0  0  0
   24.6413  -21.4282  -13.4784 N   0  0  0  0  0  0  0  0  0  0  0  0
   24.5712  -22.8088  -13.0342 C   0  0  0  0  0  0  0  0  0  0  0  0
   23.4940  -23.4318  -13.9102 C   0  0  0  0  0  0  0  0  0  0  0  0
   22.9272  -22.2946  -14.6884 C   0  0  0  0  0  0  0  0  0  0  0  0
   23.2830  -21.0598  -13.8290 C   0  0  1  0  0  0  0  0  0  0  0  0
   22.3261  -21.0960  -12.7106 C   0  0  0  0  0  0  0  0  0  0  0  0
   21.0326  -20.6433  -12.9646 O   0  0  0  0  0  0  0  0  0  0  0  0
   22.5691  -21.4958  -11.5547 O   0  0  0  0  0  0  0  0  0  0  0  0
  1  2  1  0
  3  2  1  0
  4  3  1  0
  5  6  1  6
  5  4  1  0
  7  5  1  0
  8  7  2  0
  9  7  1  0
 10 21  1  0
 10  9  1  0
 11 12  1  0
 10 11  1  1
 12 13  2  0
 14 13  1  0
 15 14  1  0
 16 15  2  0
 17 16  1  0
 18 19  1  0
 18 17  2  0
 19 20  2  0
 20 15  1  0
 20 12  1  0
 21 22  2  0
 23 24  1  0
 23 21  1  0
 25 24  1  0
 26 27  1  0
 26 25  1  0
 27 23  1  0
 27 28  1  1
 28 29  1  0
 30 28  2  0
M  END
$$$$
