TKN.pdb
     RDKit          3D

 25 24  0  0  1  0  0  0  0  0999 V2000
   17.1807  -33.5784   -8.3405 C   0  0  0  0  0  0  0  0  0  0  0  0
   17.4271  -32.2499   -7.6695 C   0  0  1  0  0  0  0  0  0  0  0  0
   17.5923  -32.3408   -6.3080 O   0  0  0  0  0  0  0  0  0  0  0  0
   18.6502  -31.6279   -8.3096 C   0  0  2  0  0  0  0  0  0  0  0  0
   19.8357  -32.4130   -7.9935 N   0  0  0  0  0  0  0  0  0  0  0  0
   18.9082  -30.2429   -7.8627 C   0  0  0  0  0  0  0  0  0  0  0  0
   19.7253  -30.0072   -6.9367 O   0  0  0  0  0  0  0  0  0  0  0  0
   18.2527  -29.1001   -8.4507 N   0  0  0  0  0  0  0  0  0  0  0  0
   18.4747  -27.7693   -7.9711 C   0  0  1  0  0  0  0  0  0  0  0  0
   18.2033  -26.8161   -9.1368 C   0  0  0  0  0  0  0  0  0  0  0  0
   18.4237  -25.3867   -8.7505 C   0  0  0  0  0  0  0  0  0  0  0  0
   18.1837  -24.4354   -9.8840 C   0  0  0  0  0  0  0  0  0  0  0  0
   18.3036  -23.0020   -9.4670 C   0  0  0  0  0  0  0  0  0  0  0  0
   18.0505  -22.0891  -10.5746 N   0  0  0  0  0  0  0  0  0  0  0  0
   17.5588  -27.4023   -6.8232 C   0  0  0  0  0  0  0  0  0  0  0  0
   16.3714  -27.7953   -6.8337 O   0  0  0  0  0  0  0  0  0  0  0  0
   15.9643  -25.7168   -2.1541 N   0  0  0  0  0  0  0  0  0  0  0  0
   17.1552  -26.4437   -2.1532 C   0  0  0  0  0  0  0  0  0  0  0  0
   17.5609  -26.8636   -1.0126 O   0  0  0  0  0  0  0  0  0  0  0  0
   17.9455  -26.7481   -3.3319 C   0  0  0  0  0  0  0  0  0  0  0  0
   17.2706  -26.2979   -4.5918 C   0  0  2  0  0  0  0  0  0  0  0  0
   18.0721  -26.6187   -5.7618 N   0  0  0  0  0  0  0  0  0  0  0  0
   16.9433  -24.8619   -4.6470 C   0  0  0  0  0  0  0  0  0  0  0  0
   15.9638  -24.3755   -3.7578 O   0  0  0  0  0  0  0  0  0  0  0  0
   17.4546  -24.0165   -5.4134 O   0  0  0  0  0  0  0  0  0  0  0  0
  2  1  1  6
  3  2  1  0
  4  2  1  0
  4  5  1  1
  6  4  1  0
  6  8  1  0
  7  6  2  0
  9  8  1  0
 10 11  1  0
  9 10  1  6
 12 13  1  0
 12 11  1  0
 13 14  1  0
 15  9  1  0
 16 15  2  0
 18 17  1  0
 19 18  2  0
 20 18  1  0
 21 20  1  1
 21 23  1  0
 21 22  1  0
 22 15  1  0
 23 24  1  0
 25 23  2  0
M  END
$$$$
