TKN.pdb
     RDKit          3D

 25 24  0  0  1  0  0  0  0  0999 V2000
   26.0476  -15.2869  -15.1522 C   0  0  0  0  0  0  0  0  0  0  0  0
   26.2164  -14.8017  -16.5707 C   0  0  1  0  0  0  0  0  0  0  0  0
   26.9590  -13.6499  -16.6760 O   0  0  0  0  0  0  0  0  0  0  0  0
   26.8568  -15.9179  -17.3685 C   0  0  2  0  0  0  0  0  0  0  0  0
   27.1338  -15.4688  -18.7262 N   0  0  0  0  0  0  0  0  0  0  0  0
   26.0140  -17.1278  -17.4691 C   0  0  0  0  0  0  0  0  0  0  0  0
   24.9579  -17.1216  -18.1512 O   0  0  0  0  0  0  0  0  0  0  0  0
   26.3456  -18.3651  -16.8053 N   0  0  0  0  0  0  0  0  0  0  0  0
   25.4355  -19.4698  -16.7625 C   0  0  1  0  0  0  0  0  0  0  0  0
   26.2627  -20.7286  -16.4936 C   0  0  0  0  0  0  0  0  0  0  0  0
   25.4007  -21.9467  -16.3751 C   0  0  0  0  0  0  0  0  0  0  0  0
   26.1963  -23.2134  -16.2750 C   0  0  0  0  0  0  0  0  0  0  0  0
   25.3297  -24.4326  -16.2010 C   0  0  0  0  0  0  0  0  0  0  0  0
   26.1163  -25.6588  -16.1596 N   0  0  0  0  0  0  0  0  0  0  0  0
   24.3987  -19.3297  -15.6686 C   0  0  0  0  0  0  0  0  0  0  0  0
   24.7673  -19.0776  -14.5003 O   0  0  0  0  0  0  0  0  0  0  0  0
   19.0922  -17.1557  -14.3986 N   0  0  0  0  0  0  0  0  0  0  0  0
   20.3157  -17.7637  -14.1158 C   0  0  0  0  0  0  0  0  0  0  0  0
   20.4713  -18.1918  -12.9182 O   0  0  0  0  0  0  0  0  0  0  0  0
   21.3979  -17.9386  -15.0670 C   0  0  0  0  0  0  0  0  0  0  0  0
   21.9816  -19.3175  -15.0058 C   0  0  2  0  0  0  0  0  0  0  0  0
   23.0311  -19.4893  -15.9974 N   0  0  0  0  0  0  0  0  0  0  0  0
   21.0127  -20.4148  -15.1771 C   0  0  0  0  0  0  0  0  0  0  0  0
   20.7900  -21.2731  -14.0816 O   0  0  0  0  0  0  0  0  0  0  0  0
   20.3561  -20.6660  -16.2112 O   0  0  0  0  0  0  0  0  0  0  0  0
  2  1  1  1
  3  2  1  0
  4  2  1  0
  4  5  1  6
  6  4  1  0
  6  8  1  0
  7  6  2  0
  9  8  1  0
 10 11  1  0
  9 10  1  1
 12 13  1  0
 12 11  1  0
 13 14  1  0
 15  9  1  0
 16 15  2  0
 18 17  1  0
 19 18  2  0
 20 18  1  0
 21 20  1  6
 21 23  1  0
 21 22  1  0
 22 15  1  0
 23 24  1  0
 25 23  2  0
M  END
$$$$
