TKN.pdb
     RDKit          3D

 25 24  0  0  1  0  0  0  0  0999 V2000
   17.5735  -29.1728   -5.2519 C   0  0  0  0  0  0  0  0  0  0  0  0
   18.2220  -30.5135   -5.4931 C   0  0  1  0  0  0  0  0  0  0  0  0
   17.5052  -31.5726   -4.9893 O   0  0  0  0  0  0  0  0  0  0  0  0
   18.4182  -30.6708   -6.9861 C   0  0  2  0  0  0  0  0  0  0  0  0
   17.1275  -30.7752   -7.6532 N   0  0  0  0  0  0  0  0  0  0  0  0
   19.2011  -31.8694   -7.3537 C   0  0  0  0  0  0  0  0  0  0  0  0
   18.6281  -32.9589   -7.6091 O   0  0  0  0  0  0  0  0  0  0  0  0
   20.6411  -31.8619   -7.4415 N   0  0  0  0  0  0  0  0  0  0  0  0
   21.3882  -33.0462   -7.7412 C   0  0  1  0  0  0  0  0  0  0  0  0
   22.7930  -32.6034   -8.1551 C   0  0  0  0  0  0  0  0  0  0  0  0
   23.2422  -33.2797   -9.4128 C   0  0  0  0  0  0  0  0  0  0  0  0
   24.5510  -32.7527   -9.9197 C   0  0  0  0  0  0  0  0  0  0  0  0
   24.9390  -33.3481  -11.2380 C   0  0  0  0  0  0  0  0  0  0  0  0
   26.1666  -32.7617  -11.7607 N   0  0  0  0  0  0  0  0  0  0  0  0
   21.5052  -33.9784   -6.5544 C   0  0  0  0  0  0  0  0  0  0  0  0
   21.5161  -33.5031   -5.3975 O   0  0  0  0  0  0  0  0  0  0  0  0
   21.9045  -37.0470   -2.9695 N   0  0  0  0  0  0  0  0  0  0  0  0
   20.6580  -36.7147   -3.5008 C   0  0  0  0  0  0  0  0  0  0  0  0
   19.6651  -36.7721   -2.6929 O   0  0  0  0  0  0  0  0  0  0  0  0
   20.4183  -36.3176   -4.8761 C   0  0  0  0  0  0  0  0  0  0  0  0
   21.6768  -36.3247   -5.6897 C   0  0  2  0  0  0  0  0  0  0  0  0
   21.6005  -35.3718   -6.7854 N   0  0  0  0  0  0  0  0  0  0  0  0
   22.0493  -37.6343   -6.2537 C   0  0  0  0  0  0  0  0  0  0  0  0
   21.7002  -37.8972   -7.5937 O   0  0  0  0  0  0  0  0  0  0  0  0
   22.6544  -38.5510   -5.6562 O   0  0  0  0  0  0  0  0  0  0  0  0
  2  1  1  6
  3  2  1  0
  4  2  1  0
  4  5  1  6
  6  4  1  0
  6  8  1  0
  7  6  2  0
  9  8  1  0
 10 11  1  0
  9 10  1  1
 12 13  1  0
 12 11  1  0
 13 14  1  0
 15  9  1  0
 16 15  2  0
 18 17  1  0
 19 18  2  0
 20 18  1  0
 21 20  1  6
 21 23  1  0
 21 22  1  0
 22 15  1  0
 23 24  1  0
 25 23  2  0
M  END
$$$$
