TKN.pdb
     RDKit          3D

 25 24  0  0  1  0  0  0  0  0999 V2000
   26.8839  -10.2598  -15.2007 C   0  0  0  0  0  0  0  0  0  0  0  0
   27.2739  -10.6422  -16.6070 C   0  0  1  0  0  0  0  0  0  0  0  0
   28.4989  -11.2596  -16.6922 O   0  0  0  0  0  0  0  0  0  0  0  0
   26.1891  -11.5424  -17.1595 C   0  0  2  0  0  0  0  0  0  0  0  0
   26.5522  -12.0057  -18.4918 N   0  0  0  0  0  0  0  0  0  0  0  0
   24.8728  -10.8790  -17.2685 C   0  0  0  0  0  0  0  0  0  0  0  0
   24.6278  -10.0865  -18.2132 O   0  0  0  0  0  0  0  0  0  0  0  0
   23.8099  -11.0971  -16.3176 N   0  0  0  0  0  0  0  0  0  0  0  0
   22.5822  -10.3619  -16.3715 C   0  0  1  0  0  0  0  0  0  0  0  0
   21.4701  -11.3015  -15.9008 C   0  0  0  0  0  0  0  0  0  0  0  0
   20.1198  -10.6646  -16.0094 C   0  0  0  0  0  0  0  0  0  0  0  0
   19.0171  -11.5547  -15.5202 C   0  0  0  0  0  0  0  0  0  0  0  0
   17.6578  -10.9822  -15.7798 C   0  0  0  0  0  0  0  0  0  0  0  0
   16.5962  -11.8665  -15.3159 N   0  0  0  0  0  0  0  0  0  0  0  0
   22.5938   -9.1404  -15.4776 C   0  0  0  0  0  0  0  0  0  0  0  0
   23.1149   -9.2133  -14.3429 O   0  0  0  0  0  0  0  0  0  0  0  0
   22.0685   -4.1129  -14.0569 N   0  0  0  0  0  0  0  0  0  0  0  0
   23.1077   -4.5439  -14.8821 C   0  0  0  0  0  0  0  0  0  0  0  0
   24.0993   -3.7423  -15.0085 O   0  0  0  0  0  0  0  0  0  0  0  0
   23.1380   -5.8107  -15.5898 C   0  0  0  0  0  0  0  0  0  0  0  0
   22.0263   -6.7197  -15.1613 C   0  0  2  0  0  0  0  0  0  0  0  0
   22.0106   -7.9405  -15.9510 N   0  0  0  0  0  0  0  0  0  0  0  0
   20.6779   -6.1274  -15.2163 C   0  0  0  0  0  0  0  0  0  0  0  0
   20.2044   -5.4611  -14.0681 O   0  0  0  0  0  0  0  0  0  0  0  0
   19.8983   -6.1545  -16.1935 O   0  0  0  0  0  0  0  0  0  0  0  0
  2  1  1  1
  3  2  1  0
  4  2  1  0
  4  5  1  6
  6  4  1  0
  6  8  1  0
  7  6  2  0
  9  8  1  0
 10 11  1  0
  9 10  1  1
 12 13  1  0
 12 11  1  0
 13 14  1  0
 15  9  1  0
 16 15  2  0
 18 17  1  0
 19 18  2  0
 20 18  1  0
 21 20  1  6
 21 23  1  0
 21 22  1  0
 22 15  1  0
 23 24  1  0
 25 23  2  0
M  END
$$$$
