TKN.pdb
     RDKit          3D

 25 24  0  0  1  0  0  0  0  0999 V2000
   19.0682  -11.0546  -14.1804 C   0  0  0  0  0  0  0  0  0  0  0  0
   17.7327  -11.3674  -14.8085 C   0  0  1  0  0  0  0  0  0  0  0  0
   17.6580  -12.6292  -15.3484 O   0  0  0  0  0  0  0  0  0  0  0  0
   16.6680  -11.1827  -13.7480 C   0  0  2  0  0  0  0  0  0  0  0  0
   15.3670  -11.5798  -14.2691 N   0  0  0  0  0  0  0  0  0  0  0  0
   16.5447   -9.7880  -13.2746 C   0  0  0  0  0  0  0  0  0  0  0  0
   16.1896   -8.8713  -14.0583 O   0  0  0  0  0  0  0  0  0  0  0  0
   16.8173   -9.4015  -11.9115 N   0  0  0  0  0  0  0  0  0  0  0  0
   16.8317   -8.0297  -11.5013 C   0  0  1  0  0  0  0  0  0  0  0  0
   16.2035   -7.9667  -10.1075 C   0  0  0  0  0  0  0  0  0  0  0  0
   15.7152   -6.5904   -9.7784 C   0  0  0  0  0  0  0  0  0  0  0  0
   14.9305   -6.5427   -8.5018 C   0  0  0  0  0  0  0  0  0  0  0  0
   14.4038   -5.1733   -8.2013 C   0  0  0  0  0  0  0  0  0  0  0  0
   13.5850   -5.1567   -6.9957 N   0  0  0  0  0  0  0  0  0  0  0  0
   18.2310   -7.4574  -11.4272 C   0  0  0  0  0  0  0  0  0  0  0  0
   19.1389   -8.1209  -10.8796 O   0  0  0  0  0  0  0  0  0  0  0  0
   22.3268   -5.1847  -13.5472 N   0  0  0  0  0  0  0  0  0  0  0  0
   21.6967   -6.3936  -13.8441 C   0  0  0  0  0  0  0  0  0  0  0  0
   22.3047   -7.1603  -14.6712 O   0  0  0  0  0  0  0  0  0  0  0  0
   20.4277   -6.8289  -13.2902 C   0  0  0  0  0  0  0  0  0  0  0  0
   19.8049   -5.7789  -12.4211 C   0  0  2  0  0  0  0  0  0  0  0  0
   18.4776   -6.1785  -11.9820 N   0  0  0  0  0  0  0  0  0  0  0  0
   19.6959   -4.4434  -13.0347 C   0  0  0  0  0  0  0  0  0  0  0  0
   20.7896   -3.5649  -12.8976 O   0  0  0  0  0  0  0  0  0  0  0  0
   18.7172   -4.0025  -13.6761 O   0  0  0  0  0  0  0  0  0  0  0  0
  2  1  1  1
  3  2  1  0
  4  2  1  0
  4  5  1  6
  6  4  1  0
  6  8  1  0
  7  6  2  0
  9  8  1  0
 10 11  1  0
  9 10  1  1
 12 13  1  0
 12 11  1  0
 13 14  1  0
 15  9  1  0
 16 15  2  0
 18 17  1  0
 19 18  2  0
 20 18  1  0
 21 20  1  6
 21 23  1  0
 21 22  1  0
 22 15  1  0
 23 24  1  0
 25 23  2  0
M  END
$$$$
