TKN.pdb
     RDKit          3D

 25 24  0  0  1  0  0  0  0  0999 V2000
   25.6827  -10.5926  -14.6977 C   0  0  0  0  0  0  0  0  0  0  0  0
   25.9722  -11.3956  -15.9416 C   0  0  1  0  0  0  0  0  0  0  0  0
   27.0369  -12.2548  -15.8093 O   0  0  0  0  0  0  0  0  0  0  0  0
   24.7166  -12.1616  -16.3006 C   0  0  2  0  0  0  0  0  0  0  0  0
   24.9535  -12.9911  -17.4742 N   0  0  0  0  0  0  0  0  0  0  0  0
   23.5621  -11.2901  -16.6042 C   0  0  0  0  0  0  0  0  0  0  0  0
   23.6037  -10.4775  -17.5626 O   0  0  0  0  0  0  0  0  0  0  0  0
   22.3413  -11.3191  -15.8359 N   0  0  0  0  0  0  0  0  0  0  0  0
   21.2796  -10.3860  -16.0647 C   0  0  1  0  0  0  0  0  0  0  0  0
   19.9732  -11.0817  -15.6771 C   0  0  0  0  0  0  0  0  0  0  0  0
   18.7815  -10.2135  -15.9361 C   0  0  0  0  0  0  0  0  0  0  0  0
   17.4953  -10.8476  -15.4992 C   0  0  0  0  0  0  0  0  0  0  0  0
   16.3057   -9.9775  -15.7651 C   0  0  0  0  0  0  0  0  0  0  0  0
   15.0958  -10.5045  -15.1465 N   0  0  0  0  0  0  0  0  0  0  0  0
   21.4208   -9.1267  -15.2368 C   0  0  0  0  0  0  0  0  0  0  0  0
   21.7849   -9.2127  -14.0433 O   0  0  0  0  0  0  0  0  0  0  0  0
   23.0698   -3.3754  -15.5794 N   0  0  0  0  0  0  0  0  0  0  0  0
   22.5712   -4.5417  -14.9984 C   0  0  0  0  0  0  0  0  0  0  0  0
   22.2261   -4.4578  -13.7673 O   0  0  0  0  0  0  0  0  0  0  0  0
   22.4213   -5.8136  -15.6814 C   0  0  0  0  0  0  0  0  0  0  0  0
   21.2974   -6.6263  -15.1141 C   0  0  2  0  0  0  0  0  0  0  0  0
   21.1349   -7.8772  -15.8375 N   0  0  0  0  0  0  0  0  0  0  0  0
   19.9893   -5.9482  -15.0826 C   0  0  0  0  0  0  0  0  0  0  0  0
   19.2417   -5.9045  -16.2767 O   0  0  0  0  0  0  0  0  0  0  0  0
   19.4651   -5.3997  -14.0887 O   0  0  0  0  0  0  0  0  0  0  0  0
  2  1  1  1
  3  2  1  0
  4  2  1  0
  4  5  1  6
  6  4  1  0
  6  8  1  0
  7  6  2  0
  9  8  1  0
 10 11  1  0
  9 10  1  1
 12 13  1  0
 12 11  1  0
 13 14  1  0
 15  9  1  0
 16 15  2  0
 18 17  1  0
 19 18  2  0
 20 18  1  0
 21 20  1  6
 21 23  1  0
 21 22  1  0
 22 15  1  0
 23 24  1  0
 25 23  2  0
M  END
$$$$
