TKN.pdb
     RDKit          3D

 25 24  0  0  1  0  0  0  0  0999 V2000
   17.3408  -12.4159  -14.3345 C   0  0  0  0  0  0  0  0  0  0  0  0
   16.9892  -12.7386  -15.7657 C   0  0  1  0  0  0  0  0  0  0  0  0
   15.7431  -13.2989  -15.9157 O   0  0  0  0  0  0  0  0  0  0  0  0
   17.0928  -11.4585  -16.5675 C   0  0  2  0  0  0  0  0  0  0  0  0
   16.7213  -11.7040  -17.9544 N   0  0  0  0  0  0  0  0  0  0  0  0
   18.4512  -10.8758  -16.5730 C   0  0  0  0  0  0  0  0  0  0  0  0
   19.0682  -10.6717  -15.4969 O   0  0  0  0  0  0  0  0  0  0  0  0
   19.1385  -10.5146  -17.7890 N   0  0  0  0  0  0  0  0  0  0  0  0
   20.4275   -9.8913  -17.7744 C   0  0  1  0  0  0  0  0  0  0  0  0
   20.9119   -9.8173  -19.2238 C   0  0  0  0  0  0  0  0  0  0  0  0
   21.8465  -10.9383  -19.5567 C   0  0  0  0  0  0  0  0  0  0  0  0
   21.2636  -11.9073  -20.5410 C   0  0  0  0  0  0  0  0  0  0  0  0
   22.2056  -13.0218  -20.8776 C   0  0  0  0  0  0  0  0  0  0  0  0
   22.8997  -13.5238  -19.6985 N   0  0  0  0  0  0  0  0  0  0  0  0
   20.3914   -8.4894  -17.2046 C   0  0  0  0  0  0  0  0  0  0  0  0
   19.4170   -7.7473  -17.4577 O   0  0  0  0  0  0  0  0  0  0  0  0
   21.9099   -4.2649  -14.4881 N   0  0  0  0  0  0  0  0  0  0  0  0
   21.2851   -5.3389  -13.8535 C   0  0  0  0  0  0  0  0  0  0  0  0
   20.8975   -5.1368  -12.6492 O   0  0  0  0  0  0  0  0  0  0  0  0
   21.0513   -6.6393  -14.4544 C   0  0  0  0  0  0  0  0  0  0  0  0
   21.5289   -6.6958  -15.8737 C   0  0  2  0  0  0  0  0  0  0  0  0
   21.4678   -8.0514  -16.3960 N   0  0  0  0  0  0  0  0  0  0  0  0
   22.8941   -6.1865  -16.0947 C   0  0  0  0  0  0  0  0  0  0  0  0
   23.1725   -4.8602  -15.7077 O   0  0  0  0  0  0  0  0  0  0  0  0
   23.8471   -6.8211  -16.5975 O   0  0  0  0  0  0  0  0  0  0  0  0
  2  1  1  1
  3  2  1  0
  4  2  1  0
  4  5  1  6
  6  4  1  0
  6  8  1  0
  7  6  2  0
  9  8  1  0
 10 11  1  0
  9 10  1  6
 12 13  1  0
 12 11  1  0
 13 14  1  0
 15  9  1  0
 16 15  2  0
 18 17  1  0
 19 18  2  0
 20 18  1  0
 21 20  1  1
 21 23  1  0
 21 22  1  0
 22 15  1  0
 23 24  1  0
 25 23  2  0
M  END
$$$$
