TKN.pdb
     RDKit          3D

 25 24  0  0  1  0  0  0  0  0999 V2000
   20.1875  -12.3973  -15.6988 C   0  0  0  0  0  0  0  0  0  0  0  0
   18.8992  -12.7135  -16.4174 C   0  0  1  0  0  0  0  0  0  0  0  0
   18.8636  -13.9769  -16.9575 O   0  0  0  0  0  0  0  0  0  0  0  0
   17.7631  -12.5272  -15.4341 C   0  0  2  0  0  0  0  0  0  0  0  0
   16.4985  -12.9018  -16.0522 N   0  0  0  0  0  0  0  0  0  0  0  0
   17.6226  -11.1364  -14.9540 C   0  0  0  0  0  0  0  0  0  0  0  0
   17.3549  -10.2036  -15.7532 O   0  0  0  0  0  0  0  0  0  0  0  0
   17.7793  -10.7720  -13.5668 N   0  0  0  0  0  0  0  0  0  0  0  0
   17.7300   -9.4089  -13.1311 C   0  0  1  0  0  0  0  0  0  0  0  0
   17.0649   -9.3971  -11.7532 C   0  0  0  0  0  0  0  0  0  0  0  0
   15.5748   -9.5011  -11.8531 C   0  0  0  0  0  0  0  0  0  0  0  0
   14.9234   -9.7897  -10.5340 C   0  0  0  0  0  0  0  0  0  0  0  0
   13.4375   -9.9393  -10.6470 C   0  0  0  0  0  0  0  0  0  0  0  0
   12.8370  -10.3775   -9.3934 N   0  0  0  0  0  0  0  0  0  0  0  0
   19.1037   -8.7848  -13.0101 C   0  0  0  0  0  0  0  0  0  0  0  0
   19.8943   -9.2023  -12.1355 O   0  0  0  0  0  0  0  0  0  0  0  0
   22.8556   -5.0466  -14.4305 N   0  0  0  0  0  0  0  0  0  0  0  0
   22.5562   -6.1510  -15.2288 C   0  0  0  0  0  0  0  0  0  0  0  0
   23.4940   -6.5639  -15.9980 O   0  0  0  0  0  0  0  0  0  0  0  0
   21.2821   -6.8461  -15.2442 C   0  0  0  0  0  0  0  0  0  0  0  0
   20.7782   -7.1250  -13.8608 C   0  0  2  0  0  0  0  0  0  0  0  0
   19.4602   -7.7384  -13.8944 N   0  0  0  0  0  0  0  0  0  0  0  0
   20.7089   -5.9514  -12.9721 C   0  0  0  0  0  0  0  0  0  0  0  0
   21.8779   -5.5828  -12.2763 O   0  0  0  0  0  0  0  0  0  0  0  0
   19.7033   -5.2363  -12.7695 O   0  0  0  0  0  0  0  0  0  0  0  0
  2  1  1  1
  3  2  1  0
  4  2  1  0
  4  5  1  6
  6  4  1  0
  6  8  1  0
  7  6  2  0
  9  8  1  0
 10 11  1  0
  9 10  1  1
 12 13  1  0
 12 11  1  0
 13 14  1  0
 15  9  1  0
 16 15  2  0
 18 17  1  0
 19 18  2  0
 20 18  1  0
 21 20  1  6
 21 23  1  0
 21 22  1  0
 22 15  1  0
 23 24  1  0
 25 23  2  0
M  END
$$$$
