TKN.pdb
     RDKit          3D

 25 24  0  0  1  0  0  0  0  0999 V2000
   10.5741  -11.0505  -10.8031 C   0  0  0  0  0  0  0  0  0  0  0  0
   10.9016  -12.4570  -10.3667 C   0  0  1  0  0  0  0  0  0  0  0  0
    9.8467  -13.3307  -10.4809 O   0  0  0  0  0  0  0  0  0  0  0  0
   12.0762  -12.9362  -11.1932 C   0  0  2  0  0  0  0  0  0  0  0  0
   12.4613  -14.2804  -10.7851 N   0  0  0  0  0  0  0  0  0  0  0  0
   13.2734  -12.0787  -11.0669 C   0  0  0  0  0  0  0  0  0  0  0  0
   13.9505  -12.0707  -10.0077 O   0  0  0  0  0  0  0  0  0  0  0  0
   13.7296  -11.2171  -12.1304 N   0  0  0  0  0  0  0  0  0  0  0  0
   14.8680  -10.3621  -11.9775 C   0  0  1  0  0  0  0  0  0  0  0  0
   15.5251  -10.2316  -13.3530 C   0  0  0  0  0  0  0  0  0  0  0  0
   16.7194   -9.3298  -13.3165 C   0  0  0  0  0  0  0  0  0  0  0  0
   17.3231   -9.1108  -14.6712 C   0  0  0  0  0  0  0  0  0  0  0  0
   18.5570   -8.2635  -14.6209 C   0  0  0  0  0  0  0  0  0  0  0  0
   19.0156   -7.8888  -15.9526 N   0  0  0  0  0  0  0  0  0  0  0  0
   14.4975   -8.9794  -11.4856 C   0  0  0  0  0  0  0  0  0  0  0  0
   13.5470   -8.3694  -12.0230 O   0  0  0  0  0  0  0  0  0  0  0  0
   15.9086   -5.0199   -7.1172 N   0  0  0  0  0  0  0  0  0  0  0  0
   14.9586   -5.7277   -7.8540 C   0  0  0  0  0  0  0  0  0  0  0  0
   13.8402   -5.1349   -8.0528 O   0  0  0  0  0  0  0  0  0  0  0  0
   15.1500   -7.0600   -8.3971 C   0  0  0  0  0  0  0  0  0  0  0  0
   14.9104   -7.1031   -9.8757 C   0  0  2  0  0  0  0  0  0  0  0  0
   15.2409   -8.4085  -10.4247 N   0  0  0  0  0  0  0  0  0  0  0  0
   15.6370   -6.0863  -10.6568 C   0  0  0  0  0  0  0  0  0  0  0  0
   16.9392   -6.4000  -11.0956 O   0  0  0  0  0  0  0  0  0  0  0  0
   15.2095   -4.9556  -10.9768 O   0  0  0  0  0  0  0  0  0  0  0  0
  2  1  1  6
  3  2  1  0
  4  2  1  0
  4  5  1  1
  6  4  1  0
  6  8  1  0
  7  6  2  0
  9  8  1  0
 10 11  1  0
  9 10  1  6
 12 13  1  0
 12 11  1  0
 13 14  1  0
 15  9  1  0
 16 15  2  0
 18 17  1  0
 19 18  2  0
 20 18  1  0
 21 20  1  1
 21 23  1  0
 21 22  1  0
 22 15  1  0
 23 24  1  0
 25 23  2  0
M  END
$$$$
