TKN.pdb
     RDKit          3D

 25 24  0  0  1  0  0  0  0  0999 V2000
   15.9058  -14.5212  -11.5731 C   0  0  0  0  0  0  0  0  0  0  0  0
   16.0910  -13.0245  -11.6137 C   0  0  1  0  0  0  0  0  0  0  0  0
   16.7264  -12.5770  -12.7474 O   0  0  0  0  0  0  0  0  0  0  0  0
   14.7244  -12.3855  -11.4870 C   0  0  2  0  0  0  0  0  0  0  0  0
   13.9177  -12.6897  -12.6610 N   0  0  0  0  0  0  0  0  0  0  0  0
   14.7726  -10.9140  -11.3561 C   0  0  0  0  0  0  0  0  0  0  0  0
   14.5330  -10.1721  -12.3423 O   0  0  0  0  0  0  0  0  0  0  0  0
   15.0899  -10.2528  -10.1137 N   0  0  0  0  0  0  0  0  0  0  0  0
   15.1616   -8.8264  -10.0111 C   0  0  1  0  0  0  0  0  0  0  0  0
   14.2099   -8.4040   -8.8900 C   0  0  0  0  0  0  0  0  0  0  0  0
   12.7941   -8.3099   -9.3672 C   0  0  0  0  0  0  0  0  0  0  0  0
   11.8348   -7.9538   -8.2716 C   0  0  0  0  0  0  0  0  0  0  0  0
   10.9759   -9.1098   -7.8608 C   0  0  0  0  0  0  0  0  0  0  0  0
   10.0612   -8.7537   -6.7835 N   0  0  0  0  0  0  0  0  0  0  0  0
   16.5531   -8.3347   -9.6749 C   0  0  0  0  0  0  0  0  0  0  0  0
   17.0713   -8.6543   -8.5823 O   0  0  0  0  0  0  0  0  0  0  0  0
   21.2874   -6.2057  -10.1990 N   0  0  0  0  0  0  0  0  0  0  0  0
   20.7808   -6.6933  -11.4040 C   0  0  0  0  0  0  0  0  0  0  0  0
   21.5660   -6.6305  -12.4146 O   0  0  0  0  0  0  0  0  0  0  0  0
   19.4540   -7.2537  -11.5832 C   0  0  0  0  0  0  0  0  0  0  0  0
   18.5933   -7.0566  -10.3724 C   0  0  2  0  0  0  0  0  0  0  0  0
   17.2359   -7.5206  -10.6104 N   0  0  0  0  0  0  0  0  0  0  0  0
   18.5178   -5.6704   -9.8778 C   0  0  0  0  0  0  0  0  0  0  0  0
   19.4611   -5.2637   -8.9127 O   0  0  0  0  0  0  0  0  0  0  0  0
   17.6900   -4.8031  -10.2331 O   0  0  0  0  0  0  0  0  0  0  0  0
  2  1  1  6
  3  2  1  0
  4  2  1  0
  4  5  1  6
  6  4  1  0
  6  8  1  0
  7  6  2  0
  9  8  1  0
 10 11  1  0
  9 10  1  1
 12 13  1  0
 12 11  1  0
 13 14  1  0
 15  9  1  0
 16 15  2  0
 18 17  1  0
 19 18  2  0
 20 18  1  0
 21 20  1  6
 21 23  1  0
 21 22  1  0
 22 15  1  0
 23 24  1  0
 25 23  2  0
M  END
$$$$
