TKN.pdb
     RDKit          3D

 25 24  0  0  1  0  0  0  0  0999 V2000
   25.4376  -11.6941  -15.6012 C   0  0  0  0  0  0  0  0  0  0  0  0
   25.1647  -12.4219  -16.8942 C   0  0  1  0  0  0  0  0  0  0  0  0
   25.9114  -13.5649  -17.0531 O   0  0  0  0  0  0  0  0  0  0  0  0
   23.6864  -12.7460  -16.9396 C   0  0  2  0  0  0  0  0  0  0  0  0
   23.3818  -13.5326  -18.1271 N   0  0  0  0  0  0  0  0  0  0  0  0
   22.8220  -11.5476  -16.9726 C   0  0  0  0  0  0  0  0  0  0  0  0
   22.8282  -10.7767  -17.9656 O   0  0  0  0  0  0  0  0  0  0  0  0
   21.9352  -11.1972  -15.8898 N   0  0  0  0  0  0  0  0  0  0  0  0
   21.1371  -10.0087  -15.9183 C   0  0  1  0  0  0  0  0  0  0  0  0
   19.8544  -10.3051  -15.1385 C   0  0  0  0  0  0  0  0  0  0  0  0
   18.8200  -10.9635  -15.9974 C   0  0  0  0  0  0  0  0  0  0  0  0
   17.5817  -11.3305  -15.2363 C   0  0  0  0  0  0  0  0  0  0  0  0
   16.5359  -11.9561  -16.1068 C   0  0  0  0  0  0  0  0  0  0  0  0
   15.3207  -12.2642  -15.3634 N   0  0  0  0  0  0  0  0  0  0  0  0
   21.8297   -8.8251  -15.2776 C   0  0  0  0  0  0  0  0  0  0  0  0
   22.4836   -8.9911  -14.2244 O   0  0  0  0  0  0  0  0  0  0  0  0
   23.8845   -4.0592  -14.7279 N   0  0  0  0  0  0  0  0  0  0  0  0
   23.8264   -4.4844  -16.0555 C   0  0  0  0  0  0  0  0  0  0  0  0
   24.4417   -3.7550  -16.9106 O   0  0  0  0  0  0  0  0  0  0  0  0
   23.1311   -5.6707  -16.5199 C   0  0  0  0  0  0  0  0  0  0  0  0
   22.4575   -6.4016  -15.3985 C   0  0  2  0  0  0  0  0  0  0  0  0
   21.7185   -7.5535  -15.8897 N   0  0  0  0  0  0  0  0  0  0  0  0
   21.5376   -5.5870  -14.5846 C   0  0  0  0  0  0  0  0  0  0  0  0
   20.1688   -5.6065  -14.9204 O   0  0  0  0  0  0  0  0  0  0  0  0
   21.8515   -4.8695  -13.6099 O   0  0  0  0  0  0  0  0  0  0  0  0
  2  1  1  1
  3  2  1  0
  4  2  1  0
  4  5  1  6
  6  4  1  0
  6  8  1  0
  7  6  2  0
  9  8  1  0
 10 11  1  0
  9 10  1  1
 12 13  1  0
 12 11  1  0
 13 14  1  0
 15  9  1  0
 16 15  2  0
 18 17  1  0
 19 18  2  0
 20 18  1  0
 21 20  1  6
 21 23  1  0
 21 22  1  0
 22 15  1  0
 23 24  1  0
 25 23  2  0
M  END
$$$$
