TKN.pdb
     RDKit          3D

 25 24  0  0  1  0  0  0  0  0999 V2000
   24.3937  -10.4247  -14.8153 C   0  0  0  0  0  0  0  0  0  0  0  0
   22.9107  -10.6991  -14.7806 C   0  0  1  0  0  0  0  0  0  0  0  0
   22.5591  -11.7305  -13.9428 O   0  0  0  0  0  0  0  0  0  0  0  0
   22.2131   -9.4208  -14.3665 C   0  0  2  0  0  0  0  0  0  0  0  0
   21.1288   -9.7186  -13.4405 N   0  0  0  0  0  0  0  0  0  0  0  0
   21.6295   -8.6747  -15.5011 C   0  0  0  0  0  0  0  0  0  0  0  0
   22.1849   -7.6368  -15.9425 O   0  0  0  0  0  0  0  0  0  0  0  0
   20.4125   -9.0844  -16.1588 N   0  0  0  0  0  0  0  0  0  0  0  0
   19.8557   -8.3450  -17.2513 C   0  0  1  0  0  0  0  0  0  0  0  0
   18.9923   -9.3141  -18.0615 C   0  0  0  0  0  0  0  0  0  0  0  0
   18.4451   -8.6722  -19.2982 C   0  0  0  0  0  0  0  0  0  0  0  0
   17.6577   -9.6247  -20.1469 C   0  0  0  0  0  0  0  0  0  0  0  0
   17.1398   -8.9864  -21.3987 C   0  0  0  0  0  0  0  0  0  0  0  0
   16.5267   -7.6905  -21.1364 N   0  0  0  0  0  0  0  0  0  0  0  0
   18.9885   -7.1918  -16.7937 C   0  0  0  0  0  0  0  0  0  0  0  0
   18.3272   -7.3006  -15.7377 O   0  0  0  0  0  0  0  0  0  0  0  0
   17.5376   -2.8023  -14.5712 N   0  0  0  0  0  0  0  0  0  0  0  0
   18.7140   -3.1126  -15.2542 C   0  0  0  0  0  0  0  0  0  0  0  0
   19.5167   -2.1377  -15.4703 O   0  0  0  0  0  0  0  0  0  0  0  0
   19.0789   -4.4363  -15.7246 C   0  0  0  0  0  0  0  0  0  0  0  0
   18.4444   -4.7579  -17.0436 C   0  0  2  0  0  0  0  0  0  0  0  0
   18.9473   -6.0135  -17.5773 N   0  0  0  0  0  0  0  0  0  0  0  0
   18.6068   -3.7264  -18.0836 C   0  0  0  0  0  0  0  0  0  0  0  0
   17.5567   -2.8039  -18.2652 O   0  0  0  0  0  0  0  0  0  0  0  0
   19.5972   -3.5822  -18.8331 O   0  0  0  0  0  0  0  0  0  0  0  0
  2  1  1  1
  3  2  1  0
  4  2  1  0
  4  5  1  1
  6  4  1  0
  6  8  1  0
  7  6  2  0
  9  8  1  0
 10 11  1  0
  9 10  1  1
 12 13  1  0
 12 11  1  0
 13 14  1  0
 15  9  1  0
 16 15  2  0
 18 17  1  0
 19 18  2  0
 20 18  1  0
 21 20  1  1
 21 23  1  0
 21 22  1  0
 22 15  1  0
 23 24  1  0
 25 23  2  0
M  END
$$$$
