TKN.pdb
     RDKit          3D

 25 24  0  0  1  0  0  0  0  0999 V2000
   23.4940  -12.2554  -19.8834 C   0  0  0  0  0  0  0  0  0  0  0  0
   22.3406  -11.4160  -19.3922 C   0  0  1  0  0  0  0  0  0  0  0  0
   21.1334  -12.0731  -19.4068 O   0  0  0  0  0  0  0  0  0  0  0  0
   22.6716  -10.9501  -17.9902 C   0  0  2  0  0  0  0  0  0  0  0  0
   22.7677  -12.0925  -17.0917 N   0  0  0  0  0  0  0  0  0  0  0  0
   21.6646  -10.0286  -17.4233 C   0  0  0  0  0  0  0  0  0  0  0  0
   21.5200   -8.8690  -17.8870 O   0  0  0  0  0  0  0  0  0  0  0  0
   20.8025  -10.3966  -16.3265 N   0  0  0  0  0  0  0  0  0  0  0  0
   19.8255   -9.4947  -15.7950 C   0  0  1  0  0  0  0  0  0  0  0  0
   18.8236  -10.3310  -14.9963 C   0  0  0  0  0  0  0  0  0  0  0  0
   17.7236  -10.8600  -15.8629 C   0  0  0  0  0  0  0  0  0  0  0  0
   16.7473  -11.7105  -15.1073 C   0  0  0  0  0  0  0  0  0  0  0  0
   15.6900  -12.2961  -15.9915 C   0  0  0  0  0  0  0  0  0  0  0  0
   14.7225  -13.0827  -15.2369 N   0  0  0  0  0  0  0  0  0  0  0  0
   20.4298   -8.4556  -14.8751 C   0  0  0  0  0  0  0  0  0  0  0  0
   21.4351   -8.7492  -14.1915 O   0  0  0  0  0  0  0  0  0  0  0  0
   22.1694   -3.7268  -13.8403 N   0  0  0  0  0  0  0  0  0  0  0  0
   22.6626   -4.7451  -14.6565 C   0  0  0  0  0  0  0  0  0  0  0  0
   23.8559   -4.5897  -15.0964 O   0  0  0  0  0  0  0  0  0  0  0  0
   21.9295   -5.9406  -15.0309 C   0  0  0  0  0  0  0  0  0  0  0  0
   20.5867   -6.0058  -14.3689 C   0  0  2  0  0  0  0  0  0  0  0  0
   19.8379   -7.1712  -14.8111 N   0  0  0  0  0  0  0  0  0  0  0  0
   19.7348   -4.8192  -14.5645 C   0  0  0  0  0  0  0  0  0  0  0  0
   19.5665   -3.9428  -13.4736 O   0  0  0  0  0  0  0  0  0  0  0  0
   19.1370   -4.5041  -15.6166 O   0  0  0  0  0  0  0  0  0  0  0  0
  2  1  1  1
  3  2  1  0
  4  2  1  0
  4  5  1  1
  6  4  1  0
  6  8  1  0
  7  6  2  0
  9  8  1  0
 10 11  1  0
  9 10  1  1
 12 13  1  0
 12 11  1  0
 13 14  1  0
 15  9  1  0
 16 15  2  0
 18 17  1  0
 19 18  2  0
 20 18  1  0
 21 20  1  6
 21 23  1  0
 21 22  1  0
 22 15  1  0
 23 24  1  0
 25 23  2  0
M  END
$$$$
