WWD.pdb
     RDKit          3D

 37 40  0  0  1  0  0  0  0  0999 V2000
    7.9351  -20.3133   26.6406 N   0  0  0  0  0  0  0  0  0  0  0  0
    8.3563  -18.9660   26.4931 C   0  0  1  0  0  0  0  0  0  0  0  0
    9.7477  -18.7250   27.0923 C   0  0  0  0  0  0  0  0  0  0  0  0
    9.6720  -17.9812   28.3727 C   0  0  0  0  0  0  0  0  0  0  0  0
    9.8316  -18.4461   29.6698 C   0  0  0  0  0  0  0  0  0  0  0  0
    9.6978  -17.4301   30.5398 N   0  0  0  0  0  0  0  0  0  0  0  0
    9.4508  -16.2799   29.8743 C   0  0  0  0  0  0  0  0  0  0  0  0
    9.2301  -14.9751   30.2709 C   0  0  0  0  0  0  0  0  0  0  0  0
    8.9875  -13.9639   29.3735 C   0  0  0  0  0  0  0  0  0  0  0  0
    8.9705  -14.2973   28.0442 C   0  0  0  0  0  0  0  0  0  0  0  0
    9.1910  -15.6053   27.6284 C   0  0  0  0  0  0  0  0  0  0  0  0
    9.4322  -16.6096   28.5233 C   0  0  0  0  0  0  0  0  0  0  0  0
    8.3590  -18.4726   25.0678 C   0  0  0  0  0  0  0  0  0  0  0  0
    8.4616  -19.3754   24.1827 O   0  0  0  0  0  0  0  0  0  0  0  0
    8.2579  -17.1395   24.6760 N   0  0  0  0  0  0  0  0  0  0  0  0
    8.6072  -16.5145   23.4462 C   0  0  1  0  0  0  0  0  0  0  0  0
    8.0948  -15.1691   23.2857 C   0  0  0  0  0  0  0  0  0  0  0  0
    7.3794  -14.6601   24.4812 C   0  0  0  0  0  0  0  0  0  0  0  0
    6.6188  -15.4259   25.3776 C   0  0  0  0  0  0  0  0  0  0  0  0
    6.1439  -14.6391   26.3487 N   0  0  0  0  0  0  0  0  0  0  0  0
    6.5468  -13.3498   26.1573 C   0  0  0  0  0  0  0  0  0  0  0  0
    6.3189  -12.1841   26.8503 C   0  0  0  0  0  0  0  0  0  0  0  0
    6.8358  -10.9919   26.4302 C   0  0  0  0  0  0  0  0  0  0  0  0
    7.6097  -11.0232   25.2527 C   0  0  0  0  0  0  0  0  0  0  0  0
    7.8309  -12.1912   24.5709 C   0  0  0  0  0  0  0  0  0  0  0  0
    7.3105  -13.3819   24.9981 C   0  0  0  0  0  0  0  0  0  0  0  0
    9.9797  -16.7846   22.9705 C   0  0  0  0  0  0  0  0  0  0  0  0
   10.7490  -17.4566   23.6824 O   0  0  0  0  0  0  0  0  0  0  0  0
   10.5008  -16.3279   21.7454 N   0  0  0  0  0  0  0  0  0  0  0  0
   11.7785  -16.8383   21.2692 C   0  0  1  0  0  0  0  0  0  0  0  0
   12.1053  -16.3414   19.8929 C   0  0  0  0  0  0  0  0  0  0  0  0
   11.6813  -17.2503   18.8049 C   0  0  0  0  0  0  0  0  0  0  0  0
   11.4052  -18.4442   19.0160 O   0  0  0  0  0  0  0  0  0  0  0  0
   12.7925  -16.1801   22.1884 C   0  0  0  0  0  0  0  0  0  0  0  0
   12.4323  -15.0814   22.9479 O   0  0  0  0  0  0  0  0  0  0  0  0
   11.5922  -16.7431   17.5006 O   0  0  0  0  0  0  0  0  0  0  0  0
   13.9691  -16.5797   22.3070 O   0  0  0  0  0  0  0  0  0  0  0  0
  2  1  1  6
  3  2  1  0
  3  4  1  0
  4  5  2  0
  5  6  1  0
  7  6  1  0
  8  7  2  0
  9  8  1  0
 10 11  1  0
 10  9  2  0
 11 12  2  0
 12  4  1  0
 12  7  1  0
 13  2  1  0
 13 14  2  0
 15 13  1  0
 16 17  1  1
 16 15  1  0
 18 26  1  0
 18 17  1  0
 19 18  2  0
 20 19  1  0
 20 21  1  0
 21 22  1  0
 21 26  2  0
 22 23  2  0
 23 24  1  0
 25 24  2  0
 26 25  1  0
 27 16  1  0
 28 27  2  0
 29 27  1  0
 30 29  1  0
 30 31  1  6
 32 31  1  0
 33 32  2  0
 34 30  1  0
 34 35  1  0
 36 32  1  0
 37 34  2  0
M  END
$$$$
