WWD.pdb
     RDKit          3D

 37 40  0  0  1  0  0  0  0  0999 V2000
    8.8000  -17.8548   21.2794 N   0  0  0  0  0  0  0  0  0  0  0  0
    8.2884  -16.5705   21.6005 C   0  0  1  0  0  0  0  0  0  0  0  0
    7.0323  -16.2277   20.7893 C   0  0  0  0  0  0  0  0  0  0  0  0
    7.3432  -15.3322   19.6493 C   0  0  0  0  0  0  0  0  0  0  0  0
    7.3031  -15.5962   18.2881 C   0  0  0  0  0  0  0  0  0  0  0  0
    7.6468  -14.4950   17.5980 N   0  0  0  0  0  0  0  0  0  0  0  0
    7.9216  -13.4818   18.4494 C   0  0  0  0  0  0  0  0  0  0  0  0
    8.3201  -12.1703   18.2769 C   0  0  0  0  0  0  0  0  0  0  0  0
    8.5473  -11.3247   19.3352 C   0  0  0  0  0  0  0  0  0  0  0  0
    8.3628  -11.8338   20.5943 C   0  0  0  0  0  0  0  0  0  0  0  0
    7.9617  -13.1511   20.7851 C   0  0  0  0  0  0  0  0  0  0  0  0
    7.7363  -13.9904   19.7305 C   0  0  0  0  0  0  0  0  0  0  0  0
    7.9782  -16.3776   23.0638 C   0  0  0  0  0  0  0  0  0  0  0  0
    7.3012  -15.3416   23.3417 O   0  0  0  0  0  0  0  0  0  0  0  0
    8.3712  -17.2331   24.0907 N   0  0  0  0  0  0  0  0  0  0  0  0
    9.3900  -17.0821   25.0728 C   0  0  1  0  0  0  0  0  0  0  0  0
    9.4674  -15.7620   25.6644 C   0  0  0  0  0  0  0  0  0  0  0  0
    8.1416  -15.1563   25.9389 C   0  0  0  0  0  0  0  0  0  0  0  0
    6.9090  -15.8266   25.9314 C   0  0  0  0  0  0  0  0  0  0  0  0
    5.9315  -14.9712   26.2486 N   0  0  0  0  0  0  0  0  0  0  0  0
    6.4422  -13.7265   26.4747 C   0  0  0  0  0  0  0  0  0  0  0  0
    5.8655  -12.5235   26.8080 C   0  0  0  0  0  0  0  0  0  0  0  0
    6.6147  -11.3924   26.9645 C   0  0  0  0  0  0  0  0  0  0  0  0
    8.0034  -11.5266   26.7647 C   0  0  0  0  0  0  0  0  0  0  0  0
    8.5671  -12.7311   26.4337 C   0  0  0  0  0  0  0  0  0  0  0  0
    7.8104  -13.8601   26.2793 C   0  0  0  0  0  0  0  0  0  0  0  0
    9.5807  -18.2437   25.9657 C   0  0  0  0  0  0  0  0  0  0  0  0
    8.9276  -19.2834   25.7592 O   0  0  0  0  0  0  0  0  0  0  0  0
   10.4634  -18.2675   27.0617 N   0  0  0  0  0  0  0  0  0  0  0  0
   11.3845  -19.3834   27.2227 C   0  0  1  0  0  0  0  0  0  0  0  0
   12.4962  -19.3451   26.2174 C   0  0  0  0  0  0  0  0  0  0  0  0
   12.4627  -20.4518   25.2358 C   0  0  0  0  0  0  0  0  0  0  0  0
   11.5834  -21.3305   25.2657 O   0  0  0  0  0  0  0  0  0  0  0  0
   12.0429  -19.1140   28.5645 C   0  0  0  0  0  0  0  0  0  0  0  0
   12.8384  -20.0794   29.1551 O   0  0  0  0  0  0  0  0  0  0  0  0
   13.4557  -20.5048   24.2471 O   0  0  0  0  0  0  0  0  0  0  0  0
   11.9082  -18.0421   29.1898 O   0  0  0  0  0  0  0  0  0  0  0  0
  2  1  1  1
  3  2  1  0
  3  4  1  0
  4  5  2  0
  5  6  1  0
  7  6  1  0
  8  7  2  0
  9  8  1  0
 10 11  1  0
 10  9  2  0
 11 12  2  0
 12  4  1  0
 12  7  1  0
 13  2  1  0
 13 14  2  0
 15 13  1  0
 16 17  1  1
 16 15  1  0
 18 26  1  0
 18 17  1  0
 19 18  2  0
 20 19  1  0
 20 21  1  0
 21 22  1  0
 21 26  2  0
 22 23  2  0
 23 24  1  0
 25 24  2  0
 26 25  1  0
 27 16  1  0
 28 27  2  0
 29 27  1  0
 30 29  1  0
 30 31  1  6
 32 31  1  0
 33 32  2  0
 34 30  1  0
 34 35  1  0
 36 32  1  0
 37 34  2  0
M  END
$$$$
