WWD.pdb
     RDKit          3D

 37 40  0  0  1  0  0  0  0  0999 V2000
    7.4915  -18.1102   19.3773 N   0  0  0  0  0  0  0  0  0  0  0  0
    8.5393  -18.4110   20.2861 C   0  0  1  0  0  0  0  0  0  0  0  0
    9.8326  -18.8142   19.5664 C   0  0  0  0  0  0  0  0  0  0  0  0
    9.6170  -19.9624   18.6534 C   0  0  0  0  0  0  0  0  0  0  0  0
    9.5229  -19.9791   17.2696 C   0  0  0  0  0  0  0  0  0  0  0  0
    9.3406  -21.2392   16.8385 N   0  0  0  0  0  0  0  0  0  0  0  0
    9.3074  -22.0881   17.8897 C   0  0  0  0  0  0  0  0  0  0  0  0
    9.1418  -23.4545   18.0095 C   0  0  0  0  0  0  0  0  0  0  0  0
    9.1381  -24.0916   19.2264 C   0  0  0  0  0  0  0  0  0  0  0  0
    9.3069  -23.3128   20.3415 C   0  0  0  0  0  0  0  0  0  0  0  0
    9.4750  -21.9368   20.2382 C   0  0  0  0  0  0  0  0  0  0  0  0
    9.4784  -21.3052   19.0263 C   0  0  0  0  0  0  0  0  0  0  0  0
    8.8582  -17.2969   21.2514 C   0  0  0  0  0  0  0  0  0  0  0  0
    9.6139  -16.3857   20.7956 O   0  0  0  0  0  0  0  0  0  0  0  0
    8.3922  -17.2068   22.5611 N   0  0  0  0  0  0  0  0  0  0  0  0
    8.7375  -16.2958   23.5984 C   0  0  1  0  0  0  0  0  0  0  0  0
    7.6164  -15.8224   24.3842 C   0  0  0  0  0  0  0  0  0  0  0  0
    7.9400  -14.6502   25.2335 C   0  0  0  0  0  0  0  0  0  0  0  0
    7.6897  -13.3063   24.9176 C   0  0  0  0  0  0  0  0  0  0  0  0
    8.0892  -12.5263   25.9274 N   0  0  0  0  0  0  0  0  0  0  0  0
    8.6117  -13.2824   26.9357 C   0  0  0  0  0  0  0  0  0  0  0  0
    9.1615  -12.9662   28.1558 C   0  0  0  0  0  0  0  0  0  0  0  0
    9.6387  -13.9322   28.9950 C   0  0  0  0  0  0  0  0  0  0  0  0
    9.5381  -15.2630   28.5420 C   0  0  0  0  0  0  0  0  0  0  0  0
    8.9871  -15.5662   27.3244 C   0  0  0  0  0  0  0  0  0  0  0  0
    8.5106  -14.5934   26.4893 C   0  0  0  0  0  0  0  0  0  0  0  0
    9.9927  -16.6034   24.3143 C   0  0  0  0  0  0  0  0  0  0  0  0
   10.0604  -17.6356   25.0075 O   0  0  0  0  0  0  0  0  0  0  0  0
   11.1474  -15.7996   24.2760 N   0  0  0  0  0  0  0  0  0  0  0  0
   12.4276  -16.3547   24.6916 C   0  0  1  0  0  0  0  0  0  0  0  0
   13.5785  -15.4894   24.2737 C   0  0  0  0  0  0  0  0  0  0  0  0
   14.8663  -16.2090   24.1591 C   0  0  0  0  0  0  0  0  0  0  0  0
   14.9663  -17.4219   24.4142 O   0  0  0  0  0  0  0  0  0  0  0  0
   12.3826  -16.2641   26.2069 C   0  0  0  0  0  0  0  0  0  0  0  0
   12.7959  -17.3341   26.9800 O   0  0  0  0  0  0  0  0  0  0  0  0
   16.0024  -15.4950   23.7519 O   0  0  0  0  0  0  0  0  0  0  0  0
   11.9835  -15.2529   26.8203 O   0  0  0  0  0  0  0  0  0  0  0  0
  2  1  1  6
  3  2  1  0
  3  4  1  0
  4  5  2  0
  5  6  1  0
  7  6  1  0
  8  7  2  0
  9  8  1  0
 10 11  1  0
 10  9  2  0
 11 12  2  0
 12  4  1  0
 12  7  1  0
 13  2  1  0
 13 14  2  0
 15 13  1  0
 16 17  1  1
 16 15  1  0
 18 26  1  0
 18 17  1  0
 19 18  2  0
 20 19  1  0
 20 21  1  0
 21 22  1  0
 21 26  2  0
 22 23  2  0
 23 24  1  0
 25 24  2  0
 26 25  1  0
 27 16  1  0
 28 27  2  0
 29 27  1  0
 30 29  1  0
 30 31  1  6
 32 31  1  0
 33 32  2  0
 34 30  1  0
 34 35  1  0
 36 32  1  0
 37 34  2  0
M  END
$$$$
