WWD.pdb
     RDKit          3D

 37 40  0  0  1  0  0  0  0  0999 V2000
    9.6223  -17.6661   19.6965 N   0  0  0  0  0  0  0  0  0  0  0  0
   10.6624  -16.7612   20.0341 C   0  0  1  0  0  0  0  0  0  0  0  0
   10.9657  -15.7770   18.8973 C   0  0  0  0  0  0  0  0  0  0  0  0
    9.7246  -15.2830   18.2538 C   0  0  0  0  0  0  0  0  0  0  0  0
    9.2245  -15.5508   16.9880 C   0  0  0  0  0  0  0  0  0  0  0  0
    8.0571  -14.9080   16.8117 N   0  0  0  0  0  0  0  0  0  0  0  0
    7.7425  -14.2061   17.9231 C   0  0  0  0  0  0  0  0  0  0  0  0
    6.6859  -13.3854   18.2676 C   0  0  0  0  0  0  0  0  0  0  0  0
    6.6028  -12.7667   19.4912 C   0  0  0  0  0  0  0  0  0  0  0  0
    7.6228  -12.9936   20.3780 C   0  0  0  0  0  0  0  0  0  0  0  0
    8.6930  -13.8168   20.0471 C   0  0  0  0  0  0  0  0  0  0  0  0
    8.7733  -14.4312   18.8291 C   0  0  0  0  0  0  0  0  0  0  0  0
   10.4088  -15.9713   21.2937 C   0  0  0  0  0  0  0  0  0  0  0  0
   11.4257  -15.3926   21.7835 O   0  0  0  0  0  0  0  0  0  0  0  0
    9.1757  -15.8401   21.9285 N   0  0  0  0  0  0  0  0  0  0  0  0
    8.8644  -15.6939   23.3094 C   0  0  1  0  0  0  0  0  0  0  0  0
    7.4608  -15.4734   23.5918 C   0  0  0  0  0  0  0  0  0  0  0  0
    7.1880  -15.1263   25.0079 C   0  0  0  0  0  0  0  0  0  0  0  0
    6.8146  -16.0219   26.0213 C   0  0  0  0  0  0  0  0  0  0  0  0
    6.6790  -15.3614   27.1759 N   0  0  0  0  0  0  0  0  0  0  0  0
    6.9435  -14.0346   26.9999 C   0  0  0  0  0  0  0  0  0  0  0  0
    6.9290  -12.9552   27.8517 C   0  0  0  0  0  0  0  0  0  0  0  0
    7.2242  -11.6962   27.4127 C   0  0  0  0  0  0  0  0  0  0  0  0
    7.5409  -11.5661   26.0455 C   0  0  0  0  0  0  0  0  0  0  0  0
    7.5532  -12.6495   25.2062 C   0  0  0  0  0  0  0  0  0  0  0  0
    7.2571  -13.9078   25.6532 C   0  0  0  0  0  0  0  0  0  0  0  0
    9.6137  -16.5829   24.2211 C   0  0  0  0  0  0  0  0  0  0  0  0
    9.5289  -16.4045   25.4504 O   0  0  0  0  0  0  0  0  0  0  0  0
   10.4395  -17.6414   23.7987 N   0  0  0  0  0  0  0  0  0  0  0  0
   11.1228  -18.4629   24.7876 C   0  0  1  0  0  0  0  0  0  0  0  0
   11.7236  -19.6941   24.1783 C   0  0  0  0  0  0  0  0  0  0  0  0
   12.4498  -20.5525   25.1401 C   0  0  0  0  0  0  0  0  0  0  0  0
   12.3800  -21.7933   25.0964 O   0  0  0  0  0  0  0  0  0  0  0  0
   12.3018  -17.6053   25.2130 C   0  0  0  0  0  0  0  0  0  0  0  0
   13.2423  -17.2046   24.2812 O   0  0  0  0  0  0  0  0  0  0  0  0
   13.2361  -19.9414   26.1274 O   0  0  0  0  0  0  0  0  0  0  0  0
   12.4832  -17.2261   26.3884 O   0  0  0  0  0  0  0  0  0  0  0  0
  2  1  1  6
  3  2  1  0
  3  4  1  0
  4  5  2  0
  5  6  1  0
  7  6  1  0
  8  7  2  0
  9  8  1  0
 10 11  1  0
 10  9  2  0
 11 12  2  0
 12  4  1  0
 12  7  1  0
 13  2  1  0
 13 14  2  0
 15 13  1  0
 16 17  1  6
 16 15  1  0
 18 26  1  0
 18 17  1  0
 19 18  2  0
 20 19  1  0
 20 21  1  0
 21 22  1  0
 21 26  2  0
 22 23  2  0
 23 24  1  0
 25 24  2  0
 26 25  1  0
 27 16  1  0
 28 27  2  0
 29 27  1  0
 30 29  1  0
 30 31  1  6
 32 31  1  0
 33 32  2  0
 34 30  1  0
 34 35  1  0
 36 32  1  0
 37 34  2  0
M  END
$$$$
