WWD.pdb
     RDKit          3D

 37 40  0  0  1  0  0  0  0  0999 V2000
    8.4166  -16.4743   21.3149 N   0  0  0  0  0  0  0  0  0  0  0  0
    8.9976  -15.3065   21.8745 C   0  0  1  0  0  0  0  0  0  0  0  0
    8.0784  -14.0849   21.7491 C   0  0  0  0  0  0  0  0  0  0  0  0
    7.7533  -13.7863   20.3336 C   0  0  0  0  0  0  0  0  0  0  0  0
    6.5169  -13.7428   19.7063 C   0  0  0  0  0  0  0  0  0  0  0  0
    6.6718  -13.4162   18.4116 N   0  0  0  0  0  0  0  0  0  0  0  0
    7.9819  -13.2341   18.1335 C   0  0  0  0  0  0  0  0  0  0  0  0
    8.6782  -12.9031   16.9871 C   0  0  0  0  0  0  0  0  0  0  0  0
   10.0465  -12.7853   16.9651 C   0  0  0  0  0  0  0  0  0  0  0  0
   10.7135  -13.0116   18.1409 C   0  0  0  0  0  0  0  0  0  0  0  0
   10.0278  -13.3451   19.3032 C   0  0  0  0  0  0  0  0  0  0  0  0
    8.6664  -13.4617   19.3225 C   0  0  0  0  0  0  0  0  0  0  0  0
    9.4040  -15.4510   23.3198 C   0  0  0  0  0  0  0  0  0  0  0  0
   10.0063  -14.4507   23.8152 O   0  0  0  0  0  0  0  0  0  0  0  0
    9.1675  -16.5697   24.1157 N   0  0  0  0  0  0  0  0  0  0  0  0
    9.6224  -16.8753   25.4291 C   0  0  1  0  0  0  0  0  0  0  0  0
    8.5852  -16.8851   26.4403 C   0  0  0  0  0  0  0  0  0  0  0  0
    7.5861  -15.8012   26.2759 C   0  0  0  0  0  0  0  0  0  0  0  0
    6.2610  -15.9572   25.8419 C   0  0  0  0  0  0  0  0  0  0  0  0
    5.6470  -14.7695   25.8402 N   0  0  0  0  0  0  0  0  0  0  0  0
    6.5013  -13.7907   26.2565 C   0  0  0  0  0  0  0  0  0  0  0  0
    6.3642  -12.4313   26.4123 C   0  0  0  0  0  0  0  0  0  0  0  0
    7.4028  -11.6540   26.8390 C   0  0  0  0  0  0  0  0  0  0  0  0
    8.6160  -12.3192   27.1073 C   0  0  0  0  0  0  0  0  0  0  0  0
    8.7404  -13.6749   26.9495 C   0  0  0  0  0  0  0  0  0  0  0  0
    7.6955  -14.4473   26.5223 C   0  0  0  0  0  0  0  0  0  0  0  0
   10.6633  -17.9209   25.5073 C   0  0  0  0  0  0  0  0  0  0  0  0
   10.3794  -19.0877   25.1782 O   0  0  0  0  0  0  0  0  0  0  0  0
   11.9843  -17.6970   25.9382 N   0  0  0  0  0  0  0  0  0  0  0  0
   12.9116  -18.8153   26.0345 C   0  0  1  0  0  0  0  0  0  0  0  0
   14.3406  -18.3708   25.9440 C   0  0  0  0  0  0  0  0  0  0  0  0
   14.6502  -17.5704   24.7387 C   0  0  0  0  0  0  0  0  0  0  0  0
   15.3207  -16.5249   24.7984 O   0  0  0  0  0  0  0  0  0  0  0  0
   12.7309  -19.3092   27.4593 C   0  0  0  0  0  0  0  0  0  0  0  0
   13.4660  -20.3865   27.9203 O   0  0  0  0  0  0  0  0  0  0  0  0
   14.1685  -18.0095   23.4971 O   0  0  0  0  0  0  0  0  0  0  0  0
   11.9355  -18.7885   28.2682 O   0  0  0  0  0  0  0  0  0  0  0  0
  2  1  1  1
  3  2  1  0
  3  4  1  0
  4  5  2  0
  5  6  1  0
  7  6  1  0
  8  7  2  0
  9  8  1  0
 10 11  1  0
 10  9  2  0
 11 12  2  0
 12  4  1  0
 12  7  1  0
 13  2  1  0
 13 14  2  0
 15 13  1  0
 16 17  1  1
 16 15  1  0
 18 26  1  0
 18 17  1  0
 19 18  2  0
 20 19  1  0
 20 21  1  0
 21 22  1  0
 21 26  2  0
 22 23  2  0
 23 24  1  0
 25 24  2  0
 26 25  1  0
 27 16  1  0
 28 27  2  0
 29 27  1  0
 30 29  1  0
 30 31  1  1
 32 31  1  0
 33 32  2  0
 34 30  1  0
 34 35  1  0
 36 32  1  0
 37 34  2  0
M  END
$$$$
