WWD.pdb
     RDKit          3D

 37 40  0  0  1  0  0  0  0  0999 V2000
    6.2221  -17.7406   24.5434 N   0  0  0  0  0  0  0  0  0  0  0  0
    7.2143  -16.8696   24.0226 C   0  0  1  0  0  0  0  0  0  0  0  0
    7.9811  -16.1364   25.1306 C   0  0  0  0  0  0  0  0  0  0  0  0
    7.1065  -15.1983   25.8744 C   0  0  0  0  0  0  0  0  0  0  0  0
    5.8830  -15.4336   26.4841 C   0  0  0  0  0  0  0  0  0  0  0  0
    5.4361  -14.3060   27.0637 N   0  0  0  0  0  0  0  0  0  0  0  0
    6.3206  -13.3029   26.8682 C   0  0  0  0  0  0  0  0  0  0  0  0
    6.3513  -11.9712   27.2346 C   0  0  0  0  0  0  0  0  0  0  0  0
    7.3893  -11.1380   26.8954 C   0  0  0  0  0  0  0  0  0  0  0  0
    8.4151  -11.6807   26.1662 C   0  0  0  0  0  0  0  0  0  0  0  0
    8.3997  -13.0187   25.7897 C   0  0  0  0  0  0  0  0  0  0  0  0
    7.3658  -13.8456   26.1285 C   0  0  0  0  0  0  0  0  0  0  0  0
    8.2140  -17.5441   23.1168 C   0  0  0  0  0  0  0  0  0  0  0  0
    8.1647  -18.8116   23.1051 O   0  0  0  0  0  0  0  0  0  0  0  0
    9.1513  -16.8890   22.3211 N   0  0  0  0  0  0  0  0  0  0  0  0
   10.1112  -17.4143   21.4113 C   0  0  1  0  0  0  0  0  0  0  0  0
   10.0910  -16.8082   20.0957 C   0  0  0  0  0  0  0  0  0  0  0  0
    8.8220  -16.1058   19.7855 C   0  0  0  0  0  0  0  0  0  0  0  0
    7.6621  -16.6902   19.2547 C   0  0  0  0  0  0  0  0  0  0  0  0
    6.7081  -15.7615   19.1315 N   0  0  0  0  0  0  0  0  0  0  0  0
    7.1658  -14.5487   19.5571 C   0  0  0  0  0  0  0  0  0  0  0  0
    6.5928  -13.3003   19.6195 C   0  0  0  0  0  0  0  0  0  0  0  0
    7.2870  -12.2192   20.0826 C   0  0  0  0  0  0  0  0  0  0  0  0
    8.6161  -12.4535   20.4886 C   0  0  0  0  0  0  0  0  0  0  0  0
    9.1763  -13.7026   20.4229 C   0  0  0  0  0  0  0  0  0  0  0  0
    8.4746  -14.7810   19.9586 C   0  0  0  0  0  0  0  0  0  0  0  0
   11.4299  -17.7280   21.9992 C   0  0  0  0  0  0  0  0  0  0  0  0
   12.2222  -18.4499   21.3656 O   0  0  0  0  0  0  0  0  0  0  0  0
   11.8718  -17.2655   23.2529 N   0  0  0  0  0  0  0  0  0  0  0  0
   13.0719  -17.8337   23.8500 C   0  0  1  0  0  0  0  0  0  0  0  0
   14.1851  -16.8330   23.9370 C   0  0  0  0  0  0  0  0  0  0  0  0
   14.7273  -16.4155   22.6251 C   0  0  0  0  0  0  0  0  0  0  0  0
   14.8955  -17.2244   21.6959 O   0  0  0  0  0  0  0  0  0  0  0  0
   12.6620  -18.1088   25.2862 C   0  0  0  0  0  0  0  0  0  0  0  0
   13.5595  -18.6844   26.1674 O   0  0  0  0  0  0  0  0  0  0  0  0
   15.0599  -15.0668   22.4328 O   0  0  0  0  0  0  0  0  0  0  0  0
   11.5298  -17.8402   25.7380 O   0  0  0  0  0  0  0  0  0  0  0  0
  2  1  1  1
  3  2  1  0
  3  4  1  0
  4  5  2  0
  5  6  1  0
  7  6  1  0
  8  7  2  0
  9  8  1  0
 10 11  1  0
 10  9  2  0
 11 12  2  0
 12  4  1  0
 12  7  1  0
 13  2  1  0
 13 14  2  0
 15 13  1  0
 16 17  1  6
 16 15  1  0
 18 26  1  0
 18 17  1  0
 19 18  2  0
 20 19  1  0
 20 21  1  0
 21 22  1  0
 21 26  2  0
 22 23  2  0
 23 24  1  0
 25 24  2  0
 26 25  1  0
 27 16  1  0
 28 27  2  0
 29 27  1  0
 30 29  1  0
 30 31  1  1
 32 31  1  0
 33 32  2  0
 34 30  1  0
 34 35  1  0
 36 32  1  0
 37 34  2  0
M  END
$$$$
