WWD.pdb
     RDKit          3D

 37 40  0  0  1  0  0  0  0  0999 V2000
   11.5789  -16.6353   19.1445 N   0  0  0  0  0  0  0  0  0  0  0  0
   10.4460  -16.1843   19.8708 C   0  0  1  0  0  0  0  0  0  0  0  0
    9.1476  -16.8417   19.3858 C   0  0  0  0  0  0  0  0  0  0  0  0
    7.9702  -15.9731   19.6262 C   0  0  0  0  0  0  0  0  0  0  0  0
    6.6202  -16.2857   19.5633 C   0  0  0  0  0  0  0  0  0  0  0  0
    5.8850  -15.2029   19.8700 N   0  0  0  0  0  0  0  0  0  0  0  0
    6.6945  -14.1553   20.1421 C   0  0  0  0  0  0  0  0  0  0  0  0
    6.4678  -12.8395   20.4968 C   0  0  0  0  0  0  0  0  0  0  0  0
    7.4907  -11.9491   20.7151 C   0  0  0  0  0  0  0  0  0  0  0  0
    8.7704  -12.4169   20.5664 C   0  0  0  0  0  0  0  0  0  0  0  0
    9.0157  -13.7380   20.2103 C   0  0  0  0  0  0  0  0  0  0  0  0
    7.9963  -14.6219   19.9937 C   0  0  0  0  0  0  0  0  0  0  0  0
   10.5511  -16.3800   21.3626 C   0  0  0  0  0  0  0  0  0  0  0  0
   11.4393  -17.2036   21.7392 O   0  0  0  0  0  0  0  0  0  0  0  0
    9.7661  -15.7370   22.3173 N   0  0  0  0  0  0  0  0  0  0  0  0
    9.7082  -15.9126   23.7283 C   0  0  1  0  0  0  0  0  0  0  0  0
    8.5283  -15.3559   24.3580 C   0  0  0  0  0  0  0  0  0  0  0  0
    8.5116  -15.5157   25.8326 C   0  0  0  0  0  0  0  0  0  0  0  0
    7.8326  -16.5134   26.5482 C   0  0  0  0  0  0  0  0  0  0  0  0
    8.0641  -16.3632   27.8565 N   0  0  0  0  0  0  0  0  0  0  0  0
    8.8803  -15.2922   28.0761 C   0  0  0  0  0  0  0  0  0  0  0  0
    9.3903  -14.7216   29.2186 C   0  0  0  0  0  0  0  0  0  0  0  0
   10.1903  -13.6159   29.1676 C   0  0  0  0  0  0  0  0  0  0  0  0
   10.4605  -13.0950   27.8862 C   0  0  0  0  0  0  0  0  0  0  0  0
    9.9475  -13.6730   26.7545 C   0  0  0  0  0  0  0  0  0  0  0  0
    9.1474  -14.7808   26.8131 C   0  0  0  0  0  0  0  0  0  0  0  0
   10.1943  -17.2181   24.2206 C   0  0  0  0  0  0  0  0  0  0  0  0
    9.5859  -18.2552   23.8970 O   0  0  0  0  0  0  0  0  0  0  0  0
   11.3185  -17.3863   25.0505 N   0  0  0  0  0  0  0  0  0  0  0  0
   11.7387  -18.7265   25.4340 C   0  0  1  0  0  0  0  0  0  0  0  0
   13.1907  -18.9650   25.1461 C   0  0  0  0  0  0  0  0  0  0  0  0
   13.6945  -20.2732   25.6194 C   0  0  0  0  0  0  0  0  0  0  0  0
   12.9619  -21.0839   26.2130 O   0  0  0  0  0  0  0  0  0  0  0  0
   11.6224  -18.7191   26.9482 C   0  0  0  0  0  0  0  0  0  0  0  0
   11.9183  -17.5722   27.6628 O   0  0  0  0  0  0  0  0  0  0  0  0
   15.0386  -20.6001   25.3893 O   0  0  0  0  0  0  0  0  0  0  0  0
   11.2651  -19.7141   27.6119 O   0  0  0  0  0  0  0  0  0  0  0  0
  2  1  1  6
  3  2  1  0
  3  4  1  0
  4  5  2  0
  5  6  1  0
  7  6  1  0
  8  7  2  0
  9  8  1  0
 10 11  1  0
 10  9  2  0
 11 12  2  0
 12  4  1  0
 12  7  1  0
 13  2  1  0
 13 14  2  0
 15 13  1  0
 16 17  1  6
 16 15  1  0
 18 26  1  0
 18 17  1  0
 19 18  2  0
 20 19  1  0
 20 21  1  0
 21 22  1  0
 21 26  2  0
 22 23  2  0
 23 24  1  0
 25 24  2  0
 26 25  1  0
 27 16  1  0
 28 27  2  0
 29 27  1  0
 30 29  1  0
 30 31  1  1
 32 31  1  0
 33 32  2  0
 34 30  1  0
 34 35  1  0
 36 32  1  0
 37 34  2  0
M  END
$$$$
