WWD.pdb
     RDKit          3D

 37 40  0  0  1  0  0  0  0  0999 V2000
    5.5163  -19.6713   22.3286 N   0  0  0  0  0  0  0  0  0  0  0  0
    6.4959  -19.6874   23.3554 C   0  0  1  0  0  0  0  0  0  0  0  0
    7.4302  -20.8991   23.2459 C   0  0  0  0  0  0  0  0  0  0  0  0
    6.7259  -22.1650   23.5616 C   0  0  0  0  0  0  0  0  0  0  0  0
    7.1813  -23.4716   23.4651 C   0  0  0  0  0  0  0  0  0  0  0  0
    6.2213  -24.3219   23.8684 N   0  0  0  0  0  0  0  0  0  0  0  0
    5.1189  -23.6334   24.2393 C   0  0  0  0  0  0  0  0  0  0  0  0
    3.8755  -24.0043   24.7136 C   0  0  0  0  0  0  0  0  0  0  0  0
    2.8996  -23.0866   25.0172 C   0  0  0  0  0  0  0  0  0  0  0  0
    3.2045  -21.7635   24.8304 C   0  0  0  0  0  0  0  0  0  0  0  0
    4.4509  -21.3735   24.3542 C   0  0  0  0  0  0  0  0  0  0  0  0
    5.4202  -22.2885   24.0529 C   0  0  0  0  0  0  0  0  0  0  0  0
    7.3398  -18.4392   23.4232 C   0  0  0  0  0  0  0  0  0  0  0  0
    7.5104  -17.8406   22.3179 O   0  0  0  0  0  0  0  0  0  0  0  0
    7.9203  -17.9202   24.5784 N   0  0  0  0  0  0  0  0  0  0  0  0
    8.8564  -16.8606   24.7396 C   0  0  1  0  0  0  0  0  0  0  0  0
    8.7495  -16.1463   25.9954 C   0  0  0  0  0  0  0  0  0  0  0  0
    7.5932  -15.2191   26.0540 C   0  0  0  0  0  0  0  0  0  0  0  0
    6.2871  -15.5502   26.4451 C   0  0  0  0  0  0  0  0  0  0  0  0
    5.5157  -14.4590   26.4013 N   0  0  0  0  0  0  0  0  0  0  0  0
    6.2408  -13.3789   25.9904 C   0  0  0  0  0  0  0  0  0  0  0  0
    5.9162  -12.0607   25.7716 C   0  0  0  0  0  0  0  0  0  0  0  0
    6.8454  -11.1604   25.3344 C   0  0  0  0  0  0  0  0  0  0  0  0
    8.1472  -11.6559   25.1197 C   0  0  0  0  0  0  0  0  0  0  0  0
    8.4593  -12.9717   25.3423 C   0  0  0  0  0  0  0  0  0  0  0  0
    7.5234  -13.8677   25.7809 C   0  0  0  0  0  0  0  0  0  0  0  0
   10.2130  -17.1350   24.2226 C   0  0  0  0  0  0  0  0  0  0  0  0
   10.7088  -18.2655   24.3854 O   0  0  0  0  0  0  0  0  0  0  0  0
   11.0111  -16.1942   23.5454 N   0  0  0  0  0  0  0  0  0  0  0  0
   12.3180  -16.5877   23.0386 C   0  0  1  0  0  0  0  0  0  0  0  0
   12.8448  -15.6157   22.0258 C   0  0  0  0  0  0  0  0  0  0  0  0
   14.1987  -15.9390   21.5240 C   0  0  0  0  0  0  0  0  0  0  0  0
   15.1552  -15.1566   21.6625 O   0  0  0  0  0  0  0  0  0  0  0  0
   13.2281  -16.4469   24.2462 C   0  0  0  0  0  0  0  0  0  0  0  0
   14.5213  -16.9358   24.2031 O   0  0  0  0  0  0  0  0  0  0  0  0
   14.4004  -17.1647   20.8731 O   0  0  0  0  0  0  0  0  0  0  0  0
   12.8727  -15.9002   25.3106 O   0  0  0  0  0  0  0  0  0  0  0  0
  2  1  1  6
  3  2  1  0
  3  4  1  0
  4  5  2  0
  5  6  1  0
  7  6  1  0
  8  7  2  0
  9  8  1  0
 10 11  1  0
 10  9  2  0
 11 12  2  0
 12  4  1  0
 12  7  1  0
 13  2  1  0
 13 14  2  0
 15 13  1  0
 16 17  1  1
 16 15  1  0
 18 26  1  0
 18 17  1  0
 19 18  2  0
 20 19  1  0
 20 21  1  0
 21 22  1  0
 21 26  2  0
 22 23  2  0
 23 24  1  0
 25 24  2  0
 26 25  1  0
 27 16  1  0
 28 27  2  0
 29 27  1  0
 30 29  1  0
 30 31  1  6
 32 31  1  0
 33 32  2  0
 34 30  1  0
 34 35  1  0
 36 32  1  0
 37 34  2  0
M  END
$$$$
