WWD.pdb
     RDKit          3D

 37 40  0  0  1  0  0  0  0  0999 V2000
    8.9603  -17.2813   21.8896 N   0  0  0  0  0  0  0  0  0  0  0  0
    8.9476  -15.9007   22.2184 C   0  0  1  0  0  0  0  0  0  0  0  0
    7.5937  -15.2456   21.9166 C   0  0  0  0  0  0  0  0  0  0  0  0
    7.3812  -15.0720   20.4595 C   0  0  0  0  0  0  0  0  0  0  0  0
    6.6433  -15.8506   19.5802 C   0  0  0  0  0  0  0  0  0  0  0  0
    6.7030  -15.3263   18.3438 N   0  0  0  0  0  0  0  0  0  0  0  0
    7.4623  -14.2082   18.3511 C   0  0  0  0  0  0  0  0  0  0  0  0
    7.8475  -13.3084   17.3761 C   0  0  0  0  0  0  0  0  0  0  0  0
    8.6525  -12.2290   17.6471 C   0  0  0  0  0  0  0  0  0  0  0  0
    9.0708  -12.0694   18.9425 C   0  0  0  0  0  0  0  0  0  0  0  0
    8.6920  -12.9655   19.9355 C   0  0  0  0  0  0  0  0  0  0  0  0
    7.8909  -14.0387   19.6633 C   0  0  0  0  0  0  0  0  0  0  0  0
    9.3119  -15.6040   23.6516 C   0  0  0  0  0  0  0  0  0  0  0  0
    9.6345  -14.4007   23.8901 O   0  0  0  0  0  0  0  0  0  0  0  0
    9.3148  -16.5315   24.6911 N   0  0  0  0  0  0  0  0  0  0  0  0
    9.9130  -16.4639   25.9806 C   0  0  1  0  0  0  0  0  0  0  0  0
    8.9727  -16.3587   27.0776 C   0  0  0  0  0  0  0  0  0  0  0  0
    7.7838  -15.5298   26.7624 C   0  0  0  0  0  0  0  0  0  0  0  0
    6.5080  -16.0080   26.4273 C   0  0  0  0  0  0  0  0  0  0  0  0
    5.6790  -14.9769   26.2345 N   0  0  0  0  0  0  0  0  0  0  0  0
    6.3356  -13.7958   26.4220 C   0  0  0  0  0  0  0  0  0  0  0  0
    5.9438  -12.4810   26.3297 C   0  0  0  0  0  0  0  0  0  0  0  0
    6.8200  -11.4581   26.5561 C   0  0  0  0  0  0  0  0  0  0  0  0
    8.1405  -11.8239   26.8859 C   0  0  0  0  0  0  0  0  0  0  0  0
    8.5192  -13.1379   26.9760 C   0  0  0  0  0  0  0  0  0  0  0  0
    7.6359  -14.1573   26.7485 C   0  0  0  0  0  0  0  0  0  0  0  0
   11.0936  -17.3311   26.1730 C   0  0  0  0  0  0  0  0  0  0  0  0
   11.6063  -17.4185   27.3044 O   0  0  0  0  0  0  0  0  0  0  0  0
   11.7022  -18.0837   25.1513 N   0  0  0  0  0  0  0  0  0  0  0  0
   12.8526  -18.9214   25.4591 C   0  0  1  0  0  0  0  0  0  0  0  0
   12.7283  -20.2903   24.8602 C   0  0  0  0  0  0  0  0  0  0  0  0
   11.8095  -21.1899   25.5923 C   0  0  0  0  0  0  0  0  0  0  0  0
   11.5537  -22.3380   25.1889 O   0  0  0  0  0  0  0  0  0  0  0  0
   13.9927  -18.2540   24.7100 C   0  0  0  0  0  0  0  0  0  0  0  0
   15.2810  -18.7447   24.8238 O   0  0  0  0  0  0  0  0  0  0  0  0
   11.2128  -20.7262   26.7736 O   0  0  0  0  0  0  0  0  0  0  0  0
   13.8373  -17.2581   23.9737 O   0  0  0  0  0  0  0  0  0  0  0  0
  2  1  1  1
  3  2  1  0
  3  4  1  0
  4  5  2  0
  5  6  1  0
  7  6  1  0
  8  7  2  0
  9  8  1  0
 10 11  1  0
 10  9  2  0
 11 12  2  0
 12  4  1  0
 12  7  1  0
 13  2  1  0
 13 14  2  0
 15 13  1  0
 16 17  1  1
 16 15  1  0
 18 26  1  0
 18 17  1  0
 19 18  2  0
 20 19  1  0
 20 21  1  0
 21 22  1  0
 21 26  2  0
 22 23  2  0
 23 24  1  0
 25 24  2  0
 26 25  1  0
 27 16  1  0
 28 27  2  0
 29 27  1  0
 30 29  1  0
 30 31  1  6
 32 31  1  0
 33 32  2  0
 34 30  1  0
 34 35  1  0
 36 32  1  0
 37 34  2  0
M  END
$$$$
