WWD.pdb
     RDKit          3D

 37 40  0  0  1  0  0  0  0  0999 V2000
    8.1699  -18.4591   20.0200 N   0  0  0  0  0  0  0  0  0  0  0  0
    8.4233  -17.0663   20.1202 C   0  0  1  0  0  0  0  0  0  0  0  0
    7.1566  -16.2296   19.9000 C   0  0  0  0  0  0  0  0  0  0  0  0
    7.4583  -14.7785   19.8577 C   0  0  0  0  0  0  0  0  0  0  0  0
    7.8442  -13.9922   18.7821 C   0  0  0  0  0  0  0  0  0  0  0  0
    8.0004  -12.7177   19.1797 N   0  0  0  0  0  0  0  0  0  0  0  0
    7.7318  -12.6080   20.4998 C   0  0  0  0  0  0  0  0  0  0  0  0
    7.7445  -11.5543   21.3932 C   0  0  0  0  0  0  0  0  0  0  0  0
    7.4307  -11.7112   22.7212 C   0  0  0  0  0  0  0  0  0  0  0  0
    7.0982  -12.9728   23.1411 C   0  0  0  0  0  0  0  0  0  0  0  0
    7.0803  -14.0438   22.2551 C   0  0  0  0  0  0  0  0  0  0  0  0
    7.3928  -13.8850   20.9342 C   0  0  0  0  0  0  0  0  0  0  0  0
    9.0518  -16.6454   21.4251 C   0  0  0  0  0  0  0  0  0  0  0  0
    9.9159  -15.7210   21.3363 O   0  0  0  0  0  0  0  0  0  0  0  0
    8.7541  -17.1852   22.6744 N   0  0  0  0  0  0  0  0  0  0  0  0
    9.3088  -16.9009   23.9537 C   0  0  1  0  0  0  0  0  0  0  0  0
    8.3329  -16.6075   24.9833 C   0  0  0  0  0  0  0  0  0  0  0  0
    8.9378  -16.2582   26.2918 C   0  0  0  0  0  0  0  0  0  0  0  0
    9.5231  -17.1556   27.1977 C   0  0  0  0  0  0  0  0  0  0  0  0
    9.9866  -16.4846   28.2573 N   0  0  0  0  0  0  0  0  0  0  0  0
    9.7416  -15.1495   28.1205 C   0  0  0  0  0  0  0  0  0  0  0  0
    9.9998  -14.0625   28.9222 C   0  0  0  0  0  0  0  0  0  0  0  0
    9.6286  -12.8008   28.5542 C   0  0  0  0  0  0  0  0  0  0  0  0
    8.9686  -12.6767   27.3152 C   0  0  0  0  0  0  0  0  0  0  0  0
    8.7176  -13.7672   26.5241 C   0  0  0  0  0  0  0  0  0  0  0  0
    9.0930  -15.0281   26.8988 C   0  0  0  0  0  0  0  0  0  0  0  0
   10.4744  -17.7264   24.3319 C   0  0  0  0  0  0  0  0  0  0  0  0
   10.3800  -18.9672   24.2910 O   0  0  0  0  0  0  0  0  0  0  0  0
   11.7145  -17.2074   24.7484 N   0  0  0  0  0  0  0  0  0  0  0  0
   12.8147  -18.1145   25.0425 C   0  0  1  0  0  0  0  0  0  0  0  0
   14.1126  -17.6293   24.4700 C   0  0  0  0  0  0  0  0  0  0  0  0
   14.0646  -17.3431   23.0191 C   0  0  0  0  0  0  0  0  0  0  0  0
   13.9157  -18.2448   22.1759 O   0  0  0  0  0  0  0  0  0  0  0  0
   12.9727  -18.0097   26.5493 C   0  0  0  0  0  0  0  0  0  0  0  0
   13.9057  -18.7913   27.2067 O   0  0  0  0  0  0  0  0  0  0  0  0
   14.1930  -16.0140   22.5906 O   0  0  0  0  0  0  0  0  0  0  0  0
   12.2925  -17.2381   27.2566 O   0  0  0  0  0  0  0  0  0  0  0  0
  2  1  1  1
  3  2  1  0
  3  4  1  0
  4  5  2  0
  5  6  1  0
  7  6  1  0
  8  7  2  0
  9  8  1  0
 10 11  1  0
 10  9  2  0
 11 12  2  0
 12  4  1  0
 12  7  1  0
 13  2  1  0
 13 14  2  0
 15 13  1  0
 16 17  1  1
 16 15  1  0
 18 26  1  0
 18 17  1  0
 19 18  2  0
 20 19  1  0
 20 21  1  0
 21 22  1  0
 21 26  2  0
 22 23  2  0
 23 24  1  0
 25 24  2  0
 26 25  1  0
 27 16  1  0
 28 27  2  0
 29 27  1  0
 30 29  1  0
 30 31  1  6
 32 31  1  0
 33 32  2  0
 34 30  1  0
 34 35  1  0
 36 32  1  0
 37 34  2  0
M  END
$$$$
