WWD.pdb
     RDKit          3D

 37 40  0  0  1  0  0  0  0  0999 V2000
    8.2932  -18.3648   22.0318 N   0  0  0  0  0  0  0  0  0  0  0  0
    8.5387  -16.9819   21.8279 C   0  0  1  0  0  0  0  0  0  0  0  0
    7.2871  -16.2358   21.3484 C   0  0  0  0  0  0  0  0  0  0  0  0
    7.5644  -15.4172   20.1437 C   0  0  0  0  0  0  0  0  0  0  0  0
    7.5146  -15.7784   18.8053 C   0  0  0  0  0  0  0  0  0  0  0  0
    7.8252  -14.7220   18.0343 N   0  0  0  0  0  0  0  0  0  0  0  0
    8.0869  -13.6450   18.8079 C   0  0  0  0  0  0  0  0  0  0  0  0
    8.4537  -12.3408   18.5376 C   0  0  0  0  0  0  0  0  0  0  0  0
    8.6740  -11.4171   19.5301 C   0  0  0  0  0  0  0  0  0  0  0  0
    8.5156  -11.8391   20.8244 C   0  0  0  0  0  0  0  0  0  0  0  0
    8.1466  -13.1478   21.1136 C   0  0  0  0  0  0  0  0  0  0  0  0
    7.9280  -14.0648   20.1243 C   0  0  0  0  0  0  0  0  0  0  0  0
    9.0856  -16.2670   23.0381 C   0  0  0  0  0  0  0  0  0  0  0  0
    9.6296  -15.1452   22.8041 O   0  0  0  0  0  0  0  0  0  0  0  0
    9.0320  -16.7410   24.3470 N   0  0  0  0  0  0  0  0  0  0  0  0
    9.8234  -16.4016   25.4800 C   0  0  1  0  0  0  0  0  0  0  0  0
    9.0686  -16.1526   26.6911 C   0  0  0  0  0  0  0  0  0  0  0  0
    7.8327  -15.3633   26.4682 C   0  0  0  0  0  0  0  0  0  0  0  0
    6.5465  -15.8832   26.2579 C   0  0  0  0  0  0  0  0  0  0  0  0
    5.6741  -14.8793   26.1207 N   0  0  0  0  0  0  0  0  0  0  0  0
    6.3103  -13.6771   26.2264 C   0  0  0  0  0  0  0  0  0  0  0  0
    5.8739  -12.3756   26.1448 C   0  0  0  0  0  0  0  0  0  0  0  0
    6.7367  -11.3247   26.2724 C   0  0  0  0  0  0  0  0  0  0  0  0
    8.0914  -11.6474   26.4893 C   0  0  0  0  0  0  0  0  0  0  0  0
    8.5145  -12.9484   26.5699 C   0  0  0  0  0  0  0  0  0  0  0  0
    7.6445  -13.9960   26.4417 C   0  0  0  0  0  0  0  0  0  0  0  0
   11.0932  -17.1462   25.6068 C   0  0  0  0  0  0  0  0  0  0  0  0
   11.8125  -16.9566   26.6052 O   0  0  0  0  0  0  0  0  0  0  0  0
   11.5677  -18.0754   24.6621 N   0  0  0  0  0  0  0  0  0  0  0  0
   12.8145  -18.7849   24.9105 C   0  0  1  0  0  0  0  0  0  0  0  0
   12.7187  -20.2359   24.5457 C   0  0  0  0  0  0  0  0  0  0  0  0
   13.3325  -21.1502   25.5340 C   0  0  0  0  0  0  0  0  0  0  0  0
   13.8618  -20.7301   26.5778 O   0  0  0  0  0  0  0  0  0  0  0  0
   13.7786  -18.1779   23.9062 C   0  0  0  0  0  0  0  0  0  0  0  0
   15.1156  -18.5321   23.9241 O   0  0  0  0  0  0  0  0  0  0  0  0
   13.3140  -22.5288   25.2779 O   0  0  0  0  0  0  0  0  0  0  0  0
   13.4309  -17.3527   23.0366 O   0  0  0  0  0  0  0  0  0  0  0  0
  2  1  1  1
  3  2  1  0
  3  4  1  0
  4  5  2  0
  5  6  1  0
  7  6  1  0
  8  7  2  0
  9  8  1  0
 10 11  1  0
 10  9  2  0
 11 12  2  0
 12  4  1  0
 12  7  1  0
 13  2  1  0
 13 14  2  0
 15 13  1  0
 16 17  1  1
 16 15  1  0
 18 26  1  0
 18 17  1  0
 19 18  2  0
 20 19  1  0
 20 21  1  0
 21 22  1  0
 21 26  2  0
 22 23  2  0
 23 24  1  0
 25 24  2  0
 26 25  1  0
 27 16  1  0
 28 27  2  0
 29 27  1  0
 30 29  1  0
 30 31  1  6
 32 31  1  0
 33 32  2  0
 34 30  1  0
 34 35  1  0
 36 32  1  0
 37 34  2  0
M  END
$$$$
