WWD.pdb
     RDKit          3D

 37 40  0  0  1  0  0  0  0  0999 V2000
    8.3664  -18.8072   20.6370 N   0  0  0  0  0  0  0  0  0  0  0  0
    8.6242  -17.5487   21.2405 C   0  0  1  0  0  0  0  0  0  0  0  0
    7.3517  -16.7047   21.3865 C   0  0  0  0  0  0  0  0  0  0  0  0
    7.3449  -15.5560   20.4490 C   0  0  0  0  0  0  0  0  0  0  0  0
    6.9751  -15.5145   19.1128 C   0  0  0  0  0  0  0  0  0  0  0  0
    7.1062  -14.2629   18.6403 N   0  0  0  0  0  0  0  0  0  0  0  0
    7.5561  -13.4439   19.6168 C   0  0  0  0  0  0  0  0  0  0  0  0
    7.8632  -12.0980   19.6690 C   0  0  0  0  0  0  0  0  0  0  0  0
    8.3230  -11.4916   20.8125 C   0  0  0  0  0  0  0  0  0  0  0  0
    8.4711  -12.2805   21.9234 C   0  0  0  0  0  0  0  0  0  0  0  0
    8.1663  -13.6363   21.8878 C   0  0  0  0  0  0  0  0  0  0  0  0
    7.7089  -14.2372   20.7489 C   0  0  0  0  0  0  0  0  0  0  0  0
    9.2955  -17.6363   22.5882 C   0  0  0  0  0  0  0  0  0  0  0  0
    9.4164  -18.8086   23.0575 O   0  0  0  0  0  0  0  0  0  0  0  0
    9.7749  -16.5535   23.3220 N   0  0  0  0  0  0  0  0  0  0  0  0
   10.2489  -16.4898   24.6623 C   0  0  1  0  0  0  0  0  0  0  0  0
   10.0671  -15.2051   25.3067 C   0  0  0  0  0  0  0  0  0  0  0  0
    8.6555  -14.9098   25.6533 C   0  0  0  0  0  0  0  0  0  0  0  0
    7.6119  -15.8439   25.7367 C   0  0  0  0  0  0  0  0  0  0  0  0
    6.4837  -15.2247   26.0991 N   0  0  0  0  0  0  0  0  0  0  0  0
    6.7063  -13.8895   26.2689 C   0  0  0  0  0  0  0  0  0  0  0  0
    5.8883  -12.8398   26.6154 C   0  0  0  0  0  0  0  0  0  0  0  0
    6.3648  -11.5629   26.7027 C   0  0  0  0  0  0  0  0  0  0  0  0
    7.7332  -11.3826   26.4177 C   0  0  0  0  0  0  0  0  0  0  0  0
    8.5390  -12.4366   26.0744 C   0  0  0  0  0  0  0  0  0  0  0  0
    8.0549  -13.7131   25.9896 C   0  0  0  0  0  0  0  0  0  0  0  0
   10.0087  -17.7013   25.4731 C   0  0  0  0  0  0  0  0  0  0  0  0
    9.1822  -17.6568   26.4033 O   0  0  0  0  0  0  0  0  0  0  0  0
   10.6593  -18.9333   25.2738 N   0  0  0  0  0  0  0  0  0  0  0  0
   11.7078  -19.3531   26.1925 C   0  0  1  0  0  0  0  0  0  0  0  0
   12.9860  -18.6019   25.9689 C   0  0  0  0  0  0  0  0  0  0  0  0
   13.7849  -19.0940   24.8248 C   0  0  0  0  0  0  0  0  0  0  0  0
   13.3890  -20.0214   24.0973 O   0  0  0  0  0  0  0  0  0  0  0  0
   11.2009  -18.8945   27.5487 C   0  0  0  0  0  0  0  0  0  0  0  0
   11.9008  -19.2159   28.6977 O   0  0  0  0  0  0  0  0  0  0  0  0
   15.0240  -18.4927   24.5610 O   0  0  0  0  0  0  0  0  0  0  0  0
   10.1587  -18.2240   27.6985 O   0  0  0  0  0  0  0  0  0  0  0  0
  2  1  1  1
  3  2  1  0
  3  4  1  0
  4  5  2  0
  5  6  1  0
  7  6  1  0
  8  7  2  0
  9  8  1  0
 10 11  1  0
 10  9  2  0
 11 12  2  0
 12  4  1  0
 12  7  1  0
 13  2  1  0
 13 14  2  0
 15 13  1  0
 16 17  1  1
 16 15  1  0
 18 26  1  0
 18 17  1  0
 19 18  2  0
 20 19  1  0
 20 21  1  0
 21 22  1  0
 21 26  2  0
 22 23  2  0
 23 24  1  0
 25 24  2  0
 26 25  1  0
 27 16  1  0
 28 27  2  0
 29 27  1  0
 30 29  1  0
 30 31  1  6
 32 31  1  0
 33 32  2  0
 34 30  1  0
 34 35  1  0
 36 32  1  0
 37 34  2  0
M  END
$$$$
