WWD.pdb
     RDKit          3D

 37 40  0  0  1  0  0  0  0  0999 V2000
    9.1299  -16.7706   21.3955 N   0  0  0  0  0  0  0  0  0  0  0  0
    8.7618  -15.4749   21.8428 C   0  0  1  0  0  0  0  0  0  0  0  0
    7.3766  -15.0577   21.3327 C   0  0  0  0  0  0  0  0  0  0  0  0
    7.3595  -14.9006   19.8584 C   0  0  0  0  0  0  0  0  0  0  0  0
    6.7524  -15.6949   18.8970 C   0  0  0  0  0  0  0  0  0  0  0  0
    6.9728  -15.1823   17.6740 N   0  0  0  0  0  0  0  0  0  0  0  0
    7.7150  -14.0569   17.7704 C   0  0  0  0  0  0  0  0  0  0  0  0
    8.2198  -13.1631   16.8457 C   0  0  0  0  0  0  0  0  0  0  0  0
    8.9723  -12.0733   17.2100 C   0  0  0  0  0  0  0  0  0  0  0  0
    9.2121  -11.8970   18.5479 C   0  0  0  0  0  0  0  0  0  0  0  0
    8.7112  -12.7868   19.4911 C   0  0  0  0  0  0  0  0  0  0  0  0
    7.9627  -13.8703   19.1261 C   0  0  0  0  0  0  0  0  0  0  0  0
    8.7879  -15.3086   23.3416 C   0  0  0  0  0  0  0  0  0  0  0  0
    8.5595  -14.1330   23.7598 O   0  0  0  0  0  0  0  0  0  0  0  0
    9.0355  -16.3253   24.2613 N   0  0  0  0  0  0  0  0  0  0  0  0
    9.7001  -16.2843   25.5190 C   0  0  1  0  0  0  0  0  0  0  0  0
    8.8223  -16.3663   26.6686 C   0  0  0  0  0  0  0  0  0  0  0  0
    7.6064  -15.5255   26.5477 C   0  0  0  0  0  0  0  0  0  0  0  0
    6.3215  -15.9745   26.2069 C   0  0  0  0  0  0  0  0  0  0  0  0
    5.4686  -14.9448   26.2202 N   0  0  0  0  0  0  0  0  0  0  0  0
    6.1173  -13.7928   26.5568 C   0  0  0  0  0  0  0  0  0  0  0  0
    5.7022  -12.4888   26.6915 C   0  0  0  0  0  0  0  0  0  0  0  0
    6.5744  -11.4941   27.0306 C   0  0  0  0  0  0  0  0  0  0  0  0
    7.9158  -11.8769   27.2317 C   0  0  0  0  0  0  0  0  0  0  0  0
    8.3177  -13.1800   27.0957 C   0  0  0  0  0  0  0  0  0  0  0  0
    7.4383  -14.1713   26.7564 C   0  0  0  0  0  0  0  0  0  0  0  0
   10.9776  -17.0239   25.5803 C   0  0  0  0  0  0  0  0  0  0  0  0
   11.5806  -17.1075   26.6665 O   0  0  0  0  0  0  0  0  0  0  0  0
   11.5842  -17.6556   24.4786 N   0  0  0  0  0  0  0  0  0  0  0  0
   12.8487  -18.3556   24.6539 C   0  0  1  0  0  0  0  0  0  0  0  0
   12.8573  -19.6845   23.9596 C   0  0  0  0  0  0  0  0  0  0  0  0
   11.6574  -20.5105   24.2192 C   0  0  0  0  0  0  0  0  0  0  0  0
   10.9529  -20.9544   23.2958 O   0  0  0  0  0  0  0  0  0  0  0  0
   13.8430  -17.4955   23.8936 C   0  0  0  0  0  0  0  0  0  0  0  0
   15.1825  -17.8399   23.8667 O   0  0  0  0  0  0  0  0  0  0  0  0
   11.3108  -20.7952   25.5478 O   0  0  0  0  0  0  0  0  0  0  0  0
   13.5190  -16.4635   23.2707 O   0  0  0  0  0  0  0  0  0  0  0  0
  2  1  1  1
  3  2  1  0
  3  4  1  0
  4  5  2  0
  5  6  1  0
  7  6  1  0
  8  7  2  0
  9  8  1  0
 10 11  1  0
 10  9  2  0
 11 12  2  0
 12  4  1  0
 12  7  1  0
 13  2  1  0
 13 14  2  0
 15 13  1  0
 16 17  1  1
 16 15  1  0
 18 26  1  0
 18 17  1  0
 19 18  2  0
 20 19  1  0
 20 21  1  0
 21 22  1  0
 21 26  2  0
 22 23  2  0
 23 24  1  0
 25 24  2  0
 26 25  1  0
 27 16  1  0
 28 27  2  0
 29 27  1  0
 30 29  1  0
 30 31  1  6
 32 31  1  0
 33 32  2  0
 34 30  1  0
 34 35  1  0
 36 32  1  0
 37 34  2  0
M  END
$$$$
