WWD.pdb
     RDKit          3D

 37 40  0  0  1  0  0  0  0  0999 V2000
    9.1341  -17.7907   21.3944 N   0  0  0  0  0  0  0  0  0  0  0  0
    9.0232  -16.4638   21.8857 C   0  0  1  0  0  0  0  0  0  0  0  0
    7.5897  -15.9270   21.7863 C   0  0  0  0  0  0  0  0  0  0  0  0
    7.3004  -15.3820   20.4381 C   0  0  0  0  0  0  0  0  0  0  0  0
    6.7060  -16.0018   19.3487 C   0  0  0  0  0  0  0  0  0  0  0  0
    6.6200  -15.1386   18.3218 N   0  0  0  0  0  0  0  0  0  0  0  0
    7.1395  -13.9425   18.6775 C   0  0  0  0  0  0  0  0  0  0  0  0
    7.3052  -12.7391   18.0195 C   0  0  0  0  0  0  0  0  0  0  0  0
    7.8856  -11.6471   18.6172 C   0  0  0  0  0  0  0  0  0  0  0  0
    8.3044  -11.7920   19.9141 C   0  0  0  0  0  0  0  0  0  0  0  0
    8.1447  -12.9958   20.5906 C   0  0  0  0  0  0  0  0  0  0  0  0
    7.5670  -14.0809   19.9936 C   0  0  0  0  0  0  0  0  0  0  0  0
    9.5003  -16.2895   23.3058 C   0  0  0  0  0  0  0  0  0  0  0  0
   10.2217  -15.2669   23.5128 O   0  0  0  0  0  0  0  0  0  0  0  0
    9.2088  -17.1461   24.3651 N   0  0  0  0  0  0  0  0  0  0  0  0
    9.7008  -17.1562   25.7003 C   0  0  1  0  0  0  0  0  0  0  0  0
    8.6912  -16.9447   26.7175 C   0  0  0  0  0  0  0  0  0  0  0  0
    7.7154  -15.8821   26.3728 C   0  0  0  0  0  0  0  0  0  0  0  0
    6.4112  -16.0808   25.8952 C   0  0  0  0  0  0  0  0  0  0  0  0
    5.8133  -14.8980   25.7183 N   0  0  0  0  0  0  0  0  0  0  0  0
    6.6588  -13.8816   26.0549 C   0  0  0  0  0  0  0  0  0  0  0  0
    6.5318  -12.5124   26.0372 C   0  0  0  0  0  0  0  0  0  0  0  0
    7.5583  -11.6960   26.4178 C   0  0  0  0  0  0  0  0  0  0  0  0
    8.7483  -12.3319   26.8254 C   0  0  0  0  0  0  0  0  0  0  0  0
    8.8628  -13.6974   26.8399 C   0  0  0  0  0  0  0  0  0  0  0  0
    7.8301  -14.5090   26.4579 C   0  0  0  0  0  0  0  0  0  0  0  0
   10.7502  -18.1588   25.9769 C   0  0  0  0  0  0  0  0  0  0  0  0
   10.5203  -19.3602   25.7437 O   0  0  0  0  0  0  0  0  0  0  0  0
   12.0214  -17.8558   26.4993 N   0  0  0  0  0  0  0  0  0  0  0  0
   12.9307  -18.9349   26.8577 C   0  0  1  0  0  0  0  0  0  0  0  0
   14.3675  -18.5282   26.7232 C   0  0  0  0  0  0  0  0  0  0  0  0
   14.6864  -17.8454   25.4498 C   0  0  0  0  0  0  0  0  0  0  0  0
   15.3099  -16.7700   25.4189 O   0  0  0  0  0  0  0  0  0  0  0  0
   12.6998  -19.1183   28.3475 C   0  0  0  0  0  0  0  0  0  0  0  0
   13.3504  -20.1286   29.0328 O   0  0  0  0  0  0  0  0  0  0  0  0
   14.2686  -18.4338   24.2475 O   0  0  0  0  0  0  0  0  0  0  0  0
   11.9356  -18.3922   29.0159 O   0  0  0  0  0  0  0  0  0  0  0  0
  2  1  1  1
  3  2  1  0
  3  4  1  0
  4  5  2  0
  5  6  1  0
  7  6  1  0
  8  7  2  0
  9  8  1  0
 10 11  1  0
 10  9  2  0
 11 12  2  0
 12  4  1  0
 12  7  1  0
 13  2  1  0
 13 14  2  0
 15 13  1  0
 16 17  1  1
 16 15  1  0
 18 26  1  0
 18 17  1  0
 19 18  2  0
 20 19  1  0
 20 21  1  0
 21 22  1  0
 21 26  2  0
 22 23  2  0
 23 24  1  0
 25 24  2  0
 26 25  1  0
 27 16  1  0
 28 27  2  0
 29 27  1  0
 30 29  1  0
 30 31  1  1
 32 31  1  0
 33 32  2  0
 34 30  1  0
 34 35  1  0
 36 32  1  0
 37 34  2  0
M  END
$$$$
