WWD.pdb
     RDKit          3D

 37 40  0  0  1  0  0  0  0  0999 V2000
    7.8487  -19.4182   26.1550 N   0  0  0  0  0  0  0  0  0  0  0  0
    7.7219  -18.1902   25.4547 C   0  0  1  0  0  0  0  0  0  0  0  0
    8.9594  -17.2989   25.6194 C   0  0  0  0  0  0  0  0  0  0  0  0
    8.8049  -16.3490   26.7473 C   0  0  0  0  0  0  0  0  0  0  0  0
    7.6473  -15.8168   27.2957 C   0  0  0  0  0  0  0  0  0  0  0  0
    7.9579  -15.0042   28.3204 N   0  0  0  0  0  0  0  0  0  0  0  0
    9.2982  -14.9645   28.4903 C   0  0  0  0  0  0  0  0  0  0  0  0
   10.1306  -14.2997   29.3699 C   0  0  0  0  0  0  0  0  0  0  0  0
   11.4977  -14.4256   29.3276 C   0  0  0  0  0  0  0  0  0  0  0  0
   12.0212  -15.2486   28.3647 C   0  0  0  0  0  0  0  0  0  0  0  0
   11.1976  -15.9250   27.4722 C   0  0  0  0  0  0  0  0  0  0  0  0
    9.8376  -15.7981   27.5164 C   0  0  0  0  0  0  0  0  0  0  0  0
    7.4391  -18.3460   23.9815 C   0  0  0  0  0  0  0  0  0  0  0  0
    7.6335  -19.5087   23.5130 O   0  0  0  0  0  0  0  0  0  0  0  0
    6.9933  -17.3336   23.1347 N   0  0  0  0  0  0  0  0  0  0  0  0
    7.5070  -16.8895   21.8841 C   0  0  1  0  0  0  0  0  0  0  0  0
    6.8266  -15.7385   21.3263 C   0  0  0  0  0  0  0  0  0  0  0  0
    7.1891  -14.4591   21.9834 C   0  0  0  0  0  0  0  0  0  0  0  0
    7.9755  -13.4384   21.4281 C   0  0  0  0  0  0  0  0  0  0  0  0
    8.0708  -12.4243   22.2943 N   0  0  0  0  0  0  0  0  0  0  0  0
    7.3785  -12.7057   23.4357 C   0  0  0  0  0  0  0  0  0  0  0  0
    7.1824  -12.0132   24.6074 C   0  0  0  0  0  0  0  0  0  0  0  0
    6.4425  -12.5359   25.6294 C   0  0  0  0  0  0  0  0  0  0  0  0
    5.8962  -13.8177   25.4175 C   0  0  0  0  0  0  0  0  0  0  0  0
    6.0976  -14.4979   24.2449 C   0  0  0  0  0  0  0  0  0  0  0  0
    6.8393  -13.9678   23.2252 C   0  0  0  0  0  0  0  0  0  0  0  0
    8.9775  -16.9444   21.7524 C   0  0  0  0  0  0  0  0  0  0  0  0
    9.6712  -16.0740   22.3105 O   0  0  0  0  0  0  0  0  0  0  0  0
    9.6744  -17.9270   21.0245 N   0  0  0  0  0  0  0  0  0  0  0  0
   11.1010  -17.7689   20.7809 C   0  0  1  0  0  0  0  0  0  0  0  0
   11.5435  -16.3445   20.9334 C   0  0  0  0  0  0  0  0  0  0  0  0
   12.9826  -16.1261   20.6671 C   0  0  0  0  0  0  0  0  0  0  0  0
   13.7119  -15.5089   21.4628 O   0  0  0  0  0  0  0  0  0  0  0  0
   11.7468  -18.5187   21.9329 C   0  0  0  0  0  0  0  0  0  0  0  0
   10.9655  -19.0378   22.9497 O   0  0  0  0  0  0  0  0  0  0  0  0
   13.5317  -16.6316   19.4799 O   0  0  0  0  0  0  0  0  0  0  0  0
   12.9779  -18.7032   22.0248 O   0  0  0  0  0  0  0  0  0  0  0  0
  2  1  1  6
  3  2  1  0
  3  4  1  0
  4  5  2  0
  5  6  1  0
  7  6  1  0
  8  7  2  0
  9  8  1  0
 10 11  1  0
 10  9  2  0
 11 12  2  0
 12  4  1  0
 12  7  1  0
 13  2  1  0
 13 14  2  0
 15 13  1  0
 16 17  1  1
 16 15  1  0
 18 26  1  0
 18 17  1  0
 19 18  2  0
 20 19  1  0
 20 21  1  0
 21 22  1  0
 21 26  2  0
 22 23  2  0
 23 24  1  0
 25 24  2  0
 26 25  1  0
 27 16  1  0
 28 27  2  0
 29 27  1  0
 30 29  1  0
 30 31  1  1
 32 31  1  0
 33 32  2  0
 34 30  1  0
 34 35  1  0
 36 32  1  0
 37 34  2  0
M  END
$$$$
