MTS.pdb
     RDKit          3D

 22 21  0  0  1  0  0  0  0  0999 V2000
   11.3319  -20.0636   32.4576 C   0  0  0  0  0  0  0  0  0  0  0  0
   12.0879  -21.6714   32.8451 S   0  0  0  0  0  0  0  0  0  0  0  0
   11.9194  -22.8062   31.4161 C   0  0  0  0  0  0  0  0  0  0  0  0
   10.8684  -22.2207   30.4946 C   0  0  0  0  0  0  0  0  0  0  0  0
   10.6045  -23.0865   29.3031 C   0  0  2  0  0  0  0  0  0  0  0  0
   10.3046  -24.4255   29.7129 N   0  0  0  0  0  0  0  0  0  0  0  0
   11.6720  -23.0180   28.2818 C   0  0  0  0  0  0  0  0  0  0  0  0
   12.6293  -23.8315   28.3412 O   0  0  0  0  0  0  0  0  0  0  0  0
   11.1182  -21.5226   24.5025 C   0  0  0  0  0  0  0  0  0  0  0  0
   12.4212  -21.0436   25.1053 C   0  0  1  0  0  0  0  0  0  0  0  0
   12.1694  -19.7780   25.6491 O   0  0  0  0  0  0  0  0  0  0  0  0
   12.7579  -21.9490   26.2694 C   0  0  2  0  0  0  0  0  0  0  0  0
   11.6991  -22.0809   27.2134 N   0  0  0  0  0  0  0  0  0  0  0  0
   14.0533  -21.5744   26.8966 C   0  0  0  0  0  0  0  0  0  0  0  0
   14.1245  -20.9050   27.9587 O   0  0  0  0  0  0  0  0  0  0  0  0
   18.4199  -22.3745   28.1192 O   0  0  0  0  0  0  0  0  0  0  0  0
   17.1592  -22.7339   27.6204 C   0  0  0  0  0  0  0  0  0  0  0  0
   16.5670  -21.5274   26.9229 C   0  0  2  0  0  0  0  0  0  0  0  0
   15.3100  -21.9611   26.3175 N   0  0  0  0  0  0  0  0  0  0  0  0
   17.4950  -20.9809   25.9343 C   0  0  0  0  0  0  0  0  0  0  0  0
   17.2431  -21.1091   24.7117 O   0  0  0  0  0  0  0  0  0  0  0  0
   18.6564  -20.3184   26.2907 O   0  0  0  0  0  0  0  0  0  0  0  0
  2  1  1  0
  3  2  1  0
  4  3  1  0
  5  6  1  1
  5  4  1  0
  7  5  1  0
  8  7  2  0
 10  9  1  1
 10 12  1  0
 10 11  1  0
 12 13  1  1
 13  7  1  0
 14 15  2  0
 14 12  1  0
 16 17  1  0
 18 17  1  6
 18 20  1  0
 18 19  1  0
 19 14  1  0
 20 22  1  0
 21 20  2  0
M  END
$$$$
