MTS.pdb
     RDKit          3D

 22 21  0  0  1  0  0  0  0  0999 V2000
    6.9289  -18.5024   27.9718 C   0  0  0  0  0  0  0  0  0  0  0  0
    6.5177  -19.9904   28.9327 S   0  0  0  0  0  0  0  0  0  0  0  0
    5.3661  -21.0537   27.9831 C   0  0  0  0  0  0  0  0  0  0  0  0
    6.0392  -21.3874   26.6670 C   0  0  0  0  0  0  0  0  0  0  0  0
    5.1444  -22.1529   25.7437 C   0  0  2  0  0  0  0  0  0  0  0  0
    4.5750  -23.2806   26.4181 N   0  0  0  0  0  0  0  0  0  0  0  0
    5.7922  -22.5095   24.4630 C   0  0  0  0  0  0  0  0  0  0  0  0
    5.9804  -23.7225   24.1889 O   0  0  0  0  0  0  0  0  0  0  0  0
    4.7686  -21.8315   20.9948 C   0  0  0  0  0  0  0  0  0  0  0  0
    6.1800  -21.2883   21.0536 C   0  0  1  0  0  0  0  0  0  0  0  0
    6.0702  -19.9151   21.3051 O   0  0  0  0  0  0  0  0  0  0  0  0
    6.8621  -21.8903   22.2622 C   0  0  2  0  0  0  0  0  0  0  0  0
    6.2283  -21.5639   23.4957 N   0  0  0  0  0  0  0  0  0  0  0  0
    8.3217  -21.6054   22.2647 C   0  0  0  0  0  0  0  0  0  0  0  0
    8.8248  -20.6467   22.9043 O   0  0  0  0  0  0  0  0  0  0  0  0
   11.2047  -23.6575   23.1605 O   0  0  0  0  0  0  0  0  0  0  0  0
   11.4376  -23.3367   21.8151 C   0  0  0  0  0  0  0  0  0  0  0  0
   10.6681  -22.0733   21.4918 C   0  0  2  0  0  0  0  0  0  0  0  0
    9.2490  -22.4191   21.5283 N   0  0  0  0  0  0  0  0  0  0  0  0
   11.0692  -21.5278   20.1962 C   0  0  0  0  0  0  0  0  0  0  0  0
   10.2404  -21.4961   19.2546 O   0  0  0  0  0  0  0  0  0  0  0  0
   12.3407  -21.0370   19.9572 O   0  0  0  0  0  0  0  0  0  0  0  0
  2  1  1  0
  3  2  1  0
  4  3  1  0
  5  6  1  1
  5  4  1  0
  7  5  1  0
  8  7  2  0
 10  9  1  1
 10 12  1  0
 10 11  1  0
 12 13  1  1
 13  7  1  0
 14 15  2  0
 14 12  1  0
 16 17  1  0
 18 17  1  6
 18 20  1  0
 18 19  1  0
 19 14  1  0
 20 22  1  0
 21 20  2  0
M  END
$$$$
