MTS.pdb
     RDKit          3D

 22 21  0  0  1  0  0  0  0  0999 V2000
    5.1786  -11.9214   26.2323 C   0  0  0  0  0  0  0  0  0  0  0  0
    6.5857  -11.5551   27.3244 S   0  0  0  0  0  0  0  0  0  0  0  0
    7.9817  -12.6820   26.9506 C   0  0  0  0  0  0  0  0  0  0  0  0
    7.4294  -13.8302   26.1303 C   0  0  0  0  0  0  0  0  0  0  0  0
    8.4872  -14.8107   25.7320 C   0  0  2  0  0  0  0  0  0  0  0  0
    9.7314  -14.1401   25.5022 N   0  0  0  0  0  0  0  0  0  0  0  0
    8.0829  -15.6839   24.6089 C   0  0  0  0  0  0  0  0  0  0  0  0
    7.0862  -16.4383   24.7480 O   0  0  0  0  0  0  0  0  0  0  0  0
    6.7042  -15.0693   21.5773 C   0  0  0  0  0  0  0  0  0  0  0  0
    7.8191  -15.9707   21.0924 C   0  0  1  0  0  0  0  0  0  0  0  0
    8.8063  -15.1340   20.5575 O   0  0  0  0  0  0  0  0  0  0  0  0
    8.4362  -16.6409   22.3001 C   0  0  2  0  0  0  0  0  0  0  0  0
    8.7504  -15.7367   23.3552 N   0  0  0  0  0  0  0  0  0  0  0  0
    9.5814  -17.5094   21.9178 C   0  0  0  0  0  0  0  0  0  0  0  0
   10.7088  -17.0476   21.6065 O   0  0  0  0  0  0  0  0  0  0  0  0
   12.2135  -20.1515   23.8965 O   0  0  0  0  0  0  0  0  0  0  0  0
   11.1665  -19.2972   23.5204 C   0  0  0  0  0  0  0  0  0  0  0  0
   10.6111  -19.7858   22.1992 C   0  0  2  0  0  0  0  0  0  0  0  0
    9.4620  -18.9407   21.8827 N   0  0  0  0  0  0  0  0  0  0  0  0
   10.2517  -21.2012   22.2688 C   0  0  0  0  0  0  0  0  0  0  0  0
    9.1326  -21.5336   22.7290 O   0  0  0  0  0  0  0  0  0  0  0  0
   11.1022  -22.2064   21.8435 O   0  0  0  0  0  0  0  0  0  0  0  0
  2  1  1  0
  3  2  1  0
  4  3  1  0
  5  6  1  6
  5  4  1  0
  7  5  1  0
  8  7  2  0
 10  9  1  1
 10 12  1  0
 10 11  1  0
 12 13  1  1
 13  7  1  0
 14 15  2  0
 14 12  1  0
 16 17  1  0
 18 17  1  1
 18 20  1  0
 18 19  1  0
 19 14  1  0
 20 22  1  0
 21 20  2  0
M  END
$$$$
