MTS.pdb
     RDKit          3D

 22 21  0  0  1  0  0  0  0  0999 V2000
    7.2891  -11.6483   25.8525 C   0  0  0  0  0  0  0  0  0  0  0  0
    6.0032  -12.7107   26.5766 S   0  0  0  0  0  0  0  0  0  0  0  0
    6.7748  -14.1199   27.4583 C   0  0  0  0  0  0  0  0  0  0  0  0
    7.7245  -14.7948   26.4892 C   0  0  0  0  0  0  0  0  0  0  0  0
    7.0381  -15.8035   25.6230 C   0  0  2  0  0  0  0  0  0  0  0  0
    6.4804  -16.8534   26.4215 N   0  0  0  0  0  0  0  0  0  0  0  0
    7.8874  -16.3026   24.5200 C   0  0  0  0  0  0  0  0  0  0  0  0
    8.6095  -17.3141   24.7128 O   0  0  0  0  0  0  0  0  0  0  0  0
    6.5404  -16.6892   21.0198 C   0  0  0  0  0  0  0  0  0  0  0  0
    7.9371  -16.1456   20.8090 C   0  0  1  0  0  0  0  0  0  0  0  0
    7.7977  -14.7799   20.5329 O   0  0  0  0  0  0  0  0  0  0  0  0
    8.6789  -16.2416   22.1239 C   0  0  2  0  0  0  0  0  0  0  0  0
    7.9514  -15.7125   23.2285 N   0  0  0  0  0  0  0  0  0  0  0  0
   10.0559  -15.6902   22.0163 C   0  0  0  0  0  0  0  0  0  0  0  0
   10.2979  -14.4568   22.0550 O   0  0  0  0  0  0  0  0  0  0  0  0
   13.1506  -16.1919   24.8887 O   0  0  0  0  0  0  0  0  0  0  0  0
   12.0015  -16.3796   24.1065 C   0  0  0  0  0  0  0  0  0  0  0  0
   12.4077  -16.3148   22.6492 C   0  0  2  0  0  0  0  0  0  0  0  0
   11.1996  -16.5458   21.8607 N   0  0  0  0  0  0  0  0  0  0  0  0
   13.4559  -17.2888   22.3496 C   0  0  0  0  0  0  0  0  0  0  0  0
   14.6203  -16.8896   22.1058 O   0  0  0  0  0  0  0  0  0  0  0  0
   13.2190  -18.6518   22.3224 O   0  0  0  0  0  0  0  0  0  0  0  0
  2  1  1  0
  3  2  1  0
  4  3  1  0
  5  6  1  1
  5  4  1  0
  7  5  1  0
  8  7  2  0
 10  9  1  1
 10 12  1  0
 10 11  1  0
 12 13  1  1
 13  7  1  0
 14 15  2  0
 14 12  1  0
 16 17  1  0
 18 17  1  1
 18 20  1  0
 18 19  1  0
 19 14  1  0
 20 22  1  0
 21 20  2  0
M  END
$$$$
