MTS.pdb
     RDKit          3D

 22 21  0  0  1  0  0  0  0  0999 V2000
    7.3574  -12.0485   20.4393 C   0  0  0  0  0  0  0  0  0  0  0  0
    8.1886  -12.4329   18.8683 S   0  0  0  0  0  0  0  0  0  0  0  0
    9.0133  -14.0658   18.9764 C   0  0  0  0  0  0  0  0  0  0  0  0
    8.9658  -14.5017   20.4269 C   0  0  0  0  0  0  0  0  0  0  0  0
    9.5780  -15.8504   20.6403 C   0  0  2  0  0  0  0  0  0  0  0  0
    9.1246  -16.7705   19.6410 N   0  0  0  0  0  0  0  0  0  0  0  0
    9.4065  -16.3597   22.0181 C   0  0  0  0  0  0  0  0  0  0  0  0
    8.2765  -16.7761   22.3807 O   0  0  0  0  0  0  0  0  0  0  0  0
   10.4422  -19.1676   23.7032 C   0  0  0  0  0  0  0  0  0  0  0  0
   10.9443  -18.1260   24.6798 C   0  0  1  0  0  0  0  0  0  0  0  0
   12.3087  -17.9544   24.4157 O   0  0  0  0  0  0  0  0  0  0  0  0
   10.2760  -16.8110   24.3444 C   0  0  2  0  0  0  0  0  0  0  0  0
   10.4456  -16.4157   22.9863 N   0  0  0  0  0  0  0  0  0  0  0  0
   10.6503  -15.7452   25.3117 C   0  0  0  0  0  0  0  0  0  0  0  0
   11.6782  -15.0340   25.1736 O   0  0  0  0  0  0  0  0  0  0  0  0
    7.9691  -14.3070   27.8129 O   0  0  0  0  0  0  0  0  0  0  0  0
    9.1409  -13.5439   27.7044 C   0  0  0  0  0  0  0  0  0  0  0  0
   10.2983  -14.4895   27.4614 C   0  0  2  0  0  0  0  0  0  0  0  0
    9.8491  -15.4653   26.4710 N   0  0  0  0  0  0  0  0  0  0  0  0
   10.7304  -15.1255   28.7048 C   0  0  0  0  0  0  0  0  0  0  0  0
   10.6910  -16.3755   28.8069 O   0  0  0  0  0  0  0  0  0  0  0  0
   11.1881  -14.4006   29.7910 O   0  0  0  0  0  0  0  0  0  0  0  0
  2  1  1  0
  3  2  1  0
  4  3  1  0
  5  6  1  6
  5  4  1  0
  7  5  1  0
  8  7  2  0
 10  9  1  6
 10 12  1  0
 10 11  1  0
 12 13  1  6
 13  7  1  0
 14 15  2  0
 14 12  1  0
 16 17  1  0
 18 17  1  1
 18 20  1  0
 18 19  1  0
 19 14  1  0
 20 22  1  0
 21 20  2  0
M  END
$$$$
