MTS.pdb
     RDKit          3D

 22 21  0  0  1  0  0  0  0  0999 V2000
    7.6421  -11.4836   25.8716 C   0  0  0  0  0  0  0  0  0  0  0  0
    6.0851  -12.2316   26.4397 S   0  0  0  0  0  0  0  0  0  0  0  0
    6.3985  -13.9134   27.0967 C   0  0  0  0  0  0  0  0  0  0  0  0
    7.4699  -14.5451   26.2310 C   0  0  0  0  0  0  0  0  0  0  0  0
    6.9713  -15.7418   25.4838 C   0  0  2  0  0  0  0  0  0  0  0  0
    6.3705  -16.6800   26.3836 N   0  0  0  0  0  0  0  0  0  0  0  0
    7.9937  -16.3523   24.6069 C   0  0  0  0  0  0  0  0  0  0  0  0
    8.6958  -17.2968   25.0506 O   0  0  0  0  0  0  0  0  0  0  0  0
    7.3147  -16.9992   20.8482 C   0  0  0  0  0  0  0  0  0  0  0  0
    8.7487  -16.5227   20.9339 C   0  0  1  0  0  0  0  0  0  0  0  0
    8.7435  -15.1704   20.5708 O   0  0  0  0  0  0  0  0  0  0  0  0
    9.1716  -16.5733   22.3854 C   0  0  2  0  0  0  0  0  0  0  0  0
    8.2494  -15.9434   23.2699 N   0  0  0  0  0  0  0  0  0  0  0  0
   10.5686  -16.0957   22.5648 C   0  0  0  0  0  0  0  0  0  0  0  0
   10.8430  -14.9354   22.9642 O   0  0  0  0  0  0  0  0  0  0  0  0
   13.1426  -17.6350   24.6058 O   0  0  0  0  0  0  0  0  0  0  0  0
   13.7500  -17.5597   23.3437 C   0  0  0  0  0  0  0  0  0  0  0  0
   13.0542  -16.4742   22.5499 C   0  0  2  0  0  0  0  0  0  0  0  0
   11.6954  -16.9433   22.2888 N   0  0  0  0  0  0  0  0  0  0  0  0
   13.7801  -16.1743   21.3168 C   0  0  0  0  0  0  0  0  0  0  0  0
   13.3256  -16.5752   20.2181 O   0  0  0  0  0  0  0  0  0  0  0  0
   14.9635  -15.4572   21.3059 O   0  0  0  0  0  0  0  0  0  0  0  0
  2  1  1  0
  3  2  1  0
  4  3  1  0
  5  6  1  1
  5  4  1  0
  7  5  1  0
  8  7  2  0
 10  9  1  1
 10 12  1  0
 10 11  1  0
 12 13  1  1
 13  7  1  0
 14 15  2  0
 14 12  1  0
 16 17  1  0
 18 17  1  6
 18 20  1  0
 18 19  1  0
 19 14  1  0
 20 22  1  0
 21 20  2  0
M  END
$$$$
