MTS.pdb
     RDKit          3D

 22 21  0  0  1  0  0  0  0  0999 V2000
    7.8550  -11.2863   26.3423 C   0  0  0  0  0  0  0  0  0  0  0  0
    6.3210  -11.9912   27.0180 S   0  0  0  0  0  0  0  0  0  0  0  0
    5.8065  -13.4440   26.0264 C   0  0  0  0  0  0  0  0  0  0  0  0
    7.0443  -14.2810   25.7741 C   0  0  0  0  0  0  0  0  0  0  0  0
    6.7685  -15.4620   24.8975 C   0  0  2  0  0  0  0  0  0  0  0  0
    5.7134  -16.2590   25.4475 N   0  0  0  0  0  0  0  0  0  0  0  0
    7.9797  -16.2465   24.5742 C   0  0  0  0  0  0  0  0  0  0  0  0
    8.3104  -17.1996   25.3254 O   0  0  0  0  0  0  0  0  0  0  0  0
    8.9660  -16.7503   20.8385 C   0  0  0  0  0  0  0  0  0  0  0  0
   10.2692  -16.7283   21.6078 C   0  0  1  0  0  0  0  0  0  0  0  0
   10.8436  -15.4706   21.3862 O   0  0  0  0  0  0  0  0  0  0  0  0
    9.9416  -16.7938   23.0833 C   0  0  2  0  0  0  0  0  0  0  0  0
    8.8181  -15.9999   23.4533 N   0  0  0  0  0  0  0  0  0  0  0  0
   11.1414  -16.5309   23.9219 C   0  0  0  0  0  0  0  0  0  0  0  0
   11.2215  -15.5483   24.7025 O   0  0  0  0  0  0  0  0  0  0  0  0
   12.4461  -19.0490   27.1023 O   0  0  0  0  0  0  0  0  0  0  0  0
   11.8638  -18.5958   25.9094 C   0  0  0  0  0  0  0  0  0  0  0  0
   12.9175  -17.8391   25.1284 C   0  0  2  0  0  0  0  0  0  0  0  0
   12.2887  -17.3950   23.8866 N   0  0  0  0  0  0  0  0  0  0  0  0
   14.0931  -18.6728   24.8834 C   0  0  0  0  0  0  0  0  0  0  0  0
   14.0741  -19.5101   23.9490 O   0  0  0  0  0  0  0  0  0  0  0  0
   15.2436  -18.5790   25.6464 O   0  0  0  0  0  0  0  0  0  0  0  0
  2  1  1  0
  3  2  1  0
  4  3  1  0
  5  6  1  1
  5  4  1  0
  7  5  1  0
  8  7  2  0
 10  9  1  6
 10 12  1  0
 10 11  1  0
 12 13  1  6
 13  7  1  0
 14 15  2  0
 14 12  1  0
 16 17  1  0
 18 17  1  1
 18 20  1  0
 18 19  1  0
 19 14  1  0
 20 22  1  0
 21 20  2  0
M  END
$$$$
