MTS.pdb
     RDKit          3D

 22 21  0  0  1  0  0  0  0  0999 V2000
    7.9886  -11.8696   27.5823 C   0  0  0  0  0  0  0  0  0  0  0  0
    6.2115  -11.9075   27.1987 S   0  0  0  0  0  0  0  0  0  0  0  0
    5.7151  -13.5951   26.6849 C   0  0  0  0  0  0  0  0  0  0  0  0
    6.8501  -14.1698   25.8615 C   0  0  0  0  0  0  0  0  0  0  0  0
    6.5866  -15.5768   25.4256 C   0  0  2  0  0  0  0  0  0  0  0  0
    6.7397  -16.4797   26.5265 N   0  0  0  0  0  0  0  0  0  0  0  0
    7.3672  -15.9766   24.2348 C   0  0  0  0  0  0  0  0  0  0  0  0
    8.0737  -17.0158   24.2865 O   0  0  0  0  0  0  0  0  0  0  0  0
    8.3434  -13.4566   20.8021 C   0  0  0  0  0  0  0  0  0  0  0  0
    7.7424  -14.8329   20.6143 C   0  0  1  0  0  0  0  0  0  0  0  0
    8.4177  -15.4212   19.5379 O   0  0  0  0  0  0  0  0  0  0  0  0
    8.0811  -15.6607   21.8344 C   0  0  2  0  0  0  0  0  0  0  0  0
    7.3802  -15.2592   23.0079 N   0  0  0  0  0  0  0  0  0  0  0  0
    9.5510  -15.7570   22.0389 C   0  0  0  0  0  0  0  0  0  0  0  0
   10.1784  -14.9983   22.8212 O   0  0  0  0  0  0  0  0  0  0  0  0
   13.0263  -18.3726   23.1417 O   0  0  0  0  0  0  0  0  0  0  0  0
   11.7130  -18.1484   22.7033 C   0  0  0  0  0  0  0  0  0  0  0  0
   11.7298  -16.9768   21.7443 C   0  0  2  0  0  0  0  0  0  0  0  0
   10.3452  -16.7336   21.3462 N   0  0  0  0  0  0  0  0  0  0  0  0
   12.5939  -17.2465   20.5964 C   0  0  0  0  0  0  0  0  0  0  0  0
   12.0863  -17.3730   19.4558 O   0  0  0  0  0  0  0  0  0  0  0  0
   13.9672  -17.3705   20.7120 O   0  0  0  0  0  0  0  0  0  0  0  0
  2  1  1  0
  3  2  1  0
  4  3  1  0
  5  6  1  1
  5  4  1  0
  7  5  1  0
  8  7  2  0
 10  9  1  1
 10 12  1  0
 10 11  1  0
 12 13  1  1
 13  7  1  0
 14 15  2  0
 14 12  1  0
 16 17  1  0
 18 17  1  1
 18 20  1  0
 18 19  1  0
 19 14  1  0
 20 22  1  0
 21 20  2  0
M  END
$$$$
