MTS.pdb
     RDKit          3D

 22 21  0  0  1  0  0  0  0  0999 V2000
    6.3367  -10.9596   26.5355 C   0  0  0  0  0  0  0  0  0  0  0  0
    6.9868  -12.3157   27.5577 S   0  0  0  0  0  0  0  0  0  0  0  0
    6.2627  -13.9111   27.0200 C   0  0  0  0  0  0  0  0  0  0  0  0
    7.1145  -14.4337   25.8808 C   0  0  0  0  0  0  0  0  0  0  0  0
    6.5764  -15.7026   25.2983 C   0  0  2  0  0  0  0  0  0  0  0  0
    6.3515  -16.6714   26.3288 N   0  0  0  0  0  0  0  0  0  0  0  0
    7.3906  -16.2245   24.1794 C   0  0  0  0  0  0  0  0  0  0  0  0
    7.6951  -17.4446   24.1609 O   0  0  0  0  0  0  0  0  0  0  0  0
    7.0790  -14.3726   20.7234 C   0  0  0  0  0  0  0  0  0  0  0  0
    8.4532  -15.0063   20.7500 C   0  0  1  0  0  0  0  0  0  0  0  0
    9.3639  -13.9762   21.0155 O   0  0  0  0  0  0  0  0  0  0  0  0
    8.5121  -15.9441   21.9355 C   0  0  2  0  0  0  0  0  0  0  0  0
    7.8661  -15.4338   23.0983 N   0  0  0  0  0  0  0  0  0  0  0  0
    9.9007  -16.4077   22.1975 C   0  0  0  0  0  0  0  0  0  0  0  0
   10.5712  -16.0169   23.1869 O   0  0  0  0  0  0  0  0  0  0  0  0
   11.7641  -18.5915   19.3845 O   0  0  0  0  0  0  0  0  0  0  0  0
   12.2391  -18.9083   20.6657 C   0  0  0  0  0  0  0  0  0  0  0  0
   11.9426  -17.7388   21.5807 C   0  0  2  0  0  0  0  0  0  0  0  0
   10.5609  -17.3387   21.3248 N   0  0  0  0  0  0  0  0  0  0  0  0
   12.8838  -16.6426   21.3581 C   0  0  0  0  0  0  0  0  0  0  0  0
   12.4703  -15.5598   20.8774 O   0  0  0  0  0  0  0  0  0  0  0  0
   14.2307  -16.7461   21.6582 O   0  0  0  0  0  0  0  0  0  0  0  0
  2  1  1  0
  3  2  1  0
  4  3  1  0
  5  6  1  1
  5  4  1  0
  7  5  1  0
  8  7  2  0
 10  9  1  1
 10 12  1  0
 10 11  1  0
 12 13  1  1
 13  7  1  0
 14 15  2  0
 14 12  1  0
 16 17  1  0
 18 17  1  6
 18 20  1  0
 18 19  1  0
 19 14  1  0
 20 22  1  0
 21 20  2  0
M  END
$$$$
