MTS.pdb
     RDKit          3D

 22 21  0  0  1  0  0  0  0  0999 V2000
    5.3376  -12.2749   26.4991 C   0  0  0  0  0  0  0  0  0  0  0  0
    6.5977  -11.1095   25.8985 S   0  0  0  0  0  0  0  0  0  0  0  0
    7.3877  -11.7651   24.3804 C   0  0  0  0  0  0  0  0  0  0  0  0
    7.0581  -13.2420   24.3003 C   0  0  0  0  0  0  0  0  0  0  0  0
    7.6696  -13.9016   23.1044 C   0  0  2  0  0  0  0  0  0  0  0  0
    7.0181  -13.4683   21.9050 N   0  0  0  0  0  0  0  0  0  0  0  0
    7.7466  -15.3737   23.2233 C   0  0  0  0  0  0  0  0  0  0  0  0
    6.7614  -16.0691   22.8661 O   0  0  0  0  0  0  0  0  0  0  0  0
    9.6964  -18.1037   21.8921 C   0  0  0  0  0  0  0  0  0  0  0  0
    9.9142  -18.2801   23.3795 C   0  0  1  0  0  0  0  0  0  0  0  0
   11.1564  -17.7043   23.6731 O   0  0  0  0  0  0  0  0  0  0  0  0
    8.8774  -17.4511   24.1048 C   0  0  2  0  0  0  0  0  0  0  0  0
    8.8754  -16.0788   23.7220 N   0  0  0  0  0  0  0  0  0  0  0  0
    8.9554  -17.6442   25.5773 C   0  0  0  0  0  0  0  0  0  0  0  0
    9.5391  -16.8309   26.3384 O   0  0  0  0  0  0  0  0  0  0  0  0
    7.2335  -20.8434   26.9646 O   0  0  0  0  0  0  0  0  0  0  0  0
    7.4944  -20.0224   28.0715 C   0  0  0  0  0  0  0  0  0  0  0  0
    8.5178  -18.9856   27.6584 C   0  0  2  0  0  0  0  0  0  0  0  0
    8.3613  -18.7837   26.2198 N   0  0  0  0  0  0  0  0  0  0  0  0
    9.8714  -19.4103   28.0112 C   0  0  0  0  0  0  0  0  0  0  0  0
   10.7037  -19.6437   27.1015 O   0  0  0  0  0  0  0  0  0  0  0  0
   10.2832  -19.5688   29.3227 O   0  0  0  0  0  0  0  0  0  0  0  0
  2  1  1  0
  3  2  1  0
  4  3  1  0
  5  6  1  6
  5  4  1  0
  7  5  1  0
  8  7  2  0
 10  9  1  6
 10 12  1  0
 10 11  1  0
 12 13  1  1
 13  7  1  0
 14 15  2  0
 14 12  1  0
 16 17  1  0
 18 17  1  6
 18 20  1  0
 18 19  1  0
 19 14  1  0
 20 22  1  0
 21 20  2  0
M  END
$$$$
