MTS.pdb
     RDKit          3D

 22 21  0  0  1  0  0  0  0  0999 V2000
    7.4774  -11.7264   27.2338 C   0  0  0  0  0  0  0  0  0  0  0  0
    5.9681  -11.7226   26.2195 S   0  0  0  0  0  0  0  0  0  0  0  0
    6.3489  -12.3033   24.5236 C   0  0  0  0  0  0  0  0  0  0  0  0
    7.0383  -13.6470   24.6493 C   0  0  0  0  0  0  0  0  0  0  0  0
    7.3180  -14.2742   23.3199 C   0  0  2  0  0  0  0  0  0  0  0  0
    6.1160  -14.3679   22.5470 N   0  0  0  0  0  0  0  0  0  0  0  0
    8.0448  -15.5583   23.4198 C   0  0  0  0  0  0  0  0  0  0  0  0
    7.3991  -16.6099   23.6630 O   0  0  0  0  0  0  0  0  0  0  0  0
   10.4133  -17.0888   21.0279 C   0  0  0  0  0  0  0  0  0  0  0  0
   11.1528  -17.2156   22.3424 C   0  0  1  0  0  0  0  0  0  0  0  0
   12.1131  -16.1967   22.3613 O   0  0  0  0  0  0  0  0  0  0  0  0
   10.1791  -16.9053   23.4578 C   0  0  2  0  0  0  0  0  0  0  0  0
    9.4499  -15.6978   23.2581 N   0  0  0  0  0  0  0  0  0  0  0  0
   10.8346  -16.9754   24.7909 C   0  0  0  0  0  0  0  0  0  0  0  0
   11.3375  -15.9695   25.3536 O   0  0  0  0  0  0  0  0  0  0  0  0
   10.0191  -19.8385   27.3582 O   0  0  0  0  0  0  0  0  0  0  0  0
   10.7271  -18.7291   27.8433 C   0  0  0  0  0  0  0  0  0  0  0  0
   11.6894  -18.2761   26.7655 C   0  0  2  0  0  0  0  0  0  0  0  0
   10.9306  -18.2105   25.5187 N   0  0  0  0  0  0  0  0  0  0  0  0
   12.8346  -19.1794   26.6667 C   0  0  0  0  0  0  0  0  0  0  0  0
   13.0268  -19.8213   25.6058 O   0  0  0  0  0  0  0  0  0  0  0  0
   13.7302  -19.3615   27.7057 O   0  0  0  0  0  0  0  0  0  0  0  0
  2  1  1  0
  3  2  1  0
  4  3  1  0
  5  6  1  1
  5  4  1  0
  7  5  1  0
  8  7  2  0
 10  9  1  6
 10 12  1  0
 10 11  1  0
 12 13  1  6
 13  7  1  0
 14 15  2  0
 14 12  1  0
 16 17  1  0
 18 17  1  1
 18 20  1  0
 18 19  1  0
 19 14  1  0
 20 22  1  0
 21 20  2  0
M  END
$$$$
