MTS.pdb
     RDKit          3D

 22 21  0  0  1  0  0  0  0  0999 V2000
    7.5614  -12.0432   20.6156 C   0  0  0  0  0  0  0  0  0  0  0  0
    8.3152  -12.5636   19.0448 S   0  0  0  0  0  0  0  0  0  0  0  0
    7.7964  -14.2726   18.6342 C   0  0  0  0  0  0  0  0  0  0  0  0
    7.7231  -15.0480   19.9341 C   0  0  0  0  0  0  0  0  0  0  0  0
    9.0752  -15.4171   20.4582 C   0  0  2  0  0  0  0  0  0  0  0  0
    9.8389  -16.0859   19.4482 N   0  0  0  0  0  0  0  0  0  0  0  0
    9.0249  -16.1613   21.7352 C   0  0  0  0  0  0  0  0  0  0  0  0
    8.1773  -15.8306   22.6035 O   0  0  0  0  0  0  0  0  0  0  0  0
    9.3771  -20.0712   22.1472 C   0  0  0  0  0  0  0  0  0  0  0  0
   10.2826  -19.4086   23.1630 C   0  0  1  0  0  0  0  0  0  0  0  0
   11.5666  -19.3929   22.6046 O   0  0  0  0  0  0  0  0  0  0  0  0
    9.8570  -17.9629   23.2950 C   0  0  2  0  0  0  0  0  0  0  0  0
    9.8814  -17.2470   22.0636 N   0  0  0  0  0  0  0  0  0  0  0  0
   10.5974  -17.2724   24.3844 C   0  0  0  0  0  0  0  0  0  0  0  0
   11.6729  -16.6516   24.1862 O   0  0  0  0  0  0  0  0  0  0  0  0
    9.8817  -14.6452   26.5046 O   0  0  0  0  0  0  0  0  0  0  0  0
   10.1428  -15.6278   27.4709 C   0  0  0  0  0  0  0  0  0  0  0  0
   10.9452  -16.7320   26.8152 C   0  0  2  0  0  0  0  0  0  0  0  0
   10.1196  -17.2757   25.7393 N   0  0  0  0  0  0  0  0  0  0  0  0
   11.3277  -17.7550   27.7869 C   0  0  0  0  0  0  0  0  0  0  0  0
   10.9684  -18.9438   27.6079 O   0  0  0  0  0  0  0  0  0  0  0  0
   12.0797  -17.4677   28.9124 O   0  0  0  0  0  0  0  0  0  0  0  0
  2  1  1  0
  3  2  1  0
  4  3  1  0
  5  6  1  6
  5  4  1  0
  7  5  1  0
  8  7  2  0
 10  9  1  6
 10 12  1  0
 10 11  1  0
 12 13  1  6
 13  7  1  0
 14 15  2  0
 14 12  1  0
 16 17  1  0
 18 17  1  1
 18 20  1  0
 18 19  1  0
 19 14  1  0
 20 22  1  0
 21 20  2  0
M  END
$$$$
