FTY.pdb
     RDKit          3D

 31 32  0  0  1  0  0  0  0  0999 V2000
    7.0877  -16.3554   19.6656 N   0  0  0  0  0  0  0  0  0  0  0  0
    8.4652  -16.1831   20.0788 C   0  0  1  0  0  0  0  0  0  0  0  0
    8.7967  -14.7187   19.9263 C   0  0  0  0  0  0  0  0  0  0  0  0
    8.0408  -13.9849   20.9709 C   0  0  0  0  0  0  0  0  0  0  0  0
    6.6666  -13.9403   20.9296 C   0  0  0  0  0  0  0  0  0  0  0  0
    5.9240  -13.2617   21.8924 C   0  0  0  0  0  0  0  0  0  0  0  0
    6.5628  -12.6092   22.9247 C   0  0  0  0  0  0  0  0  0  0  0  0
    7.9498  -12.6544   22.9662 C   0  0  0  0  0  0  0  0  0  0  0  0
    8.6803  -13.3335   22.0017 C   0  0  0  0  0  0  0  0  0  0  0  0
    8.6356  -16.6851   21.4365 C   0  0  0  0  0  0  0  0  0  0  0  0
    7.6309  -17.0461   22.0979 O   0  0  0  0  0  0  0  0  0  0  0  0
   11.4077  -19.5596   24.2203 C   0  0  0  0  0  0  0  0  0  0  0  0
   11.1621  -18.6838   23.0142 C   0  0  1  0  0  0  0  0  0  0  0  0
   10.8208  -19.4120   21.8815 O   0  0  0  0  0  0  0  0  0  0  0  0
   10.0667  -17.6717   23.2677 C   0  0  2  0  0  0  0  0  0  0  0  0
    9.8916  -16.8042   22.0986 N   0  0  0  0  0  0  0  0  0  0  0  0
   10.3206  -16.8113   24.4463 C   0  0  0  0  0  0  0  0  0  0  0  0
   11.1486  -15.8450   24.3393 O   0  0  0  0  0  0  0  0  0  0  0  0
    6.4915  -11.1078   25.5609 O   0  0  0  0  0  0  0  0  0  0  0  0
    7.0822  -12.2577   26.0823 C   0  0  0  0  0  0  0  0  0  0  0  0
    6.6620  -13.5123   25.6804 C   0  0  0  0  0  0  0  0  0  0  0  0
    7.2374  -14.6580   26.1879 C   0  0  0  0  0  0  0  0  0  0  0  0
    8.2505  -14.6088   27.1121 C   0  0  0  0  0  0  0  0  0  0  0  0
    8.8737  -15.8349   27.6611 C   0  0  0  0  0  0  0  0  0  0  0  0
   10.1376  -16.2230   26.8866 C   0  0  2  0  0  0  0  0  0  0  0  0
    9.7073  -16.9741   25.7099 N   0  0  0  0  0  0  0  0  0  0  0  0
   10.9676  -17.0868   27.7428 C   0  0  0  0  0  0  0  0  0  0  0  0
   10.9516  -18.3376   27.5577 O   0  0  0  0  0  0  0  0  0  0  0  0
    8.6876  -13.3475   27.5294 C   0  0  0  0  0  0  0  0  0  0  0  0
    8.0980  -12.2172   27.0089 C   0  0  0  0  0  0  0  0  0  0  0  0
   11.7583  -16.5371   28.7411 O   0  0  0  0  0  0  0  0  0  0  0  0
  2  1  1  1
  2 10  1  0
  3  2  1  0
  3  4  1  0
  4  9  1  0
  4  5  2  0
  5  6  1  0
  7  6  2  0
  8  7  1  0
  9  8  2  0
 10 11  2  0
 13 12  1  1
 13 15  1  0
 14 13  1  0
 15 17  1  0
 15 16  1  6
 16 10  1  0
 17 26  1  0
 17 18  2  0
 19 20  1  0
 20 30  2  0
 20 21  1  0
 21 22  2  0
 22 23  1  0
 23 24  1  0
 25 24  1  1
 25 27  1  0
 26 25  1  0
 27 28  2  0
 27 31  1  0
 29 23  2  0
 30 29  1  0
M  END
$$$$
