FTY.pdb
     RDKit          3D

 31 32  0  0  1  0  0  0  0  0999 V2000
    6.2141  -17.8465   19.9024 N   0  0  0  0  0  0  0  0  0  0  0  0
    7.2813  -16.9332   20.2561 C   0  0  1  0  0  0  0  0  0  0  0  0
    6.6852  -15.8776   21.1549 C   0  0  0  0  0  0  0  0  0  0  0  0
    7.1283  -14.5589   20.6393 C   0  0  0  0  0  0  0  0  0  0  0  0
    6.9185  -13.4189   21.3799 C   0  0  0  0  0  0  0  0  0  0  0  0
    7.3205  -12.1646   20.9282 C   0  0  0  0  0  0  0  0  0  0  0  0
    7.9482  -12.0382   19.7078 C   0  0  0  0  0  0  0  0  0  0  0  0
    8.1599  -13.1889   18.9604 C   0  0  0  0  0  0  0  0  0  0  0  0
    7.7553  -14.4340   19.4198 C   0  0  0  0  0  0  0  0  0  0  0  0
    8.3772  -17.6742   20.8677 C   0  0  0  0  0  0  0  0  0  0  0  0
    8.1394  -18.4834   21.7983 O   0  0  0  0  0  0  0  0  0  0  0  0
   11.9826  -19.1345   19.3612 C   0  0  0  0  0  0  0  0  0  0  0  0
   12.1101  -18.1732   20.5194 C   0  0  1  0  0  0  0  0  0  0  0  0
   12.4594  -16.8901   20.1173 O   0  0  0  0  0  0  0  0  0  0  0  0
   10.8282  -18.0808   21.3175 C   0  0  2  0  0  0  0  0  0  0  0  0
    9.7439  -17.5523   20.4839 N   0  0  0  0  0  0  0  0  0  0  0  0
   10.9436  -17.2251   22.5209 C   0  0  0  0  0  0  0  0  0  0  0  0
   10.6803  -15.9795   22.4212 O   0  0  0  0  0  0  0  0  0  0  0  0
   10.5460  -13.9199   30.6146 O   0  0  0  0  0  0  0  0  0  0  0  0
   10.4624  -14.6603   29.4366 C   0  0  0  0  0  0  0  0  0  0  0  0
   10.1337  -14.0499   28.2402 C   0  0  0  0  0  0  0  0  0  0  0  0
   10.0475  -14.7700   27.0675 C   0  0  0  0  0  0  0  0  0  0  0  0
   10.2827  -16.1215   27.0311 C   0  0  0  0  0  0  0  0  0  0  0  0
   10.1926  -16.9014   25.7755 C   0  0  0  0  0  0  0  0  0  0  0  0
   11.4722  -16.7808   24.9412 C   0  0  2  0  0  0  0  0  0  0  0  0
   11.3293  -17.6836   23.8016 N   0  0  0  0  0  0  0  0  0  0  0  0
   12.6140  -17.2098   25.7661 C   0  0  0  0  0  0  0  0  0  0  0  0
   13.3166  -16.3355   26.3498 O   0  0  0  0  0  0  0  0  0  0  0  0
   10.6165  -16.7546   28.2328 C   0  0  0  0  0  0  0  0  0  0  0  0
   10.6966  -16.0150   29.3915 C   0  0  0  0  0  0  0  0  0  0  0  0
   12.9169  -18.5565   25.9025 O   0  0  0  0  0  0  0  0  0  0  0  0
  2  1  1  1
  2 10  1  0
  3  2  1  0
  3  4  1  0
  4  9  1  0
  4  5  2  0
  5  6  1  0
  7  6  2  0
  8  7  1  0
  9  8  2  0
 10 11  2  0
 13 12  1  6
 13 15  1  0
 14 13  1  0
 15 17  1  0
 15 16  1  6
 16 10  1  0
 17 26  1  0
 17 18  2  0
 19 20  1  0
 20 30  2  0
 20 21  1  0
 21 22  2  0
 22 23  1  0
 23 24  1  0
 25 24  1  1
 25 27  1  0
 26 25  1  0
 27 28  2  0
 27 31  1  0
 29 23  2  0
 30 29  1  0
M  END
$$$$
