FTY.pdb
     RDKit          3D

 31 32  0  0  1  0  0  0  0  0999 V2000
    7.9431  -17.5840   19.2401 N   0  0  0  0  0  0  0  0  0  0  0  0
    8.2679  -16.7092   20.3480 C   0  0  1  0  0  0  0  0  0  0  0  0
    7.0147  -15.9423   20.6930 C   0  0  0  0  0  0  0  0  0  0  0  0
    7.3130  -14.5018   20.5003 C   0  0  0  0  0  0  0  0  0  0  0  0
    7.1040  -13.9082   19.2772 C   0  0  0  0  0  0  0  0  0  0  0  0
    7.3724  -12.5593   19.0594 C   0  0  0  0  0  0  0  0  0  0  0  0
    7.8618  -11.7779   20.0838 C   0  0  0  0  0  0  0  0  0  0  0  0
    8.0726  -12.3773   21.3182 C   0  0  0  0  0  0  0  0  0  0  0  0
    7.8019  -13.7223   21.5246 C   0  0  0  0  0  0  0  0  0  0  0  0
    8.7975  -17.4965   21.4544 C   0  0  0  0  0  0  0  0  0  0  0  0
    8.1465  -18.4793   21.8875 O   0  0  0  0  0  0  0  0  0  0  0  0
   12.0181  -19.4545   22.0175 C   0  0  0  0  0  0  0  0  0  0  0  0
   11.8770  -18.4639   23.1492 C   0  0  1  0  0  0  0  0  0  0  0  0
   12.6937  -17.3507   22.9943 O   0  0  0  0  0  0  0  0  0  0  0  0
   10.4513  -17.9810   23.2997 C   0  0  2  0  0  0  0  0  0  0  0  0
   10.0360  -17.2342   22.1082 N   0  0  0  0  0  0  0  0  0  0  0  0
   10.2444  -17.1141   24.4826 C   0  0  0  0  0  0  0  0  0  0  0  0
   10.1232  -15.8543   24.3120 O   0  0  0  0  0  0  0  0  0  0  0  0
    6.4740  -11.3209   25.4861 O   0  0  0  0  0  0  0  0  0  0  0  0
    6.8492  -12.6369   25.7511 C   0  0  0  0  0  0  0  0  0  0  0  0
    8.1720  -13.0278   25.6534 C   0  0  0  0  0  0  0  0  0  0  0  0
    8.5572  -14.3261   25.9126 C   0  0  0  0  0  0  0  0  0  0  0  0
    7.6505  -15.2889   26.2787 C   0  0  0  0  0  0  0  0  0  0  0  0
    8.0568  -16.6851   26.5592 C   0  0  0  0  0  0  0  0  0  0  0  0
    9.5518  -16.7858   26.8799 C   0  0  2  0  0  0  0  0  0  0  0  0
   10.1675  -17.5762   25.8167 N   0  0  0  0  0  0  0  0  0  0  0  0
    9.7111  -17.4857   28.1657 C   0  0  0  0  0  0  0  0  0  0  0  0
    9.4152  -16.8830   29.2371 O   0  0  0  0  0  0  0  0  0  0  0  0
    6.3081  -14.9102   26.3822 C   0  0  0  0  0  0  0  0  0  0  0  0
    5.9468  -13.6079   26.1185 C   0  0  0  0  0  0  0  0  0  0  0  0
   10.1801  -18.7906   28.2032 O   0  0  0  0  0  0  0  0  0  0  0  0
  2  1  1  6
  2 10  1  0
  3  2  1  0
  3  4  1  0
  4  9  1  0
  4  5  2  0
  5  6  1  0
  7  6  2  0
  8  7  1  0
  9  8  2  0
 10 11  2  0
 13 12  1  6
 13 15  1  0
 14 13  1  0
 15 17  1  0
 15 16  1  6
 16 10  1  0
 17 26  1  0
 17 18  2  0
 19 20  1  0
 20 30  2  0
 20 21  1  0
 21 22  2  0
 22 23  1  0
 23 24  1  0
 25 24  1  6
 25 27  1  0
 26 25  1  0
 27 28  2  0
 27 31  1  0
 29 23  2  0
 30 29  1  0
M  END
$$$$
