FTY.pdb
     RDKit          3D

 31 32  0  0  1  0  0  0  0  0999 V2000
    7.9283  -16.7418   16.6626 N   0  0  0  0  0  0  0  0  0  0  0  0
    8.2763  -15.8341   17.7364 C   0  0  1  0  0  0  0  0  0  0  0  0
    7.2411  -14.7360   17.7452 C   0  0  0  0  0  0  0  0  0  0  0  0
    7.5479  -13.8510   18.8957 C   0  0  0  0  0  0  0  0  0  0  0  0
    6.9626  -14.0774   20.1198 C   0  0  0  0  0  0  0  0  0  0  0  0
    7.2266  -13.2679   21.2216 C   0  0  0  0  0  0  0  0  0  0  0  0
    8.0954  -12.2044   21.1056 C   0  0  0  0  0  0  0  0  0  0  0  0
    8.6861  -11.9761   19.8700 C   0  0  0  0  0  0  0  0  0  0  0  0
    8.4161  -12.7887   18.7783 C   0  0  0  0  0  0  0  0  0  0  0  0
    8.3617  -16.5703   18.9914 C   0  0  0  0  0  0  0  0  0  0  0  0
    7.3775  -17.2422   19.3878 O   0  0  0  0  0  0  0  0  0  0  0  0
   10.1450  -19.5225   19.6310 C   0  0  0  0  0  0  0  0  0  0  0  0
   10.6068  -18.5889   20.7252 C   0  0  1  0  0  0  0  0  0  0  0  0
   11.8291  -17.9923   20.4426 O   0  0  0  0  0  0  0  0  0  0  0  0
    9.6002  -17.4910   20.9897 C   0  0  2  0  0  0  0  0  0  0  0  0
    9.5095  -16.5915   19.8353 N   0  0  0  0  0  0  0  0  0  0  0  0
    9.9174  -16.6762   22.1852 C   0  0  0  0  0  0  0  0  0  0  0  0
   10.6801  -15.6601   22.0561 O   0  0  0  0  0  0  0  0  0  0  0  0
   10.7087  -14.1294   30.6813 O   0  0  0  0  0  0  0  0  0  0  0  0
   10.2819  -14.7144   29.4902 C   0  0  0  0  0  0  0  0  0  0  0  0
    9.5673  -13.9824   28.5598 C   0  0  0  0  0  0  0  0  0  0  0  0
    9.1390  -14.5482   27.3777 C   0  0  0  0  0  0  0  0  0  0  0  0
    9.4000  -15.8595   27.0686 C   0  0  0  0  0  0  0  0  0  0  0  0
    8.9437  -16.4740   25.8007 C   0  0  0  0  0  0  0  0  0  0  0  0
    9.9371  -16.2242   24.6611 C   0  0  2  0  0  0  0  0  0  0  0  0
    9.4341  -16.9355   23.4885 N   0  0  0  0  0  0  0  0  0  0  0  0
   11.2453  -16.7792   25.0470 C   0  0  0  0  0  0  0  0  0  0  0  0
   11.4269  -18.0292   24.9880 O   0  0  0  0  0  0  0  0  0  0  0  0
   10.1218  -16.6142   27.9989 C   0  0  0  0  0  0  0  0  0  0  0  0
   10.5392  -16.0279   29.1728 C   0  0  0  0  0  0  0  0  0  0  0  0
   12.2674  -15.9426   25.4705 O   0  0  0  0  0  0  0  0  0  0  0  0
  2  1  1  6
  2 10  1  0
  3  2  1  0
  3  4  1  0
  4  9  1  0
  4  5  2  0
  5  6  1  0
  7  6  2  0
  8  7  1  0
  9  8  2  0
 10 11  2  0
 13 12  1  6
 13 15  1  0
 14 13  1  0
 15 17  1  0
 15 16  1  6
 16 10  1  0
 17 26  1  0
 17 18  2  0
 19 20  1  0
 20 30  2  0
 20 21  1  0
 21 22  2  0
 22 23  1  0
 23 24  1  0
 25 24  1  1
 25 27  1  0
 26 25  1  0
 27 28  2  0
 27 31  1  0
 29 23  2  0
 30 29  1  0
M  END
$$$$
