FTY.pdb
     RDKit          3D

 31 32  0  0  1  0  0  0  0  0999 V2000
    7.7263  -17.0354   18.6324 N   0  0  0  0  0  0  0  0  0  0  0  0
    8.1458  -16.0548   19.6125 C   0  0  1  0  0  0  0  0  0  0  0  0
    7.1407  -14.9296   19.5761 C   0  0  0  0  0  0  0  0  0  0  0  0
    7.6550  -13.8511   20.4555 C   0  0  0  0  0  0  0  0  0  0  0  0
    8.4963  -12.8871   19.9507 C   0  0  0  0  0  0  0  0  0  0  0  0
    8.9985  -11.8602   20.7460 C   0  0  0  0  0  0  0  0  0  0  0  0
    8.6562  -11.7881   22.0791 C   0  0  0  0  0  0  0  0  0  0  0  0
    7.8071  -12.7612   22.5884 C   0  0  0  0  0  0  0  0  0  0  0  0
    7.3123  -13.7803   21.7873 C   0  0  0  0  0  0  0  0  0  0  0  0
    8.2687  -16.6898   20.9187 C   0  0  0  0  0  0  0  0  0  0  0  0
    7.2895  -17.3069   21.4061 O   0  0  0  0  0  0  0  0  0  0  0  0
    9.9689  -19.6475   21.6557 C   0  0  0  0  0  0  0  0  0  0  0  0
   10.5463  -18.6522   22.6345 C   0  0  1  0  0  0  0  0  0  0  0  0
   11.7503  -18.1100   22.2027 O   0  0  0  0  0  0  0  0  0  0  0  0
    9.5904  -17.5117   22.9068 C   0  0  2  0  0  0  0  0  0  0  0  0
    9.4492  -16.6676   21.7162 N   0  0  0  0  0  0  0  0  0  0  0  0
   10.0081  -16.6496   24.0363 C   0  0  0  0  0  0  0  0  0  0  0  0
   10.7397  -15.6303   23.7983 O   0  0  0  0  0  0  0  0  0  0  0  0
    5.4855  -11.7503   26.4532 O   0  0  0  0  0  0  0  0  0  0  0  0
    6.3742  -12.7896   26.7236 C   0  0  0  0  0  0  0  0  0  0  0  0
    7.7075  -12.5298   26.9823 C   0  0  0  0  0  0  0  0  0  0  0  0
    8.5975  -13.5480   27.2513 C   0  0  0  0  0  0  0  0  0  0  0  0
    8.2049  -14.8627   27.2751 C   0  0  0  0  0  0  0  0  0  0  0  0
    9.1549  -15.9615   27.5637 C   0  0  0  0  0  0  0  0  0  0  0  0
   10.2296  -16.0803   26.4779 C   0  0  2  0  0  0  0  0  0  0  0  0
    9.6553  -16.8658   25.3884 N   0  0  0  0  0  0  0  0  0  0  0  0
   11.3886  -16.7946   27.0391 C   0  0  0  0  0  0  0  0  0  0  0  0
   11.5849  -18.0014   26.7166 O   0  0  0  0  0  0  0  0  0  0  0  0
    6.8594  -15.1430   27.0155 C   0  0  0  0  0  0  0  0  0  0  0  0
    5.9889  -14.1098   26.7494 C   0  0  0  0  0  0  0  0  0  0  0  0
   12.2557  -16.1532   27.9112 O   0  0  0  0  0  0  0  0  0  0  0  0
  2  1  1  6
  2 10  1  0
  3  2  1  0
  3  4  1  0
  4  9  1  0
  4  5  2  0
  5  6  1  0
  7  6  2  0
  8  7  1  0
  9  8  2  0
 10 11  2  0
 13 12  1  6
 13 15  1  0
 14 13  1  0
 15 17  1  0
 15 16  1  6
 16 10  1  0
 17 26  1  0
 17 18  2  0
 19 20  1  0
 20 30  2  0
 20 21  1  0
 21 22  2  0
 22 23  1  0
 23 24  1  0
 25 24  1  1
 25 27  1  0
 26 25  1  0
 27 28  2  0
 27 31  1  0
 29 23  2  0
 30 29  1  0
M  END
$$$$
