FTY.pdb
     RDKit          3D

 31 32  0  0  1  0  0  0  0  0999 V2000
    8.8458  -16.4679   18.9643 N   0  0  0  0  0  0  0  0  0  0  0  0
    9.8569  -16.1784   19.9603 C   0  0  1  0  0  0  0  0  0  0  0  0
   10.0852  -14.6867   19.9436 C   0  0  0  0  0  0  0  0  0  0  0  0
    8.9214  -14.0556   20.6132 C   0  0  0  0  0  0  0  0  0  0  0  0
    7.7274  -13.9184   19.9444 C   0  0  0  0  0  0  0  0  0  0  0  0
    6.6142  -13.3315   20.5405 C   0  0  0  0  0  0  0  0  0  0  0  0
    6.6882  -12.8679   21.8364 C   0  0  0  0  0  0  0  0  0  0  0  0
    7.8935  -13.0065   22.5113 C   0  0  0  0  0  0  0  0  0  0  0  0
    8.9967  -13.5929   21.9079 C   0  0  0  0  0  0  0  0  0  0  0  0
    9.4296  -16.6923   21.2555 C   0  0  0  0  0  0  0  0  0  0  0  0
    8.2633  -17.1365   21.3956 O   0  0  0  0  0  0  0  0  0  0  0  0
    9.8000  -19.7243   22.3328 C   0  0  0  0  0  0  0  0  0  0  0  0
   10.4815  -18.9469   23.4343 C   0  0  1  0  0  0  0  0  0  0  0  0
   11.8517  -18.8271   23.2393 O   0  0  0  0  0  0  0  0  0  0  0  0
    9.9060  -17.5555   23.5799 C   0  0  2  0  0  0  0  0  0  0  0  0
   10.2544  -16.7338   22.4165 N   0  0  0  0  0  0  0  0  0  0  0  0
   10.3690  -16.8506   24.7974 C   0  0  0  0  0  0  0  0  0  0  0  0
   11.4397  -16.1570   24.7407 O   0  0  0  0  0  0  0  0  0  0  0  0
    6.2475  -11.5574   24.9238 O   0  0  0  0  0  0  0  0  0  0  0  0
    6.9122  -12.5360   25.6612 C   0  0  0  0  0  0  0  0  0  0  0  0
    6.4084  -13.8210   25.7455 C   0  0  0  0  0  0  0  0  0  0  0  0
    7.0554  -14.7987   26.4712 C   0  0  0  0  0  0  0  0  0  0  0  0
    8.2253  -14.5449   27.1420 C   0  0  0  0  0  0  0  0  0  0  0  0
    8.9261  -15.5900   27.9231 C   0  0  0  0  0  0  0  0  0  0  0  0
   10.1716  -16.1027   27.1925 C   0  0  2  0  0  0  0  0  0  0  0  0
    9.7081  -16.8819   26.0471 N   0  0  0  0  0  0  0  0  0  0  0  0
   10.9268  -16.9764   28.1062 C   0  0  0  0  0  0  0  0  0  0  0  0
   10.8603  -18.2302   27.9567 O   0  0  0  0  0  0  0  0  0  0  0  0
    8.7485  -13.2500   27.0671 C   0  0  0  0  0  0  0  0  0  0  0  0
    8.0851  -12.2899   26.3363 C   0  0  0  0  0  0  0  0  0  0  0  0
   11.7023  -16.4324   29.1195 O   0  0  0  0  0  0  0  0  0  0  0  0
  2  1  1  6
  2 10  1  0
  3  2  1  0
  3  4  1  0
  4  9  1  0
  4  5  2  0
  5  6  1  0
  7  6  2  0
  8  7  1  0
  9  8  2  0
 10 11  2  0
 13 12  1  6
 13 15  1  0
 14 13  1  0
 15 17  1  0
 15 16  1  6
 16 10  1  0
 17 26  1  0
 17 18  2  0
 19 20  1  0
 20 30  2  0
 20 21  1  0
 21 22  2  0
 22 23  1  0
 23 24  1  0
 25 24  1  1
 25 27  1  0
 26 25  1  0
 27 28  2  0
 27 31  1  0
 29 23  2  0
 30 29  1  0
M  END
$$$$
