FTY.pdb
     RDKit          3D

 31 32  0  0  1  0  0  0  0  0999 V2000
    6.6504  -17.6368   20.1541 N   0  0  0  0  0  0  0  0  0  0  0  0
    7.3322  -16.5054   20.7482 C   0  0  1  0  0  0  0  0  0  0  0  0
    6.2899  -15.4477   21.0176 C   0  0  0  0  0  0  0  0  0  0  0  0
    7.0052  -14.2308   21.4740 C   0  0  0  0  0  0  0  0  0  0  0  0
    7.0669  -13.9243   22.8135 C   0  0  0  0  0  0  0  0  0  0  0  0
    7.7291  -12.7911   23.2785 C   0  0  0  0  0  0  0  0  0  0  0  0
    8.3473  -11.9384   22.3896 C   0  0  0  0  0  0  0  0  0  0  0  0
    8.2849  -12.2479   21.0376 C   0  0  0  0  0  0  0  0  0  0  0  0
    7.6224  -13.3797   20.5848 C   0  0  0  0  0  0  0  0  0  0  0  0
    8.0513  -16.9378   21.9400 C   0  0  0  0  0  0  0  0  0  0  0  0
    7.4356  -17.5373   22.8559 O   0  0  0  0  0  0  0  0  0  0  0  0
   11.1543  -19.1719   21.7944 C   0  0  0  0  0  0  0  0  0  0  0  0
   11.4347  -18.0271   22.7394 C   0  0  1  0  0  0  0  0  0  0  0  0
   12.2060  -17.0278   22.1594 O   0  0  0  0  0  0  0  0  0  0  0  0
   10.1592  -17.3958   23.2522 C   0  0  2  0  0  0  0  0  0  0  0  0
    9.4435  -16.7293   22.1596 N   0  0  0  0  0  0  0  0  0  0  0  0
   10.3841  -16.4038   24.3287 C   0  0  0  0  0  0  0  0  0  0  0  0
   10.9732  -15.3068   24.0452 O   0  0  0  0  0  0  0  0  0  0  0  0
    5.5565  -11.7700   25.4208 O   0  0  0  0  0  0  0  0  0  0  0  0
    6.4749  -12.6595   25.9761 C   0  0  0  0  0  0  0  0  0  0  0  0
    6.2017  -14.0139   26.0323 C   0  0  0  0  0  0  0  0  0  0  0  0
    7.1009  -14.9048   26.5788 C   0  0  0  0  0  0  0  0  0  0  0  0
    8.3053  -14.4924   27.0911 C   0  0  0  0  0  0  0  0  0  0  0  0
    9.2763  -15.4435   27.6791 C   0  0  0  0  0  0  0  0  0  0  0  0
   10.4626  -15.6931   26.7419 C   0  0  2  0  0  0  0  0  0  0  0  0
    9.9908  -16.5739   25.6762 N   0  0  0  0  0  0  0  0  0  0  0  0
   11.5279  -16.3694   27.5010 C   0  0  0  0  0  0  0  0  0  0  0  0
   11.7683  -17.5897   27.2733 O   0  0  0  0  0  0  0  0  0  0  0  0
    8.5974  -13.1255   27.0422 C   0  0  0  0  0  0  0  0  0  0  0  0
    7.6841  -12.2544   26.4918 C   0  0  0  0  0  0  0  0  0  0  0  0
   12.2600  -15.6777   28.4547 O   0  0  0  0  0  0  0  0  0  0  0  0
  2  1  1  1
  2 10  1  0
  3  2  1  0
  3  4  1  0
  4  9  1  0
  4  5  2  0
  5  6  1  0
  7  6  2  0
  8  7  1  0
  9  8  2  0
 10 11  2  0
 13 12  1  6
 13 15  1  0
 14 13  1  0
 15 17  1  0
 15 16  1  6
 16 10  1  0
 17 26  1  0
 17 18  2  0
 19 20  1  0
 20 30  2  0
 20 21  1  0
 21 22  2  0
 22 23  1  0
 23 24  1  0
 25 24  1  1
 25 27  1  0
 26 25  1  0
 27 28  2  0
 27 31  1  0
 29 23  2  0
 30 29  1  0
M  END
$$$$
