FTY.pdb
     RDKit          3D

 31 32  0  0  1  0  0  0  0  0999 V2000
    6.2086  -16.5608   25.7856 N   0  0  0  0  0  0  0  0  0  0  0  0
    6.5420  -16.3139   24.3979 C   0  0  1  0  0  0  0  0  0  0  0  0
    6.1982  -14.8737   24.1060 C   0  0  0  0  0  0  0  0  0  0  0  0
    6.7084  -14.0612   25.2375 C   0  0  0  0  0  0  0  0  0  0  0  0
    7.7659  -13.2013   25.0521 C   0  0  0  0  0  0  0  0  0  0  0  0
    8.2714  -12.4233   26.0905 C   0  0  0  0  0  0  0  0  0  0  0  0
    7.7118  -12.5007   27.3476 C   0  0  0  0  0  0  0  0  0  0  0  0
    6.6445  -13.3686   27.5345 C   0  0  0  0  0  0  0  0  0  0  0  0
    6.1485  -14.1395   26.4931 C   0  0  0  0  0  0  0  0  0  0  0  0
    7.9430  -16.6416   24.1652 C   0  0  0  0  0  0  0  0  0  0  0  0
    8.5689  -17.3336   25.0058 O   0  0  0  0  0  0  0  0  0  0  0  0
    9.2180  -17.8416   20.5250 C   0  0  0  0  0  0  0  0  0  0  0  0
   10.1684  -16.8705   21.1851 C   0  0  1  0  0  0  0  0  0  0  0  0
   10.0354  -15.5751   20.7012 O   0  0  0  0  0  0  0  0  0  0  0  0
    9.9801  -16.8312   22.6856 C   0  0  2  0  0  0  0  0  0  0  0  0
    8.6873  -16.2274   23.0231 N   0  0  0  0  0  0  0  0  0  0  0  0
   11.0401  -16.0765   23.3930 C   0  0  0  0  0  0  0  0  0  0  0  0
   10.9203  -14.8111   23.5167 O   0  0  0  0  0  0  0  0  0  0  0  0
    9.2243  -14.6152   29.3429 O   0  0  0  0  0  0  0  0  0  0  0  0
   10.2722  -15.0183   28.5169 C   0  0  0  0  0  0  0  0  0  0  0  0
   10.3345  -16.3131   28.0354 C   0  0  0  0  0  0  0  0  0  0  0  0
   11.3652  -16.7253   27.2177 C   0  0  0  0  0  0  0  0  0  0  0  0
   12.3748  -15.8744   26.8436 C   0  0  0  0  0  0  0  0  0  0  0  0
   13.4847  -16.3099   25.9652 C   0  0  0  0  0  0  0  0  0  0  0  0
   13.2786  -15.8444   24.5199 C   0  0  2  0  0  0  0  0  0  0  0  0
   12.2011  -16.6542   23.9568 N   0  0  0  0  0  0  0  0  0  0  0  0
   14.5198  -16.0875   23.7657 C   0  0  0  0  0  0  0  0  0  0  0  0
   14.5377  -16.9915   22.8818 O   0  0  0  0  0  0  0  0  0  0  0  0
   12.3269  -14.5610   27.3219 C   0  0  0  0  0  0  0  0  0  0  0  0
   11.2879  -14.1718   28.1373 C   0  0  0  0  0  0  0  0  0  0  0  0
   15.6568  -15.3349   24.0204 O   0  0  0  0  0  0  0  0  0  0  0  0
  2  1  1  1
  2 10  1  0
  3  2  1  0
  3  4  1  0
  4  9  1  0
  4  5  2  0
  5  6  1  0
  7  6  2  0
  8  7  1  0
  9  8  2  0
 10 11  2  0
 13 12  1  6
 13 15  1  0
 14 13  1  0
 15 17  1  0
 15 16  1  6
 16 10  1  0
 17 26  1  0
 17 18  2  0
 19 20  1  0
 20 30  2  0
 20 21  1  0
 21 22  2  0
 22 23  1  0
 23 24  1  0
 25 24  1  1
 25 27  1  0
 26 25  1  0
 27 28  2  0
 27 31  1  0
 29 23  2  0
 30 29  1  0
M  END
$$$$
