FTY.pdb
     RDKit          3D

 31 32  0  0  1  0  0  0  0  0999 V2000
    8.3739  -16.8788   18.8037 N   0  0  0  0  0  0  0  0  0  0  0  0
    9.1014  -16.3989   19.9606 C   0  0  1  0  0  0  0  0  0  0  0  0
    8.1051  -15.7070   20.8585 C   0  0  0  0  0  0  0  0  0  0  0  0
    7.7830  -14.4002   20.2343 C   0  0  0  0  0  0  0  0  0  0  0  0
    8.6125  -13.3192   20.4219 C   0  0  0  0  0  0  0  0  0  0  0  0
    8.3423  -12.0778   19.8518 C   0  0  0  0  0  0  0  0  0  0  0  0
    7.2177  -11.9045   19.0741 C   0  0  0  0  0  0  0  0  0  0  0  0
    6.3806  -12.9957   18.8849 C   0  0  0  0  0  0  0  0  0  0  0  0
    6.6591  -14.2285   19.4575 C   0  0  0  0  0  0  0  0  0  0  0  0
    9.7938  -17.5109   20.5995 C   0  0  0  0  0  0  0  0  0  0  0  0
    9.1443  -18.5215   20.9658 O   0  0  0  0  0  0  0  0  0  0  0  0
   12.9214  -19.8186   20.1893 C   0  0  0  0  0  0  0  0  0  0  0  0
   13.0835  -18.9881   21.4407 C   0  0  1  0  0  0  0  0  0  0  0  0
   13.9882  -17.9460   21.2809 O   0  0  0  0  0  0  0  0  0  0  0  0
   11.7676  -18.3993   21.8994 C   0  0  2  0  0  0  0  0  0  0  0  0
   11.1956  -17.5478   20.8517 N   0  0  0  0  0  0  0  0  0  0  0  0
   11.8821  -17.5936   23.1369 C   0  0  0  0  0  0  0  0  0  0  0  0
   11.7146  -16.3295   23.0692 O   0  0  0  0  0  0  0  0  0  0  0  0
   10.3315  -14.1886   30.9224 O   0  0  0  0  0  0  0  0  0  0  0  0
   10.4316  -14.8656   29.7080 C   0  0  0  0  0  0  0  0  0  0  0  0
   10.5477  -14.1699   28.5187 C   0  0  0  0  0  0  0  0  0  0  0  0
   10.6474  -14.8267   27.3105 C   0  0  0  0  0  0  0  0  0  0  0  0
   10.6364  -16.1966   27.2301 C   0  0  0  0  0  0  0  0  0  0  0  0
   10.7436  -16.9089   25.9362 C   0  0  0  0  0  0  0  0  0  0  0  0
   12.1943  -17.2838   25.6151 C   0  0  2  0  0  0  0  0  0  0  0  0
   12.1673  -18.1203   24.4178 N   0  0  0  0  0  0  0  0  0  0  0  0
   12.7406  -18.0585   26.7420 C   0  0  0  0  0  0  0  0  0  0  0  0
   12.4621  -19.2881   26.8380 O   0  0  0  0  0  0  0  0  0  0  0  0
   10.5195  -16.9156   28.4241 C   0  0  0  0  0  0  0  0  0  0  0  0
   10.4213  -16.2382   29.6189 C   0  0  0  0  0  0  0  0  0  0  0  0
   13.5513  -17.4484   27.6878 O   0  0  0  0  0  0  0  0  0  0  0  0
  2  1  1  6
  2 10  1  0
  3  2  1  0
  3  4  1  0
  4  9  1  0
  4  5  2  0
  5  6  1  0
  7  6  2  0
  8  7  1  0
  9  8  2  0
 10 11  2  0
 13 12  1  6
 13 15  1  0
 14 13  1  0
 15 17  1  0
 15 16  1  6
 16 10  1  0
 17 26  1  0
 17 18  2  0
 19 20  1  0
 20 30  2  0
 20 21  1  0
 21 22  2  0
 22 23  1  0
 23 24  1  0
 25 24  1  1
 25 27  1  0
 26 25  1  0
 27 28  2  0
 27 31  1  0
 29 23  2  0
 30 29  1  0
M  END
$$$$
