QHT.pdb
     RDKit          3D

 27 27  0  0  1  0  0  0  0  0999 V2000
   11.0714  -13.2899   20.2416 N   0  0  0  0  0  0  0  0  0  0  0  0
   10.6241  -13.3959   18.8728 C   0  0  0  0  0  0  0  0  0  0  0  0
   11.4704  -13.7971   18.0504 O   0  0  0  0  0  0  0  0  0  0  0  0
    9.2367  -13.0234   18.6120 C   0  0  0  0  0  0  0  0  0  0  0  0
    8.3393  -13.4687   19.7127 C   0  0  0  0  0  0  0  0  0  0  0  0
    8.2838  -14.9776   19.7379 C   0  0  2  0  0  0  0  0  0  0  0  0
    7.3524  -15.3650   18.6884 N   0  0  0  0  0  0  0  0  0  0  0  0
    7.7489  -15.3395   21.0837 C   0  0  0  0  0  0  0  0  0  0  0  0
    6.4894  -15.3776   21.1990 O   0  0  0  0  0  0  0  0  0  0  0  0
    8.5995  -15.6259   22.1763 N   0  0  0  0  0  0  0  0  0  0  0  0
    7.9467  -15.9985   23.4463 C   0  0  1  0  0  0  0  0  0  0  0  0
    8.1649  -17.4585   23.6235 C   0  0  0  0  0  0  0  0  0  0  0  0
    7.7499  -17.9395   24.9487 C   0  0  0  0  0  0  0  0  0  0  0  0
    6.5365  -17.5823   25.5632 C   0  0  0  0  0  0  0  0  0  0  0  0
    6.4368  -18.1773   26.7675 N   0  0  0  0  0  0  0  0  0  0  0  0
    7.5507  -18.8964   26.9267 C   0  0  0  0  0  0  0  0  0  0  0  0
    8.3207  -18.7485   25.8444 N   0  0  0  0  0  0  0  0  0  0  0  0
    8.4744  -15.1300   24.5213 C   0  0  0  0  0  0  0  0  0  0  0  0
    9.6893  -14.9447   24.6488 O   0  0  0  0  0  0  0  0  0  0  0  0
    7.1777  -11.6517   25.7915 C   0  0  0  0  0  0  0  0  0  0  0  0
    7.1037  -12.6532   26.9254 C   0  0  1  0  0  0  0  0  0  0  0  0
    5.8269  -13.1591   27.0659 O   0  0  0  0  0  0  0  0  0  0  0  0
    8.1215  -13.7531   26.5991 C   0  0  2  0  0  0  0  0  0  0  0  0
    7.6171  -14.4620   25.4649 N   0  0  0  0  0  0  0  0  0  0  0  0
    8.3472  -14.6335   27.7677 C   0  0  0  0  0  0  0  0  0  0  0  0
    8.9184  -14.1082   28.9024 O   0  0  0  0  0  0  0  0  0  0  0  0
    8.0200  -15.8443   27.7196 O   0  0  0  0  0  0  0  0  0  0  0  0
  2  1  1  0
  3  2  2  0
  4  2  1  0
  5  4  1  0
  6  5  1  0
  6  7  1  6
  8  6  1  0
  8  9  2  0
 10 11  1  0
 10  8  1  0
 11 12  1  1
 12 13  1  0
 13 14  2  0
 13 17  1  0
 14 15  1  0
 15 16  1  0
 17 16  2  0
 18 11  1  0
 19 18  2  0
 21 20  1  6
 22 21  1  0
 23 21  1  0
 23 24  1  6
 24 18  1  0
 25 26  1  0
 25 23  1  0
 27 25  2  0
M  END
$$$$
