QHT.pdb
     RDKit          3D

 27 27  0  0  1  0  0  0  0  0999 V2000
   10.6912  -20.5734   15.9784 N   0  0  0  0  0  0  0  0  0  0  0  0
   11.8242  -19.8561   15.4434 C   0  0  0  0  0  0  0  0  0  0  0  0
   12.8737  -20.5145   15.3071 O   0  0  0  0  0  0  0  0  0  0  0  0
   11.6095  -18.4476   15.1239 C   0  0  0  0  0  0  0  0  0  0  0  0
   10.3459  -18.2504   14.3627 C   0  0  0  0  0  0  0  0  0  0  0  0
   10.2383  -16.8074   13.9305 C   0  0  2  0  0  0  0  0  0  0  0  0
   11.3846  -16.5576   13.0686 N   0  0  0  0  0  0  0  0  0  0  0  0
   10.3303  -16.0025   15.1842 C   0  0  0  0  0  0  0  0  0  0  0  0
   11.4212  -15.3937   15.3855 O   0  0  0  0  0  0  0  0  0  0  0  0
    9.2584  -15.9205   16.1027 N   0  0  0  0  0  0  0  0  0  0  0  0
    9.4502  -15.0381   17.2701 C   0  0  1  0  0  0  0  0  0  0  0  0
    8.0937  -14.6275   17.7194 C   0  0  0  0  0  0  0  0  0  0  0  0
    8.1168  -13.8630   18.9743 C   0  0  0  0  0  0  0  0  0  0  0  0
    8.3657  -12.4805   19.0407 C   0  0  0  0  0  0  0  0  0  0  0  0
    8.3218  -12.0651   20.3213 N   0  0  0  0  0  0  0  0  0  0  0  0
    8.0529  -13.1449   21.0595 C   0  0  0  0  0  0  0  0  0  0  0  0
    7.9336  -14.2033   20.2521 N   0  0  0  0  0  0  0  0  0  0  0  0
   10.2752  -15.7506   18.2702 C   0  0  0  0  0  0  0  0  0  0  0  0
   10.1157  -16.9575   18.4811 O   0  0  0  0  0  0  0  0  0  0  0  0
   13.9061  -15.7794   18.5166 C   0  0  0  0  0  0  0  0  0  0  0  0
   13.4978  -15.3419   19.9080 C   0  0  1  0  0  0  0  0  0  0  0  0
   13.6786  -13.9842   20.0806 O   0  0  0  0  0  0  0  0  0  0  0  0
   12.0288  -15.7488   20.0766 C   0  0  2  0  0  0  0  0  0  0  0  0
   11.2944  -15.0897   19.0423 N   0  0  0  0  0  0  0  0  0  0  0  0
   11.5347  -15.4115   21.4306 C   0  0  0  0  0  0  0  0  0  0  0  0
   12.0929  -16.0333   22.5221 O   0  0  0  0  0  0  0  0  0  0  0  0
   10.6171  -14.5676   21.5768 O   0  0  0  0  0  0  0  0  0  0  0  0
  2  1  1  0
  3  2  2  0
  4  2  1  0
  5  4  1  0
  6  5  1  0
  6  7  1  6
  8  6  1  0
  8  9  2  0
 10 11  1  0
 10  8  1  0
 11 12  1  1
 12 13  1  0
 13 14  2  0
 13 17  1  0
 14 15  1  0
 15 16  1  0
 17 16  2  0
 18 11  1  0
 19 18  2  0
 21 20  1  6
 22 21  1  0
 23 21  1  0
 23 24  1  6
 24 18  1  0
 25 26  1  0
 25 23  1  0
 27 25  2  0
M  END
$$$$
