QHT.pdb
     RDKit          3D

 27 27  0  0  1  0  0  0  0  0999 V2000
   11.2250  -19.4507   20.0253 N   0  0  0  0  0  0  0  0  0  0  0  0
   10.2602  -19.6169   18.9641 C   0  0  0  0  0  0  0  0  0  0  0  0
   10.5809  -20.4029   18.0515 O   0  0  0  0  0  0  0  0  0  0  0  0
    9.0244  -18.8485   19.0834 C   0  0  0  0  0  0  0  0  0  0  0  0
    8.9292  -18.1762   20.4077 C   0  0  0  0  0  0  0  0  0  0  0  0
    8.9246  -16.6786   20.2129 C   0  0  2  0  0  0  0  0  0  0  0  0
   10.0687  -16.3783   19.3645 N   0  0  0  0  0  0  0  0  0  0  0  0
    9.1043  -16.0938   21.5746 C   0  0  0  0  0  0  0  0  0  0  0  0
   10.2849  -16.0750   22.0296 O   0  0  0  0  0  0  0  0  0  0  0  0
    8.0167  -15.5859   22.3218 N   0  0  0  0  0  0  0  0  0  0  0  0
    8.3324  -14.9972   23.6378 C   0  0  1  0  0  0  0  0  0  0  0  0
    7.3154  -13.9414   23.8857 C   0  0  0  0  0  0  0  0  0  0  0  0
    7.4790  -13.2887   25.1922 C   0  0  0  0  0  0  0  0  0  0  0  0
    6.4130  -13.0218   26.0696 C   0  0  0  0  0  0  0  0  0  0  0  0
    6.8722  -12.4190   27.1832 N   0  0  0  0  0  0  0  0  0  0  0  0
    8.1934  -12.3000   27.0306 C   0  0  0  0  0  0  0  0  0  0  0  0
    8.5418  -12.8179   25.8488 N   0  0  0  0  0  0  0  0  0  0  0  0
    8.3940  -16.0844   24.6391 C   0  0  0  0  0  0  0  0  0  0  0  0
    7.3893  -16.7463   24.9201 O   0  0  0  0  0  0  0  0  0  0  0  0
   10.0266  -19.0936   24.6533 C   0  0  0  0  0  0  0  0  0  0  0  0
   10.6184  -18.5030   25.9162 C   0  0  1  0  0  0  0  0  0  0  0  0
   11.8884  -18.0101   25.6927 O   0  0  0  0  0  0  0  0  0  0  0  0
    9.6516  -17.4044   26.3752 C   0  0  2  0  0  0  0  0  0  0  0  0
    9.6078  -16.4279   25.3321 N   0  0  0  0  0  0  0  0  0  0  0  0
   10.0728  -16.8328   27.6741 C   0  0  0  0  0  0  0  0  0  0  0  0
   10.5642  -15.5496   27.7141 O   0  0  0  0  0  0  0  0  0  0  0  0
    9.9810  -17.5141   28.7243 O   0  0  0  0  0  0  0  0  0  0  0  0
  2  1  1  0
  3  2  2  0
  4  2  1  0
  5  4  1  0
  6  5  1  0
  6  7  1  6
  8  6  1  0
  8  9  2  0
 10 11  1  0
 10  8  1  0
 11 12  1  1
 12 13  1  0
 13 14  2  0
 13 17  1  0
 14 15  1  0
 15 16  1  0
 17 16  2  0
 18 11  1  0
 19 18  2  0
 21 20  1  6
 22 21  1  0
 23 21  1  0
 23 24  1  6
 24 18  1  0
 25 26  1  0
 25 23  1  0
 27 25  2  0
M  END
$$$$
