QHT.pdb
     RDKit          3D

 27 27  0  0  1  0  0  0  0  0999 V2000
    7.8973  -12.2112   17.4526 N   0  0  0  0  0  0  0  0  0  0  0  0
    7.9440  -13.5203   16.8453 C   0  0  0  0  0  0  0  0  0  0  0  0
    6.8426  -14.0380   16.5762 O   0  0  0  0  0  0  0  0  0  0  0  0
    9.2717  -14.0832   16.6164 C   0  0  0  0  0  0  0  0  0  0  0  0
    9.6284  -15.0761   17.6661 C   0  0  0  0  0  0  0  0  0  0  0  0
   10.3184  -14.3729   18.8107 C   0  0  2  0  0  0  0  0  0  0  0  0
   11.6500  -14.0323   18.3313 N   0  0  0  0  0  0  0  0  0  0  0  0
   10.3909  -15.3745   19.9151 C   0  0  0  0  0  0  0  0  0  0  0  0
    9.2898  -15.8472   20.3217 O   0  0  0  0  0  0  0  0  0  0  0  0
   11.6220  -15.7782   20.4815 N   0  0  0  0  0  0  0  0  0  0  0  0
   11.5570  -16.7634   21.5784 C   0  0  1  0  0  0  0  0  0  0  0  0
   12.9217  -17.3376   21.7148 C   0  0  0  0  0  0  0  0  0  0  0  0
   13.1633  -18.4565   20.7932 C   0  0  0  0  0  0  0  0  0  0  0  0
   12.1813  -18.9893   19.9391 C   0  0  0  0  0  0  0  0  0  0  0  0
   12.6983  -20.0024   19.2175 N   0  0  0  0  0  0  0  0  0  0  0  0
   13.9743  -20.1209   19.5932 C   0  0  0  0  0  0  0  0  0  0  0  0
   14.2387  -19.2011   20.5261 N   0  0  0  0  0  0  0  0  0  0  0  0
   11.0125  -16.0959   22.7811 C   0  0  0  0  0  0  0  0  0  0  0  0
   11.5242  -15.0599   23.2187 O   0  0  0  0  0  0  0  0  0  0  0  0
    8.2894  -14.2379   23.4402 C   0  0  0  0  0  0  0  0  0  0  0  0
    8.0249  -15.3947   24.3816 C   0  0  1  0  0  0  0  0  0  0  0  0
    7.1659  -16.3157   23.8162 O   0  0  0  0  0  0  0  0  0  0  0  0
    9.3914  -16.0111   24.7053 C   0  0  2  0  0  0  0  0  0  0  0  0
    9.8742  -16.6066   23.4987 N   0  0  0  0  0  0  0  0  0  0  0  0
    9.2877  -16.9816   25.8184 C   0  0  0  0  0  0  0  0  0  0  0  0
    8.9162  -16.5354   27.0644 O   0  0  0  0  0  0  0  0  0  0  0  0
    9.5366  -18.1963   25.6234 O   0  0  0  0  0  0  0  0  0  0  0  0
  2  1  1  0
  3  2  2  0
  4  2  1  0
  5  4  1  0
  6  5  1  0
  6  7  1  6
  8  6  1  0
  8  9  2  0
 10 11  1  0
 10  8  1  0
 11 12  1  1
 12 13  1  0
 13 14  2  0
 13 17  1  0
 14 15  1  0
 15 16  1  0
 17 16  2  0
 18 11  1  0
 19 18  2  0
 21 20  1  6
 22 21  1  0
 23 21  1  0
 23 24  1  6
 24 18  1  0
 25 26  1  0
 25 23  1  0
 27 25  2  0
M  END
$$$$
