QHT.pdb
     RDKit          3D

 27 27  0  0  1  0  0  0  0  0999 V2000
    7.7616  -12.5654   17.9947 N   0  0  0  0  0  0  0  0  0  0  0  0
    7.7289  -13.9010   17.4469 C   0  0  0  0  0  0  0  0  0  0  0  0
    7.7275  -13.9822   16.2032 O   0  0  0  0  0  0  0  0  0  0  0  0
    7.7029  -14.9978   18.4104 C   0  0  0  0  0  0  0  0  0  0  0  0
    7.6465  -14.4908   19.8084 C   0  0  0  0  0  0  0  0  0  0  0  0
    8.8066  -15.0529   20.5952 C   0  0  2  0  0  0  0  0  0  0  0  0
    9.2569  -16.2293   19.8655 N   0  0  0  0  0  0  0  0  0  0  0  0
    8.2456  -15.4343   21.9248 C   0  0  0  0  0  0  0  0  0  0  0  0
    7.4054  -14.6363   22.4331 O   0  0  0  0  0  0  0  0  0  0  0  0
    8.6289  -16.6235   22.5869 N   0  0  0  0  0  0  0  0  0  0  0  0
    8.0481  -16.8560   23.9237 C   0  0  1  0  0  0  0  0  0  0  0  0
    8.0553  -18.3270   24.1397 C   0  0  0  0  0  0  0  0  0  0  0  0
    7.1019  -19.0343   23.2734 C   0  0  0  0  0  0  0  0  0  0  0  0
    5.7197  -18.7756   23.2603 C   0  0  0  0  0  0  0  0  0  0  0  0
    5.1088  -19.5778   22.3673 N   0  0  0  0  0  0  0  0  0  0  0  0
    6.0658  -20.3315   21.8202 C   0  0  0  0  0  0  0  0  0  0  0  0
    7.2414  -20.0015   22.3637 N   0  0  0  0  0  0  0  0  0  0  0  0
    8.8011  -16.0531   24.9119 C   0  0  0  0  0  0  0  0  0  0  0  0
   10.0290  -15.9398   24.8346 O   0  0  0  0  0  0  0  0  0  0  0  0
    8.7793  -12.3666   28.0485 C   0  0  0  0  0  0  0  0  0  0  0  0
    7.9659  -13.3171   27.1947 C   0  0  1  0  0  0  0  0  0  0  0  0
    7.5411  -12.7082   26.0308 O   0  0  0  0  0  0  0  0  0  0  0  0
    8.8676  -14.5249   26.9115 C   0  0  2  0  0  0  0  0  0  0  0  0
    8.1573  -15.3689   26.0023 N   0  0  0  0  0  0  0  0  0  0  0  0
    9.2361  -15.2201   28.1655 C   0  0  0  0  0  0  0  0  0  0  0  0
   10.0774  -14.5960   29.0556 O   0  0  0  0  0  0  0  0  0  0  0  0
    8.7842  -16.3653   28.4098 O   0  0  0  0  0  0  0  0  0  0  0  0
  2  1  1  0
  3  2  2  0
  4  2  1  0
  5  4  1  0
  6  5  1  0
  6  7  1  6
  8  6  1  0
  8  9  2  0
 10 11  1  0
 10  8  1  0
 11 12  1  1
 12 13  1  0
 13 14  2  0
 13 17  1  0
 14 15  1  0
 15 16  1  0
 17 16  2  0
 18 11  1  0
 19 18  2  0
 21 20  1  1
 22 21  1  0
 23 21  1  0
 23 24  1  6
 24 18  1  0
 25 26  1  0
 25 23  1  0
 27 25  2  0
M  END
$$$$
