QHT.pdb
     RDKit          3D

 27 27  0  0  1  0  0  0  0  0999 V2000
   14.0140  -20.8876   19.3999 N   0  0  0  0  0  0  0  0  0  0  0  0
   13.6831  -20.7746   17.9991 C   0  0  0  0  0  0  0  0  0  0  0  0
   14.2394  -21.5900   17.2381 O   0  0  0  0  0  0  0  0  0  0  0  0
   12.7372  -19.7226   17.6378 C   0  0  0  0  0  0  0  0  0  0  0  0
   12.2018  -19.0364   18.8451 C   0  0  0  0  0  0  0  0  0  0  0  0
   11.1293  -18.0562   18.4330 C   0  0  2  0  0  0  0  0  0  0  0  0
   11.7161  -17.2323   17.3862 N   0  0  0  0  0  0  0  0  0  0  0  0
   10.8375  -17.2420   19.6497 C   0  0  0  0  0  0  0  0  0  0  0  0
   11.7530  -16.4597   20.0384 O   0  0  0  0  0  0  0  0  0  0  0  0
    9.6049  -17.3353   20.3363 N   0  0  0  0  0  0  0  0  0  0  0  0
    9.4683  -16.5333   21.5676 C   0  0  1  0  0  0  0  0  0  0  0  0
    8.1370  -15.8748   21.4999 C   0  0  0  0  0  0  0  0  0  0  0  0
    8.1127  -14.7337   20.5741 C   0  0  0  0  0  0  0  0  0  0  0  0
    9.2220  -14.3226   19.8138 C   0  0  0  0  0  0  0  0  0  0  0  0
    8.8952  -13.2535   19.0624 N   0  0  0  0  0  0  0  0  0  0  0  0
    7.6151  -12.9820   19.3285 C   0  0  0  0  0  0  0  0  0  0  0  0
    7.1620  -13.8642   20.2245 N   0  0  0  0  0  0  0  0  0  0  0  0
    9.6956  -17.4153   22.7333 C   0  0  0  0  0  0  0  0  0  0  0  0
    8.9028  -18.3224   23.0073 O   0  0  0  0  0  0  0  0  0  0  0  0
   12.6693  -19.3549   23.3478 C   0  0  0  0  0  0  0  0  0  0  0  0
   12.5309  -18.5776   24.6405 C   0  0  1  0  0  0  0  0  0  0  0  0
   13.4012  -17.5067   24.6780 O   0  0  0  0  0  0  0  0  0  0  0  0
   11.0670  -18.1275   24.7208 C   0  0  2  0  0  0  0  0  0  0  0  0
   10.8346  -17.2697   23.6011 N   0  0  0  0  0  0  0  0  0  0  0  0
   10.7834  -17.4660   26.0145 C   0  0  0  0  0  0  0  0  0  0  0  0
   10.7757  -18.2186   27.1647 O   0  0  0  0  0  0  0  0  0  0  0  0
   10.5532  -16.2328   26.0569 O   0  0  0  0  0  0  0  0  0  0  0  0
  2  1  1  0
  3  2  2  0
  4  2  1  0
  5  4  1  0
  6  5  1  0
  6  7  1  6
  8  6  1  0
  8  9  2  0
 10 11  1  0
 10  8  1  0
 11 12  1  1
 12 13  1  0
 13 14  2  0
 13 17  1  0
 14 15  1  0
 15 16  1  0
 17 16  2  0
 18 11  1  0
 19 18  2  0
 21 20  1  6
 22 21  1  0
 23 21  1  0
 23 24  1  6
 24 18  1  0
 25 26  1  0
 25 23  1  0
 27 25  2  0
M  END
$$$$
