QHT.pdb
     RDKit          3D

 27 27  0  0  1  0  0  0  0  0999 V2000
   13.1256  -17.8924   15.7642 N   0  0  0  0  0  0  0  0  0  0  0  0
   11.9453  -18.5136   15.2113 C   0  0  0  0  0  0  0  0  0  0  0  0
   12.1432  -19.4360   14.3968 O   0  0  0  0  0  0  0  0  0  0  0  0
   10.6611  -17.9918   15.6700 C   0  0  0  0  0  0  0  0  0  0  0  0
   10.8417  -16.9477   16.7151 C   0  0  0  0  0  0  0  0  0  0  0  0
   10.9411  -17.6048   18.0713 C   0  0  2  0  0  0  0  0  0  0  0  0
    9.9210  -18.6431   18.0925 N   0  0  0  0  0  0  0  0  0  0  0  0
   10.6299  -16.5332   19.0628 C   0  0  0  0  0  0  0  0  0  0  0  0
   11.4666  -15.5884   19.1543 O   0  0  0  0  0  0  0  0  0  0  0  0
    9.4632  -16.5663   19.8610 N   0  0  0  0  0  0  0  0  0  0  0  0
    9.3309  -15.5144   20.8877 C   0  0  1  0  0  0  0  0  0  0  0  0
    8.0044  -14.8776   20.6746 C   0  0  0  0  0  0  0  0  0  0  0  0
    7.8625  -14.2924   19.3340 C   0  0  0  0  0  0  0  0  0  0  0  0
    8.1850  -12.9585   19.0272 C   0  0  0  0  0  0  0  0  0  0  0  0
    7.9506  -12.7156   17.7232 N   0  0  0  0  0  0  0  0  0  0  0  0
    7.4910  -13.8566   17.2034 C   0  0  0  0  0  0  0  0  0  0  0  0
    7.4430  -14.7831   18.1654 N   0  0  0  0  0  0  0  0  0  0  0  0
    9.5506  -16.1227   22.2181 C   0  0  0  0  0  0  0  0  0  0  0  0
    8.6936  -16.8482   22.7339 O   0  0  0  0  0  0  0  0  0  0  0  0
    9.8737  -18.4997   23.0493 C   0  0  0  0  0  0  0  0  0  0  0  0
   11.2054  -18.1391   23.6744 C   0  0  1  0  0  0  0  0  0  0  0  0
   12.2435  -18.3166   22.7818 O   0  0  0  0  0  0  0  0  0  0  0  0
   11.0884  -16.6799   24.1319 C   0  0  2  0  0  0  0  0  0  0  0  0
   10.7553  -15.9080   22.9758 N   0  0  0  0  0  0  0  0  0  0  0  0
   12.3378  -16.2237   24.7817 C   0  0  0  0  0  0  0  0  0  0  0  0
   12.5844  -16.5812   26.0860 O   0  0  0  0  0  0  0  0  0  0  0  0
   13.1599  -15.5191   24.1467 O   0  0  0  0  0  0  0  0  0  0  0  0
  2  1  1  0
  3  2  2  0
  4  2  1  0
  5  4  1  0
  6  5  1  0
  6  7  1  6
  8  6  1  0
  8  9  2  0
 10 11  1  0
 10  8  1  0
 11 12  1  1
 12 13  1  0
 13 14  2  0
 13 17  1  0
 14 15  1  0
 15 16  1  0
 17 16  2  0
 18 11  1  0
 19 18  2  0
 21 20  1  6
 22 21  1  0
 23 21  1  0
 23 24  1  6
 24 18  1  0
 25 26  1  0
 25 23  1  0
 27 25  2  0
M  END
$$$$
