QHT.pdb
     RDKit          3D

 27 27  0  0  1  0  0  0  0  0999 V2000
    9.5782  -19.3460   20.5314 N   0  0  0  0  0  0  0  0  0  0  0  0
    9.1233  -19.3132   19.1615 C   0  0  0  0  0  0  0  0  0  0  0  0
    9.5993  -20.1827   18.4061 O   0  0  0  0  0  0  0  0  0  0  0  0
    8.1606  -18.2694   18.8215 C   0  0  0  0  0  0  0  0  0  0  0  0
    7.6719  -17.5649   20.0380 C   0  0  0  0  0  0  0  0  0  0  0  0
    7.9316  -16.0835   19.9005 C   0  0  2  0  0  0  0  0  0  0  0  0
    9.0328  -15.9526   18.9576 N   0  0  0  0  0  0  0  0  0  0  0  0
    8.3366  -15.6168   21.2593 C   0  0  0  0  0  0  0  0  0  0  0  0
    9.5666  -15.7044   21.5429 O   0  0  0  0  0  0  0  0  0  0  0  0
    7.3999  -15.1029   22.1855 N   0  0  0  0  0  0  0  0  0  0  0  0
    7.9335  -14.6359   23.4799 C   0  0  1  0  0  0  0  0  0  0  0  0
    7.0212  -13.5611   23.9523 C   0  0  0  0  0  0  0  0  0  0  0  0
    7.3372  -13.1033   25.3126 C   0  0  0  0  0  0  0  0  0  0  0  0
    6.3631  -12.8275   26.2886 C   0  0  0  0  0  0  0  0  0  0  0  0
    6.9550  -12.4287   27.4310 N   0  0  0  0  0  0  0  0  0  0  0  0
    8.2702  -12.4462   27.2008 C   0  0  0  0  0  0  0  0  0  0  0  0
    8.4852  -12.8469   25.9440 N   0  0  0  0  0  0  0  0  0  0  0  0
    8.0803  -15.8017   24.3785 C   0  0  0  0  0  0  0  0  0  0  0  0
    7.1263  -16.5539   24.6036 O   0  0  0  0  0  0  0  0  0  0  0  0
    9.9031  -18.6247   23.9070 C   0  0  0  0  0  0  0  0  0  0  0  0
   10.5098  -18.1766   25.2205 C   0  0  1  0  0  0  0  0  0  0  0  0
   11.7161  -17.5351   25.0234 O   0  0  0  0  0  0  0  0  0  0  0  0
    9.4761  -17.2585   25.8844 C   0  0  2  0  0  0  0  0  0  0  0  0
    9.3224  -16.1216   25.0315 N   0  0  0  0  0  0  0  0  0  0  0  0
    9.8939  -16.8901   27.2560 C   0  0  0  0  0  0  0  0  0  0  0  0
    9.8635  -17.8443   28.2451 O   0  0  0  0  0  0  0  0  0  0  0  0
   10.2707  -15.7199   27.5093 O   0  0  0  0  0  0  0  0  0  0  0  0
  2  1  1  0
  3  2  2  0
  4  2  1  0
  5  4  1  0
  6  5  1  0
  6  7  1  6
  8  6  1  0
  8  9  2  0
 10 11  1  0
 10  8  1  0
 11 12  1  1
 12 13  1  0
 13 14  2  0
 13 17  1  0
 14 15  1  0
 15 16  1  0
 17 16  2  0
 18 11  1  0
 19 18  2  0
 21 20  1  6
 22 21  1  0
 23 21  1  0
 23 24  1  6
 24 18  1  0
 25 26  1  0
 25 23  1  0
 27 25  2  0
M  END
$$$$
