QHT.pdb
     RDKit          3D

 27 27  0  0  1  0  0  0  0  0999 V2000
    7.0126  -14.7008   14.8722 N   0  0  0  0  0  0  0  0  0  0  0  0
    8.3370  -14.1256   14.8796 C   0  0  0  0  0  0  0  0  0  0  0  0
    9.1412  -14.5938   14.0504 O   0  0  0  0  0  0  0  0  0  0  0  0
    8.5792  -13.0649   15.8533 C   0  0  0  0  0  0  0  0  0  0  0  0
    8.1221  -13.4618   17.2129 C   0  0  0  0  0  0  0  0  0  0  0  0
    9.0305  -14.5397   17.7548 C   0  0  2  0  0  0  0  0  0  0  0  0
    8.4248  -15.8073   17.3736 N   0  0  0  0  0  0  0  0  0  0  0  0
    9.0189  -14.3696   19.2378 C   0  0  0  0  0  0  0  0  0  0  0  0
    9.7981  -13.4923   19.7115 O   0  0  0  0  0  0  0  0  0  0  0  0
    8.1835  -15.1447   20.0748 N   0  0  0  0  0  0  0  0  0  0  0  0
    8.3472  -14.9611   21.5300 C   0  0  1  0  0  0  0  0  0  0  0  0
    7.0167  -14.5614   22.0598 C   0  0  0  0  0  0  0  0  0  0  0  0
    6.9678  -14.5534   23.5286 C   0  0  0  0  0  0  0  0  0  0  0  0
    7.2858  -13.4307   24.3134 C   0  0  0  0  0  0  0  0  0  0  0  0
    7.1486  -13.7276   25.6200 N   0  0  0  0  0  0  0  0  0  0  0  0
    6.7543  -15.0022   25.6782 C   0  0  0  0  0  0  0  0  0  0  0  0
    6.6505  -15.4811   24.4348 N   0  0  0  0  0  0  0  0  0  0  0  0
    8.9260  -16.1974   22.0999 C   0  0  0  0  0  0  0  0  0  0  0  0
    8.4521  -17.3051   21.8262 O   0  0  0  0  0  0  0  0  0  0  0  0
   11.9794  -17.6705   21.6723 C   0  0  0  0  0  0  0  0  0  0  0  0
   12.0101  -17.5281   23.1799 C   0  0  1  0  0  0  0  0  0  0  0  0
   12.7944  -16.4603   23.5675 O   0  0  0  0  0  0  0  0  0  0  0  0
   10.5534  -17.3600   23.6291 C   0  0  2  0  0  0  0  0  0  0  0  0
   10.0559  -16.1813   22.9913 N   0  0  0  0  0  0  0  0  0  0  0  0
   10.4551  -17.2946   25.1047 C   0  0  0  0  0  0  0  0  0  0  0  0
   10.0043  -16.1384   25.6960 O   0  0  0  0  0  0  0  0  0  0  0  0
   10.7803  -18.2846   25.8045 O   0  0  0  0  0  0  0  0  0  0  0  0
  2  1  1  0
  3  2  2  0
  4  2  1  0
  5  4  1  0
  6  5  1  0
  6  7  1  1
  8  6  1  0
  8  9  2  0
 10 11  1  0
 10  8  1  0
 11 12  1  1
 12 13  1  0
 13 14  2  0
 13 17  1  0
 14 15  1  0
 15 16  1  0
 17 16  2  0
 18 11  1  0
 19 18  2  0
 21 20  1  6
 22 21  1  0
 23 21  1  0
 23 24  1  6
 24 18  1  0
 25 26  1  0
 25 23  1  0
 27 25  2  0
M  END
$$$$
