TPM.pdb
     RDKit          3D

 23 23  0  0  1  0  0  0  0  0999 V2000
   20.6814  -18.5796  -15.3513 C   0  0  0  0  0  0  0  0  0  0  0  0
   21.4734  -19.1727  -14.2467 C   0  0  1  0  0  0  0  0  0  0  0  0
   21.0267  -18.6409  -13.0127 O   0  0  0  0  0  0  0  0  0  0  0  0
   21.3584  -20.6743  -14.0921 C   0  0  2  0  0  0  0  0  0  0  0  0
   19.9612  -20.8665  -13.6585 N   0  0  0  0  0  0  0  0  0  0  0  0
   22.2877  -21.2521  -13.1117 C   0  0  0  0  0  0  0  0  0  0  0  0
   21.8555  -21.2842  -11.9009 O   0  0  0  0  0  0  0  0  0  0  0  0
   23.5737  -21.7615  -13.3774 N   0  0  0  0  0  0  0  0  0  0  0  0
   24.1788  -21.9210  -14.6697 C   0  0  0  0  0  0  0  0  0  0  0  0
   24.8172  -23.3095  -14.5185 C   0  0  0  0  0  0  0  0  0  0  0  0
   25.5305  -23.1008  -13.1748 C   0  0  0  0  0  0  0  0  0  0  0  0
   24.5285  -22.2451  -12.4106 C   0  0  1  0  0  0  0  0  0  0  0  0
   25.1952  -21.0933  -11.7465 C   0  0  0  0  0  0  0  0  0  0  0  0
   25.2753  -19.9444  -12.2877 O   0  0  0  0  0  0  0  0  0  0  0  0
   26.7173  -21.0687   -5.6669 C   0  0  0  0  0  0  0  0  0  0  0  0
   27.9115  -19.7681   -6.0749 S   0  0  0  0  0  0  0  0  0  0  0  0
   27.9209  -19.5865   -7.8890 C   0  0  0  0  0  0  0  0  0  0  0  0
   26.8639  -20.4150   -8.5197 C   0  0  0  0  0  0  0  0  0  0  0  0
   26.8528  -20.2881  -10.0215 C   0  0  2  0  0  0  0  0  0  0  0  0
   25.7892  -21.1974  -10.4606 N   0  0  0  0  0  0  0  0  0  0  0  0
   28.1494  -20.6752  -10.5664 C   0  0  0  0  0  0  0  0  0  0  0  0
   28.3704  -21.8594  -10.8945 O   0  0  0  0  0  0  0  0  0  0  0  0
   29.1862  -19.7597  -10.7445 O   0  0  0  0  0  0  0  0  0  0  0  0
  2  1  1  6
  2  3  1  0
  4  2  1  0
  4  6  1  0
  4  5  1  1
  6  7  2  0
  8  6  1  0
  8 12  1  0
  9 10  1  0
  9  8  1  0
 10 11  1  0
 11 12  1  0
 12 13  1  6
 13 20  1  0
 14 13  2  0
 16 15  1  0
 17 16  1  0
 18 17  1  0
 19 20  1  0
 19 18  1  1
 21 19  1  0
 22 21  2  0
 23 21  1  0
M  END
$$$$
