TPM.pdb
     RDKit          3D

 23 23  0  0  1  0  0  0  0  0999 V2000
    7.8004  -24.7252   -5.3396 C   0  0  0  0  0  0  0  0  0  0  0  0
    9.1272  -24.5449   -4.7024 C   0  0  1  0  0  0  0  0  0  0  0  0
    9.3719  -25.6231   -3.8177 O   0  0  0  0  0  0  0  0  0  0  0  0
   10.3106  -24.5348   -5.6465 C   0  0  2  0  0  0  0  0  0  0  0  0
   10.3201  -25.9043   -6.1959 N   0  0  0  0  0  0  0  0  0  0  0  0
   11.5942  -24.2284   -5.0008 C   0  0  0  0  0  0  0  0  0  0  0  0
   12.2668  -25.2514   -4.6073 O   0  0  0  0  0  0  0  0  0  0  0  0
   12.1367  -22.9466   -4.7843 N   0  0  0  0  0  0  0  0  0  0  0  0
   11.5582  -21.6955   -5.1864 C   0  0  0  0  0  0  0  0  0  0  0  0
   12.7970  -20.9672   -5.7280 C   0  0  0  0  0  0  0  0  0  0  0  0
   13.7546  -21.2167   -4.5540 C   0  0  0  0  0  0  0  0  0  0  0  0
   13.3882  -22.6357   -4.1386 C   0  0  1  0  0  0  0  0  0  0  0  0
   13.2309  -22.7447   -2.6636 C   0  0  0  0  0  0  0  0  0  0  0  0
   12.1028  -22.6311   -2.0858 O   0  0  0  0  0  0  0  0  0  0  0  0
   16.1944  -25.9053    3.7925 C   0  0  0  0  0  0  0  0  0  0  0  0
   16.5247  -25.4197    2.0780 S   0  0  0  0  0  0  0  0  0  0  0  0
   15.1831  -24.2987    1.5610 C   0  0  0  0  0  0  0  0  0  0  0  0
   15.2648  -23.9919    0.1115 C   0  0  0  0  0  0  0  0  0  0  0  0
   14.1702  -23.0604   -0.3420 C   0  0  2  0  0  0  0  0  0  0  0  0
   14.3312  -22.9834   -1.7977 N   0  0  0  0  0  0  0  0  0  0  0  0
   14.3322  -21.7538    0.2862 C   0  0  0  0  0  0  0  0  0  0  0  0
   15.0065  -20.8627   -0.2707 O   0  0  0  0  0  0  0  0  0  0  0  0
   13.7534  -21.4413    1.5158 O   0  0  0  0  0  0  0  0  0  0  0  0
  2  1  1  6
  2  3  1  0
  4  2  1  0
  4  6  1  0
  4  5  1  1
  6  7  2  0
  8  6  1  0
  8 12  1  0
  9 10  1  0
  9  8  1  0
 10 11  1  0
 11 12  1  0
 12 13  1  1
 13 20  1  0
 14 13  2  0
 16 15  1  0
 17 16  1  0
 18 17  1  0
 19 20  1  0
 19 18  1  1
 21 19  1  0
 22 21  2  0
 23 21  1  0
M  END
$$$$
