TPM.pdb
     RDKit          3D

 23 23  0  0  1  0  0  0  0  0999 V2000
   22.8756  -21.6265  -14.3961 C   0  0  0  0  0  0  0  0  0  0  0  0
   23.6710  -22.4857  -15.3062 C   0  0  1  0  0  0  0  0  0  0  0  0
   22.9239  -22.7396  -16.4820 O   0  0  0  0  0  0  0  0  0  0  0  0
   24.9769  -21.8926  -15.7908 C   0  0  2  0  0  0  0  0  0  0  0  0
   25.4793  -22.9042  -16.7403 N   0  0  0  0  0  0  0  0  0  0  0  0
   25.9603  -21.6496  -14.7266 C   0  0  0  0  0  0  0  0  0  0  0  0
   26.6176  -22.6859  -14.3419 O   0  0  0  0  0  0  0  0  0  0  0  0
   26.2382  -20.4137  -14.1109 N   0  0  0  0  0  0  0  0  0  0  0  0
   25.6526  -19.1447  -14.4403 C   0  0  0  0  0  0  0  0  0  0  0  0
   26.8917  -18.2382  -14.4024 C   0  0  0  0  0  0  0  0  0  0  0  0
   27.4677  -18.6753  -13.0479 C   0  0  0  0  0  0  0  0  0  0  0  0
   27.1801  -20.1712  -13.0460 C   0  0  1  0  0  0  0  0  0  0  0  0
   26.5944  -20.6084  -11.7506 C   0  0  0  0  0  0  0  0  0  0  0  0
   25.3707  -20.9360  -11.6292 O   0  0  0  0  0  0  0  0  0  0  0  0
   27.7011  -20.1559   -4.0007 C   0  0  0  0  0  0  0  0  0  0  0  0
   28.3348  -19.7978   -5.6604 S   0  0  0  0  0  0  0  0  0  0  0  0
   27.2076  -20.5873   -6.8562 C   0  0  0  0  0  0  0  0  0  0  0  0
   27.7128  -20.4516   -8.2447 C   0  0  0  0  0  0  0  0  0  0  0  0
   26.7525  -21.0095   -9.2635 C   0  0  2  0  0  0  0  0  0  0  0  0
   27.3622  -20.6903  -10.5585 N   0  0  0  0  0  0  0  0  0  0  0  0
   25.4445  -20.3805   -9.1160 C   0  0  0  0  0  0  0  0  0  0  0  0
   25.2492  -19.2202   -9.5336 O   0  0  0  0  0  0  0  0  0  0  0  0
   24.3685  -21.0312   -8.5130 O   0  0  0  0  0  0  0  0  0  0  0  0
  2  1  1  1
  2  3  1  0
  4  2  1  0
  4  6  1  0
  4  5  1  6
  6  7  2  0
  8  6  1  0
  8 12  1  0
  9 10  1  0
  9  8  1  0
 10 11  1  0
 11 12  1  0
 12 13  1  1
 13 20  1  0
 14 13  2  0
 16 15  1  0
 17 16  1  0
 18 17  1  0
 19 20  1  0
 19 18  1  1
 21 19  1  0
 22 21  2  0
 23 21  1  0
M  END
$$$$
