TPM.pdb
     RDKit          3D

 23 23  0  0  1  0  0  0  0  0999 V2000
   26.5093  -16.6737  -13.9150 C   0  0  0  0  0  0  0  0  0  0  0  0
   25.2556  -17.3482  -14.3300 C   0  0  1  0  0  0  0  0  0  0  0  0
   24.7046  -16.6682  -15.4432 O   0  0  0  0  0  0  0  0  0  0  0  0
   25.4044  -18.7855  -14.7819 C   0  0  2  0  0  0  0  0  0  0  0  0
   24.0864  -19.0970  -15.3676 N   0  0  0  0  0  0  0  0  0  0  0  0
   25.7248  -19.7271  -13.7005 C   0  0  0  0  0  0  0  0  0  0  0  0
   24.7149  -20.1497  -13.0258 O   0  0  0  0  0  0  0  0  0  0  0  0
   27.0066  -20.1950  -13.3512 N   0  0  0  0  0  0  0  0  0  0  0  0
   28.2526  -19.7920  -13.9403 C   0  0  0  0  0  0  0  0  0  0  0  0
   28.9562  -21.1498  -14.0808 C   0  0  0  0  0  0  0  0  0  0  0  0
   28.7273  -21.6869  -12.6606 C   0  0  0  0  0  0  0  0  0  0  0  0
   27.3223  -21.1859  -12.3520 C   0  0  1  0  0  0  0  0  0  0  0  0
   27.2511  -20.5724  -10.9990 C   0  0  0  0  0  0  0  0  0  0  0  0
   28.2459  -19.9915  -10.4582 O   0  0  0  0  0  0  0  0  0  0  0  0
   28.7274  -20.0395   -4.7225 C   0  0  0  0  0  0  0  0  0  0  0  0
   28.2677  -18.8684   -6.0269 S   0  0  0  0  0  0  0  0  0  0  0  0
   26.7022  -19.4522   -6.7566 C   0  0  0  0  0  0  0  0  0  0  0  0
   26.8050  -19.5686   -8.2322 C   0  0  0  0  0  0  0  0  0  0  0  0
   26.0987  -20.7893   -8.7636 C   0  0  2  0  0  0  0  0  0  0  0  0
   26.0659  -20.5930  -10.2167 N   0  0  0  0  0  0  0  0  0  0  0  0
   24.7548  -20.8744   -8.2026 C   0  0  0  0  0  0  0  0  0  0  0  0
   24.5894  -21.0068   -6.9722 O   0  0  0  0  0  0  0  0  0  0  0  0
   23.6104  -20.8131   -8.9973 O   0  0  0  0  0  0  0  0  0  0  0  0
  2  1  1  6
  2  3  1  0
  4  2  1  0
  4  6  1  0
  4  5  1  1
  6  7  2  0
  8  6  1  0
  8 12  1  0
  9 10  1  0
  9  8  1  0
 10 11  1  0
 11 12  1  0
 12 13  1  1
 13 20  1  0
 14 13  2  0
 16 15  1  0
 17 16  1  0
 18 17  1  0
 19 20  1  0
 19 18  1  1
 21 19  1  0
 22 21  2  0
 23 21  1  0
M  END
$$$$
