TPM.pdb
     RDKit          3D

 23 23  0  0  1  0  0  0  0  0999 V2000
   22.7698  -19.0729  -15.6562 C   0  0  0  0  0  0  0  0  0  0  0  0
   23.6413  -19.6596  -14.6096 C   0  0  1  0  0  0  0  0  0  0  0  0
   22.8543  -20.4412  -13.7294 O   0  0  0  0  0  0  0  0  0  0  0  0
   24.7218  -20.5960  -15.1073 C   0  0  2  0  0  0  0  0  0  0  0  0
   23.9608  -21.6769  -15.7630 N   0  0  0  0  0  0  0  0  0  0  0  0
   25.5829  -21.1396  -14.0482 C   0  0  0  0  0  0  0  0  0  0  0  0
   25.2871  -22.3291  -13.6590 O   0  0  0  0  0  0  0  0  0  0  0  0
   26.6750  -20.4888  -13.4417 N   0  0  0  0  0  0  0  0  0  0  0  0
   27.2196  -19.2121  -13.8093 C   0  0  0  0  0  0  0  0  0  0  0  0
   28.7243  -19.5120  -13.7432 C   0  0  0  0  0  0  0  0  0  0  0  0
   28.7748  -20.1846  -12.3638 C   0  0  0  0  0  0  0  0  0  0  0  0
   27.4772  -20.9823  -12.3495 C   0  0  1  0  0  0  0  0  0  0  0  0
   26.7439  -20.8008  -11.0683 C   0  0  0  0  0  0  0  0  0  0  0  0
   25.7795  -19.9801  -10.9425 O   0  0  0  0  0  0  0  0  0  0  0  0
   29.1440  -18.7014   -6.2489 C   0  0  0  0  0  0  0  0  0  0  0  0
   27.9944  -19.6931   -5.2594 S   0  0  0  0  0  0  0  0  0  0  0  0
   26.7316  -20.3576   -6.3944 C   0  0  0  0  0  0  0  0  0  0  0  0
   27.2992  -20.6176   -7.7404 C   0  0  0  0  0  0  0  0  0  0  0  0
   26.3368  -21.3514   -8.6387 C   0  0  2  0  0  0  0  0  0  0  0  0
   27.0706  -21.5325   -9.8955 N   0  0  0  0  0  0  0  0  0  0  0  0
   25.1279  -20.5581   -8.8319 C   0  0  0  0  0  0  0  0  0  0  0  0
   25.1541  -19.5242   -9.5313 O   0  0  0  0  0  0  0  0  0  0  0  0
   23.9069  -20.9084   -8.2564 O   0  0  0  0  0  0  0  0  0  0  0  0
  2  1  1  6
  2  3  1  0
  4  2  1  0
  4  6  1  0
  4  5  1  1
  6  7  2  0
  8  6  1  0
  8 12  1  0
  9 10  1  0
  9  8  1  0
 10 11  1  0
 11 12  1  0
 12 13  1  1
 13 20  1  0
 14 13  2  0
 16 15  1  0
 17 16  1  0
 18 17  1  0
 19 20  1  0
 19 18  1  1
 21 19  1  0
 22 21  2  0
 23 21  1  0
M  END
$$$$
