TPM.pdb
     RDKit          3D

 23 23  0  0  1  0  0  0  0  0999 V2000
   21.1665  -11.0337  -19.2073 C   0  0  0  0  0  0  0  0  0  0  0  0
   20.5866  -12.2165  -18.5263 C   0  0  1  0  0  0  0  0  0  0  0  0
   21.0081  -13.3931  -19.1918 O   0  0  0  0  0  0  0  0  0  0  0  0
   21.0030  -12.4104  -17.0837 C   0  0  2  0  0  0  0  0  0  0  0  0
   20.3523  -13.6806  -16.7087 N   0  0  0  0  0  0  0  0  0  0  0  0
   20.5809  -11.3284  -16.1839 C   0  0  0  0  0  0  0  0  0  0  0  0
   19.3110  -11.2263  -16.0088 O   0  0  0  0  0  0  0  0  0  0  0  0
   21.4244  -10.4207  -15.5141 N   0  0  0  0  0  0  0  0  0  0  0  0
   22.8602  -10.4333  -15.5093 C   0  0  0  0  0  0  0  0  0  0  0  0
   23.1449  -10.1526  -14.0265 C   0  0  0  0  0  0  0  0  0  0  0  0
   22.2228   -8.9406  -13.8302 C   0  0  0  0  0  0  0  0  0  0  0  0
   21.0172   -9.3148  -14.6827 C   0  0  1  0  0  0  0  0  0  0  0  0
   20.5853   -8.1778  -15.5387 C   0  0  0  0  0  0  0  0  0  0  0  0
   21.1244   -7.9250  -16.6633 O   0  0  0  0  0  0  0  0  0  0  0  0
   15.2911   -4.3666  -14.1956 C   0  0  0  0  0  0  0  0  0  0  0  0
   15.3195   -4.5974  -15.9929 S   0  0  0  0  0  0  0  0  0  0  0  0
   17.0538   -4.8802  -16.4788 C   0  0  0  0  0  0  0  0  0  0  0  0
   17.6665   -5.9714  -15.6816 C   0  0  0  0  0  0  0  0  0  0  0  0
   19.1239   -6.1737  -16.0078 C   0  0  2  0  0  0  0  0  0  0  0  0
   19.5397   -7.2948  -15.1586 N   0  0  0  0  0  0  0  0  0  0  0  0
   19.8778   -4.9621  -15.7050 C   0  0  0  0  0  0  0  0  0  0  0  0
   20.3811   -4.7954  -14.5746 O   0  0  0  0  0  0  0  0  0  0  0  0
   20.0701   -3.9498  -16.6447 O   0  0  0  0  0  0  0  0  0  0  0  0
  2  1  1  6
  2  3  1  0
  4  2  1  0
  4  6  1  0
  4  5  1  1
  6  7  2  0
  8  6  1  0
  8 12  1  0
  9 10  1  0
  9  8  1  0
 10 11  1  0
 11 12  1  0
 12 13  1  6
 13 20  1  0
 14 13  2  0
 16 15  1  0
 17 16  1  0
 18 17  1  0
 19 20  1  0
 19 18  1  1
 21 19  1  0
 22 21  2  0
 23 21  1  0
M  END
$$$$
