TPM.pdb
     RDKit          3D

 23 23  0  0  1  0  0  0  0  0999 V2000
   18.1533  -10.3164  -17.7920 C   0  0  0  0  0  0  0  0  0  0  0  0
   18.1211   -9.8176  -16.3959 C   0  0  1  0  0  0  0  0  0  0  0  0
   17.0410  -10.4218  -15.7078 O   0  0  0  0  0  0  0  0  0  0  0  0
   19.3440  -10.1315  -15.5605 C   0  0  2  0  0  0  0  0  0  0  0  0
   19.3758  -11.6066  -15.5434 N   0  0  0  0  0  0  0  0  0  0  0  0
   19.2916   -9.6001  -14.1917 C   0  0  0  0  0  0  0  0  0  0  0  0
   18.7414  -10.3743  -13.3248 O   0  0  0  0  0  0  0  0  0  0  0  0
   19.7806   -8.3517  -13.7599 N   0  0  0  0  0  0  0  0  0  0  0  0
   20.3690   -7.3336  -14.5839 C   0  0  0  0  0  0  0  0  0  0  0  0
   21.5591   -6.9098  -13.7107 C   0  0  0  0  0  0  0  0  0  0  0  0
   20.8224   -6.7190  -12.3771 C   0  0  0  0  0  0  0  0  0  0  0  0
   19.8098   -7.8566  -12.4057 C   0  0  1  0  0  0  0  0  0  0  0  0
   18.4541   -7.3848  -12.0160 C   0  0  0  0  0  0  0  0  0  0  0  0
   17.6791   -6.7852  -12.8279 O   0  0  0  0  0  0  0  0  0  0  0  0
   12.0661   -9.0157   -8.0725 C   0  0  0  0  0  0  0  0  0  0  0  0
   13.6771   -9.5169   -8.7340 S   0  0  0  0  0  0  0  0  0  0  0  0
   14.5393   -8.0039   -9.2736 C   0  0  0  0  0  0  0  0  0  0  0  0
   15.9058   -8.3078   -9.7654 C   0  0  0  0  0  0  0  0  0  0  0  0
   16.5968   -7.0939  -10.3315 C   0  0  2  0  0  0  0  0  0  0  0  0
   17.9311   -7.5716  -10.7088 N   0  0  0  0  0  0  0  0  0  0  0  0
   16.6681   -6.0424   -9.3229 C   0  0  0  0  0  0  0  0  0  0  0  0
   17.6736   -5.9344   -8.5906 O   0  0  0  0  0  0  0  0  0  0  0  0
   15.6369   -5.1235   -9.1304 O   0  0  0  0  0  0  0  0  0  0  0  0
  2  1  1  6
  2  3  1  0
  4  2  1  0
  4  6  1  0
  4  5  1  1
  6  7  2  0
  8  6  1  0
  8 12  1  0
  9 10  1  0
  9  8  1  0
 10 11  1  0
 11 12  1  0
 12 13  1  6
 13 20  1  0
 14 13  2  0
 16 15  1  0
 17 16  1  0
 18 17  1  0
 19 20  1  0
 19 18  1  1
 21 19  1  0
 22 21  2  0
 23 21  1  0
M  END
$$$$
