TPM.pdb
     RDKit          3D

 23 23  0  0  1  0  0  0  0  0999 V2000
   26.8657  -22.6032  -19.7176 C   0  0  0  0  0  0  0  0  0  0  0  0
   26.7235  -22.2591  -18.2822 C   0  0  1  0  0  0  0  0  0  0  0  0
   25.9716  -23.2671  -17.6315 O   0  0  0  0  0  0  0  0  0  0  0  0
   28.0167  -22.1669  -17.5003 C   0  0  2  0  0  0  0  0  0  0  0  0
   28.5300  -23.5501  -17.5260 N   0  0  0  0  0  0  0  0  0  0  0  0
   27.8522  -21.7026  -16.1161 C   0  0  0  0  0  0  0  0  0  0  0  0
   28.0499  -22.5957  -15.2121 O   0  0  0  0  0  0  0  0  0  0  0  0
   27.5087  -20.3995  -15.7062 N   0  0  0  0  0  0  0  0  0  0  0  0
   27.1784  -19.2945  -16.5615 C   0  0  0  0  0  0  0  0  0  0  0  0
   27.9591  -18.1609  -15.8805 C   0  0  0  0  0  0  0  0  0  0  0  0
   27.4999  -18.3889  -14.4331 C   0  0  0  0  0  0  0  0  0  0  0  0
   27.4426  -19.9089  -14.3517 C   0  0  1  0  0  0  0  0  0  0  0  0
   26.1807  -20.3699  -13.7134 C   0  0  0  0  0  0  0  0  0  0  0  0
   25.1548  -20.7030  -14.3886 O   0  0  0  0  0  0  0  0  0  0  0  0
   22.6314  -21.4120   -6.7390 C   0  0  0  0  0  0  0  0  0  0  0  0
   24.0903  -20.8033   -7.6251 S   0  0  0  0  0  0  0  0  0  0  0  0
   23.8301  -21.1385   -9.3982 C   0  0  0  0  0  0  0  0  0  0  0  0
   24.9893  -20.6893  -10.2081 C   0  0  0  0  0  0  0  0  0  0  0  0
   24.7814  -20.9129  -11.6840 C   0  0  2  0  0  0  0  0  0  0  0  0
   26.0343  -20.4700  -12.3042 N   0  0  0  0  0  0  0  0  0  0  0  0
   23.6435  -20.1302  -12.1537 C   0  0  0  0  0  0  0  0  0  0  0  0
   23.7977  -18.9478  -12.5237 O   0  0  0  0  0  0  0  0  0  0  0  0
   22.3522  -20.6536  -12.2117 O   0  0  0  0  0  0  0  0  0  0  0  0
  2  1  1  6
  2  3  1  0
  4  2  1  0
  4  6  1  0
  4  5  1  1
  6  7  2  0
  8  6  1  0
  8 12  1  0
  9 10  1  0
  9  8  1  0
 10 11  1  0
 11 12  1  0
 12 13  1  6
 13 20  1  0
 14 13  2  0
 16 15  1  0
 17 16  1  0
 18 17  1  0
 19 20  1  0
 19 18  1  1
 21 19  1  0
 22 21  2  0
 23 21  1  0
M  END
$$$$
