TPM.pdb
     RDKit          3D

 23 23  0  0  1  0  0  0  0  0999 V2000
   23.3182  -22.5292  -17.2324 C   0  0  0  0  0  0  0  0  0  0  0  0
   24.1341  -22.2003  -16.0385 C   0  0  1  0  0  0  0  0  0  0  0  0
   23.9462  -23.1999  -15.0534 O   0  0  0  0  0  0  0  0  0  0  0  0
   25.6303  -22.1462  -16.2632 C   0  0  2  0  0  0  0  0  0  0  0  0
   25.9578  -23.5142  -16.7088 N   0  0  0  0  0  0  0  0  0  0  0  0
   26.4069  -21.7926  -15.0672 C   0  0  0  0  0  0  0  0  0  0  0  0
   27.0392  -22.7680  -14.5172 O   0  0  0  0  0  0  0  0  0  0  0  0
   26.5169  -20.5126  -14.4896 N   0  0  0  0  0  0  0  0  0  0  0  0
   25.9674  -19.2916  -15.0082 C   0  0  0  0  0  0  0  0  0  0  0  0
   27.1442  -18.3302  -14.7864 C   0  0  0  0  0  0  0  0  0  0  0  0
   27.4539  -18.6640  -13.3200 C   0  0  0  0  0  0  0  0  0  0  0  0
   27.2204  -20.1686  -13.2785 C   0  0  1  0  0  0  0  0  0  0  0  0
   26.4038  -20.5576  -12.0978 C   0  0  0  0  0  0  0  0  0  0  0  0
   25.1349  -20.6427  -12.1419 O   0  0  0  0  0  0  0  0  0  0  0  0
   28.0589  -20.7456   -4.9434 C   0  0  0  0  0  0  0  0  0  0  0  0
   27.4641  -19.3988   -6.0001 S   0  0  0  0  0  0  0  0  0  0  0  0
   26.3652  -20.1351   -7.2547 C   0  0  0  0  0  0  0  0  0  0  0  0
   27.0288  -20.2031   -8.5801 C   0  0  0  0  0  0  0  0  0  0  0  0
   26.1884  -20.9158   -9.6084 C   0  0  2  0  0  0  0  0  0  0  0  0
   26.9856  -20.8612  -10.8382 N   0  0  0  0  0  0  0  0  0  0  0  0
   24.9080  -20.2352   -9.7677 C   0  0  0  0  0  0  0  0  0  0  0  0
   23.9144  -20.5910   -9.1006 O   0  0  0  0  0  0  0  0  0  0  0  0
   24.7335  -19.1742  -10.6557 O   0  0  0  0  0  0  0  0  0  0  0  0
  2  1  1  6
  2  3  1  0
  4  2  1  0
  4  6  1  0
  4  5  1  1
  6  7  2  0
  8  6  1  0
  8 12  1  0
  9 10  1  0
  9  8  1  0
 10 11  1  0
 11 12  1  0
 12 13  1  1
 13 20  1  0
 14 13  2  0
 16 15  1  0
 17 16  1  0
 18 17  1  0
 19 20  1  0
 19 18  1  1
 21 19  1  0
 22 21  2  0
 23 21  1  0
M  END
$$$$
