FQL.pdb
     RDKit          3D

 29 29  0  0  1  0  0  0  0  0999 V2000
   24.8176  -16.3435  -16.8756 N   0  0  0  0  0  0  0  0  0  0  0  0
   25.7335  -17.1799  -16.1224 C   0  0  1  0  0  0  0  0  0  0  0  0
   27.0089  -16.4083  -15.8259 C   0  0  0  0  0  0  0  0  0  0  0  0
   27.8692  -16.4465  -17.0334 C   0  0  0  0  0  0  0  0  0  0  0  0
   27.9955  -15.3609  -17.8434 C   0  0  0  0  0  0  0  0  0  0  0  0
   28.7767  -15.3297  -18.9785 C   0  0  0  0  0  0  0  0  0  0  0  0
   29.4764  -16.4679  -19.3191 C   0  0  0  0  0  0  0  0  0  0  0  0
   29.3777  -17.5949  -18.5246 C   0  0  0  0  0  0  0  0  0  0  0  0
   28.5775  -17.5874  -17.3847 C   0  0  0  0  0  0  0  0  0  0  0  0
   25.0550  -17.6045  -14.8825 C   0  0  0  0  0  0  0  0  0  0  0  0
   24.4853  -16.7453  -14.1780 O   0  0  0  0  0  0  0  0  0  0  0  0
   21.0417  -21.5846  -12.7448 N   0  0  0  0  0  0  0  0  0  0  0  0
   20.7834  -20.2399  -13.1716 C   0  0  0  0  0  0  0  0  0  0  0  0
   19.6362  -19.8034  -13.0391 O   0  0  0  0  0  0  0  0  0  0  0  0
   21.8930  -19.4596  -13.7421 C   0  0  0  0  0  0  0  0  0  0  0  0
   23.1808  -20.1937  -13.7014 C   0  0  0  0  0  0  0  0  0  0  0  0
   24.3164  -19.3179  -13.2382 C   0  0  2  0  0  0  0  0  0  0  0  0
   25.0386  -18.9535  -14.4826 N   0  0  0  0  0  0  0  0  0  0  0  0
   25.2847  -20.0500  -12.3935 C   0  0  0  0  0  0  0  0  0  0  0  0
   26.0316  -20.9163  -12.9358 O   0  0  0  0  0  0  0  0  0  0  0  0
   28.0835  -18.8721   -7.3944 C   0  0  0  0  0  0  0  0  0  0  0  0
   28.1130  -19.5653   -8.7998 C   0  0  1  0  0  0  0  0  0  0  0  0
   29.3511  -20.3744   -8.7832 C   0  0  0  0  0  0  0  0  0  0  0  0
   26.8120  -20.1608   -9.0118 C   0  0  0  0  0  0  0  0  0  0  0  0
   26.3773  -20.7784  -10.2708 C   0  0  2  0  0  0  0  0  0  0  0  0
   25.4813  -19.8821  -11.0105 N   0  0  0  0  0  0  0  0  0  0  0  0
   25.6746  -22.0555  -10.1643 C   0  0  0  0  0  0  0  0  0  0  0  0
   24.4434  -22.0693   -9.9093 O   0  0  0  0  0  0  0  0  0  0  0  0
   26.2468  -23.3059  -10.3267 O   0  0  0  0  0  0  0  0  0  0  0  0
  2  1  1  1
  2  3  1  0
  3  4  1  0
  4  9  2  0
  5  4  1  0
  5  6  2  0
  6  7  1  0
  7  8  2  0
  9  8  1  0
 10 18  1  0
 10  2  1  0
 11 10  2  0
 13 12  1  0
 13 15  1  0
 14 13  2  0
 16 15  1  0
 17 16  1  6
 17 18  1  0
 19 26  1  0
 19 17  1  0
 20 19  2  0
 22 21  1  1
 22 24  1  0
 23 22  1  0
 25 24  1  1
 25 26  1  0
 25 27  1  0
 27 29  1  0
 28 27  2  0
M  END
$$$$
