FQL.pdb
     RDKit          3D

 29 29  0  0  1  0  0  0  0  0999 V2000
   27.7746  -20.7232  -15.0028 N   0  0  0  0  0  0  0  0  0  0  0  0
   26.8558  -19.8217  -14.3329 C   0  0  1  0  0  0  0  0  0  0  0  0
   26.1782  -18.9247  -15.3556 C   0  0  0  0  0  0  0  0  0  0  0  0
   27.1451  -17.8811  -15.7748 C   0  0  0  0  0  0  0  0  0  0  0  0
   27.3787  -16.7857  -15.0028 C   0  0  0  0  0  0  0  0  0  0  0  0
   28.2623  -15.7808  -15.3332 C   0  0  0  0  0  0  0  0  0  0  0  0
   28.9558  -15.8876  -16.5201 C   0  0  0  0  0  0  0  0  0  0  0  0
   28.7500  -16.9843  -17.3363 C   0  0  0  0  0  0  0  0  0  0  0  0
   27.8481  -17.9795  -16.9676 C   0  0  0  0  0  0  0  0  0  0  0  0
   25.8743  -20.6347  -13.5887 C   0  0  0  0  0  0  0  0  0  0  0  0
   25.4567  -21.6963  -14.0963 O   0  0  0  0  0  0  0  0  0  0  0  0
   26.6384  -19.1826   -9.8891 N   0  0  0  0  0  0  0  0  0  0  0  0
   26.6012  -20.4909   -9.3024 C   0  0  0  0  0  0  0  0  0  0  0  0
   27.6036  -20.8790   -8.6952 O   0  0  0  0  0  0  0  0  0  0  0  0
   25.3781  -21.2945   -9.4567 C   0  0  0  0  0  0  0  0  0  0  0  0
   24.3350  -20.5923  -10.2426 C   0  0  0  0  0  0  0  0  0  0  0  0
   24.3237  -21.0293  -11.6848 C   0  0  2  0  0  0  0  0  0  0  0  0
   25.4037  -20.2368  -12.3237 N   0  0  0  0  0  0  0  0  0  0  0  0
   23.0700  -20.6591  -12.3764 C   0  0  0  0  0  0  0  0  0  0  0  0
   22.9151  -19.4609  -12.7544 O   0  0  0  0  0  0  0  0  0  0  0  0
   20.5203  -21.4476  -17.2337 C   0  0  0  0  0  0  0  0  0  0  0  0
   19.9733  -20.9592  -15.8485 C   0  0  1  0  0  0  0  0  0  0  0  0
   18.5719  -21.4317  -15.8209 C   0  0  0  0  0  0  0  0  0  0  0  0
   20.9350  -21.3558  -14.8435 C   0  0  0  0  0  0  0  0  0  0  0  0
   20.8308  -21.0219  -13.4177 C   0  0  2  0  0  0  0  0  0  0  0  0
   21.9972  -21.5178  -12.6782 N   0  0  0  0  0  0  0  0  0  0  0  0
   19.6571  -21.5308  -12.7109 C   0  0  0  0  0  0  0  0  0  0  0  0
   18.6497  -20.7927  -12.5650 O   0  0  0  0  0  0  0  0  0  0  0  0
   19.5314  -22.7973  -12.1654 O   0  0  0  0  0  0  0  0  0  0  0  0
  2  1  1  6
  2  3  1  0
  3  4  1  0
  4  9  2  0
  5  4  1  0
  5  6  2  0
  6  7  1  0
  7  8  2  0
  9  8  1  0
 10 18  1  0
 10  2  1  0
 11 10  2  0
 13 12  1  0
 13 15  1  0
 14 13  2  0
 16 15  1  0
 17 16  1  1
 17 18  1  0
 19 26  1  0
 19 17  1  0
 20 19  2  0
 22 21  1  6
 22 24  1  0
 23 22  1  0
 25 24  1  6
 25 26  1  0
 25 27  1  0
 27 29  1  0
 28 27  2  0
M  END
$$$$
