FQL.pdb
     RDKit          3D

 29 29  0  0  1  0  0  0  0  0999 V2000
   25.4641  -21.6635   -8.4763 N   0  0  0  0  0  0  0  0  0  0  0  0
   25.7591  -20.5508   -9.3597 C   0  0  1  0  0  0  0  0  0  0  0  0
   27.2502  -20.2577   -9.3372 C   0  0  0  0  0  0  0  0  0  0  0  0
   27.6165  -19.8051   -7.9731 C   0  0  0  0  0  0  0  0  0  0  0  0
   28.3042  -20.6144   -7.1229 C   0  0  0  0  0  0  0  0  0  0  0  0
   28.6751  -20.2565   -5.8446 C   0  0  0  0  0  0  0  0  0  0  0  0
   28.3298  -18.9999   -5.3942 C   0  0  0  0  0  0  0  0  0  0  0  0
   27.6305  -18.1438   -6.2244 C   0  0  0  0  0  0  0  0  0  0  0  0
   27.2736  -18.5423   -7.5103 C   0  0  0  0  0  0  0  0  0  0  0  0
   25.2956  -20.9044  -10.7156 C   0  0  0  0  0  0  0  0  0  0  0  0
   25.8101  -21.8826  -11.2966 O   0  0  0  0  0  0  0  0  0  0  0  0
   19.8307  -21.6661  -12.0593 N   0  0  0  0  0  0  0  0  0  0  0  0
   20.2472  -20.3791  -11.5825 C   0  0  0  0  0  0  0  0  0  0  0  0
   19.4189  -19.6932  -10.9763 O   0  0  0  0  0  0  0  0  0  0  0  0
   21.6304  -19.9489  -11.8420 C   0  0  0  0  0  0  0  0  0  0  0  0
   22.4189  -20.9801  -12.5586 C   0  0  0  0  0  0  0  0  0  0  0  0
   23.8619  -20.5769  -12.7211 C   0  0  2  0  0  0  0  0  0  0  0  0
   24.2893  -20.1627  -11.3615 N   0  0  0  0  0  0  0  0  0  0  0  0
   24.0213  -19.3894  -13.5880 C   0  0  0  0  0  0  0  0  0  0  0  0
   24.2192  -18.2628  -13.0458 O   0  0  0  0  0  0  0  0  0  0  0  0
   28.5290  -17.8877  -15.3077 C   0  0  0  0  0  0  0  0  0  0  0  0
   27.1562  -17.5109  -15.9637 C   0  0  1  0  0  0  0  0  0  0  0  0
   27.4436  -17.4654  -17.4140 C   0  0  0  0  0  0  0  0  0  0  0  0
   26.1577  -18.3979  -15.4085 C   0  0  0  0  0  0  0  0  0  0  0  0
   24.7296  -18.3547  -15.7462 C   0  0  2  0  0  0  0  0  0  0  0  0
   23.9838  -19.3704  -14.9943 N   0  0  0  0  0  0  0  0  0  0  0  0
   24.3836  -18.5565  -17.1518 C   0  0  0  0  0  0  0  0  0  0  0  0
   24.2316  -17.5609  -17.9047 O   0  0  0  0  0  0  0  0  0  0  0  0
   24.2023  -19.7827  -17.7690 O   0  0  0  0  0  0  0  0  0  0  0  0
  2  1  1  1
  2  3  1  0
  3  4  1  0
  4  9  2  0
  5  4  1  0
  5  6  2  0
  6  7  1  0
  7  8  2  0
  9  8  1  0
 10 18  1  0
 10  2  1  0
 11 10  2  0
 13 12  1  0
 13 15  1  0
 14 13  2  0
 16 15  1  0
 17 16  1  1
 17 18  1  0
 19 26  1  0
 19 17  1  0
 20 19  2  0
 22 21  1  1
 22 24  1  0
 23 22  1  0
 25 24  1  6
 25 26  1  0
 25 27  1  0
 27 29  1  0
 28 27  2  0
M  END
$$$$
