FQL.pdb
     RDKit          3D

 29 29  0  0  1  0  0  0  0  0999 V2000
   15.8327  -15.5928    5.6608 N   0  0  0  0  0  0  0  0  0  0  0  0
   17.0186  -16.4286    5.6299 C   0  0  1  0  0  0  0  0  0  0  0  0
   18.2572  -15.5589    5.4915 C   0  0  0  0  0  0  0  0  0  0  0  0
   18.3286  -15.0669    4.0942 C   0  0  0  0  0  0  0  0  0  0  0  0
   18.3503  -13.7354    3.8160 C   0  0  0  0  0  0  0  0  0  0  0  0
   18.4156  -13.2124    2.5424 C   0  0  0  0  0  0  0  0  0  0  0  0
   18.4621  -14.0897    1.4798 C   0  0  0  0  0  0  0  0  0  0  0  0
   18.4423  -15.4517    1.7157 C   0  0  0  0  0  0  0  0  0  0  0  0
   18.3758  -15.9418    3.0177 C   0  0  0  0  0  0  0  0  0  0  0  0
   17.0513  -17.2267    6.8709 C   0  0  0  0  0  0  0  0  0  0  0  0
   16.5718  -16.7417    7.9168 O   0  0  0  0  0  0  0  0  0  0  0  0
   16.7507  -23.1922    7.9099 N   0  0  0  0  0  0  0  0  0  0  0  0
   17.2840  -22.7561    9.1679 C   0  0  0  0  0  0  0  0  0  0  0  0
   17.3544  -23.5830   10.0819 O   0  0  0  0  0  0  0  0  0  0  0  0
   17.7142  -21.3549    9.2996 C   0  0  0  0  0  0  0  0  0  0  0  0
   17.4460  -20.5630    8.0750 C   0  0  0  0  0  0  0  0  0  0  0  0
   17.9131  -19.1366    8.2105 C   0  0  2  0  0  0  0  0  0  0  0  0
   17.6100  -18.5179    6.8959 N   0  0  0  0  0  0  0  0  0  0  0  0
   19.3777  -19.0375    8.3902 C   0  0  0  0  0  0  0  0  0  0  0  0
   20.1284  -19.2519    7.3937 O   0  0  0  0  0  0  0  0  0  0  0  0
   24.0391  -16.5809    8.9161 C   0  0  0  0  0  0  0  0  0  0  0  0
   23.3557  -16.9699   10.2719 C   0  0  1  0  0  0  0  0  0  0  0  0
   23.7089  -15.8656   11.1903 C   0  0  0  0  0  0  0  0  0  0  0  0
   21.9812  -17.3107    9.9772 C   0  0  0  0  0  0  0  0  0  0  0  0
   21.5193  -18.6561    9.6140 C   0  0  2  0  0  0  0  0  0  0  0  0
   20.0535  -18.7143    9.5811 N   0  0  0  0  0  0  0  0  0  0  0  0
   21.9484  -19.7512   10.4816 C   0  0  0  0  0  0  0  0  0  0  0  0
   21.2638  -20.0486   11.4935 O   0  0  0  0  0  0  0  0  0  0  0  0
   23.0763  -20.5324   10.2951 O   0  0  0  0  0  0  0  0  0  0  0  0
  2  1  1  1
  2  3  1  0
  3  4  1  0
  4  9  2  0
  5  4  1  0
  5  6  2  0
  6  7  1  0
  7  8  2  0
  9  8  1  0
 10 18  1  0
 10  2  1  0
 11 10  2  0
 13 12  1  0
 13 15  1  0
 14 13  2  0
 16 15  1  0
 17 16  1  6
 17 18  1  0
 19 26  1  0
 19 17  1  0
 20 19  2  0
 22 21  1  6
 22 24  1  0
 23 22  1  0
 25 24  1  1
 25 26  1  0
 25 27  1  0
 27 29  1  0
 28 27  2  0
M  END
$$$$
