FQL.pdb
     RDKit          3D

 29 29  0  0  1  0  0  0  0  0999 V2000
   15.3002  -13.5854  -17.3860 N   0  0  0  0  0  0  0  0  0  0  0  0
   16.0690  -13.7932  -16.1730 C   0  0  1  0  0  0  0  0  0  0  0  0
   15.2560  -13.3518  -14.9671 C   0  0  0  0  0  0  0  0  0  0  0  0
   15.0944  -11.8787  -15.0268 C   0  0  0  0  0  0  0  0  0  0  0  0
   13.9070  -11.3135  -15.3750 C   0  0  0  0  0  0  0  0  0  0  0  0
   13.6898   -9.9545  -15.4500 C   0  0  0  0  0  0  0  0  0  0  0  0
   14.7389   -9.1101  -15.1544 C   0  0  0  0  0  0  0  0  0  0  0  0
   15.9640   -9.6408  -14.7956 C   0  0  0  0  0  0  0  0  0  0  0  0
   16.1442  -11.0203  -14.7311 C   0  0  0  0  0  0  0  0  0  0  0  0
   16.4254  -15.2232  -16.0937 C   0  0  0  0  0  0  0  0  0  0  0  0
   15.6193  -16.0741  -16.5242 O   0  0  0  0  0  0  0  0  0  0  0  0
   22.0095  -17.4009  -14.3091 N   0  0  0  0  0  0  0  0  0  0  0  0
   21.3158  -18.6241  -14.5913 C   0  0  0  0  0  0  0  0  0  0  0  0
   21.9342  -19.6833  -14.4503 O   0  0  0  0  0  0  0  0  0  0  0  0
   19.9137  -18.5498  -15.0322 C   0  0  0  0  0  0  0  0  0  0  0  0
   19.4248  -17.1535  -15.1314 C   0  0  0  0  0  0  0  0  0  0  0  0
   17.9837  -17.0886  -15.5673 C   0  0  2  0  0  0  0  0  0  0  0  0
   17.6514  -15.6423  -15.5446 N   0  0  0  0  0  0  0  0  0  0  0  0
   17.0727  -17.7408  -14.6020 C   0  0  0  0  0  0  0  0  0  0  0  0
   16.4165  -17.0147  -13.7990 O   0  0  0  0  0  0  0  0  0  0  0  0
   12.1763  -19.4803  -14.4513 C   0  0  0  0  0  0  0  0  0  0  0  0
   13.2205  -19.2202  -13.3117 C   0  0  1  0  0  0  0  0  0  0  0  0
   13.0468  -20.3624  -12.3881 C   0  0  0  0  0  0  0  0  0  0  0  0
   14.4880  -18.9358  -13.9479 C   0  0  0  0  0  0  0  0  0  0  0  0
   15.7476  -19.6198  -13.6306 C   0  0  2  0  0  0  0  0  0  0  0  0
   16.8396  -19.1225  -14.4753 N   0  0  0  0  0  0  0  0  0  0  0  0
   15.7560  -21.0743  -13.7732 C   0  0  0  0  0  0  0  0  0  0  0  0
   16.1317  -21.5916  -14.8559 O   0  0  0  0  0  0  0  0  0  0  0  0
   15.3816  -21.9818  -12.7966 O   0  0  0  0  0  0  0  0  0  0  0  0
  2  1  1  6
  2  3  1  0
  3  4  1  0
  4  9  2  0
  5  4  1  0
  5  6  2  0
  6  7  1  0
  7  8  2  0
  9  8  1  0
 10 18  1  0
 10  2  1  0
 11 10  2  0
 13 12  1  0
 13 15  1  0
 14 13  2  0
 16 15  1  0
 17 16  1  1
 17 18  1  0
 19 26  1  0
 19 17  1  0
 20 19  2  0
 22 21  1  6
 22 24  1  0
 23 22  1  0
 25 24  1  6
 25 26  1  0
 25 27  1  0
 27 29  1  0
 28 27  2  0
M  END
$$$$
