FQL.pdb
     RDKit          3D

 29 29  0  0  1  0  0  0  0  0999 V2000
   28.1485  -21.9914  -10.9622 N   0  0  0  0  0  0  0  0  0  0  0  0
   26.9797  -21.1745  -10.6932 C   0  0  1  0  0  0  0  0  0  0  0  0
   27.4128  -19.7770  -10.2818 C   0  0  0  0  0  0  0  0  0  0  0  0
   27.7291  -19.7937   -8.8330 C   0  0  0  0  0  0  0  0  0  0  0  0
   28.9879  -20.0572   -8.3894 C   0  0  0  0  0  0  0  0  0  0  0  0
   29.3485  -20.0884   -7.0594 C   0  0  0  0  0  0  0  0  0  0  0  0
   28.3760  -19.8374   -6.1149 C   0  0  0  0  0  0  0  0  0  0  0  0
   27.0827  -19.5648   -6.5204 C   0  0  0  0  0  0  0  0  0  0  0  0
   26.7573  -19.5423   -7.8744 C   0  0  0  0  0  0  0  0  0  0  0  0
   26.1466  -21.1484  -11.9111 C   0  0  0  0  0  0  0  0  0  0  0  0
   26.6636  -20.7982  -12.9924 O   0  0  0  0  0  0  0  0  0  0  0  0
   24.3744  -22.9143  -16.0075 N   0  0  0  0  0  0  0  0  0  0  0  0
   25.1811  -23.7051  -15.1238 C   0  0  0  0  0  0  0  0  0  0  0  0
   26.1455  -24.3060  -15.6064 O   0  0  0  0  0  0  0  0  0  0  0  0
   24.8163  -23.7576  -13.6991 C   0  0  0  0  0  0  0  0  0  0  0  0
   23.6339  -22.9192  -13.3864 C   0  0  0  0  0  0  0  0  0  0  0  0
   24.0099  -21.4809  -13.1395 C   0  0  2  0  0  0  0  0  0  0  0  0
   24.7871  -21.5097  -11.8754 N   0  0  0  0  0  0  0  0  0  0  0  0
   22.8307  -20.6256  -12.8845 C   0  0  0  0  0  0  0  0  0  0  0  0
   22.9227  -19.7050  -12.0205 O   0  0  0  0  0  0  0  0  0  0  0  0
   22.3527  -16.5682  -15.1018 C   0  0  0  0  0  0  0  0  0  0  0  0
   21.6646  -17.7403  -15.8822 C   0  0  1  0  0  0  0  0  0  0  0  0
   22.1196  -17.5673  -17.2790 C   0  0  0  0  0  0  0  0  0  0  0  0
   21.9163  -18.9560  -15.1400 C   0  0  0  0  0  0  0  0  0  0  0  0
   20.9846  -19.5438  -14.1697 C   0  0  2  0  0  0  0  0  0  0  0  0
   21.5787  -20.7176  -13.5196 N   0  0  0  0  0  0  0  0  0  0  0  0
   19.6897  -19.9804  -14.6881 C   0  0  0  0  0  0  0  0  0  0  0  0
   19.6227  -21.0066  -15.4116 O   0  0  0  0  0  0  0  0  0  0  0  0
   18.4757  -19.3579  -14.4516 O   0  0  0  0  0  0  0  0  0  0  0  0
  2  1  1  6
  2  3  1  0
  3  4  1  0
  4  9  2  0
  5  4  1  0
  5  6  2  0
  6  7  1  0
  7  8  2  0
  9  8  1  0
 10 18  1  0
 10  2  1  0
 11 10  2  0
 13 12  1  0
 13 15  1  0
 14 13  2  0
 16 15  1  0
 17 16  1  1
 17 18  1  0
 19 26  1  0
 19 17  1  0
 20 19  2  0
 22 21  1  1
 22 24  1  0
 23 22  1  0
 25 24  1  6
 25 26  1  0
 25 27  1  0
 27 29  1  0
 28 27  2  0
M  END
$$$$
