FQL.pdb
     RDKit          3D

 29 29  0  0  1  0  0  0  0  0999 V2000
   15.8061  -14.3007    6.0873 N   0  0  0  0  0  0  0  0  0  0  0  0
   16.7259  -15.3080    5.5922 C   0  0  1  0  0  0  0  0  0  0  0  0
   18.1575  -14.8318    5.7761 C   0  0  0  0  0  0  0  0  0  0  0  0
   18.4945  -13.9217    4.6546 C   0  0  0  0  0  0  0  0  0  0  0  0
   18.8808  -12.6371    4.8810 C   0  0  0  0  0  0  0  0  0  0  0  0
   19.2071  -11.7408    3.8861 C   0  0  0  0  0  0  0  0  0  0  0  0
   19.1393  -12.1680    2.5769 C   0  0  0  0  0  0  0  0  0  0  0  0
   18.7514  -13.4657    2.3000 C   0  0  0  0  0  0  0  0  0  0  0  0
   18.4294  -14.3421    3.3334 C   0  0  0  0  0  0  0  0  0  0  0  0
   16.4726  -16.5629    6.3264 C   0  0  0  0  0  0  0  0  0  0  0  0
   15.8307  -16.5205    7.3966 O   0  0  0  0  0  0  0  0  0  0  0  0
   15.5921  -22.2102    4.2871 N   0  0  0  0  0  0  0  0  0  0  0  0
   15.5536  -22.4149    5.7062 C   0  0  0  0  0  0  0  0  0  0  0  0
   15.1545  -23.5072    6.1205 O   0  0  0  0  0  0  0  0  0  0  0  0
   15.9881  -21.3175    6.5853 C   0  0  0  0  0  0  0  0  0  0  0  0
   16.2598  -20.0666    5.8369 C   0  0  0  0  0  0  0  0  0  0  0  0
   16.8344  -18.9913    6.7227 C   0  0  2  0  0  0  0  0  0  0  0  0
   16.9388  -17.7998    5.8440 N   0  0  0  0  0  0  0  0  0  0  0  0
   18.2099  -19.3027    7.1680 C   0  0  0  0  0  0  0  0  0  0  0  0
   19.1278  -19.3778    6.2995 O   0  0  0  0  0  0  0  0  0  0  0  0
   21.4018  -16.4026    9.7561 C   0  0  0  0  0  0  0  0  0  0  0  0
   21.5061  -17.7029    8.8873 C   0  0  1  0  0  0  0  0  0  0  0  0
   22.9600  -17.9079    8.7079 C   0  0  0  0  0  0  0  0  0  0  0  0
   20.6627  -18.7016    9.5066 C   0  0  0  0  0  0  0  0  0  0  0  0
   20.0359  -19.8188    8.7895 C   0  0  2  0  0  0  0  0  0  0  0  0
   18.6291  -19.5255    8.4923 N   0  0  0  0  0  0  0  0  0  0  0  0
   20.0453  -21.1158    9.4630 C   0  0  0  0  0  0  0  0  0  0  0  0
   18.9938  -21.5445   10.0031 O   0  0  0  0  0  0  0  0  0  0  0  0
   21.1372  -21.9606    9.5692 O   0  0  0  0  0  0  0  0  0  0  0  0
  2  1  1  1
  2  3  1  0
  3  4  1  0
  4  9  2  0
  5  4  1  0
  5  6  2  0
  6  7  1  0
  7  8  2  0
  9  8  1  0
 10 18  1  0
 10  2  1  0
 11 10  2  0
 13 12  1  0
 13 15  1  0
 14 13  2  0
 16 15  1  0
 17 16  1  6
 17 18  1  0
 19 26  1  0
 19 17  1  0
 20 19  2  0
 22 21  1  1
 22 24  1  0
 23 22  1  0
 25 24  1  1
 25 26  1  0
 25 27  1  0
 27 29  1  0
 28 27  2  0
M  END
$$$$
