FQL.pdb
     RDKit          3D

 29 29  0  0  1  0  0  0  0  0999 V2000
   27.2420  -22.4518  -11.0628 N   0  0  0  0  0  0  0  0  0  0  0  0
   26.3714  -21.3314  -10.7587 C   0  0  1  0  0  0  0  0  0  0  0  0
   27.1985  -20.0667  -10.5969 C   0  0  0  0  0  0  0  0  0  0  0  0
   27.7421  -20.0376   -9.2173 C   0  0  0  0  0  0  0  0  0  0  0  0
   28.9422  -20.6055   -8.9205 C   0  0  0  0  0  0  0  0  0  0  0  0
   29.5036  -20.6139   -7.6618 C   0  0  0  0  0  0  0  0  0  0  0  0
   28.8093  -20.0100   -6.6350 C   0  0  0  0  0  0  0  0  0  0  0  0
   27.5855  -19.4201   -6.8909 C   0  0  0  0  0  0  0  0  0  0  0  0
   27.0509  -19.4323   -8.1770 C   0  0  0  0  0  0  0  0  0  0  0  0
   25.3894  -21.2018  -11.8528 C   0  0  0  0  0  0  0  0  0  0  0  0
   25.6645  -21.6770  -12.9743 O   0  0  0  0  0  0  0  0  0  0  0  0
   20.2637  -22.6551   -9.6497 N   0  0  0  0  0  0  0  0  0  0  0  0
   19.8249  -22.5685  -11.0124 C   0  0  0  0  0  0  0  0  0  0  0  0
   18.7035  -23.0065  -11.2859 O   0  0  0  0  0  0  0  0  0  0  0  0
   20.7306  -21.9671  -12.0042 C   0  0  0  0  0  0  0  0  0  0  0  0
   21.9896  -21.4742  -11.3954 C   0  0  0  0  0  0  0  0  0  0  0  0
   22.9789  -21.0153  -12.4355 C   0  0  2  0  0  0  0  0  0  0  0  0
   24.1550  -20.5559  -11.6554 N   0  0  0  0  0  0  0  0  0  0  0  0
   22.4964  -19.8403  -13.1930 C   0  0  0  0  0  0  0  0  0  0  0  0
   22.2995  -18.7552  -12.5715 O   0  0  0  0  0  0  0  0  0  0  0  0
   24.1584  -17.5680  -17.9735 C   0  0  0  0  0  0  0  0  0  0  0  0
   23.7636  -17.7082  -16.4632 C   0  0  1  0  0  0  0  0  0  0  0  0
   24.1080  -16.3971  -15.8714 C   0  0  0  0  0  0  0  0  0  0  0  0
   22.4187  -18.2387  -16.4189 C   0  0  0  0  0  0  0  0  0  0  0  0
   21.6957  -18.5650  -15.1835 C   0  0  2  0  0  0  0  0  0  0  0  0
   22.2292  -19.7882  -14.5733 N   0  0  0  0  0  0  0  0  0  0  0  0
   20.2535  -18.7687  -15.3042 C   0  0  0  0  0  0  0  0  0  0  0  0
   19.7896  -19.9372  -15.3280 O   0  0  0  0  0  0  0  0  0  0  0  0
   19.3028  -17.7660  -15.3943 O   0  0  0  0  0  0  0  0  0  0  0  0
  2  1  1  6
  2  3  1  0
  3  4  1  0
  4  9  2  0
  5  4  1  0
  5  6  2  0
  6  7  1  0
  7  8  2  0
  9  8  1  0
 10 18  1  0
 10  2  1  0
 11 10  2  0
 13 12  1  0
 13 15  1  0
 14 13  2  0
 16 15  1  0
 17 16  1  1
 17 18  1  0
 19 26  1  0
 19 17  1  0
 20 19  2  0
 22 21  1  6
 22 24  1  0
 23 22  1  0
 25 24  1  6
 25 26  1  0
 25 27  1  0
 27 29  1  0
 28 27  2  0
M  END
$$$$
