FQL.pdb
     RDKit          3D

 29 29  0  0  1  0  0  0  0  0999 V2000
   28.6762  -20.8329   -8.6637 N   0  0  0  0  0  0  0  0  0  0  0  0
   27.2275  -20.7947   -8.5889 C   0  0  1  0  0  0  0  0  0  0  0  0
   26.7868  -19.5988   -7.7610 C   0  0  0  0  0  0  0  0  0  0  0  0
   27.5252  -19.6235   -6.4750 C   0  0  0  0  0  0  0  0  0  0  0  0
   28.4961  -18.7105   -6.2020 C   0  0  0  0  0  0  0  0  0  0  0  0
   29.2191  -18.6776   -5.0290 C   0  0  0  0  0  0  0  0  0  0  0  0
   28.9450  -19.6278   -4.0683 C   0  0  0  0  0  0  0  0  0  0  0  0
   27.9661  -20.5754   -4.3030 C   0  0  0  0  0  0  0  0  0  0  0  0
   27.2568  -20.5758   -5.5015 C   0  0  0  0  0  0  0  0  0  0  0  0
   26.6975  -20.7277   -9.9646 C   0  0  0  0  0  0  0  0  0  0  0  0
   27.2669  -19.9936  -10.7990 O   0  0  0  0  0  0  0  0  0  0  0  0
   24.7741  -24.9141  -13.5589 N   0  0  0  0  0  0  0  0  0  0  0  0
   24.6726  -23.7709  -14.4191 C   0  0  0  0  0  0  0  0  0  0  0  0
   24.2152  -23.9416  -15.5530 O   0  0  0  0  0  0  0  0  0  0  0  0
   25.1180  -22.4654  -13.9064 C   0  0  0  0  0  0  0  0  0  0  0  0
   25.4915  -22.5180  -12.4723 C   0  0  0  0  0  0  0  0  0  0  0  0
   25.0325  -21.2936  -11.7232 C   0  0  2  0  0  0  0  0  0  0  0  0
   25.5681  -21.4729  -10.3507 N   0  0  0  0  0  0  0  0  0  0  0  0
   23.5608  -21.2318  -11.5916 C   0  0  0  0  0  0  0  0  0  0  0  0
   23.0593  -21.0767  -10.4397 O   0  0  0  0  0  0  0  0  0  0  0  0
   20.5992  -17.3352  -13.6743 C   0  0  0  0  0  0  0  0  0  0  0  0
   20.8578  -17.9780  -12.2684 C   0  0  1  0  0  0  0  0  0  0  0  0
   19.5048  -18.2129  -11.7186 C   0  0  0  0  0  0  0  0  0  0  0  0
   21.8053  -19.0545  -12.4567 C   0  0  0  0  0  0  0  0  0  0  0  0
   21.4347  -20.4620  -12.6487 C   0  0  2  0  0  0  0  0  0  0  0  0
   22.6239  -21.3218  -12.6373 N   0  0  0  0  0  0  0  0  0  0  0  0
   20.7126  -20.7865  -13.8772 C   0  0  0  0  0  0  0  0  0  0  0  0
   21.3516  -20.9758  -14.9435 O   0  0  0  0  0  0  0  0  0  0  0  0
   19.3390  -20.9174  -13.9938 O   0  0  0  0  0  0  0  0  0  0  0  0
  2  1  1  6
  2  3  1  0
  3  4  1  0
  4  9  2  0
  5  4  1  0
  5  6  2  0
  6  7  1  0
  7  8  2  0
  9  8  1  0
 10 18  1  0
 10  2  1  0
 11 10  2  0
 13 12  1  0
 13 15  1  0
 14 13  2  0
 16 15  1  0
 17 16  1  6
 17 18  1  0
 19 26  1  0
 19 17  1  0
 20 19  2  0
 22 21  1  6
 22 24  1  0
 23 22  1  0
 25 24  1  6
 25 26  1  0
 25 27  1  0
 27 29  1  0
 28 27  2  0
M  END
$$$$
