FQL.pdb
     RDKit          3D

 29 29  0  0  1  0  0  0  0  0999 V2000
   28.0065  -19.2537  -15.6793 N   0  0  0  0  0  0  0  0  0  0  0  0
   26.8949  -18.5602  -15.0555 C   0  0  1  0  0  0  0  0  0  0  0  0
   26.0682  -17.8541  -16.1175 C   0  0  0  0  0  0  0  0  0  0  0  0
   26.7217  -16.5610  -16.4347 C   0  0  0  0  0  0  0  0  0  0  0  0
   26.8017  -15.5663  -15.5102 C   0  0  0  0  0  0  0  0  0  0  0  0
   27.3940  -14.3431  -15.7395 C   0  0  0  0  0  0  0  0  0  0  0  0
   27.9415  -14.1076  -16.9828 C   0  0  0  0  0  0  0  0  0  0  0  0
   27.8831  -15.0904  -17.9533 C   0  0  0  0  0  0  0  0  0  0  0  0
   27.2758  -16.3142  -17.6831 C   0  0  0  0  0  0  0  0  0  0  0  0
   26.0926  -19.5516  -14.3129 C   0  0  0  0  0  0  0  0  0  0  0  0
   26.0157  -20.7191  -14.7490 O   0  0  0  0  0  0  0  0  0  0  0  0
   25.9083  -22.6216  -10.9784 N   0  0  0  0  0  0  0  0  0  0  0  0
   26.9217  -21.6310  -10.7570 C   0  0  0  0  0  0  0  0  0  0  0  0
   28.0874  -22.0173  -10.6302 O   0  0  0  0  0  0  0  0  0  0  0  0
   26.5185  -20.2173  -10.6919 C   0  0  0  0  0  0  0  0  0  0  0  0
   25.0681  -20.0305  -10.9375 C   0  0  0  0  0  0  0  0  0  0  0  0
   24.7032  -20.2710  -12.3797 C   0  0  2  0  0  0  0  0  0  0  0  0
   25.4166  -19.2062  -13.1281 N   0  0  0  0  0  0  0  0  0  0  0  0
   23.2613  -20.0677  -12.6381 C   0  0  0  0  0  0  0  0  0  0  0  0
   22.8764  -18.9498  -13.0904 O   0  0  0  0  0  0  0  0  0  0  0  0
   20.5741  -19.6786  -16.4444 C   0  0  0  0  0  0  0  0  0  0  0  0
   20.5729  -21.1312  -15.8556 C   0  0  1  0  0  0  0  0  0  0  0  0
   20.7744  -22.0038  -17.0329 C   0  0  0  0  0  0  0  0  0  0  0  0
   21.4834  -21.1394  -14.7318 C   0  0  0  0  0  0  0  0  0  0  0  0
   21.0684  -21.0407  -13.3270 C   0  0  2  0  0  0  0  0  0  0  0  0
   22.2356  -21.0098  -12.4382 N   0  0  0  0  0  0  0  0  0  0  0  0
   20.2047  -22.1068  -12.8237 C   0  0  0  0  0  0  0  0  0  0  0  0
   20.7039  -23.2186  -12.5141 O   0  0  0  0  0  0  0  0  0  0  0  0
   18.8354  -22.0152  -12.6396 O   0  0  0  0  0  0  0  0  0  0  0  0
  2  1  1  6
  2  3  1  0
  3  4  1  0
  4  9  2  0
  5  4  1  0
  5  6  2  0
  6  7  1  0
  7  8  2  0
  9  8  1  0
 10 18  1  0
 10  2  1  0
 11 10  2  0
 13 12  1  0
 13 15  1  0
 14 13  2  0
 16 15  1  0
 17 16  1  1
 17 18  1  0
 19 26  1  0
 19 17  1  0
 20 19  2  0
 22 21  1  6
 22 24  1  0
 23 22  1  0
 25 24  1  6
 25 26  1  0
 25 27  1  0
 27 29  1  0
 28 27  2  0
M  END
$$$$
