FQL.pdb
     RDKit          3D

 29 29  0  0  1  0  0  0  0  0999 V2000
   25.0608  -18.0181  -16.1080 N   0  0  0  0  0  0  0  0  0  0  0  0
   26.1005  -18.3357  -15.1468 C   0  0  1  0  0  0  0  0  0  0  0  0
   26.7717  -17.0568  -14.6739 C   0  0  0  0  0  0  0  0  0  0  0  0
   27.5819  -16.5140  -15.7913 C   0  0  0  0  0  0  0  0  0  0  0  0
   27.3251  -15.2856  -16.3164 C   0  0  0  0  0  0  0  0  0  0  0  0
   28.0381  -14.7233  -17.3533 C   0  0  0  0  0  0  0  0  0  0  0  0
   29.0784  -15.4472  -17.8962 C   0  0  0  0  0  0  0  0  0  0  0  0
   29.3751  -16.7005  -17.3938 C   0  0  0  0  0  0  0  0  0  0  0  0
   28.6311  -17.2349  -16.3447 C   0  0  0  0  0  0  0  0  0  0  0  0
   25.4820  -19.0707  -14.0263 C   0  0  0  0  0  0  0  0  0  0  0  0
   24.4673  -18.5952  -13.4755 O   0  0  0  0  0  0  0  0  0  0  0  0
   24.5771  -24.8515  -13.9254 N   0  0  0  0  0  0  0  0  0  0  0  0
   25.0490  -23.8722  -14.8610 C   0  0  0  0  0  0  0  0  0  0  0  0
   25.1345  -24.2025  -16.0474 O   0  0  0  0  0  0  0  0  0  0  0  0
   25.4047  -22.5357  -14.3580 C   0  0  0  0  0  0  0  0  0  0  0  0
   25.1537  -22.3931  -12.9035 C   0  0  0  0  0  0  0  0  0  0  0  0
   25.3493  -20.9751  -12.4323 C   0  0  2  0  0  0  0  0  0  0  0  0
   26.0128  -20.2915  -13.5704 N   0  0  0  0  0  0  0  0  0  0  0  0
   26.2835  -20.8844  -11.2895 C   0  0  0  0  0  0  0  0  0  0  0  0
   27.3819  -21.5107  -11.3508 O   0  0  0  0  0  0  0  0  0  0  0  0
   29.0384  -20.6545   -7.5826 C   0  0  0  0  0  0  0  0  0  0  0  0
   27.7513  -20.2044   -6.8097 C   0  0  1  0  0  0  0  0  0  0  0  0
   28.2429  -19.2195   -5.8217 C   0  0  0  0  0  0  0  0  0  0  0  0
   26.7536  -19.8631   -7.7998 C   0  0  0  0  0  0  0  0  0  0  0  0
   26.2186  -20.7996   -8.7958 C   0  0  2  0  0  0  0  0  0  0  0  0
   26.0864  -20.1508  -10.1053 N   0  0  0  0  0  0  0  0  0  0  0  0
   24.9142  -21.3906   -8.5035 C   0  0  0  0  0  0  0  0  0  0  0  0
   23.8719  -20.8552   -8.9595 O   0  0  0  0  0  0  0  0  0  0  0  0
   24.6971  -22.5305   -7.7480 O   0  0  0  0  0  0  0  0  0  0  0  0
  2  1  1  6
  2  3  1  0
  3  4  1  0
  4  9  2  0
  5  4  1  0
  5  6  2  0
  6  7  1  0
  7  8  2  0
  9  8  1  0
 10 18  1  0
 10  2  1  0
 11 10  2  0
 13 12  1  0
 13 15  1  0
 14 13  2  0
 16 15  1  0
 17 16  1  6
 17 18  1  0
 19 26  1  0
 19 17  1  0
 20 19  2  0
 22 21  1  6
 22 24  1  0
 23 22  1  0
 25 24  1  1
 25 26  1  0
 25 27  1  0
 27 29  1  0
 28 27  2  0
M  END
$$$$
