FQL.pdb
     RDKit          3D

 29 29  0  0  1  0  0  0  0  0999 V2000
   27.6739  -26.2026  -16.0383 N   0  0  0  0  0  0  0  0  0  0  0  0
   27.7765  -27.2051  -17.0824 C   0  0  1  0  0  0  0  0  0  0  0  0
   28.3663  -26.5823  -18.3371 C   0  0  0  0  0  0  0  0  0  0  0  0
   27.4129  -25.5670  -18.8469 C   0  0  0  0  0  0  0  0  0  0  0  0
   26.2267  -25.9312  -19.4044 C   0  0  0  0  0  0  0  0  0  0  0  0
   25.2976  -25.0401  -19.8968 C   0  0  0  0  0  0  0  0  0  0  0  0
   25.5836  -23.6934  -19.8221 C   0  0  0  0  0  0  0  0  0  0  0  0
   26.7777  -23.2776  -19.2631 C   0  0  0  0  0  0  0  0  0  0  0  0
   27.6915  -24.2091  -18.7762 C   0  0  0  0  0  0  0  0  0  0  0  0
   28.6154  -28.3098  -16.5785 C   0  0  0  0  0  0  0  0  0  0  0  0
   28.9617  -28.3100  -15.3788 O   0  0  0  0  0  0  0  0  0  0  0  0
   26.9510  -33.0259  -13.3600 N   0  0  0  0  0  0  0  0  0  0  0  0
   26.8388  -32.7250  -14.7579 C   0  0  0  0  0  0  0  0  0  0  0  0
   25.7145  -32.7597  -15.2666 O   0  0  0  0  0  0  0  0  0  0  0  0
   28.0630  -32.3948  -15.5049 C   0  0  0  0  0  0  0  0  0  0  0  0
   28.0090  -31.0425  -16.1108 C   0  0  0  0  0  0  0  0  0  0  0  0
   29.2889  -30.6912  -16.8245 C   0  0  2  0  0  0  0  0  0  0  0  0
   29.0295  -29.3574  -17.4217 N   0  0  0  0  0  0  0  0  0  0  0  0
   29.5748  -31.6044  -17.9521 C   0  0  0  0  0  0  0  0  0  0  0  0
   28.8438  -31.5440  -18.9839 O   0  0  0  0  0  0  0  0  0  0  0  0
   32.8666  -31.9502  -20.9467 C   0  0  0  0  0  0  0  0  0  0  0  0
   32.8840  -33.4938  -20.6754 C   0  0  1  0  0  0  0  0  0  0  0  0
   34.2988  -33.8826  -20.8620 C   0  0  0  0  0  0  0  0  0  0  0  0
   32.1864  -33.7181  -19.4283 C   0  0  0  0  0  0  0  0  0  0  0  0
   30.7702  -33.4043  -19.2015 C   0  0  2  0  0  0  0  0  0  0  0  0
   30.6059  -32.5597  -18.0129 N   0  0  0  0  0  0  0  0  0  0  0  0
   29.8698  -34.5408  -19.0181 C   0  0  0  0  0  0  0  0  0  0  0  0
   29.4031  -34.7874  -17.8768 O   0  0  0  0  0  0  0  0  0  0  0  0
   29.4553  -35.4093  -20.0136 O   0  0  0  0  0  0  0  0  0  0  0  0
  2  1  1  1
  2  3  1  0
  3  4  1  0
  4  9  2  0
  5  4  1  0
  5  6  2  0
  6  7  1  0
  7  8  2  0
  9  8  1  0
 10 18  1  0
 10  2  1  0
 11 10  2  0
 13 12  1  0
 13 15  1  0
 14 13  2  0
 16 15  1  0
 17 16  1  6
 17 18  1  0
 19 26  1  0
 19 17  1  0
 20 19  2  0
 22 21  1  1
 22 24  1  0
 23 22  1  0
 25 24  1  1
 25 26  1  0
 25 27  1  0
 27 29  1  0
 28 27  2  0
M  END
$$$$
