FQL.pdb
     RDKit          3D

 29 29  0  0  1  0  0  0  0  0999 V2000
   24.5809  -27.7494  -18.3117 N   0  0  0  0  0  0  0  0  0  0  0  0
   25.4306  -28.2214  -17.2343 C   0  0  1  0  0  0  0  0  0  0  0  0
   24.7368  -28.0043  -15.8996 C   0  0  0  0  0  0  0  0  0  0  0  0
   24.5714  -26.5453  -15.6912 C   0  0  0  0  0  0  0  0  0  0  0  0
   23.3528  -26.0062  -15.4170 C   0  0  0  0  0  0  0  0  0  0  0  0
   23.1302  -24.6614  -15.2132 C   0  0  0  0  0  0  0  0  0  0  0  0
   24.2071  -23.8039  -15.2911 C   0  0  0  0  0  0  0  0  0  0  0  0
   25.4643  -24.3080  -15.5675 C   0  0  0  0  0  0  0  0  0  0  0  0
   25.6490  -25.6739  -15.7675 C   0  0  0  0  0  0  0  0  0  0  0  0
   25.7212  -29.6491  -17.4694 C   0  0  0  0  0  0  0  0  0  0  0  0
   24.9491  -30.3145  -18.1907 O   0  0  0  0  0  0  0  0  0  0  0  0
   30.7149  -30.1839  -16.7340 N   0  0  0  0  0  0  0  0  0  0  0  0
   30.4087  -30.5129  -18.0961 C   0  0  0  0  0  0  0  0  0  0  0  0
   31.1254  -30.0340  -18.9799 O   0  0  0  0  0  0  0  0  0  0  0  0
   29.2629  -31.3967  -18.3638 C   0  0  0  0  0  0  0  0  0  0  0  0
   28.5951  -31.8501  -17.1199 C   0  0  0  0  0  0  0  0  0  0  0  0
   27.0973  -31.7026  -17.1963 C   0  0  2  0  0  0  0  0  0  0  0  0
   26.8473  -30.2703  -16.8984 N   0  0  0  0  0  0  0  0  0  0  0  0
   26.4002  -32.4748  -16.1451 C   0  0  0  0  0  0  0  0  0  0  0  0
   25.9456  -31.8576  -15.1377 O   0  0  0  0  0  0  0  0  0  0  0  0
   23.2430  -33.9477  -12.7593 C   0  0  0  0  0  0  0  0  0  0  0  0
   22.8968  -34.2626  -14.2552 C   0  0  1  0  0  0  0  0  0  0  0  0
   21.5308  -33.7249  -14.4361 C   0  0  0  0  0  0  0  0  0  0  0  0
   24.0110  -33.8086  -15.0581 C   0  0  0  0  0  0  0  0  0  0  0  0
   25.3180  -34.4747  -15.1159 C   0  0  2  0  0  0  0  0  0  0  0  0
   26.1714  -33.8630  -16.1410 N   0  0  0  0  0  0  0  0  0  0  0  0
   25.3095  -35.9084  -15.3993 C   0  0  0  0  0  0  0  0  0  0  0  0
   25.4126  -36.3090  -16.5868 O   0  0  0  0  0  0  0  0  0  0  0  0
   25.1996  -36.9157  -14.4556 O   0  0  0  0  0  0  0  0  0  0  0  0
  2  1  1  6
  2  3  1  0
  3  4  1  0
  4  9  2  0
  5  4  1  0
  5  6  2  0
  6  7  1  0
  7  8  2  0
  9  8  1  0
 10 18  1  0
 10  2  1  0
 11 10  2  0
 13 12  1  0
 13 15  1  0
 14 13  2  0
 16 15  1  0
 17 16  1  1
 17 18  1  0
 19 26  1  0
 19 17  1  0
 20 19  2  0
 22 21  1  1
 22 24  1  0
 23 22  1  0
 25 24  1  6
 25 26  1  0
 25 27  1  0
 27 29  1  0
 28 27  2  0
M  END
$$$$
