FQL.pdb
     RDKit          3D

 29 29  0  0  1  0  0  0  0  0999 V2000
   23.1271  -13.3483  -17.9331 N   0  0  0  0  0  0  0  0  0  0  0  0
   23.3734  -12.4694  -16.8050 C   0  0  1  0  0  0  0  0  0  0  0  0
   24.8353  -12.0543  -16.7862 C   0  0  0  0  0  0  0  0  0  0  0  0
   25.6581  -13.2554  -16.5033 C   0  0  0  0  0  0  0  0  0  0  0  0
   26.3478  -13.8861  -17.4919 C   0  0  0  0  0  0  0  0  0  0  0  0
   27.1293  -15.0046  -17.2974 C   0  0  0  0  0  0  0  0  0  0  0  0
   27.2214  -15.5209  -16.0222 C   0  0  0  0  0  0  0  0  0  0  0  0
   26.5373  -14.9121  -14.9866 C   0  0  0  0  0  0  0  0  0  0  0  0
   25.7573  -13.7828  -15.2233 C   0  0  0  0  0  0  0  0  0  0  0  0
   22.4789  -11.3019  -16.9276 C   0  0  0  0  0  0  0  0  0  0  0  0
   22.1135  -10.9344  -18.0636 O   0  0  0  0  0  0  0  0  0  0  0  0
   17.4820  -10.4874  -13.9407 N   0  0  0  0  0  0  0  0  0  0  0  0
   17.6776  -11.0772  -15.2334 C   0  0  0  0  0  0  0  0  0  0  0  0
   16.7883  -11.8127  -15.6719 O   0  0  0  0  0  0  0  0  0  0  0  0
   18.9207  -10.7760  -15.9611 C   0  0  0  0  0  0  0  0  0  0  0  0
   19.8494   -9.9329  -15.1702 C   0  0  0  0  0  0  0  0  0  0  0  0
   21.0486   -9.5038  -15.9757 C   0  0  2  0  0  0  0  0  0  0  0  0
   22.0328  -10.5996  -15.7928 N   0  0  0  0  0  0  0  0  0  0  0  0
   21.6817   -8.2807  -15.4369 C   0  0  0  0  0  0  0  0  0  0  0  0
   22.5138   -8.3935  -14.4896 O   0  0  0  0  0  0  0  0  0  0  0  0
   23.2872   -2.7107  -17.1222 C   0  0  0  0  0  0  0  0  0  0  0  0
   23.0397   -3.5041  -15.7933 C   0  0  1  0  0  0  0  0  0  0  0  0
   22.3471   -2.5377  -14.9134 C   0  0  0  0  0  0  0  0  0  0  0  0
   22.4458   -4.7723  -16.1551 C   0  0  0  0  0  0  0  0  0  0  0  0
   22.1064   -5.8327  -15.1981 C   0  0  2  0  0  0  0  0  0  0  0  0
   21.4618   -6.9627  -15.8771 N   0  0  0  0  0  0  0  0  0  0  0  0
   21.2184   -5.4615  -14.0983 C   0  0  0  0  0  0  0  0  0  0  0  0
   19.9779   -5.6308  -14.2154 O   0  0  0  0  0  0  0  0  0  0  0  0
   21.6179   -4.9238  -12.8865 O   0  0  0  0  0  0  0  0  0  0  0  0
  2  1  1  6
  2  3  1  0
  3  4  1  0
  4  9  2  0
  5  4  1  0
  5  6  2  0
  6  7  1  0
  7  8  2  0
  9  8  1  0
 10 18  1  0
 10  2  1  0
 11 10  2  0
 13 12  1  0
 13 15  1  0
 14 13  2  0
 16 15  1  0
 17 16  1  1
 17 18  1  0
 19 26  1  0
 19 17  1  0
 20 19  2  0
 22 21  1  6
 22 24  1  0
 23 22  1  0
 25 24  1  6
 25 26  1  0
 25 27  1  0
 27 29  1  0
 28 27  2  0
M  END
$$$$
