FQL.pdb
     RDKit          3D

 29 29  0  0  1  0  0  0  0  0999 V2000
   28.3551  -21.5712   -9.5449 N   0  0  0  0  0  0  0  0  0  0  0  0
   27.0307  -20.9918   -9.4184 C   0  0  1  0  0  0  0  0  0  0  0  0
   27.1262  -19.6330   -8.7444 C   0  0  0  0  0  0  0  0  0  0  0  0
   27.4469  -19.8439   -7.3118 C   0  0  0  0  0  0  0  0  0  0  0  0
   26.4640  -20.0216   -6.3882 C   0  0  0  0  0  0  0  0  0  0  0  0
   26.6929  -20.2218   -5.0439 C   0  0  0  0  0  0  0  0  0  0  0  0
   27.9987  -20.2443   -4.6020 C   0  0  0  0  0  0  0  0  0  0  0  0
   29.0299  -20.0680   -5.5058 C   0  0  0  0  0  0  0  0  0  0  0  0
   28.7580  -19.8682   -6.8570 C   0  0  0  0  0  0  0  0  0  0  0  0
   26.4431  -20.8884  -10.7683 C   0  0  0  0  0  0  0  0  0  0  0  0
   27.1163  -20.3732  -11.6851 O   0  0  0  0  0  0  0  0  0  0  0  0
   25.2464  -22.1140  -15.4222 N   0  0  0  0  0  0  0  0  0  0  0  0
   26.1472  -22.9120  -14.6420 C   0  0  0  0  0  0  0  0  0  0  0  0
   27.2194  -23.2418  -15.1575 O   0  0  0  0  0  0  0  0  0  0  0  0
   25.7458  -23.2927  -13.2783 C   0  0  0  0  0  0  0  0  0  0  0  0
   24.4563  -22.6808  -12.8763 C   0  0  0  0  0  0  0  0  0  0  0  0
   24.6244  -21.2528  -12.4250 C   0  0  2  0  0  0  0  0  0  0  0  0
   25.1445  -21.3579  -11.0389 N   0  0  0  0  0  0  0  0  0  0  0  0
   23.3348  -20.5349  -12.3330 C   0  0  0  0  0  0  0  0  0  0  0  0
   22.7055  -20.5535  -11.2348 O   0  0  0  0  0  0  0  0  0  0  0  0
   19.4208  -17.1362  -14.7219 C   0  0  0  0  0  0  0  0  0  0  0  0
   20.4755  -16.7388  -13.6327 C   0  0  1  0  0  0  0  0  0  0  0  0
   19.6748  -16.5291  -12.4068 C   0  0  0  0  0  0  0  0  0  0  0  0
   21.5425  -17.7134  -13.6930 C   0  0  0  0  0  0  0  0  0  0  0  0
   21.4769  -19.0535  -13.0972 C   0  0  2  0  0  0  0  0  0  0  0  0
   22.7106  -19.8033  -13.3600 N   0  0  0  0  0  0  0  0  0  0  0  0
   20.3797  -19.9124  -13.5383 C   0  0  0  0  0  0  0  0  0  0  0  0
   20.5528  -20.6956  -14.5067 O   0  0  0  0  0  0  0  0  0  0  0  0
   19.1162  -19.9592  -12.9738 O   0  0  0  0  0  0  0  0  0  0  0  0
  2  1  1  6
  2  3  1  0
  3  4  1  0
  4  9  2  0
  5  4  1  0
  5  6  2  0
  6  7  1  0
  7  8  2  0
  9  8  1  0
 10 18  1  0
 10  2  1  0
 11 10  2  0
 13 12  1  0
 13 15  1  0
 14 13  2  0
 16 15  1  0
 17 16  1  1
 17 18  1  0
 19 26  1  0
 19 17  1  0
 20 19  2  0
 22 21  1  6
 22 24  1  0
 23 22  1  0
 25 24  1  6
 25 26  1  0
 25 27  1  0
 27 29  1  0
 28 27  2  0
M  END
$$$$
