IWA.pdb
     RDKit          3D

 28 29  0  0  1  0  0  0  0  0999 V2000
    7.5330  -12.4701   18.3653 C   0  0  0  0  0  0  0  0  0  0  0  0
    7.1995  -13.7034   19.1495 C   0  0  0  0  0  0  0  0  0  0  0  0
    8.1735  -13.8731   20.3163 C   0  0  2  0  0  0  0  0  0  0  0  0
    9.5223  -14.1908   19.7064 C   0  0  0  0  0  0  0  0  0  0  0  0
    7.7661  -15.0806   21.1368 C   0  0  2  0  0  0  0  0  0  0  0  0
    6.3230  -15.0038   21.2673 N   0  0  0  0  0  0  0  0  0  0  0  0
    8.3445  -15.0327   22.5012 C   0  0  0  0  0  0  0  0  0  0  0  0
    8.4552  -13.9602   23.1104 O   0  0  0  0  0  0  0  0  0  0  0  0
    8.7937  -16.2369   23.1546 N   0  0  0  0  0  0  0  0  0  0  0  0
    9.5185  -16.2093   24.3921 C   0  0  1  0  0  0  0  0  0  0  0  0
    8.6711  -16.3785   25.6215 C   0  0  0  0  0  0  0  0  0  0  0  0
    7.5996  -15.4168   25.7991 C   0  0  0  0  0  0  0  0  0  0  0  0
    6.2471  -15.6415   25.6407 C   0  0  0  0  0  0  0  0  0  0  0  0
    5.5627  -14.5075   25.8734 N   0  0  0  0  0  0  0  0  0  0  0  0
    6.4259  -13.5276   26.1846 C   0  0  0  0  0  0  0  0  0  0  0  0
    6.1929  -12.2093   26.5031 C   0  0  0  0  0  0  0  0  0  0  0  0
    7.2839  -11.4170   26.7910 C   0  0  0  0  0  0  0  0  0  0  0  0
    8.5746  -11.9368   26.7594 C   0  0  0  0  0  0  0  0  0  0  0  0
    8.7519  -13.2531   26.4369 C   0  0  0  0  0  0  0  0  0  0  0  0
    7.7093  -14.0893   26.1409 C   0  0  0  0  0  0  0  0  0  0  0  0
   10.6550  -17.1523   24.3487 C   0  0  0  0  0  0  0  0  0  0  0  0
   10.4118  -18.3688   24.1498 O   0  0  0  0  0  0  0  0  0  0  0  0
   14.3801  -16.9045   24.2746 C   0  0  0  0  0  0  0  0  0  0  0  0
   13.1034  -17.7189   24.5150 C   0  0  2  0  0  0  0  0  0  0  0  0
   12.0034  -16.7746   24.5168 N   0  0  0  0  0  0  0  0  0  0  0  0
   13.2144  -18.4681   25.7673 C   0  0  0  0  0  0  0  0  0  0  0  0
   12.4711  -18.2275   26.7502 O   0  0  0  0  0  0  0  0  0  0  0  0
   14.1574  -19.4749   25.8967 O   0  0  0  0  0  0  0  0  0  0  0  0
  2  1  1  0
  3  2  1  0
  3  5  1  0
  3  4  1  6
  5  7  1  0
  5  6  1  1
  7  8  2  0
  9 10  1  0
  9  7  1  0
 10 11  1  1
 11 12  1  0
 12 20  1  0
 13 14  1  0
 13 12  2  0
 14 15  1  0
 15 20  2  0
 15 16  1  0
 16 17  2  0
 17 18  1  0
 19 18  2  0
 20 19  1  0
 21 10  1  0
 22 21  2  0
 24 23  1  1
 24 26  1  0
 24 25  1  0
 25 21  1  0
 26 28  1  0
 27 26  2  0
M  END
$$$$
