IWA.pdb
     RDKit          3D

 28 29  0  0  1  0  0  0  0  0999 V2000
    8.2031  -16.0241   16.9554 C   0  0  0  0  0  0  0  0  0  0  0  0
    7.4383  -15.6284   18.1824 C   0  0  0  0  0  0  0  0  0  0  0  0
    8.3769  -15.5240   19.3852 C   0  0  2  0  0  0  0  0  0  0  0  0
    9.0410  -16.8769   19.5299 C   0  0  0  0  0  0  0  0  0  0  0  0
    7.5583  -15.2992   20.6409 C   0  0  2  0  0  0  0  0  0  0  0  0
    6.9266  -14.0032   20.4767 N   0  0  0  0  0  0  0  0  0  0  0  0
    8.4180  -15.2311   21.8471 C   0  0  0  0  0  0  0  0  0  0  0  0
    9.1859  -14.2770   22.0308 O   0  0  0  0  0  0  0  0  0  0  0  0
    8.3814  -16.2769   22.8389 N   0  0  0  0  0  0  0  0  0  0  0  0
    9.2017  -16.2429   24.0150 C   0  0  1  0  0  0  0  0  0  0  0  0
    8.4462  -16.3190   25.3118 C   0  0  0  0  0  0  0  0  0  0  0  0
    7.4446  -15.2929   25.5315 C   0  0  0  0  0  0  0  0  0  0  0  0
    6.0746  -15.4377   25.4471 C   0  0  0  0  0  0  0  0  0  0  0  0
    5.4720  -14.2621   25.6992 N   0  0  0  0  0  0  0  0  0  0  0  0
    6.4071  -13.3325   25.9511 C   0  0  0  0  0  0  0  0  0  0  0  0
    6.2700  -11.9993   26.2628 C   0  0  0  0  0  0  0  0  0  0  0  0
    7.4198  -11.2708   26.4822 C   0  0  0  0  0  0  0  0  0  0  0  0
    8.6739  -11.8674   26.3906 C   0  0  0  0  0  0  0  0  0  0  0  0
    8.7554  -13.1954   26.0778 C   0  0  0  0  0  0  0  0  0  0  0  0
    7.6508  -13.9707   25.8484 C   0  0  0  0  0  0  0  0  0  0  0  0
   10.2808  -17.2479   23.9240 C   0  0  0  0  0  0  0  0  0  0  0  0
    9.9601  -18.4543   23.7810 O   0  0  0  0  0  0  0  0  0  0  0  0
   14.0026  -17.2189   23.6143 C   0  0  0  0  0  0  0  0  0  0  0  0
   12.7003  -17.9456   23.9708 C   0  0  2  0  0  0  0  0  0  0  0  0
   11.6558  -16.9406   23.9873 N   0  0  0  0  0  0  0  0  0  0  0  0
   12.8465  -18.6381   25.2517 C   0  0  0  0  0  0  0  0  0  0  0  0
   12.1327  -18.3510   26.2441 O   0  0  0  0  0  0  0  0  0  0  0  0
   13.7909  -19.6411   25.3989 O   0  0  0  0  0  0  0  0  0  0  0  0
  2  1  1  0
  3  2  1  0
  3  5  1  0
  3  4  1  1
  5  7  1  0
  5  6  1  6
  7  8  2  0
  9 10  1  0
  9  7  1  0
 10 11  1  1
 11 12  1  0
 12 20  1  0
 13 14  1  0
 13 12  2  0
 14 15  1  0
 15 20  2  0
 15 16  1  0
 16 17  2  0
 17 18  1  0
 19 18  2  0
 20 19  1  0
 21 10  1  0
 22 21  2  0
 24 23  1  1
 24 26  1  0
 24 25  1  0
 25 21  1  0
 26 28  1  0
 27 26  2  0
M  END
$$$$
