IWA.pdb
     RDKit          3D

 28 29  0  0  1  0  0  0  0  0999 V2000
    8.3906  -24.6863   24.7154 C   0  0  0  0  0  0  0  0  0  0  0  0
    7.2946  -23.6832   24.9145 C   0  0  0  0  0  0  0  0  0  0  0  0
    7.7527  -22.2960   24.4623 C   0  0  2  0  0  0  0  0  0  0  0  0
    8.8652  -21.8839   25.4028 C   0  0  0  0  0  0  0  0  0  0  0  0
    6.6213  -21.3066   24.6587 C   0  0  2  0  0  0  0  0  0  0  0  0
    5.5403  -21.7647   23.8061 N   0  0  0  0  0  0  0  0  0  0  0  0
    7.0031  -19.9460   24.2095 C   0  0  0  0  0  0  0  0  0  0  0  0
    7.4451  -19.7508   23.0693 O   0  0  0  0  0  0  0  0  0  0  0  0
    6.8687  -18.8134   25.0913 N   0  0  0  0  0  0  0  0  0  0  0  0
    7.2642  -17.4909   24.7014 C   0  0  1  0  0  0  0  0  0  0  0  0
    6.3554  -16.3949   25.1818 C   0  0  0  0  0  0  0  0  0  0  0  0
    6.6845  -15.0513   24.7449 C   0  0  0  0  0  0  0  0  0  0  0  0
    7.0011  -14.6487   23.4633 C   0  0  0  0  0  0  0  0  0  0  0  0
    7.2648  -13.3301   23.4479 N   0  0  0  0  0  0  0  0  0  0  0  0
    7.1317  -12.8394   24.6903 C   0  0  0  0  0  0  0  0  0  0  0  0
    7.2935  -11.5555   25.1581 C   0  0  0  0  0  0  0  0  0  0  0  0
    7.0823  -11.3316   26.5021 C   0  0  0  0  0  0  0  0  0  0  0  0
    6.7181  -12.3713   27.3526 C   0  0  0  0  0  0  0  0  0  0  0  0
    6.5705  -13.6288   26.8377 C   0  0  0  0  0  0  0  0  0  0  0  0
    6.7667  -13.9137   25.5132 C   0  0  0  0  0  0  0  0  0  0  0  0
    8.6803  -17.2500   25.0471 C   0  0  0  0  0  0  0  0  0  0  0  0
    9.0651  -17.5300   26.2099 O   0  0  0  0  0  0  0  0  0  0  0  0
   11.7423  -16.5930   23.0276 C   0  0  0  0  0  0  0  0  0  0  0  0
   11.0637  -16.7680   24.3913 C   0  0  2  0  0  0  0  0  0  0  0  0
    9.6347  -16.7231   24.1523 N   0  0  0  0  0  0  0  0  0  0  0  0
   11.5206  -15.7298   25.3161 C   0  0  0  0  0  0  0  0  0  0  0  0
   10.7537  -14.8229   25.7237 O   0  0  0  0  0  0  0  0  0  0  0  0
   12.8301  -15.7256   25.7686 O   0  0  0  0  0  0  0  0  0  0  0  0
  2  1  1  0
  3  2  1  0
  3  5  1  0
  3  4  1  1
  5  7  1  0
  5  6  1  6
  7  8  2  0
  9 10  1  0
  9  7  1  0
 10 11  1  1
 11 12  1  0
 12 20  1  0
 13 14  1  0
 13 12  2  0
 14 15  1  0
 15 20  2  0
 15 16  1  0
 16 17  2  0
 17 18  1  0
 19 18  2  0
 20 19  1  0
 21 10  1  0
 22 21  2  0
 24 23  1  6
 24 26  1  0
 24 25  1  0
 25 21  1  0
 26 28  1  0
 27 26  2  0
M  END
$$$$
