IWA.pdb
     RDKit          3D

 28 29  0  0  1  0  0  0  0  0999 V2000
    7.4895  -12.7287   18.0606 C   0  0  0  0  0  0  0  0  0  0  0  0
    7.2991  -13.9313   18.9350 C   0  0  0  0  0  0  0  0  0  0  0  0
    8.1118  -13.7885   20.2225 C   0  0  2  0  0  0  0  0  0  0  0  0
    9.5621  -13.6727   19.8038 C   0  0  0  0  0  0  0  0  0  0  0  0
    7.9889  -15.0617   21.0358 C   0  0  2  0  0  0  0  0  0  0  0  0
    6.5659  -15.2907   21.2029 N   0  0  0  0  0  0  0  0  0  0  0  0
    8.5812  -14.9051   22.3861 C   0  0  0  0  0  0  0  0  0  0  0  0
    8.7751  -13.7827   22.8719 O   0  0  0  0  0  0  0  0  0  0  0  0
    8.9470  -16.0590   23.1694 N   0  0  0  0  0  0  0  0  0  0  0  0
    9.7175  -15.9508   24.3743 C   0  0  1  0  0  0  0  0  0  0  0  0
    8.9404  -16.1764   25.6406 C   0  0  0  0  0  0  0  0  0  0  0  0
    7.7597  -15.3537   25.8235 C   0  0  0  0  0  0  0  0  0  0  0  0
    6.4439  -15.7462   25.6837 C   0  0  0  0  0  0  0  0  0  0  0  0
    5.6264  -14.7038   25.9155 N   0  0  0  0  0  0  0  0  0  0  0  0
    6.3645  -13.6213   26.2080 C   0  0  0  0  0  0  0  0  0  0  0  0
    5.9729  -12.3392   26.5185 C   0  0  0  0  0  0  0  0  0  0  0  0
    6.9600  -11.4147   26.7863 C   0  0  0  0  0  0  0  0  0  0  0  0
    8.3050  -11.7703   26.7431 C   0  0  0  0  0  0  0  0  0  0  0  0
    8.6409  -13.0574   26.4293 C   0  0  0  0  0  0  0  0  0  0  0  0
    7.7072  -14.0196   26.1530 C   0  0  0  0  0  0  0  0  0  0  0  0
   10.9298  -16.7912   24.2920 C   0  0  0  0  0  0  0  0  0  0  0  0
   10.7967  -17.9979   23.9683 O   0  0  0  0  0  0  0  0  0  0  0  0
   14.6066  -16.2276   24.2550 C   0  0  0  0  0  0  0  0  0  0  0  0
   13.4137  -17.1654   24.4750 C   0  0  2  0  0  0  0  0  0  0  0  0
   12.2349  -16.3254   24.5543 N   0  0  0  0  0  0  0  0  0  0  0  0
   13.6233  -17.9699   25.6794 C   0  0  0  0  0  0  0  0  0  0  0  0
   12.8990  -17.8390   26.6967 O   0  0  0  0  0  0  0  0  0  0  0  0
   14.6418  -18.9082   25.7232 O   0  0  0  0  0  0  0  0  0  0  0  0
  2  1  1  0
  3  2  1  0
  3  5  1  0
  3  4  1  6
  5  7  1  0
  5  6  1  1
  7  8  2  0
  9 10  1  0
  9  7  1  0
 10 11  1  1
 11 12  1  0
 12 20  1  0
 13 14  1  0
 13 12  2  0
 14 15  1  0
 15 20  2  0
 15 16  1  0
 16 17  2  0
 17 18  1  0
 19 18  2  0
 20 19  1  0
 21 10  1  0
 22 21  2  0
 24 23  1  1
 24 26  1  0
 24 25  1  0
 25 21  1  0
 26 28  1  0
 27 26  2  0
M  END
$$$$
