IWA.pdb
     RDKit          3D

 28 29  0  0  1  0  0  0  0  0999 V2000
    7.1662  -12.5448   18.3089 C   0  0  0  0  0  0  0  0  0  0  0  0
    7.0929  -13.8306   19.0760 C   0  0  0  0  0  0  0  0  0  0  0  0
    7.9397  -13.7425   20.3465 C   0  0  2  0  0  0  0  0  0  0  0  0
    9.3759  -13.5842   19.8946 C   0  0  0  0  0  0  0  0  0  0  0  0
    7.8564  -15.0576   21.0955 C   0  0  2  0  0  0  0  0  0  0  0  0
    6.4413  -15.3296   21.2649 N   0  0  0  0  0  0  0  0  0  0  0  0
    8.4597  -14.9545   22.4462 C   0  0  0  0  0  0  0  0  0  0  0  0
    8.5980  -13.8563   23.0015 O   0  0  0  0  0  0  0  0  0  0  0  0
    8.9014  -16.1336   23.1486 N   0  0  0  0  0  0  0  0  0  0  0  0
    9.7173  -16.0602   24.3259 C   0  0  1  0  0  0  0  0  0  0  0  0
    8.9908  -16.3313   25.6131 C   0  0  0  0  0  0  0  0  0  0  0  0
    7.8116  -15.5251   25.8660 C   0  0  0  0  0  0  0  0  0  0  0  0
    6.4963  -15.9408   25.8239 C   0  0  0  0  0  0  0  0  0  0  0  0
    5.6791  -14.9083   26.0971 N   0  0  0  0  0  0  0  0  0  0  0  0
    6.4170  -13.8096   26.3217 C   0  0  0  0  0  0  0  0  0  0  0  0
    6.0260  -12.5293   26.6403 C   0  0  0  0  0  0  0  0  0  0  0  0
    7.0133  -11.5850   26.8253 C   0  0  0  0  0  0  0  0  0  0  0  0
    8.3579  -11.9194   26.6936 C   0  0  0  0  0  0  0  0  0  0  0  0
    8.6933  -13.2057   26.3757 C   0  0  0  0  0  0  0  0  0  0  0  0
    7.7593  -14.1870   26.1791 C   0  0  0  0  0  0  0  0  0  0  0  0
   10.9294  -16.8903   24.1696 C   0  0  0  0  0  0  0  0  0  0  0  0
   10.7933  -18.0723   23.7658 O   0  0  0  0  0  0  0  0  0  0  0  0
   14.5920  -16.3012   24.0449 C   0  0  0  0  0  0  0  0  0  0  0  0
   13.4185  -17.2624   24.2677 C   0  0  2  0  0  0  0  0  0  0  0  0
   12.2375  -16.4407   24.4454 N   0  0  0  0  0  0  0  0  0  0  0  0
   13.6897  -18.1279   25.4162 C   0  0  0  0  0  0  0  0  0  0  0  0
   14.6504  -18.9364   25.4229 O   0  0  0  0  0  0  0  0  0  0  0  0
   12.8791  -18.0726   26.5384 O   0  0  0  0  0  0  0  0  0  0  0  0
  2  1  1  0
  3  2  1  0
  3  5  1  0
  3  4  1  6
  5  7  1  0
  5  6  1  1
  7  8  2  0
  9 10  1  0
  9  7  1  0
 10 11  1  1
 11 12  1  0
 12 20  1  0
 13 14  1  0
 13 12  2  0
 14 15  1  0
 15 20  2  0
 15 16  1  0
 16 17  2  0
 17 18  1  0
 19 18  2  0
 20 19  1  0
 21 10  1  0
 22 21  2  0
 24 23  1  1
 24 26  1  0
 24 25  1  0
 25 21  1  0
 26 28  1  0
 27 26  2  0
M  END
$$$$
