IWA.pdb
     RDKit          3D

 28 29  0  0  1  0  0  0  0  0999 V2000
    7.4261  -12.6030   18.0282 C   0  0  0  0  0  0  0  0  0  0  0  0
    7.2050  -13.8574   18.8186 C   0  0  0  0  0  0  0  0  0  0  0  0
    7.9625  -13.7921   20.1454 C   0  0  2  0  0  0  0  0  0  0  0  0
    9.4353  -13.7521   19.7971 C   0  0  0  0  0  0  0  0  0  0  0  0
    7.7281  -15.0743   20.9192 C   0  0  2  0  0  0  0  0  0  0  0  0
    6.2885  -15.2476   20.9742 N   0  0  0  0  0  0  0  0  0  0  0  0
    8.2221  -14.9676   22.3132 C   0  0  0  0  0  0  0  0  0  0  0  0
    8.1471  -13.9006   22.9372 O   0  0  0  0  0  0  0  0  0  0  0  0
    8.8037  -16.1066   22.9787 N   0  0  0  0  0  0  0  0  0  0  0  0
    9.5838  -15.9757   24.1752 C   0  0  1  0  0  0  0  0  0  0  0  0
    8.8427  -16.2812   25.4463 C   0  0  0  0  0  0  0  0  0  0  0  0
    7.6805  -15.4587   25.7244 C   0  0  0  0  0  0  0  0  0  0  0  0
    6.3557  -15.8352   25.6351 C   0  0  0  0  0  0  0  0  0  0  0  0
    5.5609  -14.7980   25.9529 N   0  0  0  0  0  0  0  0  0  0  0  0
    6.3230  -13.7346   26.2537 C   0  0  0  0  0  0  0  0  0  0  0  0
    5.9597  -12.4644   26.6387 C   0  0  0  0  0  0  0  0  0  0  0  0
    6.9678  -11.5596   26.8955 C   0  0  0  0  0  0  0  0  0  0  0  0
    8.3054  -11.9227   26.7685 C   0  0  0  0  0  0  0  0  0  0  0  0
    8.6129  -13.1974   26.3828 C   0  0  0  0  0  0  0  0  0  0  0  0
    7.6574  -14.1398   26.1133 C   0  0  0  0  0  0  0  0  0  0  0  0
   10.8473  -16.7321   24.0561 C   0  0  0  0  0  0  0  0  0  0  0  0
   10.7869  -17.9445   23.7318 O   0  0  0  0  0  0  0  0  0  0  0  0
   14.4913  -15.9066   24.0618 C   0  0  0  0  0  0  0  0  0  0  0  0
   13.3560  -16.9333   24.1511 C   0  0  2  0  0  0  0  0  0  0  0  0
   12.1248  -16.1796   24.2837 N   0  0  0  0  0  0  0  0  0  0  0  0
   13.5908  -17.8449   25.2717 C   0  0  0  0  0  0  0  0  0  0  0  0
   12.8706  -17.8281   26.3001 O   0  0  0  0  0  0  0  0  0  0  0  0
   14.6295  -18.7604   25.2206 O   0  0  0  0  0  0  0  0  0  0  0  0
  2  1  1  0
  3  2  1  0
  3  5  1  0
  3  4  1  6
  5  7  1  0
  5  6  1  1
  7  8  2  0
  9 10  1  0
  9  7  1  0
 10 11  1  1
 11 12  1  0
 12 20  1  0
 13 14  1  0
 13 12  2  0
 14 15  1  0
 15 20  2  0
 15 16  1  0
 16 17  2  0
 17 18  1  0
 19 18  2  0
 20 19  1  0
 21 10  1  0
 22 21  2  0
 24 23  1  1
 24 26  1  0
 24 25  1  0
 25 21  1  0
 26 28  1  0
 27 26  2  0
M  END
$$$$
