IWA.pdb
     RDKit          3D

 28 29  0  0  1  0  0  0  0  0999 V2000
    7.0483  -12.2682   18.8583 C   0  0  0  0  0  0  0  0  0  0  0  0
    7.2451  -13.6743   19.3393 C   0  0  0  0  0  0  0  0  0  0  0  0
    8.2298  -13.7049   20.5090 C   0  0  2  0  0  0  0  0  0  0  0  0
    9.5337  -13.1396   19.9869 C   0  0  0  0  0  0  0  0  0  0  0  0
    8.4991  -15.1446   20.8989 C   0  0  2  0  0  0  0  0  0  0  0  0
    7.1969  -15.7705   21.0320 N   0  0  0  0  0  0  0  0  0  0  0  0
    9.1784  -15.2351   22.2138 C   0  0  0  0  0  0  0  0  0  0  0  0
   10.0389  -14.4088   22.5461 O   0  0  0  0  0  0  0  0  0  0  0  0
    8.8532  -16.2903   23.1409 N   0  0  0  0  0  0  0  0  0  0  0  0
    9.4969  -16.4107   24.4171 C   0  0  1  0  0  0  0  0  0  0  0  0
    8.5602  -16.5559   25.5832 C   0  0  0  0  0  0  0  0  0  0  0  0
    7.5222  -15.5494   25.7009 C   0  0  0  0  0  0  0  0  0  0  0  0
    6.1659  -15.7297   25.5200 C   0  0  0  0  0  0  0  0  0  0  0  0
    5.5198  -14.5633   25.6953 N   0  0  0  0  0  0  0  0  0  0  0  0
    6.4125  -13.6050   25.9902 C   0  0  0  0  0  0  0  0  0  0  0  0
    6.2226  -12.2681   26.2550 C   0  0  0  0  0  0  0  0  0  0  0  0
    7.3363  -11.5064   26.5386 C   0  0  0  0  0  0  0  0  0  0  0  0
    8.6068  -12.0743   26.5556 C   0  0  0  0  0  0  0  0  0  0  0  0
    8.7412  -13.4073   26.2855 C   0  0  0  0  0  0  0  0  0  0  0  0
    7.6745  -14.2150   25.9965 C   0  0  0  0  0  0  0  0  0  0  0  0
   10.5289  -17.4673   24.3798 C   0  0  0  0  0  0  0  0  0  0  0  0
   10.2040  -18.6294   24.7299 O   0  0  0  0  0  0  0  0  0  0  0  0
   14.0860  -17.7585   23.2461 C   0  0  0  0  0  0  0  0  0  0  0  0
   12.8955  -18.2698   24.0659 C   0  0  2  0  0  0  0  0  0  0  0  0
   11.8632  -17.2561   23.9746 N   0  0  0  0  0  0  0  0  0  0  0  0
   13.3124  -18.5374   25.4430 C   0  0  0  0  0  0  0  0  0  0  0  0
   14.1322  -19.4470   25.7210 O   0  0  0  0  0  0  0  0  0  0  0  0
   12.8030  -17.7807   26.4858 O   0  0  0  0  0  0  0  0  0  0  0  0
  2  1  1  0
  3  2  1  0
  3  5  1  0
  3  4  1  6
  5  7  1  0
  5  6  1  1
  7  8  2  0
  9 10  1  0
  9  7  1  0
 10 11  1  1
 11 12  1  0
 12 20  1  0
 13 14  1  0
 13 12  2  0
 14 15  1  0
 15 20  2  0
 15 16  1  0
 16 17  2  0
 17 18  1  0
 19 18  2  0
 20 19  1  0
 21 10  1  0
 22 21  2  0
 24 23  1  6
 24 26  1  0
 24 25  1  0
 25 21  1  0
 26 28  1  0
 27 26  2  0
M  END
$$$$
