IWA.pdb
     RDKit          3D

 28 29  0  0  1  0  0  0  0  0999 V2000
    7.4439  -12.6619   18.1385 C   0  0  0  0  0  0  0  0  0  0  0  0
    7.1418  -13.8351   19.0214 C   0  0  0  0  0  0  0  0  0  0  0  0
    7.9798  -13.7708   20.2990 C   0  0  2  0  0  0  0  0  0  0  0  0
    9.4288  -13.7478   19.8609 C   0  0  0  0  0  0  0  0  0  0  0  0
    7.7804  -15.0463   21.0932 C   0  0  2  0  0  0  0  0  0  0  0  0
    6.3463  -15.1904   21.2601 N   0  0  0  0  0  0  0  0  0  0  0  0
    8.3829  -14.9468   22.4444 C   0  0  0  0  0  0  0  0  0  0  0  0
    8.4417  -13.8621   23.0389 O   0  0  0  0  0  0  0  0  0  0  0  0
    8.9168  -16.1137   23.1016 N   0  0  0  0  0  0  0  0  0  0  0  0
    9.7244  -16.0220   24.2835 C   0  0  1  0  0  0  0  0  0  0  0  0
    9.0143  -16.3752   25.5599 C   0  0  0  0  0  0  0  0  0  0  0  0
    7.8226  -15.6063   25.8646 C   0  0  0  0  0  0  0  0  0  0  0  0
    6.5164  -16.0509   25.8329 C   0  0  0  0  0  0  0  0  0  0  0  0
    5.6817  -15.0482   26.1591 N   0  0  0  0  0  0  0  0  0  0  0  0
    6.3989  -13.9413   26.4093 C   0  0  0  0  0  0  0  0  0  0  0  0
    5.9854  -12.6828   26.7816 C   0  0  0  0  0  0  0  0  0  0  0  0
    6.9547  -11.7229   26.9817 C   0  0  0  0  0  0  0  0  0  0  0  0
    8.3036  -12.0209   26.8120 C   0  0  0  0  0  0  0  0  0  0  0  0
    8.6616  -13.2868   26.4411 C   0  0  0  0  0  0  0  0  0  0  0  0
    7.7463  -14.2819   26.2271 C   0  0  0  0  0  0  0  0  0  0  0  0
   10.9871  -16.7686   24.1081 C   0  0  0  0  0  0  0  0  0  0  0  0
   10.9219  -17.9999   23.8664 O   0  0  0  0  0  0  0  0  0  0  0  0
   14.5718  -15.9242   23.6013 C   0  0  0  0  0  0  0  0  0  0  0  0
   13.4988  -16.9349   24.0231 C   0  0  2  0  0  0  0  0  0  0  0  0
   12.2690  -16.1868   24.1945 N   0  0  0  0  0  0  0  0  0  0  0  0
   13.9169  -17.6323   25.2400 C   0  0  0  0  0  0  0  0  0  0  0  0
   14.9627  -18.3262   25.2785 O   0  0  0  0  0  0  0  0  0  0  0  0
   13.1553  -17.5401   26.3937 O   0  0  0  0  0  0  0  0  0  0  0  0
  2  1  1  0
  3  2  1  0
  3  5  1  0
  3  4  1  6
  5  7  1  0
  5  6  1  1
  7  8  2  0
  9 10  1  0
  9  7  1  0
 10 11  1  1
 11 12  1  0
 12 20  1  0
 13 14  1  0
 13 12  2  0
 14 15  1  0
 15 20  2  0
 15 16  1  0
 16 17  2  0
 17 18  1  0
 19 18  2  0
 20 19  1  0
 21 10  1  0
 22 21  2  0
 24 23  1  1
 24 26  1  0
 24 25  1  0
 25 21  1  0
 26 28  1  0
 27 26  2  0
M  END
$$$$
