IWA.pdb
     RDKit          3D

 28 29  0  0  1  0  0  0  0  0999 V2000
    8.0870  -13.6971   17.1133 C   0  0  0  0  0  0  0  0  0  0  0  0
    7.3338  -14.3165   18.2517 C   0  0  0  0  0  0  0  0  0  0  0  0
    8.1403  -14.2080   19.5465 C   0  0  2  0  0  0  0  0  0  0  0  0
    9.4609  -14.9021   19.2888 C   0  0  0  0  0  0  0  0  0  0  0  0
    7.4389  -14.9889   20.6400 C   0  0  2  0  0  0  0  0  0  0  0  0
    6.1351  -14.3714   20.7955 N   0  0  0  0  0  0  0  0  0  0  0  0
    8.1500  -14.8711   21.9358 C   0  0  0  0  0  0  0  0  0  0  0  0
    8.4290  -13.7627   22.4124 O   0  0  0  0  0  0  0  0  0  0  0  0
    8.5356  -16.0472   22.6751 N   0  0  0  0  0  0  0  0  0  0  0  0
    9.3599  -15.9764   23.8468 C   0  0  1  0  0  0  0  0  0  0  0  0
    8.6408  -16.2423   25.1392 C   0  0  0  0  0  0  0  0  0  0  0  0
    7.5644  -15.3292   25.4738 C   0  0  0  0  0  0  0  0  0  0  0  0
    6.2110  -15.5986   25.4565 C   0  0  0  0  0  0  0  0  0  0  0  0
    5.5194  -14.5008   25.8101 N   0  0  0  0  0  0  0  0  0  0  0  0
    6.3788  -13.5014   26.0646 C   0  0  0  0  0  0  0  0  0  0  0  0
    6.1390  -12.2057   26.4613 C   0  0  0  0  0  0  0  0  0  0  0  0
    7.2284  -11.3842   26.6596 C   0  0  0  0  0  0  0  0  0  0  0  0
    8.5241  -11.8533   26.4642 C   0  0  0  0  0  0  0  0  0  0  0  0
    8.7080  -13.1490   26.0697 C   0  0  0  0  0  0  0  0  0  0  0  0
    7.6673  -14.0122   25.8562 C   0  0  0  0  0  0  0  0  0  0  0  0
   10.5667  -16.8128   23.6832 C   0  0  0  0  0  0  0  0  0  0  0  0
   10.4155  -18.0244   23.3867 O   0  0  0  0  0  0  0  0  0  0  0  0
   14.1923  -16.2706   23.2073 C   0  0  0  0  0  0  0  0  0  0  0  0
   13.0586  -17.1783   23.6990 C   0  0  2  0  0  0  0  0  0  0  0  0
   11.8856  -16.3381   23.8389 N   0  0  0  0  0  0  0  0  0  0  0  0
   13.4455  -17.8313   24.9503 C   0  0  0  0  0  0  0  0  0  0  0  0
   12.8069  -17.6497   26.0161 O   0  0  0  0  0  0  0  0  0  0  0  0
   14.5422  -18.6771   24.9859 O   0  0  0  0  0  0  0  0  0  0  0  0
  2  1  1  0
  3  2  1  0
  3  5  1  0
  3  4  1  6
  5  7  1  0
  5  6  1  1
  7  8  2  0
  9 10  1  0
  9  7  1  0
 10 11  1  1
 11 12  1  0
 12 20  1  0
 13 14  1  0
 13 12  2  0
 14 15  1  0
 15 20  2  0
 15 16  1  0
 16 17  2  0
 17 18  1  0
 19 18  2  0
 20 19  1  0
 21 10  1  0
 22 21  2  0
 24 23  1  1
 24 26  1  0
 24 25  1  0
 25 21  1  0
 26 28  1  0
 27 26  2  0
M  END
$$$$
