IWA.pdb
     RDKit          3D

 28 29  0  0  1  0  0  0  0  0999 V2000
    7.0257  -12.7319   18.6230 C   0  0  0  0  0  0  0  0  0  0  0  0
    7.3875  -14.1226   19.0499 C   0  0  0  0  0  0  0  0  0  0  0  0
    8.1695  -14.0906   20.3637 C   0  0  2  0  0  0  0  0  0  0  0  0
    9.4322  -13.3008   20.0922 C   0  0  0  0  0  0  0  0  0  0  0  0
    8.6001  -15.4985   20.7243 C   0  0  2  0  0  0  0  0  0  0  0  0
    7.3773  -16.2714   20.8373 N   0  0  0  0  0  0  0  0  0  0  0  0
    9.2817  -15.5397   22.0405 C   0  0  0  0  0  0  0  0  0  0  0  0
   10.3822  -14.9966   22.2068 O   0  0  0  0  0  0  0  0  0  0  0  0
    8.6787  -16.2149   23.1625 N   0  0  0  0  0  0  0  0  0  0  0  0
    9.3174  -16.2846   24.4449 C   0  0  1  0  0  0  0  0  0  0  0  0
    8.3782  -16.4333   25.6085 C   0  0  0  0  0  0  0  0  0  0  0  0
    7.3267  -15.4396   25.7149 C   0  0  0  0  0  0  0  0  0  0  0  0
    5.9836  -15.6201   25.4535 C   0  0  0  0  0  0  0  0  0  0  0  0
    5.3192  -14.4668   25.6455 N   0  0  0  0  0  0  0  0  0  0  0  0
    6.1865  -13.5171   26.0303 C   0  0  0  0  0  0  0  0  0  0  0  0
    5.9712  -12.1946   26.3436 C   0  0  0  0  0  0  0  0  0  0  0  0
    7.0615  -11.4395   26.7203 C   0  0  0  0  0  0  0  0  0  0  0  0
    8.3342  -11.9996   26.7803 C   0  0  0  0  0  0  0  0  0  0  0  0
    8.4943  -13.3184   26.4589 C   0  0  0  0  0  0  0  0  0  0  0  0
    7.4515  -14.1189   26.0773 C   0  0  0  0  0  0  0  0  0  0  0  0
   10.3836  -17.3073   24.4385 C   0  0  0  0  0  0  0  0  0  0  0  0
   10.0602  -18.5030   24.2279 O   0  0  0  0  0  0  0  0  0  0  0  0
   14.0937  -17.2966   24.2606 C   0  0  0  0  0  0  0  0  0  0  0  0
   12.7902  -18.0348   24.5877 C   0  0  2  0  0  0  0  0  0  0  0  0
   11.7491  -17.0282   24.6543 N   0  0  0  0  0  0  0  0  0  0  0  0
   12.9384  -18.7862   25.8348 C   0  0  0  0  0  0  0  0  0  0  0  0
   13.7415  -19.7459   25.9374 O   0  0  0  0  0  0  0  0  0  0  0  0
   12.1832  -18.4490   26.9464 O   0  0  0  0  0  0  0  0  0  0  0  0
  2  1  1  0
  3  2  1  0
  3  5  1  0
  3  4  1  6
  5  7  1  0
  5  6  1  1
  7  8  2  0
  9 10  1  0
  9  7  1  0
 10 11  1  1
 11 12  1  0
 12 20  1  0
 13 14  1  0
 13 12  2  0
 14 15  1  0
 15 20  2  0
 15 16  1  0
 16 17  2  0
 17 18  1  0
 19 18  2  0
 20 19  1  0
 21 10  1  0
 22 21  2  0
 24 23  1  1
 24 26  1  0
 24 25  1  0
 25 21  1  0
 26 28  1  0
 27 26  2  0
M  END
$$$$
