LYN.pdb
     RDKit          3D

 29 29  0  0  1  0  0  0  0  0999 V2000
    9.0158  -14.6658   18.4677 C   0  0  0  0  0  0  0  0  0  0  0  0
    7.9732  -13.9028   19.2597 C   0  0  2  0  0  0  0  0  0  0  0  0
    7.4977  -12.6667   18.5706 C   0  0  0  0  0  0  0  0  0  0  0  0
    8.5752  -13.6325   20.6266 C   0  0  0  0  0  0  0  0  0  0  0  0
    8.8520  -14.9823   21.2506 C   0  0  2  0  0  0  0  0  0  0  0  0
    7.7319  -15.8428   20.8681 N   0  0  0  0  0  0  0  0  0  0  0  0
    8.9910  -14.9245   22.7067 C   0  0  0  0  0  0  0  0  0  0  0  0
    9.8832  -14.1979   23.2050 O   0  0  0  0  0  0  0  0  0  0  0  0
    6.2212   -9.7751   27.2191 O   0  0  0  0  0  0  0  0  0  0  0  0
    6.3876  -11.0819   26.7851 C   0  0  0  0  0  0  0  0  0  0  0  0
    7.1281  -11.3635   25.6520 C   0  0  0  0  0  0  0  0  0  0  0  0
    7.2758  -12.6733   25.2452 C   0  0  0  0  0  0  0  0  0  0  0  0
    6.7233  -13.7338   25.9075 C   0  0  0  0  0  0  0  0  0  0  0  0
    6.8647  -15.1140   25.4976 C   0  0  0  0  0  0  0  0  0  0  0  0
    8.1748  -15.5850   24.9991 C   0  0  2  0  0  0  0  0  0  0  0  0
    8.1218  -15.6847   23.5196 N   0  0  0  0  0  0  0  0  0  0  0  0
    8.6878  -16.8749   25.4690 C   0  0  0  0  0  0  0  0  0  0  0  0
    8.8150  -17.1141   26.7321 O   0  0  0  0  0  0  0  0  0  0  0  0
    5.9779  -13.4228   27.0521 C   0  0  0  0  0  0  0  0  0  0  0  0
    5.8113  -12.1309   27.4843 C   0  0  0  0  0  0  0  0  0  0  0  0
    6.4945  -20.1344   23.6652 N   0  0  0  0  0  0  0  0  0  0  0  0
    7.3454  -20.1492   24.8124 C   0  0  0  0  0  0  0  0  0  0  0  0
    6.7994  -20.0015   25.9126 O   0  0  0  0  0  0  0  0  0  0  0  0
    8.7918  -20.3326   24.6615 C   0  0  0  0  0  0  0  0  0  0  0  0
    9.6116  -19.2067   25.2137 C   0  0  2  0  0  0  0  0  0  0  0  0
    9.0779  -17.9613   24.6441 N   0  0  0  0  0  0  0  0  0  0  0  0
   11.0531  -19.3103   25.0085 C   0  0  0  0  0  0  0  0  0  0  0  0
   11.7812  -18.4427   24.4355 O   0  0  0  0  0  0  0  0  0  0  0  0
   11.7166  -20.4507   25.4721 O   0  0  0  0  0  0  0  0  0  0  0  0
  2  1  1  6
  2  3  1  0
  2  4  1  0
  5  4  1  0
  5  7  1  0
  5  6  1  1
  7  8  2  0
  9 10  1  0
 10 11  2  0
 10 20  1  0
 11 12  1  0
 12 13  2  0
 13 14  1  0
 15 14  1  1
 15 17  1  0
 16 15  1  0
 16  7  1  0
 17 18  2  0
 17 26  1  0
 19 13  1  0
 20 19  2  0
 21 22  1  0
 22 24  1  0
 23 22  2  0
 25 24  1  6
 25 27  1  0
 26 25  1  0
 27 28  2  0
 27 29  1  0
M  END
$$$$
