LYN.pdb
     RDKit          3D

 29 29  0  0  1  0  0  0  0  0999 V2000
    7.3582  -12.8721   17.6521 C   0  0  0  0  0  0  0  0  0  0  0  0
    7.2084  -13.6971   18.9143 C   0  0  2  0  0  0  0  0  0  0  0  0
    6.1177  -13.2108   19.8103 C   0  0  0  0  0  0  0  0  0  0  0  0
    8.5697  -13.7189   19.5855 C   0  0  0  0  0  0  0  0  0  0  0  0
    8.6072  -14.9634   20.4445 C   0  0  2  0  0  0  0  0  0  0  0  0
    7.2118  -15.3096   20.7173 N   0  0  0  0  0  0  0  0  0  0  0  0
    9.3515  -14.7787   21.6913 C   0  0  0  0  0  0  0  0  0  0  0  0
   10.4903  -14.2556   21.6491 O   0  0  0  0  0  0  0  0  0  0  0  0
   10.5916  -15.1438   30.5878 O   0  0  0  0  0  0  0  0  0  0  0  0
   10.1026  -15.0848   29.2912 C   0  0  0  0  0  0  0  0  0  0  0  0
    9.8757  -13.8686   28.6740 C   0  0  0  0  0  0  0  0  0  0  0  0
    9.3889  -13.8420   27.3836 C   0  0  0  0  0  0  0  0  0  0  0  0
    9.1106  -14.9685   26.6611 C   0  0  0  0  0  0  0  0  0  0  0  0
    8.5986  -14.9630   25.3079 C   0  0  0  0  0  0  0  0  0  0  0  0
    9.5430  -15.1244   24.1816 C   0  0  2  0  0  0  0  0  0  0  0  0
    8.7759  -15.1910   22.9132 N   0  0  0  0  0  0  0  0  0  0  0  0
   10.4374  -16.2853   24.1697 C   0  0  0  0  0  0  0  0  0  0  0  0
   10.0152  -17.4399   23.7728 O   0  0  0  0  0  0  0  0  0  0  0  0
    9.3487  -16.1880   27.3079 C   0  0  0  0  0  0  0  0  0  0  0  0
    9.8325  -16.2500   28.5908 C   0  0  0  0  0  0  0  0  0  0  0  0
   14.5283  -19.5436   24.2685 N   0  0  0  0  0  0  0  0  0  0  0  0
   14.8653  -18.2543   23.7542 C   0  0  0  0  0  0  0  0  0  0  0  0
   15.9752  -18.1408   23.2195 O   0  0  0  0  0  0  0  0  0  0  0  0
   13.9212  -17.1391   23.8691 C   0  0  0  0  0  0  0  0  0  0  0  0
   12.6173  -17.5055   24.5095 C   0  0  2  0  0  0  0  0  0  0  0  0
   11.8010  -16.2843   24.5615 N   0  0  0  0  0  0  0  0  0  0  0  0
   12.7096  -18.1396   25.8211 C   0  0  0  0  0  0  0  0  0  0  0  0
   12.8094  -19.3872   26.0323 O   0  0  0  0  0  0  0  0  0  0  0  0
   12.6895  -17.3294   26.9608 O   0  0  0  0  0  0  0  0  0  0  0  0
  2  1  1  6
  2  3  1  0
  2  4  1  0
  5  4  1  0
  5  7  1  0
  5  6  1  1
  7  8  2  0
  9 10  1  0
 10 11  2  0
 10 20  1  0
 11 12  1  0
 12 13  2  0
 13 14  1  0
 15 14  1  1
 15 17  1  0
 16 15  1  0
 16  7  1  0
 17 18  2  0
 17 26  1  0
 19 13  1  0
 20 19  2  0
 21 22  1  0
 22 24  1  0
 23 22  2  0
 25 24  1  1
 25 27  1  0
 26 25  1  0
 27 28  2  0
 27 29  1  0
M  END
$$$$
