LYN.pdb
     RDKit          3D

 29 29  0  0  1  0  0  0  0  0999 V2000
    8.4510  -13.8221   15.5426 C   0  0  0  0  0  0  0  0  0  0  0  0
    8.3194  -14.8945   16.6050 C   0  0  2  0  0  0  0  0  0  0  0  0
    6.9642  -15.5195   16.6469 C   0  0  0  0  0  0  0  0  0  0  0  0
    8.7258  -14.2570   17.9213 C   0  0  0  0  0  0  0  0  0  0  0  0
    9.0005  -15.3914   18.8834 C   0  0  2  0  0  0  0  0  0  0  0  0
    7.8312  -16.2690   18.8193 N   0  0  0  0  0  0  0  0  0  0  0  0
    9.2366  -14.9372   20.2547 C   0  0  0  0  0  0  0  0  0  0  0  0
   10.3375  -14.4094   20.5405 O   0  0  0  0  0  0  0  0  0  0  0  0
    7.0438  -12.4730   28.5822 O   0  0  0  0  0  0  0  0  0  0  0  0
    7.0807  -12.9305   27.2734 C   0  0  0  0  0  0  0  0  0  0  0  0
    7.6715  -12.1774   26.2757 C   0  0  0  0  0  0  0  0  0  0  0  0
    7.6927  -12.6589   24.9832 C   0  0  0  0  0  0  0  0  0  0  0  0
    7.1539  -13.8613   24.6194 C   0  0  0  0  0  0  0  0  0  0  0  0
    7.1641  -14.3843   23.2705 C   0  0  0  0  0  0  0  0  0  0  0  0
    8.4579  -14.7312   22.6440 C   0  0  2  0  0  0  0  0  0  0  0  0
    8.2248  -15.1012   21.2262 N   0  0  0  0  0  0  0  0  0  0  0  0
    9.2509  -15.8222   23.2172 C   0  0  0  0  0  0  0  0  0  0  0  0
    9.8612  -16.6665   22.4533 O   0  0  0  0  0  0  0  0  0  0  0  0
    6.5613  -14.6057   25.6476 C   0  0  0  0  0  0  0  0  0  0  0  0
    6.5231  -14.1560   26.9437 C   0  0  0  0  0  0  0  0  0  0  0  0
   12.9312  -18.9226   24.3429 N   0  0  0  0  0  0  0  0  0  0  0  0
   12.8742  -17.5324   24.6663 C   0  0  0  0  0  0  0  0  0  0  0  0
   13.8387  -17.0644   25.2838 O   0  0  0  0  0  0  0  0  0  0  0  0
   11.7160  -16.7252   24.2722 C   0  0  0  0  0  0  0  0  0  0  0  0
   10.4833  -16.9888   25.0818 C   0  0  2  0  0  0  0  0  0  0  0  0
    9.4434  -16.0678   24.6012 N   0  0  0  0  0  0  0  0  0  0  0  0
   10.6434  -16.9007   26.5300 C   0  0  0  0  0  0  0  0  0  0  0  0
   10.2012  -15.9657   27.2659 O   0  0  0  0  0  0  0  0  0  0  0  0
   11.3382  -17.9183   27.1913 O   0  0  0  0  0  0  0  0  0  0  0  0
  2  1  1  6
  2  3  1  0
  2  4  1  0
  5  4  1  0
  5  7  1  0
  5  6  1  1
  7  8  2  0
  9 10  1  0
 10 11  2  0
 10 20  1  0
 11 12  1  0
 12 13  2  0
 13 14  1  0
 15 14  1  1
 15 17  1  0
 16 15  1  0
 16  7  1  0
 17 18  2  0
 17 26  1  0
 19 13  1  0
 20 19  2  0
 21 22  1  0
 22 24  1  0
 23 22  2  0
 25 24  1  6
 25 27  1  0
 26 25  1  0
 27 28  2  0
 27 29  1  0
M  END
$$$$
