LYN.pdb
     RDKit          3D

 29 29  0  0  1  0  0  0  0  0999 V2000
    9.1507  -13.9661   18.8255 C   0  0  0  0  0  0  0  0  0  0  0  0
    7.8706  -13.5845   19.5410 C   0  0  2  0  0  0  0  0  0  0  0  0
    7.2816  -12.3027   19.0521 C   0  0  0  0  0  0  0  0  0  0  0  0
    8.1880  -13.5699   21.0253 C   0  0  0  0  0  0  0  0  0  0  0  0
    8.8048  -14.9129   21.3477 C   0  0  2  0  0  0  0  0  0  0  0  0
    7.7379  -15.9000   21.1780 N   0  0  0  0  0  0  0  0  0  0  0  0
    9.3652  -14.9784   22.6984 C   0  0  0  0  0  0  0  0  0  0  0  0
   10.3250  -14.2287   22.9966 O   0  0  0  0  0  0  0  0  0  0  0  0
    6.0260  -10.5980   26.7879 O   0  0  0  0  0  0  0  0  0  0  0  0
    6.5289  -11.8738   26.5799 C   0  0  0  0  0  0  0  0  0  0  0  0
    5.6796  -12.9521   26.4142 C   0  0  0  0  0  0  0  0  0  0  0  0
    6.2096  -14.2091   26.2090 C   0  0  0  0  0  0  0  0  0  0  0  0
    7.5522  -14.4603   26.1583 C   0  0  0  0  0  0  0  0  0  0  0  0
    8.1288  -15.7701   25.9456 C   0  0  0  0  0  0  0  0  0  0  0  0
    9.2915  -15.9054   25.0420 C   0  0  2  0  0  0  0  0  0  0  0  0
    8.8170  -15.8806   23.6364 N   0  0  0  0  0  0  0  0  0  0  0  0
   10.1413  -17.0938   25.1566 C   0  0  0  0  0  0  0  0  0  0  0  0
   10.3884  -17.6199   26.3104 O   0  0  0  0  0  0  0  0  0  0  0  0
    8.3919  -13.3521   26.3288 C   0  0  0  0  0  0  0  0  0  0  0  0
    7.8976  -12.0884   26.5348 C   0  0  0  0  0  0  0  0  0  0  0  0
    9.5105  -19.8219   21.5489 N   0  0  0  0  0  0  0  0  0  0  0  0
   10.0484  -20.1548   22.8296 C   0  0  0  0  0  0  0  0  0  0  0  0
    9.2767  -20.6884   23.6360 O   0  0  0  0  0  0  0  0  0  0  0  0
   11.4505  -19.8658   23.1439 C   0  0  0  0  0  0  0  0  0  0  0  0
   11.6379  -18.9339   24.3020 C   0  0  2  0  0  0  0  0  0  0  0  0
   10.7558  -17.7799   24.0775 N   0  0  0  0  0  0  0  0  0  0  0  0
   13.0108  -18.5112   24.5616 C   0  0  0  0  0  0  0  0  0  0  0  0
   13.9746  -19.2793   24.8652 O   0  0  0  0  0  0  0  0  0  0  0  0
   13.3213  -17.1503   24.4756 O   0  0  0  0  0  0  0  0  0  0  0  0
  2  1  1  6
  2  3  1  0
  2  4  1  0
  5  4  1  0
  5  7  1  0
  5  6  1  1
  7  8  2  0
  9 10  1  0
 10 11  2  0
 10 20  1  0
 11 12  1  0
 12 13  2  0
 13 14  1  0
 15 14  1  1
 15 17  1  0
 16 15  1  0
 16  7  1  0
 17 18  2  0
 17 26  1  0
 19 13  1  0
 20 19  2  0
 21 22  1  0
 22 24  1  0
 23 22  2  0
 25 24  1  6
 25 27  1  0
 26 25  1  0
 27 28  2  0
 27 29  1  0
M  END
$$$$
