LYN.pdb
     RDKit          3D

 29 29  0  0  1  0  0  0  0  0999 V2000
    7.5835  -13.6887   18.0562 C   0  0  0  0  0  0  0  0  0  0  0  0
    7.5651  -13.3925   19.5422 C   0  0  2  0  0  0  0  0  0  0  0  0
    7.0898  -12.0140   19.8626 C   0  0  0  0  0  0  0  0  0  0  0  0
    8.9620  -13.6801   20.0619 C   0  0  0  0  0  0  0  0  0  0  0  0
    8.9023  -15.0347   20.7324 C   0  0  2  0  0  0  0  0  0  0  0  0
    7.4851  -15.3021   20.9799 N   0  0  0  0  0  0  0  0  0  0  0  0
    9.6690  -15.0934   21.9780 C   0  0  0  0  0  0  0  0  0  0  0  0
   10.8959  -14.8364   21.9507 O   0  0  0  0  0  0  0  0  0  0  0  0
   10.7936  -15.4363   30.8690 O   0  0  0  0  0  0  0  0  0  0  0  0
   10.3206  -15.3531   29.5678 C   0  0  0  0  0  0  0  0  0  0  0  0
   10.2706  -14.1390   28.9082 C   0  0  0  0  0  0  0  0  0  0  0  0
    9.7951  -14.0879   27.6142 C   0  0  0  0  0  0  0  0  0  0  0  0
    9.3606  -15.1876   26.9284 C   0  0  0  0  0  0  0  0  0  0  0  0
    8.8573  -15.1561   25.5724 C   0  0  0  0  0  0  0  0  0  0  0  0
    9.7625  -15.5204   24.4612 C   0  0  2  0  0  0  0  0  0  0  0  0
    9.0156  -15.4369   23.1819 N   0  0  0  0  0  0  0  0  0  0  0  0
   10.3956  -16.8420   24.4695 C   0  0  0  0  0  0  0  0  0  0  0  0
    9.9358  -17.7988   23.7332 O   0  0  0  0  0  0  0  0  0  0  0  0
    9.4212  -16.4056   27.6178 C   0  0  0  0  0  0  0  0  0  0  0  0
    9.8886  -16.4915   28.9054 C   0  0  0  0  0  0  0  0  0  0  0  0
   13.0150  -21.0842   23.8683 N   0  0  0  0  0  0  0  0  0  0  0  0
   13.5003  -19.8143   23.4298 C   0  0  0  0  0  0  0  0  0  0  0  0
   14.5758  -19.8102   22.8181 O   0  0  0  0  0  0  0  0  0  0  0  0
   12.7388  -18.5928   23.7059 C   0  0  0  0  0  0  0  0  0  0  0  0
   12.1627  -18.5307   25.0875 C   0  0  2  0  0  0  0  0  0  0  0  0
   11.5311  -17.2118   25.2354 N   0  0  0  0  0  0  0  0  0  0  0  0
   13.0958  -18.7986   26.1776 C   0  0  0  0  0  0  0  0  0  0  0  0
   13.9289  -17.9693   26.6566 O   0  0  0  0  0  0  0  0  0  0  0  0
   13.0951  -20.0679   26.7646 O   0  0  0  0  0  0  0  0  0  0  0  0
  2  1  1  6
  2  3  1  0
  2  4  1  0
  5  4  1  0
  5  7  1  0
  5  6  1  1
  7  8  2  0
  9 10  1  0
 10 11  2  0
 10 20  1  0
 11 12  1  0
 12 13  2  0
 13 14  1  0
 15 14  1  1
 15 17  1  0
 16 15  1  0
 16  7  1  0
 17 18  2  0
 17 26  1  0
 19 13  1  0
 20 19  2  0
 21 22  1  0
 22 24  1  0
 23 22  2  0
 25 24  1  6
 25 27  1  0
 26 25  1  0
 27 28  2  0
 27 29  1  0
M  END
$$$$
