LYN.pdb
     RDKit          3D

 29 29  0  0  1  0  0  0  0  0999 V2000
    7.7395  -11.9907   19.8656 C   0  0  0  0  0  0  0  0  0  0  0  0
    8.0200  -13.4209   19.4509 C   0  0  2  0  0  0  0  0  0  0  0  0
    7.7945  -13.6678   17.9959 C   0  0  0  0  0  0  0  0  0  0  0  0
    7.1754  -14.3086   20.3468 C   0  0  0  0  0  0  0  0  0  0  0  0
    8.0711  -15.4397   20.8013 C   0  0  2  0  0  0  0  0  0  0  0  0
    7.1840  -16.5653   21.0968 N   0  0  0  0  0  0  0  0  0  0  0  0
    8.8831  -15.0955   21.9697 C   0  0  0  0  0  0  0  0  0  0  0  0
    9.8437  -14.3016   21.8314 O   0  0  0  0  0  0  0  0  0  0  0  0
   10.8508  -14.8000   30.7231 O   0  0  0  0  0  0  0  0  0  0  0  0
   10.2803  -14.9059   29.4632 C   0  0  0  0  0  0  0  0  0  0  0  0
    9.8934  -16.1347   28.9614 C   0  0  0  0  0  0  0  0  0  0  0  0
    9.3288  -16.2082   27.7049 C   0  0  0  0  0  0  0  0  0  0  0  0
    9.1234  -15.1172   26.9074 C   0  0  0  0  0  0  0  0  0  0  0  0
    8.5345  -15.1722   25.5871 C   0  0  0  0  0  0  0  0  0  0  0  0
    9.4122  -15.3908   24.4172 C   0  0  2  0  0  0  0  0  0  0  0  0
    8.5708  -15.6613   23.2254 N   0  0  0  0  0  0  0  0  0  0  0  0
   10.3978  -16.4743   24.4656 C   0  0  0  0  0  0  0  0  0  0  0  0
   10.0326  -17.7056   24.3262 O   0  0  0  0  0  0  0  0  0  0  0  0
    9.5235  -13.8839   27.4379 C   0  0  0  0  0  0  0  0  0  0  0  0
   10.0883  -13.7757   28.6841 C   0  0  0  0  0  0  0  0  0  0  0  0
   13.2948  -17.1108   21.8003 N   0  0  0  0  0  0  0  0  0  0  0  0
   14.0194  -16.4481   22.8378 C   0  0  0  0  0  0  0  0  0  0  0  0
   14.6141  -15.4091   22.5255 O   0  0  0  0  0  0  0  0  0  0  0  0
   14.0388  -16.9966   24.1968 C   0  0  0  0  0  0  0  0  0  0  0  0
   12.7036  -17.4702   24.6841 C   0  0  2  0  0  0  0  0  0  0  0  0
   11.7952  -16.3151   24.6518 N   0  0  0  0  0  0  0  0  0  0  0  0
   12.6973  -18.1151   25.9936 C   0  0  0  0  0  0  0  0  0  0  0  0
   12.6430  -19.3664   26.1998 O   0  0  0  0  0  0  0  0  0  0  0  0
   12.7556  -17.3122   27.1371 O   0  0  0  0  0  0  0  0  0  0  0  0
  2  1  1  6
  2  3  1  0
  2  4  1  0
  5  4  1  0
  5  7  1  0
  5  6  1  1
  7  8  2  0
  9 10  1  0
 10 11  2  0
 10 20  1  0
 11 12  1  0
 12 13  2  0
 13 14  1  0
 15 14  1  1
 15 17  1  0
 16 15  1  0
 16  7  1  0
 17 18  2  0
 17 26  1  0
 19 13  1  0
 20 19  2  0
 21 22  1  0
 22 24  1  0
 23 22  2  0
 25 24  1  1
 25 27  1  0
 26 25  1  0
 27 28  2  0
 27 29  1  0
M  END
$$$$
