LYN.pdb
     RDKit          3D

 29 29  0  0  1  0  0  0  0  0999 V2000
    7.2034  -19.6841   18.9208 C   0  0  0  0  0  0  0  0  0  0  0  0
    8.5140  -19.9708   19.6254 C   0  0  2  0  0  0  0  0  0  0  0  0
    8.5983  -21.3575   20.1721 C   0  0  0  0  0  0  0  0  0  0  0  0
    8.6834  -18.8978   20.6855 C   0  0  0  0  0  0  0  0  0  0  0  0
    8.7426  -17.5748   19.9546 C   0  0  2  0  0  0  0  0  0  0  0  0
    9.5286  -17.8157   18.7440 N   0  0  0  0  0  0  0  0  0  0  0  0
    9.3346  -16.5020   20.7554 C   0  0  0  0  0  0  0  0  0  0  0  0
   10.5383  -16.5889   21.0953 O   0  0  0  0  0  0  0  0  0  0  0  0
    6.7774  -12.1345   28.1065 O   0  0  0  0  0  0  0  0  0  0  0  0
    6.9168  -12.7119   26.8531 C   0  0  0  0  0  0  0  0  0  0  0  0
    7.3622  -11.9686   25.7758 C   0  0  0  0  0  0  0  0  0  0  0  0
    7.4906  -12.5708   24.5414 C   0  0  0  0  0  0  0  0  0  0  0  0
    7.1984  -13.8862   24.3120 C   0  0  0  0  0  0  0  0  0  0  0  0
    7.3247  -14.5369   23.0260 C   0  0  0  0  0  0  0  0  0  0  0  0
    8.6743  -14.7766   22.4714 C   0  0  2  0  0  0  0  0  0  0  0  0
    8.5426  -15.3939   21.1285 N   0  0  0  0  0  0  0  0  0  0  0  0
    9.6029  -15.6318   23.2157 C   0  0  0  0  0  0  0  0  0  0  0  0
   10.8771  -15.4257   23.1624 O   0  0  0  0  0  0  0  0  0  0  0  0
    6.7492  -14.6182   25.4188 C   0  0  0  0  0  0  0  0  0  0  0  0
    6.6102  -14.0499   26.6603 C   0  0  0  0  0  0  0  0  0  0  0  0
   10.7872  -16.4224   27.4475 N   0  0  0  0  0  0  0  0  0  0  0  0
    9.7927  -17.4413   27.3324 C   0  0  0  0  0  0  0  0  0  0  0  0
    9.2227  -17.7835   28.3757 O   0  0  0  0  0  0  0  0  0  0  0  0
    9.4844  -18.0338   26.0277 C   0  0  0  0  0  0  0  0  0  0  0  0
   10.2288  -17.4152   24.8841 C   0  0  2  0  0  0  0  0  0  0  0  0
    9.2394  -16.7233   24.0458 N   0  0  0  0  0  0  0  0  0  0  0  0
   11.0508  -18.3266   24.0938 C   0  0  0  0  0  0  0  0  0  0  0  0
   10.7149  -18.8538   22.9891 O   0  0  0  0  0  0  0  0  0  0  0  0
   12.3217  -18.6663   24.5683 O   0  0  0  0  0  0  0  0  0  0  0  0
  2  1  1  1
  2  3  1  0
  2  4  1  0
  5  4  1  0
  5  7  1  0
  5  6  1  6
  7  8  2  0
  9 10  1  0
 10 11  2  0
 10 20  1  0
 11 12  1  0
 12 13  2  0
 13 14  1  0
 15 14  1  1
 15 17  1  0
 16 15  1  0
 16  7  1  0
 17 18  2  0
 17 26  1  0
 19 13  1  0
 20 19  2  0
 21 22  1  0
 22 24  1  0
 23 22  2  0
 25 24  1  1
 25 27  1  0
 26 25  1  0
 27 28  2  0
 27 29  1  0
M  END
$$$$
