LYN.pdb
     RDKit          3D

 29 29  0  0  1  0  0  0  0  0999 V2000
    7.9762  -14.4712   18.0822 C   0  0  0  0  0  0  0  0  0  0  0  0
    7.2710  -13.6183   19.1174 C   0  0  2  0  0  0  0  0  0  0  0  0
    6.7369  -12.3393   18.5627 C   0  0  0  0  0  0  0  0  0  0  0  0
    8.2534  -13.4131   20.2562 C   0  0  0  0  0  0  0  0  0  0  0  0
    8.5693  -14.7864   20.8061 C   0  0  2  0  0  0  0  0  0  0  0  0
    7.2789  -15.4342   21.0440 N   0  0  0  0  0  0  0  0  0  0  0  0
    9.3655  -14.7445   22.0337 C   0  0  0  0  0  0  0  0  0  0  0  0
   10.5237  -14.2661   21.9925 O   0  0  0  0  0  0  0  0  0  0  0  0
   10.8433  -15.4967   30.8567 O   0  0  0  0  0  0  0  0  0  0  0  0
   10.3283  -15.3824   29.5738 C   0  0  0  0  0  0  0  0  0  0  0  0
    9.7518  -16.4686   28.9421 C   0  0  0  0  0  0  0  0  0  0  0  0
    9.2483  -16.3239   27.6660 C   0  0  0  0  0  0  0  0  0  0  0  0
    9.2849  -15.1470   26.9717 C   0  0  0  0  0  0  0  0  0  0  0  0
    8.7642  -14.9739   25.6330 C   0  0  0  0  0  0  0  0  0  0  0  0
    9.6265  -15.3048   24.4782 C   0  0  2  0  0  0  0  0  0  0  0  0
    8.8169  -15.2414   23.2364 N   0  0  0  0  0  0  0  0  0  0  0  0
   10.3018  -16.6052   24.4497 C   0  0  0  0  0  0  0  0  0  0  0  0
    9.6536  -17.6789   24.1401 O   0  0  0  0  0  0  0  0  0  0  0  0
    9.8738  -14.0614   27.6328 C   0  0  0  0  0  0  0  0  0  0  0  0
   10.3842  -14.1712   28.9021 C   0  0  0  0  0  0  0  0  0  0  0  0
   13.7266  -16.8451   22.0208 N   0  0  0  0  0  0  0  0  0  0  0  0
   13.2097  -18.0282   22.6322 C   0  0  0  0  0  0  0  0  0  0  0  0
   12.5718  -18.7983   21.9037 O   0  0  0  0  0  0  0  0  0  0  0  0
   13.4403  -18.2897   24.0558 C   0  0  0  0  0  0  0  0  0  0  0  0
   12.2086  -18.1910   24.9029 C   0  0  2  0  0  0  0  0  0  0  0  0
   11.6730  -16.8327   24.7335 N   0  0  0  0  0  0  0  0  0  0  0  0
   12.3796  -18.5229   26.3140 C   0  0  0  0  0  0  0  0  0  0  0  0
   12.1514  -17.7424   27.2887 O   0  0  0  0  0  0  0  0  0  0  0  0
   12.8317  -19.8023   26.6523 O   0  0  0  0  0  0  0  0  0  0  0  0
  2  1  1  6
  2  3  1  0
  2  4  1  0
  5  4  1  0
  5  7  1  0
  5  6  1  1
  7  8  2  0
  9 10  1  0
 10 11  2  0
 10 20  1  0
 11 12  1  0
 12 13  2  0
 13 14  1  0
 15 14  1  1
 15 17  1  0
 16 15  1  0
 16  7  1  0
 17 18  2  0
 17 26  1  0
 19 13  1  0
 20 19  2  0
 21 22  1  0
 22 24  1  0
 23 22  2  0
 25 24  1  6
 25 27  1  0
 26 25  1  0
 27 28  2  0
 27 29  1  0
M  END
$$$$
