LYN.pdb
     RDKit          3D

 29 29  0  0  1  0  0  0  0  0999 V2000
    7.9542  -14.5981   18.1317 C   0  0  0  0  0  0  0  0  0  0  0  0
    7.4062  -13.6985   19.2211 C   0  0  2  0  0  0  0  0  0  0  0  0
    6.8613  -12.4091   18.7022 C   0  0  0  0  0  0  0  0  0  0  0  0
    8.5204  -13.5128   20.2352 C   0  0  0  0  0  0  0  0  0  0  0  0
    8.7602  -14.8669   20.8652 C   0  0  2  0  0  0  0  0  0  0  0  0
    7.4375  -15.4582   21.0706 N   0  0  0  0  0  0  0  0  0  0  0  0
    9.4986  -14.7909   22.1269 C   0  0  0  0  0  0  0  0  0  0  0  0
   10.6684  -14.3394   22.1218 O   0  0  0  0  0  0  0  0  0  0  0  0
   10.6695  -15.4016   31.0051 O   0  0  0  0  0  0  0  0  0  0  0  0
   10.1895  -15.3148   29.7067 C   0  0  0  0  0  0  0  0  0  0  0  0
    9.6207  -16.4118   29.0866 C   0  0  0  0  0  0  0  0  0  0  0  0
    9.1522  -16.2946   27.7944 C   0  0  0  0  0  0  0  0  0  0  0  0
    9.2169  -15.1354   27.0729 C   0  0  0  0  0  0  0  0  0  0  0  0
    8.7330  -14.9913   25.7171 C   0  0  0  0  0  0  0  0  0  0  0  0
    9.6437  -15.2965   24.5928 C   0  0  2  0  0  0  0  0  0  0  0  0
    8.8827  -15.2254   23.3211 N   0  0  0  0  0  0  0  0  0  0  0  0
   10.3351  -16.5885   24.5738 C   0  0  0  0  0  0  0  0  0  0  0  0
    9.7277  -17.6564   24.1742 O   0  0  0  0  0  0  0  0  0  0  0  0
    9.7972  -14.0385   27.7228 C   0  0  0  0  0  0  0  0  0  0  0  0
   10.2731  -14.1210   29.0074 C   0  0  0  0  0  0  0  0  0  0  0  0
   13.9680  -16.6315   22.4462 N   0  0  0  0  0  0  0  0  0  0  0  0
   13.3622  -17.8334   22.9248 C   0  0  0  0  0  0  0  0  0  0  0  0
   12.7294  -18.5045   22.1003 O   0  0  0  0  0  0  0  0  0  0  0  0
   13.5011  -18.2262   24.3300 C   0  0  0  0  0  0  0  0  0  0  0  0
   12.2226  -18.1718   25.1092 C   0  0  2  0  0  0  0  0  0  0  0  0
   11.6814  -16.8133   24.9608 N   0  0  0  0  0  0  0  0  0  0  0  0
   12.3182  -18.5554   26.5144 C   0  0  0  0  0  0  0  0  0  0  0  0
   12.0442  -17.8086   27.5036 O   0  0  0  0  0  0  0  0  0  0  0  0
   12.7446  -19.8495   26.8291 O   0  0  0  0  0  0  0  0  0  0  0  0
  2  1  1  6
  2  3  1  0
  2  4  1  0
  5  4  1  0
  5  7  1  0
  5  6  1  1
  7  8  2  0
  9 10  1  0
 10 11  2  0
 10 20  1  0
 11 12  1  0
 12 13  2  0
 13 14  1  0
 15 14  1  1
 15 17  1  0
 16 15  1  0
 16  7  1  0
 17 18  2  0
 17 26  1  0
 19 13  1  0
 20 19  2  0
 21 22  1  0
 22 24  1  0
 23 22  2  0
 25 24  1  1
 25 27  1  0
 26 25  1  0
 27 28  2  0
 27 29  1  0
M  END
$$$$
