RYA.pdb
     RDKit          3D

 29 29  0  0  1  0  0  0  0  0999 V2000
   25.6407  -20.9614  -21.1506 N   0  0  0  0  0  0  0  0  0  0  0  0
   25.1679  -19.7710  -20.5382 C   0  0  0  0  0  0  0  0  0  0  0  0
   24.6851  -18.7825  -21.2323 N   0  0  0  0  0  0  0  0  0  0  0  0
   25.2160  -19.6377  -19.1235 N   0  0  0  0  0  0  0  0  0  0  0  0
   25.8715  -20.7134  -18.3649 C   0  0  0  0  0  0  0  0  0  0  0  0
   24.8322  -21.6102  -17.7991 C   0  0  0  0  0  0  0  0  0  0  0  0
   24.8441  -21.8052  -16.3319 C   0  0  0  0  0  0  0  0  0  0  0  0
   26.0318  -22.5040  -15.7595 C   0  0  2  0  0  0  0  0  0  0  0  0
   25.8813  -23.9197  -16.0386 N   0  0  0  0  0  0  0  0  0  0  0  0
   25.9125  -22.3798  -14.2618 C   0  0  0  0  0  0  0  0  0  0  0  0
   25.2286  -23.3027  -13.7003 O   0  0  0  0  0  0  0  0  0  0  0  0
   24.3311  -17.9668  -20.6991 O   0  0  0  0  0  0  0  0  0  0  0  0
   27.2298  -19.6192   -5.9581 C   0  0  0  0  0  0  0  0  0  0  0  0
   27.2739  -19.8088   -7.3452 C   0  0  0  0  0  0  0  0  0  0  0  0
   26.6207  -18.9350   -8.1727 C   0  0  0  0  0  0  0  0  0  0  0  0
   26.6719  -19.1323   -9.5340 C   0  0  0  0  0  0  0  0  0  0  0  0
   27.3624  -20.1853  -10.0846 C   0  0  0  0  0  0  0  0  0  0  0  0
   27.3965  -20.3806  -11.5349 C   0  0  1  0  0  0  0  0  0  0  0  0
   26.3038  -21.2752  -12.0753 N   0  0  0  0  0  0  0  0  0  0  0  0
   26.5034  -21.3331  -13.5200 C   0  0  0  0  0  0  0  0  0  0  0  0
   24.9874  -20.7175  -11.7461 O   0  0  0  0  0  0  0  0  0  0  0  0
   24.5917  -19.6148  -12.2007 C   0  0  0  0  0  0  0  0  0  0  0  0
   28.0161  -21.0599   -9.2526 C   0  0  0  0  0  0  0  0  0  0  0  0
   27.9654  -20.8630   -7.8960 C   0  0  0  0  0  0  0  0  0  0  0  0
   23.0094  -19.7031   -9.5504 C   0  0  2  0  0  0  0  0  0  0  0  0
   22.7691  -20.8525  -10.5334 N   0  0  0  0  0  0  0  0  0  0  0  0
   24.0524  -21.3860  -10.8817 C   0  0  0  0  0  0  0  0  0  0  0  0
   21.9921  -20.3974  -11.7042 O   0  0  0  0  0  0  0  0  0  0  0  0
   22.4679  -20.3989  -12.8661 O   0  0  0  0  0  0  0  0  0  0  0  0
  1  2  1  0
  2  3  2  0
  4  5  1  0
  4  2  1  0
  6  5  1  0
  7  6  1  0
  8 10  1  0
  8  7  1  0
  8  9  1  1
 10 11  2  0
 12 13  1  0
 13 23  2  0
 13 14  1  0
 14 15  2  0
 15 16  1  0
 16 17  1  0
 18 17  1  1
 19 18  1  0
 19 10  1  0
 20 18  1  0
 20 21  2  0
 22 16  2  0
 23 22  1  0
 25 24  1  1
 25 27  1  0
 25 26  1  0
 26 20  1  0
 27 29  1  0
 28 27  2  0
M  END
$$$$
