RYA.pdb
     RDKit          3D

 29 29  0  0  1  0  0  0  0  0999 V2000
   27.0818  -21.7591  -21.5439 N   0  0  0  0  0  0  0  0  0  0  0  0
   25.9143  -20.9533  -21.5996 C   0  0  0  0  0  0  0  0  0  0  0  0
   25.1613  -20.9015  -22.6591 N   0  0  0  0  0  0  0  0  0  0  0  0
   25.5411  -20.1722  -20.4718 N   0  0  0  0  0  0  0  0  0  0  0  0
   26.2877  -20.3874  -19.2234 C   0  0  0  0  0  0  0  0  0  0  0  0
   26.1321  -21.8031  -18.8035 C   0  0  0  0  0  0  0  0  0  0  0  0
   25.2718  -22.0608  -17.6270 C   0  0  0  0  0  0  0  0  0  0  0  0
   25.9350  -22.0175  -16.2910 C   0  0  2  0  0  0  0  0  0  0  0  0
   26.6215  -23.2818  -16.1037 N   0  0  0  0  0  0  0  0  0  0  0  0
   24.8259  -22.0130  -15.2698 C   0  0  0  0  0  0  0  0  0  0  0  0
   24.5634  -23.1552  -14.7587 O   0  0  0  0  0  0  0  0  0  0  0  0
   24.3262  -20.2891  -22.6087 O   0  0  0  0  0  0  0  0  0  0  0  0
   27.6090  -21.3859   -9.2760 C   0  0  0  0  0  0  0  0  0  0  0  0
   26.5863  -21.0113  -10.1567 C   0  0  0  0  0  0  0  0  0  0  0  0
   26.8976  -20.5939  -11.4231 C   0  0  0  0  0  0  0  0  0  0  0  0
   25.8834  -20.2287  -12.2790 C   0  0  0  0  0  0  0  0  0  0  0  0
   24.5646  -20.2719  -11.8945 C   0  0  0  0  0  0  0  0  0  0  0  0
   23.5026  -19.8708  -12.8187 C   0  0  2  0  0  0  0  0  0  0  0  0
   23.1209  -20.9244  -13.8340 N   0  0  0  0  0  0  0  0  0  0  0  0
   24.1210  -20.8481  -14.8943 C   0  0  0  0  0  0  0  0  0  0  0  0
   21.7763  -20.6570  -14.3561 O   0  0  0  0  0  0  0  0  0  0  0  0
   21.4911  -19.5966  -14.9671 C   0  0  0  0  0  0  0  0  0  0  0  0
   24.2554  -20.6905  -10.6242 C   0  0  0  0  0  0  0  0  0  0  0  0
   25.2662  -21.0548   -9.7714 C   0  0  0  0  0  0  0  0  0  0  0  0
   18.6330  -22.7062  -14.6766 C   0  0  1  0  0  0  0  0  0  0  0  0
   19.3848  -21.3755  -14.7735 N   0  0  0  0  0  0  0  0  0  0  0  0
   20.6856  -21.5829  -14.2098 C   0  0  0  0  0  0  0  0  0  0  0  0
   18.6319  -20.2900  -14.1128 O   0  0  0  0  0  0  0  0  0  0  0  0
   18.7373  -20.0525  -12.8845 O   0  0  0  0  0  0  0  0  0  0  0  0
  1  2  1  0
  2  3  2  0
  4  5  1  0
  4  2  1  0
  6  5  1  0
  7  6  1  0
  8 10  1  0
  8  7  1  0
  8  9  1  1
 10 11  2  0
 12 13  1  0
 13 23  2  0
 13 14  1  0
 14 15  2  0
 15 16  1  0
 16 17  1  0
 18 17  1  1
 19 18  1  0
 19 10  1  0
 20 18  1  0
 20 21  2  0
 22 16  2  0
 23 22  1  0
 25 24  1  6
 25 27  1  0
 25 26  1  0
 26 20  1  0
 27 29  1  0
 28 27  2  0
M  END
$$$$
