RYA.pdb
     RDKit          3D

 29 29  0  0  1  0  0  0  0  0999 V2000
   28.8450  -32.0561  -17.9710 N   0  0  0  0  0  0  0  0  0  0  0  0
   29.3128  -31.2742  -16.8823 C   0  0  0  0  0  0  0  0  0  0  0  0
   30.4483  -30.6409  -16.9249 N   0  0  0  0  0  0  0  0  0  0  0  0
   28.5292  -31.1687  -15.7007 N   0  0  0  0  0  0  0  0  0  0  0  0
   27.0677  -31.1354  -15.8594 C   0  0  0  0  0  0  0  0  0  0  0  0
   26.7320  -31.3102  -17.2952 C   0  0  0  0  0  0  0  0  0  0  0  0
   25.3030  -31.2034  -17.6655 C   0  0  0  0  0  0  0  0  0  0  0  0
   24.3148  -31.2894  -16.5508 C   0  0  2  0  0  0  0  0  0  0  0  0
   23.7896  -32.6417  -16.5368 N   0  0  0  0  0  0  0  0  0  0  0  0
   23.1523  -30.4162  -16.9497 C   0  0  0  0  0  0  0  0  0  0  0  0
   22.2346  -31.0141  -17.6093 O   0  0  0  0  0  0  0  0  0  0  0  0
   30.7406  -30.1481  -16.0608 O   0  0  0  0  0  0  0  0  0  0  0  0
   16.8652  -24.3330  -16.9333 C   0  0  0  0  0  0  0  0  0  0  0  0
   17.9876  -25.1310  -16.6778 C   0  0  0  0  0  0  0  0  0  0  0  0
   17.8559  -26.4928  -16.6216 C   0  0  0  0  0  0  0  0  0  0  0  0
   18.9666  -27.2658  -16.3699 C   0  0  0  0  0  0  0  0  0  0  0  0
   20.2059  -26.7052  -16.1730 C   0  0  0  0  0  0  0  0  0  0  0  0
   21.3721  -27.5463  -15.8984 C   0  0  2  0  0  0  0  0  0  0  0  0
   21.9290  -28.2640  -17.1072 N   0  0  0  0  0  0  0  0  0  0  0  0
   23.0663  -29.0435  -16.6286 C   0  0  0  0  0  0  0  0  0  0  0  0
   22.3455  -27.2910  -18.1231 O   0  0  0  0  0  0  0  0  0  0  0  0
   23.3791  -26.5877  -17.9962 C   0  0  0  0  0  0  0  0  0  0  0  0
   20.3350  -25.3397  -16.2296 C   0  0  0  0  0  0  0  0  0  0  0  0
   19.2280  -24.5694  -16.4809 C   0  0  0  0  0  0  0  0  0  0  0  0
   21.4579  -26.6555  -21.6821 C   0  0  1  0  0  0  0  0  0  0  0  0
   22.0038  -26.1349  -20.3493 N   0  0  0  0  0  0  0  0  0  0  0  0
   21.6070  -27.0677  -19.3367 C   0  0  0  0  0  0  0  0  0  0  0  0
   21.5384  -24.7582  -20.0853 O   0  0  0  0  0  0  0  0  0  0  0  0
   20.6908  -24.4960  -19.1969 O   0  0  0  0  0  0  0  0  0  0  0  0
  1  2  1  0
  2  3  2  0
  4  5  1  0
  4  2  1  0
  6  5  1  0
  7  6  1  0
  8 10  1  0
  8  7  1  0
  8  9  1  6
 10 11  2  0
 12 13  1  0
 13 23  2  0
 13 14  1  0
 14 15  2  0
 15 16  1  0
 16 17  1  0
 18 17  1  1
 19 18  1  0
 19 10  1  0
 20 18  1  0
 20 21  2  0
 22 16  2  0
 23 22  1  0
 25 24  1  6
 25 27  1  0
 25 26  1  0
 26 20  1  0
 27 29  1  0
 28 27  2  0
M  END
$$$$
