RYA.pdb
     RDKit          3D

 29 29  0  0  1  0  0  0  0  0999 V2000
   24.5043  -25.8882  -14.9042 N   0  0  0  0  0  0  0  0  0  0  0  0
   23.5392  -25.7270  -15.9329 C   0  0  0  0  0  0  0  0  0  0  0  0
   22.8884  -26.7362  -16.4331 N   0  0  0  0  0  0  0  0  0  0  0  0
   23.2626  -24.4297  -16.4445 N   0  0  0  0  0  0  0  0  0  0  0  0
   23.4773  -23.2877  -15.5435 C   0  0  0  0  0  0  0  0  0  0  0  0
   22.1771  -22.6145  -15.2960 C   0  0  0  0  0  0  0  0  0  0  0  0
   22.1997  -21.4150  -14.4292 C   0  0  0  0  0  0  0  0  0  0  0  0
   22.6947  -21.6066  -13.0346 C   0  0  2  0  0  0  0  0  0  0  0  0
   21.7318  -20.9904  -12.1414 N   0  0  0  0  0  0  0  0  0  0  0  0
   23.9425  -20.7696  -12.9115 C   0  0  0  0  0  0  0  0  0  0  0  0
   23.7382  -19.5090  -12.8490 O   0  0  0  0  0  0  0  0  0  0  0  0
   22.2769  -26.5401  -17.2471 O   0  0  0  0  0  0  0  0  0  0  0  0
   25.4502  -19.6410   -6.5187 C   0  0  0  0  0  0  0  0  0  0  0  0
   25.9029  -19.9599   -7.8053 C   0  0  0  0  0  0  0  0  0  0  0  0
   25.2966  -20.9650   -8.5103 C   0  0  0  0  0  0  0  0  0  0  0  0
   25.7508  -21.2687   -9.7737 C   0  0  0  0  0  0  0  0  0  0  0  0
   26.7987  -20.5882  -10.3463 C   0  0  0  0  0  0  0  0  0  0  0  0
   27.2706  -20.9336  -11.6882 C   0  0  2  0  0  0  0  0  0  0  0  0
   26.3971  -20.4249  -12.8127 N   0  0  0  0  0  0  0  0  0  0  0  0
   25.2436  -21.3175  -12.8669 C   0  0  0  0  0  0  0  0  0  0  0  0
   27.1409  -20.4456  -14.0771 O   0  0  0  0  0  0  0  0  0  0  0  0
   27.6128  -21.5046  -14.5620 C   0  0  0  0  0  0  0  0  0  0  0  0
   27.4048  -19.5812   -9.6371 C   0  0  0  0  0  0  0  0  0  0  0  0
   26.9518  -19.2784   -8.3781 C   0  0  0  0  0  0  0  0  0  0  0  0
   27.1579  -20.1056  -17.0759 C   0  0  2  0  0  0  0  0  0  0  0  0
   28.0315  -19.2706  -16.1352 N   0  0  0  0  0  0  0  0  0  0  0  0
   27.3865  -19.2618  -14.8559 C   0  0  0  0  0  0  0  0  0  0  0  0
   28.2575  -17.9168  -16.6810 O   0  0  0  0  0  0  0  0  0  0  0  0
   27.8255  -16.8842  -16.1123 O   0  0  0  0  0  0  0  0  0  0  0  0
  1  2  1  0
  2  3  2  0
  4  5  1  0
  4  2  1  0
  6  5  1  0
  7  6  1  0
  8 10  1  0
  8  7  1  0
  8  9  1  1
 10 11  2  0
 12 13  1  0
 13 23  2  0
 13 14  1  0
 14 15  2  0
 15 16  1  0
 16 17  1  0
 18 17  1  1
 19 18  1  0
 19 10  1  0
 20 18  1  0
 20 21  2  0
 22 16  2  0
 23 22  1  0
 25 24  1  1
 25 27  1  0
 25 26  1  0
 26 20  1  0
 27 29  1  0
 28 27  2  0
M  END
$$$$
