RYA.pdb
     RDKit          3D

 29 29  0  0  1  0  0  0  0  0999 V2000
   46.7344  -12.2989   -5.2027 N   0  0  0  0  0  0  0  0  0  0  0  0
   47.3157  -11.1809   -5.8565 C   0  0  0  0  0  0  0  0  0  0  0  0
   48.4123  -11.2797   -6.5493 N   0  0  0  0  0  0  0  0  0  0  0  0
   46.6938   -9.9059   -5.7620 N   0  0  0  0  0  0  0  0  0  0  0  0
   45.2368   -9.8771   -5.5659 C   0  0  0  0  0  0  0  0  0  0  0  0
   44.5735  -10.4131   -6.7814 C   0  0  0  0  0  0  0  0  0  0  0  0
   43.0935  -10.4043   -6.7943 C   0  0  0  0  0  0  0  0  0  0  0  0
   42.4296   -9.0996   -6.5051 C   0  0  2  0  0  0  0  0  0  0  0  0
   41.9482   -9.1489   -5.1374 N   0  0  0  0  0  0  0  0  0  0  0  0
   41.1894   -9.0588   -7.3613 C   0  0  0  0  0  0  0  0  0  0  0  0
   40.2551   -9.8483   -6.9891 O   0  0  0  0  0  0  0  0  0  0  0  0
   48.7608  -10.4123   -6.9978 O   0  0  0  0  0  0  0  0  0  0  0  0
   36.8454   -5.0576   -4.5669 C   0  0  0  0  0  0  0  0  0  0  0  0
   37.4604   -5.4938   -5.7473 C   0  0  0  0  0  0  0  0  0  0  0  0
   36.8270   -6.4068   -6.5475 C   0  0  0  0  0  0  0  0  0  0  0  0
   37.4418   -6.8272   -7.7050 C   0  0  0  0  0  0  0  0  0  0  0  0
   38.6768   -6.3539   -8.0785 C   0  0  0  0  0  0  0  0  0  0  0  0
   39.3158   -6.8213   -9.3098 C   0  0  2  0  0  0  0  0  0  0  0  0
   39.8119   -8.2487   -9.2586 N   0  0  0  0  0  0  0  0  0  0  0  0
   41.0522   -8.2205   -8.4897 C   0  0  0  0  0  0  0  0  0  0  0  0
   40.0444   -8.7502  -10.6176 O   0  0  0  0  0  0  0  0  0  0  0  0
   40.9197   -8.2600  -11.3744 C   0  0  0  0  0  0  0  0  0  0  0  0
   39.3096   -5.4388   -7.2743 C   0  0  0  0  0  0  0  0  0  0  0  0
   38.6966   -5.0195   -6.1209 C   0  0  0  0  0  0  0  0  0  0  0  0
   38.5126  -11.4867  -12.7227 C   0  0  1  0  0  0  0  0  0  0  0  0
   39.4214  -10.2667  -12.5467 N   0  0  0  0  0  0  0  0  0  0  0  0
   39.2923   -9.8361  -11.1863 C   0  0  0  0  0  0  0  0  0  0  0  0
   39.0890   -9.2104  -13.5243 O   0  0  0  0  0  0  0  0  0  0  0  0
   38.2368   -8.3201  -13.2851 O   0  0  0  0  0  0  0  0  0  0  0  0
  1  2  1  0
  2  3  2  0
  4  5  1  0
  4  2  1  0
  6  5  1  0
  7  6  1  0
  8 10  1  0
  8  7  1  0
  8  9  1  1
 10 11  2  0
 12 13  1  0
 13 23  2  0
 13 14  1  0
 14 15  2  0
 15 16  1  0
 16 17  1  0
 18 17  1  1
 19 18  1  0
 19 10  1  0
 20 18  1  0
 20 21  2  0
 22 16  2  0
 23 22  1  0
 25 24  1  1
 25 27  1  0
 25 26  1  0
 26 20  1  0
 27 29  1  0
 28 27  2  0
M  END
$$$$
