RYA.pdb
     RDKit          3D

 29 29  0  0  1  0  0  0  0  0999 V2000
   25.0957  -16.6727  -22.2995 N   0  0  0  0  0  0  0  0  0  0  0  0
   23.9459  -16.9398  -23.0883 C   0  0  0  0  0  0  0  0  0  0  0  0
   23.7894  -18.0654  -23.7213 N   0  0  0  0  0  0  0  0  0  0  0  0
   22.9237  -15.9582  -23.2013 N   0  0  0  0  0  0  0  0  0  0  0  0
   22.9260  -14.8636  -22.2195 C   0  0  0  0  0  0  0  0  0  0  0  0
   21.9936  -15.2018  -21.1144 C   0  0  0  0  0  0  0  0  0  0  0  0
   21.8165  -14.1844  -20.0541 C   0  0  0  0  0  0  0  0  0  0  0  0
   23.0605  -13.5956  -19.4775 C   0  0  2  0  0  0  0  0  0  0  0  0
   23.9079  -14.6946  -19.0546 N   0  0  0  0  0  0  0  0  0  0  0  0
   22.6473  -12.9006  -18.2050 C   0  0  0  0  0  0  0  0  0  0  0  0
   22.2162  -13.6776  -17.2857 O   0  0  0  0  0  0  0  0  0  0  0  0
   22.9612  -18.1415  -24.3404 O   0  0  0  0  0  0  0  0  0  0  0  0
   22.0127   -6.9143  -11.7738 C   0  0  0  0  0  0  0  0  0  0  0  0
   22.3459   -7.6980  -12.8859 C   0  0  0  0  0  0  0  0  0  0  0  0
   22.5750   -9.0388  -12.7295 C   0  0  0  0  0  0  0  0  0  0  0  0
   22.9014   -9.7980  -13.8303 C   0  0  0  0  0  0  0  0  0  0  0  0
   23.0038   -9.2439  -15.0839 C   0  0  0  0  0  0  0  0  0  0  0  0
   23.3604  -10.0689  -16.2393 C   0  0  1  0  0  0  0  0  0  0  0  0
   22.2287  -10.9098  -16.7855 N   0  0  0  0  0  0  0  0  0  0  0  0
   22.7236  -11.5019  -18.0243 C   0  0  0  0  0  0  0  0  0  0  0  0
   21.0519  -10.0699  -17.0348 O   0  0  0  0  0  0  0  0  0  0  0  0
   21.0206   -9.2123  -17.9528 C   0  0  0  0  0  0  0  0  0  0  0  0
   22.7737   -7.8993  -15.2377 C   0  0  0  0  0  0  0  0  0  0  0  0
   22.4480   -7.1429  -14.1406 C   0  0  0  0  0  0  0  0  0  0  0  0
   17.4632  -10.1852  -16.2548 C   0  0  1  0  0  0  0  0  0  0  0  0
   18.7095   -9.3148  -16.4413 N   0  0  0  0  0  0  0  0  0  0  0  0
   19.8491  -10.1623  -16.2520 C   0  0  0  0  0  0  0  0  0  0  0  0
   18.6899   -8.1550  -15.5270 O   0  0  0  0  0  0  0  0  0  0  0  0
   18.9543   -8.2609  -14.3042 O   0  0  0  0  0  0  0  0  0  0  0  0
  1  2  1  0
  2  3  2  0
  4  5  1  0
  4  2  1  0
  6  5  1  0
  7  6  1  0
  8 10  1  0
  8  7  1  0
  8  9  1  1
 10 11  2  0
 12 13  1  0
 13 23  2  0
 13 14  1  0
 14 15  2  0
 15 16  1  0
 16 17  1  0
 18 17  1  1
 19 18  1  0
 19 10  1  0
 20 18  1  0
 20 21  2  0
 22 16  2  0
 23 22  1  0
 25 24  1  6
 25 27  1  0
 25 26  1  0
 26 20  1  0
 27 29  1  0
 28 27  2  0
M  END
$$$$
