RYA.pdb
     RDKit          3D

 29 29  0  0  1  0  0  0  0  0999 V2000
   28.0249  -13.4416  -15.6082 N   0  0  0  0  0  0  0  0  0  0  0  0
   28.0526  -12.3747  -16.5444 C   0  0  0  0  0  0  0  0  0  0  0  0
   29.0445  -11.5352  -16.6051 N   0  0  0  0  0  0  0  0  0  0  0  0
   26.9715  -12.2033  -17.4516 N   0  0  0  0  0  0  0  0  0  0  0  0
   25.8096  -13.0907  -17.2942 C   0  0  0  0  0  0  0  0  0  0  0  0
   24.8661  -12.8574  -18.4168 C   0  0  0  0  0  0  0  0  0  0  0  0
   23.9224  -11.7263  -18.2729 C   0  0  0  0  0  0  0  0  0  0  0  0
   22.5281  -12.0662  -17.8641 C   0  0  2  0  0  0  0  0  0  0  0  0
   21.9326  -12.8341  -18.9413 N   0  0  0  0  0  0  0  0  0  0  0  0
   21.7678  -10.7646  -17.8369 C   0  0  0  0  0  0  0  0  0  0  0  0
   21.3172  -10.3834  -18.9712 O   0  0  0  0  0  0  0  0  0  0  0  0
   28.9778  -10.7847  -17.3173 O   0  0  0  0  0  0  0  0  0  0  0  0
   16.2272   -4.3537  -16.0820 C   0  0  0  0  0  0  0  0  0  0  0  0
   17.0368   -5.4960  -16.1223 C   0  0  0  0  0  0  0  0  0  0  0  0
   16.4652   -6.7301  -16.2809 C   0  0  0  0  0  0  0  0  0  0  0  0
   17.2719   -7.8448  -16.3192 C   0  0  0  0  0  0  0  0  0  0  0  0
   18.6380   -7.7507  -16.2017 C   0  0  0  0  0  0  0  0  0  0  0  0
   19.4759   -8.9505  -16.2368 C   0  0  1  0  0  0  0  0  0  0  0  0
   20.8819   -8.7216  -16.7439 N   0  0  0  0  0  0  0  0  0  0  0  0
   21.5591  -10.0118  -16.6602 C   0  0  0  0  0  0  0  0  0  0  0  0
   21.5580   -7.7156  -15.9173 O   0  0  0  0  0  0  0  0  0  0  0  0
   21.8634   -7.9272  -14.7168 C   0  0  0  0  0  0  0  0  0  0  0  0
   19.2083   -6.5123  -16.0426 C   0  0  0  0  0  0  0  0  0  0  0  0
   18.4043   -5.4014  -16.0049 C   0  0  0  0  0  0  0  0  0  0  0  0
   22.9148   -4.2503  -16.5419 C   0  0  1  0  0  0  0  0  0  0  0  0
   22.5053   -5.3890  -15.6032 N   0  0  0  0  0  0  0  0  0  0  0  0
   21.9217   -6.4160  -16.4141 C   0  0  0  0  0  0  0  0  0  0  0  0
   21.6010   -4.9035  -14.5410 O   0  0  0  0  0  0  0  0  0  0  0  0
   20.3596   -5.0868  -14.5821 O   0  0  0  0  0  0  0  0  0  0  0  0
  1  2  1  0
  2  3  2  0
  4  5  1  0
  4  2  1  0
  6  5  1  0
  7  6  1  0
  8 10  1  0
  8  7  1  0
  8  9  1  6
 10 11  2  0
 12 13  1  0
 13 23  2  0
 13 14  1  0
 14 15  2  0
 15 16  1  0
 16 17  1  0
 18 17  1  6
 19 18  1  0
 19 10  1  0
 20 18  1  0
 20 21  2  0
 22 16  2  0
 23 22  1  0
 25 24  1  6
 25 27  1  0
 25 26  1  0
 26 20  1  0
 27 29  1  0
 28 27  2  0
M  END
$$$$
