RYA.pdb
     RDKit          3D

 29 29  0  0  1  0  0  0  0  0999 V2000
   32.2271  -25.7213  -17.4475 N   0  0  0  0  0  0  0  0  0  0  0  0
   31.7979  -24.3782  -17.6127 C   0  0  0  0  0  0  0  0  0  0  0  0
   32.6243  -23.4225  -17.9225 N   0  0  0  0  0  0  0  0  0  0  0  0
   30.4258  -24.0490  -17.4381 N   0  0  0  0  0  0  0  0  0  0  0  0
   29.5130  -25.1364  -17.0554 C   0  0  0  0  0  0  0  0  0  0  0  0
   28.6428  -25.4683  -18.2119 C   0  0  0  0  0  0  0  0  0  0  0  0
   27.2763  -25.9467  -17.9047 C   0  0  0  0  0  0  0  0  0  0  0  0
   27.1220  -26.7932  -16.6856 C   0  0  2  0  0  0  0  0  0  0  0  0
   27.3179  -28.1739  -17.0857 N   0  0  0  0  0  0  0  0  0  0  0  0
   25.6713  -26.6975  -16.2868 C   0  0  0  0  0  0  0  0  0  0  0  0
   24.8829  -27.4576  -16.9467 O   0  0  0  0  0  0  0  0  0  0  0  0
   32.2117  -22.4883  -18.1012 O   0  0  0  0  0  0  0  0  0  0  0  0
   18.4180  -24.8861  -11.5623 C   0  0  0  0  0  0  0  0  0  0  0  0
   19.7282  -25.0040  -12.0434 C   0  0  0  0  0  0  0  0  0  0  0  0
   20.3810  -23.8980  -12.5182 C   0  0  0  0  0  0  0  0  0  0  0  0
   21.6683  -24.0272  -12.9881 C   0  0  0  0  0  0  0  0  0  0  0  0
   22.3159  -25.2394  -12.9932 C   0  0  0  0  0  0  0  0  0  0  0  0
   23.6823  -25.3551  -13.5054 C   0  0  1  0  0  0  0  0  0  0  0  0
   23.7793  -25.8282  -14.9383 N   0  0  0  0  0  0  0  0  0  0  0  0
   25.2014  -25.8413  -15.2665 C   0  0  0  0  0  0  0  0  0  0  0  0
   23.0420  -24.9172  -15.8206 O   0  0  0  0  0  0  0  0  0  0  0  0
   23.4125  -23.7341  -16.0261 C   0  0  0  0  0  0  0  0  0  0  0  0
   21.6590  -26.3466  -12.5168 C   0  0  0  0  0  0  0  0  0  0  0  0
   20.3761  -26.2177  -12.0482 C   0  0  0  0  0  0  0  0  0  0  0  0
   20.2462  -25.3160  -18.2871 C   0  0  1  0  0  0  0  0  0  0  0  0
   21.1079  -24.4322  -17.3806 N   0  0  0  0  0  0  0  0  0  0  0  0
   21.8440  -25.3052  -16.5153 C   0  0  0  0  0  0  0  0  0  0  0  0
   20.2790  -23.4527  -16.6490 O   0  0  0  0  0  0  0  0  0  0  0  0
   19.7918  -23.6988  -15.5184 O   0  0  0  0  0  0  0  0  0  0  0  0
  1  2  1  0
  2  3  2  0
  4  5  1  0
  4  2  1  0
  6  5  1  0
  7  6  1  0
  8 10  1  0
  8  7  1  0
  8  9  1  6
 10 11  2  0
 12 13  1  0
 13 23  2  0
 13 14  1  0
 14 15  2  0
 15 16  1  0
 16 17  1  0
 18 17  1  1
 19 18  1  0
 19 10  1  0
 20 18  1  0
 20 21  2  0
 22 16  2  0
 23 22  1  0
 25 24  1  6
 25 27  1  0
 25 26  1  0
 26 20  1  0
 27 29  1  0
 28 27  2  0
M  END
$$$$
