RYA.pdb
     RDKit          3D

 29 29  0  0  1  0  0  0  0  0999 V2000
   23.7511  -33.4533  -13.4423 N   0  0  0  0  0  0  0  0  0  0  0  0
   22.9978  -33.8171  -14.5893 C   0  0  0  0  0  0  0  0  0  0  0  0
   22.8515  -35.0571  -14.9543 N   0  0  0  0  0  0  0  0  0  0  0  0
   22.3770  -32.8082  -15.3754 N   0  0  0  0  0  0  0  0  0  0  0  0
   22.5478  -31.4133  -14.9428 C   0  0  0  0  0  0  0  0  0  0  0  0
   21.8796  -30.5174  -15.9205 C   0  0  0  0  0  0  0  0  0  0  0  0
   20.4533  -30.2066  -15.6761 C   0  0  0  0  0  0  0  0  0  0  0  0
   20.1544  -28.8871  -15.0466 C   0  0  2  0  0  0  0  0  0  0  0  0
   20.5878  -27.8552  -15.9697 N   0  0  0  0  0  0  0  0  0  0  0  0
   21.0749  -28.7689  -13.8585 C   0  0  0  0  0  0  0  0  0  0  0  0
   22.2520  -28.3513  -14.1319 O   0  0  0  0  0  0  0  0  0  0  0  0
   22.3198  -35.2269  -15.8280 O   0  0  0  0  0  0  0  0  0  0  0  0
   18.3270  -23.6715  -13.1547 C   0  0  0  0  0  0  0  0  0  0  0  0
   18.9965  -24.7154  -12.5036 C   0  0  0  0  0  0  0  0  0  0  0  0
   18.2782  -25.7167  -11.9066 C   0  0  0  0  0  0  0  0  0  0  0  0
   18.9479  -26.7370  -11.2701 C   0  0  0  0  0  0  0  0  0  0  0  0
   20.3208  -26.7763  -11.2181 C   0  0  0  0  0  0  0  0  0  0  0  0
   21.0120  -27.8669  -10.5284 C   0  0  2  0  0  0  0  0  0  0  0  0
   21.6310  -28.8985  -11.4444 N   0  0  0  0  0  0  0  0  0  0  0  0
   20.6849  -29.0895  -12.5393 C   0  0  0  0  0  0  0  0  0  0  0  0
   21.8538  -30.1514  -10.7144 O   0  0  0  0  0  0  0  0  0  0  0  0
   21.0133  -31.0856  -10.7106 C   0  0  0  0  0  0  0  0  0  0  0  0
   21.0383  -25.7710  -11.8172 C   0  0  0  0  0  0  0  0  0  0  0  0
   20.3707  -24.7544  -12.4519 C   0  0  0  0  0  0  0  0  0  0  0  0
   22.1857  -31.5964   -8.0693 C   0  0  1  0  0  0  0  0  0  0  0  0
   23.2514  -31.5895   -9.1691 N   0  0  0  0  0  0  0  0  0  0  0  0
   23.0451  -30.4063   -9.9502 C   0  0  0  0  0  0  0  0  0  0  0  0
   23.1982  -32.8301   -9.9691 O   0  0  0  0  0  0  0  0  0  0  0  0
   22.9202  -32.8267  -11.1934 O   0  0  0  0  0  0  0  0  0  0  0  0
  1  2  1  0
  2  3  2  0
  4  5  1  0
  4  2  1  0
  6  5  1  0
  7  6  1  0
  8 10  1  0
  8  7  1  0
  8  9  1  6
 10 11  2  0
 12 13  1  0
 13 23  2  0
 13 14  1  0
 14 15  2  0
 15 16  1  0
 16 17  1  0
 18 17  1  6
 19 18  1  0
 19 10  1  0
 20 18  1  0
 20 21  2  0
 22 16  2  0
 23 22  1  0
 25 24  1  1
 25 27  1  0
 25 26  1  0
 26 20  1  0
 27 29  1  0
 28 27  2  0
M  END
$$$$
