RYA.pdb
     RDKit          3D

 29 29  0  0  1  0  0  0  0  0999 V2000
   20.4273  -25.9861  -14.2389 N   0  0  0  0  0  0  0  0  0  0  0  0
   19.1896  -25.3446  -13.9710 C   0  0  0  0  0  0  0  0  0  0  0  0
   18.0533  -25.9712  -14.0624 N   0  0  0  0  0  0  0  0  0  0  0  0
   19.1722  -23.9750  -13.5896 N   0  0  0  0  0  0  0  0  0  0  0  0
   20.3355  -23.4647  -12.8490 C   0  0  0  0  0  0  0  0  0  0  0  0
   21.4635  -23.2675  -13.7942 C   0  0  0  0  0  0  0  0  0  0  0  0
   22.1308  -21.9466  -13.7725 C   0  0  0  0  0  0  0  0  0  0  0  0
   21.7465  -21.0210  -12.6670 C   0  0  2  0  0  0  0  0  0  0  0  0
   21.1093  -19.8645  -13.2681 N   0  0  0  0  0  0  0  0  0  0  0  0
   23.0365  -20.5043  -12.0823 C   0  0  0  0  0  0  0  0  0  0  0  0
   23.4495  -19.4034  -12.5846 O   0  0  0  0  0  0  0  0  0  0  0  0
   17.2062  -25.4458  -13.7771 O   0  0  0  0  0  0  0  0  0  0  0  0
   28.8087  -18.3791   -5.8806 C   0  0  0  0  0  0  0  0  0  0  0  0
   27.8983  -19.0680   -6.6920 C   0  0  0  0  0  0  0  0  0  0  0  0
   26.6780  -18.5122   -6.9695 C   0  0  0  0  0  0  0  0  0  0  0  0
   25.7923  -19.1992   -7.7683 C   0  0  0  0  0  0  0  0  0  0  0  0
   26.1015  -20.4305   -8.2948 C   0  0  0  0  0  0  0  0  0  0  0  0
   25.1408  -21.1471   -9.1352 C   0  0  2  0  0  0  0  0  0  0  0  0
   24.9632  -20.5691  -10.5211 N   0  0  0  0  0  0  0  0  0  0  0  0
   23.7468  -21.1703  -11.0592 C   0  0  0  0  0  0  0  0  0  0  0  0
   26.1259  -20.8932  -11.3549 O   0  0  0  0  0  0  0  0  0  0  0  0
   26.4833  -22.0770  -11.5790 C   0  0  0  0  0  0  0  0  0  0  0  0
   27.3255  -20.9854   -8.0148 C   0  0  0  0  0  0  0  0  0  0  0  0
   28.2083  -20.3004   -7.2190 C   0  0  0  0  0  0  0  0  0  0  0  0
   28.6065  -18.8473  -13.3357 C   0  0  1  0  0  0  0  0  0  0  0  0
   28.0877  -20.1798  -12.7873 N   0  0  0  0  0  0  0  0  0  0  0  0
   26.9430  -19.8866  -11.9772 C   0  0  0  0  0  0  0  0  0  0  0  0
   29.1476  -20.9025  -12.0552 O   0  0  0  0  0  0  0  0  0  0  0  0
   29.2131  -20.9061  -10.8014 O   0  0  0  0  0  0  0  0  0  0  0  0
  1  2  1  0
  2  3  2  0
  4  5  1  0
  4  2  1  0
  6  5  1  0
  7  6  1  0
  8 10  1  0
  8  7  1  0
  8  9  1  6
 10 11  2  0
 12 13  1  0
 13 23  2  0
 13 14  1  0
 14 15  2  0
 15 16  1  0
 16 17  1  0
 18 17  1  1
 19 18  1  0
 19 10  1  0
 20 18  1  0
 20 21  2  0
 22 16  2  0
 23 22  1  0
 25 24  1  6
 25 27  1  0
 25 26  1  0
 26 20  1  0
 27 29  1  0
 28 27  2  0
M  END
$$$$
