RYA.pdb
     RDKit          3D

 29 29  0  0  1  0  0  0  0  0999 V2000
   27.5238  -21.2622  -21.7939 N   0  0  0  0  0  0  0  0  0  0  0  0
   27.1308  -19.9031  -21.6757 C   0  0  0  0  0  0  0  0  0  0  0  0
   26.9459  -19.1450  -22.7165 N   0  0  0  0  0  0  0  0  0  0  0  0
   26.9286  -19.3362  -20.3877 N   0  0  0  0  0  0  0  0  0  0  0  0
   27.2884  -20.1584  -19.2229 C   0  0  0  0  0  0  0  0  0  0  0  0
   26.1599  -21.0698  -18.9059 C   0  0  0  0  0  0  0  0  0  0  0  0
   25.9388  -21.3882  -17.4774 C   0  0  0  0  0  0  0  0  0  0  0  0
   27.1033  -21.9438  -16.7278 C   0  0  2  0  0  0  0  0  0  0  0  0
   27.2745  -23.3221  -17.1471 N   0  0  0  0  0  0  0  0  0  0  0  0
   26.6780  -22.0182  -15.2834 C   0  0  0  0  0  0  0  0  0  0  0  0
   25.9710  -23.0408  -14.9849 O   0  0  0  0  0  0  0  0  0  0  0  0
   26.6396  -18.1711  -22.5361 O   0  0  0  0  0  0  0  0  0  0  0  0
   25.8857  -19.8842   -6.7167 C   0  0  0  0  0  0  0  0  0  0  0  0
   26.2924  -20.0154   -8.0506 C   0  0  0  0  0  0  0  0  0  0  0  0
   25.4895  -19.5470   -9.0560 C   0  0  0  0  0  0  0  0  0  0  0  0
   25.9006  -19.6818  -10.3628 C   0  0  0  0  0  0  0  0  0  0  0  0
   27.0976  -20.2755  -10.6846 C   0  0  0  0  0  0  0  0  0  0  0  0
   27.5110  -20.4157  -12.0818 C   0  0  1  0  0  0  0  0  0  0  0  0
   26.5419  -21.1854  -12.9506 N   0  0  0  0  0  0  0  0  0  0  0  0
   27.0242  -21.0441  -14.3209 C   0  0  0  0  0  0  0  0  0  0  0  0
   25.1898  -20.6345  -12.8072 O   0  0  0  0  0  0  0  0  0  0  0  0
   24.8195  -19.5963  -13.4109 C   0  0  0  0  0  0  0  0  0  0  0  0
   27.9004  -20.7444   -9.6746 C   0  0  0  0  0  0  0  0  0  0  0  0
   27.4908  -20.6096   -8.3723 C   0  0  0  0  0  0  0  0  0  0  0  0
   22.8504  -19.2960  -11.5980 C   0  0  2  0  0  0  0  0  0  0  0  0
   22.8266  -20.7945  -11.9133 N   0  0  0  0  0  0  0  0  0  0  0  0
   24.1883  -21.2364  -11.9688 C   0  0  0  0  0  0  0  0  0  0  0  0
   22.0771  -21.0644  -13.1572 O   0  0  0  0  0  0  0  0  0  0  0  0
   22.6292  -21.5283  -14.1849 O   0  0  0  0  0  0  0  0  0  0  0  0
  1  2  1  0
  2  3  2  0
  4  5  1  0
  4  2  1  0
  6  5  1  0
  7  6  1  0
  8 10  1  0
  8  7  1  0
  8  9  1  6
 10 11  2  0
 12 13  1  0
 13 23  2  0
 13 14  1  0
 14 15  2  0
 15 16  1  0
 16 17  1  0
 18 17  1  1
 19 18  1  0
 19 10  1  0
 20 18  1  0
 20 21  2  0
 22 16  2  0
 23 22  1  0
 25 24  1  1
 25 27  1  0
 25 26  1  0
 26 20  1  0
 27 29  1  0
 28 27  2  0
M  END
$$$$
