FCK.pdb
     RDKit          3D

 27 27  0  0  1  0  0  0  0  0999 V2000
    5.8028  -17.0961   25.6901 N   0  0  0  0  0  0  0  0  0  0  0  0
    6.3815  -15.8763   25.2094 C   0  0  1  0  0  0  0  0  0  0  0  0
    7.2995  -15.2814   26.2556 C   0  0  0  0  0  0  0  0  0  0  0  0
    6.9168  -13.8608   26.4387 C   0  0  0  0  0  0  0  0  0  0  0  0
    5.6402  -13.5220   26.8291 C   0  0  0  0  0  0  0  0  0  0  0  0
    5.2726  -12.1993   27.0008 C   0  0  0  0  0  0  0  0  0  0  0  0
    6.2019  -11.1769   26.7777 C   0  0  0  0  0  0  0  0  0  0  0  0
    7.4634  -11.5335   26.3907 C   0  0  0  0  0  0  0  0  0  0  0  0
    7.8259  -12.8681   26.2199 C   0  0  0  0  0  0  0  0  0  0  0  0
    7.1199  -16.1466   23.9400 C   0  0  0  0  0  0  0  0  0  0  0  0
    7.8058  -17.1861   23.7701 O   0  0  0  0  0  0  0  0  0  0  0  0
    7.0898  -15.2278   22.8275 N   0  0  0  0  0  0  0  0  0  0  0  0
    7.9463  -15.4134   21.6760 C   0  0  1  0  0  0  0  0  0  0  0  0
    7.7454  -14.3117   20.6531 C   0  0  0  0  0  0  0  0  0  0  0  0
    8.8146  -14.5741   19.2016 S   0  0  0  0  0  0  0  0  0  0  0  0
    9.3533  -15.6143   22.0338 C   0  0  0  0  0  0  0  0  0  0  0  0
    9.9619  -14.7355   22.7292 O   0  0  0  0  0  0  0  0  0  0  0  0
   10.1372  -16.7221   21.6761 N   0  0  0  0  0  0  0  0  0  0  0  0
   11.4880  -16.9973   21.9446 C   0  0  1  0  0  0  0  0  0  0  0  0
   11.8238  -18.3371   22.4985 C   0  0  0  0  0  0  0  0  0  0  0  0
   11.2399  -18.6081   23.8631 C   0  0  0  0  0  0  0  0  0  0  0  0
   11.4481  -20.0464   24.2542 C   0  0  0  0  0  0  0  0  0  0  0  0
   10.9056  -20.3966   25.6171 C   0  0  0  0  0  0  0  0  0  0  0  0
   11.0337  -21.8254   25.8663 N   0  0  0  0  0  0  0  0  0  0  0  0
   12.2931  -16.8239   20.7076 C   0  0  0  0  0  0  0  0  0  0  0  0
   13.5189  -16.6637   20.8063 O   0  0  0  0  0  0  0  0  0  0  0  0
   11.6735  -16.8434   19.4744 O   0  0  0  0  0  0  0  0  0  0  0  0
  2  1  1  1
  2 10  1  0
  2  3  1  0
  3  4  1  0
  4  5  2  0
  4  9  1  0
  5  6  1  0
  6  7  2  0
  8  7  1  0
  9  8  2  0
 10 12  1  0
 11 10  2  0
 13 12  1  0
 13 14  1  6
 13 16  1  0
 14 15  1  0
 16 18  1  0
 16 17  2  0
 18 19  1  0
 19 25  1  0
 19 20  1  6
 21 20  1  0
 22 21  1  0
 23 22  1  0
 24 23  1  0
 25 26  2  0
 25 27  1  0
M  END
$$$$
