FCK.pdb
     RDKit          3D

 27 27  0  0  1  0  0  0  0  0999 V2000
    5.6265  -17.4575   25.2209 N   0  0  0  0  0  0  0  0  0  0  0  0
    6.3766  -16.2493   25.0438 C   0  0  1  0  0  0  0  0  0  0  0  0
    6.9859  -15.8110   26.3583 C   0  0  0  0  0  0  0  0  0  0  0  0
    6.9650  -14.3290   26.3952 C   0  0  0  0  0  0  0  0  0  0  0  0
    5.9113  -13.6556   26.9725 C   0  0  0  0  0  0  0  0  0  0  0  0
    5.8813  -12.2729   27.0101 C   0  0  0  0  0  0  0  0  0  0  0  0
    6.9315  -11.5317   26.4566 C   0  0  0  0  0  0  0  0  0  0  0  0
    7.9679  -12.2183   25.8884 C   0  0  0  0  0  0  0  0  0  0  0  0
    7.9907  -13.6111   25.8544 C   0  0  0  0  0  0  0  0  0  0  0  0
    7.4323  -16.4701   24.0113 C   0  0  0  0  0  0  0  0  0  0  0  0
    8.1960  -17.4682   24.0341 O   0  0  0  0  0  0  0  0  0  0  0  0
    7.6396  -15.5482   22.9205 N   0  0  0  0  0  0  0  0  0  0  0  0
    8.7085  -15.7429   21.9646 C   0  0  1  0  0  0  0  0  0  0  0  0
    8.5129  -14.8810   20.7320 C   0  0  0  0  0  0  0  0  0  0  0  0
    6.9282  -15.2648   19.9195 S   0  0  0  0  0  0  0  0  0  0  0  0
   10.0414  -15.6019   22.5577 C   0  0  0  0  0  0  0  0  0  0  0  0
   10.3427  -14.5383   23.1933 O   0  0  0  0  0  0  0  0  0  0  0  0
   11.0676  -16.5573   22.4974 N   0  0  0  0  0  0  0  0  0  0  0  0
   12.1221  -16.8079   23.3907 C   0  0  1  0  0  0  0  0  0  0  0  0
   12.0392  -18.0327   24.2320 C   0  0  0  0  0  0  0  0  0  0  0  0
   13.2312  -18.2492   25.1312 C   0  0  0  0  0  0  0  0  0  0  0  0
   13.0567  -19.4973   25.9537 C   0  0  0  0  0  0  0  0  0  0  0  0
   14.1999  -19.7754   26.8973 C   0  0  0  0  0  0  0  0  0  0  0  0
   13.8730  -20.8839   27.7832 N   0  0  0  0  0  0  0  0  0  0  0  0
   13.4068  -16.8773   22.6471 C   0  0  0  0  0  0  0  0  0  0  0  0
   14.4559  -16.5655   23.2302 O   0  0  0  0  0  0  0  0  0  0  0  0
   13.4179  -17.2846   21.3283 O   0  0  0  0  0  0  0  0  0  0  0  0
  2  1  1  1
  2 10  1  0
  2  3  1  0
  3  4  1  0
  4  5  2  0
  4  9  1  0
  5  6  1  0
  6  7  2  0
  8  7  1  0
  9  8  2  0
 10 12  1  0
 11 10  2  0
 13 12  1  0
 13 14  1  6
 13 16  1  0
 14 15  1  0
 16 18  1  0
 16 17  2  0
 18 19  1  0
 19 25  1  0
 19 20  1  6
 21 20  1  0
 22 21  1  0
 23 22  1  0
 24 23  1  0
 25 26  2  0
 25 27  1  0
M  END
$$$$
