FCK.pdb
     RDKit          3D

 27 27  0  0  1  0  0  0  0  0999 V2000
    6.2552  -16.7052   25.8062 N   0  0  0  0  0  0  0  0  0  0  0  0
    6.2153  -16.2203   24.4582 C   0  0  1  0  0  0  0  0  0  0  0  0
    5.7870  -14.7687   24.4339 C   0  0  0  0  0  0  0  0  0  0  0  0
    6.5136  -14.0640   25.5172 C   0  0  0  0  0  0  0  0  0  0  0  0
    5.8743  -13.7320   26.6912 C   0  0  0  0  0  0  0  0  0  0  0  0
    6.5429  -13.0727   27.7073 C   0  0  0  0  0  0  0  0  0  0  0  0
    7.8912  -12.7302   27.5550 C   0  0  0  0  0  0  0  0  0  0  0  0
    8.5078  -13.0682   26.3828 C   0  0  0  0  0  0  0  0  0  0  0  0
    7.8275  -13.7323   25.3640 C   0  0  0  0  0  0  0  0  0  0  0  0
    7.5594  -16.3929   23.8312 C   0  0  0  0  0  0  0  0  0  0  0  0
    8.4435  -17.1339   24.3305 O   0  0  0  0  0  0  0  0  0  0  0  0
    7.9255  -15.7176   22.6094 N   0  0  0  0  0  0  0  0  0  0  0  0
    9.1194  -16.0827   21.8776 C   0  0  1  0  0  0  0  0  0  0  0  0
    9.1336  -15.4592   20.4950 C   0  0  0  0  0  0  0  0  0  0  0  0
    7.4478  -15.0087   19.9715 S   0  0  0  0  0  0  0  0  0  0  0  0
   10.3522  -15.8361   22.6309 C   0  0  0  0  0  0  0  0  0  0  0  0
   10.6340  -14.6531   23.0150 O   0  0  0  0  0  0  0  0  0  0  0  0
   11.2981  -16.8083   22.9907 N   0  0  0  0  0  0  0  0  0  0  0  0
   12.4669  -16.6901   23.7604 C   0  0  1  0  0  0  0  0  0  0  0  0
   12.8207  -17.8227   24.6587 C   0  0  0  0  0  0  0  0  0  0  0  0
   12.0050  -17.8870   25.9263 C   0  0  0  0  0  0  0  0  0  0  0  0
   11.7259  -19.3161   26.3067 C   0  0  0  0  0  0  0  0  0  0  0  0
   10.9407  -19.4688   27.5852 C   0  0  0  0  0  0  0  0  0  0  0  0
   10.7806  -20.8765   27.9214 N   0  0  0  0  0  0  0  0  0  0  0  0
   13.6348  -16.4593   22.8710 C   0  0  0  0  0  0  0  0  0  0  0  0
   14.7168  -16.1232   23.3754 O   0  0  0  0  0  0  0  0  0  0  0  0
   13.5036  -16.6203   21.5065 O   0  0  0  0  0  0  0  0  0  0  0  0
  2  1  1  1
  2 10  1  0
  2  3  1  0
  3  4  1  0
  4  5  2  0
  4  9  1  0
  5  6  1  0
  6  7  2  0
  8  7  1  0
  9  8  2  0
 10 12  1  0
 11 10  2  0
 13 12  1  0
 13 14  1  6
 13 16  1  0
 14 15  1  0
 16 18  1  0
 16 17  2  0
 18 19  1  0
 19 25  1  0
 19 20  1  6
 21 20  1  0
 22 21  1  0
 23 22  1  0
 24 23  1  0
 25 26  2  0
 25 27  1  0
M  END
$$$$
