FCK.pdb
     RDKit          3D

 27 27  0  0  1  0  0  0  0  0999 V2000
    6.7179  -17.1954   26.5827 N   0  0  0  0  0  0  0  0  0  0  0  0
    6.4970  -16.8939   25.1992 C   0  0  1  0  0  0  0  0  0  0  0  0
    5.7360  -15.5929   25.0593 C   0  0  0  0  0  0  0  0  0  0  0  0
    6.5657  -14.5169   25.6525 C   0  0  0  0  0  0  0  0  0  0  0  0
    7.5359  -14.8113   26.5847 C   0  0  0  0  0  0  0  0  0  0  0  0
    8.3140  -13.8142   27.1457 C   0  0  0  0  0  0  0  0  0  0  0  0
    8.1242  -12.4795   26.7702 C   0  0  0  0  0  0  0  0  0  0  0  0
    7.1566  -12.2078   25.8438 C   0  0  0  0  0  0  0  0  0  0  0  0
    6.3769  -13.2177   25.2834 C   0  0  0  0  0  0  0  0  0  0  0  0
    7.8108  -16.8246   24.4929 C   0  0  0  0  0  0  0  0  0  0  0  0
    8.8132  -17.4810   24.8728 O   0  0  0  0  0  0  0  0  0  0  0  0
    8.0093  -15.9977   23.3269 N   0  0  0  0  0  0  0  0  0  0  0  0
    9.2297  -16.0707   22.5527 C   0  0  1  0  0  0  0  0  0  0  0  0
    9.0969  -15.3256   21.2382 C   0  0  0  0  0  0  0  0  0  0  0  0
   10.5963  -15.5311   20.2241 S   0  0  0  0  0  0  0  0  0  0  0  0
   10.4179  -15.6795   23.3163 C   0  0  0  0  0  0  0  0  0  0  0  0
   10.5692  -14.4651   23.6749 O   0  0  0  0  0  0  0  0  0  0  0  0
   11.4538  -16.5393   23.7129 N   0  0  0  0  0  0  0  0  0  0  0  0
   12.6391  -16.2624   24.4135 C   0  0  1  0  0  0  0  0  0  0  0  0
   12.9873  -17.1458   25.5595 C   0  0  0  0  0  0  0  0  0  0  0  0
   12.0156  -17.0786   26.7118 C   0  0  0  0  0  0  0  0  0  0  0  0
   12.4227  -18.0280   27.8063 C   0  0  0  0  0  0  0  0  0  0  0  0
   11.5392  -17.9723   29.0273 C   0  0  0  0  0  0  0  0  0  0  0  0
   11.9960  -18.9219   30.0322 N   0  0  0  0  0  0  0  0  0  0  0  0
   13.7943  -16.2869   23.4790 C   0  0  0  0  0  0  0  0  0  0  0  0
   13.6197  -16.6878   22.3185 O   0  0  0  0  0  0  0  0  0  0  0  0
   15.0368  -15.8669   23.9090 O   0  0  0  0  0  0  0  0  0  0  0  0
  2  1  1  1
  2 10  1  0
  2  3  1  0
  3  4  1  0
  4  5  2  0
  4  9  1  0
  5  6  1  0
  6  7  2  0
  8  7  1  0
  9  8  2  0
 10 12  1  0
 11 10  2  0
 13 12  1  0
 13 14  1  6
 13 16  1  0
 14 15  1  0
 16 18  1  0
 16 17  2  0
 18 19  1  0
 19 25  1  0
 19 20  1  1
 21 20  1  0
 22 21  1  0
 23 22  1  0
 24 23  1  0
 25 26  2  0
 25 27  1  0
M  END
$$$$
