FCK.pdb
     RDKit          3D

 27 27  0  0  1  0  0  0  0  0999 V2000
    6.5244  -16.3700   25.8036 N   0  0  0  0  0  0  0  0  0  0  0  0
    6.2855  -16.0841   24.4198 C   0  0  1  0  0  0  0  0  0  0  0  0
    5.7197  -14.6891   24.2609 C   0  0  0  0  0  0  0  0  0  0  0  0
    6.3903  -13.8130   25.2513 C   0  0  0  0  0  0  0  0  0  0  0  0
    5.6951  -13.3105   26.3289 C   0  0  0  0  0  0  0  0  0  0  0  0
    6.3111  -12.4906   27.2575 C   0  0  0  0  0  0  0  0  0  0  0  0
    7.6626  -12.1568   27.1135 C   0  0  0  0  0  0  0  0  0  0  0  0
    8.3350  -12.6653   26.0376 C   0  0  0  0  0  0  0  0  0  0  0  0
    7.7074  -13.4905   25.1066 C   0  0  0  0  0  0  0  0  0  0  0  0
    7.5601  -16.2353   23.6569 C   0  0  0  0  0  0  0  0  0  0  0  0
    8.4955  -16.9764   24.0517 O   0  0  0  0  0  0  0  0  0  0  0  0
    7.7956  -15.5379   22.4156 N   0  0  0  0  0  0  0  0  0  0  0  0
    9.0099  -15.7443   21.6561 C   0  0  1  0  0  0  0  0  0  0  0  0
    9.0356  -14.8829   20.4080 C   0  0  0  0  0  0  0  0  0  0  0  0
    7.5846  -15.2206   19.3593 S   0  0  0  0  0  0  0  0  0  0  0  0
   10.2234  -15.6147   22.4677 C   0  0  0  0  0  0  0  0  0  0  0  0
   10.5218  -14.4882   22.9857 O   0  0  0  0  0  0  0  0  0  0  0  0
   11.1328  -16.6461   22.7480 N   0  0  0  0  0  0  0  0  0  0  0  0
   12.0656  -16.7693   23.7908 C   0  0  1  0  0  0  0  0  0  0  0  0
   11.6579  -17.5426   24.9952 C   0  0  0  0  0  0  0  0  0  0  0  0
   12.2882  -18.9096   25.0970 C   0  0  0  0  0  0  0  0  0  0  0  0
   11.8475  -19.6056   26.3565 C   0  0  0  0  0  0  0  0  0  0  0  0
   12.3847  -21.0072   26.5034 C   0  0  0  0  0  0  0  0  0  0  0  0
   13.4527  -21.0439   27.4925 N   0  0  0  0  0  0  0  0  0  0  0  0
   13.3153  -17.3891   23.2785 C   0  0  0  0  0  0  0  0  0  0  0  0
   14.3347  -17.3569   23.9841 O   0  0  0  0  0  0  0  0  0  0  0  0
   13.3272  -17.9882   22.0351 O   0  0  0  0  0  0  0  0  0  0  0  0
  2  1  1  1
  2 10  1  0
  2  3  1  0
  3  4  1  0
  4  5  2  0
  4  9  1  0
  5  6  1  0
  6  7  2  0
  8  7  1  0
  9  8  2  0
 10 12  1  0
 11 10  2  0
 13 12  1  0
 13 14  1  6
 13 16  1  0
 14 15  1  0
 16 18  1  0
 16 17  2  0
 18 19  1  0
 19 25  1  0
 19 20  1  1
 21 20  1  0
 22 21  1  0
 23 22  1  0
 24 23  1  0
 25 26  2  0
 25 27  1  0
M  END
$$$$
