FCK.pdb
     RDKit          3D

 27 27  0  0  1  0  0  0  0  0999 V2000
    5.9598  -17.7267   25.8486 N   0  0  0  0  0  0  0  0  0  0  0  0
    6.3226  -16.3756   25.5377 C   0  0  1  0  0  0  0  0  0  0  0  0
    6.9829  -15.7201   26.7318 C   0  0  0  0  0  0  0  0  0  0  0  0
    6.7894  -14.2554   26.6087 C   0  0  0  0  0  0  0  0  0  0  0  0
    7.8560  -13.4260   26.3416 C   0  0  0  0  0  0  0  0  0  0  0  0
    7.6863  -12.0577   26.2268 C   0  0  0  0  0  0  0  0  0  0  0  0
    6.4159  -11.4915   26.3823 C   0  0  0  0  0  0  0  0  0  0  0  0
    5.3703  -12.3312   26.6471 C   0  0  0  0  0  0  0  0  0  0  0  0
    5.5494  -13.7083   26.7611 C   0  0  0  0  0  0  0  0  0  0  0  0
    7.2307  -16.3683   24.3525 C   0  0  0  0  0  0  0  0  0  0  0  0
    8.1492  -17.2135   24.2046 O   0  0  0  0  0  0  0  0  0  0  0  0
    7.1076  -15.3874   23.3010 N   0  0  0  0  0  0  0  0  0  0  0  0
    7.9763  -15.4128   22.1440 C   0  0  1  0  0  0  0  0  0  0  0  0
    7.6553  -14.2818   21.1857 C   0  0  0  0  0  0  0  0  0  0  0  0
    8.7097  -14.3718   19.7028 S   0  0  0  0  0  0  0  0  0  0  0  0
    9.3976  -15.4814   22.4949 C   0  0  0  0  0  0  0  0  0  0  0  0
    9.9492  -14.5026   23.0982 O   0  0  0  0  0  0  0  0  0  0  0  0
   10.2546  -16.5595   22.2252 N   0  0  0  0  0  0  0  0  0  0  0  0
   11.6199  -16.7217   22.5119 C   0  0  1  0  0  0  0  0  0  0  0  0
   12.1522  -18.1099   22.5785 C   0  0  0  0  0  0  0  0  0  0  0  0
   11.7839  -18.8556   23.8373 C   0  0  0  0  0  0  0  0  0  0  0  0
   11.2074  -20.2057   23.5059 C   0  0  0  0  0  0  0  0  0  0  0  0
   10.8327  -21.0266   24.7143 C   0  0  0  0  0  0  0  0  0  0  0  0
    9.4513  -21.4767   24.6178 N   0  0  0  0  0  0  0  0  0  0  0  0
   12.4360  -15.9908   21.5079 C   0  0  0  0  0  0  0  0  0  0  0  0
   13.6022  -15.6798   21.7932 O   0  0  0  0  0  0  0  0  0  0  0  0
   11.8923  -15.6695   20.2806 O   0  0  0  0  0  0  0  0  0  0  0  0
  2  1  1  1
  2 10  1  0
  2  3  1  0
  3  4  1  0
  4  5  2  0
  4  9  1  0
  5  6  1  0
  6  7  2  0
  8  7  1  0
  9  8  2  0
 10 12  1  0
 11 10  2  0
 13 12  1  0
 13 14  1  1
 13 16  1  0
 14 15  1  0
 16 18  1  0
 16 17  2  0
 18 19  1  0
 19 25  1  0
 19 20  1  6
 21 20  1  0
 22 21  1  0
 23 22  1  0
 24 23  1  0
 25 26  2  0
 25 27  1  0
M  END
$$$$
