FCK.pdb
     RDKit          3D

 27 27  0  0  1  0  0  0  0  0999 V2000
    6.4655  -16.8070   25.9187 N   0  0  0  0  0  0  0  0  0  0  0  0
    6.9905  -15.7083   25.1630 C   0  0  1  0  0  0  0  0  0  0  0  0
    7.9498  -14.8987   26.0089 C   0  0  0  0  0  0  0  0  0  0  0  0
    7.2325  -13.6870   26.4729 C   0  0  0  0  0  0  0  0  0  0  0  0
    5.9098  -13.4856   26.1464 C   0  0  0  0  0  0  0  0  0  0  0  0
    5.2321  -12.3572   26.5726 C   0  0  0  0  0  0  0  0  0  0  0  0
    5.8877  -11.3950   27.3490 C   0  0  0  0  0  0  0  0  0  0  0  0
    7.2002  -11.6129   27.6624 C   0  0  0  0  0  0  0  0  0  0  0  0
    7.8758  -12.7521   27.2292 C   0  0  0  0  0  0  0  0  0  0  0  0
    7.6657  -16.2296   23.9375 C   0  0  0  0  0  0  0  0  0  0  0  0
    8.1841  -17.3737   23.8913 O   0  0  0  0  0  0  0  0  0  0  0  0
    7.7635  -15.4488   22.7277 N   0  0  0  0  0  0  0  0  0  0  0  0
    8.6960  -15.8015   21.6789 C   0  0  1  0  0  0  0  0  0  0  0  0
    8.5555  -14.8821   20.4808 C   0  0  0  0  0  0  0  0  0  0  0  0
    6.8366  -14.8642   19.8776 S   0  0  0  0  0  0  0  0  0  0  0  0
   10.0776  -15.9172   22.1544 C   0  0  0  0  0  0  0  0  0  0  0  0
   10.4854  -15.1699   23.1039 O   0  0  0  0  0  0  0  0  0  0  0  0
   11.0428  -16.8037   21.6526 N   0  0  0  0  0  0  0  0  0  0  0  0
   12.1636  -17.3695   22.2820 C   0  0  1  0  0  0  0  0  0  0  0  0
   12.0389  -18.7604   22.7967 C   0  0  0  0  0  0  0  0  0  0  0  0
   13.2630  -19.2663   23.5192 C   0  0  0  0  0  0  0  0  0  0  0  0
   13.0247  -20.6485   24.0647 C   0  0  0  0  0  0  0  0  0  0  0  0
   14.2118  -21.2372   24.7850 C   0  0  0  0  0  0  0  0  0  0  0  0
   13.9353  -22.6083   25.1899 N   0  0  0  0  0  0  0  0  0  0  0  0
   13.3248  -17.3515   21.3549 C   0  0  0  0  0  0  0  0  0  0  0  0
   14.4109  -16.9115   21.7609 O   0  0  0  0  0  0  0  0  0  0  0  0
   13.1830  -17.8205   20.0645 O   0  0  0  0  0  0  0  0  0  0  0  0
  2  1  1  1
  2 10  1  0
  2  3  1  0
  3  4  1  0
  4  5  2  0
  4  9  1  0
  5  6  1  0
  6  7  2  0
  8  7  1  0
  9  8  2  0
 10 12  1  0
 11 10  2  0
 13 12  1  0
 13 14  1  6
 13 16  1  0
 14 15  1  0
 16 18  1  0
 16 17  2  0
 18 19  1  0
 19 25  1  0
 19 20  1  6
 21 20  1  0
 22 21  1  0
 23 22  1  0
 24 23  1  0
 25 26  2  0
 25 27  1  0
M  END
$$$$
