FCK.pdb
     RDKit          3D

 27 27  0  0  1  0  0  0  0  0999 V2000
    5.9080  -18.1686   25.6257 N   0  0  0  0  0  0  0  0  0  0  0  0
    6.3350  -16.8030   25.5443 C   0  0  1  0  0  0  0  0  0  0  0  0
    6.8023  -16.3162   26.8992 C   0  0  0  0  0  0  0  0  0  0  0  0
    6.9385  -14.8415   26.8282 C   0  0  0  0  0  0  0  0  0  0  0  0
    5.8326  -14.0280   26.9382 C   0  0  0  0  0  0  0  0  0  0  0  0
    5.9489  -12.6510   26.8713 C   0  0  0  0  0  0  0  0  0  0  0  0
    7.2041  -12.0596   26.6889 C   0  0  0  0  0  0  0  0  0  0  0  0
    8.2891  -12.8839   26.5818 C   0  0  0  0  0  0  0  0  0  0  0  0
    8.1638  -14.2700   26.6502 C   0  0  0  0  0  0  0  0  0  0  0  0
    7.4228  -16.6853   24.5283 C   0  0  0  0  0  0  0  0  0  0  0  0
    8.3980  -17.4777   24.4934 O   0  0  0  0  0  0  0  0  0  0  0  0
    7.4198  -15.6518   23.5211 N   0  0  0  0  0  0  0  0  0  0  0  0
    8.4570  -15.5802   22.5145 C   0  0  1  0  0  0  0  0  0  0  0  0
    8.1574  -14.5064   21.4861 C   0  0  0  0  0  0  0  0  0  0  0  0
    9.4201  -14.4983   20.1729 S   0  0  0  0  0  0  0  0  0  0  0  0
    9.8029  -15.4694   23.0842 C   0  0  0  0  0  0  0  0  0  0  0  0
   10.1085  -14.4556   23.7950 O   0  0  0  0  0  0  0  0  0  0  0  0
   10.8377  -16.4035   22.9230 N   0  0  0  0  0  0  0  0  0  0  0  0
   12.1673  -16.3653   23.3739 C   0  0  1  0  0  0  0  0  0  0  0  0
   12.7474  -17.6209   23.9233 C   0  0  0  0  0  0  0  0  0  0  0  0
   11.8855  -18.3013   24.9581 C   0  0  0  0  0  0  0  0  0  0  0  0
   12.5126  -19.5944   25.4050 C   0  0  0  0  0  0  0  0  0  0  0  0
   11.6502  -20.4034   26.3411 C   0  0  0  0  0  0  0  0  0  0  0  0
   12.3042  -21.6591   26.6815 N   0  0  0  0  0  0  0  0  0  0  0  0
   13.0601  -15.9193   22.2729 C   0  0  0  0  0  0  0  0  0  0  0  0
   12.6060  -15.8529   21.1208 O   0  0  0  0  0  0  0  0  0  0  0  0
   14.3724  -15.5868   22.5423 O   0  0  0  0  0  0  0  0  0  0  0  0
  2  1  1  1
  2 10  1  0
  2  3  1  0
  3  4  1  0
  4  5  2  0
  4  9  1  0
  5  6  1  0
  6  7  2  0
  8  7  1  0
  9  8  2  0
 10 12  1  0
 11 10  2  0
 13 12  1  0
 13 14  1  6
 13 16  1  0
 14 15  1  0
 16 18  1  0
 16 17  2  0
 18 19  1  0
 19 25  1  0
 19 20  1  6
 21 20  1  0
 22 21  1  0
 23 22  1  0
 24 23  1  0
 25 26  2  0
 25 27  1  0
M  END
$$$$
