PDS.pdb
     RDKit          3D

 22 22  0  0  1  0  0  0  0  0999 V2000
   22.1074   -9.5667  -16.1663 N   0  0  0  0  0  0  0  0  0  0  0  0
   23.1951  -10.5128  -16.3297 C   0  0  0  0  0  0  0  0  0  0  0  0
   23.8713  -10.5263  -14.9758 C   0  0  0  0  0  0  0  0  0  0  0  0
   22.7823  -10.1738  -13.9799 C   0  0  0  0  0  0  0  0  0  0  0  0
   21.5988   -9.7661  -14.8250 C   0  0  1  0  0  0  0  0  0  0  0  0
   21.0067   -8.4784  -14.3852 C   0  0  0  0  0  0  0  0  0  0  0  0
   20.5467   -8.3306  -13.2251 O   0  0  0  0  0  0  0  0  0  0  0  0
   20.9218   -7.3422  -15.2344 N   0  0  0  0  0  0  0  0  0  0  0  0
   20.3502   -6.0711  -14.8224 C   0  0  1  0  0  0  0  0  0  0  0  0
   21.4006   -5.0299  -15.1330 C   0  0  0  0  0  0  0  0  0  0  0  0
   22.4990   -4.9744  -14.1672 C   0  0  0  0  0  0  0  0  0  0  0  0
   22.2434   -4.7404  -12.9643 O   0  0  0  0  0  0  0  0  0  0  0  0
   19.1261   -5.8192  -15.6264 C   0  0  0  0  0  0  0  0  0  0  0  0
   19.1142   -5.9881  -16.8589 O   0  0  0  0  0  0  0  0  0  0  0  0
   23.8054   -5.1727  -14.5507 O   0  0  0  0  0  0  0  0  0  0  0  0
   15.7797   -7.1345  -14.7736 O   0  0  0  0  0  0  0  0  0  0  0  0
   15.5285   -5.7811  -15.0814 C   0  0  0  0  0  0  0  0  0  0  0  0
   16.7258   -5.1980  -15.8265 C   0  0  2  0  0  0  0  0  0  0  0  0
   17.9040   -5.3695  -15.0099 N   0  0  0  0  0  0  0  0  0  0  0  0
   16.4100   -3.7657  -16.0553 C   0  0  0  0  0  0  0  0  0  0  0  0
   17.1359   -2.9077  -15.4980 O   0  0  0  0  0  0  0  0  0  0  0  0
   15.3631   -3.3452  -16.8473 O   0  0  0  0  0  0  0  0  0  0  0  0
  2  1  1  0
  3  4  1  0
  3  2  1  0
  4  5  1  0
  5  6  1  1
  5  1  1  0
  6  7  2  0
  8  9  1  0
  8  6  1  0
  9 13  1  0
 10 11  1  0
  9 10  1  6
 11 12  2  0
 13 19  1  0
 13 14  2  0
 15 11  1  0
 16 17  1  0
 18 20  1  0
 18 17  1  1
 19 18  1  0
 20 22  1  0
 21 20  2  0
M  END
$$$$
