PDS.pdb
     RDKit          3D

 22 22  0  0  1  0  0  0  0  0999 V2000
   21.5559  -12.2131  -17.4148 N   0  0  0  0  0  0  0  0  0  0  0  0
   21.5373  -13.6255  -17.7456 C   0  0  0  0  0  0  0  0  0  0  0  0
   20.1885  -13.8273  -18.4018 C   0  0  0  0  0  0  0  0  0  0  0  0
   19.8398  -12.4875  -19.0224 C   0  0  0  0  0  0  0  0  0  0  0  0
   20.8936  -11.5348  -18.5097 C   0  0  1  0  0  0  0  0  0  0  0  0
   20.3084  -10.2861  -17.9614 C   0  0  0  0  0  0  0  0  0  0  0  0
   19.6833   -9.4783  -18.6936 O   0  0  0  0  0  0  0  0  0  0  0  0
   20.4137   -9.9256  -16.5910 N   0  0  0  0  0  0  0  0  0  0  0  0
   19.8446   -8.7103  -16.0329 C   0  0  1  0  0  0  0  0  0  0  0  0
   18.9767   -9.1569  -14.8792 C   0  0  0  0  0  0  0  0  0  0  0  0
   17.6088   -9.5157  -15.2570 C   0  0  0  0  0  0  0  0  0  0  0  0
   17.1076   -9.0116  -16.2875 O   0  0  0  0  0  0  0  0  0  0  0  0
   20.9522   -7.8522  -15.5381 C   0  0  0  0  0  0  0  0  0  0  0  0
   21.9538   -8.3414  -14.9854 O   0  0  0  0  0  0  0  0  0  0  0  0
   16.8612  -10.3931  -14.5059 O   0  0  0  0  0  0  0  0  0  0  0  0
   23.3404   -3.6976  -15.6804 O   0  0  0  0  0  0  0  0  0  0  0  0
   22.2304   -4.4490  -16.1195 C   0  0  0  0  0  0  0  0  0  0  0  0
   22.0108   -5.6301  -15.1785 C   0  0  2  0  0  0  0  0  0  0  0  0
   20.9102   -6.4189  -15.6791 N   0  0  0  0  0  0  0  0  0  0  0  0
   21.7169   -5.0454  -13.8461 C   0  0  0  0  0  0  0  0  0  0  0  0
   20.5336   -4.7091  -13.6002 O   0  0  0  0  0  0  0  0  0  0  0  0
   22.6811   -4.8595  -12.8788 O   0  0  0  0  0  0  0  0  0  0  0  0
  2  1  1  0
  3  4  1  0
  3  2  1  0
  4  5  1  0
  5  6  1  1
  5  1  1  0
  6  7  2  0
  8  9  1  0
  8  6  1  0
  9 13  1  0
 10 11  1  0
  9 10  1  1
 11 12  2  0
 13 19  1  0
 13 14  2  0
 15 11  1  0
 16 17  1  0
 18 20  1  0
 18 17  1  6
 19 18  1  0
 20 22  1  0
 21 20  2  0
M  END
$$$$
