PDS.pdb
     RDKit          3D

 22 22  0  0  1  0  0  0  0  0999 V2000
   27.2891  -20.9949  -15.2083 N   0  0  0  0  0  0  0  0  0  0  0  0
   28.5631  -20.3801  -15.5303 C   0  0  0  0  0  0  0  0  0  0  0  0
   28.1892  -18.9859  -15.9853 C   0  0  0  0  0  0  0  0  0  0  0  0
   26.8962  -18.6609  -15.2611 C   0  0  0  0  0  0  0  0  0  0  0  0
   26.4827  -19.9556  -14.6025 C   0  0  1  0  0  0  0  0  0  0  0  0
   25.0619  -20.2948  -14.8647 C   0  0  0  0  0  0  0  0  0  0  0  0
   24.7356  -21.0827  -15.7878 O   0  0  0  0  0  0  0  0  0  0  0  0
   23.9906  -19.7595  -14.1000 N   0  0  0  0  0  0  0  0  0  0  0  0
   22.5905  -20.0400  -14.3705 C   0  0  1  0  0  0  0  0  0  0  0  0
   21.8957  -19.9870  -13.0295 C   0  0  0  0  0  0  0  0  0  0  0  0
   21.2675  -21.2457  -12.6255 C   0  0  0  0  0  0  0  0  0  0  0  0
   20.8270  -21.3619  -11.4594 O   0  0  0  0  0  0  0  0  0  0  0  0
   22.0588  -18.9790  -15.2648 C   0  0  0  0  0  0  0  0  0  0  0  0
   22.2736  -17.7743  -15.0400 O   0  0  0  0  0  0  0  0  0  0  0  0
   21.1505  -22.3040  -13.4967 O   0  0  0  0  0  0  0  0  0  0  0  0
   19.9681  -17.7997  -19.4860 O   0  0  0  0  0  0  0  0  0  0  0  0
   20.4199  -18.8287  -18.6337 C   0  0  0  0  0  0  0  0  0  0  0  0
   20.8049  -18.2368  -17.2808 C   0  0  2  0  0  0  0  0  0  0  0  0
   21.2736  -19.3035  -16.4284 N   0  0  0  0  0  0  0  0  0  0  0  0
   19.5765  -17.5962  -16.7476 C   0  0  0  0  0  0  0  0  0  0  0  0
   18.8344  -18.2789  -16.0015 O   0  0  0  0  0  0  0  0  0  0  0  0
   19.2229  -16.2955  -17.0358 O   0  0  0  0  0  0  0  0  0  0  0  0
  2  1  1  0
  3  4  1  0
  3  2  1  0
  4  5  1  0
  5  6  1  6
  5  1  1  0
  6  7  2  0
  8  9  1  0
  8  6  1  0
  9 13  1  0
 10 11  1  0
  9 10  1  1
 11 12  2  0
 13 19  1  0
 13 14  2  0
 15 11  1  0
 16 17  1  0
 18 20  1  0
 18 17  1  6
 19 18  1  0
 20 22  1  0
 21 20  2  0
M  END
$$$$
