PDS.pdb
     RDKit          3D

 22 22  0  0  1  0  0  0  0  0999 V2000
   25.1850  -21.1652  -13.0945 N   0  0  0  0  0  0  0  0  0  0  0  0
   26.4278  -21.9095  -13.1744 C   0  0  0  0  0  0  0  0  0  0  0  0
   26.3322  -22.6352  -14.4991 C   0  0  0  0  0  0  0  0  0  0  0  0
   25.4446  -21.7657  -15.3697 C   0  0  0  0  0  0  0  0  0  0  0  0
   24.9039  -20.7062  -14.4390 C   0  0  1  0  0  0  0  0  0  0  0  0
   23.4321  -20.5531  -14.5507 C   0  0  0  0  0  0  0  0  0  0  0  0
   22.8925  -20.1625  -15.6164 O   0  0  0  0  0  0  0  0  0  0  0  0
   22.5467  -20.8344  -13.4754 N   0  0  0  0  0  0  0  0  0  0  0  0
   21.0989  -20.7874  -13.5923 C   0  0  1  0  0  0  0  0  0  0  0  0
   20.5671  -21.5570  -12.4054 C   0  0  0  0  0  0  0  0  0  0  0  0
   19.8715  -22.7970  -12.7530 C   0  0  0  0  0  0  0  0  0  0  0  0
   18.8304  -23.1083  -12.1314 O   0  0  0  0  0  0  0  0  0  0  0  0
   20.6633  -19.3686  -13.5194 C   0  0  0  0  0  0  0  0  0  0  0  0
   21.0171  -18.6294  -12.5833 O   0  0  0  0  0  0  0  0  0  0  0  0
   20.3355  -23.6286  -13.7460 O   0  0  0  0  0  0  0  0  0  0  0  0
   19.3304  -15.3854  -15.7263 O   0  0  0  0  0  0  0  0  0  0  0  0
   19.4867  -16.7837  -15.8251 C   0  0  0  0  0  0  0  0  0  0  0  0
   19.4448  -17.4004  -14.4298 C   0  0  2  0  0  0  0  0  0  0  0  0
   19.8139  -18.7924  -14.5306 N   0  0  0  0  0  0  0  0  0  0  0  0
   18.0525  -17.2267  -13.9450 C   0  0  0  0  0  0  0  0  0  0  0  0
   17.1993  -18.0788  -14.2910 O   0  0  0  0  0  0  0  0  0  0  0  0
   17.6639  -16.1786  -13.1385 O   0  0  0  0  0  0  0  0  0  0  0  0
  2  1  1  0
  3  4  1  0
  3  2  1  0
  4  5  1  0
  5  6  1  1
  5  1  1  0
  6  7  2  0
  8  9  1  0
  8  6  1  0
  9 13  1  0
 10 11  1  0
  9 10  1  1
 11 12  2  0
 13 19  1  0
 13 14  2  0
 15 11  1  0
 16 17  1  0
 18 20  1  0
 18 17  1  6
 19 18  1  0
 20 22  1  0
 21 20  2  0
M  END
$$$$
