PDS.pdb
     RDKit          3D

 22 22  0  0  1  0  0  0  0  0999 V2000
   30.4083  -11.5069  -17.6939 N   0  0  0  0  0  0  0  0  0  0  0  0
   29.9991  -12.8059  -18.1938 C   0  0  0  0  0  0  0  0  0  0  0  0
   31.0890  -13.1769  -19.1762 C   0  0  0  0  0  0  0  0  0  0  0  0
   32.3345  -12.4660  -18.6809 C   0  0  0  0  0  0  0  0  0  0  0  0
   31.8509  -11.5575  -17.5757 C   0  0  1  0  0  0  0  0  0  0  0  0
   32.3516  -10.1686  -17.7255 C   0  0  0  0  0  0  0  0  0  0  0  0
   33.5820   -9.9157  -17.7638 O   0  0  0  0  0  0  0  0  0  0  0  0
   31.4854   -9.0474  -17.8348 N   0  0  0  0  0  0  0  0  0  0  0  0
   31.9547   -7.6788  -17.9718 C   0  0  1  0  0  0  0  0  0  0  0  0
   30.7410   -6.8669  -18.3613 C   0  0  0  0  0  0  0  0  0  0  0  0
   30.2444   -7.1344  -19.7119 C   0  0  0  0  0  0  0  0  0  0  0  0
   31.0621   -7.2370  -20.6543 O   0  0  0  0  0  0  0  0  0  0  0  0
   32.4755   -7.2225  -16.6571 C   0  0  0  0  0  0  0  0  0  0  0  0
   31.8352   -7.4080  -15.6066 O   0  0  0  0  0  0  0  0  0  0  0  0
   28.9003   -7.2749  -19.9700 O   0  0  0  0  0  0  0  0  0  0  0  0
   35.8948   -7.0038  -13.6364 O   0  0  0  0  0  0  0  0  0  0  0  0
   35.4215   -7.2154  -14.9481 C   0  0  0  0  0  0  0  0  0  0  0  0
   34.2724   -6.2534  -15.2359 C   0  0  2  0  0  0  0  0  0  0  0  0
   33.7435   -6.5472  -16.5467 N   0  0  0  0  0  0  0  0  0  0  0  0
   34.8505   -4.8882  -15.1614 C   0  0  0  0  0  0  0  0  0  0  0  0
   35.3956   -4.4240  -16.1915 O   0  0  0  0  0  0  0  0  0  0  0  0
   34.8124   -4.1184  -14.0186 O   0  0  0  0  0  0  0  0  0  0  0  0
  2  1  1  0
  3  4  1  0
  3  2  1  0
  4  5  1  0
  5  6  1  6
  5  1  1  0
  6  7  2  0
  8  9  1  0
  8  6  1  0
  9 13  1  0
 10 11  1  0
  9 10  1  1
 11 12  2  0
 13 19  1  0
 13 14  2  0
 15 11  1  0
 16 17  1  0
 18 20  1  0
 18 17  1  6
 19 18  1  0
 20 22  1  0
 21 20  2  0
M  END
$$$$
