PDS.pdb
     RDKit          3D

 22 22  0  0  1  0  0  0  0  0999 V2000
   22.9028  -11.9639  -17.4831 N   0  0  0  0  0  0  0  0  0  0  0  0
   23.4180  -12.9669  -18.3959 C   0  0  0  0  0  0  0  0  0  0  0  0
   22.8099  -12.5908  -19.7298 C   0  0  0  0  0  0  0  0  0  0  0  0
   22.5883  -11.0914  -19.6612 C   0  0  0  0  0  0  0  0  0  0  0  0
   22.8749  -10.7207  -18.2255 C   0  0  1  0  0  0  0  0  0  0  0  0
   21.8039   -9.8811  -17.6337 C   0  0  0  0  0  0  0  0  0  0  0  0
   21.5197   -8.7518  -18.1060 O   0  0  0  0  0  0  0  0  0  0  0  0
   21.0385  -10.2924  -16.5093 N   0  0  0  0  0  0  0  0  0  0  0  0
   19.9374   -9.5194  -15.9596 C   0  0  1  0  0  0  0  0  0  0  0  0
   18.9231  -10.5333  -15.4831 C   0  0  0  0  0  0  0  0  0  0  0  0
   18.1896  -11.2037  -16.5578 C   0  0  0  0  0  0  0  0  0  0  0  0
   17.7257  -10.5209  -17.4991 O   0  0  0  0  0  0  0  0  0  0  0  0
   20.4438   -8.7234  -14.8116 C   0  0  0  0  0  0  0  0  0  0  0  0
   21.4058   -9.1141  -14.1262 O   0  0  0  0  0  0  0  0  0  0  0  0
   17.9974  -12.5660  -16.5573 O   0  0  0  0  0  0  0  0  0  0  0  0
   22.5396   -5.1456  -13.6592 O   0  0  0  0  0  0  0  0  0  0  0  0
   21.8676   -6.1617  -14.3702 C   0  0  0  0  0  0  0  0  0  0  0  0
   20.5870   -6.5388  -13.6307 C   0  0  2  0  0  0  0  0  0  0  0  0
   19.8407   -7.4668  -14.4467 N   0  0  0  0  0  0  0  0  0  0  0  0
   19.8488   -5.2694  -13.4131 C   0  0  0  0  0  0  0  0  0  0  0  0
   19.0736   -4.8780  -14.3184 O   0  0  0  0  0  0  0  0  0  0  0  0
   19.9790   -4.5122  -12.2687 O   0  0  0  0  0  0  0  0  0  0  0  0
  2  1  1  0
  3  4  1  0
  3  2  1  0
  4  5  1  0
  5  6  1  1
  5  1  1  0
  6  7  2  0
  8  9  1  0
  8  6  1  0
  9 13  1  0
 10 11  1  0
  9 10  1  1
 11 12  2  0
 13 19  1  0
 13 14  2  0
 15 11  1  0
 16 17  1  0
 18 20  1  0
 18 17  1  6
 19 18  1  0
 20 22  1  0
 21 20  2  0
M  END
$$$$
