PDS.pdb
     RDKit          3D

 22 22  0  0  1  0  0  0  0  0999 V2000
   19.9327   -9.8505  -17.2684 N   0  0  0  0  0  0  0  0  0  0  0  0
   20.2274  -11.1521  -17.8374 C   0  0  0  0  0  0  0  0  0  0  0  0
   20.7212  -11.9611  -16.6575 C   0  0  0  0  0  0  0  0  0  0  0  0
   20.0438  -11.3541  -15.4432 C   0  0  0  0  0  0  0  0  0  0  0  0
   19.3727  -10.1023  -15.9568 C   0  0  1  0  0  0  0  0  0  0  0  0
   19.6718   -8.9154  -15.1177 C   0  0  0  0  0  0  0  0  0  0  0  0
   19.2788   -8.8387  -13.9264 O   0  0  0  0  0  0  0  0  0  0  0  0
   20.4128   -7.8021  -15.5980 N   0  0  0  0  0  0  0  0  0  0  0  0
   20.6143   -6.5809  -14.8363 C   0  0  1  0  0  0  0  0  0  0  0  0
   22.1004   -6.5029  -14.5733 C   0  0  0  0  0  0  0  0  0  0  0  0
   22.5226   -5.3031  -13.8490 C   0  0  0  0  0  0  0  0  0  0  0  0
   23.2864   -4.4867  -14.4123 O   0  0  0  0  0  0  0  0  0  0  0  0
   20.1800   -5.4275  -15.6664 C   0  0  0  0  0  0  0  0  0  0  0  0
   20.5202   -5.3225  -16.8586 O   0  0  0  0  0  0  0  0  0  0  0  0
   22.1005   -5.0522  -12.5638 O   0  0  0  0  0  0  0  0  0  0  0  0
   16.8793   -4.2872  -16.4991 O   0  0  0  0  0  0  0  0  0  0  0  0
   17.4633   -3.1263  -15.9508 C   0  0  0  0  0  0  0  0  0  0  0  0
   18.9827   -3.2672  -15.9616 C   0  0  2  0  0  0  0  0  0  0  0  0
   19.3472   -4.3847  -15.1234 N   0  0  0  0  0  0  0  0  0  0  0  0
   19.5185   -1.9836  -15.4431 C   0  0  0  0  0  0  0  0  0  0  0  0
   20.1511   -2.0057  -14.3600 O   0  0  0  0  0  0  0  0  0  0  0  0
   19.3513   -0.7817  -16.0970 O   0  0  0  0  0  0  0  0  0  0  0  0
  2  1  1  0
  3  4  1  0
  3  2  1  0
  4  5  1  0
  5  6  1  1
  5  1  1  0
  6  7  2  0
  8  9  1  0
  8  6  1  0
  9 13  1  0
 10 11  1  0
  9 10  1  6
 11 12  2  0
 13 19  1  0
 13 14  2  0
 15 11  1  0
 16 17  1  0
 18 20  1  0
 18 17  1  1
 19 18  1  0
 20 22  1  0
 21 20  2  0
M  END
$$$$
