PDS.pdb
     RDKit          3D

 22 22  0  0  1  0  0  0  0  0999 V2000
   27.2364  -21.3655  -15.7791 N   0  0  0  0  0  0  0  0  0  0  0  0
   28.3275  -21.9084  -16.5661 C   0  0  0  0  0  0  0  0  0  0  0  0
   28.6432  -20.8087  -17.5568 C   0  0  0  0  0  0  0  0  0  0  0  0
   28.2437  -19.5187  -16.8652 C   0  0  0  0  0  0  0  0  0  0  0  0
   27.5238  -19.9559  -15.6115 C   0  0  1  0  0  0  0  0  0  0  0  0
   26.2240  -19.2620  -15.4347 C   0  0  0  0  0  0  0  0  0  0  0  0
   26.1611  -18.0159  -15.2840 O   0  0  0  0  0  0  0  0  0  0  0  0
   24.9808  -19.9503  -15.4246 N   0  0  0  0  0  0  0  0  0  0  0  0
   23.7010  -19.2962  -15.2095 C   0  0  1  0  0  0  0  0  0  0  0  0
   23.2184  -18.8802  -16.5799 C   0  0  0  0  0  0  0  0  0  0  0  0
   21.9341  -18.1780  -16.5796 C   0  0  0  0  0  0  0  0  0  0  0  0
   21.2346  -18.1837  -17.6178 O   0  0  0  0  0  0  0  0  0  0  0  0
   22.7606  -20.2796  -14.6123 C   0  0  0  0  0  0  0  0  0  0  0  0
   22.6755  -21.4419  -15.0478 O   0  0  0  0  0  0  0  0  0  0  0  0
   21.4783  -17.5115  -15.4657 O   0  0  0  0  0  0  0  0  0  0  0  0
   19.7444  -21.4795  -11.0122 O   0  0  0  0  0  0  0  0  0  0  0  0
   20.6472  -20.5338  -11.5415 C   0  0  0  0  0  0  0  0  0  0  0  0
   20.9928  -20.9095  -12.9796 C   0  0  2  0  0  0  0  0  0  0  0  0
   21.9100  -19.9259  -13.5044 N   0  0  0  0  0  0  0  0  0  0  0  0
   19.7070  -20.9241  -13.7213 C   0  0  0  0  0  0  0  0  0  0  0  0
   19.2518  -19.8288  -14.1297 O   0  0  0  0  0  0  0  0  0  0  0  0
   19.0011  -22.0802  -13.9768 O   0  0  0  0  0  0  0  0  0  0  0  0
  2  1  1  0
  3  4  1  0
  3  2  1  0
  4  5  1  0
  5  6  1  6
  5  1  1  0
  6  7  2  0
  8  9  1  0
  8  6  1  0
  9 13  1  0
 10 11  1  0
  9 10  1  6
 11 12  2  0
 13 19  1  0
 13 14  2  0
 15 11  1  0
 16 17  1  0
 18 20  1  0
 18 17  1  1
 19 18  1  0
 20 22  1  0
 21 20  2  0
M  END
$$$$
