PDS.pdb
     RDKit          3D

 22 22  0  0  1  0  0  0  0  0999 V2000
   22.5746  -13.0007  -14.9319 N   0  0  0  0  0  0  0  0  0  0  0  0
   22.7538  -14.4395  -14.9841 C   0  0  0  0  0  0  0  0  0  0  0  0
   23.6149  -14.6540  -16.2101 C   0  0  0  0  0  0  0  0  0  0  0  0
   24.4244  -13.3795  -16.3600 C   0  0  0  0  0  0  0  0  0  0  0  0
   23.8347  -12.4229  -15.3510 C   0  0  1  0  0  0  0  0  0  0  0  0
   23.5330  -11.0947  -15.9402 C   0  0  0  0  0  0  0  0  0  0  0  0
   24.4302  -10.3952  -16.4742 O   0  0  0  0  0  0  0  0  0  0  0  0
   22.2277  -10.5330  -15.9404 N   0  0  0  0  0  0  0  0  0  0  0  0
   21.8865   -9.2915  -16.6143 C   0  0  1  0  0  0  0  0  0  0  0  0
   20.5309   -9.5247  -17.2404 C   0  0  0  0  0  0  0  0  0  0  0  0
   20.5459  -10.4266  -18.3930 C   0  0  0  0  0  0  0  0  0  0  0  0
   21.2942  -10.1667  -19.3624 O   0  0  0  0  0  0  0  0  0  0  0  0
   21.8025   -8.2091  -15.5998 C   0  0  0  0  0  0  0  0  0  0  0  0
   21.3863   -8.4309  -14.4484 O   0  0  0  0  0  0  0  0  0  0  0  0
   19.7565  -11.5526  -18.4363 O   0  0  0  0  0  0  0  0  0  0  0  0
   22.8954   -3.6249  -14.3700 O   0  0  0  0  0  0  0  0  0  0  0  0
   22.8554   -4.5964  -15.3918 C   0  0  0  0  0  0  0  0  0  0  0  0
   22.1994   -5.8675  -14.8601 C   0  0  2  0  0  0  0  0  0  0  0  0
   22.2002   -6.8592  -15.9092 N   0  0  0  0  0  0  0  0  0  0  0  0
   20.8233   -5.4829  -14.4578 C   0  0  0  0  0  0  0  0  0  0  0  0
   19.9563   -5.3759  -15.3580 O   0  0  0  0  0  0  0  0  0  0  0  0
   20.4637   -5.2416  -13.1491 O   0  0  0  0  0  0  0  0  0  0  0  0
  2  1  1  0
  3  4  1  0
  3  2  1  0
  4  5  1  0
  5  6  1  6
  5  1  1  0
  6  7  2  0
  8  9  1  0
  8  6  1  0
  9 13  1  0
 10 11  1  0
  9 10  1  1
 11 12  2  0
 13 19  1  0
 13 14  2  0
 15 11  1  0
 16 17  1  0
 18 20  1  0
 18 17  1  6
 19 18  1  0
 20 22  1  0
 21 20  2  0
M  END
$$$$
