PDS.pdb
     RDKit          3D

 22 22  0  0  1  0  0  0  0  0999 V2000
   17.8642  -11.1235  -15.3644 N   0  0  0  0  0  0  0  0  0  0  0  0
   17.4917  -12.5119  -15.5603 C   0  0  0  0  0  0  0  0  0  0  0  0
   18.3783  -12.9688  -16.6986 C   0  0  0  0  0  0  0  0  0  0  0  0
   19.6221  -12.1044  -16.6102 C   0  0  0  0  0  0  0  0  0  0  0  0
   19.2962  -11.0582  -15.5709 C   0  0  1  0  0  0  0  0  0  0  0  0
   19.6096   -9.6838  -16.0345 C   0  0  0  0  0  0  0  0  0  0  0  0
   20.7913   -9.3226  -16.2639 O   0  0  0  0  0  0  0  0  0  0  0  0
   18.6085   -8.6980  -16.2475 N   0  0  0  0  0  0  0  0  0  0  0  0
   18.8983   -7.3293  -16.6411 C   0  0  1  0  0  0  0  0  0  0  0  0
   17.6090   -6.7857  -17.2120 C   0  0  0  0  0  0  0  0  0  0  0  0
   17.6937   -5.4024  -17.6829 C   0  0  0  0  0  0  0  0  0  0  0  0
   17.1880   -4.4897  -16.9913 O   0  0  0  0  0  0  0  0  0  0  0  0
   19.2867   -6.5602  -15.4305 C   0  0  0  0  0  0  0  0  0  0  0  0
   18.7396   -6.7618  -14.3315 O   0  0  0  0  0  0  0  0  0  0  0  0
   18.3151   -5.0822  -18.8679 O   0  0  0  0  0  0  0  0  0  0  0  0
   22.8484   -6.0004  -14.4305 O   0  0  0  0  0  0  0  0  0  0  0  0
   21.7571   -5.7828  -13.5638 C   0  0  0  0  0  0  0  0  0  0  0  0
   20.7231   -4.9015  -14.2587 C   0  0  2  0  0  0  0  0  0  0  0  0
   20.3130   -5.5502  -15.4815 N   0  0  0  0  0  0  0  0  0  0  0  0
   21.3951   -3.6029  -14.5150 C   0  0  0  0  0  0  0  0  0  0  0  0
   21.5336   -3.2383  -15.7072 O   0  0  0  0  0  0  0  0  0  0  0  0
   21.8673   -2.7904  -13.5066 O   0  0  0  0  0  0  0  0  0  0  0  0
  2  1  1  0
  3  4  1  0
  3  2  1  0
  4  5  1  0
  5  6  1  6
  5  1  1  0
  6  7  2  0
  8  9  1  0
  8  6  1  0
  9 13  1  0
 10 11  1  0
  9 10  1  1
 11 12  2  0
 13 19  1  0
 13 14  2  0
 15 11  1  0
 16 17  1  0
 18 20  1  0
 18 17  1  6
 19 18  1  0
 20 22  1  0
 21 20  2  0
M  END
$$$$
