PDS.pdb
     RDKit          3D

 22 22  0  0  1  0  0  0  0  0999 V2000
   20.3959  -10.2284  -17.7513 N   0  0  0  0  0  0  0  0  0  0  0  0
   20.2857  -11.5919  -18.2347 C   0  0  0  0  0  0  0  0  0  0  0  0
   21.1159  -12.3930  -17.2551 C   0  0  0  0  0  0  0  0  0  0  0  0
   21.0582  -11.6176  -15.9523 C   0  0  0  0  0  0  0  0  0  0  0  0
   20.3856  -10.3123  -16.3055 C   0  0  1  0  0  0  0  0  0  0  0  0
   21.1306   -9.1355  -15.7933 C   0  0  0  0  0  0  0  0  0  0  0  0
   21.3554   -8.9851  -14.5660 O   0  0  0  0  0  0  0  0  0  0  0  0
   21.6333   -8.1145  -16.6443 N   0  0  0  0  0  0  0  0  0  0  0  0
   22.3863   -6.9672  -16.1662 C   0  0  1  0  0  0  0  0  0  0  0  0
   23.5147   -6.7778  -17.1534 C   0  0  0  0  0  0  0  0  0  0  0  0
   24.5474   -7.8135  -17.0951 C   0  0  0  0  0  0  0  0  0  0  0  0
   25.2009   -7.9656  -16.0382 O   0  0  0  0  0  0  0  0  0  0  0  0
   21.4945   -5.7785  -16.1739 C   0  0  0  0  0  0  0  0  0  0  0  0
   20.7737   -5.5154  -17.1532 O   0  0  0  0  0  0  0  0  0  0  0  0
   24.8170   -8.6228  -18.1745 O   0  0  0  0  0  0  0  0  0  0  0  0
   18.5220   -5.0959  -15.1308 O   0  0  0  0  0  0  0  0  0  0  0  0
   19.2350   -4.1551  -14.3588 C   0  0  0  0  0  0  0  0  0  0  0  0
   20.5172   -3.7650  -15.0885 C   0  0  2  0  0  0  0  0  0  0  0  0
   21.4290   -4.8835  -15.0467 N   0  0  0  0  0  0  0  0  0  0  0  0
   21.0543   -2.5810  -14.3719 C   0  0  0  0  0  0  0  0  0  0  0  0
   22.1435   -2.7073  -13.7626 O   0  0  0  0  0  0  0  0  0  0  0  0
   20.4116   -1.3619  -14.3499 O   0  0  0  0  0  0  0  0  0  0  0  0
  2  1  1  0
  3  4  1  0
  3  2  1  0
  4  5  1  0
  5  6  1  1
  5  1  1  0
  6  7  2  0
  8  9  1  0
  8  6  1  0
  9 13  1  0
 10 11  1  0
  9 10  1  6
 11 12  2  0
 13 19  1  0
 13 14  2  0
 15 11  1  0
 16 17  1  0
 18 20  1  0
 18 17  1  1
 19 18  1  0
 20 22  1  0
 21 20  2  0
M  END
$$$$
