PDS.pdb
     RDKit          3D

 22 22  0  0  1  0  0  0  0  0999 V2000
   18.4230  -10.7026  -18.1436 N   0  0  0  0  0  0  0  0  0  0  0  0
   17.8288  -11.7511  -18.9512 C   0  0  0  0  0  0  0  0  0  0  0  0
   17.9683  -12.9918  -18.0957 C   0  0  0  0  0  0  0  0  0  0  0  0
   17.9691  -12.4930  -16.6628 C   0  0  0  0  0  0  0  0  0  0  0  0
   18.0492  -10.9890  -16.7740 C   0  0  1  0  0  0  0  0  0  0  0  0
   19.1032  -10.4128  -15.9027 C   0  0  0  0  0  0  0  0  0  0  0  0
   19.0578  -10.5316  -14.6524 O   0  0  0  0  0  0  0  0  0  0  0  0
   20.2191   -9.6986  -16.4166 N   0  0  0  0  0  0  0  0  0  0  0  0
   21.2846   -9.1646  -15.5849 C   0  0  1  0  0  0  0  0  0  0  0  0
   22.5409   -9.8854  -16.0162 C   0  0  0  0  0  0  0  0  0  0  0  0
   22.8034   -9.8316  -17.4551 C   0  0  0  0  0  0  0  0  0  0  0  0
   22.8892   -8.7173  -18.0192 O   0  0  0  0  0  0  0  0  0  0  0  0
   21.4116   -7.7088  -15.8542 C   0  0  0  0  0  0  0  0  0  0  0  0
   21.1122   -7.2260  -16.9611 O   0  0  0  0  0  0  0  0  0  0  0  0
   22.9573  -10.9767  -18.2021 O   0  0  0  0  0  0  0  0  0  0  0  0
   19.6971   -3.8802  -14.9233 O   0  0  0  0  0  0  0  0  0  0  0  0
   20.0395   -5.2469  -14.8562 C   0  0  0  0  0  0  0  0  0  0  0  0
   21.5554   -5.3969  -14.9477 C   0  0  2  0  0  0  0  0  0  0  0  0
   21.8863   -6.7982  -14.8435 N   0  0  0  0  0  0  0  0  0  0  0  0
   22.1155   -4.6069  -13.8226 C   0  0  0  0  0  0  0  0  0  0  0  0
   22.3117   -5.1951  -12.7321 O   0  0  0  0  0  0  0  0  0  0  0  0
   22.4257   -3.2679  -13.9270 O   0  0  0  0  0  0  0  0  0  0  0  0
  2  1  1  0
  3  4  1  0
  3  2  1  0
  4  5  1  0
  5  6  1  1
  5  1  1  0
  6  7  2  0
  8  9  1  0
  8  6  1  0
  9 13  1  0
 10 11  1  0
  9 10  1  6
 11 12  2  0
 13 19  1  0
 13 14  2  0
 15 11  1  0
 16 17  1  0
 18 20  1  0
 18 17  1  1
 19 18  1  0
 20 22  1  0
 21 20  2  0
M  END
$$$$
