TVE.pdb
     RDKit          3D

 24 23  0  0  1  0  0  0  0  0999 V2000
   17.1139  -11.4444  -18.3989 C   0  0  0  0  0  0  0  0  0  0  0  0
   17.8599  -10.6157  -17.4139 C   0  0  1  0  0  0  0  0  0  0  0  0
   17.0090   -9.9067  -16.6007 O   0  0  0  0  0  0  0  0  0  0  0  0
   18.7612  -11.4928  -16.5375 C   0  0  2  0  0  0  0  0  0  0  0  0
   17.9418  -12.3617  -15.7231 N   0  0  0  0  0  0  0  0  0  0  0  0
   19.5212  -10.5951  -15.6078 C   0  0  0  0  0  0  0  0  0  0  0  0
   19.0565  -10.2180  -14.5020 O   0  0  0  0  0  0  0  0  0  0  0  0
   23.6642   -9.9498  -16.2138 C   0  0  0  0  0  0  0  0  0  0  0  0
   22.9163   -9.8308  -14.9179 C   0  0  2  0  0  0  0  0  0  0  0  0
   22.9001  -11.1287  -14.1747 C   0  0  0  0  0  0  0  0  0  0  0  0
   21.5344   -9.2430  -15.0924 C   0  0  2  0  0  0  0  0  0  0  0  0
   20.8122  -10.1534  -15.9916 N   0  0  0  0  0  0  0  0  0  0  0  0
   21.5100   -7.8782  -15.6002 C   0  0  0  0  0  0  0  0  0  0  0  0
   21.6835   -7.5861  -16.8351 O   0  0  0  0  0  0  0  0  0  0  0  0
   21.2869   -6.7720  -14.7551 N   0  0  0  0  0  0  0  0  0  0  0  0
   21.3860   -5.4007  -15.3062 C   0  0  1  0  0  0  0  0  0  0  0  0
   19.9829   -4.8362  -15.0342 C   0  0  0  0  0  0  0  0  0  0  0  0
   19.8766   -3.3863  -15.3802 C   0  0  0  0  0  0  0  0  0  0  0  0
   18.4855   -2.9100  -15.0746 C   0  0  0  0  0  0  0  0  0  0  0  0
   18.2693   -1.9358  -14.3097 O   0  0  0  0  0  0  0  0  0  0  0  0
   22.4111   -4.6644  -14.5455 C   0  0  0  0  0  0  0  0  0  0  0  0
   23.0763   -3.5793  -15.1202 O   0  0  0  0  0  0  0  0  0  0  0  0
   17.4060   -3.5782  -15.6619 O   0  0  0  0  0  0  0  0  0  0  0  0
   22.6914   -5.0190  -13.3700 O   0  0  0  0  0  0  0  0  0  0  0  0
  2  1  1  6
  2  3  1  0
  4  5  1  1
  4  6  1  0
  4  2  1  0
  6  7  2  0
  9  8  1  6
  9 10  1  0
  9 11  1  0
 11 13  1  0
 12  6  1  0
 11 12  1  6
 13 14  2  0
 13 15  1  0
 15 16  1  0
 16 21  1  0
 16 17  1  1
 18 17  1  0
 19 20  2  0
 19 18  1  0
 21 24  2  0
 21 22  1  0
 23 19  1  0
M  END
$$$$
