TVE.pdb
     RDKit          3D

 24 23  0  0  1  0  0  0  0  0999 V2000
   28.5582  -12.2876  -15.6196 C   0  0  0  0  0  0  0  0  0  0  0  0
   27.3065  -11.5176  -15.8519 C   0  0  1  0  0  0  0  0  0  0  0  0
   27.5293  -10.4143  -16.6400 O   0  0  0  0  0  0  0  0  0  0  0  0
   26.2449  -12.3959  -16.5236 C   0  0  2  0  0  0  0  0  0  0  0  0
   26.7085  -12.7938  -17.8337 N   0  0  0  0  0  0  0  0  0  0  0  0
   25.0114  -11.5662  -16.7194 C   0  0  0  0  0  0  0  0  0  0  0  0
   24.7478  -10.9933  -17.8071 O   0  0  0  0  0  0  0  0  0  0  0  0
   20.4226  -10.7985  -15.3893 C   0  0  0  0  0  0  0  0  0  0  0  0
   21.7389  -11.5197  -15.4019 C   0  0  2  0  0  0  0  0  0  0  0  0
   22.0062  -12.1927  -14.0932 C   0  0  0  0  0  0  0  0  0  0  0  0
   22.8839  -10.6388  -15.8477 C   0  0  2  0  0  0  0  0  0  0  0  0
   24.1095  -11.4211  -15.6357 N   0  0  0  0  0  0  0  0  0  0  0  0
   22.9627   -9.3503  -15.1732 C   0  0  0  0  0  0  0  0  0  0  0  0
   23.3984   -9.2104  -13.9770 O   0  0  0  0  0  0  0  0  0  0  0  0
   22.5625   -8.1538  -15.8022 N   0  0  0  0  0  0  0  0  0  0  0  0
   22.6623   -6.8729  -15.0649 C   0  0  1  0  0  0  0  0  0  0  0  0
   22.3550   -5.8398  -16.1602 C   0  0  0  0  0  0  0  0  0  0  0  0
   22.3886   -4.4376  -15.6444 C   0  0  0  0  0  0  0  0  0  0  0  0
   22.0745   -3.4937  -16.7696 C   0  0  0  0  0  0  0  0  0  0  0  0
   21.8037   -3.9049  -17.9265 O   0  0  0  0  0  0  0  0  0  0  0  0
   21.6288   -6.8566  -14.0146 C   0  0  0  0  0  0  0  0  0  0  0  0
   20.3974   -7.4815  -14.2228 O   0  0  0  0  0  0  0  0  0  0  0  0
   22.0885   -2.1188  -16.5124 O   0  0  0  0  0  0  0  0  0  0  0  0
   21.8571   -6.2718  -12.9228 O   0  0  0  0  0  0  0  0  0  0  0  0
  2  1  1  6
  2  3  1  0
  4  5  1  6
  4  6  1  0
  4  2  1  0
  6  7  2  0
  9  8  1  1
  9 10  1  0
  9 11  1  0
 11 13  1  0
 12  6  1  0
 11 12  1  1
 13 14  2  0
 13 15  1  0
 15 16  1  0
 16 21  1  0
 16 17  1  6
 18 17  1  0
 19 20  2  0
 19 18  1  0
 21 24  2  0
 21 22  1  0
 23 19  1  0
M  END
$$$$
