TVE.pdb
     RDKit          3D

 24 23  0  0  1  0  0  0  0  0999 V2000
   26.4393  -17.7984  -14.7949 C   0  0  0  0  0  0  0  0  0  0  0  0
   27.0780  -18.7818  -15.7106 C   0  0  1  0  0  0  0  0  0  0  0  0
   28.0588  -18.1985  -16.4761 O   0  0  0  0  0  0  0  0  0  0  0  0
   27.6955  -19.9402  -14.9190 C   0  0  2  0  0  0  0  0  0  0  0  0
   28.3497  -20.8512  -15.8310 N   0  0  0  0  0  0  0  0  0  0  0  0
   26.5827  -20.6949  -14.2556 C   0  0  0  0  0  0  0  0  0  0  0  0
   25.8923  -21.5530  -14.8622 O   0  0  0  0  0  0  0  0  0  0  0  0
   25.2759  -19.9768  -10.0452 C   0  0  0  0  0  0  0  0  0  0  0  0
   25.5465  -21.2539  -10.7859 C   0  0  2  0  0  0  0  0  0  0  0  0
   26.9442  -21.7341  -10.5555 C   0  0  0  0  0  0  0  0  0  0  0  0
   25.1969  -21.1636  -12.2539 C   0  0  2  0  0  0  0  0  0  0  0  0
   26.2973  -20.4290  -12.8929 N   0  0  0  0  0  0  0  0  0  0  0  0
   23.9139  -20.5363  -12.5396 C   0  0  0  0  0  0  0  0  0  0  0  0
   23.6297  -19.3346  -12.1998 O   0  0  0  0  0  0  0  0  0  0  0  0
   22.8860  -21.2183  -13.2222 N   0  0  0  0  0  0  0  0  0  0  0  0
   21.5973  -20.5327  -13.4741 C   0  0  1  0  0  0  0  0  0  0  0  0
   21.5985  -20.3847  -15.0037 C   0  0  0  0  0  0  0  0  0  0  0  0
   20.3437  -19.7543  -15.5147 C   0  0  0  0  0  0  0  0  0  0  0  0
   20.4174  -19.6590  -17.0117 C   0  0  0  0  0  0  0  0  0  0  0  0
   21.4984  -19.4278  -17.6108 O   0  0  0  0  0  0  0  0  0  0  0  0
   20.5041  -21.4137  -13.0268 C   0  0  0  0  0  0  0  0  0  0  0  0
   20.6956  -22.7946  -12.9453 O   0  0  0  0  0  0  0  0  0  0  0  0
   19.2427  -19.8320  -17.7512 O   0  0  0  0  0  0  0  0  0  0  0  0
   19.3882  -20.9175  -12.7191 O   0  0  0  0  0  0  0  0  0  0  0  0
  2  1  1  1
  2  3  1  0
  4  5  1  6
  4  6  1  0
  4  2  1  0
  6  7  2  0
  9  8  1  6
  9 10  1  0
  9 11  1  0
 11 13  1  0
 12  6  1  0
 11 12  1  6
 13 14  2  0
 13 15  1  0
 15 16  1  0
 16 21  1  0
 16 17  1  6
 18 17  1  0
 19 20  2  0
 19 18  1  0
 21 24  2  0
 21 22  1  0
 23 19  1  0
M  END
$$$$
