TVE.pdb
     RDKit          3D

 24 23  0  0  1  0  0  0  0  0999 V2000
   28.8906   -8.7378  -19.7467 C   0  0  0  0  0  0  0  0  0  0  0  0
   29.0842  -10.1645  -20.1219 C   0  0  1  0  0  0  0  0  0  0  0  0
   30.3356  -10.3855  -20.6446 O   0  0  0  0  0  0  0  0  0  0  0  0
   28.8906  -11.0774  -18.9058 C   0  0  2  0  0  0  0  0  0  0  0  0
   29.1141  -12.4514  -19.2955 N   0  0  0  0  0  0  0  0  0  0  0  0
   27.4624  -10.9653  -18.4634 C   0  0  0  0  0  0  0  0  0  0  0  0
   26.5254  -11.5702  -19.0442 O   0  0  0  0  0  0  0  0  0  0  0  0
   26.6884   -9.9685  -14.5173 C   0  0  0  0  0  0  0  0  0  0  0  0
   25.8227  -10.7444  -15.4666 C   0  0  2  0  0  0  0  0  0  0  0  0
   26.1983  -12.1920  -15.4906 C   0  0  0  0  0  0  0  0  0  0  0  0
   25.7759  -10.1325  -16.8482 C   0  0  2  0  0  0  0  0  0  0  0  0
   27.1572  -10.1445  -17.3489 N   0  0  0  0  0  0  0  0  0  0  0  0
   25.2110   -8.7913  -16.9043 C   0  0  0  0  0  0  0  0  0  0  0  0
   25.9077   -7.7294  -16.7389 O   0  0  0  0  0  0  0  0  0  0  0  0
   23.8409   -8.5689  -17.1515 N   0  0  0  0  0  0  0  0  0  0  0  0
   23.3277   -7.1812  -17.2217 C   0  0  1  0  0  0  0  0  0  0  0  0
   22.4500   -7.2200  -18.4824 C   0  0  0  0  0  0  0  0  0  0  0  0
   21.7707   -5.9146  -18.7425 C   0  0  0  0  0  0  0  0  0  0  0  0
   20.9361   -6.0351  -19.9852 C   0  0  0  0  0  0  0  0  0  0  0  0
   21.1923   -6.8820  -20.8786 O   0  0  0  0  0  0  0  0  0  0  0  0
   22.5176   -6.9212  -16.0185 C   0  0  0  0  0  0  0  0  0  0  0  0
   22.2948   -5.6129  -15.5838 O   0  0  0  0  0  0  0  0  0  0  0  0
   19.8455   -5.1738  -20.1442 O   0  0  0  0  0  0  0  0  0  0  0  0
   22.0258   -7.8864  -15.3761 O   0  0  0  0  0  0  0  0  0  0  0  0
  2  1  1  1
  2  3  1  0
  4  5  1  6
  4  6  1  0
  4  2  1  0
  6  7  2  0
  9  8  1  1
  9 10  1  0
  9 11  1  0
 11 13  1  0
 12  6  1  0
 11 12  1  1
 13 14  2  0
 13 15  1  0
 15 16  1  0
 16 21  1  0
 16 17  1  6
 18 17  1  0
 19 20  2  0
 19 18  1  0
 21 24  2  0
 21 22  1  0
 23 19  1  0
M  END
$$$$
