TVE.pdb
     RDKit          3D

 24 23  0  0  1  0  0  0  0  0999 V2000
   19.3677  -10.0952  -19.5520 C   0  0  0  0  0  0  0  0  0  0  0  0
   18.5842  -11.2386  -19.0113 C   0  0  1  0  0  0  0  0  0  0  0  0
   17.9446  -11.9321  -20.0104 O   0  0  0  0  0  0  0  0  0  0  0  0
   19.4931  -12.2062  -18.2448 C   0  0  2  0  0  0  0  0  0  0  0  0
   18.7067  -13.3120  -17.7464 N   0  0  0  0  0  0  0  0  0  0  0  0
   20.0467  -11.4801  -17.0555 C   0  0  0  0  0  0  0  0  0  0  0  0
   19.3501  -11.2094  -16.0444 O   0  0  0  0  0  0  0  0  0  0  0  0
   24.1659  -10.2029  -14.7346 C   0  0  0  0  0  0  0  0  0  0  0  0
   23.2777  -11.0529  -15.5956 C   0  0  2  0  0  0  0  0  0  0  0  0
   23.9859  -11.5046  -16.8333 C   0  0  0  0  0  0  0  0  0  0  0  0
   21.9490  -10.3959  -15.8926 C   0  0  2  0  0  0  0  0  0  0  0  0
   21.4070  -11.0824  -17.0733 N   0  0  0  0  0  0  0  0  0  0  0  0
   22.0128   -8.9569  -16.1079 C   0  0  0  0  0  0  0  0  0  0  0  0
   22.4320   -8.4285  -17.1967 O   0  0  0  0  0  0  0  0  0  0  0  0
   21.6083   -8.0365  -15.1195 N   0  0  0  0  0  0  0  0  0  0  0  0
   21.6943   -6.5838  -15.3960 C   0  0  1  0  0  0  0  0  0  0  0  0
   20.2513   -6.2408  -15.7977 C   0  0  0  0  0  0  0  0  0  0  0  0
   20.0486   -4.7728  -15.9904 C   0  0  0  0  0  0  0  0  0  0  0  0
   18.5996   -4.5128  -16.2874 C   0  0  0  0  0  0  0  0  0  0  0  0
   17.8217   -4.0255  -15.4282 O   0  0  0  0  0  0  0  0  0  0  0  0
   22.0776   -5.8933  -14.1519 C   0  0  0  0  0  0  0  0  0  0  0  0
   22.6814   -4.6348  -14.1974 O   0  0  0  0  0  0  0  0  0  0  0  0
   18.1110   -4.8277  -17.5598 O   0  0  0  0  0  0  0  0  0  0  0  0
   21.8619   -6.4439  -13.0400 O   0  0  0  0  0  0  0  0  0  0  0  0
  2  1  1  6
  2  3  1  0
  4  5  1  1
  4  6  1  0
  4  2  1  0
  6  7  2  0
  9  8  1  6
  9 10  1  0
  9 11  1  0
 11 13  1  0
 12  6  1  0
 11 12  1  6
 13 14  2  0
 13 15  1  0
 15 16  1  0
 16 21  1  0
 16 17  1  1
 18 17  1  0
 19 20  2  0
 19 18  1  0
 21 24  2  0
 21 22  1  0
 23 19  1  0
M  END
$$$$
