TVE.pdb
     RDKit          3D

 24 23  0  0  1  0  0  0  0  0999 V2000
   17.9327  -14.7908  -13.9637 C   0  0  0  0  0  0  0  0  0  0  0  0
   17.8919  -13.4024  -14.4970 C   0  0  1  0  0  0  0  0  0  0  0  0
   19.0369  -13.0922  -15.1904 O   0  0  0  0  0  0  0  0  0  0  0  0
   16.6873  -13.2121  -15.4256 C   0  0  2  0  0  0  0  0  0  0  0  0
   16.8985  -13.9575  -16.6461 N   0  0  0  0  0  0  0  0  0  0  0  0
   16.6108  -11.7612  -15.7960 C   0  0  0  0  0  0  0  0  0  0  0  0
   17.1612  -11.2968  -16.8266 O   0  0  0  0  0  0  0  0  0  0  0  0
   14.1006   -7.6573  -15.5992 C   0  0  0  0  0  0  0  0  0  0  0  0
   14.3546   -9.1299  -15.4593 C   0  0  2  0  0  0  0  0  0  0  0  0
   13.5245   -9.7267  -14.3675 C   0  0  0  0  0  0  0  0  0  0  0  0
   15.8234   -9.4591  -15.3195 C   0  0  2  0  0  0  0  0  0  0  0  0
   15.8918  -10.8797  -14.9504 N   0  0  0  0  0  0  0  0  0  0  0  0
   16.5465   -8.6345  -14.3611 C   0  0  0  0  0  0  0  0  0  0  0  0
   16.3539   -8.6967  -13.0965 O   0  0  0  0  0  0  0  0  0  0  0  0
   17.5230   -7.7022  -14.7670 N   0  0  0  0  0  0  0  0  0  0  0  0
   18.2255   -6.8900  -13.7466 C   0  0  1  0  0  0  0  0  0  0  0  0
   19.6150   -6.7039  -14.3759 C   0  0  0  0  0  0  0  0  0  0  0  0
   20.4907   -5.8050  -13.5644 C   0  0  0  0  0  0  0  0  0  0  0  0
   21.7904   -5.6020  -14.2890 C   0  0  0  0  0  0  0  0  0  0  0  0
   22.0944   -6.2710  -15.3093 O   0  0  0  0  0  0  0  0  0  0  0  0
   17.5258   -5.6000  -13.6134 C   0  0  0  0  0  0  0  0  0  0  0  0
   16.6922   -5.1376  -14.6340 O   0  0  0  0  0  0  0  0  0  0  0  0
   22.6824   -4.6394  -13.8048 O   0  0  0  0  0  0  0  0  0  0  0  0
   17.6838   -4.9083  -12.5729 O   0  0  0  0  0  0  0  0  0  0  0  0
  2  1  1  6
  2  3  1  0
  4  5  1  6
  4  6  1  0
  4  2  1  0
  6  7  2  0
  9  8  1  1
  9 10  1  0
  9 11  1  0
 11 13  1  0
 12  6  1  0
 11 12  1  1
 13 14  2  0
 13 15  1  0
 15 16  1  0
 16 21  1  0
 16 17  1  6
 18 17  1  0
 19 20  2  0
 19 18  1  0
 21 24  2  0
 21 22  1  0
 23 19  1  0
M  END
$$$$
