TVE.pdb
     RDKit          3D

 24 23  0  0  1  0  0  0  0  0999 V2000
   25.5995  -11.0799  -21.0887 C   0  0  0  0  0  0  0  0  0  0  0  0
   24.5248  -10.5332  -20.2170 C   0  0  1  0  0  0  0  0  0  0  0  0
   23.4427  -10.1110  -20.9511 O   0  0  0  0  0  0  0  0  0  0  0  0
   24.0542  -11.5873  -19.2084 C   0  0  2  0  0  0  0  0  0  0  0  0
   23.3978  -12.6664  -19.9115 N   0  0  0  0  0  0  0  0  0  0  0  0
   23.0332  -10.9509  -18.3136 C   0  0  0  0  0  0  0  0  0  0  0  0
   21.8084  -10.9255  -18.5967 O   0  0  0  0  0  0  0  0  0  0  0  0
   23.7230  -10.6503  -14.2496 C   0  0  0  0  0  0  0  0  0  0  0  0
   22.4127  -10.6180  -14.9811 C   0  0  2  0  0  0  0  0  0  0  0  0
   21.9074  -11.9981  -15.2591 C   0  0  0  0  0  0  0  0  0  0  0  0
   22.4564   -9.7537  -16.2207 C   0  0  2  0  0  0  0  0  0  0  0  0
   23.4663  -10.3537  -17.1034 N   0  0  0  0  0  0  0  0  0  0  0  0
   22.7452   -8.3473  -15.9758 C   0  0  0  0  0  0  0  0  0  0  0  0
   23.9225   -7.8490  -16.0547 O   0  0  0  0  0  0  0  0  0  0  0  0
   21.7335   -7.4268  -15.6342 N   0  0  0  0  0  0  0  0  0  0  0  0
   22.0785   -5.9982  -15.4495 C   0  0  1  0  0  0  0  0  0  0  0  0
   20.9044   -5.2859  -16.1391 C   0  0  0  0  0  0  0  0  0  0  0  0
   20.9648   -3.8017  -15.9753 C   0  0  0  0  0  0  0  0  0  0  0  0
   19.7567   -3.1875  -16.6226 C   0  0  0  0  0  0  0  0  0  0  0  0
   18.5890   -3.4591  -16.2436 O   0  0  0  0  0  0  0  0  0  0  0  0
   22.1024   -5.7062  -14.0053 C   0  0  0  0  0  0  0  0  0  0  0  0
   22.8243   -4.6159  -13.5150 O   0  0  0  0  0  0  0  0  0  0  0  0
   19.9476   -2.2901  -17.6784 O   0  0  0  0  0  0  0  0  0  0  0  0
   21.4700   -6.4477  -13.2077 O   0  0  0  0  0  0  0  0  0  0  0  0
  2  1  1  6
  2  3  1  0
  4  5  1  6
  4  6  1  0
  4  2  1  0
  6  7  2  0
  9  8  1  6
  9 10  1  0
  9 11  1  0
 11 13  1  0
 12  6  1  0
 11 12  1  6
 13 14  2  0
 13 15  1  0
 15 16  1  0
 16 21  1  0
 16 17  1  6
 18 17  1  0
 19 20  2  0
 19 18  1  0
 21 24  2  0
 21 22  1  0
 23 19  1  0
M  END
$$$$
