TVE.pdb
     RDKit          3D

 24 23  0  0  1  0  0  0  0  0999 V2000
   18.3357  -10.5369  -18.0191 C   0  0  0  0  0  0  0  0  0  0  0  0
   17.8410  -11.7424  -17.3011 C   0  0  1  0  0  0  0  0  0  0  0  0
   17.0671  -12.5346  -18.1145 O   0  0  0  0  0  0  0  0  0  0  0  0
   19.0117  -12.5775  -16.7703 C   0  0  2  0  0  0  0  0  0  0  0  0
   18.4992  -13.7320  -16.0674 N   0  0  0  0  0  0  0  0  0  0  0  0
   19.7623  -11.7451  -15.7743 C   0  0  0  0  0  0  0  0  0  0  0  0
   19.2727  -11.4139  -14.6646 O   0  0  0  0  0  0  0  0  0  0  0  0
   23.9300  -10.9987  -16.3801 C   0  0  0  0  0  0  0  0  0  0  0  0
   23.2161  -11.1397  -15.0674 C   0  0  2  0  0  0  0  0  0  0  0  0
   23.2324  -12.5556  -14.5854 C   0  0  0  0  0  0  0  0  0  0  0  0
   21.8244  -10.5497  -15.0924 C   0  0  2  0  0  0  0  0  0  0  0  0
   21.0732  -11.3139  -16.0977 N   0  0  0  0  0  0  0  0  0  0  0  0
   21.7706   -9.1216  -15.3735 C   0  0  0  0  0  0  0  0  0  0  0  0
   21.7195   -8.6418  -16.5599 O   0  0  0  0  0  0  0  0  0  0  0  0
   21.7674   -8.1587  -14.3438 N   0  0  0  0  0  0  0  0  0  0  0  0
   21.6951   -6.7202  -14.6900 C   0  0  1  0  0  0  0  0  0  0  0  0
   20.1879   -6.5097  -14.9025 C   0  0  0  0  0  0  0  0  0  0  0  0
   19.8314   -5.0665  -15.0545 C   0  0  0  0  0  0  0  0  0  0  0  0
   19.7147   -4.7417  -16.5162 C   0  0  0  0  0  0  0  0  0  0  0  0
   19.2483   -3.6455  -16.9185 O   0  0  0  0  0  0  0  0  0  0  0  0
   22.1837   -5.9380  -13.5407 C   0  0  0  0  0  0  0  0  0  0  0  0
   22.7457   -4.6739  -13.7318 O   0  0  0  0  0  0  0  0  0  0  0  0
   20.1382   -5.6945  -17.4486 O   0  0  0  0  0  0  0  0  0  0  0  0
   22.0966   -6.4148  -12.3783 O   0  0  0  0  0  0  0  0  0  0  0  0
  2  1  1  6
  2  3  1  0
  4  5  1  1
  4  6  1  0
  4  2  1  0
  6  7  2  0
  9  8  1  6
  9 10  1  0
  9 11  1  0
 11 13  1  0
 12  6  1  0
 11 12  1  6
 13 14  2  0
 13 15  1  0
 15 16  1  0
 16 21  1  0
 16 17  1  1
 18 17  1  0
 19 20  2  0
 19 18  1  0
 21 24  2  0
 21 22  1  0
 23 19  1  0
M  END
$$$$
