TVE.pdb
     RDKit          3D

 24 23  0  0  1  0  0  0  0  0999 V2000
   18.9190  -10.0283  -19.8644 C   0  0  0  0  0  0  0  0  0  0  0  0
   19.4677   -9.7482  -18.5101 C   0  0  1  0  0  0  0  0  0  0  0  0
   18.6592   -8.8908  -17.8034 O   0  0  0  0  0  0  0  0  0  0  0  0
   19.6282  -11.0455  -17.7096 C   0  0  2  0  0  0  0  0  0  0  0  0
   18.3578  -11.7324  -17.6471 N   0  0  0  0  0  0  0  0  0  0  0  0
   20.0085  -10.6812  -16.3058 C   0  0  0  0  0  0  0  0  0  0  0  0
   19.1896  -10.7182  -15.3525 O   0  0  0  0  0  0  0  0  0  0  0  0
   24.1233   -9.5988  -15.2235 C   0  0  0  0  0  0  0  0  0  0  0  0
   23.0905  -10.3393  -14.4250 C   0  0  2  0  0  0  0  0  0  0  0  0
   23.2205  -11.8189  -14.6011 C   0  0  0  0  0  0  0  0  0  0  0  0
   21.6858   -9.8438  -14.6835 C   0  0  2  0  0  0  0  0  0  0  0  0
   21.3419  -10.2780  -16.0445 N   0  0  0  0  0  0  0  0  0  0  0  0
   21.5069   -8.4062  -14.5324 C   0  0  0  0  0  0  0  0  0  0  0  0
   21.7292   -7.7833  -13.4357 O   0  0  0  0  0  0  0  0  0  0  0  0
   21.0745   -7.5925  -15.5994 N   0  0  0  0  0  0  0  0  0  0  0  0
   20.7546   -6.1682  -15.3479 C   0  0  1  0  0  0  0  0  0  0  0  0
   21.9034   -5.4427  -16.0658 C   0  0  0  0  0  0  0  0  0  0  0  0
   21.7391   -3.9576  -16.0446 C   0  0  0  0  0  0  0  0  0  0  0  0
   22.3922   -3.4096  -14.8082 C   0  0  0  0  0  0  0  0  0  0  0  0
   22.9703   -4.1541  -13.9761 O   0  0  0  0  0  0  0  0  0  0  0  0
   19.4578   -5.8624  -15.9774 C   0  0  0  0  0  0  0  0  0  0  0  0
   18.7200   -4.7474  -15.5739 O   0  0  0  0  0  0  0  0  0  0  0  0
   22.3484   -2.0295  -14.5847 O   0  0  0  0  0  0  0  0  0  0  0  0
   19.0106   -6.6142  -16.8834 O   0  0  0  0  0  0  0  0  0  0  0  0
  2  1  1  6
  2  3  1  0
  4  5  1  1
  4  6  1  0
  4  2  1  0
  6  7  2  0
  9  8  1  6
  9 10  1  0
  9 11  1  0
 11 13  1  0
 12  6  1  0
 11 12  1  6
 13 14  2  0
 13 15  1  0
 15 16  1  0
 16 21  1  0
 16 17  1  6
 18 17  1  0
 19 20  2  0
 19 18  1  0
 21 24  2  0
 21 22  1  0
 23 19  1  0
M  END
$$$$
