TVE.pdb
     RDKit          3D

 24 23  0  0  1  0  0  0  0  0999 V2000
   23.3228  -25.5889  -16.6436 C   0  0  0  0  0  0  0  0  0  0  0  0
   22.6978  -24.9875  -15.4348 C   0  0  1  0  0  0  0  0  0  0  0  0
   22.7082  -25.8588  -14.3723 O   0  0  0  0  0  0  0  0  0  0  0  0
   23.4295  -23.7041  -15.0259 C   0  0  2  0  0  0  0  0  0  0  0  0
   24.7933  -24.0216  -14.6671 N   0  0  0  0  0  0  0  0  0  0  0  0
   22.7607  -23.1583  -13.8000 C   0  0  0  0  0  0  0  0  0  0  0  0
   23.2062  -23.3582  -12.6413 O   0  0  0  0  0  0  0  0  0  0  0  0
   19.5427  -20.4123  -14.2788 C   0  0  0  0  0  0  0  0  0  0  0  0
   20.5226  -20.4128  -13.1419 C   0  0  2  0  0  0  0  0  0  0  0  0
   21.6733  -19.4960  -13.4114 C   0  0  0  0  0  0  0  0  0  0  0  0
   20.9665  -21.8048  -12.7534 C   0  0  2  0  0  0  0  0  0  0  0  0
   21.5800  -22.3894  -13.9537 N   0  0  0  0  0  0  0  0  0  0  0  0
   19.9086  -22.6620  -12.2364 C   0  0  0  0  0  0  0  0  0  0  0  0
   19.2476  -23.4792  -12.9683 O   0  0  0  0  0  0  0  0  0  0  0  0
   19.5389  -22.6521  -10.8760 N   0  0  0  0  0  0  0  0  0  0  0  0
   18.5067  -23.5986  -10.3932 C   0  0  1  0  0  0  0  0  0  0  0  0
   18.8698  -23.7493   -8.9077 C   0  0  0  0  0  0  0  0  0  0  0  0
   17.9503  -24.6833   -8.1898 C   0  0  0  0  0  0  0  0  0  0  0  0
   18.3804  -24.7881   -6.7547 C   0  0  0  0  0  0  0  0  0  0  0  0
   17.8189  -25.5722   -5.9479 O   0  0  0  0  0  0  0  0  0  0  0  0
   17.1839  -22.9700  -10.5554 C   0  0  0  0  0  0  0  0  0  0  0  0
   16.0383  -23.7564  -10.6954 O   0  0  0  0  0  0  0  0  0  0  0  0
   19.4361  -23.9839   -6.3128 O   0  0  0  0  0  0  0  0  0  0  0  0
   17.0867  -21.7144  -10.5712 O   0  0  0  0  0  0  0  0  0  0  0  0
  2  1  1  6
  2  3  1  0
  4  5  1  1
  4  6  1  0
  4  2  1  0
  6  7  2  0
  9  8  1  6
  9 10  1  0
  9 11  1  0
 11 13  1  0
 12  6  1  0
 11 12  1  6
 13 14  2  0
 13 15  1  0
 15 16  1  0
 16 21  1  0
 16 17  1  1
 18 17  1  0
 19 20  2  0
 19 18  1  0
 21 24  2  0
 21 22  1  0
 23 19  1  0
M  END
$$$$
