TVE.pdb
     RDKit          3D

 24 23  0  0  1  0  0  0  0  0999 V2000
   22.5170  -12.6984  -19.4300 C   0  0  0  0  0  0  0  0  0  0  0  0
   22.1262  -13.9296  -18.6918 C   0  0  1  0  0  0  0  0  0  0  0  0
   21.7596  -14.9392  -19.5487 O   0  0  0  0  0  0  0  0  0  0  0  0
   23.2797  -14.4252  -17.8122 C   0  0  2  0  0  0  0  0  0  0  0  0
   22.8686  -15.6184  -17.1073 N   0  0  0  0  0  0  0  0  0  0  0  0
   23.5636  -13.3734  -16.7821 C   0  0  0  0  0  0  0  0  0  0  0  0
   22.7500  -13.0859  -15.8676 O   0  0  0  0  0  0  0  0  0  0  0  0
   26.8824  -10.0813  -15.1539 C   0  0  0  0  0  0  0  0  0  0  0  0
   26.4848  -11.4039  -15.7416 C   0  0  2  0  0  0  0  0  0  0  0  0
   27.2650  -11.7083  -16.9809 C   0  0  0  0  0  0  0  0  0  0  0  0
   24.9923  -11.5266  -15.9488 C   0  0  2  0  0  0  0  0  0  0  0  0
   24.7957  -12.6755  -16.8433 N   0  0  0  0  0  0  0  0  0  0  0  0
   24.3487  -10.3333  -16.4810 C   0  0  0  0  0  0  0  0  0  0  0  0
   24.4685   -9.9559  -17.6990 O   0  0  0  0  0  0  0  0  0  0  0  0
   23.5363   -9.5045  -15.6806 N   0  0  0  0  0  0  0  0  0  0  0  0
   22.8611   -8.3357  -16.2907 C   0  0  1  0  0  0  0  0  0  0  0  0
   21.7798   -8.9983  -17.1585 C   0  0  0  0  0  0  0  0  0  0  0  0
   20.7287   -9.6744  -16.3392 C   0  0  0  0  0  0  0  0  0  0  0  0
   19.6859  -10.2473  -17.2555 C   0  0  0  0  0  0  0  0  0  0  0  0
   19.7089  -10.0473  -18.4966 O   0  0  0  0  0  0  0  0  0  0  0  0
   22.2580   -7.5301  -15.2142 C   0  0  0  0  0  0  0  0  0  0  0  0
   22.2744   -7.9859  -13.8943 O   0  0  0  0  0  0  0  0  0  0  0  0
   18.6622  -11.0230  -16.7012 O   0  0  0  0  0  0  0  0  0  0  0  0
   21.7212   -6.4241  -15.4877 O   0  0  0  0  0  0  0  0  0  0  0  0
  2  1  1  6
  2  3  1  0
  4  5  1  1
  4  6  1  0
  4  2  1  0
  6  7  2  0
  9  8  1  6
  9 10  1  0
  9 11  1  0
 11 13  1  0
 12  6  1  0
 11 12  1  6
 13 14  2  0
 13 15  1  0
 15 16  1  0
 16 21  1  0
 16 17  1  6
 18 17  1  0
 19 20  2  0
 19 18  1  0
 21 24  2  0
 21 22  1  0
 23 19  1  0
M  END
$$$$
