TVE.pdb
     RDKit          3D

 24 23  0  0  1  0  0  0  0  0999 V2000
   18.5115  -10.8961  -20.0858 C   0  0  0  0  0  0  0  0  0  0  0  0
   19.7228  -11.7414  -19.9073 C   0  0  1  0  0  0  0  0  0  0  0  0
   19.9618  -12.5237  -21.0114 O   0  0  0  0  0  0  0  0  0  0  0  0
   20.9578  -10.8726  -19.6431 C   0  0  2  0  0  0  0  0  0  0  0  0
   22.1466  -11.6918  -19.7159 N   0  0  0  0  0  0  0  0  0  0  0  0
   20.8639  -10.3451  -18.2428 C   0  0  0  0  0  0  0  0  0  0  0  0
   19.8386   -9.7619  -17.8075 O   0  0  0  0  0  0  0  0  0  0  0  0
   22.9230  -10.3609  -13.7517 C   0  0  0  0  0  0  0  0  0  0  0  0
   22.8666  -10.7996  -15.1860 C   0  0  2  0  0  0  0  0  0  0  0  0
   24.2273  -10.8156  -15.8068 C   0  0  0  0  0  0  0  0  0  0  0  0
   21.8652  -10.0116  -15.9994 C   0  0  2  0  0  0  0  0  0  0  0  0
   21.9747  -10.5088  -17.3777 N   0  0  0  0  0  0  0  0  0  0  0  0
   22.0386   -8.5664  -15.9495 C   0  0  0  0  0  0  0  0  0  0  0  0
   22.8058   -7.9241  -16.7490 O   0  0  0  0  0  0  0  0  0  0  0  0
   21.3612   -7.7662  -15.0068 N   0  0  0  0  0  0  0  0  0  0  0  0
   21.6631   -6.3182  -14.9274 C   0  0  1  0  0  0  0  0  0  0  0  0
   20.4652   -5.6933  -15.6595 C   0  0  0  0  0  0  0  0  0  0  0  0
   20.4934   -4.1996  -15.6238 C   0  0  0  0  0  0  0  0  0  0  0  0
   19.2676   -3.6695  -16.3108 C   0  0  0  0  0  0  0  0  0  0  0  0
   19.2037   -3.5542  -17.5612 O   0  0  0  0  0  0  0  0  0  0  0  0
   21.6834   -5.9223  -13.5082 C   0  0  0  0  0  0  0  0  0  0  0  0
   21.0239   -6.6932  -12.5483 O   0  0  0  0  0  0  0  0  0  0  0  0
   18.1716   -3.2941  -15.5269 O   0  0  0  0  0  0  0  0  0  0  0  0
   22.2971   -4.8794  -13.1594 O   0  0  0  0  0  0  0  0  0  0  0  0
  2  1  1  6
  2  3  1  0
  4  5  1  1
  4  6  1  0
  4  2  1  0
  6  7  2  0
  9  8  1  1
  9 10  1  0
  9 11  1  0
 11 13  1  0
 12  6  1  0
 11 12  1  6
 13 14  2  0
 13 15  1  0
 15 16  1  0
 16 21  1  0
 16 17  1  6
 18 17  1  0
 19 20  2  0
 19 18  1  0
 21 24  2  0
 21 22  1  0
 23 19  1  0
M  END
$$$$
