TVE.pdb
     RDKit          3D

 24 23  0  0  1  0  0  0  0  0999 V2000
   18.3875  -11.6578  -18.8250 C   0  0  0  0  0  0  0  0  0  0  0  0
   18.2683  -12.9582  -18.1121 C   0  0  1  0  0  0  0  0  0  0  0  0
   17.6918  -13.9202  -18.9061 O   0  0  0  0  0  0  0  0  0  0  0  0
   19.6444  -13.4563  -17.6561 C   0  0  2  0  0  0  0  0  0  0  0  0
   19.4979  -14.7303  -16.9889 N   0  0  0  0  0  0  0  0  0  0  0  0
   20.1803  -12.4836  -16.6488 C   0  0  0  0  0  0  0  0  0  0  0  0
   19.5776  -12.2192  -15.5775 O   0  0  0  0  0  0  0  0  0  0  0  0
   24.0945  -10.8451  -17.2017 C   0  0  0  0  0  0  0  0  0  0  0  0
   23.4392  -11.1256  -15.8808 C   0  0  2  0  0  0  0  0  0  0  0  0
   23.8109  -12.4784  -15.3623 C   0  0  0  0  0  0  0  0  0  0  0  0
   21.9440  -10.9049  -15.9115 C   0  0  2  0  0  0  0  0  0  0  0  0
   21.4126  -11.8364  -16.9159 N   0  0  0  0  0  0  0  0  0  0  0  0
   21.5333   -9.5372  -16.1977 C   0  0  0  0  0  0  0  0  0  0  0  0
   21.4852   -9.0527  -17.3824 O   0  0  0  0  0  0  0  0  0  0  0  0
   21.1525   -8.6437  -15.1759 N   0  0  0  0  0  0  0  0  0  0  0  0
   20.7411   -7.2649  -15.5278 C   0  0  1  0  0  0  0  0  0  0  0  0
   19.2079   -7.3589  -15.4828 C   0  0  0  0  0  0  0  0  0  0  0  0
   18.5530   -6.0201  -15.5905 C   0  0  0  0  0  0  0  0  0  0  0  0
   17.0632   -6.1958  -15.5179 C   0  0  0  0  0  0  0  0  0  0  0  0
   16.5335   -7.3265  -15.3700 O   0  0  0  0  0  0  0  0  0  0  0  0
   21.2474   -6.3474  -14.4918 C   0  0  0  0  0  0  0  0  0  0  0  0
   21.3469   -4.9777  -14.7458 O   0  0  0  0  0  0  0  0  0  0  0  0
   16.2505   -5.0620  -15.6212 O   0  0  0  0  0  0  0  0  0  0  0  0
   21.5961   -6.8027  -13.3705 O   0  0  0  0  0  0  0  0  0  0  0  0
  2  1  1  6
  2  3  1  0
  4  5  1  1
  4  6  1  0
  4  2  1  0
  6  7  2  0
  9  8  1  6
  9 10  1  0
  9 11  1  0
 11 13  1  0
 12  6  1  0
 11 12  1  6
 13 14  2  0
 13 15  1  0
 15 16  1  0
 16 21  1  0
 16 17  1  1
 18 17  1  0
 19 20  2  0
 19 18  1  0
 21 24  2  0
 21 22  1  0
 23 19  1  0
M  END
$$$$
