TVE.pdb
     RDKit          3D

 24 23  0  0  1  0  0  0  0  0999 V2000
   25.9226  -11.9782  -15.8265 C   0  0  0  0  0  0  0  0  0  0  0  0
   25.7961  -12.9230  -16.9688 C   0  0  1  0  0  0  0  0  0  0  0  0
   26.7795  -13.8825  -16.9439 O   0  0  0  0  0  0  0  0  0  0  0  0
   24.4300  -13.6180  -16.9507 C   0  0  2  0  0  0  0  0  0  0  0  0
   24.3567  -14.5632  -18.0420 N   0  0  0  0  0  0  0  0  0  0  0  0
   23.3764  -12.5781  -17.1890 C   0  0  0  0  0  0  0  0  0  0  0  0
   23.2772  -11.9531  -18.2754 O   0  0  0  0  0  0  0  0  0  0  0  0
   19.5832  -11.1613  -14.7239 C   0  0  0  0  0  0  0  0  0  0  0  0
   20.1376  -11.7715  -15.9781 C   0  0  2  0  0  0  0  0  0  0  0  0
   20.1402  -13.2655  -15.9045 C   0  0  0  0  0  0  0  0  0  0  0  0
   21.4872  -11.2053  -16.3566 C   0  0  2  0  0  0  0  0  0  0  0  0
   22.4589  -12.2877  -16.1485 N   0  0  0  0  0  0  0  0  0  0  0  0
   21.8747  -10.0070  -15.6251 C   0  0  0  0  0  0  0  0  0  0  0  0
   22.3911  -10.0368  -14.4534 O   0  0  0  0  0  0  0  0  0  0  0  0
   21.7083   -8.7162  -16.1669 N   0  0  0  0  0  0  0  0  0  0  0  0
   22.1717   -7.5370  -15.3995 C   0  0  1  0  0  0  0  0  0  0  0  0
   22.0875   -6.4128  -16.4436 C   0  0  0  0  0  0  0  0  0  0  0  0
   22.3871   -5.0705  -15.8591 C   0  0  0  0  0  0  0  0  0  0  0  0
   22.2149   -4.0234  -16.9218 C   0  0  0  0  0  0  0  0  0  0  0  0
   21.8864   -4.3186  -18.0991 O   0  0  0  0  0  0  0  0  0  0  0  0
   21.2309   -7.3026  -14.2897 C   0  0  0  0  0  0  0  0  0  0  0  0
   21.6667   -6.7022  -13.1065 O   0  0  0  0  0  0  0  0  0  0  0  0
   22.4309   -2.6839  -16.5817 O   0  0  0  0  0  0  0  0  0  0  0  0
   20.0261   -7.6495  -14.4085 O   0  0  0  0  0  0  0  0  0  0  0  0
  2  1  1  1
  2  3  1  0
  4  5  1  6
  4  6  1  0
  4  2  1  0
  6  7  2  0
  9  8  1  1
  9 10  1  0
  9 11  1  0
 11 13  1  0
 12  6  1  0
 11 12  1  1
 13 14  2  0
 13 15  1  0
 15 16  1  0
 16 21  1  0
 16 17  1  6
 18 17  1  0
 19 20  2  0
 19 18  1  0
 21 24  2  0
 21 22  1  0
 23 19  1  0
M  END
$$$$
