SMK.pdb
     RDKit          3D

 24 23  0  0  1  0  0  0  0  0999 V2000
    7.3952  -17.5889   20.6570 O   0  0  0  0  0  0  0  0  0  0  0  0
    6.8202  -16.4051   20.1821 C   0  0  0  0  0  0  0  0  0  0  0  0
    7.8333  -15.2802   20.2059 C   0  0  2  0  0  0  0  0  0  0  0  0
    8.8545  -15.5523   19.2364 N   0  0  0  0  0  0  0  0  0  0  0  0
    8.4343  -15.0942   21.5433 C   0  0  0  0  0  0  0  0  0  0  0  0
    9.6024  -15.4961   21.7355 O   0  0  0  0  0  0  0  0  0  0  0  0
    5.2684  -12.1263   26.5476 C   0  0  0  0  0  0  0  0  0  0  0  0
    6.9934  -11.8655   26.9997 S   0  0  0  0  0  0  0  0  0  0  0  0
    8.0444  -13.1188   26.1637 C   0  0  0  0  0  0  0  0  0  0  0  0
    7.5168  -13.3467   24.7741 C   0  0  0  0  0  0  0  0  0  0  0  0
    8.2860  -14.3277   23.9618 C   0  0  2  0  0  0  0  0  0  0  0  0
    7.7502  -14.4808   22.6216 N   0  0  0  0  0  0  0  0  0  0  0  0
    8.4825  -15.6543   24.5928 C   0  0  0  0  0  0  0  0  0  0  0  0
    7.6112  -16.5570   24.5604 O   0  0  0  0  0  0  0  0  0  0  0  0
    9.6973  -15.9857   25.2860 N   0  0  0  0  0  0  0  0  0  0  0  0
    9.9696  -17.3345   25.7695 C   0  0  1  0  0  0  0  0  0  0  0  0
   11.1060  -17.9096   24.9908 C   0  0  0  0  0  0  0  0  0  0  0  0
   11.0409  -19.3951   24.9028 C   0  0  0  0  0  0  0  0  0  0  0  0
   12.2744  -19.9063   24.1983 C   0  0  0  0  0  0  0  0  0  0  0  0
   12.2955  -21.4415   24.2030 C   0  0  0  0  0  0  0  0  0  0  0  0
   13.5698  -21.8316   23.6285 N   0  0  0  0  0  0  0  0  0  0  0  0
   10.1615  -17.3430   27.2370 C   0  0  0  0  0  0  0  0  0  0  0  0
    9.9907  -18.4701   28.0139 O   0  0  0  0  0  0  0  0  0  0  0  0
   10.4984  -16.2761   27.8353 O   0  0  0  0  0  0  0  0  0  0  0  0
  2  1  1  0
  3  2  1  0
  3  4  1  6
  5  6  2  0
  5  3  1  0
  7  8  1  0
  8  9  1  0
  9 10  1  0
 11 10  1  1
 11 12  1  0
 12  5  1  0
 13 15  1  0
 13 11  1  0
 14 13  2  0
 16 22  1  0
 16 15  1  0
 16 17  1  6
 17 18  1  0
 18 19  1  0
 19 20  1  0
 20 21  1  0
 22 23  1  0
 24 22  2  0
M  END
$$$$
