SMK.pdb
     RDKit          3D

 24 23  0  0  1  0  0  0  0  0999 V2000
    8.6939  -18.7525   21.0928 O   0  0  0  0  0  0  0  0  0  0  0  0
    7.9707  -17.8111   20.3525 C   0  0  0  0  0  0  0  0  0  0  0  0
    8.7295  -16.5031   20.2778 C   0  0  2  0  0  0  0  0  0  0  0  0
    9.9108  -16.6943   19.4873 N   0  0  0  0  0  0  0  0  0  0  0  0
    9.0872  -15.9845   21.6148 C   0  0  0  0  0  0  0  0  0  0  0  0
   10.2650  -16.1169   22.0125 O   0  0  0  0  0  0  0  0  0  0  0  0
    6.7580  -11.3696   27.6838 C   0  0  0  0  0  0  0  0  0  0  0  0
    6.3526  -12.1963   26.1345 S   0  0  0  0  0  0  0  0  0  0  0  0
    7.6996  -13.3633   25.6896 C   0  0  0  0  0  0  0  0  0  0  0  0
    7.4413  -13.9000   24.3088 C   0  0  0  0  0  0  0  0  0  0  0  0
    8.4597  -14.8617   23.8066 C   0  0  2  0  0  0  0  0  0  0  0  0
    8.1586  -15.3425   22.4706 N   0  0  0  0  0  0  0  0  0  0  0  0
    8.7537  -15.9995   24.7097 C   0  0  0  0  0  0  0  0  0  0  0  0
    8.0197  -17.0148   24.7833 O   0  0  0  0  0  0  0  0  0  0  0  0
    9.9107  -16.0041   25.5626 N   0  0  0  0  0  0  0  0  0  0  0  0
   10.3126  -17.1866   26.3158 C   0  0  1  0  0  0  0  0  0  0  0  0
   11.7048  -17.5601   25.9274 C   0  0  0  0  0  0  0  0  0  0  0  0
   12.1825  -18.7833   26.6305 C   0  0  0  0  0  0  0  0  0  0  0  0
   13.6169  -19.0514   26.2433 C   0  0  0  0  0  0  0  0  0  0  0  0
   14.1495  -20.2854   26.9855 C   0  0  0  0  0  0  0  0  0  0  0  0
   15.4345  -20.5958   26.3868 N   0  0  0  0  0  0  0  0  0  0  0  0
   10.1115  -16.9840   27.7680 C   0  0  0  0  0  0  0  0  0  0  0  0
   10.0184  -18.0241   28.6694 O   0  0  0  0  0  0  0  0  0  0  0  0
   10.0158  -15.8075   28.2334 O   0  0  0  0  0  0  0  0  0  0  0  0
  2  1  1  0
  3  2  1  0
  3  4  1  6
  5  6  2  0
  5  3  1  0
  7  8  1  0
  8  9  1  0
  9 10  1  0
 11 10  1  1
 11 12  1  0
 12  5  1  0
 13 15  1  0
 13 11  1  0
 14 13  2  0
 16 22  1  0
 16 15  1  0
 16 17  1  1
 17 18  1  0
 18 19  1  0
 19 20  1  0
 20 21  1  0
 22 23  1  0
 24 22  2  0
M  END
$$$$
