SMK.pdb
     RDKit          3D

 24 23  0  0  1  0  0  0  0  0999 V2000
    8.1441  -18.4313   20.4259 O   0  0  0  0  0  0  0  0  0  0  0  0
    7.1208  -17.4785   20.3753 C   0  0  0  0  0  0  0  0  0  0  0  0
    7.6990  -16.0937   20.1748 C   0  0  2  0  0  0  0  0  0  0  0  0
    8.6857  -16.1468   19.1353 N   0  0  0  0  0  0  0  0  0  0  0  0
    8.2906  -15.5475   21.4142 C   0  0  0  0  0  0  0  0  0  0  0  0
    9.5243  -15.6550   21.5861 O   0  0  0  0  0  0  0  0  0  0  0  0
    6.9263  -11.4317   28.1255 C   0  0  0  0  0  0  0  0  0  0  0  0
    6.3160  -12.0786   26.5579 S   0  0  0  0  0  0  0  0  0  0  0  0
    7.5852  -13.1754   25.8096 C   0  0  0  0  0  0  0  0  0  0  0  0
    7.0983  -13.6341   24.4628 C   0  0  0  0  0  0  0  0  0  0  0  0
    8.0286  -14.5354   23.7305 C   0  0  2  0  0  0  0  0  0  0  0  0
    7.5268  -14.9059   22.4200 N   0  0  0  0  0  0  0  0  0  0  0  0
    8.4588  -15.7411   24.4773 C   0  0  0  0  0  0  0  0  0  0  0  0
    7.7193  -16.7432   24.6322 O   0  0  0  0  0  0  0  0  0  0  0  0
    9.7636  -15.8316   25.0735 N   0  0  0  0  0  0  0  0  0  0  0  0
   10.2101  -17.0258   25.7818 C   0  0  1  0  0  0  0  0  0  0  0  0
   11.5162  -17.4693   25.2111 C   0  0  0  0  0  0  0  0  0  0  0  0
   11.3887  -17.9542   23.8085 C   0  0  0  0  0  0  0  0  0  0  0  0
   12.7460  -18.3819   23.3046 C   0  0  0  0  0  0  0  0  0  0  0  0
   12.6784  -18.7226   21.8091 C   0  0  0  0  0  0  0  0  0  0  0  0
   14.0503  -18.9021   21.3713 N   0  0  0  0  0  0  0  0  0  0  0  0
   10.2211  -16.8016   27.2447 C   0  0  0  0  0  0  0  0  0  0  0  0
    9.8434  -15.6102   27.8284 O   0  0  0  0  0  0  0  0  0  0  0  0
   10.5923  -17.7326   28.0227 O   0  0  0  0  0  0  0  0  0  0  0  0
  2  1  1  0
  3  2  1  0
  3  4  1  6
  5  6  2  0
  5  3  1  0
  7  8  1  0
  8  9  1  0
  9 10  1  0
 11 10  1  1
 11 12  1  0
 12  5  1  0
 13 15  1  0
 13 11  1  0
 14 13  2  0
 16 22  1  0
 16 15  1  0
 16 17  1  6
 17 18  1  0
 18 19  1  0
 19 20  1  0
 20 21  1  0
 22 23  1  0
 24 22  2  0
M  END
$$$$
