SMK.pdb
     RDKit          3D

 24 23  0  0  1  0  0  0  0  0999 V2000
    7.3071  -17.8764   20.7068 O   0  0  0  0  0  0  0  0  0  0  0  0
    6.3335  -16.9575   20.3003 C   0  0  0  0  0  0  0  0  0  0  0  0
    6.9347  -15.5738   20.1732 C   0  0  2  0  0  0  0  0  0  0  0  0
    7.8476  -15.5623   19.0671 N   0  0  0  0  0  0  0  0  0  0  0  0
    7.6229  -15.1450   21.4089 C   0  0  0  0  0  0  0  0  0  0  0  0
    8.8725  -15.1691   21.4368 O   0  0  0  0  0  0  0  0  0  0  0  0
    6.7763  -11.6179   28.5201 C   0  0  0  0  0  0  0  0  0  0  0  0
    6.0357  -12.2091   26.9871 S   0  0  0  0  0  0  0  0  0  0  0  0
    7.2950  -13.1185   26.0067 C   0  0  0  0  0  0  0  0  0  0  0  0
    6.6707  -13.5745   24.7169 C   0  0  0  0  0  0  0  0  0  0  0  0
    7.5695  -14.3541   23.8234 C   0  0  2  0  0  0  0  0  0  0  0  0
    6.9346  -14.7064   22.5667 N   0  0  0  0  0  0  0  0  0  0  0  0
    8.1908  -15.5501   24.4399 C   0  0  0  0  0  0  0  0  0  0  0  0
    7.5442  -16.5947   24.6964 O   0  0  0  0  0  0  0  0  0  0  0  0
    9.5864  -15.5813   24.7828 N   0  0  0  0  0  0  0  0  0  0  0  0
   10.1937  -16.7258   25.4523 C   0  0  1  0  0  0  0  0  0  0  0  0
   11.4315  -17.1187   24.7161 C   0  0  0  0  0  0  0  0  0  0  0  0
   11.1537  -17.5140   23.3071 C   0  0  0  0  0  0  0  0  0  0  0  0
   12.4517  -17.8771   22.6272 C   0  0  0  0  0  0  0  0  0  0  0  0
   12.2256  -18.0952   21.1243 C   0  0  0  0  0  0  0  0  0  0  0  0
   13.5424  -18.2475   20.5337 N   0  0  0  0  0  0  0  0  0  0  0  0
   10.3944  -16.4522   26.8929 C   0  0  0  0  0  0  0  0  0  0  0  0
   10.7190  -17.4312   27.8090 O   0  0  0  0  0  0  0  0  0  0  0  0
   10.2669  -15.2694   27.3341 O   0  0  0  0  0  0  0  0  0  0  0  0
  2  1  1  0
  3  2  1  0
  3  4  1  6
  5  6  2  0
  5  3  1  0
  7  8  1  0
  8  9  1  0
  9 10  1  0
 11 10  1  1
 11 12  1  0
 12  5  1  0
 13 15  1  0
 13 11  1  0
 14 13  2  0
 16 22  1  0
 16 15  1  0
 16 17  1  6
 17 18  1  0
 18 19  1  0
 19 20  1  0
 20 21  1  0
 22 23  1  0
 24 22  2  0
M  END
$$$$
