SMK.pdb
     RDKit          3D

 24 23  0  0  1  0  0  0  0  0999 V2000
    7.5853  -17.8497   21.4647 O   0  0  0  0  0  0  0  0  0  0  0  0
    6.8641  -16.8527   20.7989 C   0  0  0  0  0  0  0  0  0  0  0  0
    7.5907  -15.5274   20.8882 C   0  0  2  0  0  0  0  0  0  0  0  0
    8.4995  -15.4191   19.7841 N   0  0  0  0  0  0  0  0  0  0  0  0
    8.3169  -15.3704   22.1658 C   0  0  0  0  0  0  0  0  0  0  0  0
    9.5367  -15.6423   22.1979 O   0  0  0  0  0  0  0  0  0  0  0  0
    5.3508  -12.1931   27.0637 C   0  0  0  0  0  0  0  0  0  0  0  0
    6.8672  -11.4176   26.4744 S   0  0  0  0  0  0  0  0  0  0  0  0
    7.5869  -12.4264   25.1185 C   0  0  0  0  0  0  0  0  0  0  0  0
    7.6464  -13.8626   25.5601 C   0  0  0  0  0  0  0  0  0  0  0  0
    8.3718  -14.7758   24.6361 C   0  0  2  0  0  0  0  0  0  0  0  0
    7.6974  -14.9252   23.3595 N   0  0  0  0  0  0  0  0  0  0  0  0
    8.7110  -16.1046   25.1982 C   0  0  0  0  0  0  0  0  0  0  0  0
    7.8623  -17.0180   25.3404 O   0  0  0  0  0  0  0  0  0  0  0  0
   10.0480  -16.4256   25.6172 N   0  0  0  0  0  0  0  0  0  0  0  0
   10.3647  -17.6698   26.3091 C   0  0  1  0  0  0  0  0  0  0  0  0
   11.5783  -18.2766   25.6866 C   0  0  0  0  0  0  0  0  0  0  0  0
   11.3141  -18.7984   24.3167 C   0  0  0  0  0  0  0  0  0  0  0  0
   12.6026  -19.3161   23.7245 C   0  0  0  0  0  0  0  0  0  0  0  0
   12.3715  -19.8091   22.2889 C   0  0  0  0  0  0  0  0  0  0  0  0
   13.6598  -20.2709   21.8060 N   0  0  0  0  0  0  0  0  0  0  0  0
   10.4642  -17.4537   27.7699 C   0  0  0  0  0  0  0  0  0  0  0  0
   10.5512  -18.4856   28.6813 O   0  0  0  0  0  0  0  0  0  0  0  0
   10.4711  -16.2728   28.2338 O   0  0  0  0  0  0  0  0  0  0  0  0
  2  1  1  0
  3  2  1  0
  3  4  1  6
  5  6  2  0
  5  3  1  0
  7  8  1  0
  8  9  1  0
  9 10  1  0
 11 10  1  1
 11 12  1  0
 12  5  1  0
 13 15  1  0
 13 11  1  0
 14 13  2  0
 16 22  1  0
 16 15  1  0
 16 17  1  6
 17 18  1  0
 18 19  1  0
 19 20  1  0
 20 21  1  0
 22 23  1  0
 24 22  2  0
M  END
$$$$
