SMK.pdb
     RDKit          3D

 24 23  0  0  1  0  0  0  0  0999 V2000
    7.6796  -17.6038   20.7950 O   0  0  0  0  0  0  0  0  0  0  0  0
    6.8533  -16.5241   20.4650 C   0  0  0  0  0  0  0  0  0  0  0  0
    7.5977  -15.2174   20.6403 C   0  0  2  0  0  0  0  0  0  0  0  0
    8.5939  -15.1075   19.6144 N   0  0  0  0  0  0  0  0  0  0  0  0
    8.2227  -15.1020   21.9746 C   0  0  0  0  0  0  0  0  0  0  0  0
    9.4586  -15.2629   22.0723 O   0  0  0  0  0  0  0  0  0  0  0  0
    7.6766  -10.6266   27.2480 C   0  0  0  0  0  0  0  0  0  0  0  0
    6.4876  -11.9352   26.8982 S   0  0  0  0  0  0  0  0  0  0  0  0
    6.8787  -12.7038   25.2764 C   0  0  0  0  0  0  0  0  0  0  0  0
    7.1303  -14.1720   25.4823 C   0  0  0  0  0  0  0  0  0  0  0  0
    8.0467  -14.7986   24.4917 C   0  0  2  0  0  0  0  0  0  0  0  0
    7.4884  -14.8169   23.1520 N   0  0  0  0  0  0  0  0  0  0  0  0
    8.5495  -16.1436   24.8587 C   0  0  0  0  0  0  0  0  0  0  0  0
    7.8717  -17.1879   24.7007 O   0  0  0  0  0  0  0  0  0  0  0  0
    9.8582  -16.3299   25.4233 N   0  0  0  0  0  0  0  0  0  0  0  0
   10.3406  -17.6404   25.8439 C   0  0  1  0  0  0  0  0  0  0  0  0
   11.5536  -17.9903   25.0472 C   0  0  0  0  0  0  0  0  0  0  0  0
   12.1707  -19.2735   25.4848 C   0  0  0  0  0  0  0  0  0  0  0  0
   13.3724  -19.5680   24.6198 C   0  0  0  0  0  0  0  0  0  0  0  0
   14.0771  -20.8449   25.1000 C   0  0  0  0  0  0  0  0  0  0  0  0
   15.2530  -20.9984   24.2636 N   0  0  0  0  0  0  0  0  0  0  0  0
   10.5317  -17.6894   27.3107 C   0  0  0  0  0  0  0  0  0  0  0  0
   10.2926  -16.6128   28.1393 O   0  0  0  0  0  0  0  0  0  0  0  0
   10.9348  -18.7604   27.8588 O   0  0  0  0  0  0  0  0  0  0  0  0
  2  1  1  0
  3  2  1  0
  3  4  1  6
  5  6  2  0
  5  3  1  0
  7  8  1  0
  8  9  1  0
  9 10  1  0
 11 10  1  1
 11 12  1  0
 12  5  1  0
 13 15  1  0
 13 11  1  0
 14 13  2  0
 16 22  1  0
 16 15  1  0
 16 17  1  6
 17 18  1  0
 18 19  1  0
 19 20  1  0
 20 21  1  0
 22 23  1  0
 24 22  2  0
M  END
$$$$
