SMK.pdb
     RDKit          3D

 24 23  0  0  1  0  0  0  0  0999 V2000
    7.4254  -18.3382   20.9786 O   0  0  0  0  0  0  0  0  0  0  0  0
    6.5135  -17.3876   20.5071 C   0  0  0  0  0  0  0  0  0  0  0  0
    7.2081  -16.0639   20.2674 C   0  0  2  0  0  0  0  0  0  0  0  0
    8.1488  -16.2187   19.1959 N   0  0  0  0  0  0  0  0  0  0  0  0
    7.8902  -15.5606   21.4781 C   0  0  0  0  0  0  0  0  0  0  0  0
    9.1315  -15.6843   21.5606 O   0  0  0  0  0  0  0  0  0  0  0  0
    7.0856  -11.2979   28.1848 C   0  0  0  0  0  0  0  0  0  0  0  0
    6.4011  -11.8807   26.6227 S   0  0  0  0  0  0  0  0  0  0  0  0
    7.5518  -13.0933   25.8615 C   0  0  0  0  0  0  0  0  0  0  0  0
    6.9881  -13.5345   24.5390 C   0  0  0  0  0  0  0  0  0  0  0  0
    7.8263  -14.5103   23.7914 C   0  0  2  0  0  0  0  0  0  0  0  0
    7.2050  -14.9426   22.5530 N   0  0  0  0  0  0  0  0  0  0  0  0
    8.2825  -15.6825   24.5755 C   0  0  0  0  0  0  0  0  0  0  0  0
    7.5252  -16.6394   24.8683 O   0  0  0  0  0  0  0  0  0  0  0  0
    9.6348  -15.7904   25.0505 N   0  0  0  0  0  0  0  0  0  0  0  0
   10.1210  -16.9806   25.7391 C   0  0  1  0  0  0  0  0  0  0  0  0
   11.4516  -17.3575   25.1773 C   0  0  0  0  0  0  0  0  0  0  0  0
   11.3635  -17.8083   23.7603 C   0  0  0  0  0  0  0  0  0  0  0  0
   12.7505  -18.1136   23.2483 C   0  0  0  0  0  0  0  0  0  0  0  0
   12.6895  -18.5904   21.7901 C   0  0  0  0  0  0  0  0  0  0  0  0
   14.0588  -18.8637   21.3948 N   0  0  0  0  0  0  0  0  0  0  0  0
   10.1037  -16.7884   27.2064 C   0  0  0  0  0  0  0  0  0  0  0  0
   10.3646  -17.8032   28.1037 O   0  0  0  0  0  0  0  0  0  0  0  0
    9.8384  -15.6457   27.6898 O   0  0  0  0  0  0  0  0  0  0  0  0
  2  1  1  0
  3  2  1  0
  3  4  1  6
  5  6  2  0
  5  3  1  0
  7  8  1  0
  8  9  1  0
  9 10  1  0
 11 10  1  1
 11 12  1  0
 12  5  1  0
 13 15  1  0
 13 11  1  0
 14 13  2  0
 16 22  1  0
 16 15  1  0
 16 17  1  6
 17 18  1  0
 18 19  1  0
 19 20  1  0
 20 21  1  0
 22 23  1  0
 24 22  2  0
M  END
$$$$
