SMK.pdb
     RDKit          3D

 24 23  0  0  1  0  0  0  0  0999 V2000
    7.6217  -18.0241   20.8108 O   0  0  0  0  0  0  0  0  0  0  0  0
    6.9041  -16.9459   20.2817 C   0  0  0  0  0  0  0  0  0  0  0  0
    7.7404  -15.6845   20.3234 C   0  0  2  0  0  0  0  0  0  0  0  0
    8.7997  -15.7959   19.3631 N   0  0  0  0  0  0  0  0  0  0  0  0
    8.2946  -15.4226   21.6683 C   0  0  0  0  0  0  0  0  0  0  0  0
    9.4572  -15.8062   21.9214 O   0  0  0  0  0  0  0  0  0  0  0  0
    7.2294  -10.4097   26.0540 C   0  0  0  0  0  0  0  0  0  0  0  0
    6.7058  -11.9187   26.8889 S   0  0  0  0  0  0  0  0  0  0  0  0
    7.6479  -13.3482   26.2235 C   0  0  0  0  0  0  0  0  0  0  0  0
    7.1852  -13.6243   24.8196 C   0  0  0  0  0  0  0  0  0  0  0  0
    8.0456  -14.5593   24.0455 C   0  0  2  0  0  0  0  0  0  0  0  0
    7.5716  -14.7559   22.6879 N   0  0  0  0  0  0  0  0  0  0  0  0
    8.3030  -15.8661   24.6957 C   0  0  0  0  0  0  0  0  0  0  0  0
    7.4489  -16.7848   24.7344 O   0  0  0  0  0  0  0  0  0  0  0  0
    9.5612  -16.1583   25.3264 N   0  0  0  0  0  0  0  0  0  0  0  0
    9.8613  -17.4724   25.8834 C   0  0  1  0  0  0  0  0  0  0  0  0
   10.8752  -18.1462   25.0195 C   0  0  0  0  0  0  0  0  0  0  0  0
   11.2653  -19.4863   25.5400 C   0  0  0  0  0  0  0  0  0  0  0  0
   12.3523  -20.0626   24.6652 C   0  0  0  0  0  0  0  0  0  0  0  0
   12.8168  -21.4196   25.2133 C   0  0  0  0  0  0  0  0  0  0  0  0
   13.8564  -21.8858   24.3145 N   0  0  0  0  0  0  0  0  0  0  0  0
   10.2387  -17.3696   27.3108 C   0  0  0  0  0  0  0  0  0  0  0  0
   10.1308  -18.4208   28.1975 O   0  0  0  0  0  0  0  0  0  0  0  0
   10.6850  -16.2734   27.7679 O   0  0  0  0  0  0  0  0  0  0  0  0
  2  1  1  0
  3  2  1  0
  3  4  1  6
  5  6  2  0
  5  3  1  0
  7  8  1  0
  8  9  1  0
  9 10  1  0
 11 10  1  1
 11 12  1  0
 12  5  1  0
 13 15  1  0
 13 11  1  0
 14 13  2  0
 16 22  1  0
 16 15  1  0
 16 17  1  6
 17 18  1  0
 18 19  1  0
 19 20  1  0
 20 21  1  0
 22 23  1  0
 24 22  2  0
M  END
$$$$
