SMK.pdb
     RDKit          3D

 24 23  0  0  1  0  0  0  0  0999 V2000
    7.4480  -16.8461   20.4690 O   0  0  0  0  0  0  0  0  0  0  0  0
    6.6461  -15.7203   20.2515 C   0  0  0  0  0  0  0  0  0  0  0  0
    7.3540  -14.4690   20.7262 C   0  0  2  0  0  0  0  0  0  0  0  0
    8.3688  -14.1186   19.7753 N   0  0  0  0  0  0  0  0  0  0  0  0
    7.9474  -14.6351   22.0697 C   0  0  0  0  0  0  0  0  0  0  0  0
    9.1868  -14.7692   22.1639 O   0  0  0  0  0  0  0  0  0  0  0  0
    7.2615  -10.2847   26.7864 C   0  0  0  0  0  0  0  0  0  0  0  0
    7.6387  -12.0467   26.7507 S   0  0  0  0  0  0  0  0  0  0  0  0
    6.4251  -12.9137   25.6787 C   0  0  0  0  0  0  0  0  0  0  0  0
    6.7597  -14.3795   25.6524 C   0  0  0  0  0  0  0  0  0  0  0  0
    7.7265  -14.7858   24.5969 C   0  0  2  0  0  0  0  0  0  0  0  0
    7.1789  -14.6495   23.2596 N   0  0  0  0  0  0  0  0  0  0  0  0
    8.3269  -16.1293   24.7733 C   0  0  0  0  0  0  0  0  0  0  0  0
    7.6639  -17.1889   24.6615 O   0  0  0  0  0  0  0  0  0  0  0  0
    9.7199  -16.2961   25.0864 N   0  0  0  0  0  0  0  0  0  0  0  0
   10.2941  -17.6017   25.3907 C   0  0  1  0  0  0  0  0  0  0  0  0
   11.5247  -17.7950   24.5680 C   0  0  0  0  0  0  0  0  0  0  0  0
   12.2343  -19.0630   24.8957 C   0  0  0  0  0  0  0  0  0  0  0  0
   13.4830  -19.1662   24.0535 C   0  0  0  0  0  0  0  0  0  0  0  0
   14.2151  -20.4846   24.3417 C   0  0  0  0  0  0  0  0  0  0  0  0
   15.3124  -20.5549   23.3946 N   0  0  0  0  0  0  0  0  0  0  0  0
   10.4949  -17.7661   26.8477 C   0  0  0  0  0  0  0  0  0  0  0  0
   10.7314  -18.9874   27.4440 O   0  0  0  0  0  0  0  0  0  0  0  0
   10.4518  -16.7518   27.6088 O   0  0  0  0  0  0  0  0  0  0  0  0
  2  1  1  0
  3  2  1  0
  3  4  1  6
  5  6  2  0
  5  3  1  0
  7  8  1  0
  8  9  1  0
  9 10  1  0
 11 10  1  1
 11 12  1  0
 12  5  1  0
 13 15  1  0
 13 11  1  0
 14 13  2  0
 16 22  1  0
 16 15  1  0
 16 17  1  6
 17 18  1  0
 18 19  1  0
 19 20  1  0
 20 21  1  0
 22 23  1  0
 24 22  2  0
M  END
$$$$
