SMK.pdb
     RDKit          3D

 24 23  0  0  1  0  0  0  0  0999 V2000
    7.6729  -18.1598   20.9239 O   0  0  0  0  0  0  0  0  0  0  0  0
    7.0939  -17.0927   20.2286 C   0  0  0  0  0  0  0  0  0  0  0  0
    8.0181  -15.8936   20.2381 C   0  0  2  0  0  0  0  0  0  0  0  0
    9.1265  -16.1527   19.3657 N   0  0  0  0  0  0  0  0  0  0  0  0
    8.5014  -15.5680   21.5964 C   0  0  0  0  0  0  0  0  0  0  0  0
    9.6718  -15.8800   21.9056 O   0  0  0  0  0  0  0  0  0  0  0  0
    7.1350  -11.2215   28.1309 C   0  0  0  0  0  0  0  0  0  0  0  0
    6.5712  -11.8204   26.5272 S   0  0  0  0  0  0  0  0  0  0  0  0
    7.6920  -13.1517   25.9395 C   0  0  0  0  0  0  0  0  0  0  0  0
    7.2541  -13.5855   24.5679 C   0  0  0  0  0  0  0  0  0  0  0  0
    8.1378  -14.5872   23.9124 C   0  0  2  0  0  0  0  0  0  0  0  0
    7.7017  -14.9176   22.5681 N   0  0  0  0  0  0  0  0  0  0  0  0
    8.3802  -15.8231   24.6938 C   0  0  0  0  0  0  0  0  0  0  0  0
    7.4857  -16.6768   24.9084 O   0  0  0  0  0  0  0  0  0  0  0  0
    9.6698  -16.1170   25.2568 N   0  0  0  0  0  0  0  0  0  0  0  0
    9.9607  -17.3926   25.9011 C   0  0  1  0  0  0  0  0  0  0  0  0
   11.0763  -18.0629   25.1701 C   0  0  0  0  0  0  0  0  0  0  0  0
   12.3919  -17.4097   25.4177 C   0  0  0  0  0  0  0  0  0  0  0  0
   13.4514  -18.0948   24.5887 C   0  0  0  0  0  0  0  0  0  0  0  0
   14.8408  -17.5375   24.9296 C   0  0  0  0  0  0  0  0  0  0  0  0
   15.7939  -18.3411   24.1868 N   0  0  0  0  0  0  0  0  0  0  0  0
   10.1947  -17.2127   27.3514 C   0  0  0  0  0  0  0  0  0  0  0  0
   10.3763  -18.2665   28.2230 O   0  0  0  0  0  0  0  0  0  0  0  0
   10.2342  -16.0441   27.8439 O   0  0  0  0  0  0  0  0  0  0  0  0
  2  1  1  0
  3  2  1  0
  3  4  1  6
  5  6  2  0
  5  3  1  0
  7  8  1  0
  8  9  1  0
  9 10  1  0
 11 10  1  1
 11 12  1  0
 12  5  1  0
 13 15  1  0
 13 11  1  0
 14 13  2  0
 16 22  1  0
 16 15  1  0
 16 17  1  6
 17 18  1  0
 18 19  1  0
 19 20  1  0
 20 21  1  0
 22 23  1  0
 24 22  2  0
M  END
$$$$
