SMK.pdb
     RDKit          3D

 24 23  0  0  1  0  0  0  0  0999 V2000
    8.2421  -18.3954   21.8372 O   0  0  0  0  0  0  0  0  0  0  0  0
    7.1909  -17.9533   21.0267 C   0  0  0  0  0  0  0  0  0  0  0  0
    7.5152  -16.5980   20.4349 C   0  0  2  0  0  0  0  0  0  0  0  0
    8.3567  -16.7797   19.2878 N   0  0  0  0  0  0  0  0  0  0  0  0
    8.1682  -15.7008   21.4112 C   0  0  0  0  0  0  0  0  0  0  0  0
    9.3885  -15.4623   21.2816 O   0  0  0  0  0  0  0  0  0  0  0  0
    6.8837  -12.3006   27.8576 C   0  0  0  0  0  0  0  0  0  0  0  0
    6.2191  -11.8561   26.2424 S   0  0  0  0  0  0  0  0  0  0  0  0
    7.4781  -12.1883   24.9468 C   0  0  0  0  0  0  0  0  0  0  0  0
    6.9707  -13.2786   24.0440 C   0  0  0  0  0  0  0  0  0  0  0  0
    8.0270  -14.0633   23.3495 C   0  0  2  0  0  0  0  0  0  0  0  0
    7.4775  -15.0957   22.4899 N   0  0  0  0  0  0  0  0  0  0  0  0
    9.0749  -14.6305   24.2308 C   0  0  0  0  0  0  0  0  0  0  0  0
    9.6982  -13.9415   25.0745 O   0  0  0  0  0  0  0  0  0  0  0  0
    9.4409  -16.0192   24.1679 N   0  0  0  0  0  0  0  0  0  0  0  0
   10.4593  -16.5918   25.0409 C   0  0  1  0  0  0  0  0  0  0  0  0
    9.8438  -17.6796   25.8571 C   0  0  0  0  0  0  0  0  0  0  0  0
   10.8380  -18.3724   26.7234 C   0  0  0  0  0  0  0  0  0  0  0  0
   10.1517  -19.4875   27.4747 C   0  0  0  0  0  0  0  0  0  0  0  0
   11.1497  -20.2074   28.3929 C   0  0  0  0  0  0  0  0  0  0  0  0
   10.4134  -21.2853   29.0268 N   0  0  0  0  0  0  0  0  0  0  0  0
   11.6518  -17.0022   24.2663 C   0  0  0  0  0  0  0  0  0  0  0  0
   12.9380  -16.9122   24.7567 O   0  0  0  0  0  0  0  0  0  0  0  0
   11.5135  -17.4615   23.0916 O   0  0  0  0  0  0  0  0  0  0  0  0
  2  1  1  0
  3  2  1  0
  3  4  1  6
  5  6  2  0
  5  3  1  0
  7  8  1  0
  8  9  1  0
  9 10  1  0
 11 10  1  1
 11 12  1  0
 12  5  1  0
 13 15  1  0
 13 11  1  0
 14 13  2  0
 16 22  1  0
 16 15  1  0
 16 17  1  6
 17 18  1  0
 18 19  1  0
 19 20  1  0
 20 21  1  0
 22 23  1  0
 24 22  2  0
M  END
$$$$
