CKW.pdb
     RDKit          3D

 30 31  0  0  1  0  0  0  0  0999 V2000
   21.0518  -24.3061  -14.7787 N   0  0  0  0  0  0  0  0  0  0  0  0
   21.4358  -23.0121  -14.3184 C   0  0  1  0  0  0  0  0  0  0  0  0
   20.4365  -22.4913  -13.3074 C   0  0  0  0  0  0  0  0  0  0  0  0
   18.8464  -22.1026  -14.0889 S   0  0  0  0  0  0  0  0  0  0  0  0
   22.7845  -22.9426  -13.7317 C   0  0  0  0  0  0  0  0  0  0  0  0
   23.0624  -23.7507  -12.8137 O   0  0  0  0  0  0  0  0  0  0  0  0
   23.7841  -22.0252  -14.1361 N   0  0  0  0  0  0  0  0  0  0  0  0
   25.0498  -22.0327  -13.4600 C   0  0  1  0  0  0  0  0  0  0  0  0
   26.1911  -21.6019  -14.3535 C   0  0  0  0  0  0  0  0  0  0  0  0
   26.6035  -22.6466  -15.3319 C   0  0  0  0  0  0  0  0  0  0  0  0
   27.7554  -22.1232  -16.1545 C   0  0  0  0  0  0  0  0  0  0  0  0
   28.2140  -23.0724  -17.2302 C   0  0  0  0  0  0  0  0  0  0  0  0
   29.3716  -22.5656  -17.9299 N   0  0  0  0  0  0  0  0  0  0  0  0
   24.9583  -21.1777  -12.2363 C   0  0  0  0  0  0  0  0  0  0  0  0
   24.3076  -20.1024  -12.2218 O   0  0  0  0  0  0  0  0  0  0  0  0
   25.6137  -21.5667  -11.0453 N   0  0  0  0  0  0  0  0  0  0  0  0
   25.8719  -20.5940   -9.9625 C   0  0  1  0  0  0  0  0  0  0  0  0
   26.6032  -21.3396   -8.8785 C   0  0  0  0  0  0  0  0  0  0  0  0
   27.0688  -20.4000   -7.8278 C   0  0  0  0  0  0  0  0  0  0  0  0
   26.4312  -19.1866   -7.5216 C   0  0  0  0  0  0  0  0  0  0  0  0
   27.0938  -18.6530   -6.4993 N   0  0  0  0  0  0  0  0  0  0  0  0
   28.1251  -19.4386   -6.1169 C   0  0  0  0  0  0  0  0  0  0  0  0
   29.0869  -19.3163   -5.1395 C   0  0  0  0  0  0  0  0  0  0  0  0
   30.0493  -20.2903   -4.9854 C   0  0  0  0  0  0  0  0  0  0  0  0
   30.0427  -21.3831   -5.8136 C   0  0  0  0  0  0  0  0  0  0  0  0
   29.0941  -21.5097   -6.7816 C   0  0  0  0  0  0  0  0  0  0  0  0
   28.1083  -20.5285   -6.9486 C   0  0  0  0  0  0  0  0  0  0  0  0
   26.5964  -19.4700  -10.5437 C   0  0  0  0  0  0  0  0  0  0  0  0
   27.6540  -19.6626  -11.4123 O   0  0  0  0  0  0  0  0  0  0  0  0
   26.2693  -18.2954  -10.2627 O   0  0  0  0  0  0  0  0  0  0  0  0
  2  3  1  0
  2  5  1  0
  2  1  1  1
  4  3  1  0
  5  6  2  0
  7  8  1  0
  7  5  1  0
  8 14  1  0
  8  9  1  6
 10  9  1  0
 11 12  1  0
 11 10  1  0
 13 12  1  0
 14 15  2  0
 14 16  1  0
 16 17  1  0
 17 28  1  0
 17 18  1  1
 19 18  1  0
 20 19  2  0
 21 20  1  0
 22 21  1  0
 22 27  2  0
 23 22  1  0
 24 23  2  0
 24 25  1  0
 25 26  2  0
 26 27  1  0
 27 19  1  0
 28 30  2  0
 28 29  1  0
M  END
$$$$
