CKW.pdb
     RDKit          3D

 30 31  0  0  1  0  0  0  0  0999 V2000
   30.5438  -23.0947  -18.6337 N   0  0  0  0  0  0  0  0  0  0  0  0
   29.8185  -23.5403  -17.4894 C   0  0  1  0  0  0  0  0  0  0  0  0
   30.7701  -23.9634  -16.3906 C   0  0  0  0  0  0  0  0  0  0  0  0
   31.2690  -25.6971  -16.5790 S   0  0  0  0  0  0  0  0  0  0  0  0
   28.8682  -22.5578  -16.9419 C   0  0  0  0  0  0  0  0  0  0  0  0
   29.1421  -21.3420  -17.0826 O   0  0  0  0  0  0  0  0  0  0  0  0
   27.6693  -22.8965  -16.2693 N   0  0  0  0  0  0  0  0  0  0  0  0
   26.8022  -21.8448  -15.8210 C   0  0  1  0  0  0  0  0  0  0  0  0
   25.6701  -21.5711  -16.7855 C   0  0  0  0  0  0  0  0  0  0  0  0
   24.7701  -22.7404  -16.9886 C   0  0  0  0  0  0  0  0  0  0  0  0
   23.6440  -22.3404  -17.9101 C   0  0  0  0  0  0  0  0  0  0  0  0
   22.6938  -23.4641  -18.2311 C   0  0  0  0  0  0  0  0  0  0  0  0
   21.4006  -23.2590  -17.6211 N   0  0  0  0  0  0  0  0  0  0  0  0
   26.2911  -22.1777  -14.4554 C   0  0  0  0  0  0  0  0  0  0  0  0
   26.5838  -23.2557  -13.8789 O   0  0  0  0  0  0  0  0  0  0  0  0
   25.4515  -21.2706  -13.7688 N   0  0  0  0  0  0  0  0  0  0  0  0
   25.2978  -21.3338  -12.2999 C   0  0  1  0  0  0  0  0  0  0  0  0
   26.6621  -21.0893  -11.7128 C   0  0  0  0  0  0  0  0  0  0  0  0
   26.5474  -20.6761  -10.2916 C   0  0  0  0  0  0  0  0  0  0  0  0
   25.3300  -20.3838   -9.6551 C   0  0  0  0  0  0  0  0  0  0  0  0
   25.6172  -20.1123   -8.3852 N   0  0  0  0  0  0  0  0  0  0  0  0
   26.9448  -20.2069   -8.1494 C   0  0  0  0  0  0  0  0  0  0  0  0
   27.7152  -20.0128   -7.0250 C   0  0  0  0  0  0  0  0  0  0  0  0
   29.0829  -20.1678   -7.0842 C   0  0  0  0  0  0  0  0  0  0  0  0
   29.6723  -20.5165   -8.2722 C   0  0  0  0  0  0  0  0  0  0  0  0
   28.9156  -20.7101   -9.3872 C   0  0  0  0  0  0  0  0  0  0  0  0
   27.5239  -20.5581   -9.3415 C   0  0  0  0  0  0  0  0  0  0  0  0
   24.2742  -20.3666  -11.9221 C   0  0  0  0  0  0  0  0  0  0  0  0
   23.3958  -20.6116  -10.8836 O   0  0  0  0  0  0  0  0  0  0  0  0
   24.1713  -19.2831  -12.5394 O   0  0  0  0  0  0  0  0  0  0  0  0
  2  3  1  0
  2  5  1  0
  2  1  1  6
  4  3  1  0
  5  6  2  0
  7  8  1  0
  7  5  1  0
  8 14  1  0
  8  9  1  6
 10  9  1  0
 11 12  1  0
 11 10  1  0
 13 12  1  0
 14 15  2  0
 14 16  1  0
 16 17  1  0
 17 28  1  0
 17 18  1  1
 19 18  1  0
 20 19  2  0
 21 20  1  0
 22 21  1  0
 22 27  2  0
 23 22  1  0
 24 23  2  0
 24 25  1  0
 25 26  2  0
 26 27  1  0
 27 19  1  0
 28 30  2  0
 28 29  1  0
M  END
$$$$
