CKW.pdb
     RDKit          3D

 30 31  0  0  1  0  0  0  0  0999 V2000
   29.6347  -21.5551  -18.1919 N   0  0  0  0  0  0  0  0  0  0  0  0
   29.1827  -22.2344  -17.0222 C   0  0  1  0  0  0  0  0  0  0  0  0
   30.3354  -22.9404  -16.3407 C   0  0  0  0  0  0  0  0  0  0  0  0
   30.7538  -24.4904  -17.1850 S   0  0  0  0  0  0  0  0  0  0  0  0
   28.5020  -21.3774  -16.0371 C   0  0  0  0  0  0  0  0  0  0  0  0
   29.0597  -20.3002  -15.7187 O   0  0  0  0  0  0  0  0  0  0  0  0
   27.2626  -21.6907  -15.4285 N   0  0  0  0  0  0  0  0  0  0  0  0
   26.6972  -20.7676  -14.4865 C   0  0  1  0  0  0  0  0  0  0  0  0
   25.4314  -20.1160  -14.9962 C   0  0  0  0  0  0  0  0  0  0  0  0
   25.6259  -19.3550  -16.2618 C   0  0  0  0  0  0  0  0  0  0  0  0
   24.3109  -18.7391  -16.6727 C   0  0  0  0  0  0  0  0  0  0  0  0
   23.5998  -19.4968  -17.7630 C   0  0  0  0  0  0  0  0  0  0  0  0
   22.3757  -18.8393  -18.1577 N   0  0  0  0  0  0  0  0  0  0  0  0
   26.4672  -21.4709  -13.1868 C   0  0  0  0  0  0  0  0  0  0  0  0
   26.1057  -22.6736  -13.1348 O   0  0  0  0  0  0  0  0  0  0  0  0
   26.6547  -20.7862  -11.9639 N   0  0  0  0  0  0  0  0  0  0  0  0
   26.4076  -21.4542  -10.6686 C   0  0  1  0  0  0  0  0  0  0  0  0
   27.6801  -21.3366   -9.8732 C   0  0  0  0  0  0  0  0  0  0  0  0
   27.4286  -20.6201   -8.5976 C   0  0  0  0  0  0  0  0  0  0  0  0
   26.2463  -19.9179   -8.3118 C   0  0  0  0  0  0  0  0  0  0  0  0
   26.3618  -19.4638   -7.0671 N   0  0  0  0  0  0  0  0  0  0  0  0
   27.5445  -19.8226   -6.5197 C   0  0  0  0  0  0  0  0  0  0  0  0
   28.1206  -19.5882   -5.2914 C   0  0  0  0  0  0  0  0  0  0  0  0
   29.3779  -20.0757   -5.0089 C   0  0  0  0  0  0  0  0  0  0  0  0
   30.0525  -20.7961   -5.9609 C   0  0  0  0  0  0  0  0  0  0  0  0
   29.4879  -21.0312   -7.1770 C   0  0  0  0  0  0  0  0  0  0  0  0
   28.2095  -20.5437   -7.4775 C   0  0  0  0  0  0  0  0  0  0  0  0
   25.2362  -20.8285  -10.0666 C   0  0  0  0  0  0  0  0  0  0  0  0
   24.6013  -21.3845   -8.9722 O   0  0  0  0  0  0  0  0  0  0  0  0
   24.7787  -19.7627  -10.5363 O   0  0  0  0  0  0  0  0  0  0  0  0
  2  3  1  0
  2  5  1  0
  2  1  1  6
  4  3  1  0
  5  6  2  0
  7  8  1  0
  7  5  1  0
  8 14  1  0
  8  9  1  6
 10  9  1  0
 11 12  1  0
 11 10  1  0
 13 12  1  0
 14 15  2  0
 14 16  1  0
 16 17  1  0
 17 28  1  0
 17 18  1  1
 19 18  1  0
 20 19  2  0
 21 20  1  0
 22 21  1  0
 22 27  2  0
 23 22  1  0
 24 23  2  0
 24 25  1  0
 25 26  2  0
 26 27  1  0
 27 19  1  0
 28 30  2  0
 28 29  1  0
M  END
$$$$
