CKW.pdb
     RDKit          3D

 30 31  0  0  1  0  0  0  0  0999 V2000
   26.2148  -16.4533  -18.6662 N   0  0  0  0  0  0  0  0  0  0  0  0
   26.9149  -16.9056  -17.5089 C   0  0  1  0  0  0  0  0  0  0  0  0
   26.5208  -16.0874  -16.2978 C   0  0  0  0  0  0  0  0  0  0  0  0
   27.3065  -14.4526  -16.3197 S   0  0  0  0  0  0  0  0  0  0  0  0
   26.7319  -18.3330  -17.1974 C   0  0  0  0  0  0  0  0  0  0  0  0
   25.5660  -18.7933  -17.2399 O   0  0  0  0  0  0  0  0  0  0  0  0
   27.7840  -19.2160  -16.8542 N   0  0  0  0  0  0  0  0  0  0  0  0
   27.4701  -20.5763  -16.5222 C   0  0  1  0  0  0  0  0  0  0  0  0
   28.5535  -21.5441  -16.9420 C   0  0  0  0  0  0  0  0  0  0  0  0
   28.2006  -22.9702  -16.6963 C   0  0  0  0  0  0  0  0  0  0  0  0
   29.3835  -23.8379  -17.0503 C   0  0  0  0  0  0  0  0  0  0  0  0
   29.0892  -25.3142  -17.0038 C   0  0  0  0  0  0  0  0  0  0  0  0
   30.2383  -26.0991  -17.3911 N   0  0  0  0  0  0  0  0  0  0  0  0
   27.1870  -20.6717  -15.0568 C   0  0  0  0  0  0  0  0  0  0  0  0
   27.9761  -20.2100  -14.1942 O   0  0  0  0  0  0  0  0  0  0  0  0
   26.0031  -21.2951  -14.5995 N   0  0  0  0  0  0  0  0  0  0  0  0
   25.7531  -21.4948  -13.1563 C   0  0  1  0  0  0  0  0  0  0  0  0
   25.4027  -20.1454  -12.5887 C   0  0  0  0  0  0  0  0  0  0  0  0
   24.1901  -19.6040  -13.2522 C   0  0  0  0  0  0  0  0  0  0  0  0
   22.9576  -20.2755  -13.3036 C   0  0  0  0  0  0  0  0  0  0  0  0
   22.1043  -19.4634  -13.9211 N   0  0  0  0  0  0  0  0  0  0  0  0
   22.6993  -18.3035  -14.2785 C   0  0  0  0  0  0  0  0  0  0  0  0
   22.2490  -17.1803  -14.9352 C   0  0  0  0  0  0  0  0  0  0  0  0
   23.1054  -16.1299  -15.1833 C   0  0  0  0  0  0  0  0  0  0  0  0
   24.4109  -16.2113  -14.7718 C   0  0  0  0  0  0  0  0  0  0  0  0
   24.8617  -17.3191  -14.1218 C   0  0  0  0  0  0  0  0  0  0  0  0
   24.0020  -18.3938  -13.8608 C   0  0  0  0  0  0  0  0  0  0  0  0
   24.7184  -22.5138  -13.0254 C   0  0  0  0  0  0  0  0  0  0  0  0
   24.1122  -23.0754  -14.1331 O   0  0  0  0  0  0  0  0  0  0  0  0
   24.3561  -22.9032  -11.8928 O   0  0  0  0  0  0  0  0  0  0  0  0
  2  3  1  0
  2  5  1  0
  2  1  1  6
  4  3  1  0
  5  6  2  0
  7  8  1  0
  7  5  1  0
  8 14  1  0
  8  9  1  1
 10  9  1  0
 11 12  1  0
 11 10  1  0
 13 12  1  0
 14 15  2  0
 14 16  1  0
 16 17  1  0
 17 28  1  0
 17 18  1  6
 19 18  1  0
 20 19  2  0
 21 20  1  0
 22 21  1  0
 22 27  2  0
 23 22  1  0
 24 23  2  0
 24 25  1  0
 25 26  2  0
 26 27  1  0
 27 19  1  0
 28 30  2  0
 28 29  1  0
M  END
$$$$
