CKW.pdb
     RDKit          3D

 30 31  0  0  1  0  0  0  0  0999 V2000
   28.7075  -19.6046  -17.3481 N   0  0  0  0  0  0  0  0  0  0  0  0
   28.1798  -20.5919  -16.4646 C   0  0  1  0  0  0  0  0  0  0  0  0
   29.2002  -21.6829  -16.2191 C   0  0  0  0  0  0  0  0  0  0  0  0
   28.5287  -22.9893  -15.1550 S   0  0  0  0  0  0  0  0  0  0  0  0
   27.7185  -20.0727  -15.1663 C   0  0  0  0  0  0  0  0  0  0  0  0
   28.5063  -19.3435  -14.5177 O   0  0  0  0  0  0  0  0  0  0  0  0
   26.4471  -20.3429  -14.6052 N   0  0  0  0  0  0  0  0  0  0  0  0
   26.0908  -19.7254  -13.3598 C   0  0  1  0  0  0  0  0  0  0  0  0
   24.7847  -18.9674  -13.4371 C   0  0  0  0  0  0  0  0  0  0  0  0
   24.8009  -17.8607  -14.4339 C   0  0  0  0  0  0  0  0  0  0  0  0
   23.4543  -17.1795  -14.4349 C   0  0  0  0  0  0  0  0  0  0  0  0
   23.3413  -16.0590  -15.4349 C   0  0  0  0  0  0  0  0  0  0  0  0
   22.0596  -15.3980  -15.3520 N   0  0  0  0  0  0  0  0  0  0  0  0
   26.0582  -20.7666  -12.2867 C   0  0  0  0  0  0  0  0  0  0  0  0
   25.7001  -21.9494  -12.5164 O   0  0  0  0  0  0  0  0  0  0  0  0
   26.4364  -20.4383  -10.9644 N   0  0  0  0  0  0  0  0  0  0  0  0
   26.4098  -21.4514   -9.8882 C   0  0  1  0  0  0  0  0  0  0  0  0
   27.7264  -21.3477   -9.1659 C   0  0  0  0  0  0  0  0  0  0  0  0
   27.6695  -20.2787   -8.1374 C   0  0  0  0  0  0  0  0  0  0  0  0
   26.8357  -19.1517   -8.2220 C   0  0  0  0  0  0  0  0  0  0  0  0
   27.0155  -18.4571   -7.1022 N   0  0  0  0  0  0  0  0  0  0  0  0
   27.9145  -19.0563   -6.2900 C   0  0  0  0  0  0  0  0  0  0  0  0
   28.4323  -18.7275   -5.0574 C   0  0  0  0  0  0  0  0  0  0  0  0
   29.3716  -19.5387   -4.4591 C   0  0  0  0  0  0  0  0  0  0  0  0
   29.7881  -20.6767   -5.1007 C   0  0  0  0  0  0  0  0  0  0  0  0
   29.2795  -21.0072   -6.3194 C   0  0  0  0  0  0  0  0  0  0  0  0
   28.3224  -20.1932   -6.9388 C   0  0  0  0  0  0  0  0  0  0  0  0
   25.2291  -21.1958   -9.0717 C   0  0  0  0  0  0  0  0  0  0  0  0
   24.2923  -20.2458   -9.4323 O   0  0  0  0  0  0  0  0  0  0  0  0
   25.0403  -21.8404   -8.0160 O   0  0  0  0  0  0  0  0  0  0  0  0
  2  3  1  0
  2  5  1  0
  2  1  1  6
  4  3  1  0
  5  6  2  0
  7  8  1  0
  7  5  1  0
  8 14  1  0
  8  9  1  6
 10  9  1  0
 11 12  1  0
 11 10  1  0
 13 12  1  0
 14 15  2  0
 14 16  1  0
 16 17  1  0
 17 28  1  0
 17 18  1  1
 19 18  1  0
 20 19  2  0
 21 20  1  0
 22 21  1  0
 22 27  2  0
 23 22  1  0
 24 23  2  0
 24 25  1  0
 25 26  2  0
 26 27  1  0
 27 19  1  0
 28 30  2  0
 28 29  1  0
M  END
$$$$
