CKW.pdb
     RDKit          3D

 30 31  0  0  1  0  0  0  0  0999 V2000
   29.6867  -36.9356   -5.5740 N   0  0  0  0  0  0  0  0  0  0  0  0
   30.2613  -35.9221   -4.7515 C   0  0  1  0  0  0  0  0  0  0  0  0
   29.2685  -34.8035   -4.5176 C   0  0  0  0  0  0  0  0  0  0  0  0
   28.8268  -33.9758   -6.0700 S   0  0  0  0  0  0  0  0  0  0  0  0
   30.7588  -36.3952   -3.4489 C   0  0  0  0  0  0  0  0  0  0  0  0
   30.1397  -37.3353   -2.8958 O   0  0  0  0  0  0  0  0  0  0  0  0
   31.8872  -35.8586   -2.7832 N   0  0  0  0  0  0  0  0  0  0  0  0
   32.2702  -36.4047   -1.5127 C   0  0  1  0  0  0  0  0  0  0  0  0
   33.6307  -35.9262   -1.0581 C   0  0  0  0  0  0  0  0  0  0  0  0
   34.7517  -36.4653   -1.8774 C   0  0  0  0  0  0  0  0  0  0  0  0
   36.0448  -35.8407   -1.4137 C   0  0  0  0  0  0  0  0  0  0  0  0
   37.2496  -36.2822   -2.2024 C   0  0  0  0  0  0  0  0  0  0  0  0
   38.4586  -35.6508   -1.7267 N   0  0  0  0  0  0  0  0  0  0  0  0
   31.2124  -36.0897   -0.5034 C   0  0  0  0  0  0  0  0  0  0  0  0
   30.4392  -35.1072   -0.6329 O   0  0  0  0  0  0  0  0  0  0  0  0
   31.0548  -36.9051    0.6410 N   0  0  0  0  0  0  0  0  0  0  0  0
   30.0688  -36.5680    1.6895 C   0  0  1  0  0  0  0  0  0  0  0  0
   28.7248  -36.5086    1.0143 C   0  0  0  0  0  0  0  0  0  0  0  0
   27.6465  -36.3454    2.0215 C   0  0  0  0  0  0  0  0  0  0  0  0
   27.4279  -35.1666    2.7532 C   0  0  0  0  0  0  0  0  0  0  0  0
   26.3508  -35.3764    3.5046 N   0  0  0  0  0  0  0  0  0  0  0  0
   25.8505  -36.6173    3.3128 C   0  0  0  0  0  0  0  0  0  0  0  0
   24.7803  -37.2927    3.8549 C   0  0  0  0  0  0  0  0  0  0  0  0
   24.5111  -38.5891    3.4739 C   0  0  0  0  0  0  0  0  0  0  0  0
   25.3178  -39.2029    2.5504 C   0  0  0  0  0  0  0  0  0  0  0  0
   26.3773  -38.5400    2.0107 C   0  0  0  0  0  0  0  0  0  0  0  0
   26.6618  -37.2211    2.3870 C   0  0  0  0  0  0  0  0  0  0  0  0
   30.1917  -37.5648    2.7466 C   0  0  0  0  0  0  0  0  0  0  0  0
   31.2158  -38.4929    2.7499 O   0  0  0  0  0  0  0  0  0  0  0  0
   29.3613  -37.5982    3.6820 O   0  0  0  0  0  0  0  0  0  0  0  0
  2  3  1  0
  2  5  1  0
  2  1  1  1
  4  3  1  0
  5  6  2  0
  7  8  1  0
  7  5  1  0
  8 14  1  0
  8  9  1  1
 10  9  1  0
 11 12  1  0
 11 10  1  0
 13 12  1  0
 14 15  2  0
 14 16  1  0
 16 17  1  0
 17 28  1  0
 17 18  1  6
 19 18  1  0
 20 19  2  0
 21 20  1  0
 22 21  1  0
 22 27  2  0
 23 22  1  0
 24 23  2  0
 24 25  1  0
 25 26  2  0
 26 27  1  0
 27 19  1  0
 28 30  2  0
 28 29  1  0
M  END
$$$$
