CKW.pdb
     RDKit          3D

 30 31  0  0  1  0  0  0  0  0999 V2000
   21.2291  -14.1406  -20.2381 N   0  0  0  0  0  0  0  0  0  0  0  0
   21.7893  -13.3726  -19.1750 C   0  0  1  0  0  0  0  0  0  0  0  0
   23.0795  -12.7163  -19.6182 C   0  0  0  0  0  0  0  0  0  0  0  0
   24.3048  -13.9493  -20.1364 S   0  0  0  0  0  0  0  0  0  0  0  0
   20.8960  -12.3395  -18.6247 C   0  0  0  0  0  0  0  0  0  0  0  0
   20.2403  -11.6443  -19.4369 O   0  0  0  0  0  0  0  0  0  0  0  0
   20.7305  -12.0817  -17.2425 N   0  0  0  0  0  0  0  0  0  0  0  0
   19.7279  -11.1439  -16.8249 C   0  0  1  0  0  0  0  0  0  0  0  0
   18.6153  -11.7933  -16.0330 C   0  0  0  0  0  0  0  0  0  0  0  0
   17.5485  -12.3854  -16.8874 C   0  0  0  0  0  0  0  0  0  0  0  0
   16.2157  -11.8034  -16.4845 C   0  0  0  0  0  0  0  0  0  0  0  0
   15.0549  -12.3334  -17.2846 C   0  0  0  0  0  0  0  0  0  0  0  0
   14.0257  -12.8809  -16.4317 N   0  0  0  0  0  0  0  0  0  0  0  0
   20.3783  -10.0401  -16.0535 C   0  0  0  0  0  0  0  0  0  0  0  0
   21.1316  -10.2663  -15.0730 O   0  0  0  0  0  0  0  0  0  0  0  0
   20.1568   -8.6914  -16.4161 N   0  0  0  0  0  0  0  0  0  0  0  0
   20.7686   -7.5842  -15.6513 C   0  0  1  0  0  0  0  0  0  0  0  0
   20.9403   -6.4391  -16.6131 C   0  0  0  0  0  0  0  0  0  0  0  0
   21.4549   -5.2406  -15.9042 C   0  0  0  0  0  0  0  0  0  0  0  0
   22.7676   -5.1187  -15.4198 C   0  0  0  0  0  0  0  0  0  0  0  0
   22.8732   -3.8980  -14.9025 N   0  0  0  0  0  0  0  0  0  0  0  0
   21.7135   -3.2130  -15.0160 C   0  0  0  0  0  0  0  0  0  0  0  0
   21.3278   -1.9487  -14.6308 C   0  0  0  0  0  0  0  0  0  0  0  0
   20.0428   -1.5115  -14.8676 C   0  0  0  0  0  0  0  0  0  0  0  0
   19.1496   -2.3455  -15.4897 C   0  0  0  0  0  0  0  0  0  0  0  0
   19.5253   -3.5964  -15.8732 C   0  0  0  0  0  0  0  0  0  0  0  0
   20.8289   -4.0537  -15.6409 C   0  0  0  0  0  0  0  0  0  0  0  0
   19.9085   -7.3123  -14.5057 C   0  0  0  0  0  0  0  0  0  0  0  0
   20.4262   -6.8824  -13.2985 O   0  0  0  0  0  0  0  0  0  0  0  0
   18.6699   -7.4654  -14.5961 O   0  0  0  0  0  0  0  0  0  0  0  0
  2  3  1  0
  2  5  1  0
  2  1  1  6
  4  3  1  0
  5  6  2  0
  7  8  1  0
  7  5  1  0
  8 14  1  0
  8  9  1  1
 10  9  1  0
 11 12  1  0
 11 10  1  0
 13 12  1  0
 14 15  2  0
 14 16  1  0
 16 17  1  0
 17 28  1  0
 17 18  1  6
 19 18  1  0
 20 19  2  0
 21 20  1  0
 22 21  1  0
 22 27  2  0
 23 22  1  0
 24 23  2  0
 24 25  1  0
 25 26  2  0
 26 27  1  0
 27 19  1  0
 28 30  2  0
 28 29  1  0
M  END
$$$$
