CKW.pdb
     RDKit          3D

 30 31  0  0  1  0  0  0  0  0999 V2000
   24.1666   -7.4943  -22.3880 N   0  0  0  0  0  0  0  0  0  0  0  0
   22.9736   -7.7375  -21.6454 C   0  0  1  0  0  0  0  0  0  0  0  0
   23.0083   -9.1175  -21.0240 C   0  0  0  0  0  0  0  0  0  0  0  0
   21.5154   -9.4401  -20.0456 S   0  0  0  0  0  0  0  0  0  0  0  0
   22.6925   -6.7491  -20.5909 C   0  0  0  0  0  0  0  0  0  0  0  0
   23.5721   -6.5652  -19.7160 O   0  0  0  0  0  0  0  0  0  0  0  0
   21.4972   -5.9957  -20.5017 N   0  0  0  0  0  0  0  0  0  0  0  0
   21.3753   -5.0038  -19.4719 C   0  0  1  0  0  0  0  0  0  0  0  0
   20.4087   -3.8997  -19.8368 C   0  0  0  0  0  0  0  0  0  0  0  0
   20.3911   -2.7801  -18.8545 C   0  0  0  0  0  0  0  0  0  0  0  0
   19.3773   -1.7534  -19.2967 C   0  0  0  0  0  0  0  0  0  0  0  0
   19.3436   -0.5213  -18.4311 C   0  0  0  0  0  0  0  0  0  0  0  0
   18.3504    0.4233  -18.8870 N   0  0  0  0  0  0  0  0  0  0  0  0
   20.9879   -5.6708  -18.1905 C   0  0  0  0  0  0  0  0  0  0  0  0
   20.0651   -6.5226  -18.1351 O   0  0  0  0  0  0  0  0  0  0  0  0
   21.6633   -5.3527  -16.9897 N   0  0  0  0  0  0  0  0  0  0  0  0
   21.3158   -6.0207  -15.7176 C   0  0  1  0  0  0  0  0  0  0  0  0
   22.5319   -6.8000  -15.2937 C   0  0  0  0  0  0  0  0  0  0  0  0
   22.2067   -7.6817  -14.1445 C   0  0  0  0  0  0  0  0  0  0  0  0
   21.3793   -7.3034  -13.0745 C   0  0  0  0  0  0  0  0  0  0  0  0
   21.2754   -8.3629  -12.2774 N   0  0  0  0  0  0  0  0  0  0  0  0
   21.9826   -9.4106  -12.7561 C   0  0  0  0  0  0  0  0  0  0  0  0
   22.1932  -10.6908  -12.2953 C   0  0  0  0  0  0  0  0  0  0  0  0
   22.9954  -11.5606  -13.0012 C   0  0  0  0  0  0  0  0  0  0  0  0
   23.5838  -11.1416  -14.1668 C   0  0  0  0  0  0  0  0  0  0  0  0
   23.3790   -9.8772  -14.6275 C   0  0  0  0  0  0  0  0  0  0  0  0
   22.5643   -8.9827  -13.9216 C   0  0  0  0  0  0  0  0  0  0  0  0
   20.8794   -4.9896  -14.7835 C   0  0  0  0  0  0  0  0  0  0  0  0
   19.7693   -5.1655  -13.9792 O   0  0  0  0  0  0  0  0  0  0  0  0
   21.5103   -3.9129  -14.6923 O   0  0  0  0  0  0  0  0  0  0  0  0
  2  3  1  0
  2  5  1  0
  2  1  1  1
  4  3  1  0
  5  6  2  0
  7  8  1  0
  7  5  1  0
  8 14  1  0
  8  9  1  6
 10  9  1  0
 11 12  1  0
 11 10  1  0
 13 12  1  0
 14 15  2  0
 14 16  1  0
 16 17  1  0
 17 28  1  0
 17 18  1  1
 19 18  1  0
 20 19  2  0
 21 20  1  0
 22 21  1  0
 22 27  2  0
 23 22  1  0
 24 23  2  0
 24 25  1  0
 25 26  2  0
 26 27  1  0
 27 19  1  0
 28 30  2  0
 28 29  1  0
M  END
$$$$
