CKW.pdb
     RDKit          3D

 30 31  0  0  1  0  0  0  0  0999 V2000
   24.0718  -13.2457  -18.3290 N   0  0  0  0  0  0  0  0  0  0  0  0
   23.2912  -13.0190  -17.1572 C   0  0  1  0  0  0  0  0  0  0  0  0
   24.1831  -12.6626  -15.9871 C   0  0  0  0  0  0  0  0  0  0  0  0
   25.3001  -14.0286  -15.5669 S   0  0  0  0  0  0  0  0  0  0  0  0
   22.2562  -11.9812  -17.2983 C   0  0  0  0  0  0  0  0  0  0  0  0
   22.5981  -10.8819  -17.7960 O   0  0  0  0  0  0  0  0  0  0  0  0
   20.9047  -12.1443  -16.9094 N   0  0  0  0  0  0  0  0  0  0  0  0
   19.9727  -11.0850  -17.1715 C   0  0  1  0  0  0  0  0  0  0  0  0
   18.5423  -11.5704  -17.2412 C   0  0  0  0  0  0  0  0  0  0  0  0
   18.1436  -12.0441  -18.5959 C   0  0  0  0  0  0  0  0  0  0  0  0
   16.7067  -12.5036  -18.5534 C   0  0  0  0  0  0  0  0  0  0  0  0
   16.1783  -12.9688  -19.8848 C   0  0  0  0  0  0  0  0  0  0  0  0
   14.8067  -13.4113  -19.7886 N   0  0  0  0  0  0  0  0  0  0  0  0
   20.1398  -10.0167  -16.1382 C   0  0  0  0  0  0  0  0  0  0  0  0
   20.0868  -10.2659  -14.9074 O   0  0  0  0  0  0  0  0  0  0  0  0
   20.3656   -8.6768  -16.5296 N   0  0  0  0  0  0  0  0  0  0  0  0
   20.4703   -7.5954  -15.5272 C   0  0  1  0  0  0  0  0  0  0  0  0
   21.7348   -6.8404  -15.8381 C   0  0  0  0  0  0  0  0  0  0  0  0
   21.8432   -5.6358  -14.9773 C   0  0  0  0  0  0  0  0  0  0  0  0
   22.1848   -5.6726  -13.6154 C   0  0  0  0  0  0  0  0  0  0  0  0
   22.2388   -4.4103  -13.1998 N   0  0  0  0  0  0  0  0  0  0  0  0
   21.9534   -3.5492  -14.2019 C   0  0  0  0  0  0  0  0  0  0  0  0
   21.8705   -2.1765  -14.2656 C   0  0  0  0  0  0  0  0  0  0  0  0
   21.5345   -1.5545  -15.4482 C   0  0  0  0  0  0  0  0  0  0  0  0
   21.2824   -2.3130  -16.5623 C   0  0  0  0  0  0  0  0  0  0  0  0
   21.3631   -3.6707  -16.5055 C   0  0  0  0  0  0  0  0  0  0  0  0
   21.7056   -4.3167  -15.3107 C   0  0  0  0  0  0  0  0  0  0  0  0
   19.2431   -6.8109  -15.5957 C   0  0  0  0  0  0  0  0  0  0  0  0
   18.7463   -6.1473  -14.4899 O   0  0  0  0  0  0  0  0  0  0  0  0
   18.6094   -6.7234  -16.6711 O   0  0  0  0  0  0  0  0  0  0  0  0
  2  3  1  0
  2  5  1  0
  2  1  1  6
  4  3  1  0
  5  6  2  0
  7  8  1  0
  7  5  1  0
  8 14  1  0
  8  9  1  1
 10  9  1  0
 11 12  1  0
 11 10  1  0
 13 12  1  0
 14 15  2  0
 14 16  1  0
 16 17  1  0
 17 28  1  0
 17 18  1  6
 19 18  1  0
 20 19  2  0
 21 20  1  0
 22 21  1  0
 22 27  2  0
 23 22  1  0
 24 23  2  0
 24 25  1  0
 25 26  2  0
 26 27  1  0
 27 19  1  0
 28 30  2  0
 28 29  1  0
M  END
$$$$
