CKW.pdb
     RDKit          3D

 30 31  0  0  1  0  0  0  0  0999 V2000
   28.2608  -19.0033  -18.2991 N   0  0  0  0  0  0  0  0  0  0  0  0
   28.4249  -19.3562  -16.9270 C   0  0  1  0  0  0  0  0  0  0  0  0
   28.5107  -18.1135  -16.0669 C   0  0  0  0  0  0  0  0  0  0  0  0
   29.9943  -17.1435  -16.4521 S   0  0  0  0  0  0  0  0  0  0  0  0
   27.3738  -20.2351  -16.3876 C   0  0  0  0  0  0  0  0  0  0  0  0
   26.2201  -19.7579  -16.2690 O   0  0  0  0  0  0  0  0  0  0  0  0
   27.5817  -21.5796  -15.9956 N   0  0  0  0  0  0  0  0  0  0  0  0
   26.4754  -22.3316  -15.4760 C   0  0  1  0  0  0  0  0  0  0  0  0
   26.4738  -23.7683  -15.9476 C   0  0  0  0  0  0  0  0  0  0  0  0
   26.1293  -23.9175  -17.3890 C   0  0  0  0  0  0  0  0  0  0  0  0
   26.0952  -25.3854  -17.7374 C   0  0  0  0  0  0  0  0  0  0  0  0
   25.8200  -25.6579  -19.1929 C   0  0  0  0  0  0  0  0  0  0  0  0
   25.8590  -27.0716  -19.4871 N   0  0  0  0  0  0  0  0  0  0  0  0
   26.4800  -22.2443  -13.9830 C   0  0  0  0  0  0  0  0  0  0  0  0
   27.4891  -22.5536  -13.3004 O   0  0  0  0  0  0  0  0  0  0  0  0
   25.3277  -21.8035  -13.2921 N   0  0  0  0  0  0  0  0  0  0  0  0
   25.3296  -21.6524  -11.8216 C   0  0  1  0  0  0  0  0  0  0  0  0
   26.4729  -20.7333  -11.4842 C   0  0  0  0  0  0  0  0  0  0  0  0
   26.4579  -20.3980  -10.0381 C   0  0  0  0  0  0  0  0  0  0  0  0
   25.2964  -20.0666   -9.3213 C   0  0  0  0  0  0  0  0  0  0  0  0
   25.6647  -19.8893   -8.0557 N   0  0  0  0  0  0  0  0  0  0  0  0
   26.9932  -20.0822   -7.8978 C   0  0  0  0  0  0  0  0  0  0  0  0
   27.8306  -20.0043   -6.8078 C   0  0  0  0  0  0  0  0  0  0  0  0
   29.1802  -20.2427   -6.9495 C   0  0  0  0  0  0  0  0  0  0  0  0
   29.6842  -20.5577   -8.1852 C   0  0  0  0  0  0  0  0  0  0  0  0
   28.8611  -20.6364   -9.2666 C   0  0  0  0  0  0  0  0  0  0  0  0
   27.4867  -20.3988   -9.1372 C   0  0  0  0  0  0  0  0  0  0  0  0
   24.0094  -21.1762  -11.4260 C   0  0  0  0  0  0  0  0  0  0  0  0
   23.5250  -21.3682  -10.1459 O   0  0  0  0  0  0  0  0  0  0  0  0
   23.2818  -20.5774  -12.2492 O   0  0  0  0  0  0  0  0  0  0  0  0
  2  3  1  0
  2  5  1  0
  2  1  1  6
  4  3  1  0
  5  6  2  0
  7  8  1  0
  7  5  1  0
  8 14  1  0
  8  9  1  1
 10  9  1  0
 11 12  1  0
 11 10  1  0
 13 12  1  0
 14 15  2  0
 14 16  1  0
 16 17  1  0
 17 28  1  0
 17 18  1  6
 19 18  1  0
 20 19  2  0
 21 20  1  0
 22 21  1  0
 22 27  2  0
 23 22  1  0
 24 23  2  0
 24 25  1  0
 25 26  2  0
 26 27  1  0
 27 19  1  0
 28 30  2  0
 28 29  1  0
M  END
$$$$
