CKW.pdb
     RDKit          3D

 30 31  0  0  1  0  0  0  0  0999 V2000
   33.0855  -28.9642  -22.5843 N   0  0  0  0  0  0  0  0  0  0  0  0
   33.3637  -28.8771  -21.1883 C   0  0  1  0  0  0  0  0  0  0  0  0
   32.9819  -27.5122  -20.6561 C   0  0  0  0  0  0  0  0  0  0  0  0
   34.3629  -26.3430  -20.7824 S   0  0  0  0  0  0  0  0  0  0  0  0
   32.7095  -29.9076  -20.3648 C   0  0  0  0  0  0  0  0  0  0  0  0
   31.5431  -30.2476  -20.6759 O   0  0  0  0  0  0  0  0  0  0  0  0
   33.3109  -30.5369  -19.2482 N   0  0  0  0  0  0  0  0  0  0  0  0
   32.5811  -31.5538  -18.5463 C   0  0  1  0  0  0  0  0  0  0  0  0
   33.4840  -32.5092  -17.7990 C   0  0  0  0  0  0  0  0  0  0  0  0
   32.7446  -33.5939  -17.0951 C   0  0  0  0  0  0  0  0  0  0  0  0
   33.7386  -34.5579  -16.4952 C   0  0  0  0  0  0  0  0  0  0  0  0
   34.6427  -33.9348  -15.4642 C   0  0  0  0  0  0  0  0  0  0  0  0
   35.6189  -34.8785  -14.9714 N   0  0  0  0  0  0  0  0  0  0  0  0
   31.5913  -30.9054  -17.6315 C   0  0  0  0  0  0  0  0  0  0  0  0
   31.9312  -30.0341  -16.7918 O   0  0  0  0  0  0  0  0  0  0  0  0
   30.2250  -31.2645  -17.6915 N   0  0  0  0  0  0  0  0  0  0  0  0
   29.2302  -30.6376  -16.7956 C   0  0  1  0  0  0  0  0  0  0  0  0
   28.5244  -29.5834  -17.6057 C   0  0  0  0  0  0  0  0  0  0  0  0
   27.1600  -30.0394  -17.9717 C   0  0  0  0  0  0  0  0  0  0  0  0
   26.0211  -29.8233  -17.1787 C   0  0  0  0  0  0  0  0  0  0  0  0
   24.9858  -30.3161  -17.8526 N   0  0  0  0  0  0  0  0  0  0  0  0
   25.3737  -30.8422  -19.0358 C   0  0  0  0  0  0  0  0  0  0  0  0
   24.6906  -31.4656  -20.0556 C   0  0  0  0  0  0  0  0  0  0  0  0
   25.3659  -31.9268  -21.1645 C   0  0  0  0  0  0  0  0  0  0  0  0
   26.7247  -31.7610  -21.2451 C   0  0  0  0  0  0  0  0  0  0  0  0
   27.4055  -31.1451  -20.2400 C   0  0  0  0  0  0  0  0  0  0  0  0
   26.7319  -30.6692  -19.1076 C   0  0  0  0  0  0  0  0  0  0  0  0
   28.3765  -31.6985  -16.2742 C   0  0  0  0  0  0  0  0  0  0  0  0
   28.4071  -32.9759  -16.8010 O   0  0  0  0  0  0  0  0  0  0  0  0
   27.5906  -31.4685  -15.3282 O   0  0  0  0  0  0  0  0  0  0  0  0
  2  3  1  0
  2  5  1  0
  2  1  1  6
  4  3  1  0
  5  6  2  0
  7  8  1  0
  7  5  1  0
  8 14  1  0
  8  9  1  1
 10  9  1  0
 11 12  1  0
 11 10  1  0
 13 12  1  0
 14 15  2  0
 14 16  1  0
 16 17  1  0
 17 28  1  0
 17 18  1  6
 19 18  1  0
 20 19  2  0
 21 20  1  0
 22 21  1  0
 22 27  2  0
 23 22  1  0
 24 23  2  0
 24 25  1  0
 25 26  2  0
 26 27  1  0
 27 19  1  0
 28 30  2  0
 28 29  1  0
M  END
$$$$
