CKW.pdb
     RDKit          3D

 30 31  0  0  1  0  0  0  0  0999 V2000
   27.2547  -20.4430  -10.4815 N   0  0  0  0  0  0  0  0  0  0  0  0
   25.8427  -20.6390  -10.5236 C   0  0  1  0  0  0  0  0  0  0  0  0
   25.1458  -19.6741   -9.5882 C   0  0  0  0  0  0  0  0  0  0  0  0
   25.2758  -20.2158   -7.8620 S   0  0  0  0  0  0  0  0  0  0  0  0
   25.2439  -20.5173  -11.8633 C   0  0  0  0  0  0  0  0  0  0  0  0
   25.4332  -19.4479  -12.4905 O   0  0  0  0  0  0  0  0  0  0  0  0
   24.4710  -21.5267  -12.4863 N   0  0  0  0  0  0  0  0  0  0  0  0
   23.8893  -21.2637  -13.7715 C   0  0  1  0  0  0  0  0  0  0  0  0
   24.0781  -22.4073  -14.7425 C   0  0  0  0  0  0  0  0  0  0  0  0
   25.3531  -22.3288  -15.5085 C   0  0  0  0  0  0  0  0  0  0  0  0
   25.5149  -23.5875  -16.3252 C   0  0  0  0  0  0  0  0  0  0  0  0
   25.9016  -24.7941  -15.5110 C   0  0  0  0  0  0  0  0  0  0  0  0
   26.1489  -25.9449  -16.3482 N   0  0  0  0  0  0  0  0  0  0  0  0
   22.4429  -20.9259  -13.5962 C   0  0  0  0  0  0  0  0  0  0  0  0
   21.6715  -21.6374  -12.9044 O   0  0  0  0  0  0  0  0  0  0  0  0
   21.8999  -19.7769  -14.2163 N   0  0  0  0  0  0  0  0  0  0  0  0
   20.4669  -19.4405  -14.0804 C   0  0  1  0  0  0  0  0  0  0  0  0
   20.3259  -17.9918  -14.4639 C   0  0  0  0  0  0  0  0  0  0  0  0
   20.4285  -17.8340  -15.9364 C   0  0  0  0  0  0  0  0  0  0  0  0
   19.3313  -17.8973  -16.8109 C   0  0  0  0  0  0  0  0  0  0  0  0
   19.7998  -17.6543  -18.0317 N   0  0  0  0  0  0  0  0  0  0  0  0
   21.1338  -17.4371  -18.0130 C   0  0  0  0  0  0  0  0  0  0  0  0
   22.0548  -17.1637  -18.9992 C   0  0  0  0  0  0  0  0  0  0  0  0
   23.3858  -17.0021  -18.6819 C   0  0  0  0  0  0  0  0  0  0  0  0
   23.7873  -17.1163  -17.3757 C   0  0  0  0  0  0  0  0  0  0  0  0
   22.8812  -17.3861  -16.3963 C   0  0  0  0  0  0  0  0  0  0  0  0
   21.5245  -17.5508  -16.7037 C   0  0  0  0  0  0  0  0  0  0  0  0
   19.7141  -20.3794  -14.9038 C   0  0  0  0  0  0  0  0  0  0  0  0
   20.3168  -21.0917  -15.9234 O   0  0  0  0  0  0  0  0  0  0  0  0
   18.4928  -20.5593  -14.6995 O   0  0  0  0  0  0  0  0  0  0  0  0
  2  3  1  0
  2  5  1  0
  2  1  1  6
  4  3  1  0
  5  6  2  0
  7  8  1  0
  7  5  1  0
  8 14  1  0
  8  9  1  6
 10  9  1  0
 11 12  1  0
 11 10  1  0
 13 12  1  0
 14 15  2  0
 14 16  1  0
 16 17  1  0
 17 28  1  0
 17 18  1  6
 19 18  1  0
 20 19  2  0
 21 20  1  0
 22 21  1  0
 22 27  2  0
 23 22  1  0
 24 23  2  0
 24 25  1  0
 25 26  2  0
 26 27  1  0
 27 19  1  0
 28 30  2  0
 28 29  1  0
M  END
$$$$
