CKW.pdb
     RDKit          3D

 30 31  0  0  1  0  0  0  0  0999 V2000
   26.4012  -20.2374   -9.3792 N   0  0  0  0  0  0  0  0  0  0  0  0
   25.2541  -20.7770  -10.0326 C   0  0  1  0  0  0  0  0  0  0  0  0
   24.0043  -20.0369   -9.6060 C   0  0  0  0  0  0  0  0  0  0  0  0
   22.5085  -20.8471  -10.2356 S   0  0  0  0  0  0  0  0  0  0  0  0
   25.3267  -20.7774  -11.5033 C   0  0  0  0  0  0  0  0  0  0  0  0
   25.6810  -19.7156  -12.0690 O   0  0  0  0  0  0  0  0  0  0  0  0
   25.0232  -21.8958  -12.3167 N   0  0  0  0  0  0  0  0  0  0  0  0
   25.0719  -21.7518  -13.7436 C   0  0  1  0  0  0  0  0  0  0  0  0
   25.5959  -22.9890  -14.4372 C   0  0  0  0  0  0  0  0  0  0  0  0
   25.7495  -22.8219  -15.9093 C   0  0  0  0  0  0  0  0  0  0  0  0
   26.2695  -24.1098  -16.4993 C   0  0  0  0  0  0  0  0  0  0  0  0
   26.5244  -24.0393  -17.9820 C   0  0  0  0  0  0  0  0  0  0  0  0
   27.0723  -25.2763  -18.4880 N   0  0  0  0  0  0  0  0  0  0  0  0
   23.7147  -21.3744  -14.2460 C   0  0  0  0  0  0  0  0  0  0  0  0
   22.7497  -21.1673  -13.4676 O   0  0  0  0  0  0  0  0  0  0  0  0
   23.4815  -21.2393  -15.6341 N   0  0  0  0  0  0  0  0  0  0  0  0
   22.5753  -20.1958  -16.1586 C   0  0  1  0  0  0  0  0  0  0  0  0
   23.1450  -18.8720  -15.7241 C   0  0  0  0  0  0  0  0  0  0  0  0
   22.3340  -17.7553  -16.2709 C   0  0  0  0  0  0  0  0  0  0  0  0
   21.0475  -17.4234  -15.8156 C   0  0  0  0  0  0  0  0  0  0  0  0
   20.6674  -16.3446  -16.4943 N   0  0  0  0  0  0  0  0  0  0  0  0
   21.6221  -15.9492  -17.3657 C   0  0  0  0  0  0  0  0  0  0  0  0
   21.6937  -14.9200  -18.2773 C   0  0  0  0  0  0  0  0  0  0  0  0
   22.8141  -14.7649  -19.0641 C   0  0  0  0  0  0  0  0  0  0  0  0
   23.8582  -15.6440  -18.9331 C   0  0  0  0  0  0  0  0  0  0  0  0
   23.7933  -16.6634  -18.0333 C   0  0  0  0  0  0  0  0  0  0  0  0
   22.6616  -16.8322  -17.2252 C   0  0  0  0  0  0  0  0  0  0  0  0
   22.4717  -20.3867  -17.6005 C   0  0  0  0  0  0  0  0  0  0  0  0
   21.2889  -20.1563  -18.2773 O   0  0  0  0  0  0  0  0  0  0  0  0
   23.4648  -20.7675  -18.2596 O   0  0  0  0  0  0  0  0  0  0  0  0
  2  3  1  0
  2  5  1  0
  2  1  1  1
  4  3  1  0
  5  6  2  0
  7  8  1  0
  7  5  1  0
  8 14  1  0
  8  9  1  6
 10  9  1  0
 11 12  1  0
 11 10  1  0
 13 12  1  0
 14 15  2  0
 14 16  1  0
 16 17  1  0
 17 28  1  0
 17 18  1  6
 19 18  1  0
 20 19  2  0
 21 20  1  0
 22 21  1  0
 22 27  2  0
 23 22  1  0
 24 23  2  0
 24 25  1  0
 25 26  2  0
 26 27  1  0
 27 19  1  0
 28 30  2  0
 28 29  1  0
M  END
$$$$
