VVT.pdb
     RDKit          3D

 22 21  0  0  1  0  0  0  0  0999 V2000
    8.2301  -20.7491   20.6854 C   0  0  0  0  0  0  0  0  0  0  0  0
    8.6140  -19.3569   21.0547 C   0  0  2  0  0  0  0  0  0  0  0  0
    7.8545  -18.9086   22.3087 C   0  0  0  0  0  0  0  0  0  0  0  0
    8.3372  -18.3427   19.9714 C   0  0  2  0  0  0  0  0  0  0  0  0
    8.8206  -18.8513   18.7348 N   0  0  0  0  0  0  0  0  0  0  0  0
    8.8016  -16.9962   20.3094 C   0  0  0  0  0  0  0  0  0  0  0  0
   10.0422  -16.8007   20.3920 O   0  0  0  0  0  0  0  0  0  0  0  0
    7.0207  -13.5476   18.9704 C   0  0  0  0  0  0  0  0  0  0  0  0
    7.4047  -13.4991   20.4156 C   0  0  2  0  0  0  0  0  0  0  0  0
    7.8837  -12.1543   20.8734 C   0  0  0  0  0  0  0  0  0  0  0  0
    8.4339  -14.5418   20.7859 C   0  0  2  0  0  0  0  0  0  0  0  0
    7.9584  -15.8845   20.5533 N   0  0  0  0  0  0  0  0  0  0  0  0
    8.7142  -14.4047   22.2402 C   0  0  0  0  0  0  0  0  0  0  0  0
    9.2494  -13.3599   22.7275 O   0  0  0  0  0  0  0  0  0  0  0  0
    6.6981  -13.9418   25.1433 C   0  0  0  0  0  0  0  0  0  0  0  0
    7.3410  -15.2930   25.3437 C   0  0  1  0  0  0  0  0  0  0  0  0
    6.4965  -16.2912   24.9272 O   0  0  0  0  0  0  0  0  0  0  0  0
    8.6687  -15.3139   24.5933 C   0  0  2  0  0  0  0  0  0  0  0  0
    8.3974  -15.4415   23.1753 N   0  0  0  0  0  0  0  0  0  0  0  0
    9.5106  -16.4103   25.1012 C   0  0  0  0  0  0  0  0  0  0  0  0
    9.9415  -16.4232   26.4177 O   0  0  0  0  0  0  0  0  0  0  0  0
    9.8545  -17.3531   24.3553 O   0  0  0  0  0  0  0  0  0  0  0  0
  2  1  1  6
  2  3  1  0
  4  2  1  0
  4  6  1  0
  4  5  1  6
  6  7  2  0
  6 12  1  0
  9 11  1  0
  9  8  1  6
 10  9  1  0
 11 13  1  0
 11 12  1  1
 13 19  1  0
 13 14  2  0
 16 15  1  6
 16 18  1  0
 17 16  1  0
 18 20  1  0
 18 19  1  6
 20 21  1  0
 22 20  2  0
M  END
$$$$
