VVT.pdb
     RDKit          3D

 22 21  0  0  1  0  0  0  0  0999 V2000
    7.4525  -19.0243   24.1943 C   0  0  0  0  0  0  0  0  0  0  0  0
    6.2583  -18.2568   23.7398 C   0  0  2  0  0  0  0  0  0  0  0  0
    5.4016  -19.1107   22.7979 C   0  0  0  0  0  0  0  0  0  0  0  0
    6.5984  -16.9801   23.0094 C   0  0  2  0  0  0  0  0  0  0  0  0
    7.0451  -17.3078   21.7000 N   0  0  0  0  0  0  0  0  0  0  0  0
    7.4938  -16.1036   23.7662 C   0  0  0  0  0  0  0  0  0  0  0  0
    8.7270  -16.1628   23.5218 O   0  0  0  0  0  0  0  0  0  0  0  0
    6.1419  -13.3601   26.9051 C   0  0  0  0  0  0  0  0  0  0  0  0
    7.3028  -13.0814   26.0033 C   0  0  2  0  0  0  0  0  0  0  0  0
    6.9664  -12.2130   24.8285 C   0  0  0  0  0  0  0  0  0  0  0  0
    7.9789  -14.3394   25.5094 C   0  0  2  0  0  0  0  0  0  0  0  0
    7.0795  -15.1848   24.7615 N   0  0  0  0  0  0  0  0  0  0  0  0
    8.4369  -15.1044   26.7001 C   0  0  0  0  0  0  0  0  0  0  0  0
    7.6305  -15.7648   27.4275 O   0  0  0  0  0  0  0  0  0  0  0  0
   11.0424  -17.7239   26.7285 C   0  0  0  0  0  0  0  0  0  0  0  0
   11.4827  -16.7439   27.7891 C   0  0  1  0  0  0  0  0  0  0  0  0
   12.4991  -15.9521   27.3167 O   0  0  0  0  0  0  0  0  0  0  0  0
   10.2720  -15.9249   28.2247 C   0  0  2  0  0  0  0  0  0  0  0  0
    9.8123  -15.1412   27.0955 N   0  0  0  0  0  0  0  0  0  0  0  0
   10.6292  -15.0835   29.3794 C   0  0  0  0  0  0  0  0  0  0  0  0
   10.6333  -13.7020   29.2770 O   0  0  0  0  0  0  0  0  0  0  0  0
   10.9365  -15.5978   30.4770 O   0  0  0  0  0  0  0  0  0  0  0  0
  2  1  1  6
  2  3  1  0
  4  2  1  0
  4  6  1  0
  4  5  1  6
  6  7  2  0
  6 12  1  0
  9 11  1  0
  9  8  1  6
 10  9  1  0
 11 13  1  0
 11 12  1  1
 13 19  1  0
 13 14  2  0
 16 15  1  6
 16 18  1  0
 17 16  1  0
 18 20  1  0
 18 19  1  6
 20 21  1  0
 22 20  2  0
M  END
$$$$
