VVT.pdb
     RDKit          3D

 22 21  0  0  1  0  0  0  0  0999 V2000
    6.6369  -16.4653   20.0120 C   0  0  0  0  0  0  0  0  0  0  0  0
    7.4313  -16.1759   21.2397 C   0  0  2  0  0  0  0  0  0  0  0  0
    6.8717  -16.9572   22.4341 C   0  0  0  0  0  0  0  0  0  0  0  0
    7.4482  -14.7156   21.6221 C   0  0  2  0  0  0  0  0  0  0  0  0
    7.8918  -13.9558   20.5053 N   0  0  0  0  0  0  0  0  0  0  0  0
    8.1658  -14.4547   22.8711 C   0  0  0  0  0  0  0  0  0  0  0  0
    9.4185  -14.5756   22.8710 O   0  0  0  0  0  0  0  0  0  0  0  0
    6.1221  -13.5063   26.5783 C   0  0  0  0  0  0  0  0  0  0  0  0
    7.5374  -13.0850   26.3367 C   0  0  2  0  0  0  0  0  0  0  0  0
    7.6819  -11.6577   25.9015 C   0  0  0  0  0  0  0  0  0  0  0  0
    8.2562  -13.9767   25.3509 C   0  0  2  0  0  0  0  0  0  0  0  0
    7.5572  -14.0731   24.0919 N   0  0  0  0  0  0  0  0  0  0  0  0
    8.3224  -15.3411   25.9396 C   0  0  0  0  0  0  0  0  0  0  0  0
    7.2759  -16.0128   26.2027 O   0  0  0  0  0  0  0  0  0  0  0  0
    9.8066  -18.2495   24.5025 C   0  0  0  0  0  0  0  0  0  0  0  0
   10.4945  -18.1730   25.8443 C   0  0  1  0  0  0  0  0  0  0  0  0
   11.7637  -17.6706   25.7032 O   0  0  0  0  0  0  0  0  0  0  0  0
    9.6407  -17.3219   26.7786 C   0  0  2  0  0  0  0  0  0  0  0  0
    9.5686  -15.9768   26.2437 N   0  0  0  0  0  0  0  0  0  0  0  0
   10.2078  -17.3523   28.1374 C   0  0  0  0  0  0  0  0  0  0  0  0
   10.2510  -18.5320   28.8625 O   0  0  0  0  0  0  0  0  0  0  0  0
   10.6625  -16.3143   28.6659 O   0  0  0  0  0  0  0  0  0  0  0  0
  2  1  1  6
  2  3  1  0
  4  2  1  0
  4  6  1  0
  4  5  1  6
  6  7  2  0
  6 12  1  0
  9 11  1  0
  9  8  1  6
 10  9  1  0
 11 13  1  0
 11 12  1  6
 13 19  1  0
 13 14  2  0
 16 15  1  6
 16 18  1  0
 17 16  1  0
 18 20  1  0
 18 19  1  6
 20 21  1  0
 22 20  2  0
M  END
$$$$
