VVT.pdb
     RDKit          3D

 22 21  0  0  1  0  0  0  0  0999 V2000
    5.2375  -20.0590   22.4719 C   0  0  0  0  0  0  0  0  0  0  0  0
    4.3675  -18.9096   22.0925 C   0  0  2  0  0  0  0  0  0  0  0  0
    2.9531  -19.3979   21.7592 C   0  0  0  0  0  0  0  0  0  0  0  0
    4.8714  -18.1342   20.8993 C   0  0  2  0  0  0  0  0  0  0  0  0
    4.7793  -18.9599   19.7455 N   0  0  0  0  0  0  0  0  0  0  0  0
    6.1841  -17.5249   21.1196 C   0  0  0  0  0  0  0  0  0  0  0  0
    7.1945  -18.1074   20.6466 O   0  0  0  0  0  0  0  0  0  0  0  0
    8.9682  -13.6667   22.6952 C   0  0  0  0  0  0  0  0  0  0  0  0
    7.6258  -14.2927   22.4838 C   0  0  2  0  0  0  0  0  0  0  0  0
    6.7185  -14.2042   23.6739 C   0  0  0  0  0  0  0  0  0  0  0  0
    7.7129  -15.7333   22.0358 C   0  0  2  0  0  0  0  0  0  0  0  0
    6.4106  -16.3204   21.8296 N   0  0  0  0  0  0  0  0  0  0  0  0
    8.3924  -16.5020   23.1128 C   0  0  0  0  0  0  0  0  0  0  0  0
    7.8173  -16.7714   24.2137 O   0  0  0  0  0  0  0  0  0  0  0  0
    9.6828  -19.9011   23.2236 C   0  0  0  0  0  0  0  0  0  0  0  0
   10.8918  -19.0384   23.4940 C   0  0  1  0  0  0  0  0  0  0  0  0
   11.6456  -18.9006   22.3556 O   0  0  0  0  0  0  0  0  0  0  0  0
   10.4165  -17.6936   24.0341 C   0  0  2  0  0  0  0  0  0  0  0  0
    9.7335  -16.9829   22.9715 N   0  0  0  0  0  0  0  0  0  0  0  0
   11.5629  -16.9365   24.5645 C   0  0  0  0  0  0  0  0  0  0  0  0
   12.2715  -17.3974   25.6621 O   0  0  0  0  0  0  0  0  0  0  0  0
   11.9216  -15.8616   24.0357 O   0  0  0  0  0  0  0  0  0  0  0  0
  2  1  1  6
  2  3  1  0
  4  2  1  0
  4  6  1  0
  4  5  1  6
  6  7  2  0
  6 12  1  0
  9 11  1  0
  9  8  1  1
 10  9  1  0
 11 13  1  0
 11 12  1  1
 13 19  1  0
 13 14  2  0
 16 15  1  6
 16 18  1  0
 17 16  1  0
 18 20  1  0
 18 19  1  6
 20 21  1  0
 22 20  2  0
M  END
$$$$
