VVT.pdb
     RDKit          3D

 22 21  0  0  1  0  0  0  0  0999 V2000
    8.4851  -20.6767   26.8448 C   0  0  0  0  0  0  0  0  0  0  0  0
    7.3546  -19.8132   27.2903 C   0  0  2  0  0  0  0  0  0  0  0  0
    6.5334  -20.5249   28.3717 C   0  0  0  0  0  0  0  0  0  0  0  0
    6.4062  -19.4327   26.1792 C   0  0  2  0  0  0  0  0  0  0  0  0
    5.8903  -20.6202   25.5918 N   0  0  0  0  0  0  0  0  0  0  0  0
    6.9809  -18.4748   25.2331 C   0  0  0  0  0  0  0  0  0  0  0  0
    7.3731  -18.9063   24.1177 O   0  0  0  0  0  0  0  0  0  0  0  0
    8.7686  -14.0134   25.4328 C   0  0  0  0  0  0  0  0  0  0  0  0
    7.5593  -14.7349   24.9269 C   0  0  2  0  0  0  0  0  0  0  0  0
    6.3767  -14.6591   25.8451 C   0  0  0  0  0  0  0  0  0  0  0  0
    7.8347  -16.1833   24.5955 C   0  0  2  0  0  0  0  0  0  0  0  0
    7.1325  -17.0873   25.4745 N   0  0  0  0  0  0  0  0  0  0  0  0
    9.2927  -16.4188   24.7720 C   0  0  0  0  0  0  0  0  0  0  0  0
    9.8449  -16.3970   25.9167 O   0  0  0  0  0  0  0  0  0  0  0  0
   11.2922  -19.4626   23.7681 C   0  0  0  0  0  0  0  0  0  0  0  0
   11.8651  -18.2746   23.0335 C   0  0  1  0  0  0  0  0  0  0  0  0
   11.3595  -18.2107   21.7593 O   0  0  0  0  0  0  0  0  0  0  0  0
   11.5589  -17.0146   23.8365 C   0  0  2  0  0  0  0  0  0  0  0  0
   10.1585  -16.6836   23.6630 N   0  0  0  0  0  0  0  0  0  0  0  0
   12.4478  -15.9218   23.4068 C   0  0  0  0  0  0  0  0  0  0  0  0
   13.8071  -15.9671   23.6703 O   0  0  0  0  0  0  0  0  0  0  0  0
   11.9950  -14.9298   22.7950 O   0  0  0  0  0  0  0  0  0  0  0  0
  2  1  1  6
  2  3  1  0
  4  2  1  0
  4  6  1  0
  4  5  1  6
  6  7  2  0
  6 12  1  0
  9 11  1  0
  9  8  1  1
 10  9  1  0
 11 13  1  0
 11 12  1  1
 13 19  1  0
 13 14  2  0
 16 15  1  1
 16 18  1  0
 17 16  1  0
 18 20  1  0
 18 19  1  6
 20 21  1  0
 22 20  2  0
M  END
$$$$
