VVT.pdb
     RDKit          3D

 22 21  0  0  1  0  0  0  0  0999 V2000
    7.5591  -17.2853   21.6812 C   0  0  0  0  0  0  0  0  0  0  0  0
    6.5481  -16.1901   21.6582 C   0  0  2  0  0  0  0  0  0  0  0  0
    5.7284  -16.2473   20.3641 C   0  0  0  0  0  0  0  0  0  0  0  0
    7.1476  -14.8079   21.7533 C   0  0  2  0  0  0  0  0  0  0  0  0
    7.8779  -14.5435   20.5625 N   0  0  0  0  0  0  0  0  0  0  0  0
    7.8895  -14.5850   22.9953 C   0  0  0  0  0  0  0  0  0  0  0  0
    9.1256  -14.8220   22.9977 O   0  0  0  0  0  0  0  0  0  0  0  0
    5.9900  -13.4340   26.7475 C   0  0  0  0  0  0  0  0  0  0  0  0
    7.3721  -12.9909   26.3840 C   0  0  2  0  0  0  0  0  0  0  0  0
    7.4385  -11.6021   25.8236 C   0  0  0  0  0  0  0  0  0  0  0  0
    8.0628  -13.9404   25.4327 C   0  0  2  0  0  0  0  0  0  0  0  0
    7.3223  -14.1195   24.2069 N   0  0  0  0  0  0  0  0  0  0  0  0
    8.1574  -15.2645   26.1039 C   0  0  0  0  0  0  0  0  0  0  0  0
    7.1253  -15.9435   26.4027 O   0  0  0  0  0  0  0  0  0  0  0  0
    9.6830  -18.2741   24.8997 C   0  0  0  0  0  0  0  0  0  0  0  0
   10.3874  -18.0508   26.2162 C   0  0  1  0  0  0  0  0  0  0  0  0
   11.6342  -17.5171   26.0073 O   0  0  0  0  0  0  0  0  0  0  0  0
    9.5157  -17.1504   27.0856 C   0  0  2  0  0  0  0  0  0  0  0  0
    9.4162  -15.8505   26.4523 N   0  0  0  0  0  0  0  0  0  0  0  0
   10.0824  -17.0681   28.4423 C   0  0  0  0  0  0  0  0  0  0  0  0
   10.1592  -18.1917   29.2491 O   0  0  0  0  0  0  0  0  0  0  0  0
   10.5065  -15.9826   28.8954 O   0  0  0  0  0  0  0  0  0  0  0  0
  2  1  1  6
  2  3  1  0
  4  2  1  0
  4  6  1  0
  4  5  1  6
  6  7  2  0
  6 12  1  0
  9 11  1  0
  9  8  1  6
 10  9  1  0
 11 13  1  0
 11 12  1  6
 13 19  1  0
 13 14  2  0
 16 15  1  6
 16 18  1  0
 17 16  1  0
 18 20  1  0
 18 19  1  6
 20 21  1  0
 22 20  2  0
M  END
$$$$
