VVT.pdb
     RDKit          3D

 22 21  0  0  1  0  0  0  0  0999 V2000
    7.6863  -12.1834   20.7231 C   0  0  0  0  0  0  0  0  0  0  0  0
    8.2095  -13.4831   20.2141 C   0  0  2  0  0  0  0  0  0  0  0  0
    7.5999  -13.8044   18.8447 C   0  0  0  0  0  0  0  0  0  0  0  0
    7.9203  -14.6526   21.1238 C   0  0  2  0  0  0  0  0  0  0  0  0
    6.5606  -15.0340   20.9597 N   0  0  0  0  0  0  0  0  0  0  0  0
    8.3344  -14.4223   22.5088 C   0  0  0  0  0  0  0  0  0  0  0  0
    9.5644  -14.3025   22.7473 O   0  0  0  0  0  0  0  0  0  0  0  0
    6.3409  -12.1292   25.1275 C   0  0  0  0  0  0  0  0  0  0  0  0
    6.8352  -13.3763   25.7901 C   0  0  2  0  0  0  0  0  0  0  0  0
    7.3602  -13.1613   27.1778 C   0  0  0  0  0  0  0  0  0  0  0  0
    7.8802  -14.1012   24.9740 C   0  0  2  0  0  0  0  0  0  0  0  0
    7.4531  -14.3225   23.6132 N   0  0  0  0  0  0  0  0  0  0  0  0
    8.1030  -15.4310   25.6022 C   0  0  0  0  0  0  0  0  0  0  0  0
    7.1494  -16.2444   25.8136 O   0  0  0  0  0  0  0  0  0  0  0  0
    9.7710  -18.3018   24.4928 C   0  0  0  0  0  0  0  0  0  0  0  0
   10.5121  -18.0070   25.7746 C   0  0  1  0  0  0  0  0  0  0  0  0
   11.7131  -17.4004   25.5043 O   0  0  0  0  0  0  0  0  0  0  0  0
    9.6206  -17.1450   26.6626 C   0  0  2  0  0  0  0  0  0  0  0  0
    9.4042  -15.8717   26.0049 N   0  0  0  0  0  0  0  0  0  0  0  0
   10.2405  -16.9894   27.9894 C   0  0  0  0  0  0  0  0  0  0  0  0
   10.4070  -18.0798   28.8275 O   0  0  0  0  0  0  0  0  0  0  0  0
   10.6299  -15.8700   28.3880 O   0  0  0  0  0  0  0  0  0  0  0  0
  2  1  1  1
  2  3  1  0
  4  2  1  0
  4  6  1  0
  4  5  1  1
  6  7  2  0
  6 12  1  0
  9 11  1  0
  9  8  1  6
 10  9  1  0
 11 13  1  0
 11 12  1  6
 13 19  1  0
 13 14  2  0
 16 15  1  6
 16 18  1  0
 17 16  1  0
 18 20  1  0
 18 19  1  6
 20 21  1  0
 22 20  2  0
M  END
$$$$
