VVT.pdb
     RDKit          3D

 22 21  0  0  1  0  0  0  0  0999 V2000
    7.8201  -12.3002   20.8348 C   0  0  0  0  0  0  0  0  0  0  0  0
    8.3022  -13.6247   20.3496 C   0  0  2  0  0  0  0  0  0  0  0  0
    7.6517  -13.9697   19.0050 C   0  0  0  0  0  0  0  0  0  0  0  0
    8.0108  -14.7622   21.2983 C   0  0  2  0  0  0  0  0  0  0  0  0
    6.6175  -15.0429   21.2610 N   0  0  0  0  0  0  0  0  0  0  0  0
    8.5630  -14.5522   22.6376 C   0  0  0  0  0  0  0  0  0  0  0  0
    9.8139  -14.4838   22.7588 O   0  0  0  0  0  0  0  0  0  0  0  0
    8.0623  -12.8437   27.2520 C   0  0  0  0  0  0  0  0  0  0  0  0
    7.4687  -13.2057   25.9271 C   0  0  2  0  0  0  0  0  0  0  0  0
    6.0939  -13.7965   26.0169 C   0  0  0  0  0  0  0  0  0  0  0  0
    8.3512  -14.1297   25.1202 C   0  0  2  0  0  0  0  0  0  0  0  0
    7.7948  -14.4184   23.8202 N   0  0  0  0  0  0  0  0  0  0  0  0
    8.4608  -15.4138   25.8628 C   0  0  0  0  0  0  0  0  0  0  0  0
    7.4412  -16.1192   26.1429 O   0  0  0  0  0  0  0  0  0  0  0  0
   10.2444  -18.3397   24.8223 C   0  0  0  0  0  0  0  0  0  0  0  0
   10.8220  -18.0778   26.1923 C   0  0  1  0  0  0  0  0  0  0  0  0
   12.0588  -17.4927   26.0863 O   0  0  0  0  0  0  0  0  0  0  0  0
    9.8412  -17.2098   26.9739 C   0  0  2  0  0  0  0  0  0  0  0  0
    9.7209  -15.9296   26.3051 N   0  0  0  0  0  0  0  0  0  0  0  0
   10.2995  -17.0708   28.3665 C   0  0  0  0  0  0  0  0  0  0  0  0
   10.3547  -18.1694   29.2088 O   0  0  0  0  0  0  0  0  0  0  0  0
   10.6487  -15.9586   28.8188 O   0  0  0  0  0  0  0  0  0  0  0  0
  2  1  1  1
  2  3  1  0
  4  2  1  0
  4  6  1  0
  4  5  1  1
  6  7  2  0
  6 12  1  0
  9 11  1  0
  9  8  1  1
 10  9  1  0
 11 13  1  0
 11 12  1  6
 13 19  1  0
 13 14  2  0
 16 15  1  6
 16 18  1  0
 17 16  1  0
 18 20  1  0
 18 19  1  6
 20 21  1  0
 22 20  2  0
M  END
$$$$
