VVT.pdb
     RDKit          3D

 22 21  0  0  1  0  0  0  0  0999 V2000
    6.0663  -18.8393   19.8231 C   0  0  0  0  0  0  0  0  0  0  0  0
    6.7124  -18.8840   18.4805 C   0  0  2  0  0  0  0  0  0  0  0  0
    8.0244  -19.6743   18.5454 C   0  0  0  0  0  0  0  0  0  0  0  0
    7.0325  -17.5215   17.9147 C   0  0  2  0  0  0  0  0  0  0  0  0
    7.4371  -17.6726   16.5601 N   0  0  0  0  0  0  0  0  0  0  0  0
    7.9531  -16.7508   18.7521 C   0  0  0  0  0  0  0  0  0  0  0  0
    9.1574  -17.1137   18.7978 O   0  0  0  0  0  0  0  0  0  0  0  0
    6.6950  -13.5891   21.4885 C   0  0  0  0  0  0  0  0  0  0  0  0
    7.9705  -13.5055   20.7108 C   0  0  2  0  0  0  0  0  0  0  0  0
    7.8784  -12.6544   19.4801 C   0  0  0  0  0  0  0  0  0  0  0  0
    8.5187  -14.8620   20.3329 C   0  0  2  0  0  0  0  0  0  0  0  0
    7.5939  -15.6180   19.5228 N   0  0  0  0  0  0  0  0  0  0  0  0
    8.7491  -15.6233   21.5898 C   0  0  0  0  0  0  0  0  0  0  0  0
    7.8062  -15.8863   22.4006 O   0  0  0  0  0  0  0  0  0  0  0  0
    9.6740  -18.9792   22.2045 C   0  0  0  0  0  0  0  0  0  0  0  0
   10.7882  -18.2131   22.8759 C   0  0  1  0  0  0  0  0  0  0  0  0
   11.9023  -18.1885   22.0750 O   0  0  0  0  0  0  0  0  0  0  0  0
   10.2843  -16.8109   23.2017 C   0  0  2  0  0  0  0  0  0  0  0  0
   10.0461  -16.1039   21.9591 N   0  0  0  0  0  0  0  0  0  0  0  0
   11.2602  -16.1178   24.0596 C   0  0  0  0  0  0  0  0  0  0  0  0
   11.4884  -16.5393   25.3594 O   0  0  0  0  0  0  0  0  0  0  0  0
   11.9039  -15.1341   23.6336 O   0  0  0  0  0  0  0  0  0  0  0  0
  2  1  1  1
  2  3  1  0
  4  2  1  0
  4  6  1  0
  4  5  1  6
  6  7  2  0
  6 12  1  0
  9 11  1  0
  9  8  1  6
 10  9  1  0
 11 13  1  0
 11 12  1  6
 13 19  1  0
 13 14  2  0
 16 15  1  6
 16 18  1  0
 17 16  1  0
 18 20  1  0
 18 19  1  6
 20 21  1  0
 22 20  2  0
M  END
$$$$
