EHQ.pdb
     RDKit          3D

 29 29  0  0  1  0  0  0  0  0999 V2000
   10.6421  -18.9074   19.3626 N   0  0  0  0  0  0  0  0  0  0  0  0
   11.5827  -17.8289   19.4767 C   0  0  1  0  0  0  0  0  0  0  0  0
   11.8787  -17.2588   18.1183 C   0  0  0  0  0  0  0  0  0  0  0  0
   11.9341  -18.3353   17.0855 C   0  0  0  0  0  0  0  0  0  0  0  0
   12.2555  -17.8054   15.7382 C   0  0  0  0  0  0  0  0  0  0  0  0
   11.3675  -17.6025   14.8713 O   0  0  0  0  0  0  0  0  0  0  0  0
   11.1024  -16.7633   20.4031 C   0  0  0  0  0  0  0  0  0  0  0  0
   11.7604  -15.7188   20.5597 O   0  0  0  0  0  0  0  0  0  0  0  0
   13.5578  -17.5075   15.3699 O   0  0  0  0  0  0  0  0  0  0  0  0
    9.8755  -16.9272   21.1270 N   0  0  0  0  0  0  0  0  0  0  0  0
    9.3987  -15.9328   22.0583 C   0  0  1  0  0  0  0  0  0  0  0  0
    7.9526  -15.5962   21.8219 C   0  0  0  0  0  0  0  0  0  0  0  0
    7.7291  -14.7978   20.6134 C   0  0  0  0  0  0  0  0  0  0  0  0
    7.1785  -15.2470   19.4420 C   0  0  0  0  0  0  0  0  0  0  0  0
    7.1464  -14.2163   18.5843 N   0  0  0  0  0  0  0  0  0  0  0  0
    7.6635  -13.1119   19.1743 C   0  0  0  0  0  0  0  0  0  0  0  0
    8.0146  -13.5017   20.4261 N   0  0  0  0  0  0  0  0  0  0  0  0
    9.5021  -16.5146   23.4404 C   0  0  0  0  0  0  0  0  0  0  0  0
    9.4370  -17.7609   23.5726 O   0  0  0  0  0  0  0  0  0  0  0  0
   10.1021  -13.1418   28.7982 N   0  0  0  0  0  0  0  0  0  0  0  0
   10.6743  -14.4169   29.1686 C   0  0  0  0  0  0  0  0  0  0  0  0
   11.4494  -14.5045   30.1469 O   0  0  0  0  0  0  0  0  0  0  0  0
   10.2874  -15.5676   28.3291 C   0  0  0  0  0  0  0  0  0  0  0  0
   10.1002  -15.1255   26.9113 C   0  0  0  0  0  0  0  0  0  0  0  0
    9.7484  -16.1779   25.9278 C   0  0  2  0  0  0  0  0  0  0  0  0
    9.6710  -15.6670   24.5735 N   0  0  0  0  0  0  0  0  0  0  0  0
    8.5014  -16.9433   26.2849 C   0  0  0  0  0  0  0  0  0  0  0  0
    7.3841  -16.5797   25.8405 O   0  0  0  0  0  0  0  0  0  0  0  0
    8.5159  -18.0589   27.1020 O   0  0  0  0  0  0  0  0  0  0  0  0
  2  1  1  6
  2  3  1  0
  2  7  1  0
  3  4  1  0
  4  5  1  0
  5  6  2  0
  7  8  2  0
  9  5  1  0
 10  7  1  0
 10 11  1  0
 11 12  1  6
 13 12  1  0
 14 13  2  0
 15 14  1  0
 16 15  1  0
 16 17  2  0
 17 13  1  0
 18 26  1  0
 18 11  1  0
 19 18  2  0
 20 21  1  0
 21 22  2  0
 23 24  1  0
 23 21  1  0
 25 24  1  1
 25 27  1  0
 25 26  1  0
 27 29  1  0
 28 27  2  0
M  END
$$$$
