EHQ.pdb
     RDKit          3D

 29 29  0  0  1  0  0  0  0  0999 V2000
   10.5913  -19.0400   16.9002 N   0  0  0  0  0  0  0  0  0  0  0  0
    9.8150  -19.1811   18.0995 C   0  0  1  0  0  0  0  0  0  0  0  0
    9.9514  -20.5769   18.6392 C   0  0  0  0  0  0  0  0  0  0  0  0
   11.3062  -20.7942   19.2274 C   0  0  0  0  0  0  0  0  0  0  0  0
   11.4928  -22.1840   19.7103 C   0  0  0  0  0  0  0  0  0  0  0  0
   12.1328  -23.0405   19.0484 O   0  0  0  0  0  0  0  0  0  0  0  0
   10.1950  -18.1760   19.1337 C   0  0  0  0  0  0  0  0  0  0  0  0
   11.3891  -17.8758   19.3140 O   0  0  0  0  0  0  0  0  0  0  0  0
   10.9670  -22.6056   20.9211 O   0  0  0  0  0  0  0  0  0  0  0  0
    9.1899  -17.5412   19.9354 N   0  0  0  0  0  0  0  0  0  0  0  0
    9.5077  -16.4803   20.8613 C   0  0  1  0  0  0  0  0  0  0  0  0
    8.2790  -15.7258   21.2870 C   0  0  0  0  0  0  0  0  0  0  0  0
    7.9577  -14.5934   20.4139 C   0  0  0  0  0  0  0  0  0  0  0  0
    8.7249  -14.1338   19.3760 C   0  0  0  0  0  0  0  0  0  0  0  0
    8.0876  -13.0882   18.8288 N   0  0  0  0  0  0  0  0  0  0  0  0
    6.9266  -12.8615   19.4892 C   0  0  0  0  0  0  0  0  0  0  0  0
    6.8739  -13.8063   20.4622 N   0  0  0  0  0  0  0  0  0  0  0  0
   10.0948  -17.1101   22.0934 C   0  0  0  0  0  0  0  0  0  0  0  0
    9.6633  -18.2310   22.4575 O   0  0  0  0  0  0  0  0  0  0  0  0
   15.8439  -16.0692   23.5467 N   0  0  0  0  0  0  0  0  0  0  0  0
   15.5859  -16.8836   24.7132 C   0  0  0  0  0  0  0  0  0  0  0  0
   16.5073  -17.1525   25.5158 O   0  0  0  0  0  0  0  0  0  0  0  0
   14.1980  -17.3587   24.8761 C   0  0  0  0  0  0  0  0  0  0  0  0
   13.3262  -16.7621   23.8155 C   0  0  0  0  0  0  0  0  0  0  0  0
   11.8842  -17.1035   23.8707 C   0  0  2  0  0  0  0  0  0  0  0  0
   11.1193  -16.4469   22.8292 N   0  0  0  0  0  0  0  0  0  0  0  0
   11.2615  -16.8706   25.2221 C   0  0  0  0  0  0  0  0  0  0  0  0
   10.4169  -15.9547   25.3826 O   0  0  0  0  0  0  0  0  0  0  0  0
   11.5777  -17.6308   26.3331 O   0  0  0  0  0  0  0  0  0  0  0  0
  2  1  1  6
  2  3  1  0
  2  7  1  0
  3  4  1  0
  4  5  1  0
  5  6  2  0
  7  8  2  0
  9  5  1  0
 10  7  1  0
 10 11  1  0
 11 12  1  1
 13 12  1  0
 14 13  2  0
 15 14  1  0
 16 15  1  0
 16 17  2  0
 17 13  1  0
 18 26  1  0
 18 11  1  0
 19 18  2  0
 20 21  1  0
 21 22  2  0
 23 24  1  0
 23 21  1  0
 25 24  1  1
 25 27  1  0
 25 26  1  0
 27 29  1  0
 28 27  2  0
M  END
$$$$
