EHQ.pdb
     RDKit          3D

 29 29  0  0  1  0  0  0  0  0999 V2000
156859.1719 4550.758825084.4336 N   0  0  0  0  0  0  0  0  0  0  0  0
156859.6719 4551.699225085.4297 C   0  0  1  0  0  0  0  0  0  0  0  0
156861.0469 4552.151925085.0645 C   0  0  0  0  0  0  0  0  0  0  0  0
156862.1250 4551.103025085.4238 C   0  0  0  0  0  0  0  0  0  0  0  0
156861.4844 4549.934625086.0508 C   0  0  0  0  0  0  0  0  0  0  0  0
156860.8125 4550.014225087.1191 O   0  0  0  0  0  0  0  0  0  0  0  0
156858.7188 4552.846225085.6055 C   0  0  0  0  0  0  0  0  0  0  0  0
156858.3906 4553.191925086.7441 O   0  0  0  0  0  0  0  0  0  0  0  0
156861.4531 4548.709525085.4180 O   0  0  0  0  0  0  0  0  0  0  0  0
156858.2500 4553.528825084.4785 N   0  0  0  0  0  0  0  0  0  0  0  0
156857.1562 4554.396025084.5742 C   0  0  1  0  0  0  0  0  0  0  0  0
156855.9219 4553.793025083.8750 C   0  0  0  0  0  0  0  0  0  0  0  0
156855.2188 4552.810525084.6523 C   0  0  0  0  0  0  0  0  0  0  0  0
156854.1406 4553.081125085.4980 C   0  0  0  0  0  0  0  0  0  0  0  0
156853.7188 4551.877425086.0410 N   0  0  0  0  0  0  0  0  0  0  0  0
156854.5312 4550.888725085.5586 C   0  0  0  0  0  0  0  0  0  0  0  0
156855.4375 4551.498025084.7168 N   0  0  0  0  0  0  0  0  0  0  0  0
156856.7188 4554.529325086.0098 C   0  0  0  0  0  0  0  0  0  0  0  0
156856.8438 4553.518125086.7461 O   0  0  0  0  0  0  0  0  0  0  0  0
156851.9688 4557.603525087.9355 N   0  0  0  0  0  0  0  0  0  0  0  0
156852.1875 4556.223125088.4883 C   0  0  0  0  0  0  0  0  0  0  0  0
156851.2656 4555.739725089.1758 O   0  0  0  0  0  0  0  0  0  0  0  0
156853.4531 4555.567425088.1914 C   0  0  0  0  0  0  0  0  0  0  0  0
156854.5938 4556.509325088.1406 C   0  0  0  0  0  0  0  0  0  0  0  0
156855.9531 4555.926825087.9551 C   0  0  2  0  0  0  0  0  0  0  0  0
156856.2969 4555.760325086.5605 N   0  0  0  0  0  0  0  0  0  0  0  0
156856.1562 4554.628425088.7188 C   0  0  0  0  0  0  0  0  0  0  0  0
156855.2656 4554.282725089.4883 O   0  0  0  0  0  0  0  0  0  0  0  0
156857.2812 4553.875025088.5820 O   0  0  0  0  0  0  0  0  0  0  0  0
  2  1  1  6
  2  3  1  0
  2  7  1  0
  3  4  1  0
  4  5  1  0
  5  6  2  0
  7  8  2  0
  9  5  1  0
 10  7  1  0
 10 11  1  0
 11 12  1  6
 13 12  1  0
 14 13  2  0
 15 14  1  0
 16 15  1  0
 16 17  2  0
 17 13  1  0
 18 26  1  0
 18 11  1  0
 19 18  2  0
 20 21  1  0
 21 22  2  0
 23 24  1  0
 23 21  1  0
 25 24  1  6
 25 27  1  0
 25 26  1  0
 27 29  1  0
 28 27  2  0
M  END
$$$$
