EHQ.pdb
     RDKit          3D

 29 29  0  0  1  0  0  0  0  0999 V2000
   10.5074  -18.1795   19.0562 N   0  0  0  0  0  0  0  0  0  0  0  0
   11.4251  -18.1258   20.1588 C   0  0  1  0  0  0  0  0  0  0  0  0
   12.8067  -17.8043   19.6630 C   0  0  0  0  0  0  0  0  0  0  0  0
   13.0395  -18.3876   18.3087 C   0  0  0  0  0  0  0  0  0  0  0  0
   14.3794  -18.0462   17.7726 C   0  0  0  0  0  0  0  0  0  0  0  0
   14.5371  -17.5855   16.6132 O   0  0  0  0  0  0  0  0  0  0  0  0
   10.9955  -17.1452   21.1971 C   0  0  0  0  0  0  0  0  0  0  0  0
   11.7816  -16.2704   21.6036 O   0  0  0  0  0  0  0  0  0  0  0  0
   15.5271  -18.2204   18.5295 O   0  0  0  0  0  0  0  0  0  0  0  0
    9.6702  -17.1963   21.7423 N   0  0  0  0  0  0  0  0  0  0  0  0
    9.2132  -16.2493   22.7312 C   0  0  1  0  0  0  0  0  0  0  0  0
    7.7238  -16.0543   22.6693 C   0  0  0  0  0  0  0  0  0  0  0  0
    7.2186  -15.0991   23.6594 C   0  0  0  0  0  0  0  0  0  0  0  0
    6.4675  -15.4055   24.7635 C   0  0  0  0  0  0  0  0  0  0  0  0
    6.2082  -14.2602   25.4116 N   0  0  0  0  0  0  0  0  0  0  0  0
    6.7740  -13.2211   24.7517 C   0  0  0  0  0  0  0  0  0  0  0  0
    7.3907  -13.7700   23.6744 N   0  0  0  0  0  0  0  0  0  0  0  0
    9.5342  -16.8139   24.0868 C   0  0  0  0  0  0  0  0  0  0  0  0
    9.8047  -18.0360   24.1785 O   0  0  0  0  0  0  0  0  0  0  0  0
   10.2122  -13.1998   29.0919 N   0  0  0  0  0  0  0  0  0  0  0  0
   10.6201  -14.4334   29.7261 C   0  0  0  0  0  0  0  0  0  0  0  0
   10.8898  -14.4600   30.9476 O   0  0  0  0  0  0  0  0  0  0  0  0
   10.6933  -15.6181   28.8489 C   0  0  0  0  0  0  0  0  0  0  0  0
   10.1511  -15.2847   27.4940 C   0  0  0  0  0  0  0  0  0  0  0  0
   10.0986  -16.3912   26.5083 C   0  0  2  0  0  0  0  0  0  0  0  0
    9.5314  -15.9771   25.2403 N   0  0  0  0  0  0  0  0  0  0  0  0
    9.4108  -17.6269   27.0261 C   0  0  0  0  0  0  0  0  0  0  0  0
    8.1957  -17.8281   26.7787 O   0  0  0  0  0  0  0  0  0  0  0  0
   10.0607  -18.5833   27.7846 O   0  0  0  0  0  0  0  0  0  0  0  0
  2  1  1  6
  2  3  1  0
  2  7  1  0
  3  4  1  0
  4  5  1  0
  5  6  2  0
  7  8  2  0
  9  5  1  0
 10  7  1  0
 10 11  1  0
 11 12  1  1
 13 12  1  0
 14 13  2  0
 15 14  1  0
 16 15  1  0
 16 17  2  0
 17 13  1  0
 18 26  1  0
 18 11  1  0
 19 18  2  0
 20 21  1  0
 21 22  2  0
 23 24  1  0
 23 21  1  0
 25 24  1  1
 25 27  1  0
 25 26  1  0
 27 29  1  0
 28 27  2  0
M  END
$$$$
