EHQ.pdb
     RDKit          3D

 29 29  0  0  1  0  0  0  0  0999 V2000
   11.3080  -16.7745   15.9487 N   0  0  0  0  0  0  0  0  0  0  0  0
   11.1316  -17.6305   17.0876 C   0  0  1  0  0  0  0  0  0  0  0  0
   12.1839  -18.7032   17.0926 C   0  0  0  0  0  0  0  0  0  0  0  0
   13.5324  -18.1328   16.8012 C   0  0  0  0  0  0  0  0  0  0  0  0
   14.5705  -19.1837   16.6694 C   0  0  0  0  0  0  0  0  0  0  0  0
   14.2863  -20.4086   16.6847 O   0  0  0  0  0  0  0  0  0  0  0  0
   11.1496  -16.8677   18.3690 C   0  0  0  0  0  0  0  0  0  0  0  0
   12.0401  -16.0276   18.5917 O   0  0  0  0  0  0  0  0  0  0  0  0
   15.9104  -18.8622   16.5224 O   0  0  0  0  0  0  0  0  0  0  0  0
   10.1409  -17.0916   19.3632 N   0  0  0  0  0  0  0  0  0  0  0  0
   10.1123  -16.3532   20.6032 C   0  0  1  0  0  0  0  0  0  0  0  0
    8.7293  -15.8601   20.9262 C   0  0  0  0  0  0  0  0  0  0  0  0
    8.3047  -14.7284   20.0976 C   0  0  0  0  0  0  0  0  0  0  0  0
    9.0775  -14.0686   19.1786 C   0  0  0  0  0  0  0  0  0  0  0  0
    8.3268  -13.0996   18.6342 N   0  0  0  0  0  0  0  0  0  0  0  0
    7.0871  -13.1179   19.1801 C   0  0  0  0  0  0  0  0  0  0  0  0
    7.1036  -14.1339   20.0801 N   0  0  0  0  0  0  0  0  0  0  0  0
   10.5204  -17.2924   21.7036 C   0  0  0  0  0  0  0  0  0  0  0  0
   10.3641  -18.5252   21.5282 O   0  0  0  0  0  0  0  0  0  0  0  0
   15.0002  -20.3387   23.2223 N   0  0  0  0  0  0  0  0  0  0  0  0
   15.2461  -18.9248   23.0457 C   0  0  0  0  0  0  0  0  0  0  0  0
   16.2420  -18.5299   22.3995 O   0  0  0  0  0  0  0  0  0  0  0  0
   14.2648  -18.0151   23.6685 C   0  0  0  0  0  0  0  0  0  0  0  0
   12.8788  -18.3946   23.2493 C   0  0  0  0  0  0  0  0  0  0  0  0
   11.7657  -17.6363   23.8697 C   0  0  2  0  0  0  0  0  0  0  0  0
   11.0731  -16.7908   22.9176 N   0  0  0  0  0  0  0  0  0  0  0  0
   12.1773  -16.8496   25.0862 C   0  0  0  0  0  0  0  0  0  0  0  0
   12.0886  -15.5965   25.0919 O   0  0  0  0  0  0  0  0  0  0  0  0
   12.6648  -17.4468   26.2342 O   0  0  0  0  0  0  0  0  0  0  0  0
  2  1  1  6
  2  3  1  0
  2  7  1  0
  3  4  1  0
  4  5  1  0
  5  6  2  0
  7  8  2  0
  9  5  1  0
 10  7  1  0
 10 11  1  0
 11 12  1  1
 13 12  1  0
 14 13  2  0
 15 14  1  0
 16 15  1  0
 16 17  2  0
 17 13  1  0
 18 26  1  0
 18 11  1  0
 19 18  2  0
 20 21  1  0
 21 22  2  0
 23 24  1  0
 23 21  1  0
 25 24  1  6
 25 27  1  0
 25 26  1  0
 27 29  1  0
 28 27  2  0
M  END
$$$$
