EHQ.pdb
     RDKit          3D

 29 29  0  0  1  0  0  0  0  0999 V2000
   11.2627  -20.0938   17.2582 N   0  0  0  0  0  0  0  0  0  0  0  0
    9.9477  -19.5819   17.5219 C   0  0  1  0  0  0  0  0  0  0  0  0
    9.0776  -20.6674   18.0899 C   0  0  0  0  0  0  0  0  0  0  0  0
    9.8626  -21.5733   18.9797 C   0  0  0  0  0  0  0  0  0  0  0  0
    9.3236  -21.6097   20.3609 C   0  0  0  0  0  0  0  0  0  0  0  0
    9.6313  -20.7452   21.2206 O   0  0  0  0  0  0  0  0  0  0  0  0
    9.9792  -18.4006   18.4317 C   0  0  0  0  0  0  0  0  0  0  0  0
   11.0105  -18.1221   19.0699 O   0  0  0  0  0  0  0  0  0  0  0  0
    8.4504  -22.6049   20.7704 O   0  0  0  0  0  0  0  0  0  0  0  0
    8.8213  -17.5687   18.5844 N   0  0  0  0  0  0  0  0  0  0  0  0
    8.8522  -16.3495   19.3565 C   0  0  1  0  0  0  0  0  0  0  0  0
    7.6692  -15.4711   19.0583 C   0  0  0  0  0  0  0  0  0  0  0  0
    7.7079  -14.1830   19.7562 C   0  0  0  0  0  0  0  0  0  0  0  0
    7.0147  -13.8624   20.8937 C   0  0  0  0  0  0  0  0  0  0  0  0
    7.3195  -12.5962   21.2144 N   0  0  0  0  0  0  0  0  0  0  0  0
    8.1933  -12.0913   20.3105 C   0  0  0  0  0  0  0  0  0  0  0  0
    8.4143  -13.0939   19.4226 N   0  0  0  0  0  0  0  0  0  0  0  0
    8.7737  -16.7269   20.8094 C   0  0  0  0  0  0  0  0  0  0  0  0
    8.3899  -17.8838   21.1084 O   0  0  0  0  0  0  0  0  0  0  0  0
   12.7210  -18.6517   23.1896 N   0  0  0  0  0  0  0  0  0  0  0  0
   12.2474  -18.3703   24.5265 C   0  0  0  0  0  0  0  0  0  0  0  0
   12.8501  -18.8284   25.5227 O   0  0  0  0  0  0  0  0  0  0  0  0
   11.0371  -17.5308   24.6204 C   0  0  0  0  0  0  0  0  0  0  0  0
   10.6250  -17.0743   23.2556 C   0  0  0  0  0  0  0  0  0  0  0  0
    9.4392  -16.1871   23.1815 C   0  0  2  0  0  0  0  0  0  0  0  0
    9.1288  -15.7897   21.8225 N   0  0  0  0  0  0  0  0  0  0  0  0
    9.5285  -14.9855   24.0850 C   0  0  0  0  0  0  0  0  0  0  0  0
    9.6987  -15.1318   25.3210 O   0  0  0  0  0  0  0  0  0  0  0  0
    9.4292  -13.6880   23.6172 O   0  0  0  0  0  0  0  0  0  0  0  0
  2  1  1  1
  2  3  1  0
  2  7  1  0
  3  4  1  0
  4  5  1  0
  5  6  2  0
  7  8  2  0
  9  5  1  0
 10  7  1  0
 10 11  1  0
 11 12  1  6
 13 12  1  0
 14 13  2  0
 15 14  1  0
 16 15  1  0
 16 17  2  0
 17 13  1  0
 18 26  1  0
 18 11  1  0
 19 18  2  0
 20 21  1  0
 21 22  2  0
 23 24  1  0
 23 21  1  0
 25 24  1  6
 25 27  1  0
 25 26  1  0
 27 29  1  0
 28 27  2  0
M  END
$$$$
