EHQ.pdb
     RDKit          3D

 29 29  0  0  1  0  0  0  0  0999 V2000
    9.9564  -17.4376   16.5250 N   0  0  0  0  0  0  0  0  0  0  0  0
   10.9864  -17.7501   17.4750 C   0  0  1  0  0  0  0  0  0  0  0  0
   12.3294  -17.7349   16.8012 C   0  0  0  0  0  0  0  0  0  0  0  0
   12.2286  -18.2222   15.3936 C   0  0  0  0  0  0  0  0  0  0  0  0
   13.5557  -18.3338   14.7413 C   0  0  0  0  0  0  0  0  0  0  0  0
   14.3236  -17.3459   14.6165 O   0  0  0  0  0  0  0  0  0  0  0  0
   10.9711  -16.8221   18.6423 C   0  0  0  0  0  0  0  0  0  0  0  0
   11.9860  -16.1677   18.9424 O   0  0  0  0  0  0  0  0  0  0  0  0
   14.0138  -19.5400   14.2356 O   0  0  0  0  0  0  0  0  0  0  0  0
    9.7865  -16.6707   19.4361 N   0  0  0  0  0  0  0  0  0  0  0  0
    9.7259  -15.7580   20.5527 C   0  0  1  0  0  0  0  0  0  0  0  0
    8.3535  -15.1659   20.7143 C   0  0  0  0  0  0  0  0  0  0  0  0
    7.9380  -14.3371   19.5792 C   0  0  0  0  0  0  0  0  0  0  0  0
    8.1946  -13.0005   19.4215 C   0  0  0  0  0  0  0  0  0  0  0  0
    7.6498  -12.6146   18.2583 N   0  0  0  0  0  0  0  0  0  0  0  0
    7.0470  -13.6706   17.6609 C   0  0  0  0  0  0  0  0  0  0  0  0
    7.2416  -14.7197   18.4999 N   0  0  0  0  0  0  0  0  0  0  0  0
   10.0242  -16.5418   21.8001 C   0  0  0  0  0  0  0  0  0  0  0  0
    9.4260  -17.6300   21.9818 O   0  0  0  0  0  0  0  0  0  0  0  0
   15.2942  -16.5554   24.9777 N   0  0  0  0  0  0  0  0  0  0  0  0
   15.1176  -16.9056   23.5860 C   0  0  0  0  0  0  0  0  0  0  0  0
   16.1100  -17.1191   22.8546 O   0  0  0  0  0  0  0  0  0  0  0  0
   13.7223  -16.9865   23.1116 C   0  0  0  0  0  0  0  0  0  0  0  0
   12.7814  -16.7127   24.2432 C   0  0  0  0  0  0  0  0  0  0  0  0
   11.3328  -16.8045   23.9401 C   0  0  2  0  0  0  0  0  0  0  0  0
   10.9667  -16.0577   22.7530 N   0  0  0  0  0  0  0  0  0  0  0  0
   10.4497  -16.4326   25.1020 C   0  0  0  0  0  0  0  0  0  0  0  0
    9.7788  -15.3709   25.0752 O   0  0  0  0  0  0  0  0  0  0  0  0
   10.3321  -17.2176   26.2344 O   0  0  0  0  0  0  0  0  0  0  0  0
  2  1  1  6
  2  3  1  0
  2  7  1  0
  3  4  1  0
  4  5  1  0
  5  6  2  0
  7  8  2  0
  9  5  1  0
 10  7  1  0
 10 11  1  0
 11 12  1  1
 13 12  1  0
 14 13  2  0
 15 14  1  0
 16 15  1  0
 16 17  2  0
 17 13  1  0
 18 26  1  0
 18 11  1  0
 19 18  2  0
 20 21  1  0
 21 22  2  0
 23 24  1  0
 23 21  1  0
 25 24  1  1
 25 27  1  0
 25 26  1  0
 27 29  1  0
 28 27  2  0
M  END
$$$$
