EHQ.pdb
     RDKit          3D

 29 29  0  0  1  0  0  0  0  0999 V2000
   10.6304  -16.5606   15.6039 N   0  0  0  0  0  0  0  0  0  0  0  0
   11.5725  -17.0515   16.5695 C   0  0  1  0  0  0  0  0  0  0  0  0
   12.9580  -17.0411   15.9877 C   0  0  0  0  0  0  0  0  0  0  0  0
   13.0137  -17.8299   14.7216 C   0  0  0  0  0  0  0  0  0  0  0  0
   14.3738  -17.8486   14.1305 C   0  0  0  0  0  0  0  0  0  0  0  0
   14.7330  -17.0196   13.2559 O   0  0  0  0  0  0  0  0  0  0  0  0
   11.5280  -16.2728   17.8407 C   0  0  0  0  0  0  0  0  0  0  0  0
   12.3117  -15.3247   18.0284 O   0  0  0  0  0  0  0  0  0  0  0  0
   15.3176  -18.7866   14.5174 O   0  0  0  0  0  0  0  0  0  0  0  0
   10.5816  -16.6058   18.8652 N   0  0  0  0  0  0  0  0  0  0  0  0
   10.5076  -15.8712   20.1056 C   0  0  1  0  0  0  0  0  0  0  0  0
    9.0856  -15.6721   20.5511 C   0  0  0  0  0  0  0  0  0  0  0  0
    8.4038  -14.5771   19.8555 C   0  0  0  0  0  0  0  0  0  0  0  0
    8.9617  -13.7469   18.9192 C   0  0  0  0  0  0  0  0  0  0  0  0
    8.0155  -12.8821   18.5246 N   0  0  0  0  0  0  0  0  0  0  0  0
    6.8594  -13.1341   19.1844 C   0  0  0  0  0  0  0  0  0  0  0  0
    7.1300  -14.1857   19.9988 N   0  0  0  0  0  0  0  0  0  0  0  0
   11.1968  -16.6886   21.1622 C   0  0  0  0  0  0  0  0  0  0  0  0
   11.1643  -17.9397   21.0685 O   0  0  0  0  0  0  0  0  0  0  0  0
   16.8850  -16.2563   22.7969 N   0  0  0  0  0  0  0  0  0  0  0  0
   16.3440  -16.4434   24.1246 C   0  0  0  0  0  0  0  0  0  0  0  0
   17.0091  -16.1163   25.1327 O   0  0  0  0  0  0  0  0  0  0  0  0
   14.9926  -17.0325   24.1952 C   0  0  0  0  0  0  0  0  0  0  0  0
   14.0913  -16.3632   23.2050 C   0  0  0  0  0  0  0  0  0  0  0  0
   12.6705  -16.7875   23.2066 C   0  0  2  0  0  0  0  0  0  0  0  0
   11.8721  -16.0538   22.2447 N   0  0  0  0  0  0  0  0  0  0  0  0
   12.0332  -16.7533   24.5707 C   0  0  0  0  0  0  0  0  0  0  0  0
   11.2163  -15.8462   24.8673 O   0  0  0  0  0  0  0  0  0  0  0  0
   12.3057  -17.6928   25.5482 O   0  0  0  0  0  0  0  0  0  0  0  0
  2  1  1  6
  2  3  1  0
  2  7  1  0
  3  4  1  0
  4  5  1  0
  5  6  2  0
  7  8  2  0
  9  5  1  0
 10  7  1  0
 10 11  1  0
 11 12  1  1
 13 12  1  0
 14 13  2  0
 15 14  1  0
 16 15  1  0
 16 17  2  0
 17 13  1  0
 18 26  1  0
 18 11  1  0
 19 18  2  0
 20 21  1  0
 21 22  2  0
 23 24  1  0
 23 21  1  0
 25 24  1  1
 25 27  1  0
 25 26  1  0
 27 29  1  0
 28 27  2  0
M  END
$$$$
