EHQ.pdb
     RDKit          3D

 29 29  0  0  1  0  0  0  0  0999 V2000
   15.7275  -13.4743   15.4481 N   0  0  0  0  0  0  0  0  0  0  0  0
   15.7379  -14.4539   16.4974 C   0  0  1  0  0  0  0  0  0  0  0  0
   16.9951  -14.3236   17.3102 C   0  0  0  0  0  0  0  0  0  0  0  0
   16.9972  -13.0534   18.0945 C   0  0  0  0  0  0  0  0  0  0  0  0
   18.1993  -12.9254   18.9535 C   0  0  0  0  0  0  0  0  0  0  0  0
   18.3094  -13.5417   20.0440 O   0  0  0  0  0  0  0  0  0  0  0  0
   14.5326  -14.3522   17.3698 C   0  0  0  0  0  0  0  0  0  0  0  0
   14.0912  -13.2396   17.7102 O   0  0  0  0  0  0  0  0  0  0  0  0
   19.2638  -12.1152   18.5916 O   0  0  0  0  0  0  0  0  0  0  0  0
   13.8650  -15.5351   17.8293 N   0  0  0  0  0  0  0  0  0  0  0  0
   12.6115  -15.4774   18.5428 C   0  0  1  0  0  0  0  0  0  0  0  0
   11.6266  -16.4864   18.0212 C   0  0  0  0  0  0  0  0  0  0  0  0
   11.0051  -16.0940   16.7533 C   0  0  0  0  0  0  0  0  0  0  0  0
    9.8135  -15.4329   16.6113 C   0  0  0  0  0  0  0  0  0  0  0  0
    9.5959  -15.2607   15.2990 N   0  0  0  0  0  0  0  0  0  0  0  0
   10.6191  -15.7953   14.5901 C   0  0  0  0  0  0  0  0  0  0  0  0
   11.4735  -16.3023   15.5149 N   0  0  0  0  0  0  0  0  0  0  0  0
   12.8874  -15.8233   19.9794 C   0  0  0  0  0  0  0  0  0  0  0  0
   13.9276  -16.4708   20.2510 O   0  0  0  0  0  0  0  0  0  0  0  0
   10.0259  -15.0112   26.7456 N   0  0  0  0  0  0  0  0  0  0  0  0
    9.8122  -15.3735   25.3623 C   0  0  0  0  0  0  0  0  0  0  0  0
    8.6873  -15.2268   24.8345 O   0  0  0  0  0  0  0  0  0  0  0  0
   10.9846  -15.9137   24.6467 C   0  0  0  0  0  0  0  0  0  0  0  0
   10.9982  -15.4118   23.2365 C   0  0  0  0  0  0  0  0  0  0  0  0
   12.1277  -15.8551   22.3841 C   0  0  2  0  0  0  0  0  0  0  0  0
   11.9861  -15.4225   21.0080 N   0  0  0  0  0  0  0  0  0  0  0  0
   12.3921  -17.3360   22.4569 C   0  0  0  0  0  0  0  0  0  0  0  0
   11.7822  -18.1280   21.6961 O   0  0  0  0  0  0  0  0  0  0  0  0
   13.2960  -17.8924   23.3433 O   0  0  0  0  0  0  0  0  0  0  0  0
  2  1  1  6
  2  3  1  0
  2  7  1  0
  3  4  1  0
  4  5  1  0
  5  6  2  0
  7  8  2  0
  9  5  1  0
 10  7  1  0
 10 11  1  0
 11 12  1  6
 13 12  1  0
 14 13  2  0
 15 14  1  0
 16 15  1  0
 16 17  2  0
 17 13  1  0
 18 26  1  0
 18 11  1  0
 19 18  2  0
 20 21  1  0
 21 22  2  0
 23 24  1  0
 23 21  1  0
 25 24  1  1
 25 27  1  0
 25 26  1  0
 27 29  1  0
 28 27  2  0
M  END
$$$$
