EHQ.pdb
     RDKit          3D

 29 29  0  0  1  0  0  0  0  0999 V2000
   10.8445  -16.4185   19.9556 N   0  0  0  0  0  0  0  0  0  0  0  0
   10.1724  -17.0746   21.0413 C   0  0  1  0  0  0  0  0  0  0  0  0
   10.8744  -18.3595   21.3794 C   0  0  0  0  0  0  0  0  0  0  0  0
   10.9381  -19.2638   20.1933 C   0  0  0  0  0  0  0  0  0  0  0  0
   11.5434  -20.5776   20.5202 C   0  0  0  0  0  0  0  0  0  0  0  0
   12.7807  -20.7832   20.4316 O   0  0  0  0  0  0  0  0  0  0  0  0
   10.0657  -16.1993   22.2441 C   0  0  0  0  0  0  0  0  0  0  0  0
   11.0817  -15.6778   22.7381 O   0  0  0  0  0  0  0  0  0  0  0  0
   10.7681  -21.6464   20.9411 O   0  0  0  0  0  0  0  0  0  0  0  0
    8.7904  -15.9462   22.8489 N   0  0  0  0  0  0  0  0  0  0  0  0
    8.6438  -15.0675   23.9847 C   0  0  1  0  0  0  0  0  0  0  0  0
    7.2007  -14.7465   24.2581 C   0  0  0  0  0  0  0  0  0  0  0  0
    7.0145  -13.7564   25.3224 C   0  0  0  0  0  0  0  0  0  0  0  0
    8.0089  -13.1749   26.0642 C   0  0  0  0  0  0  0  0  0  0  0  0
    7.4311  -12.3285   26.9295 N   0  0  0  0  0  0  0  0  0  0  0  0
    6.0866  -12.3498   26.7641 C   0  0  0  0  0  0  0  0  0  0  0  0
    5.8595  -13.2404   25.7653 N   0  0  0  0  0  0  0  0  0  0  0  0
    9.1778  -15.7877   25.1912 C   0  0  0  0  0  0  0  0  0  0  0  0
    8.8220  -16.9752   25.3868 O   0  0  0  0  0  0  0  0  0  0  0  0
   14.4576  -15.5472   25.5123 N   0  0  0  0  0  0  0  0  0  0  0  0
   14.0301  -16.9267   25.5822 C   0  0  0  0  0  0  0  0  0  0  0  0
   14.6971  -17.8267   25.0251 O   0  0  0  0  0  0  0  0  0  0  0  0
   12.7861  -17.1808   26.3349 C   0  0  0  0  0  0  0  0  0  0  0  0
   12.2466  -15.8949   26.8790 C   0  0  0  0  0  0  0  0  0  0  0  0
   10.7867  -15.8410   27.1328 C   0  0  2  0  0  0  0  0  0  0  0  0
   10.0690  -15.1339   26.0908 N   0  0  0  0  0  0  0  0  0  0  0  0
   10.4313  -15.2990   28.4922 C   0  0  0  0  0  0  0  0  0  0  0  0
    9.7989  -14.2189   28.5996 O   0  0  0  0  0  0  0  0  0  0  0  0
   10.7737  -15.9422   29.6676 O   0  0  0  0  0  0  0  0  0  0  0  0
  2  1  1  6
  2  3  1  0
  2  7  1  0
  3  4  1  0
  4  5  1  0
  5  6  2  0
  7  8  2  0
  9  5  1  0
 10  7  1  0
 10 11  1  0
 11 12  1  1
 13 12  1  0
 14 13  2  0
 15 14  1  0
 16 15  1  0
 16 17  2  0
 17 13  1  0
 18 26  1  0
 18 11  1  0
 19 18  2  0
 20 21  1  0
 21 22  2  0
 23 24  1  0
 23 21  1  0
 25 24  1  6
 25 27  1  0
 25 26  1  0
 27 29  1  0
 28 27  2  0
M  END
$$$$
