EHQ.pdb
     RDKit          3D

 29 29  0  0  1  0  0  0  0  0999 V2000
   11.3971  -15.1848   18.1698 N   0  0  0  0  0  0  0  0  0  0  0  0
   12.2879  -15.6231   19.2068 C   0  0  1  0  0  0  0  0  0  0  0  0
   13.6413  -14.9972   19.0207 C   0  0  0  0  0  0  0  0  0  0  0  0
   13.7952  -14.4538   17.6388 C   0  0  0  0  0  0  0  0  0  0  0  0
   15.1347  -13.8578   17.4154 C   0  0  0  0  0  0  0  0  0  0  0  0
   16.1421  -14.5610   17.1472 O   0  0  0  0  0  0  0  0  0  0  0  0
   11.7521  -15.3271   20.5667 C   0  0  0  0  0  0  0  0  0  0  0  0
   12.5098  -15.3070   21.5536 O   0  0  0  0  0  0  0  0  0  0  0  0
   15.3394  -12.4893   17.4925 O   0  0  0  0  0  0  0  0  0  0  0  0
   10.3558  -15.0618   20.7568 N   0  0  0  0  0  0  0  0  0  0  0  0
    9.7785  -14.9094   22.0710 C   0  0  1  0  0  0  0  0  0  0  0  0
    8.2774  -14.8468   22.0163 C   0  0  0  0  0  0  0  0  0  0  0  0
    7.6571  -14.5666   23.3142 C   0  0  0  0  0  0  0  0  0  0  0  0
    8.3128  -14.4499   24.5115 C   0  0  0  0  0  0  0  0  0  0  0  0
    7.3958  -14.1921   25.4558 N   0  0  0  0  0  0  0  0  0  0  0  0
    6.1630  -14.1399   24.8964 C   0  0  0  0  0  0  0  0  0  0  0  0
    6.3562  -14.3749   23.5736 N   0  0  0  0  0  0  0  0  0  0  0  0
   10.1462  -16.1250   22.8751 C   0  0  0  0  0  0  0  0  0  0  0  0
   10.2157  -17.2327   22.2894 O   0  0  0  0  0  0  0  0  0  0  0  0
   14.4460  -18.7988   24.1355 N   0  0  0  0  0  0  0  0  0  0  0  0
   14.4667  -17.3548   24.0650 C   0  0  0  0  0  0  0  0  0  0  0  0
   15.5052  -16.7515   23.7145 O   0  0  0  0  0  0  0  0  0  0  0  0
   13.2099  -16.6716   24.4287 C   0  0  0  0  0  0  0  0  0  0  0  0
   12.1395  -17.6820   24.7009 C   0  0  0  0  0  0  0  0  0  0  0  0
   10.8075  -17.1532   25.0811 C   0  0  2  0  0  0  0  0  0  0  0  0
   10.4102  -16.0185   24.2715 N   0  0  0  0  0  0  0  0  0  0  0  0
   10.6816  -16.8363   26.5481 C   0  0  0  0  0  0  0  0  0  0  0  0
   10.8965  -17.7243   27.4102 O   0  0  0  0  0  0  0  0  0  0  0  0
   10.3301  -15.5833   27.0159 O   0  0  0  0  0  0  0  0  0  0  0  0
  2  1  1  6
  2  3  1  0
  2  7  1  0
  3  4  1  0
  4  5  1  0
  5  6  2  0
  7  8  2  0
  9  5  1  0
 10  7  1  0
 10 11  1  0
 11 12  1  6
 13 12  1  0
 14 13  2  0
 15 14  1  0
 16 15  1  0
 16 17  2  0
 17 13  1  0
 18 26  1  0
 18 11  1  0
 19 18  2  0
 20 21  1  0
 21 22  2  0
 23 24  1  0
 23 21  1  0
 25 24  1  1
 25 27  1  0
 25 26  1  0
 27 29  1  0
 28 27  2  0
M  END
$$$$
