EHQ.pdb
     RDKit          3D

 29 29  0  0  1  0  0  0  0  0999 V2000
   12.9970  -16.9437   18.8353 N   0  0  0  0  0  0  0  0  0  0  0  0
   13.7185  -16.2999   19.8964 C   0  0  1  0  0  0  0  0  0  0  0  0
   14.6898  -15.3043   19.3277 C   0  0  0  0  0  0  0  0  0  0  0  0
   14.2810  -14.8798   17.9561 C   0  0  0  0  0  0  0  0  0  0  0  0
   15.2435  -13.9265   17.3527 C   0  0  0  0  0  0  0  0  0  0  0  0
   14.9085  -12.7616   17.0178 O   0  0  0  0  0  0  0  0  0  0  0  0
   12.8055  -15.6453   20.8772 C   0  0  0  0  0  0  0  0  0  0  0  0
   13.2590  -14.8894   21.7555 O   0  0  0  0  0  0  0  0  0  0  0  0
   16.5652  -14.2777   17.1285 O   0  0  0  0  0  0  0  0  0  0  0  0
   11.3916  -15.8778   20.8226 N   0  0  0  0  0  0  0  0  0  0  0  0
   10.4794  -15.2662   21.7593 C   0  0  1  0  0  0  0  0  0  0  0  0
    9.0479  -15.4275   21.3292 C   0  0  0  0  0  0  0  0  0  0  0  0
    8.6723  -14.5562   20.2122 C   0  0  0  0  0  0  0  0  0  0  0  0
    9.5021  -13.6859   19.5556 C   0  0  0  0  0  0  0  0  0  0  0  0
    8.7828  -13.0774   18.6010 N   0  0  0  0  0  0  0  0  0  0  0  0
    7.5076  -13.5342   18.6258 C   0  0  0  0  0  0  0  0  0  0  0  0
    7.4698  -14.4459   19.6307 N   0  0  0  0  0  0  0  0  0  0  0  0
   10.6332  -15.9752   23.0758 C   0  0  0  0  0  0  0  0  0  0  0  0
   11.0527  -17.1581   23.0743 O   0  0  0  0  0  0  0  0  0  0  0  0
    9.8933  -13.2289   28.6248 N   0  0  0  0  0  0  0  0  0  0  0  0
   10.3921  -14.5017   29.0957 C   0  0  0  0  0  0  0  0  0  0  0  0
   10.7430  -14.6437   30.2882 O   0  0  0  0  0  0  0  0  0  0  0  0
   10.4548  -15.5827   28.0928 C   0  0  0  0  0  0  0  0  0  0  0  0
   10.3410  -15.0086   26.7151 C   0  0  0  0  0  0  0  0  0  0  0  0
   10.4034  -15.9693   25.5874 C   0  0  2  0  0  0  0  0  0  0  0  0
   10.3097  -15.3158   24.2970 N   0  0  0  0  0  0  0  0  0  0  0  0
    9.4034  -17.0904   25.6952 C   0  0  0  0  0  0  0  0  0  0  0  0
    8.3074  -17.0245   25.0850 O   0  0  0  0  0  0  0  0  0  0  0  0
    9.6292  -18.2246   26.4536 O   0  0  0  0  0  0  0  0  0  0  0  0
  2  1  1  6
  2  3  1  0
  2  7  1  0
  3  4  1  0
  4  5  1  0
  5  6  2  0
  7  8  2  0
  9  5  1  0
 10  7  1  0
 10 11  1  0
 11 12  1  6
 13 12  1  0
 14 13  2  0
 15 14  1  0
 16 15  1  0
 16 17  2  0
 17 13  1  0
 18 26  1  0
 18 11  1  0
 19 18  2  0
 20 21  1  0
 21 22  2  0
 23 24  1  0
 23 21  1  0
 25 24  1  1
 25 27  1  0
 25 26  1  0
 27 29  1  0
 28 27  2  0
M  END
$$$$
