EHQ.pdb
     RDKit          3D

 29 29  0  0  1  0  0  0  0  0999 V2000
    6.9347  -18.8741   17.3020 N   0  0  0  0  0  0  0  0  0  0  0  0
    6.8144  -20.0876   18.0595 C   0  0  1  0  0  0  0  0  0  0  0  0
    8.1311  -20.8112   18.0840 C   0  0  0  0  0  0  0  0  0  0  0  0
    9.2720  -19.8510   18.0135 C   0  0  0  0  0  0  0  0  0  0  0  0
   10.5815  -20.5404   17.9176 C   0  0  0  0  0  0  0  0  0  0  0  0
   11.6216  -19.9474   17.5330 O   0  0  0  0  0  0  0  0  0  0  0  0
    6.3247  -19.8358   19.4455 C   0  0  0  0  0  0  0  0  0  0  0  0
    6.5132  -18.7336   19.9916 O   0  0  0  0  0  0  0  0  0  0  0  0
   10.7203  -21.8787   18.2494 O   0  0  0  0  0  0  0  0  0  0  0  0
    5.6299  -20.8603   20.1691 N   0  0  0  0  0  0  0  0  0  0  0  0
    5.0131  -20.6078   21.4495 C   0  0  1  0  0  0  0  0  0  0  0  0
    3.7953  -21.4640   21.6598 C   0  0  0  0  0  0  0  0  0  0  0  0
    2.5976  -20.9501   20.9895 C   0  0  0  0  0  0  0  0  0  0  0  0
    2.4947  -19.7534   20.3304 C   0  0  0  0  0  0  0  0  0  0  0  0
    1.2433  -19.6537   19.8580 N   0  0  0  0  0  0  0  0  0  0  0  0
    0.5355  -20.7581   20.1967 C   0  0  0  0  0  0  0  0  0  0  0  0
    1.3979  -21.5401   20.8946 N   0  0  0  0  0  0  0  0  0  0  0  0
    6.0071  -20.9748   22.5156 C   0  0  0  0  0  0  0  0  0  0  0  0
    6.8054  -21.9171   22.2922 O   0  0  0  0  0  0  0  0  0  0  0  0
    7.2187  -17.5973   27.5592 N   0  0  0  0  0  0  0  0  0  0  0  0
    7.7453  -18.8389   28.0803 C   0  0  0  0  0  0  0  0  0  0  0  0
    8.2081  -18.8942   29.2414 O   0  0  0  0  0  0  0  0  0  0  0  0
    7.6979  -19.9961   27.1653 C   0  0  0  0  0  0  0  0  0  0  0  0
    6.9907  -19.6189   25.9010 C   0  0  0  0  0  0  0  0  0  0  0  0
    6.8752  -20.6727   24.8643 C   0  0  2  0  0  0  0  0  0  0  0  0
    6.0403  -20.2659   23.7514 N   0  0  0  0  0  0  0  0  0  0  0  0
    6.4335  -22.0061   25.4074 C   0  0  0  0  0  0  0  0  0  0  0  0
    7.2280  -22.7150   26.0740 O   0  0  0  0  0  0  0  0  0  0  0  0
    5.1624  -22.5124   25.2066 O   0  0  0  0  0  0  0  0  0  0  0  0
  2  1  1  1
  2  3  1  0
  2  7  1  0
  3  4  1  0
  4  5  1  0
  5  6  2  0
  7  8  2  0
  9  5  1  0
 10  7  1  0
 10 11  1  0
 11 12  1  1
 13 12  1  0
 14 13  2  0
 15 14  1  0
 16 15  1  0
 16 17  2  0
 17 13  1  0
 18 26  1  0
 18 11  1  0
 19 18  2  0
 20 21  1  0
 21 22  2  0
 23 24  1  0
 23 21  1  0
 25 24  1  1
 25 27  1  0
 25 26  1  0
 27 29  1  0
 28 27  2  0
M  END
$$$$
