EHQ.pdb
     RDKit          3D

 29 29  0  0  1  0  0  0  0  0999 V2000
   11.8422  -19.1578   19.9147 N   0  0  0  0  0  0  0  0  0  0  0  0
   12.5399  -17.9055   19.8385 C   0  0  1  0  0  0  0  0  0  0  0  0
   12.5519  -17.4090   18.4202 C   0  0  0  0  0  0  0  0  0  0  0  0
   12.1003  -18.4733   17.4758 C   0  0  0  0  0  0  0  0  0  0  0  0
   12.1998  -18.0464   16.0590 C   0  0  0  0  0  0  0  0  0  0  0  0
   11.3076  -17.3541   15.5060 O   0  0  0  0  0  0  0  0  0  0  0  0
   11.9535  -16.8819   20.7510 C   0  0  0  0  0  0  0  0  0  0  0  0
   12.4302  -15.7336   20.8016 O   0  0  0  0  0  0  0  0  0  0  0  0
   13.2878  -18.3934   15.2739 O   0  0  0  0  0  0  0  0  0  0  0  0
   10.8321  -17.2064   21.5835 N   0  0  0  0  0  0  0  0  0  0  0  0
   10.3099  -16.2787   22.5585 C   0  0  1  0  0  0  0  0  0  0  0  0
    8.8076  -16.2278   22.5303 C   0  0  0  0  0  0  0  0  0  0  0  0
    8.2738  -15.2915   21.5372 C   0  0  0  0  0  0  0  0  0  0  0  0
    9.0129  -14.4944   20.7032 C   0  0  0  0  0  0  0  0  0  0  0  0
    8.1574  -13.7881   19.9494 N   0  0  0  0  0  0  0  0  0  0  0  0
    6.8830  -14.1102   20.2771 C   0  0  0  0  0  0  0  0  0  0  0  0
    6.9868  -15.0405   21.2600 N   0  0  0  0  0  0  0  0  0  0  0  0
   10.7150  -16.7708   23.9198 C   0  0  0  0  0  0  0  0  0  0  0  0
   11.5104  -17.7387   23.9953 O   0  0  0  0  0  0  0  0  0  0  0  0
    9.6070  -13.8460   29.3778 N   0  0  0  0  0  0  0  0  0  0  0  0
   10.0912  -13.2474   28.1539 C   0  0  0  0  0  0  0  0  0  0  0  0
    9.9920  -12.0140   27.9683 O   0  0  0  0  0  0  0  0  0  0  0  0
   10.6892  -14.1742   27.1732 C   0  0  0  0  0  0  0  0  0  0  0  0
   10.2560  -15.5768   27.4660 C   0  0  0  0  0  0  0  0  0  0  0  0
   10.5566  -16.5951   26.4308 C   0  0  2  0  0  0  0  0  0  0  0  0
   10.2061  -16.1492   25.0969 N   0  0  0  0  0  0  0  0  0  0  0  0
    9.9550  -17.9449   26.7211 C   0  0  0  0  0  0  0  0  0  0  0  0
   10.3027  -18.5887   27.7422 O   0  0  0  0  0  0  0  0  0  0  0  0
    9.0121  -18.5364   25.9005 O   0  0  0  0  0  0  0  0  0  0  0  0
  2  1  1  6
  2  3  1  0
  2  7  1  0
  3  4  1  0
  4  5  1  0
  5  6  2  0
  7  8  2  0
  9  5  1  0
 10  7  1  0
 10 11  1  0
 11 12  1  1
 13 12  1  0
 14 13  2  0
 15 14  1  0
 16 15  1  0
 16 17  2  0
 17 13  1  0
 18 26  1  0
 18 11  1  0
 19 18  2  0
 20 21  1  0
 21 22  2  0
 23 24  1  0
 23 21  1  0
 25 24  1  1
 25 27  1  0
 25 26  1  0
 27 29  1  0
 28 27  2  0
M  END
$$$$
