EHQ.pdb
     RDKit          3D

 29 29  0  0  1  0  0  0  0  0999 V2000
   11.9043  -16.2768   18.2527 N   0  0  0  0  0  0  0  0  0  0  0  0
   12.6636  -16.2659   19.4710 C   0  0  1  0  0  0  0  0  0  0  0  0
   14.0208  -15.6693   19.2258 C   0  0  0  0  0  0  0  0  0  0  0  0
   13.9919  -14.7297   18.0661 C   0  0  0  0  0  0  0  0  0  0  0  0
   15.3213  -14.1311   17.7945 C   0  0  0  0  0  0  0  0  0  0  0  0
   15.5687  -12.9206   18.0284 O   0  0  0  0  0  0  0  0  0  0  0  0
   11.9569  -15.5381   20.5643 C   0  0  0  0  0  0  0  0  0  0  0  0
   12.5419  -14.6536   21.2154 O   0  0  0  0  0  0  0  0  0  0  0  0
   16.3589  -14.8831   17.2669 O   0  0  0  0  0  0  0  0  0  0  0  0
   10.5931  -15.8474   20.8812 N   0  0  0  0  0  0  0  0  0  0  0  0
    9.8567  -15.1166   21.8848 C   0  0  1  0  0  0  0  0  0  0  0  0
    8.3947  -15.0251   21.5467 C   0  0  0  0  0  0  0  0  0  0  0  0
    8.1253  -14.2676   20.3214 C   0  0  0  0  0  0  0  0  0  0  0  0
    7.9421  -12.9125   20.2363 C   0  0  0  0  0  0  0  0  0  0  0  0
    7.7215  -12.6103   18.9483 N   0  0  0  0  0  0  0  0  0  0  0  0
    7.7578  -13.7386   18.1994 C   0  0  0  0  0  0  0  0  0  0  0  0
    8.0088  -14.7453   19.0745 N   0  0  0  0  0  0  0  0  0  0  0  0
    9.9699  -15.8756   23.1774 C   0  0  0  0  0  0  0  0  0  0  0  0
   10.1476  -17.1171   23.1300 O   0  0  0  0  0  0  0  0  0  0  0  0
   10.4354  -13.1120   28.7121 N   0  0  0  0  0  0  0  0  0  0  0  0
   10.5680  -14.4697   29.1911 C   0  0  0  0  0  0  0  0  0  0  0  0
   10.8554  -14.6952   30.3878 O   0  0  0  0  0  0  0  0  0  0  0  0
   10.3475  -15.5327   28.1911 C   0  0  0  0  0  0  0  0  0  0  0  0
   10.2260  -14.9318   26.8254 C   0  0  0  0  0  0  0  0  0  0  0  0
   10.0322  -15.8761   25.6987 C   0  0  2  0  0  0  0  0  0  0  0  0
    9.8780  -15.1973   24.4273 N   0  0  0  0  0  0  0  0  0  0  0  0
    8.9128  -16.8586   25.9220 C   0  0  0  0  0  0  0  0  0  0  0  0
    7.7845  -16.6638   25.4051 O   0  0  0  0  0  0  0  0  0  0  0  0
    9.0599  -17.9993   26.6898 O   0  0  0  0  0  0  0  0  0  0  0  0
  2  1  1  6
  2  3  1  0
  2  7  1  0
  3  4  1  0
  4  5  1  0
  5  6  2  0
  7  8  2  0
  9  5  1  0
 10  7  1  0
 10 11  1  0
 11 12  1  6
 13 12  1  0
 14 13  2  0
 15 14  1  0
 16 15  1  0
 16 17  2  0
 17 13  1  0
 18 26  1  0
 18 11  1  0
 19 18  2  0
 20 21  1  0
 21 22  2  0
 23 24  1  0
 23 21  1  0
 25 24  1  1
 25 27  1  0
 25 26  1  0
 27 29  1  0
 28 27  2  0
M  END
$$$$
