NTW.pdb
     RDKit          3D

 30 31  0  0  1  0  0  0  0  0999 V2000
    9.2354  -13.0135   16.3117 N   0  0  0  0  0  0  0  0  0  0  0  0
    8.0753  -13.8159   16.1881 C   0  0  0  0  0  0  0  0  0  0  0  0
    7.4413  -13.8068   15.1152 O   0  0  0  0  0  0  0  0  0  0  0  0
    7.6446  -14.6341   17.3105 C   0  0  0  0  0  0  0  0  0  0  0  0
    8.4870  -14.6205   18.5304 C   0  0  2  0  0  0  0  0  0  0  0  0
    9.8468  -15.0071   18.1338 N   0  0  0  0  0  0  0  0  0  0  0  0
    8.0123  -15.3953   19.6765 C   0  0  0  0  0  0  0  0  0  0  0  0
    6.9443  -16.0569   19.7081 O   0  0  0  0  0  0  0  0  0  0  0  0
    7.3991  -17.9586   20.3645 C   0  0  0  0  0  0  0  0  0  0  0  0
    8.3570  -17.7542   21.4914 C   0  0  1  0  0  0  0  0  0  0  0  0
    9.6230  -18.1905   21.0649 O   0  0  0  0  0  0  0  0  0  0  0  0
    8.4192  -16.3444   21.9974 C   0  0  2  0  0  0  0  0  0  0  0  0
    8.7524  -15.4728   20.9170 N   0  0  0  0  0  0  0  0  0  0  0  0
    9.3280  -16.2515   23.1565 C   0  0  0  0  0  0  0  0  0  0  0  0
   10.5318  -15.9625   22.9281 O   0  0  0  0  0  0  0  0  0  0  0  0
    8.9643  -16.4596   24.5038 N   0  0  0  0  0  0  0  0  0  0  0  0
    9.9193  -16.3071   25.6113 C   0  0  1  0  0  0  0  0  0  0  0  0
    9.5830  -15.1521   26.4616 C   0  0  0  0  0  0  0  0  0  0  0  0
    8.1775  -14.7483   26.3329 C   0  0  0  0  0  0  0  0  0  0  0  0
    7.0808  -15.6089   26.1464 C   0  0  0  0  0  0  0  0  0  0  0  0
    5.9531  -14.8891   26.0241 N   0  0  0  0  0  0  0  0  0  0  0  0
    6.2333  -13.5818   26.1197 C   0  0  0  0  0  0  0  0  0  0  0  0
    5.4091  -12.4678   26.0758 C   0  0  0  0  0  0  0  0  0  0  0  0
    5.9328  -11.2065   26.2246 C   0  0  0  0  0  0  0  0  0  0  0  0
    7.2933  -11.1177   26.4154 C   0  0  0  0  0  0  0  0  0  0  0  0
    8.1211  -12.2136   26.4605 C   0  0  0  0  0  0  0  0  0  0  0  0
    7.5979  -13.4873   26.3100 C   0  0  0  0  0  0  0  0  0  0  0  0
   10.0119  -17.5842   26.3069 C   0  0  0  0  0  0  0  0  0  0  0  0
    9.2687  -18.5731   26.0992 O   0  0  0  0  0  0  0  0  0  0  0  0
   10.9905  -17.7906   27.3012 O   0  0  0  0  0  0  0  0  0  0  0  0
  1  2  1  0
  2  3  2  0
  4  5  1  0
  4  2  1  0
  5  7  1  0
  5  6  1  6
  7  8  2  0
 10  9  1  6
 10 11  1  0
 10 12  1  0
 12 13  1  6
 13  7  1  0
 14 15  2  0
 14 12  1  0
 16 14  1  0
 17 16  1  0
 17 28  1  0
 17 18  1  1
 19 27  1  0
 19 18  1  0
 20 19  2  0
 21 20  1  0
 21 22  1  0
 22 27  2  0
 23 22  1  0
 23 24  2  0
 24 25  1  0
 25 26  2  0
 27 26  1  0
 28 29  2  0
 28 30  1  0
M  END
$$$$
