NTW.pdb
     RDKit          3D

 30 31  0  0  1  0  0  0  0  0999 V2000
    6.5833  -13.8445   16.8705 N   0  0  0  0  0  0  0  0  0  0  0  0
    7.9419  -13.5956   17.1827 C   0  0  0  0  0  0  0  0  0  0  0  0
    8.8097  -13.7755   16.3067 O   0  0  0  0  0  0  0  0  0  0  0  0
    8.3004  -13.1360   18.5149 C   0  0  0  0  0  0  0  0  0  0  0  0
    9.3009  -13.9305   19.2669 C   0  0  2  0  0  0  0  0  0  0  0  0
   10.0602  -14.7233   18.2918 N   0  0  0  0  0  0  0  0  0  0  0  0
    8.8059  -14.7525   20.3708 C   0  0  0  0  0  0  0  0  0  0  0  0
    7.9856  -14.3713   21.2432 O   0  0  0  0  0  0  0  0  0  0  0  0
    8.5019  -19.3262   22.3556 C   0  0  0  0  0  0  0  0  0  0  0  0
    8.9071  -18.3758   21.2778 C   0  0  1  0  0  0  0  0  0  0  0  0
    8.0955  -18.6236   20.1576 O   0  0  0  0  0  0  0  0  0  0  0  0
    8.8437  -16.9317   21.6756 C   0  0  2  0  0  0  0  0  0  0  0  0
    9.2291  -16.1221   20.5647 N   0  0  0  0  0  0  0  0  0  0  0  0
    9.6324  -16.6985   22.9010 C   0  0  0  0  0  0  0  0  0  0  0  0
   10.8619  -16.4658   22.7640 O   0  0  0  0  0  0  0  0  0  0  0  0
    9.1269  -16.7141   24.2182 N   0  0  0  0  0  0  0  0  0  0  0  0
    9.9635  -16.4079   25.3879 C   0  0  1  0  0  0  0  0  0  0  0  0
    9.7875  -15.0136   25.8298 C   0  0  0  0  0  0  0  0  0  0  0  0
    8.3746  -14.6448   25.9806 C   0  0  0  0  0  0  0  0  0  0  0  0
    7.2764  -15.5206   25.9096 C   0  0  0  0  0  0  0  0  0  0  0  0
    6.1329  -14.8289   26.0471 N   0  0  0  0  0  0  0  0  0  0  0  0
    6.4041  -13.5261   26.2086 C   0  0  0  0  0  0  0  0  0  0  0  0
    5.5668  -12.4389   26.4058 C   0  0  0  0  0  0  0  0  0  0  0  0
    6.0876  -11.1788   26.5737 C   0  0  0  0  0  0  0  0  0  0  0  0
    7.4589  -11.0637   26.5352 C   0  0  0  0  0  0  0  0  0  0  0  0
    8.2998  -12.1329   26.3401 C   0  0  0  0  0  0  0  0  0  0  0  0
    7.7793  -13.4052   26.1694 C   0  0  0  0  0  0  0  0  0  0  0  0
    9.7053  -17.4189   26.4050 C   0  0  0  0  0  0  0  0  0  0  0  0
   10.3001  -17.5011   27.5063 O   0  0  0  0  0  0  0  0  0  0  0  0
    8.7237  -18.4103   26.1985 O   0  0  0  0  0  0  0  0  0  0  0  0
  1  2  1  0
  2  3  2  0
  4  5  1  0
  4  2  1  0
  5  7  1  0
  5  6  1  6
  7  8  2  0
 10  9  1  1
 10 11  1  0
 10 12  1  0
 12 13  1  6
 13  7  1  0
 14 15  2  0
 14 12  1  0
 16 14  1  0
 17 16  1  0
 17 28  1  0
 17 18  1  1
 19 27  1  0
 19 18  1  0
 20 19  2  0
 21 20  1  0
 21 22  1  0
 22 27  2  0
 23 22  1  0
 23 24  2  0
 24 25  1  0
 25 26  2  0
 27 26  1  0
 28 29  2  0
 28 30  1  0
M  END
$$$$
