NTW.pdb
     RDKit          3D

 30 31  0  0  1  0  0  0  0  0999 V2000
    7.2076  -13.0243   17.0725 N   0  0  0  0  0  0  0  0  0  0  0  0
    8.4141  -13.7635   17.1291 C   0  0  0  0  0  0  0  0  0  0  0  0
    9.1834  -13.7473   16.1489 O   0  0  0  0  0  0  0  0  0  0  0  0
    8.7340  -14.5262   18.3252 C   0  0  0  0  0  0  0  0  0  0  0  0
    8.8905  -15.9932   18.1801 C   0  0  2  0  0  0  0  0  0  0  0  0
    7.6384  -16.5189   17.6215 N   0  0  0  0  0  0  0  0  0  0  0  0
    9.3141  -16.7386   19.3651 C   0  0  0  0  0  0  0  0  0  0  0  0
    8.5800  -17.5086   20.0342 O   0  0  0  0  0  0  0  0  0  0  0  0
   13.0662  -18.0730   22.3798 C   0  0  0  0  0  0  0  0  0  0  0  0
   12.5332  -17.4650   21.1247 C   0  0  1  0  0  0  0  0  0  0  0  0
   12.8581  -18.3219   20.0592 O   0  0  0  0  0  0  0  0  0  0  0  0
   11.0610  -17.1832   21.1549 C   0  0  2  0  0  0  0  0  0  0  0  0
   10.6589  -16.6544   19.8914 N   0  0  0  0  0  0  0  0  0  0  0  0
   10.7227  -16.3270   22.3084 C   0  0  0  0  0  0  0  0  0  0  0  0
   10.5695  -15.0963   22.0920 O   0  0  0  0  0  0  0  0  0  0  0  0
   10.5557  -16.7687   23.6379 N   0  0  0  0  0  0  0  0  0  0  0  0
    9.6981  -16.0633   24.6017 C   0  0  1  0  0  0  0  0  0  0  0  0
    8.3198  -15.9248   24.1004 C   0  0  0  0  0  0  0  0  0  0  0  0
    7.4214  -15.3097   25.0852 C   0  0  0  0  0  0  0  0  0  0  0  0
    6.4318  -15.9725   25.8331 C   0  0  0  0  0  0  0  0  0  0  0  0
    5.7719  -15.0883   26.5995 N   0  0  0  0  0  0  0  0  0  0  0  0
    6.2678  -13.8579   26.4071 C   0  0  0  0  0  0  0  0  0  0  0  0
    5.9317  -12.6405   26.9790 C   0  0  0  0  0  0  0  0  0  0  0  0
    6.6112  -11.4971   26.6351 C   0  0  0  0  0  0  0  0  0  0  0  0
    7.6221  -11.6302   25.7102 C   0  0  0  0  0  0  0  0  0  0  0  0
    7.9648  -12.8305   25.1356 C   0  0  0  0  0  0  0  0  0  0  0  0
    7.2819  -13.9859   25.4785 C   0  0  0  0  0  0  0  0  0  0  0  0
    9.8257  -16.7290   25.8916 C   0  0  0  0  0  0  0  0  0  0  0  0
    9.9021  -17.9699   26.0573 O   0  0  0  0  0  0  0  0  0  0  0  0
    9.8734  -15.9786   27.0848 O   0  0  0  0  0  0  0  0  0  0  0  0
  1  2  1  0
  2  3  2  0
  4  5  1  0
  4  2  1  0
  5  7  1  0
  5  6  1  1
  7  8  2  0
 10  9  1  1
 10 11  1  0
 10 12  1  0
 12 13  1  6
 13  7  1  0
 14 15  2  0
 14 12  1  0
 16 14  1  0
 17 16  1  0
 17 28  1  0
 17 18  1  6
 19 27  1  0
 19 18  1  0
 20 19  2  0
 21 20  1  0
 21 22  1  0
 22 27  2  0
 23 22  1  0
 23 24  2  0
 24 25  1  0
 25 26  2  0
 27 26  1  0
 28 29  2  0
 28 30  1  0
M  END
$$$$
