NTW.pdb
     RDKit          3D

 30 31  0  0  1  0  0  0  0  0999 V2000
    8.5499  -16.4285   13.7396 N   0  0  0  0  0  0  0  0  0  0  0  0
    9.3129  -15.9766   14.8435 C   0  0  0  0  0  0  0  0  0  0  0  0
   10.5204  -15.7145   14.6814 O   0  0  0  0  0  0  0  0  0  0  0  0
    8.6775  -15.8265   16.1429 C   0  0  0  0  0  0  0  0  0  0  0  0
    9.3567  -16.4354   17.3115 C   0  0  2  0  0  0  0  0  0  0  0  0
    9.6729  -17.8266   16.9644 N   0  0  0  0  0  0  0  0  0  0  0  0
    8.6775  -16.3366   18.6031 C   0  0  0  0  0  0  0  0  0  0  0  0
    7.9051  -15.4053   18.9431 O   0  0  0  0  0  0  0  0  0  0  0  0
    6.3851  -18.8124   20.2633 C   0  0  0  0  0  0  0  0  0  0  0  0
    7.5010  -18.5270   21.2132 C   0  0  1  0  0  0  0  0  0  0  0  0
    8.3761  -19.6265   21.1924 O   0  0  0  0  0  0  0  0  0  0  0  0
    8.2373  -17.2518   20.9315 C   0  0  2  0  0  0  0  0  0  0  0  0
    8.8383  -17.3332   19.6392 N   0  0  0  0  0  0  0  0  0  0  0  0
    9.1821  -16.9489   22.0240 C   0  0  0  0  0  0  0  0  0  0  0  0
   10.3949  -17.2292   21.8363 O   0  0  0  0  0  0  0  0  0  0  0  0
    8.8436  -16.3707   23.2657 N   0  0  0  0  0  0  0  0  0  0  0  0
    9.8359  -16.1429   24.3265 C   0  0  1  0  0  0  0  0  0  0  0  0
    9.6875  -14.8070   24.9293 C   0  0  0  0  0  0  0  0  0  0  0  0
    8.3176  -14.5450   25.3877 C   0  0  0  0  0  0  0  0  0  0  0  0
    7.2896  -15.4961   25.5163 C   0  0  0  0  0  0  0  0  0  0  0  0
    6.1584  -14.8924   25.9171 N   0  0  0  0  0  0  0  0  0  0  0  0
    6.3712  -13.5774   26.0669 C   0  0  0  0  0  0  0  0  0  0  0  0
    5.5250  -12.5585   26.4766 C   0  0  0  0  0  0  0  0  0  0  0  0
    5.9854  -11.2682   26.5786 C   0  0  0  0  0  0  0  0  0  0  0  0
    7.3065  -11.0532   26.2569 C   0  0  0  0  0  0  0  0  0  0  0  0
    8.1555  -12.0540   25.8493 C   0  0  0  0  0  0  0  0  0  0  0  0
    7.6956  -13.3564   25.7440 C   0  0  0  0  0  0  0  0  0  0  0  0
    9.7613  -17.2579   25.2617 C   0  0  0  0  0  0  0  0  0  0  0  0
   10.5284  -17.4310   26.2389 O   0  0  0  0  0  0  0  0  0  0  0  0
    8.7737  -18.2538   25.1137 O   0  0  0  0  0  0  0  0  0  0  0  0
  1  2  1  0
  2  3  2  0
  4  5  1  0
  4  2  1  0
  5  7  1  0
  5  6  1  6
  7  8  2  0
 10  9  1  6
 10 11  1  0
 10 12  1  0
 12 13  1  6
 13  7  1  0
 14 15  2  0
 14 12  1  0
 16 14  1  0
 17 16  1  0
 17 28  1  0
 17 18  1  1
 19 27  1  0
 19 18  1  0
 20 19  2  0
 21 20  1  0
 21 22  1  0
 22 27  2  0
 23 22  1  0
 23 24  2  0
 24 25  1  0
 25 26  2  0
 27 26  1  0
 28 29  2  0
 28 30  1  0
M  END
$$$$
