NTW.pdb
     RDKit          3D

 30 31  0  0  1  0  0  0  0  0999 V2000
   14.0534  -15.9945   16.9707 N   0  0  0  0  0  0  0  0  0  0  0  0
   14.4137  -15.0711   17.9820 C   0  0  0  0  0  0  0  0  0  0  0  0
   15.6166  -14.7925   18.1502 O   0  0  0  0  0  0  0  0  0  0  0  0
   13.3782  -14.4656   18.8041 C   0  0  0  0  0  0  0  0  0  0  0  0
   11.9818  -14.9129   18.5854 C   0  0  2  0  0  0  0  0  0  0  0  0
   11.5649  -14.4320   17.2622 N   0  0  0  0  0  0  0  0  0  0  0  0
   11.0046  -14.5765   19.6204 C   0  0  0  0  0  0  0  0  0  0  0  0
   10.6087  -13.4144   19.8891 O   0  0  0  0  0  0  0  0  0  0  0  0
    7.5390  -15.1046   19.9088 C   0  0  0  0  0  0  0  0  0  0  0  0
    8.1018  -15.7781   21.1166 C   0  0  1  0  0  0  0  0  0  0  0  0
    8.1089  -17.1623   20.8738 O   0  0  0  0  0  0  0  0  0  0  0  0
    9.4662  -15.2967   21.5093 C   0  0  2  0  0  0  0  0  0  0  0  0
   10.3856  -15.5828   20.4553 N   0  0  0  0  0  0  0  0  0  0  0  0
    9.8522  -15.8525   22.8208 C   0  0  0  0  0  0  0  0  0  0  0  0
   10.7296  -16.7551   22.8328 O   0  0  0  0  0  0  0  0  0  0  0  0
    9.3213  -15.4595   24.0675 N   0  0  0  0  0  0  0  0  0  0  0  0
    9.7791  -16.0403   25.3384 C   0  0  1  0  0  0  0  0  0  0  0  0
    9.5182  -15.1367   26.4722 C   0  0  0  0  0  0  0  0  0  0  0  0
    8.1402  -14.6306   26.4835 C   0  0  0  0  0  0  0  0  0  0  0  0
    6.9758  -15.3900   26.2701 C   0  0  0  0  0  0  0  0  0  0  0  0
    5.8974  -14.5896   26.3064 N   0  0  0  0  0  0  0  0  0  0  0  0
    6.2757  -13.3241   26.5351 C   0  0  0  0  0  0  0  0  0  0  0  0
    5.5323  -12.1622   26.6751 C   0  0  0  0  0  0  0  0  0  0  0  0
    6.1528  -10.9644   26.9353 C   0  0  0  0  0  0  0  0  0  0  0  0
    7.5247  -10.9871   27.0458 C   0  0  0  0  0  0  0  0  0  0  0  0
    8.2731  -12.1315   26.9087 C   0  0  0  0  0  0  0  0  0  0  0  0
    7.6521  -13.3414   26.6455 C   0  0  0  0  0  0  0  0  0  0  0  0
    9.2012  -17.3724   25.4603 C   0  0  0  0  0  0  0  0  0  0  0  0
    9.4985  -18.2082   26.3470 O   0  0  0  0  0  0  0  0  0  0  0  0
    8.2269  -17.8187   24.5434 O   0  0  0  0  0  0  0  0  0  0  0  0
  1  2  1  0
  2  3  2  0
  4  5  1  0
  4  2  1  0
  5  7  1  0
  5  6  1  6
  7  8  2  0
 10  9  1  6
 10 11  1  0
 10 12  1  0
 12 13  1  6
 13  7  1  0
 14 15  2  0
 14 12  1  0
 16 14  1  0
 17 16  1  0
 17 28  1  0
 17 18  1  1
 19 27  1  0
 19 18  1  0
 20 19  2  0
 21 20  1  0
 21 22  1  0
 22 27  2  0
 23 22  1  0
 23 24  2  0
 24 25  1  0
 25 26  2  0
 27 26  1  0
 28 29  2  0
 28 30  1  0
M  END
$$$$
