NTW.pdb
     RDKit          3D

 30 31  0  0  1  0  0  0  0  0999 V2000
    7.2864  -15.1174   14.8742 N   0  0  0  0  0  0  0  0  0  0  0  0
    8.2242  -15.6780   15.7750 C   0  0  0  0  0  0  0  0  0  0  0  0
    9.3419  -16.0278   15.3492 O   0  0  0  0  0  0  0  0  0  0  0  0
    7.8690  -15.8356   17.1763 C   0  0  0  0  0  0  0  0  0  0  0  0
    8.9386  -16.2625   18.1097 C   0  0  2  0  0  0  0  0  0  0  0  0
    9.7335  -17.2935   17.4305 N   0  0  0  0  0  0  0  0  0  0  0  0
    8.5257  -16.6858   19.4475 C   0  0  0  0  0  0  0  0  0  0  0  0
    7.5065  -16.2698   20.0538 O   0  0  0  0  0  0  0  0  0  0  0  0
    8.6319  -20.3976   20.7426 C   0  0  0  0  0  0  0  0  0  0  0  0
    9.2808  -19.4923   21.7368 C   0  0  1  0  0  0  0  0  0  0  0  0
   10.6685  -19.7044   21.6709 O   0  0  0  0  0  0  0  0  0  0  0  0
    8.9521  -18.0411   21.5533 C   0  0  2  0  0  0  0  0  0  0  0  0
    9.2769  -17.6520   20.2187 N   0  0  0  0  0  0  0  0  0  0  0  0
    9.6022  -17.2281   22.5994 C   0  0  0  0  0  0  0  0  0  0  0  0
   10.4144  -16.3424   22.2246 O   0  0  0  0  0  0  0  0  0  0  0  0
    9.3925  -17.3575   23.9886 N   0  0  0  0  0  0  0  0  0  0  0  0
   10.0209  -16.4591   24.9684 C   0  0  1  0  0  0  0  0  0  0  0  0
    9.6375  -15.0552   24.7400 C   0  0  0  0  0  0  0  0  0  0  0  0
    8.2874  -14.7531   25.2311 C   0  0  0  0  0  0  0  0  0  0  0  0
    7.2022  -15.6466   25.2773 C   0  0  0  0  0  0  0  0  0  0  0  0
    6.1115  -15.0143   25.7414 N   0  0  0  0  0  0  0  0  0  0  0  0
    6.4062  -13.7351   26.0127 C   0  0  0  0  0  0  0  0  0  0  0  0
    5.6259  -12.7088   26.5225 C   0  0  0  0  0  0  0  0  0  0  0  0
    6.1661  -11.4649   26.7419 C   0  0  0  0  0  0  0  0  0  0  0  0
    7.4977  -11.3029   26.4322 C   0  0  0  0  0  0  0  0  0  0  0  0
    8.2818  -12.3115   25.9259 C   0  0  0  0  0  0  0  0  0  0  0  0
    7.7413  -13.5671   25.7021 C   0  0  0  0  0  0  0  0  0  0  0  0
    9.7332  -16.9724   26.3015 C   0  0  0  0  0  0  0  0  0  0  0  0
   10.1290  -16.4552   27.3734 O   0  0  0  0  0  0  0  0  0  0  0  0
    8.9550  -18.1365   26.4697 O   0  0  0  0  0  0  0  0  0  0  0  0
  1  2  1  0
  2  3  2  0
  4  5  1  0
  4  2  1  0
  5  7  1  0
  5  6  1  6
  7  8  2  0
 10  9  1  6
 10 11  1  0
 10 12  1  0
 12 13  1  6
 13  7  1  0
 14 15  2  0
 14 12  1  0
 16 14  1  0
 17 16  1  0
 17 28  1  0
 17 18  1  1
 19 27  1  0
 19 18  1  0
 20 19  2  0
 21 20  1  0
 21 22  1  0
 22 27  2  0
 23 22  1  0
 23 24  2  0
 24 25  1  0
 25 26  2  0
 27 26  1  0
 28 29  2  0
 28 30  1  0
M  END
$$$$
