NTW.pdb
     RDKit          3D

 30 31  0  0  1  0  0  0  0  0999 V2000
   13.4886  -16.3525   15.9499 N   0  0  0  0  0  0  0  0  0  0  0  0
   12.7428  -17.1383   16.8616 C   0  0  0  0  0  0  0  0  0  0  0  0
   12.9642  -18.3627   16.9315 O   0  0  0  0  0  0  0  0  0  0  0  0
   11.7350  -16.5062   17.6980 C   0  0  0  0  0  0  0  0  0  0  0  0
   10.3204  -16.8874   17.4717 C   0  0  2  0  0  0  0  0  0  0  0  0
    9.8809  -16.2404   16.2290 N   0  0  0  0  0  0  0  0  0  0  0  0
    9.3831  -16.6524   18.5697 C   0  0  0  0  0  0  0  0  0  0  0  0
    8.2385  -16.1482   18.4463 O   0  0  0  0  0  0  0  0  0  0  0  0
    7.0364  -17.5961   19.2710 C   0  0  0  0  0  0  0  0  0  0  0  0
    7.5885  -17.8613   20.6325 C   0  0  1  0  0  0  0  0  0  0  0  0
    7.9418  -19.2200   20.6968 O   0  0  0  0  0  0  0  0  0  0  0  0
    8.7487  -16.9884   21.0064 C   0  0  2  0  0  0  0  0  0  0  0  0
    9.6985  -16.9894   19.9406 N   0  0  0  0  0  0  0  0  0  0  0  0
    9.3004  -17.3947   22.3134 C   0  0  0  0  0  0  0  0  0  0  0  0
   10.3053  -18.1530   22.3085 O   0  0  0  0  0  0  0  0  0  0  0  0
    8.7978  -17.0065   23.5734 N   0  0  0  0  0  0  0  0  0  0  0  0
    9.6665  -16.5067   24.6493 C   0  0  1  0  0  0  0  0  0  0  0  0
    9.5212  -15.0521   24.8313 C   0  0  0  0  0  0  0  0  0  0  0  0
    8.2235  -14.6839   25.4108 C   0  0  0  0  0  0  0  0  0  0  0  0
    7.1154  -15.5348   25.5716 C   0  0  0  0  0  0  0  0  0  0  0  0
    6.0853  -14.8473   26.0924 N   0  0  0  0  0  0  0  0  0  0  0  0
    6.4432  -13.5712   26.2930 C   0  0  0  0  0  0  0  0  0  0  0  0
    5.7394  -12.4999   26.8214 C   0  0  0  0  0  0  0  0  0  0  0  0
    6.3367  -11.2698   26.9532 C   0  0  0  0  0  0  0  0  0  0  0  0
    7.6454  -11.1676   26.5385 C   0  0  0  0  0  0  0  0  0  0  0  0
    8.3539  -12.2212   26.0127 C   0  0  0  0  0  0  0  0  0  0  0  0
    7.7556  -13.4631   25.8770 C   0  0  0  0  0  0  0  0  0  0  0  0
    9.4182  -17.3094   25.8398 C   0  0  0  0  0  0  0  0  0  0  0  0
    8.4960  -18.1508   25.9619 O   0  0  0  0  0  0  0  0  0  0  0  0
   10.2414  -17.1793   26.9776 O   0  0  0  0  0  0  0  0  0  0  0  0
  1  2  1  0
  2  3  2  0
  4  5  1  0
  4  2  1  0
  5  7  1  0
  5  6  1  6
  7  8  2  0
 10  9  1  6
 10 11  1  0
 10 12  1  0
 12 13  1  6
 13  7  1  0
 14 15  2  0
 14 12  1  0
 16 14  1  0
 17 16  1  0
 17 28  1  0
 17 18  1  1
 19 27  1  0
 19 18  1  0
 20 19  2  0
 21 20  1  0
 21 22  1  0
 22 27  2  0
 23 22  1  0
 23 24  2  0
 24 25  1  0
 25 26  2  0
 27 26  1  0
 28 29  2  0
 28 30  1  0
M  END
$$$$
