NTW.pdb
     RDKit          3D

 30 31  0  0  1  0  0  0  0  0999 V2000
    6.9392  -13.1374   18.6344 N   0  0  0  0  0  0  0  0  0  0  0  0
    8.0406  -13.2956   17.7585 C   0  0  0  0  0  0  0  0  0  0  0  0
    8.4296  -12.3194   17.0887 O   0  0  0  0  0  0  0  0  0  0  0  0
    8.6968  -14.5892   17.6556 C   0  0  0  0  0  0  0  0  0  0  0  0
    9.5920  -14.9929   18.7662 C   0  0  2  0  0  0  0  0  0  0  0  0
   10.5610  -15.9550   18.2265 N   0  0  0  0  0  0  0  0  0  0  0  0
    8.9571  -15.4859   19.9882 C   0  0  0  0  0  0  0  0  0  0  0  0
    7.9849  -14.9395   20.5676 O   0  0  0  0  0  0  0  0  0  0  0  0
    8.0433  -19.3100   20.7149 C   0  0  0  0  0  0  0  0  0  0  0  0
    8.8576  -18.7037   21.8096 C   0  0  1  0  0  0  0  0  0  0  0  0
   10.1786  -19.1619   21.6682 O   0  0  0  0  0  0  0  0  0  0  0  0
    8.8125  -17.2058   21.8521 C   0  0  2  0  0  0  0  0  0  0  0  0
    9.4048  -16.6850   20.6622 N   0  0  0  0  0  0  0  0  0  0  0  0
    9.4178  -16.7062   23.1019 C   0  0  0  0  0  0  0  0  0  0  0  0
   10.4586  -16.0050   23.0025 O   0  0  0  0  0  0  0  0  0  0  0  0
    8.9304  -16.9471   24.4039 N   0  0  0  0  0  0  0  0  0  0  0  0
    9.6165  -16.4534   25.6070 C   0  0  1  0  0  0  0  0  0  0  0  0
    8.6678  -16.1939   26.7037 C   0  0  0  0  0  0  0  0  0  0  0  0
    7.5832  -15.2874   26.3074 C   0  0  0  0  0  0  0  0  0  0  0  0
    6.3281  -15.6675   25.7995 C   0  0  0  0  0  0  0  0  0  0  0  0
    5.6071  -14.5737   25.5019 N   0  0  0  0  0  0  0  0  0  0  0  0
    6.3138  -13.4703   25.7848 C   0  0  0  0  0  0  0  0  0  0  0  0
    5.9909  -12.1270   25.6691 C   0  0  0  0  0  0  0  0  0  0  0  0
    6.8866  -11.1588   26.0530 C   0  0  0  0  0  0  0  0  0  0  0  0
    8.0957  -11.5928   26.5478 C   0  0  0  0  0  0  0  0  0  0  0  0
    8.4283  -12.9208   26.6672 C   0  0  0  0  0  0  0  0  0  0  0  0
    7.5288  -13.9006   26.2805 C   0  0  0  0  0  0  0  0  0  0  0  0
   10.6944  -17.3811   25.9249 C   0  0  0  0  0  0  0  0  0  0  0  0
   10.8598  -18.5036   25.3903 O   0  0  0  0  0  0  0  0  0  0  0  0
   11.6600  -17.0526   26.8989 O   0  0  0  0  0  0  0  0  0  0  0  0
  1  2  1  0
  2  3  2  0
  4  5  1  0
  4  2  1  0
  5  7  1  0
  5  6  1  6
  7  8  2  0
 10  9  1  6
 10 11  1  0
 10 12  1  0
 12 13  1  6
 13  7  1  0
 14 15  2  0
 14 12  1  0
 16 14  1  0
 17 16  1  0
 17 28  1  0
 17 18  1  1
 19 27  1  0
 19 18  1  0
 20 19  2  0
 21 20  1  0
 21 22  1  0
 22 27  2  0
 23 22  1  0
 23 24  2  0
 24 25  1  0
 25 26  2  0
 27 26  1  0
 28 29  2  0
 28 30  1  0
M  END
$$$$
