NTW.pdb
     RDKit          3D

 30 31  0  0  1  0  0  0  0  0999 V2000
   13.5458  -17.7486   17.0142 N   0  0  0  0  0  0  0  0  0  0  0  0
   12.5588  -17.1207   16.2163 C   0  0  0  0  0  0  0  0  0  0  0  0
   12.7336  -17.0397   14.9851 O   0  0  0  0  0  0  0  0  0  0  0  0
   11.3624  -16.5831   16.8442 C   0  0  0  0  0  0  0  0  0  0  0  0
   10.4178  -17.5483   17.4559 C   0  0  2  0  0  0  0  0  0  0  0  0
    9.6858  -18.2036   16.3647 N   0  0  0  0  0  0  0  0  0  0  0  0
    9.5157  -17.0355   18.4867 C   0  0  0  0  0  0  0  0  0  0  0  0
    8.3562  -16.5978   18.2785 O   0  0  0  0  0  0  0  0  0  0  0  0
    7.0688  -17.4269   19.4648 C   0  0  0  0  0  0  0  0  0  0  0  0
    7.7627  -17.5994   20.7755 C   0  0  1  0  0  0  0  0  0  0  0  0
    8.0963  -18.9578   20.9106 O   0  0  0  0  0  0  0  0  0  0  0  0
    8.9726  -16.7314   20.9496 C   0  0  2  0  0  0  0  0  0  0  0  0
    9.8880  -16.9839   19.8836 N   0  0  0  0  0  0  0  0  0  0  0  0
    9.5453  -16.9082   22.2981 C   0  0  0  0  0  0  0  0  0  0  0  0
   10.5000  -17.7196   22.4211 O   0  0  0  0  0  0  0  0  0  0  0  0
    9.1145  -16.2452   23.4667 N   0  0  0  0  0  0  0  0  0  0  0  0
    9.9172  -16.2152   24.6982 C   0  0  1  0  0  0  0  0  0  0  0  0
    9.7609  -14.9382   25.4158 C   0  0  0  0  0  0  0  0  0  0  0  0
    8.3588  -14.6359   25.7285 C   0  0  0  0  0  0  0  0  0  0  0  0
    7.2910  -15.5511   25.7201 C   0  0  0  0  0  0  0  0  0  0  0  0
    6.1438  -14.9149   26.0102 N   0  0  0  0  0  0  0  0  0  0  0  0
    6.3837  -13.6122   26.2156 C   0  0  0  0  0  0  0  0  0  0  0  0
    5.5330  -12.5718   26.5561 C   0  0  0  0  0  0  0  0  0  0  0  0
    6.0232  -11.3017   26.7402 C   0  0  0  0  0  0  0  0  0  0  0  0
    7.3783  -11.1287   26.5702 C   0  0  0  0  0  0  0  0  0  0  0  0
    8.2322  -12.1510   26.2324 C   0  0  0  0  0  0  0  0  0  0  0  0
    7.7423  -13.4331   26.0447 C   0  0  0  0  0  0  0  0  0  0  0  0
    9.5984  -17.4067   25.4742 C   0  0  0  0  0  0  0  0  0  0  0  0
    8.6156  -18.1584   25.2689 O   0  0  0  0  0  0  0  0  0  0  0  0
   10.4175  -17.8013   26.5524 O   0  0  0  0  0  0  0  0  0  0  0  0
  1  2  1  0
  2  3  2  0
  4  5  1  0
  4  2  1  0
  5  7  1  0
  5  6  1  6
  7  8  2  0
 10  9  1  6
 10 11  1  0
 10 12  1  0
 12 13  1  6
 13  7  1  0
 14 15  2  0
 14 12  1  0
 16 14  1  0
 17 16  1  0
 17 28  1  0
 17 18  1  1
 19 27  1  0
 19 18  1  0
 20 19  2  0
 21 20  1  0
 21 22  1  0
 22 27  2  0
 23 22  1  0
 23 24  2  0
 24 25  1  0
 25 26  2  0
 27 26  1  0
 28 29  2  0
 28 30  1  0
M  END
$$$$
