NTW.pdb
     RDKit          3D

 30 31  0  0  1  0  0  0  0  0999 V2000
    7.5073  -15.5409   15.4742 N   0  0  0  0  0  0  0  0  0  0  0  0
    7.9883  -14.8990   16.6412 C   0  0  0  0  0  0  0  0  0  0  0  0
    8.7388  -13.9108   16.5259 O   0  0  0  0  0  0  0  0  0  0  0  0
    7.6000  -15.4014   17.9494 C   0  0  0  0  0  0  0  0  0  0  0  0
    8.6522  -15.4847   18.9905 C   0  0  2  0  0  0  0  0  0  0  0  0
    9.7827  -16.2272   18.4190 N   0  0  0  0  0  0  0  0  0  0  0  0
    8.2574  -16.0127   20.2961 C   0  0  0  0  0  0  0  0  0  0  0  0
    7.2052  -15.7055   20.9108 O   0  0  0  0  0  0  0  0  0  0  0  0
    8.0224  -19.7102   21.1610 C   0  0  0  0  0  0  0  0  0  0  0  0
    8.8796  -19.0411   22.1841 C   0  0  1  0  0  0  0  0  0  0  0  0
   10.2180  -19.3636   21.9021 O   0  0  0  0  0  0  0  0  0  0  0  0
    8.6930  -17.5558   22.2664 C   0  0  2  0  0  0  0  0  0  0  0  0
    9.0678  -16.9666   21.0213 N   0  0  0  0  0  0  0  0  0  0  0  0
    9.4065  -17.0098   23.4372 C   0  0  0  0  0  0  0  0  0  0  0  0
   10.4755  -16.3804   23.2233 O   0  0  0  0  0  0  0  0  0  0  0  0
    8.9939  -17.1326   24.7809 N   0  0  0  0  0  0  0  0  0  0  0  0
    9.7538  -16.5484   25.8959 C   0  0  1  0  0  0  0  0  0  0  0  0
    8.8609  -15.9988   26.9308 C   0  0  0  0  0  0  0  0  0  0  0  0
    7.7593  -15.2113   26.3639 C   0  0  0  0  0  0  0  0  0  0  0  0
    6.5626  -15.7227   25.8306 C   0  0  0  0  0  0  0  0  0  0  0  0
    5.8069  -14.7163   25.3608 N   0  0  0  0  0  0  0  0  0  0  0  0
    6.4342  -13.5471   25.5512 C   0  0  0  0  0  0  0  0  0  0  0  0
    6.0498  -12.2482   25.2557 C   0  0  0  0  0  0  0  0  0  0  0  0
    6.8659  -11.1898   25.5737 C   0  0  0  0  0  0  0  0  0  0  0  0
    8.0602  -11.4899   26.1891 C   0  0  0  0  0  0  0  0  0  0  0  0
    8.4532  -12.7725   26.4870 C   0  0  0  0  0  0  0  0  0  0  0  0
    7.6342  -13.8430   26.1674 C   0  0  0  0  0  0  0  0  0  0  0  0
   10.7072  -17.5459   26.3643 C   0  0  0  0  0  0  0  0  0  0  0  0
   11.5628  -17.3587   27.2622 O   0  0  0  0  0  0  0  0  0  0  0  0
   10.7221  -18.8415   25.8074 O   0  0  0  0  0  0  0  0  0  0  0  0
  1  2  1  0
  2  3  2  0
  4  5  1  0
  4  2  1  0
  5  7  1  0
  5  6  1  6
  7  8  2  0
 10  9  1  6
 10 11  1  0
 10 12  1  0
 12 13  1  6
 13  7  1  0
 14 15  2  0
 14 12  1  0
 16 14  1  0
 17 16  1  0
 17 28  1  0
 17 18  1  1
 19 27  1  0
 19 18  1  0
 20 19  2  0
 21 20  1  0
 21 22  1  0
 22 27  2  0
 23 22  1  0
 23 24  2  0
 24 25  1  0
 25 26  2  0
 27 26  1  0
 28 29  2  0
 28 30  1  0
M  END
$$$$
