NTW.pdb
     RDKit          3D

 30 31  0  0  1  0  0  0  0  0999 V2000
    9.1493  -14.0303   15.1894 N   0  0  0  0  0  0  0  0  0  0  0  0
    7.8855  -13.7159   15.7452 C   0  0  0  0  0  0  0  0  0  0  0  0
    7.0511  -13.1042   15.0506 O   0  0  0  0  0  0  0  0  0  0  0  0
    7.5834  -14.1105   17.1119 C   0  0  0  0  0  0  0  0  0  0  0  0
    8.6642  -14.7597   17.8917 C   0  0  2  0  0  0  0  0  0  0  0  0
    9.2154  -15.8429   17.0678 N   0  0  0  0  0  0  0  0  0  0  0  0
    8.3306  -15.2165   19.2405 C   0  0  0  0  0  0  0  0  0  0  0  0
    7.7983  -14.5079   20.1316 O   0  0  0  0  0  0  0  0  0  0  0  0
    7.2456  -19.1070   19.8313 C   0  0  0  0  0  0  0  0  0  0  0  0
    8.1509  -18.5772   20.8937 C   0  0  1  0  0  0  0  0  0  0  0  0
    9.4296  -19.1198   20.6799 O   0  0  0  0  0  0  0  0  0  0  0  0
    8.2093  -17.0807   20.9618 C   0  0  2  0  0  0  0  0  0  0  0  0
    8.5916  -16.5679   19.6855 N   0  0  0  0  0  0  0  0  0  0  0  0
    9.0753  -16.6479   22.0757 C   0  0  0  0  0  0  0  0  0  0  0  0
   10.1955  -16.1545   21.7815 O   0  0  0  0  0  0  0  0  0  0  0  0
    8.7565  -16.7394   23.4470 N   0  0  0  0  0  0  0  0  0  0  0  0
    9.6988  -16.3437   24.5041 C   0  0  1  0  0  0  0  0  0  0  0  0
    9.5377  -14.9260   24.8706 C   0  0  0  0  0  0  0  0  0  0  0  0
    8.2003  -14.6292   25.3983 C   0  0  0  0  0  0  0  0  0  0  0  0
    7.1095  -15.5159   25.4405 C   0  0  0  0  0  0  0  0  0  0  0  0
    6.0334  -14.8900   25.9457 N   0  0  0  0  0  0  0  0  0  0  0  0
    6.3435  -13.6216   26.2486 C   0  0  0  0  0  0  0  0  0  0  0  0
    5.5817  -12.6054   26.8047 C   0  0  0  0  0  0  0  0  0  0  0  0
    6.1359  -11.3725   27.0497 C   0  0  0  0  0  0  0  0  0  0  0  0
    7.4620  -11.2108   26.7173 C   0  0  0  0  0  0  0  0  0  0  0  0
    8.2278  -12.2093   26.1652 C   0  0  0  0  0  0  0  0  0  0  0  0
    7.6732  -13.4539   25.9155 C   0  0  0  0  0  0  0  0  0  0  0  0
    9.5651  -17.2888   25.6052 C   0  0  0  0  0  0  0  0  0  0  0  0
   10.2285  -17.2536   26.6692 O   0  0  0  0  0  0  0  0  0  0  0  0
    8.6364  -18.3477   25.5333 O   0  0  0  0  0  0  0  0  0  0  0  0
  1  2  1  0
  2  3  2  0
  4  5  1  0
  4  2  1  0
  5  7  1  0
  5  6  1  6
  7  8  2  0
 10  9  1  6
 10 11  1  0
 10 12  1  0
 12 13  1  6
 13  7  1  0
 14 15  2  0
 14 12  1  0
 16 14  1  0
 17 16  1  0
 17 28  1  0
 17 18  1  1
 19 27  1  0
 19 18  1  0
 20 19  2  0
 21 20  1  0
 21 22  1  0
 22 27  2  0
 23 22  1  0
 23 24  2  0
 24 25  1  0
 25 26  2  0
 27 26  1  0
 28 29  2  0
 28 30  1  0
M  END
$$$$
