NTW.pdb
     RDKit          3D

 30 31  0  0  1  0  0  0  0  0999 V2000
   13.0813  -16.4647   15.7072 N   0  0  0  0  0  0  0  0  0  0  0  0
   11.9535  -17.2595   16.0260 C   0  0  0  0  0  0  0  0  0  0  0  0
   11.8387  -18.3872   15.5083 O   0  0  0  0  0  0  0  0  0  0  0  0
   10.9522  -16.7487   16.9486 C   0  0  0  0  0  0  0  0  0  0  0  0
   10.9540  -17.2896   18.3289 C   0  0  2  0  0  0  0  0  0  0  0  0
   10.2615  -18.5840   18.2981 N   0  0  0  0  0  0  0  0  0  0  0  0
   10.4380  -16.4202   19.3859 C   0  0  0  0  0  0  0  0  0  0  0  0
   10.8233  -15.2444   19.6058 O   0  0  0  0  0  0  0  0  0  0  0  0
    6.7809  -15.5240   20.1660 C   0  0  0  0  0  0  0  0  0  0  0  0
    7.4142  -16.1042   21.3872 C   0  0  1  0  0  0  0  0  0  0  0  0
    6.9545  -17.4252   21.5245 O   0  0  0  0  0  0  0  0  0  0  0  0
    8.9127  -16.0567   21.3844 C   0  0  2  0  0  0  0  0  0  0  0  0
    9.4048  -16.8485   20.3033 N   0  0  0  0  0  0  0  0  0  0  0  0
    9.4438  -16.4367   22.7078 C   0  0  0  0  0  0  0  0  0  0  0  0
   10.1588  -17.4709   22.7707 O   0  0  0  0  0  0  0  0  0  0  0  0
    9.2191  -15.7397   23.9138 N   0  0  0  0  0  0  0  0  0  0  0  0
    9.7895  -16.1778   25.1963 C   0  0  1  0  0  0  0  0  0  0  0  0
    9.6569  -15.1382   26.2315 C   0  0  0  0  0  0  0  0  0  0  0  0
    8.2793  -14.6487   26.3649 C   0  0  0  0  0  0  0  0  0  0  0  0
    7.1123  -15.4324   26.3186 C   0  0  0  0  0  0  0  0  0  0  0  0
    6.0300  -14.6442   26.4291 N   0  0  0  0  0  0  0  0  0  0  0  0
    6.4082  -13.3638   26.5489 C   0  0  0  0  0  0  0  0  0  0  0  0
    5.6637  -12.2050   26.7072 C   0  0  0  0  0  0  0  0  0  0  0  0
    6.2871  -10.9875   26.8357 C   0  0  0  0  0  0  0  0  0  0  0  0
    7.6632  -10.9878   26.7985 C   0  0  0  0  0  0  0  0  0  0  0  0
    8.4127  -12.1288   26.6417 C   0  0  0  0  0  0  0  0  0  0  0  0
    7.7886  -13.3585   26.5108 C   0  0  0  0  0  0  0  0  0  0  0  0
    9.2036  -17.4686   25.5338 C   0  0  0  0  0  0  0  0  0  0  0  0
    9.5388  -18.1780   26.5124 O   0  0  0  0  0  0  0  0  0  0  0  0
    8.1759  -18.0196   24.7406 O   0  0  0  0  0  0  0  0  0  0  0  0
  1  2  1  0
  2  3  2  0
  4  5  1  0
  4  2  1  0
  5  7  1  0
  5  6  1  6
  7  8  2  0
 10  9  1  6
 10 11  1  0
 10 12  1  0
 12 13  1  6
 13  7  1  0
 14 15  2  0
 14 12  1  0
 16 14  1  0
 17 16  1  0
 17 28  1  0
 17 18  1  1
 19 27  1  0
 19 18  1  0
 20 19  2  0
 21 20  1  0
 21 22  1  0
 22 27  2  0
 23 22  1  0
 23 24  2  0
 24 25  1  0
 25 26  2  0
 27 26  1  0
 28 29  2  0
 28 30  1  0
M  END
$$$$
