NTW.pdb
     RDKit          3D

 30 31  0  0  1  0  0  0  0  0999 V2000
    8.9772  -16.3456   13.6493 N   0  0  0  0  0  0  0  0  0  0  0  0
    9.6232  -16.1112   14.8873 C   0  0  0  0  0  0  0  0  0  0  0  0
   10.8552  -15.9242   14.9043 O   0  0  0  0  0  0  0  0  0  0  0  0
    8.8416  -16.0928   16.1135 C   0  0  0  0  0  0  0  0  0  0  0  0
    9.3410  -16.8951   17.2557 C   0  0  2  0  0  0  0  0  0  0  0  0
    9.5471  -18.2675   16.7762 N   0  0  0  0  0  0  0  0  0  0  0  0
    8.5547  -16.8606   18.4885 C   0  0  0  0  0  0  0  0  0  0  0  0
    7.2997  -16.8944   18.5454 O   0  0  0  0  0  0  0  0  0  0  0  0
    6.6622  -18.1936   19.8402 C   0  0  0  0  0  0  0  0  0  0  0  0
    7.6082  -18.1304   20.9934 C   0  0  1  0  0  0  0  0  0  0  0  0
    8.4078  -19.2857   20.9583 O   0  0  0  0  0  0  0  0  0  0  0  0
    8.4556  -16.8941   21.0266 C   0  0  2  0  0  0  0  0  0  0  0  0
    9.1696  -16.7819   19.7955 N   0  0  0  0  0  0  0  0  0  0  0  0
    9.3112  -16.8866   22.2291 C   0  0  0  0  0  0  0  0  0  0  0  0
   10.4920  -17.3044   22.1033 O   0  0  0  0  0  0  0  0  0  0  0  0
    8.9197  -16.4509   23.5127 N   0  0  0  0  0  0  0  0  0  0  0  0
    9.8671  -16.3427   24.6320 C   0  0  1  0  0  0  0  0  0  0  0  0
    9.8236  -15.0068   25.2513 C   0  0  0  0  0  0  0  0  0  0  0  0
    8.4564  -14.5784   25.5710 C   0  0  0  0  0  0  0  0  0  0  0  0
    7.3199  -15.4050   25.6276 C   0  0  0  0  0  0  0  0  0  0  0  0
    6.2326  -14.6656   25.9033 N   0  0  0  0  0  0  0  0  0  0  0  0
    6.5785  -13.3775   26.0371 C   0  0  0  0  0  0  0  0  0  0  0  0
    5.8194  -12.2568   26.3373 C   0  0  0  0  0  0  0  0  0  0  0  0
    6.4118  -11.0222   26.4474 C   0  0  0  0  0  0  0  0  0  0  0  0
    7.7725  -10.9664   26.2463 C   0  0  0  0  0  0  0  0  0  0  0  0
    8.5361  -12.0692   25.9478 C   0  0  0  0  0  0  0  0  0  0  0  0
    7.9431  -13.3160   25.8348 C   0  0  0  0  0  0  0  0  0  0  0  0
    9.6227  -17.4562   25.5397 C   0  0  0  0  0  0  0  0  0  0  0  0
    8.6525  -18.2475   25.4641 O   0  0  0  0  0  0  0  0  0  0  0  0
   10.5070  -17.7199   26.6062 O   0  0  0  0  0  0  0  0  0  0  0  0
  1  2  1  0
  2  3  2  0
  4  5  1  0
  4  2  1  0
  5  7  1  0
  5  6  1  6
  7  8  2  0
 10  9  1  6
 10 11  1  0
 10 12  1  0
 12 13  1  6
 13  7  1  0
 14 15  2  0
 14 12  1  0
 16 14  1  0
 17 16  1  0
 17 28  1  0
 17 18  1  1
 19 27  1  0
 19 18  1  0
 20 19  2  0
 21 20  1  0
 21 22  1  0
 22 27  2  0
 23 22  1  0
 23 24  2  0
 24 25  1  0
 25 26  2  0
 27 26  1  0
 28 29  2  0
 28 30  1  0
M  END
$$$$
