NTW.pdb
     RDKit          3D

 30 31  0  0  1  0  0  0  0  0999 V2000
    7.1075  -13.8850   15.8360 N   0  0  0  0  0  0  0  0  0  0  0  0
    7.9578  -13.4827   16.8944 C   0  0  0  0  0  0  0  0  0  0  0  0
    8.8625  -12.6564   16.6667 O   0  0  0  0  0  0  0  0  0  0  0  0
    7.7620  -14.0380   18.2240 C   0  0  0  0  0  0  0  0  0  0  0  0
    8.9459  -14.6121   18.9072 C   0  0  2  0  0  0  0  0  0  0  0  0
    9.7313  -15.3353   17.8991 N   0  0  0  0  0  0  0  0  0  0  0  0
    8.6987  -15.4292   20.0948 C   0  0  0  0  0  0  0  0  0  0  0  0
    7.8870  -15.1441   21.0110 O   0  0  0  0  0  0  0  0  0  0  0  0
    9.7556  -19.7189   22.4810 C   0  0  0  0  0  0  0  0  0  0  0  0
    9.7889  -18.8293   21.2824 C   0  0  1  0  0  0  0  0  0  0  0  0
    9.0565  -19.4565   20.2601 O   0  0  0  0  0  0  0  0  0  0  0  0
    9.2789  -17.4418   21.5321 C   0  0  2  0  0  0  0  0  0  0  0  0
    9.3879  -16.6791   20.3303 N   0  0  0  0  0  0  0  0  0  0  0  0
    9.9598  -16.8431   22.6965 C   0  0  0  0  0  0  0  0  0  0  0  0
   10.9752  -16.1334   22.4730 O   0  0  0  0  0  0  0  0  0  0  0  0
    9.5710  -16.9976   24.0440 N   0  0  0  0  0  0  0  0  0  0  0  0
   10.2608  -16.3132   25.1475 C   0  0  1  0  0  0  0  0  0  0  0  0
    9.9004  -14.8862   25.2097 C   0  0  0  0  0  0  0  0  0  0  0  0
    8.5147  -14.6738   25.6455 C   0  0  0  0  0  0  0  0  0  0  0  0
    7.4983  -15.6453   25.6819 C   0  0  0  0  0  0  0  0  0  0  0  0
    6.3474  -15.0849   26.0895 N   0  0  0  0  0  0  0  0  0  0  0  0
    6.5357  -13.7801   26.3318 C   0  0  0  0  0  0  0  0  0  0  0  0
    5.6631  -12.8021   26.7837 C   0  0  0  0  0  0  0  0  0  0  0  0
    6.1006  -11.5153   26.9836 C   0  0  0  0  0  0  0  0  0  0  0  0
    7.4266  -11.2616   26.7143 C   0  0  0  0  0  0  0  0  0  0  0  0
    8.3016  -12.2214   26.2657 C   0  0  0  0  0  0  0  0  0  0  0  0
    7.8649  -13.5201   26.0617 C   0  0  0  0  0  0  0  0  0  0  0  0
   10.0181  -17.0688   26.3696 C   0  0  0  0  0  0  0  0  0  0  0  0
   10.4057  -16.7318   27.5139 O   0  0  0  0  0  0  0  0  0  0  0  0
    9.2979  -18.2809   26.3328 O   0  0  0  0  0  0  0  0  0  0  0  0
  1  2  1  0
  2  3  2  0
  4  5  1  0
  4  2  1  0
  5  7  1  0
  5  6  1  6
  7  8  2  0
 10  9  1  1
 10 11  1  0
 10 12  1  0
 12 13  1  6
 13  7  1  0
 14 15  2  0
 14 12  1  0
 16 14  1  0
 17 16  1  0
 17 28  1  0
 17 18  1  1
 19 27  1  0
 19 18  1  0
 20 19  2  0
 21 20  1  0
 21 22  1  0
 22 27  2  0
 23 22  1  0
 23 24  2  0
 24 25  1  0
 25 26  2  0
 27 26  1  0
 28 29  2  0
 28 30  1  0
M  END
$$$$
