NTH.pdb
     RDKit          3D

 26 26  0  0  1  0  0  0  0  0999 V2000
    9.2275  -19.4153   15.9275 N   0  0  0  0  0  0  0  0  0  0  0  0
    9.6574  -18.0892   15.6510 C   0  0  0  0  0  0  0  0  0  0  0  0
   10.0605  -17.7741   14.5094 O   0  0  0  0  0  0  0  0  0  0  0  0
    9.6388  -17.0502   16.7056 C   0  0  0  0  0  0  0  0  0  0  0  0
    9.1268  -17.5412   18.0173 C   0  0  2  0  0  0  0  0  0  0  0  0
    7.7143  -17.8056   17.9624 N   0  0  0  0  0  0  0  0  0  0  0  0
    9.4427  -16.6808   19.1584 C   0  0  0  0  0  0  0  0  0  0  0  0
   10.6625  -16.4707   19.4488 O   0  0  0  0  0  0  0  0  0  0  0  0
    7.4970  -13.3365   20.3412 C   0  0  0  0  0  0  0  0  0  0  0  0
    7.6535  -14.3644   21.4167 C   0  0  1  0  0  0  0  0  0  0  0  0
    6.5160  -15.1198   21.6393 O   0  0  0  0  0  0  0  0  0  0  0  0
    8.8505  -15.2723   21.1886 C   0  0  2  0  0  0  0  0  0  0  0  0
    8.5062  -16.0418   19.9936 N   0  0  0  0  0  0  0  0  0  0  0  0
    9.1676  -16.1365   22.3294 C   0  0  0  0  0  0  0  0  0  0  0  0
    8.7376  -17.3265   22.4414 O   0  0  0  0  0  0  0  0  0  0  0  0
    9.9901  -15.6769   23.3906 N   0  0  0  0  0  0  0  0  0  0  0  0
   10.3873  -16.5540   24.4959 C   0  0  1  0  0  0  0  0  0  0  0  0
   11.8700  -16.4946   24.6571 C   0  0  0  0  0  0  0  0  0  0  0  0
   12.5823  -17.0769   23.5138 C   0  0  0  0  0  0  0  0  0  0  0  0
   12.2931  -18.2322   22.8114 C   0  0  0  0  0  0  0  0  0  0  0  0
   13.2128  -18.3837   21.8446 N   0  0  0  0  0  0  0  0  0  0  0  0
   14.0618  -17.3456   21.9373 C   0  0  0  0  0  0  0  0  0  0  0  0
   13.6871  -16.5524   22.9433 N   0  0  0  0  0  0  0  0  0  0  0  0
    9.6160  -16.2627   25.7108 C   0  0  0  0  0  0  0  0  0  0  0  0
    9.7009  -17.0217   26.8490 O   0  0  0  0  0  0  0  0  0  0  0  0
    8.8411  -15.2694   25.7042 O   0  0  0  0  0  0  0  0  0  0  0  0
  1  2  1  0
  2  3  2  0
  4  5  1  0
  4  2  1  0
  5  7  1  0
  5  6  1  6
  7  8  2  0
 10  9  1  6
 10 12  1  0
 11 10  1  0
 12 14  1  0
 13  7  1  0
 12 13  1  6
 14 15  2  0
 16 17  1  0
 16 14  1  0
 17 24  1  0
 18 19  1  0
 17 18  1  1
 19 23  1  0
 20 19  2  0
 20 21  1  0
 21 22  1  0
 23 22  2  0
 24 25  1  0
 26 24  2  0
M  END
$$$$
