NTH.pdb
     RDKit          3D

 26 26  0  0  1  0  0  0  0  0999 V2000
   10.7456  -16.7434   13.9424 N   0  0  0  0  0  0  0  0  0  0  0  0
   10.5360  -15.3383   13.9816 C   0  0  0  0  0  0  0  0  0  0  0  0
   10.6178  -14.6516   12.9390 O   0  0  0  0  0  0  0  0  0  0  0  0
   10.2163  -14.6541   15.2550 C   0  0  0  0  0  0  0  0  0  0  0  0
   10.1857  -15.5692   16.4321 C   0  0  2  0  0  0  0  0  0  0  0  0
    9.0463  -16.4452   16.3850 N   0  0  0  0  0  0  0  0  0  0  0  0
   10.2626  -14.8986   17.7307 C   0  0  0  0  0  0  0  0  0  0  0  0
   11.3271  -14.2742   18.0363 O   0  0  0  0  0  0  0  0  0  0  0  0
    7.4235  -12.7897   19.5482 C   0  0  0  0  0  0  0  0  0  0  0  0
    7.9762  -13.8703   20.4226 C   0  0  1  0  0  0  0  0  0  0  0  0
    7.1671  -14.9892   20.5094 O   0  0  0  0  0  0  0  0  0  0  0  0
    9.3889  -14.2727   20.0332 C   0  0  2  0  0  0  0  0  0  0  0  0
    9.2481  -14.8727   18.7070 N   0  0  0  0  0  0  0  0  0  0  0  0
   10.0320  -15.1827   20.9855 C   0  0  0  0  0  0  0  0  0  0  0  0
   10.0667  -16.4428   20.8288 O   0  0  0  0  0  0  0  0  0  0  0  0
   10.6633  -14.6908   22.1574 N   0  0  0  0  0  0  0  0  0  0  0  0
   11.2061  -15.5913   23.1787 C   0  0  1  0  0  0  0  0  0  0  0  0
   12.6393  -15.2499   23.4180 C   0  0  0  0  0  0  0  0  0  0  0  0
   13.4760  -15.4807   22.2348 C   0  0  0  0  0  0  0  0  0  0  0  0
   13.3623  -16.4684   21.2739 C   0  0  0  0  0  0  0  0  0  0  0  0
   14.3448  -16.3013   20.3738 N   0  0  0  0  0  0  0  0  0  0  0  0
   15.0608  -15.2314   20.7607 C   0  0  0  0  0  0  0  0  0  0  0  0
   14.5418  -14.7309   21.8839 N   0  0  0  0  0  0  0  0  0  0  0  0
   10.3603  -15.6072   24.3788 C   0  0  0  0  0  0  0  0  0  0  0  0
   10.6055  -16.4210   25.4542 O   0  0  0  0  0  0  0  0  0  0  0  0
    9.3640  -14.8372   24.4194 O   0  0  0  0  0  0  0  0  0  0  0  0
  1  2  1  0
  2  3  2  0
  4  5  1  0
  4  2  1  0
  5  7  1  0
  5  6  1  1
  7  8  2  0
 10  9  1  6
 10 12  1  0
 11 10  1  0
 12 14  1  0
 13  7  1  0
 12 13  1  6
 14 15  2  0
 16 17  1  0
 16 14  1  0
 17 24  1  0
 18 19  1  0
 17 18  1  1
 19 23  1  0
 20 19  2  0
 20 21  1  0
 21 22  1  0
 23 22  2  0
 24 25  1  0
 26 24  2  0
M  END
$$$$
