NTH.pdb
     RDKit          3D

 26 26  0  0  1  0  0  0  0  0999 V2000
   14.1050  -16.3224   17.8535 N   0  0  0  0  0  0  0  0  0  0  0  0
   14.3074  -15.1230   18.5885 C   0  0  0  0  0  0  0  0  0  0  0  0
   15.4519  -14.6312   18.7045 O   0  0  0  0  0  0  0  0  0  0  0  0
   13.1707  -14.4275   19.2335 C   0  0  0  0  0  0  0  0  0  0  0  0
   11.8628  -15.1177   19.0415 C   0  0  2  0  0  0  0  0  0  0  0  0
   11.3997  -14.9943   17.6856 N   0  0  0  0  0  0  0  0  0  0  0  0
   10.8143  -14.7141   19.9793 C   0  0  0  0  0  0  0  0  0  0  0  0
   10.3657  -13.5258   19.9234 O   0  0  0  0  0  0  0  0  0  0  0  0
    7.4518  -15.4217   20.1601 C   0  0  0  0  0  0  0  0  0  0  0  0
    7.9562  -15.8360   21.5061 C   0  0  1  0  0  0  0  0  0  0  0  0
    8.1492  -17.1998   21.6365 O   0  0  0  0  0  0  0  0  0  0  0  0
    9.2126  -15.0863   21.9165 C   0  0  2  0  0  0  0  0  0  0  0  0
   10.2328  -15.5312   20.9679 N   0  0  0  0  0  0  0  0  0  0  0  0
    9.6144  -15.3153   23.3074 C   0  0  0  0  0  0  0  0  0  0  0  0
   10.6931  -15.9021   23.6324 O   0  0  0  0  0  0  0  0  0  0  0  0
    8.8002  -14.8827   24.3862 N   0  0  0  0  0  0  0  0  0  0  0  0
    9.1422  -15.1804   25.7802 C   0  0  1  0  0  0  0  0  0  0  0  0
    9.1704  -13.9069   26.5582 C   0  0  0  0  0  0  0  0  0  0  0  0
    7.9102  -13.1615   26.4599 C   0  0  0  0  0  0  0  0  0  0  0  0
    7.7098  -11.8464   26.0829 C   0  0  0  0  0  0  0  0  0  0  0  0
    6.3942  -11.5834   26.1399 N   0  0  0  0  0  0  0  0  0  0  0  0
    5.7807  -12.7092   26.5438 C   0  0  0  0  0  0  0  0  0  0  0  0
    6.6902  -13.6664   26.7391 N   0  0  0  0  0  0  0  0  0  0  0  0
    8.2724  -16.2278   26.3300 C   0  0  0  0  0  0  0  0  0  0  0  0
    8.4941  -16.8200   27.5462 O   0  0  0  0  0  0  0  0  0  0  0  0
    7.2777  -16.5976   25.6511 O   0  0  0  0  0  0  0  0  0  0  0  0
  1  2  1  0
  2  3  2  0
  4  5  1  0
  4  2  1  0
  5  7  1  0
  5  6  1  6
  7  8  2  0
 10  9  1  6
 10 12  1  0
 11 10  1  0
 12 14  1  0
 13  7  1  0
 12 13  1  6
 14 15  2  0
 16 17  1  0
 16 14  1  0
 17 24  1  0
 18 19  1  0
 17 18  1  1
 19 23  1  0
 20 19  2  0
 20 21  1  0
 21 22  1  0
 23 22  2  0
 24 25  1  0
 26 24  2  0
M  END
$$$$
