NTH.pdb
     RDKit          3D

 26 26  0  0  1  0  0  0  0  0999 V2000
    8.4125  -16.1028   15.4134 N   0  0  0  0  0  0  0  0  0  0  0  0
    8.3356  -14.7273   15.7626 C   0  0  0  0  0  0  0  0  0  0  0  0
    8.1314  -13.8572   14.8872 O   0  0  0  0  0  0  0  0  0  0  0  0
    8.4951  -14.2914   17.1685 C   0  0  0  0  0  0  0  0  0  0  0  0
    8.8033  -15.4080   18.1076 C   0  0  2  0  0  0  0  0  0  0  0  0
    7.7421  -16.3782   18.1338 N   0  0  0  0  0  0  0  0  0  0  0  0
    9.1462  -14.9875   19.4669 C   0  0  0  0  0  0  0  0  0  0  0  0
   10.0939  -14.1560   19.6307 O   0  0  0  0  0  0  0  0  0  0  0  0
    7.4405  -13.0503   21.8747 C   0  0  0  0  0  0  0  0  0  0  0  0
    7.7496  -14.3260   22.5921 C   0  0  1  0  0  0  0  0  0  0  0  0
    6.6692  -15.1835   22.7008 O   0  0  0  0  0  0  0  0  0  0  0  0
    8.9424  -15.0569   21.9986 C   0  0  2  0  0  0  0  0  0  0  0  0
    8.5154  -15.4221   20.6485 N   0  0  0  0  0  0  0  0  0  0  0  0
    9.3727  -16.2227   22.7761 C   0  0  0  0  0  0  0  0  0  0  0  0
    8.8919  -17.3865   22.6088 O   0  0  0  0  0  0  0  0  0  0  0  0
   10.3713  -16.1077   23.7777 N   0  0  0  0  0  0  0  0  0  0  0  0
   10.7791  -17.2525   24.5973 C   0  0  1  0  0  0  0  0  0  0  0  0
   12.2698  -17.3170   24.6378 C   0  0  0  0  0  0  0  0  0  0  0  0
   12.8573  -17.5510   23.3136 C   0  0  0  0  0  0  0  0  0  0  0  0
   12.2188  -17.6766   22.0936 C   0  0  0  0  0  0  0  0  0  0  0  0
   13.1479  -17.8866   21.1470 N   0  0  0  0  0  0  0  0  0  0  0  0
   14.3448  -17.8928   21.7589 C   0  0  0  0  0  0  0  0  0  0  0  0
   14.1768  -17.6907   23.0675 N   0  0  0  0  0  0  0  0  0  0  0  0
   10.1202  -17.2300   25.9092 C   0  0  0  0  0  0  0  0  0  0  0  0
   10.2444  -18.2428   26.8245 O   0  0  0  0  0  0  0  0  0  0  0  0
    9.4085  -16.2334   26.2048 O   0  0  0  0  0  0  0  0  0  0  0  0
  1  2  1  0
  2  3  2  0
  4  5  1  0
  4  2  1  0
  5  7  1  0
  5  6  1  1
  7  8  2  0
 10  9  1  6
 10 12  1  0
 11 10  1  0
 12 14  1  0
 13  7  1  0
 12 13  1  6
 14 15  2  0
 16 17  1  0
 16 14  1  0
 17 24  1  0
 18 19  1  0
 17 18  1  1
 19 23  1  0
 20 19  2  0
 20 21  1  0
 21 22  1  0
 23 22  2  0
 24 25  1  0
 26 24  2  0
M  END
$$$$
