NTH.pdb
     RDKit          3D

 26 26  0  0  1  0  0  0  0  0999 V2000
    6.4197  -18.8122   15.4667 N   0  0  0  0  0  0  0  0  0  0  0  0
    7.5281  -19.1516   16.2888 C   0  0  0  0  0  0  0  0  0  0  0  0
    8.2375  -20.1475   16.0241 O   0  0  0  0  0  0  0  0  0  0  0  0
    7.8697  -18.3362   17.4764 C   0  0  0  0  0  0  0  0  0  0  0  0
    8.2504  -16.9327   17.1465 C   0  0  2  0  0  0  0  0  0  0  0  0
    9.0962  -16.8788   15.9847 N   0  0  0  0  0  0  0  0  0  0  0  0
    8.8513  -16.1855   18.2523 C   0  0  0  0  0  0  0  0  0  0  0  0
   10.1181  -16.1588   18.3575 O   0  0  0  0  0  0  0  0  0  0  0  0
    7.5338  -12.7249   19.9796 C   0  0  0  0  0  0  0  0  0  0  0  0
    7.7359  -13.8680   20.9231 C   0  0  1  0  0  0  0  0  0  0  0  0
    6.5669  -14.5221   21.2691 O   0  0  0  0  0  0  0  0  0  0  0  0
    8.7670  -14.8652   20.4216 C   0  0  2  0  0  0  0  0  0  0  0  0
    8.1498  -15.4711   19.2424 N   0  0  0  0  0  0  0  0  0  0  0  0
    9.1580  -15.8679   21.4169 C   0  0  0  0  0  0  0  0  0  0  0  0
    8.5811  -16.9935   21.5343 O   0  0  0  0  0  0  0  0  0  0  0  0
   10.2255  -15.6264   22.3203 N   0  0  0  0  0  0  0  0  0  0  0  0
   10.6196  -16.6115   23.3316 C   0  0  1  0  0  0  0  0  0  0  0  0
   12.1067  -16.7408   23.3332 C   0  0  0  0  0  0  0  0  0  0  0  0
   12.6042  -17.5084   22.1857 C   0  0  0  0  0  0  0  0  0  0  0  0
   11.8915  -18.2784   21.2852 C   0  0  0  0  0  0  0  0  0  0  0  0
   12.7532  -18.8034   20.3990 N   0  0  0  0  0  0  0  0  0  0  0  0
   13.9813  -18.3723   20.7353 C   0  0  0  0  0  0  0  0  0  0  0  0
   13.8988  -17.5898   21.8135 N   0  0  0  0  0  0  0  0  0  0  0  0
   10.0191  -16.3052   24.6360 C   0  0  0  0  0  0  0  0  0  0  0  0
   10.1296  -17.1344   25.7220 O   0  0  0  0  0  0  0  0  0  0  0  0
    9.3731  -15.2309   24.7603 O   0  0  0  0  0  0  0  0  0  0  0  0
  1  2  1  0
  2  3  2  0
  4  5  1  0
  4  2  1  0
  5  7  1  0
  5  6  1  6
  7  8  2  0
 10  9  1  6
 10 12  1  0
 11 10  1  0
 12 14  1  0
 13  7  1  0
 12 13  1  6
 14 15  2  0
 16 17  1  0
 16 14  1  0
 17 24  1  0
 18 19  1  0
 17 18  1  1
 19 23  1  0
 20 19  2  0
 20 21  1  0
 21 22  1  0
 23 22  2  0
 24 25  1  0
 26 24  2  0
M  END
$$$$
