NTH.pdb
     RDKit          3D

 26 26  0  0  1  0  0  0  0  0999 V2000
   13.1703  -18.6828   16.0926 N   0  0  0  0  0  0  0  0  0  0  0  0
   12.0425  -17.8260   16.2108 C   0  0  0  0  0  0  0  0  0  0  0  0
   11.3060  -17.6011   15.2249 O   0  0  0  0  0  0  0  0  0  0  0  0
   11.7125  -17.1799   17.5014 C   0  0  0  0  0  0  0  0  0  0  0  0
   11.5752  -15.6979   17.4083 C   0  0  2  0  0  0  0  0  0  0  0  0
   12.7695  -15.0932   16.8829 N   0  0  0  0  0  0  0  0  0  0  0  0
   11.1738  -15.0411   18.6531 C   0  0  0  0  0  0  0  0  0  0  0  0
   12.0698  -14.7362   19.5020 O   0  0  0  0  0  0  0  0  0  0  0  0
    8.3378  -12.1980   19.2478 C   0  0  0  0  0  0  0  0  0  0  0  0
    8.1606  -13.4387   20.0645 C   0  0  1  0  0  0  0  0  0  0  0  0
    7.2229  -14.3175   19.5520 O   0  0  0  0  0  0  0  0  0  0  0  0
    9.4720  -14.1617   20.3225 C   0  0  2  0  0  0  0  0  0  0  0  0
    9.8571  -14.7013   19.0190 N   0  0  0  0  0  0  0  0  0  0  0  0
    9.3842  -15.2053   21.3481 C   0  0  0  0  0  0  0  0  0  0  0  0
    8.9736  -16.3833   21.1086 O   0  0  0  0  0  0  0  0  0  0  0  0
    9.7625  -14.9466   22.6912 N   0  0  0  0  0  0  0  0  0  0  0  0
    9.6050  -15.9525   23.7457 C   0  0  1  0  0  0  0  0  0  0  0  0
   10.9401  -16.2421   24.3470 C   0  0  0  0  0  0  0  0  0  0  0  0
   11.8012  -17.0228   23.4513 C   0  0  0  0  0  0  0  0  0  0  0  0
   11.5449  -17.4536   22.1627 C   0  0  0  0  0  0  0  0  0  0  0  0
   12.6124  -18.1399   21.7234 N   0  0  0  0  0  0  0  0  0  0  0  0
   13.5203  -18.1403   22.7147 C   0  0  0  0  0  0  0  0  0  0  0  0
   13.0371  -17.4675   23.7613 N   0  0  0  0  0  0  0  0  0  0  0  0
    8.5618  -15.5624   24.7024 C   0  0  0  0  0  0  0  0  0  0  0  0
    8.1208  -16.3879   25.7039 O   0  0  0  0  0  0  0  0  0  0  0  0
    8.0498  -14.4162   24.5957 O   0  0  0  0  0  0  0  0  0  0  0  0
  1  2  1  0
  2  3  2  0
  4  5  1  0
  4  2  1  0
  5  7  1  0
  5  6  1  1
  7  8  2  0
 10  9  1  6
 10 12  1  0
 11 10  1  0
 12 14  1  0
 13  7  1  0
 12 13  1  6
 14 15  2  0
 16 17  1  0
 16 14  1  0
 17 24  1  0
 18 19  1  0
 17 18  1  1
 19 23  1  0
 20 19  2  0
 20 21  1  0
 21 22  1  0
 23 22  2  0
 24 25  1  0
 26 24  2  0
M  END
$$$$
