NTH.pdb
     RDKit          3D

 26 26  0  0  1  0  0  0  0  0999 V2000
    8.2122  -19.2567   16.1092 N   0  0  0  0  0  0  0  0  0  0  0  0
    9.4592  -19.4300   16.7687 C   0  0  0  0  0  0  0  0  0  0  0  0
   10.1343  -20.4687   16.5941 O   0  0  0  0  0  0  0  0  0  0  0  0
    9.9886  -18.3873   17.6766 C   0  0  0  0  0  0  0  0  0  0  0  0
    9.0609  -17.2354   17.8669 C   0  0  2  0  0  0  0  0  0  0  0  0
    8.9480  -16.4502   16.6674 N   0  0  0  0  0  0  0  0  0  0  0  0
    9.3751  -16.3791   19.0115 C   0  0  0  0  0  0  0  0  0  0  0  0
   10.3588  -15.5783   18.9265 O   0  0  0  0  0  0  0  0  0  0  0  0
    7.2190  -13.8966   20.8138 C   0  0  0  0  0  0  0  0  0  0  0  0
    7.7459  -14.8709   21.8191 C   0  0  1  0  0  0  0  0  0  0  0  0
    6.8322  -15.8408   22.1916 O   0  0  0  0  0  0  0  0  0  0  0  0
    9.0488  -15.5180   21.3797 C   0  0  2  0  0  0  0  0  0  0  0  0
    8.6787  -16.3497   20.2352 N   0  0  0  0  0  0  0  0  0  0  0  0
    9.7135  -16.2916   22.4325 C   0  0  0  0  0  0  0  0  0  0  0  0
    9.6118  -17.5533   22.5382 O   0  0  0  0  0  0  0  0  0  0  0  0
   10.5231  -15.6555   23.4092 N   0  0  0  0  0  0  0  0  0  0  0  0
   11.2030  -16.4148   24.4627 C   0  0  1  0  0  0  0  0  0  0  0  0
   12.5380  -15.8000   24.7229 C   0  0  0  0  0  0  0  0  0  0  0  0
   13.4678  -15.9832   23.6025 C   0  0  0  0  0  0  0  0  0  0  0  0
   13.4048  -16.8963   22.5661 C   0  0  0  0  0  0  0  0  0  0  0  0
   14.4687  -16.7085   21.7685 N   0  0  0  0  0  0  0  0  0  0  0  0
   15.1852  -15.6989   22.2923 C   0  0  0  0  0  0  0  0  0  0  0  0
   14.5866  -15.2561   23.4001 N   0  0  0  0  0  0  0  0  0  0  0  0
   10.3466  -16.5690   25.6453 C   0  0  0  0  0  0  0  0  0  0  0  0
    9.1340  -15.9431   25.7758 O   0  0  0  0  0  0  0  0  0  0  0  0
   10.7467  -17.3107   26.5818 O   0  0  0  0  0  0  0  0  0  0  0  0
  1  2  1  0
  2  3  2  0
  4  5  1  0
  4  2  1  0
  5  7  1  0
  5  6  1  6
  7  8  2  0
 10  9  1  6
 10 12  1  0
 11 10  1  0
 12 14  1  0
 13  7  1  0
 12 13  1  6
 14 15  2  0
 16 17  1  0
 16 14  1  0
 17 24  1  0
 18 19  1  0
 17 18  1  1
 19 23  1  0
 20 19  2  0
 20 21  1  0
 21 22  1  0
 23 22  2  0
 24 25  1  0
 26 24  2  0
M  END
$$$$
