NTH.pdb
     RDKit          3D

 26 26  0  0  1  0  0  0  0  0999 V2000
    7.0113  -14.0473   12.5018 N   0  0  0  0  0  0  0  0  0  0  0  0
    7.5350  -15.2556   13.0362 C   0  0  0  0  0  0  0  0  0  0  0  0
    8.2324  -16.0165   12.3293 O   0  0  0  0  0  0  0  0  0  0  0  0
    7.2685  -15.6425   14.4403 C   0  0  0  0  0  0  0  0  0  0  0  0
    8.4986  -15.9990   15.2042 C   0  0  2  0  0  0  0  0  0  0  0  0
    9.2205  -17.0665   14.5659 N   0  0  0  0  0  0  0  0  0  0  0  0
    8.2738  -16.3063   16.6174 C   0  0  0  0  0  0  0  0  0  0  0  0
    7.6362  -15.4707   17.3327 O   0  0  0  0  0  0  0  0  0  0  0  0
    7.5236  -19.9796   17.9967 C   0  0  0  0  0  0  0  0  0  0  0  0
    8.5580  -19.2657   18.8078 C   0  0  1  0  0  0  0  0  0  0  0  0
    9.8545  -19.6701   18.5435 O   0  0  0  0  0  0  0  0  0  0  0  0
    8.4468  -17.7541   18.6983 C   0  0  2  0  0  0  0  0  0  0  0  0
    8.7041  -17.4677   17.2874 N   0  0  0  0  0  0  0  0  0  0  0  0
    9.3581  -17.0248   19.5849 C   0  0  0  0  0  0  0  0  0  0  0  0
   10.5668  -16.7730   19.2858 O   0  0  0  0  0  0  0  0  0  0  0  0
    8.9264  -16.5518   20.8513 N   0  0  0  0  0  0  0  0  0  0  0  0
    9.8552  -15.9376   21.8045 C   0  0  1  0  0  0  0  0  0  0  0  0
    9.4501  -14.5197   22.0357 C   0  0  0  0  0  0  0  0  0  0  0  0
    9.4653  -13.7239   20.8029 C   0  0  0  0  0  0  0  0  0  0  0  0
   10.5378  -13.1108   20.1818 C   0  0  0  0  0  0  0  0  0  0  0  0
   10.0912  -12.4866   19.0798 N   0  0  0  0  0  0  0  0  0  0  0  0
    8.7663  -12.7027   19.0098 C   0  0  0  0  0  0  0  0  0  0  0  0
    8.3814  -13.4492   20.0472 N   0  0  0  0  0  0  0  0  0  0  0  0
    9.9900  -16.7532   23.0179 C   0  0  0  0  0  0  0  0  0  0  0  0
    9.2275  -17.8668   23.2574 O   0  0  0  0  0  0  0  0  0  0  0  0
   10.8459  -16.4117   23.8769 O   0  0  0  0  0  0  0  0  0  0  0  0
  1  2  1  0
  2  3  2  0
  4  5  1  0
  4  2  1  0
  5  7  1  0
  5  6  1  6
  7  8  2  0
 10  9  1  6
 10 12  1  0
 11 10  1  0
 12 14  1  0
 13  7  1  0
 12 13  1  6
 14 15  2  0
 16 17  1  0
 16 14  1  0
 17 24  1  0
 18 19  1  0
 17 18  1  1
 19 23  1  0
 20 19  2  0
 20 21  1  0
 21 22  1  0
 23 22  2  0
 24 25  1  0
 26 24  2  0
M  END
$$$$
