LNF.pdb
     RDKit          3D

 28 28  0  0  1  0  0  0  0  0999 V2000
   26.9502  -15.8921  -17.8182 C   0  0  0  0  0  0  0  0  0  0  0  0
   27.2883  -16.3225  -16.3811 C   0  0  1  0  0  0  0  0  0  0  0  0
   27.2418  -15.0606  -15.5582 C   0  0  0  0  0  0  0  0  0  0  0  0
   26.2691  -17.3481  -16.0154 C   0  0  0  0  0  0  0  0  0  0  0  0
   26.3878  -17.9169  -14.6354 C   0  0  2  0  0  0  0  0  0  0  0  0
   27.6980  -18.2641  -14.2128 N   0  0  0  0  0  0  0  0  0  0  0  0
   25.3885  -19.0135  -14.4116 C   0  0  0  0  0  0  0  0  0  0  0  0
   24.4353  -19.2114  -15.1991 O   0  0  0  0  0  0  0  0  0  0  0  0
   25.9199  -22.4340  -15.7347 N   0  0  0  0  0  0  0  0  0  0  0  0
   27.2024  -21.9781  -15.3520 C   0  0  0  0  0  0  0  0  0  0  0  0
   28.1678  -22.1949  -16.1587 O   0  0  0  0  0  0  0  0  0  0  0  0
   27.3633  -21.2848  -14.0671 C   0  0  0  0  0  0  0  0  0  0  0  0
   26.0999  -21.1760  -13.2942 C   0  0  2  0  0  0  0  0  0  0  0  0
   25.5314  -19.8453  -13.2801 N   0  0  0  0  0  0  0  0  0  0  0  0
   26.3150  -21.6021  -11.8961 C   0  0  0  0  0  0  0  0  0  0  0  0
   26.2653  -22.8434  -11.5901 O   0  0  0  0  0  0  0  0  0  0  0  0
   26.5841  -20.7346  -10.8108 N   0  0  0  0  0  0  0  0  0  0  0  0
   25.8312  -20.8290   -9.5498 C   0  0  1  0  0  0  0  0  0  0  0  0
   26.2310  -19.6146   -8.7453 C   0  0  0  0  0  0  0  0  0  0  0  0
   27.3332  -19.9275   -7.8413 C   0  0  0  0  0  0  0  0  0  0  0  0
   27.5526  -19.1605   -6.7230 C   0  0  0  0  0  0  0  0  0  0  0  0
   28.5870  -19.4471   -5.8810 C   0  0  0  0  0  0  0  0  0  0  0  0
   29.4253  -20.5036   -6.1351 C   0  0  0  0  0  0  0  0  0  0  0  0
   29.2151  -21.2858   -7.2607 C   0  0  0  0  0  0  0  0  0  0  0  0
   28.1636  -20.9879   -8.1089 C   0  0  0  0  0  0  0  0  0  0  0  0
   24.3815  -20.8023   -9.7896 C   0  0  0  0  0  0  0  0  0  0  0  0
   23.8572  -20.1689  -10.8979 O   0  0  0  0  0  0  0  0  0  0  0  0
   23.5534  -21.3526   -8.9979 O   0  0  0  0  0  0  0  0  0  0  0  0
  2  1  1  6
  2  4  1  0
  3  2  1  0
  5  7  1  0
  5  4  1  0
  5  6  1  6
  7  8  2  0
  9 10  1  0
 10 12  1  0
 11 10  2  0
 13 12  1  6
 14 13  1  0
 14  7  1  0
 15 16  2  0
 15 13  1  0
 17 15  1  0
 18 26  1  0
 18 17  1  0
 18 19  1  1
 20 19  1  0
 21 20  2  0
 22 21  1  0
 23 22  2  0
 23 24  1  0
 24 25  2  0
 25 20  1  0
 26 27  1  0
 28 26  2  0
M  END
$$$$
