LNF.pdb
     RDKit          3D

 28 28  0  0  1  0  0  0  0  0999 V2000
   28.9575  -25.3803  -16.2599 C   0  0  0  0  0  0  0  0  0  0  0  0
   28.4217  -23.9517  -16.4520 C   0  0  1  0  0  0  0  0  0  0  0  0
   28.1732  -23.8072  -17.9315 C   0  0  0  0  0  0  0  0  0  0  0  0
   27.2021  -23.8587  -15.5986 C   0  0  0  0  0  0  0  0  0  0  0  0
   26.5346  -22.5187  -15.5654 C   0  0  2  0  0  0  0  0  0  0  0  0
   27.3886  -21.3991  -15.3838 N   0  0  0  0  0  0  0  0  0  0  0  0
   25.3604  -22.5194  -14.6315 C   0  0  0  0  0  0  0  0  0  0  0  0
   24.5390  -23.4640  -14.6013 O   0  0  0  0  0  0  0  0  0  0  0  0
   25.7165  -22.6222  -11.0872 N   0  0  0  0  0  0  0  0  0  0  0  0
   25.3708  -21.2967  -10.7367 C   0  0  0  0  0  0  0  0  0  0  0  0
   25.9035  -20.8096   -9.6838 O   0  0  0  0  0  0  0  0  0  0  0  0
   24.4331  -20.5513  -11.5868 C   0  0  0  0  0  0  0  0  0  0  0  0
   24.0769  -21.2663  -12.8388 C   0  0  2  0  0  0  0  0  0  0  0  0
   25.1806  -21.4221  -13.7618 N   0  0  0  0  0  0  0  0  0  0  0  0
   22.9838  -20.5616  -13.5394 C   0  0  0  0  0  0  0  0  0  0  0  0
   23.2488  -19.5793  -14.3151 O   0  0  0  0  0  0  0  0  0  0  0  0
   21.6087  -20.8795  -13.4345 N   0  0  0  0  0  0  0  0  0  0  0  0
   20.6168  -20.3029  -14.3560 C   0  0  1  0  0  0  0  0  0  0  0  0
   21.0243  -20.7667  -15.7347 C   0  0  0  0  0  0  0  0  0  0  0  0
   20.0833  -20.2920  -16.7441 C   0  0  0  0  0  0  0  0  0  0  0  0
   19.0301  -21.0816  -17.1371 C   0  0  0  0  0  0  0  0  0  0  0  0
   18.1539  -20.6424  -18.0859 C   0  0  0  0  0  0  0  0  0  0  0  0
   18.3082  -19.4072  -18.6641 C   0  0  0  0  0  0  0  0  0  0  0  0
   19.3673  -18.6001  -18.2766 C   0  0  0  0  0  0  0  0  0  0  0  0
   20.2508  -19.0537  -17.3136 C   0  0  0  0  0  0  0  0  0  0  0  0
   19.2626  -20.7888  -14.0561 C   0  0  0  0  0  0  0  0  0  0  0  0
   18.1636  -19.9691  -14.2137 O   0  0  0  0  0  0  0  0  0  0  0  0
   19.0426  -21.9701  -13.6420 O   0  0  0  0  0  0  0  0  0  0  0  0
  2  1  1  6
  2  4  1  0
  3  2  1  0
  5  7  1  0
  5  4  1  0
  5  6  1  1
  7  8  2  0
  9 10  1  0
 10 12  1  0
 11 10  2  0
 13 12  1  1
 14 13  1  0
 14  7  1  0
 15 16  2  0
 15 13  1  0
 17 15  1  0
 18 26  1  0
 18 17  1  0
 18 19  1  6
 20 19  1  0
 21 20  2  0
 22 21  1  0
 23 22  2  0
 23 24  1  0
 24 25  2  0
 25 20  1  0
 26 27  1  0
 28 26  2  0
M  END
$$$$
