LNF.pdb
     RDKit          3D

 28 28  0  0  1  0  0  0  0  0999 V2000
   18.7957  -16.0006  -19.3333 C   0  0  0  0  0  0  0  0  0  0  0  0
   18.8761  -15.4045  -17.9180 C   0  0  1  0  0  0  0  0  0  0  0  0
   20.0953  -16.0248  -17.2853 C   0  0  0  0  0  0  0  0  0  0  0  0
   18.9492  -13.9266  -18.1050 C   0  0  0  0  0  0  0  0  0  0  0  0
   18.9820  -13.1148  -16.8472 C   0  0  2  0  0  0  0  0  0  0  0  0
   18.0593  -13.4912  -15.8358 N   0  0  0  0  0  0  0  0  0  0  0  0
   18.9568  -11.6451  -17.1479 C   0  0  0  0  0  0  0  0  0  0  0  0
   19.6334  -11.1477  -18.0767 O   0  0  0  0  0  0  0  0  0  0  0  0
   15.9605   -6.9912  -17.8209 N   0  0  0  0  0  0  0  0  0  0  0  0
   16.3996   -7.4702  -16.5651 C   0  0  0  0  0  0  0  0  0  0  0  0
   16.6296   -6.6057  -15.6543 O   0  0  0  0  0  0  0  0  0  0  0  0
   16.5657   -8.9161  -16.3671 C   0  0  0  0  0  0  0  0  0  0  0  0
   17.9590   -9.3838  -16.5805 C   0  0  2  0  0  0  0  0  0  0  0  0
   18.1441  -10.8020  -16.3597 N   0  0  0  0  0  0  0  0  0  0  0  0
   18.8876   -8.6525  -15.6943 C   0  0  0  0  0  0  0  0  0  0  0  0
   18.8213   -8.8112  -14.4265 O   0  0  0  0  0  0  0  0  0  0  0  0
   19.8906   -7.7527  -16.1272 N   0  0  0  0  0  0  0  0  0  0  0  0
   20.7150   -7.0041  -15.1652 C   0  0  1  0  0  0  0  0  0  0  0  0
   22.1477   -7.2701  -15.5636 C   0  0  0  0  0  0  0  0  0  0  0  0
   22.5157   -8.6561  -15.2928 C   0  0  0  0  0  0  0  0  0  0  0  0
   22.6514   -9.0981  -13.9993 C   0  0  0  0  0  0  0  0  0  0  0  0
   23.0027  -10.3914  -13.7446 C   0  0  0  0  0  0  0  0  0  0  0  0
   23.2266  -11.2723  -14.7730 C   0  0  0  0  0  0  0  0  0  0  0  0
   23.0932  -10.8390  -16.0836 C   0  0  0  0  0  0  0  0  0  0  0  0
   22.7366   -9.5257  -16.3324 C   0  0  0  0  0  0  0  0  0  0  0  0
   20.4457   -5.5613  -15.2394 C   0  0  0  0  0  0  0  0  0  0  0  0
   21.0088   -4.6868  -14.3324 O   0  0  0  0  0  0  0  0  0  0  0  0
   19.6910   -5.0576  -16.1294 O   0  0  0  0  0  0  0  0  0  0  0  0
  2  1  1  6
  2  4  1  0
  3  2  1  0
  5  7  1  0
  5  4  1  0
  5  6  1  1
  7  8  2  0
  9 10  1  0
 10 12  1  0
 11 10  2  0
 13 12  1  1
 14 13  1  0
 14  7  1  0
 15 16  2  0
 15 13  1  0
 17 15  1  0
 18 26  1  0
 18 17  1  0
 18 19  1  6
 20 19  1  0
 21 20  2  0
 22 21  1  0
 23 22  2  0
 23 24  1  0
 24 25  2  0
 25 20  1  0
 26 27  1  0
 28 26  2  0
M  END
$$$$
