LNF.pdb
     RDKit          3D

 28 28  0  0  1  0  0  0  0  0999 V2000
   28.2601  -15.2210  -16.3240 C   0  0  0  0  0  0  0  0  0  0  0  0
   27.9262  -16.7219  -16.3516 C   0  0  1  0  0  0  0  0  0  0  0  0
   29.2512  -17.4339  -16.2564 C   0  0  0  0  0  0  0  0  0  0  0  0
   27.0055  -16.9529  -15.2013 C   0  0  0  0  0  0  0  0  0  0  0  0
   26.7455  -18.3867  -14.8567 C   0  0  2  0  0  0  0  0  0  0  0  0
   26.3376  -19.2234  -15.9287 N   0  0  0  0  0  0  0  0  0  0  0  0
   25.8609  -18.5040  -13.6505 C   0  0  0  0  0  0  0  0  0  0  0  0
   25.0778  -17.5875  -13.3122 O   0  0  0  0  0  0  0  0  0  0  0  0
   22.8537  -20.5198  -10.1461 N   0  0  0  0  0  0  0  0  0  0  0  0
   22.9285  -21.3371  -11.2975 C   0  0  0  0  0  0  0  0  0  0  0  0
   22.0344  -22.2375  -11.4379 O   0  0  0  0  0  0  0  0  0  0  0  0
   24.0109  -21.1154  -12.2653 C   0  0  0  0  0  0  0  0  0  0  0  0
   24.9604  -20.0504  -11.8535 C   0  0  2  0  0  0  0  0  0  0  0  0
   25.9147  -19.6843  -12.8781 N   0  0  0  0  0  0  0  0  0  0  0  0
   25.7101  -20.4677  -10.6509 C   0  0  0  0  0  0  0  0  0  0  0  0
   26.4283  -21.5261  -10.6793 O   0  0  0  0  0  0  0  0  0  0  0  0
   25.7146  -19.7816   -9.4131 N   0  0  0  0  0  0  0  0  0  0  0  0
   26.4315  -20.3155   -8.2440 C   0  0  1  0  0  0  0  0  0  0  0  0
   26.9666  -19.1091   -7.5090 C   0  0  0  0  0  0  0  0  0  0  0  0
   27.7076  -19.5104   -6.3175 C   0  0  0  0  0  0  0  0  0  0  0  0
   27.0407  -19.8231   -5.1580 C   0  0  0  0  0  0  0  0  0  0  0  0
   27.7322  -20.1912   -4.0412 C   0  0  0  0  0  0  0  0  0  0  0  0
   29.1031  -20.2555   -4.0553 C   0  0  0  0  0  0  0  0  0  0  0  0
   29.7887  -19.9423   -5.2194 C   0  0  0  0  0  0  0  0  0  0  0  0
   29.0792  -19.5701   -6.3471 C   0  0  0  0  0  0  0  0  0  0  0  0
   25.5289  -21.0668   -7.3606 C   0  0  0  0  0  0  0  0  0  0  0  0
   24.1597  -20.9234   -7.4573 O   0  0  0  0  0  0  0  0  0  0  0  0
   25.9604  -21.8721   -6.4771 O   0  0  0  0  0  0  0  0  0  0  0  0
  2  1  1  1
  2  4  1  0
  3  2  1  0
  5  7  1  0
  5  4  1  0
  5  6  1  6
  7  8  2  0
  9 10  1  0
 10 12  1  0
 11 10  2  0
 13 12  1  6
 14 13  1  0
 14  7  1  0
 15 16  2  0
 15 13  1  0
 17 15  1  0
 18 26  1  0
 18 17  1  0
 18 19  1  1
 20 19  1  0
 21 20  2  0
 22 21  1  0
 23 22  2  0
 23 24  1  0
 24 25  2  0
 25 20  1  0
 26 27  1  0
 28 26  2  0
M  END
$$$$
