LNF.pdb
     RDKit          3D

 28 28  0  0  1  0  0  0  0  0999 V2000
   27.4330  -16.1793  -18.6029 C   0  0  0  0  0  0  0  0  0  0  0  0
   27.4085  -17.5782  -17.9646 C   0  0  1  0  0  0  0  0  0  0  0  0
   28.1825  -17.4504  -16.6777 C   0  0  0  0  0  0  0  0  0  0  0  0
   25.9667  -17.9220  -17.7984 C   0  0  0  0  0  0  0  0  0  0  0  0
   25.6851  -19.2139  -17.0958 C   0  0  2  0  0  0  0  0  0  0  0  0
   26.3767  -20.3542  -17.5829 N   0  0  0  0  0  0  0  0  0  0  0  0
   24.2096  -19.4411  -16.9466 C   0  0  0  0  0  0  0  0  0  0  0  0
   23.4114  -19.2504  -17.8923 O   0  0  0  0  0  0  0  0  0  0  0  0
   20.0455  -22.4620  -14.4836 N   0  0  0  0  0  0  0  0  0  0  0  0
   20.7094  -21.3333  -13.9501 C   0  0  0  0  0  0  0  0  0  0  0  0
   20.0334  -20.5566  -13.1955 O   0  0  0  0  0  0  0  0  0  0  0  0
   22.1233  -21.1105  -14.2797 C   0  0  0  0  0  0  0  0  0  0  0  0
   22.3227  -20.1860  -15.4246 C   0  0  2  0  0  0  0  0  0  0  0  0
   23.7106  -19.8844  -15.7027 N   0  0  0  0  0  0  0  0  0  0  0  0
   21.6114  -18.9132  -15.1868 C   0  0  0  0  0  0  0  0  0  0  0  0
   22.0439  -18.0929  -14.3055 O   0  0  0  0  0  0  0  0  0  0  0  0
   20.4456  -18.4901  -15.8687 N   0  0  0  0  0  0  0  0  0  0  0  0
   19.7863  -17.2160  -15.5407 C   0  0  1  0  0  0  0  0  0  0  0  0
   20.5769  -16.1508  -16.2633 C   0  0  0  0  0  0  0  0  0  0  0  0
   20.3679  -16.2341  -17.7053 C   0  0  0  0  0  0  0  0  0  0  0  0
   21.2156  -16.9801  -18.4875 C   0  0  0  0  0  0  0  0  0  0  0  0
   21.0260  -17.0530  -19.8365 C   0  0  0  0  0  0  0  0  0  0  0  0
   19.9880  -16.3841  -20.4354 C   0  0  0  0  0  0  0  0  0  0  0  0
   19.1248  -15.6273  -19.6573 C   0  0  0  0  0  0  0  0  0  0  0  0
   19.3247  -15.5591  -18.2901 C   0  0  0  0  0  0  0  0  0  0  0  0
   18.3945  -17.1974  -16.0120 C   0  0  0  0  0  0  0  0  0  0  0  0
   17.5596  -16.1388  -15.7173 O   0  0  0  0  0  0  0  0  0  0  0  0
   17.9001  -18.1428  -16.7028 O   0  0  0  0  0  0  0  0  0  0  0  0
  2  1  1  1
  2  4  1  0
  3  2  1  0
  5  7  1  0
  5  4  1  0
  5  6  1  6
  7  8  2  0
  9 10  1  0
 10 12  1  0
 11 10  2  0
 13 12  1  1
 14 13  1  0
 14  7  1  0
 15 16  2  0
 15 13  1  0
 17 15  1  0
 18 26  1  0
 18 17  1  0
 18 19  1  6
 20 19  1  0
 21 20  2  0
 22 21  1  0
 23 22  2  0
 23 24  1  0
 24 25  2  0
 25 20  1  0
 26 27  1  0
 28 26  2  0
M  END
$$$$
