LNF.pdb
     RDKit          3D

 28 28  0  0  1  0  0  0  0  0999 V2000
   23.6083  -16.8186  -21.4606 C   0  0  0  0  0  0  0  0  0  0  0  0
   23.3391  -17.0223  -19.9603 C   0  0  1  0  0  0  0  0  0  0  0  0
   21.8438  -17.1601  -19.8316 C   0  0  0  0  0  0  0  0  0  0  0  0
   24.1169  -18.2336  -19.5703 C   0  0  0  0  0  0  0  0  0  0  0  0
   23.9789  -18.6606  -18.1418 C   0  0  2  0  0  0  0  0  0  0  0  0
   24.1894  -17.6523  -17.1647 N   0  0  0  0  0  0  0  0  0  0  0  0
   24.7594  -19.9130  -17.8710 C   0  0  0  0  0  0  0  0  0  0  0  0
   24.6761  -20.9184  -18.6127 O   0  0  0  0  0  0  0  0  0  0  0  0
   28.5871  -18.5219  -16.2950 N   0  0  0  0  0  0  0  0  0  0  0  0
   28.5513  -19.8696  -15.8685 C   0  0  0  0  0  0  0  0  0  0  0  0
   29.0991  -20.1463  -14.7491 O   0  0  0  0  0  0  0  0  0  0  0  0
   27.8940  -20.8729  -16.7163 C   0  0  0  0  0  0  0  0  0  0  0  0
   26.4593  -21.0724  -16.3885 C   0  0  2  0  0  0  0  0  0  0  0  0
   25.6128  -19.9548  -16.7473 N   0  0  0  0  0  0  0  0  0  0  0  0
   26.2940  -21.3330  -14.9438 C   0  0  0  0  0  0  0  0  0  0  0  0
   26.6349  -22.4647  -14.4542 O   0  0  0  0  0  0  0  0  0  0  0  0
   25.7730  -20.4130  -14.0030 N   0  0  0  0  0  0  0  0  0  0  0  0
   25.3414  -20.8475  -12.6649 C   0  0  1  0  0  0  0  0  0  0  0  0
   26.0618  -19.9443  -11.6917 C   0  0  0  0  0  0  0  0  0  0  0  0
   27.4670  -20.3202  -11.5732 C   0  0  0  0  0  0  0  0  0  0  0  0
   28.4120  -19.7371  -12.3819 C   0  0  0  0  0  0  0  0  0  0  0  0
   29.7248  -20.0928  -12.2776 C   0  0  0  0  0  0  0  0  0  0  0  0
   30.1246  -21.0372  -11.3655 C   0  0  0  0  0  0  0  0  0  0  0  0
   29.1807  -21.6338  -10.5431 C   0  0  0  0  0  0  0  0  0  0  0  0
   27.8517  -21.2669  -10.6559 C   0  0  0  0  0  0  0  0  0  0  0  0
   23.8900  -20.6924  -12.4948 C   0  0  0  0  0  0  0  0  0  0  0  0
   23.2527  -21.1693  -11.3675 O   0  0  0  0  0  0  0  0  0  0  0  0
   23.1627  -20.1206  -13.3662 O   0  0  0  0  0  0  0  0  0  0  0  0
  2  1  1  6
  2  4  1  0
  3  2  1  0
  5  7  1  0
  5  4  1  0
  5  6  1  1
  7  8  2  0
  9 10  1  0
 10 12  1  0
 11 10  2  0
 13 12  1  1
 14 13  1  0
 14  7  1  0
 15 16  2  0
 15 13  1  0
 17 15  1  0
 18 26  1  0
 18 17  1  0
 18 19  1  1
 20 19  1  0
 21 20  2  0
 22 21  1  0
 23 22  2  0
 23 24  1  0
 24 25  2  0
 25 20  1  0
 26 27  1  0
 28 26  2  0
M  END
$$$$
