LNF.pdb
     RDKit          3D

 28 28  0  0  1  0  0  0  0  0999 V2000
   26.8147  -11.4698  -18.4791 C   0  0  0  0  0  0  0  0  0  0  0  0
   27.7712  -10.5033  -19.1973 C   0  0  1  0  0  0  0  0  0  0  0  0
   26.9450   -9.2872  -19.5293 C   0  0  0  0  0  0  0  0  0  0  0  0
   28.8917  -10.2596  -18.2436 C   0  0  0  0  0  0  0  0  0  0  0  0
   29.8758   -9.2086  -18.6546 C   0  0  2  0  0  0  0  0  0  0  0  0
   30.5451   -9.4266  -19.8877 N   0  0  0  0  0  0  0  0  0  0  0  0
   30.8105   -8.8700  -17.5309 C   0  0  0  0  0  0  0  0  0  0  0  0
   30.4025   -8.6974  -16.3597 O   0  0  0  0  0  0  0  0  0  0  0  0
   35.1658   -8.2585  -14.8904 N   0  0  0  0  0  0  0  0  0  0  0  0
   35.5472   -8.8683  -16.1078 C   0  0  0  0  0  0  0  0  0  0  0  0
   36.7590   -9.2550  -16.2166 O   0  0  0  0  0  0  0  0  0  0  0  0
   34.5488   -9.0295  -17.1730 C   0  0  0  0  0  0  0  0  0  0  0  0
   33.2133   -8.4873  -16.8156 C   0  0  2  0  0  0  0  0  0  0  0  0
   32.1894   -8.7448  -17.8055 N   0  0  0  0  0  0  0  0  0  0  0  0
   33.2923   -7.0279  -16.6004 C   0  0  0  0  0  0  0  0  0  0  0  0
   33.5530   -6.2492  -17.5815 O   0  0  0  0  0  0  0  0  0  0  0  0
   33.0985   -6.3741  -15.3603 N   0  0  0  0  0  0  0  0  0  0  0  0
   33.1540   -4.9077  -15.2506 C   0  0  1  0  0  0  0  0  0  0  0  0
   32.1335   -4.5393  -14.1996 C   0  0  0  0  0  0  0  0  0  0  0  0
   32.1139   -3.0975  -13.9741 C   0  0  0  0  0  0  0  0  0  0  0  0
   31.4551   -2.2673  -14.8481 C   0  0  0  0  0  0  0  0  0  0  0  0
   31.4421   -0.9188  -14.6429 C   0  0  0  0  0  0  0  0  0  0  0  0
   32.0853   -0.3680  -13.5628 C   0  0  0  0  0  0  0  0  0  0  0  0
   32.7542   -1.1949  -12.6728 C   0  0  0  0  0  0  0  0  0  0  0  0
   32.7621   -2.5612  -12.8888 C   0  0  0  0  0  0  0  0  0  0  0  0
   34.4844   -4.4536  -14.8221 C   0  0  0  0  0  0  0  0  0  0  0  0
   35.0056   -3.2582  -15.2735 O   0  0  0  0  0  0  0  0  0  0  0  0
   35.2085   -5.1315  -14.0274 O   0  0  0  0  0  0  0  0  0  0  0  0
  2  1  1  1
  2  4  1  0
  3  2  1  0
  5  7  1  0
  5  4  1  0
  5  6  1  6
  7  8  2  0
  9 10  1  0
 10 12  1  0
 11 10  2  0
 13 12  1  6
 14 13  1  0
 14  7  1  0
 15 16  2  0
 15 13  1  0
 17 15  1  0
 18 26  1  0
 18 17  1  0
 18 19  1  1
 20 19  1  0
 21 20  2  0
 22 21  1  0
 23 22  2  0
 23 24  1  0
 24 25  2  0
 25 20  1  0
 26 27  1  0
 28 26  2  0
M  END
$$$$
