LNF.pdb
     RDKit          3D

 28 28  0  0  1  0  0  0  0  0999 V2000
   31.8682  -24.6015  -16.1421 C   0  0  0  0  0  0  0  0  0  0  0  0
   30.5689  -24.1010  -16.7949 C   0  0  1  0  0  0  0  0  0  0  0  0
   29.6100  -25.2621  -16.7322 C   0  0  0  0  0  0  0  0  0  0  0  0
   30.1562  -22.9030  -16.0082 C   0  0  0  0  0  0  0  0  0  0  0  0
   28.8988  -22.2297  -16.4641 C   0  0  2  0  0  0  0  0  0  0  0  0
   28.8578  -21.8395  -17.8285 N   0  0  0  0  0  0  0  0  0  0  0  0
   28.5012  -21.1284  -15.5259 C   0  0  0  0  0  0  0  0  0  0  0  0
   29.2018  -20.1015  -15.3757 O   0  0  0  0  0  0  0  0  0  0  0  0
   27.9172  -17.9190  -14.9618 N   0  0  0  0  0  0  0  0  0  0  0  0
   26.5729  -18.1069  -15.3579 C   0  0  0  0  0  0  0  0  0  0  0  0
   26.0619  -17.2329  -16.1354 O   0  0  0  0  0  0  0  0  0  0  0  0
   25.8382  -19.2807  -14.8679 C   0  0  0  0  0  0  0  0  0  0  0  0
   26.6693  -20.1934  -14.0422 C   0  0  2  0  0  0  0  0  0  0  0  0
   27.3008  -21.2564  -14.7944 N   0  0  0  0  0  0  0  0  0  0  0  0
   25.8534  -20.8047  -12.9731 C   0  0  0  0  0  0  0  0  0  0  0  0
   25.3026  -21.9443  -13.1602 O   0  0  0  0  0  0  0  0  0  0  0  0
   25.6093  -20.2300  -11.7031 N   0  0  0  0  0  0  0  0  0  0  0  0
   24.6968  -20.8638  -10.7380 C   0  0  1  0  0  0  0  0  0  0  0  0
   24.9581  -20.1761   -9.4187 C   0  0  0  0  0  0  0  0  0  0  0  0
   26.3561  -20.3176   -9.0245 C   0  0  0  0  0  0  0  0  0  0  0  0
   26.9996  -19.2953   -8.3703 C   0  0  0  0  0  0  0  0  0  0  0  0
   28.3084  -19.4230   -8.0078 C   0  0  0  0  0  0  0  0  0  0  0  0
   29.0047  -20.5717   -8.2894 C   0  0  0  0  0  0  0  0  0  0  0  0
   28.3671  -21.6114   -8.9495 C   0  0  0  0  0  0  0  0  0  0  0  0
   27.0396  -21.4731   -9.3133 C   0  0  0  0  0  0  0  0  0  0  0  0
   23.2920  -20.6682  -11.1227 C   0  0  0  0  0  0  0  0  0  0  0  0
   22.2768  -21.3301  -10.4625 O   0  0  0  0  0  0  0  0  0  0  0  0
   22.9502  -19.8919  -12.0692 O   0  0  0  0  0  0  0  0  0  0  0  0
  2  1  1  1
  2  4  1  0
  3  2  1  0
  5  7  1  0
  5  4  1  0
  5  6  1  6
  7  8  2  0
  9 10  1  0
 10 12  1  0
 11 10  2  0
 13 12  1  6
 14 13  1  0
 14  7  1  0
 15 16  2  0
 15 13  1  0
 17 15  1  0
 18 26  1  0
 18 17  1  0
 18 19  1  1
 20 19  1  0
 21 20  2  0
 22 21  1  0
 23 22  2  0
 23 24  1  0
 24 25  2  0
 25 20  1  0
 26 27  1  0
 28 26  2  0
M  END
$$$$
