LNF.pdb
     RDKit          3D

 28 28  0  0  1  0  0  0  0  0999 V2000
   20.9439  -29.3596  -14.3480 C   0  0  0  0  0  0  0  0  0  0  0  0
   21.3834  -29.8795  -15.7269 C   0  0  1  0  0  0  0  0  0  0  0  0
   22.3022  -28.8231  -16.2847 C   0  0  0  0  0  0  0  0  0  0  0  0
   22.0266  -31.2013  -15.4748 C   0  0  0  0  0  0  0  0  0  0  0  0
   22.6071  -31.8796  -16.6770 C   0  0  2  0  0  0  0  0  0  0  0  0
   21.6987  -32.1761  -17.7271 N   0  0  0  0  0  0  0  0  0  0  0  0
   23.4529  -33.0545  -16.2827 C   0  0  0  0  0  0  0  0  0  0  0  0
   22.9510  -34.1658  -15.9982 O   0  0  0  0  0  0  0  0  0  0  0  0
   24.8462  -34.4102  -18.4286 N   0  0  0  0  0  0  0  0  0  0  0  0
   26.2510  -34.4079  -18.2684 C   0  0  0  0  0  0  0  0  0  0  0  0
   26.9618  -34.5837  -19.3141 O   0  0  0  0  0  0  0  0  0  0  0  0
   26.8200  -34.2039  -16.9297 C   0  0  0  0  0  0  0  0  0  0  0  0
   25.7947  -33.9437  -15.8872 C   0  0  2  0  0  0  0  0  0  0  0  0
   24.8550  -32.8990  -16.2338 N   0  0  0  0  0  0  0  0  0  0  0  0
   26.4418  -33.5789  -14.6103 C   0  0  0  0  0  0  0  0  0  0  0  0
   26.6310  -32.3481  -14.3169 O   0  0  0  0  0  0  0  0  0  0  0  0
   26.8936  -34.4973  -13.6328 N   0  0  0  0  0  0  0  0  0  0  0  0
   26.6100  -34.2953  -12.2029 C   0  0  1  0  0  0  0  0  0  0  0  0
   25.7091  -33.0847  -12.1338 C   0  0  0  0  0  0  0  0  0  0  0  0
   25.3888  -32.7511  -10.7497 C   0  0  0  0  0  0  0  0  0  0  0  0
   26.3743  -32.3258   -9.8924 C   0  0  0  0  0  0  0  0  0  0  0  0
   26.0779  -32.0207   -8.5963 C   0  0  0  0  0  0  0  0  0  0  0  0
   24.7934  -32.1330   -8.1260 C   0  0  0  0  0  0  0  0  0  0  0  0
   23.7890  -32.5615   -8.9809 C   0  0  0  0  0  0  0  0  0  0  0  0
   24.0988  -32.8686  -10.2937 C   0  0  0  0  0  0  0  0  0  0  0  0
   25.9165  -35.4556  -11.6264 C   0  0  0  0  0  0  0  0  0  0  0  0
   26.2097  -35.8962  -10.3519 O   0  0  0  0  0  0  0  0  0  0  0  0
   25.0270  -36.1002  -12.2657 O   0  0  0  0  0  0  0  0  0  0  0  0
  2  1  1  1
  2  4  1  0
  3  2  1  0
  5  7  1  0
  5  4  1  0
  5  6  1  6
  7  8  2  0
  9 10  1  0
 10 12  1  0
 11 10  2  0
 13 12  1  6
 14 13  1  0
 14  7  1  0
 15 16  2  0
 15 13  1  0
 17 15  1  0
 18 26  1  0
 18 17  1  0
 18 19  1  6
 20 19  1  0
 21 20  2  0
 22 21  1  0
 23 22  2  0
 23 24  1  0
 24 25  2  0
 25 20  1  0
 26 27  1  0
 28 26  2  0
M  END
$$$$
