LNF.pdb
     RDKit          3D

 28 28  0  0  1  0  0  0  0  0999 V2000
   22.6856  -15.3638  -20.5041 C   0  0  0  0  0  0  0  0  0  0  0  0
   21.9690  -14.8333  -19.2512 C   0  0  1  0  0  0  0  0  0  0  0  0
   22.5476  -15.6074  -18.0947 C   0  0  0  0  0  0  0  0  0  0  0  0
   22.2379  -13.3666  -19.2218 C   0  0  0  0  0  0  0  0  0  0  0  0
   21.5669  -12.6064  -18.1200 C   0  0  2  0  0  0  0  0  0  0  0  0
   20.2067  -12.9310  -17.8745 N   0  0  0  0  0  0  0  0  0  0  0  0
   21.8034  -11.1310  -18.2552 C   0  0  0  0  0  0  0  0  0  0  0  0
   22.9520  -10.6558  -18.4068 O   0  0  0  0  0  0  0  0  0  0  0  0
   20.8299   -6.1055  -18.8256 N   0  0  0  0  0  0  0  0  0  0  0  0
   19.7165   -6.8023  -19.3491 C   0  0  0  0  0  0  0  0  0  0  0  0
   18.8499   -6.1238  -19.9959 O   0  0  0  0  0  0  0  0  0  0  0  0
   19.6101   -8.2511  -19.1317 C   0  0  0  0  0  0  0  0  0  0  0  0
   20.7637   -8.8219  -18.3907 C   0  0  2  0  0  0  0  0  0  0  0  0
   20.6963  -10.2563  -18.2113 N   0  0  0  0  0  0  0  0  0  0  0  0
   20.8798   -8.1939  -17.0586 C   0  0  0  0  0  0  0  0  0  0  0  0
   19.9333   -8.3191  -16.2070 O   0  0  0  0  0  0  0  0  0  0  0  0
   21.9850   -7.4331  -16.6086 N   0  0  0  0  0  0  0  0  0  0  0  0
   21.9961   -6.8141  -15.2735 C   0  0  1  0  0  0  0  0  0  0  0  0
   22.5274   -7.8742  -14.3378 C   0  0  0  0  0  0  0  0  0  0  0  0
   23.7673   -8.4486  -14.8504 C   0  0  0  0  0  0  0  0  0  0  0  0
   24.6300   -7.6834  -15.5969 C   0  0  0  0  0  0  0  0  0  0  0  0
   25.7858   -8.2208  -16.0830 C   0  0  0  0  0  0  0  0  0  0  0  0
   26.1070   -9.5321  -15.8363 C   0  0  0  0  0  0  0  0  0  0  0  0
   25.2447  -10.3157  -15.0842 C   0  0  0  0  0  0  0  0  0  0  0  0
   24.0749   -9.7623  -14.5952 C   0  0  0  0  0  0  0  0  0  0  0  0
   22.8794   -5.6402  -15.2359 C   0  0  0  0  0  0  0  0  0  0  0  0
   23.5468   -5.2178  -16.3675 O   0  0  0  0  0  0  0  0  0  0  0  0
   23.0689   -4.9682  -14.1738 O   0  0  0  0  0  0  0  0  0  0  0  0
  2  1  1  6
  2  4  1  0
  3  2  1  0
  5  7  1  0
  5  4  1  0
  5  6  1  6
  7  8  2  0
  9 10  1  0
 10 12  1  0
 11 10  2  0
 13 12  1  1
 14 13  1  0
 14  7  1  0
 15 16  2  0
 15 13  1  0
 17 15  1  0
 18 26  1  0
 18 17  1  0
 18 19  1  1
 20 19  1  0
 21 20  2  0
 22 21  1  0
 23 22  2  0
 23 24  1  0
 24 25  2  0
 25 20  1  0
 26 27  1  0
 28 26  2  0
M  END
$$$$
