LNF.pdb
     RDKit          3D

 28 28  0  0  1  0  0  0  0  0999 V2000
   19.2966  -13.0430  -19.9159 C   0  0  0  0  0  0  0  0  0  0  0  0
   19.6611  -12.7534  -18.4502 C   0  0  1  0  0  0  0  0  0  0  0  0
   21.0575  -13.2898  -18.2660 C   0  0  0  0  0  0  0  0  0  0  0  0
   19.5289  -11.2771  -18.2844 C   0  0  0  0  0  0  0  0  0  0  0  0
   19.8534  -10.7460  -16.9225 C   0  0  2  0  0  0  0  0  0  0  0  0
   19.2912  -11.4514  -15.8260 N   0  0  0  0  0  0  0  0  0  0  0  0
   19.6243   -9.2651  -16.8478 C   0  0  0  0  0  0  0  0  0  0  0  0
   20.1010   -8.4779  -17.6968 O   0  0  0  0  0  0  0  0  0  0  0  0
   15.2675   -5.8386  -16.3745 N   0  0  0  0  0  0  0  0  0  0  0  0
   16.1825   -6.9162  -16.4056 C   0  0  0  0  0  0  0  0  0  0  0  0
   16.1965   -7.6449  -17.4537 O   0  0  0  0  0  0  0  0  0  0  0  0
   17.0629   -7.1431  -15.2519 C   0  0  0  0  0  0  0  0  0  0  0  0
   18.4836   -7.3567  -15.6280 C   0  0  2  0  0  0  0  0  0  0  0  0
   18.8470   -8.7482  -15.7889 N   0  0  0  0  0  0  0  0  0  0  0  0
   19.3782   -6.7589  -14.6157 C   0  0  0  0  0  0  0  0  0  0  0  0
   19.4452   -7.2641  -13.4422 O   0  0  0  0  0  0  0  0  0  0  0  0
   20.2081   -5.6316  -14.8238 N   0  0  0  0  0  0  0  0  0  0  0  0
   21.0934   -5.1258  -13.7626 C   0  0  1  0  0  0  0  0  0  0  0  0
   22.1928   -6.1527  -13.6261 C   0  0  0  0  0  0  0  0  0  0  0  0
   22.9777   -6.2428  -14.8532 C   0  0  0  0  0  0  0  0  0  0  0  0
   23.9251   -5.2911  -15.1425 C   0  0  0  0  0  0  0  0  0  0  0  0
   24.6544   -5.3698  -16.2926 C   0  0  0  0  0  0  0  0  0  0  0  0
   24.4556   -6.3982  -17.1795 C   0  0  0  0  0  0  0  0  0  0  0  0
   23.5022   -7.3656  -16.8997 C   0  0  0  0  0  0  0  0  0  0  0  0
   22.7673   -7.2777  -15.7309 C   0  0  0  0  0  0  0  0  0  0  0  0
   21.6780   -3.8278  -14.1276 C   0  0  0  0  0  0  0  0  0  0  0  0
   22.4631   -3.1270  -13.2349 O   0  0  0  0  0  0  0  0  0  0  0  0
   21.4899   -3.2959  -15.2665 O   0  0  0  0  0  0  0  0  0  0  0  0
  2  1  1  6
  2  4  1  0
  3  2  1  0
  5  7  1  0
  5  4  1  0
  5  6  1  1
  7  8  2  0
  9 10  1  0
 10 12  1  0
 11 10  2  0
 13 12  1  1
 14 13  1  0
 14  7  1  0
 15 16  2  0
 15 13  1  0
 17 15  1  0
 18 26  1  0
 18 17  1  0
 18 19  1  6
 20 19  1  0
 21 20  2  0
 22 21  1  0
 23 22  2  0
 23 24  1  0
 24 25  2  0
 25 20  1  0
 26 27  1  0
 28 26  2  0
M  END
$$$$
