LNF.pdb
     RDKit          3D

 28 28  0  0  1  0  0  0  0  0999 V2000
   14.4729  -13.7618  -17.9028 C   0  0  0  0  0  0  0  0  0  0  0  0
   15.4520  -14.0425  -16.7505 C   0  0  1  0  0  0  0  0  0  0  0  0
   15.1245  -13.0291  -15.6841 C   0  0  0  0  0  0  0  0  0  0  0  0
   15.2198  -15.4628  -16.3591 C   0  0  0  0  0  0  0  0  0  0  0  0
   16.0576  -15.9682  -15.2257 C   0  0  2  0  0  0  0  0  0  0  0  0
   17.4624  -15.8268  -15.3750 N   0  0  0  0  0  0  0  0  0  0  0  0
   15.6464  -17.3533  -14.8212 C   0  0  0  0  0  0  0  0  0  0  0  0
   16.1361  -18.3727  -15.3586 O   0  0  0  0  0  0  0  0  0  0  0  0
   15.0834  -21.7882  -13.8210 N   0  0  0  0  0  0  0  0  0  0  0  0
   15.8366  -20.6199  -13.5620 C   0  0  0  0  0  0  0  0  0  0  0  0
   16.9709  -20.5126  -14.1376 O   0  0  0  0  0  0  0  0  0  0  0  0
   15.2882  -19.5982  -12.6603 C   0  0  0  0  0  0  0  0  0  0  0  0
   14.2190  -18.7763  -13.2821 C   0  0  2  0  0  0  0  0  0  0  0  0
   14.6802  -17.5076  -13.8038 N   0  0  0  0  0  0  0  0  0  0  0  0
   13.1420  -18.5113  -12.3063 C   0  0  0  0  0  0  0  0  0  0  0  0
   12.6029  -19.4806  -11.6686 O   0  0  0  0  0  0  0  0  0  0  0  0
   12.6232  -17.2330  -11.9905 N   0  0  0  0  0  0  0  0  0  0  0  0
   11.4198  -17.0791  -11.1576 C   0  0  1  0  0  0  0  0  0  0  0  0
   11.6306  -15.8081  -10.3688 C   0  0  0  0  0  0  0  0  0  0  0  0
   10.4357  -15.4640   -9.6049 C   0  0  0  0  0  0  0  0  0  0  0  0
   10.2165  -16.0236   -8.3697 C   0  0  0  0  0  0  0  0  0  0  0  0
    9.0964  -15.7086   -7.6576 C   0  0  0  0  0  0  0  0  0  0  0  0
    8.1702  -14.8296   -8.1608 C   0  0  0  0  0  0  0  0  0  0  0  0
    8.3792  -14.2576   -9.4067 C   0  0  0  0  0  0  0  0  0  0  0  0
    9.5179  -14.5828  -10.1217 C   0  0  0  0  0  0  0  0  0  0  0  0
   10.2112  -16.9483  -11.9834 C   0  0  0  0  0  0  0  0  0  0  0  0
    8.9936  -17.4221  -11.5392 O   0  0  0  0  0  0  0  0  0  0  0  0
   10.2301  -16.4013  -13.1305 O   0  0  0  0  0  0  0  0  0  0  0  0
  2  1  1  6
  2  4  1  0
  3  2  1  0
  5  7  1  0
  5  4  1  0
  5  6  1  6
  7  8  2  0
  9 10  1  0
 10 12  1  0
 11 10  2  0
 13 12  1  1
 14 13  1  0
 14  7  1  0
 15 16  2  0
 15 13  1  0
 17 15  1  0
 18 26  1  0
 18 17  1  0
 18 19  1  6
 20 19  1  0
 21 20  2  0
 22 21  1  0
 23 22  2  0
 23 24  1  0
 24 25  2  0
 25 20  1  0
 26 27  1  0
 28 26  2  0
M  END
$$$$
