SRT.pdb
     RDKit          3D

 25 24  0  0  1  0  0  0  0  0999 V2000
   17.9199  -10.6304  -13.4294 O   0  0  0  0  0  0  0  0  0  0  0  0
   17.5911  -11.0204  -12.1429 C   0  0  0  0  0  0  0  0  0  0  0  0
   16.1908  -10.5311  -11.7573 C   0  0  2  0  0  0  0  0  0  0  0  0
   15.2916  -10.9142  -12.8236 N   0  0  0  0  0  0  0  0  0  0  0  0
   16.2926   -9.0524  -11.6471 C   0  0  0  0  0  0  0  0  0  0  0  0
   16.0026   -8.3590  -12.6522 O   0  0  0  0  0  0  0  0  0  0  0  0
   13.3360   -4.9388   -5.3443 N   0  0  0  0  0  0  0  0  0  0  0  0
   12.8234   -5.9505   -6.1729 C   0  0  0  0  0  0  0  0  0  0  0  0
   11.6849   -6.4748   -5.8660 N   0  0  0  0  0  0  0  0  0  0  0  0
   13.5340   -6.3872   -7.3169 N   0  0  0  0  0  0  0  0  0  0  0  0
   14.0698   -5.4421   -8.2595 C   0  0  0  0  0  0  0  0  0  0  0  0
   14.6524   -6.1184   -9.4821 C   0  0  0  0  0  0  0  0  0  0  0  0
   16.0777   -6.4345   -9.2055 C   0  0  0  0  0  0  0  0  0  0  0  0
   16.8513   -6.9482  -10.3768 C   0  0  2  0  0  0  0  0  0  0  0  0
   16.7029   -8.3882  -10.4573 N   0  0  0  0  0  0  0  0  0  0  0  0
   18.2719   -6.5366  -10.3692 C   0  0  0  0  0  0  0  0  0  0  0  0
   18.9520   -6.4212   -9.3134 O   0  0  0  0  0  0  0  0  0  0  0  0
   11.2820   -7.2130   -6.4747 C   0  0  0  0  0  0  0  0  0  0  0  0
   21.0979   -8.2774  -11.3329 C   0  0  2  0  0  0  0  0  0  0  0  0
   21.1113   -7.1156  -12.3107 O   0  0  0  0  0  0  0  0  0  0  0  0
   20.5814   -7.4927  -13.5417 C   0  0  2  0  0  0  0  0  0  0  0  0
   20.3306   -5.9640  -11.7038 N   0  0  0  0  0  0  0  0  0  0  0  0
   18.9198   -6.2527  -11.6024 C   0  0  0  0  0  0  0  0  0  0  0  0
   20.6149   -4.6843  -12.3731 O   0  0  0  0  0  0  0  0  0  0  0  0
   19.7751   -3.9611  -12.9465 O   0  0  0  0  0  0  0  0  0  0  0  0
  1  2  1  0
  3  2  1  0
  3  4  1  6
  5  3  1  0
  5  6  2  0
  7  8  1  0
  8  9  2  0
  8 10  1  0
 10 11  1  0
 11 12  1  0
 12 13  1  0
 14 13  1  1
 14 15  1  0
 15  5  1  0
 16 17  2  0
 16 14  1  0
 19 18  1  6
 19 21  1  0
 20 19  1  0
 21 22  1  1
 21 23  1  0
 22 16  1  0
 23 24  2  0
 23 25  1  0
M  END
$$$$
