SRT.pdb
     RDKit          3D

 25 24  0  0  1  0  0  0  0  0999 V2000
   19.4421  -26.6875    4.5718 O   0  0  0  0  0  0  0  0  0  0  0  0
   19.5118  -25.3757    5.0074 C   0  0  0  0  0  0  0  0  0  0  0  0
   18.3775  -24.5341    4.4125 C   0  0  2  0  0  0  0  0  0  0  0  0
   18.5369  -24.5507    2.9748 N   0  0  0  0  0  0  0  0  0  0  0  0
   18.5598  -23.1631    4.9564 C   0  0  0  0  0  0  0  0  0  0  0  0
   19.3061  -22.3695    4.3333 O   0  0  0  0  0  0  0  0  0  0  0  0
   15.7532  -17.4773    2.7002 N   0  0  0  0  0  0  0  0  0  0  0  0
   15.0589  -18.6964    2.7686 C   0  0  0  0  0  0  0  0  0  0  0  0
   14.6411  -19.2254    1.6684 N   0  0  0  0  0  0  0  0  0  0  0  0
   14.8212  -19.3323    4.0110 N   0  0  0  0  0  0  0  0  0  0  0  0
   15.4875  -18.8907    5.2067 C   0  0  0  0  0  0  0  0  0  0  0  0
   16.8586  -19.5133    5.3627 C   0  0  0  0  0  0  0  0  0  0  0  0
   16.7589  -20.6201    6.3490 C   0  0  0  0  0  0  0  0  0  0  0  0
   18.0385  -21.3434    6.6208 C   0  0  2  0  0  0  0  0  0  0  0  0
   17.9286  -22.7098    6.1486 N   0  0  0  0  0  0  0  0  0  0  0  0
   18.4611  -21.2782    8.0367 C   0  0  0  0  0  0  0  0  0  0  0  0
   18.0398  -22.0729    8.9207 O   0  0  0  0  0  0  0  0  0  0  0  0
   14.1891  -20.1598    1.6904 C   0  0  0  0  0  0  0  0  0  0  0  0
   21.8746  -21.5672    9.5130 C   0  0  2  0  0  0  0  0  0  0  0  0
   21.3905  -20.1711    9.8627 O   0  0  0  0  0  0  0  0  0  0  0  0
   21.9466  -19.2214    9.0100 C   0  0  2  0  0  0  0  0  0  0  0  0
   19.8742  -20.1537    9.7934 N   0  0  0  0  0  0  0  0  0  0  0  0
   19.3869  -20.2775    8.4402 C   0  0  0  0  0  0  0  0  0  0  0  0
   19.2966  -19.0089   10.5163 O   0  0  0  0  0  0  0  0  0  0  0  0
   19.5372  -18.7008   11.7013 O   0  0  0  0  0  0  0  0  0  0  0  0
  1  2  1  0
  3  2  1  0
  3  4  1  6
  5  3  1  0
  5  6  2  0
  7  8  1  0
  8  9  2  0
  8 10  1  0
 10 11  1  0
 11 12  1  0
 12 13  1  0
 14 13  1  1
 14 15  1  0
 15  5  1  0
 16 17  2  0
 16 14  1  0
 19 18  1  1
 19 21  1  0
 20 19  1  0
 21 22  1  1
 21 23  1  0
 22 16  1  0
 23 24  2  0
 23 25  1  0
M  END
$$$$
