SRT.pdb
     RDKit          3D

 25 24  0  0  1  0  0  0  0  0999 V2000
   21.3459  -13.6012  -16.1538 O   0  0  0  0  0  0  0  0  0  0  0  0
   20.9879  -12.2751  -16.3234 C   0  0  0  0  0  0  0  0  0  0  0  0
   19.5038  -12.0580  -16.0083 C   0  0  2  0  0  0  0  0  0  0  0  0
   18.7426  -12.6744  -17.0727 N   0  0  0  0  0  0  0  0  0  0  0  0
   19.3033  -10.5856  -15.9888 C   0  0  0  0  0  0  0  0  0  0  0  0
   19.5787   -9.9332  -17.0250 O   0  0  0  0  0  0  0  0  0  0  0  0
   14.1808  -11.0345  -13.6048 N   0  0  0  0  0  0  0  0  0  0  0  0
   13.3810  -10.3031  -14.4981 C   0  0  0  0  0  0  0  0  0  0  0  0
   12.3483  -10.8827  -15.0106 N   0  0  0  0  0  0  0  0  0  0  0  0
   13.6959   -8.9634  -14.8310 N   0  0  0  0  0  0  0  0  0  0  0  0
   14.8606   -8.3204  -14.2846 C   0  0  0  0  0  0  0  0  0  0  0  0
   16.1419   -8.8204  -14.9172 C   0  0  0  0  0  0  0  0  0  0  0  0
   17.2840   -8.1236  -14.2707 C   0  0  0  0  0  0  0  0  0  0  0  0
   18.6273   -8.4451  -14.8421 C   0  0  2  0  0  0  0  0  0  0  0  0
   18.8145   -9.8828  -14.8520 N   0  0  0  0  0  0  0  0  0  0  0  0
   19.7384   -7.7458  -14.1607 C   0  0  0  0  0  0  0  0  0  0  0  0
   20.0919   -7.9997  -12.9770 O   0  0  0  0  0  0  0  0  0  0  0  0
   11.7408  -10.3564  -15.6677 C   0  0  0  0  0  0  0  0  0  0  0  0
   23.2946   -7.6187  -14.9520 C   0  0  2  0  0  0  0  0  0  0  0  0
   22.8403   -6.1744  -15.0688 O   0  0  0  0  0  0  0  0  0  0  0  0
   22.6631   -5.8128  -16.4016 C   0  0  2  0  0  0  0  0  0  0  0  0
   21.5567   -6.0057  -14.2764 N   0  0  0  0  0  0  0  0  0  0  0  0
   20.4549   -6.7350  -14.8580 C   0  0  0  0  0  0  0  0  0  0  0  0
   21.2442   -4.5910  -14.0166 O   0  0  0  0  0  0  0  0  0  0  0  0
   20.2395   -3.9797  -14.4337 O   0  0  0  0  0  0  0  0  0  0  0  0
  1  2  1  0
  3  2  1  0
  3  4  1  6
  5  3  1  0
  5  6  2  0
  7  8  1  0
  8  9  2  0
  8 10  1  0
 10 11  1  0
 11 12  1  0
 12 13  1  0
 14 13  1  1
 14 15  1  0
 15  5  1  0
 16 17  2  0
 16 14  1  0
 19 18  1  6
 19 21  1  0
 20 19  1  0
 21 22  1  1
 21 23  1  0
 22 16  1  0
 23 24  2  0
 23 25  1  0
M  END
$$$$
