SRT.pdb
     RDKit          3D

 25 24  0  0  1  0  0  0  0  0999 V2000
   26.9433  -19.7155  -17.2904 O   0  0  0  0  0  0  0  0  0  0  0  0
   28.0608  -20.1567  -16.6034 C   0  0  0  0  0  0  0  0  0  0  0  0
   27.9136  -21.6259  -16.1929 C   0  0  2  0  0  0  0  0  0  0  0  0
   27.6552  -22.3858  -17.3963 N   0  0  0  0  0  0  0  0  0  0  0  0
   26.7515  -21.6753  -15.2678 C   0  0  0  0  0  0  0  0  0  0  0  0
   25.7728  -22.3968  -15.5789 O   0  0  0  0  0  0  0  0  0  0  0  0
   25.1490  -22.0586   -7.2982 N   0  0  0  0  0  0  0  0  0  0  0  0
   24.2397  -21.0176   -7.5478 C   0  0  0  0  0  0  0  0  0  0  0  0
   23.0838  -21.0643   -6.9760 N   0  0  0  0  0  0  0  0  0  0  0  0
   24.5782  -19.9422   -8.4043 N   0  0  0  0  0  0  0  0  0  0  0  0
   25.5622  -20.1044   -9.4406 C   0  0  0  0  0  0  0  0  0  0  0  0
   24.9566  -20.6093  -10.7330 C   0  0  0  0  0  0  0  0  0  0  0  0
   26.0349  -20.6930  -11.7519 C   0  0  0  0  0  0  0  0  0  0  0  0
   25.5754  -21.0293  -13.1340 C   0  0  2  0  0  0  0  0  0  0  0  0
   26.6974  -20.9438  -14.0482 N   0  0  0  0  0  0  0  0  0  0  0  0
   24.4277  -20.2135  -13.5866 C   0  0  0  0  0  0  0  0  0  0  0  0
   24.4757  -18.9587  -13.7040 O   0  0  0  0  0  0  0  0  0  0  0  0
   22.4083  -20.2903   -7.1258 C   0  0  0  0  0  0  0  0  0  0  0  0
   22.6170  -20.1537  -16.6983 C   0  0  2  0  0  0  0  0  0  0  0  0
   21.5418  -20.5326  -15.6952 O   0  0  0  0  0  0  0  0  0  0  0  0
   21.2519  -21.8926  -15.7634 C   0  0  2  0  0  0  0  0  0  0  0  0
   22.0148  -20.1386  -14.3077 N   0  0  0  0  0  0  0  0  0  0  0  0
   23.2020  -20.8572  -13.9098 C   0  0  0  0  0  0  0  0  0  0  0  0
   20.9339  -20.2055  -13.3107 O   0  0  0  0  0  0  0  0  0  0  0  0
   20.9362  -20.9115  -12.2819 O   0  0  0  0  0  0  0  0  0  0  0  0
  1  2  1  0
  3  2  1  0
  3  4  1  6
  5  3  1  0
  5  6  2  0
  7  8  1  0
  8  9  2  0
  8 10  1  0
 10 11  1  0
 11 12  1  0
 12 13  1  0
 14 13  1  1
 14 15  1  0
 15  5  1  0
 16 17  2  0
 16 14  1  0
 19 18  1  6
 19 21  1  0
 20 19  1  0
 21 22  1  1
 21 23  1  0
 22 16  1  0
 23 24  2  0
 23 25  1  0
M  END
$$$$
