SRT.pdb
     RDKit          3D

 25 24  0  0  1  0  0  0  0  0999 V2000
   26.4036  -13.4418  -17.2822 O   0  0  0  0  0  0  0  0  0  0  0  0
   25.7274  -12.2641  -17.5487 C   0  0  0  0  0  0  0  0  0  0  0  0
   26.0697  -11.1837  -16.5170 C   0  0  2  0  0  0  0  0  0  0  0  0
   26.0035  -11.7998  -15.2099 N   0  0  0  0  0  0  0  0  0  0  0  0
   25.0295  -10.1330  -16.6679 C   0  0  0  0  0  0  0  0  0  0  0  0
   24.9700   -9.5054  -17.7530 O   0  0  0  0  0  0  0  0  0  0  0  0
   17.3768  -12.3518  -15.2694 N   0  0  0  0  0  0  0  0  0  0  0  0
   18.2387  -12.9180  -16.2230 C   0  0  0  0  0  0  0  0  0  0  0  0
   17.8501  -13.9794  -16.8456 N   0  0  0  0  0  0  0  0  0  0  0  0
   19.5027  -12.3424  -16.4977 N   0  0  0  0  0  0  0  0  0  0  0  0
   19.9588  -11.1832  -15.7787 C   0  0  0  0  0  0  0  0  0  0  0  0
   21.2837  -10.6690  -16.3002 C   0  0  0  0  0  0  0  0  0  0  0  0
   21.7203   -9.5430  -15.4347 C   0  0  0  0  0  0  0  0  0  0  0  0
   22.9985   -8.8865  -15.8465 C   0  0  2  0  0  0  0  0  0  0  0  0
   24.1000   -9.8066  -15.6409 N   0  0  0  0  0  0  0  0  0  0  0  0
   23.2314   -7.5854  -15.1827 C   0  0  0  0  0  0  0  0  0  0  0  0
   23.8533   -7.4679  -14.0919 O   0  0  0  0  0  0  0  0  0  0  0  0
   18.4863  -14.4317  -17.5301 C   0  0  0  0  0  0  0  0  0  0  0  0
   24.8346   -4.5184  -16.6499 C   0  0  2  0  0  0  0  0  0  0  0  0
   23.4455   -4.0820  -16.2188 O   0  0  0  0  0  0  0  0  0  0  0  0
   22.5953   -3.9668  -17.3153 C   0  0  2  0  0  0  0  0  0  0  0  0
   22.9141   -5.0862  -15.2122 N   0  0  0  0  0  0  0  0  0  0  0  0
   22.7377   -6.3979  -15.7887 C   0  0  0  0  0  0  0  0  0  0  0  0
   21.7164   -4.5933  -14.5127 O   0  0  0  0  0  0  0  0  0  0  0  0
   20.5863   -5.1214  -14.5453 O   0  0  0  0  0  0  0  0  0  0  0  0
  1  2  1  0
  3  2  1  0
  3  4  1  1
  5  3  1  0
  5  6  2  0
  7  8  1  0
  8  9  2  0
  8 10  1  0
 10 11  1  0
 11 12  1  0
 12 13  1  0
 14 13  1  1
 14 15  1  0
 15  5  1  0
 16 17  2  0
 16 14  1  0
 19 18  1  6
 19 21  1  0
 20 19  1  0
 21 22  1  1
 21 23  1  0
 22 16  1  0
 23 24  2  0
 23 25  1  0
M  END
$$$$
