SRT.pdb
     RDKit          3D

 25 24  0  0  1  0  0  0  0  0999 V2000
   28.1131  -18.1477  -18.3926 O   0  0  0  0  0  0  0  0  0  0  0  0
   27.2101  -18.9435  -17.7096 C   0  0  0  0  0  0  0  0  0  0  0  0
   27.8924  -20.1930  -17.1423 C   0  0  2  0  0  0  0  0  0  0  0  0
   28.0353  -21.1370  -18.2291 N   0  0  0  0  0  0  0  0  0  0  0  0
   26.9771  -20.7161  -16.0947 C   0  0  0  0  0  0  0  0  0  0  0  0
   26.0555  -21.4934  -16.4432 O   0  0  0  0  0  0  0  0  0  0  0  0
   23.5470  -20.1834   -9.5666 N   0  0  0  0  0  0  0  0  0  0  0  0
   24.3215  -20.8701   -8.6171 C   0  0  0  0  0  0  0  0  0  0  0  0
   23.7364  -21.3161   -7.5569 N   0  0  0  0  0  0  0  0  0  0  0  0
   25.7092  -21.0702   -8.8138 N   0  0  0  0  0  0  0  0  0  0  0  0
   26.3846  -20.4999   -9.9484 C   0  0  0  0  0  0  0  0  0  0  0  0
   25.7231  -20.8740  -11.2577 C   0  0  0  0  0  0  0  0  0  0  0  0
   26.5892  -20.4027  -12.3692 C   0  0  0  0  0  0  0  0  0  0  0  0
   26.0742  -20.6963  -13.7414 C   0  0  2  0  0  0  0  0  0  0  0  0
   27.0973  -20.3770  -14.7179 N   0  0  0  0  0  0  0  0  0  0  0  0
   24.7908  -20.0259  -14.0434 C   0  0  0  0  0  0  0  0  0  0  0  0
   24.7148  -18.9080  -14.6222 O   0  0  0  0  0  0  0  0  0  0  0  0
   24.2856  -21.8523   -6.8579 C   0  0  0  0  0  0  0  0  0  0  0  0
   21.5239  -21.5330  -16.2810 C   0  0  2  0  0  0  0  0  0  0  0  0
   22.3573  -20.3630  -15.7887 O   0  0  0  0  0  0  0  0  0  0  0  0
   21.9071  -19.1642  -16.3351 C   0  0  1  0  0  0  0  0  0  0  0  0
   22.3007  -20.3334  -14.2721 N   0  0  0  0  0  0  0  0  0  0  0  0
   23.5726  -20.6570  -13.6707 C   0  0  0  0  0  0  0  0  0  0  0  0
   21.1863  -21.1346  -13.7405 O   0  0  0  0  0  0  0  0  0  0  0  0
   21.2961  -22.1256  -12.9902 O   0  0  0  0  0  0  0  0  0  0  0  0
  1  2  1  0
  3  2  1  0
  3  4  1  6
  5  3  1  0
  5  6  2  0
  7  8  1  0
  8  9  2  0
  8 10  1  0
 10 11  1  0
 11 12  1  0
 12 13  1  0
 14 13  1  1
 14 15  1  0
 15  5  1  0
 16 17  2  0
 16 14  1  0
 19 18  1  6
 19 21  1  0
 20 19  1  0
 21 22  1  6
 21 23  1  0
 22 16  1  0
 23 24  2  0
 23 25  1  0
M  END
$$$$
