SRT.pdb
     RDKit          3D

 25 24  0  0  1  0  0  0  0  0999 V2000
   31.5140  -23.0466   -9.1534 O   0  0  0  0  0  0  0  0  0  0  0  0
   30.6298  -22.1567   -9.7378 C   0  0  0  0  0  0  0  0  0  0  0  0
   31.0910  -21.7619  -11.1450 C   0  0  2  0  0  0  0  0  0  0  0  0
   32.2990  -20.9797  -10.9989 N   0  0  0  0  0  0  0  0  0  0  0  0
   29.9900  -20.9458  -11.7199 C   0  0  0  0  0  0  0  0  0  0  0  0
   29.9540  -19.7204  -11.4509 O   0  0  0  0  0  0  0  0  0  0  0  0
   25.0488  -17.8121  -17.0568 N   0  0  0  0  0  0  0  0  0  0  0  0
   25.3651  -19.0324  -17.6762 C   0  0  0  0  0  0  0  0  0  0  0  0
   24.4682  -19.5951  -18.4138 N   0  0  0  0  0  0  0  0  0  0  0  0
   26.6345  -19.6338  -17.4987 N   0  0  0  0  0  0  0  0  0  0  0  0
   27.5614  -19.1286  -16.5218 C   0  0  0  0  0  0  0  0  0  0  0  0
   27.1242  -19.4331  -15.1048 C   0  0  0  0  0  0  0  0  0  0  0  0
   28.1236  -20.3478  -14.4947 C   0  0  0  0  0  0  0  0  0  0  0  0
   27.8718  -20.6969  -13.0632 C   0  0  2  0  0  0  0  0  0  0  0  0
   28.9771  -21.4884  -12.5593 N   0  0  0  0  0  0  0  0  0  0  0  0
   26.5683  -21.3593  -12.8404 C   0  0  0  0  0  0  0  0  0  0  0  0
   26.4570  -22.5259  -12.3745 O   0  0  0  0  0  0  0  0  0  0  0  0
   24.6678  -20.5175  -18.8464 C   0  0  0  0  0  0  0  0  0  0  0  0
   25.4269  -21.7570  -10.6119 C   0  0  2  0  0  0  0  0  0  0  0  0
   24.2107  -20.9396  -11.0100 O   0  0  0  0  0  0  0  0  0  0  0  0
   24.2929  -19.6441  -10.5065 C   0  0  2  0  0  0  0  0  0  0  0  0
   24.1047  -20.9369  -12.5242 N   0  0  0  0  0  0  0  0  0  0  0  0
   25.3710  -20.6628  -13.1609 C   0  0  0  0  0  0  0  0  0  0  0  0
   23.0140  -20.0732  -13.0048 O   0  0  0  0  0  0  0  0  0  0  0  0
   23.1524  -19.0435  -13.6959 O   0  0  0  0  0  0  0  0  0  0  0  0
  1  2  1  0
  3  2  1  0
  3  4  1  1
  5  3  1  0
  5  6  2  0
  7  8  1  0
  8  9  2  0
  8 10  1  0
 10 11  1  0
 11 12  1  0
 12 13  1  0
 14 13  1  6
 14 15  1  0
 15  5  1  0
 16 17  2  0
 16 14  1  0
 19 18  1  1
 19 21  1  0
 20 19  1  0
 21 22  1  6
 21 23  1  0
 22 16  1  0
 23 24  2  0
 23 25  1  0
M  END
$$$$
