SRT.pdb
     RDKit          3D

 25 24  0  0  1  0  0  0  0  0999 V2000
   18.3818  -17.8622  -14.0473 O   0  0  0  0  0  0  0  0  0  0  0  0
   18.2131  -19.0576  -13.3707 C   0  0  0  0  0  0  0  0  0  0  0  0
   19.1641  -20.1344  -13.9043 C   0  0  2  0  0  0  0  0  0  0  0  0
   18.8701  -21.3596  -13.1937 N   0  0  0  0  0  0  0  0  0  0  0  0
   20.5365  -19.6531  -13.5980 C   0  0  0  0  0  0  0  0  0  0  0  0
   20.9237  -19.6778  -12.4045 O   0  0  0  0  0  0  0  0  0  0  0  0
   26.9397  -21.2965  -16.2076 N   0  0  0  0  0  0  0  0  0  0  0  0
   27.5581  -21.6565  -14.9990 C   0  0  0  0  0  0  0  0  0  0  0  0
   28.8475  -21.6822  -14.9551 N   0  0  0  0  0  0  0  0  0  0  0  0
   26.7904  -21.9836  -13.8552 N   0  0  0  0  0  0  0  0  0  0  0  0
   25.3595  -21.8383  -13.8593 C   0  0  0  0  0  0  0  0  0  0  0  0
   24.9278  -20.4189  -14.1608 C   0  0  0  0  0  0  0  0  0  0  0  0
   23.4489  -20.3452  -14.0378 C   0  0  0  0  0  0  0  0  0  0  0  0
   22.8523  -19.0130  -14.3600 C   0  0  2  0  0  0  0  0  0  0  0  0
   21.4296  -19.1667  -14.5934 N   0  0  0  0  0  0  0  0  0  0  0  0
   23.5268  -18.3225  -15.4806 C   0  0  0  0  0  0  0  0  0  0  0  0
   23.3575  -18.6393  -16.6895 O   0  0  0  0  0  0  0  0  0  0  0  0
   29.3223  -22.0655  -14.1151 C   0  0  0  0  0  0  0  0  0  0  0  0
   26.2866  -14.4255  -16.8522 C   0  0  1  0  0  0  0  0  0  0  0  0
   25.6834  -15.1986  -15.6928 O   0  0  0  0  0  0  0  0  0  0  0  0
   24.7389  -14.4302  -15.0177 C   0  0  1  0  0  0  0  0  0  0  0  0
   25.0699  -16.4780  -16.2319 N   0  0  0  0  0  0  0  0  0  0  0  0
   24.4131  -17.2465  -15.2013 C   0  0  0  0  0  0  0  0  0  0  0  0
   26.0298  -17.2665  -17.0217 O   0  0  0  0  0  0  0  0  0  0  0  0
   26.5987  -18.3106  -16.6432 O   0  0  0  0  0  0  0  0  0  0  0  0
  1  2  1  0
  3  2  1  0
  3  4  1  1
  5  3  1  0
  5  6  2  0
  7  8  1  0
  8  9  2  0
  8 10  1  0
 10 11  1  0
 11 12  1  0
 12 13  1  0
 14 13  1  6
 14 15  1  0
 15  5  1  0
 16 17  2  0
 16 14  1  0
 19 18  1  1
 19 21  1  0
 20 19  1  0
 21 22  1  1
 21 23  1  0
 22 16  1  0
 23 24  2  0
 23 25  1  0
M  END
$$$$
