SRT.pdb
     RDKit          3D

 25 24  0  0  1  0  0  0  0  0999 V2000
   26.8464  -19.2352  -16.9359 O   0  0  0  0  0  0  0  0  0  0  0  0
   25.8456  -20.0408  -16.4216 C   0  0  0  0  0  0  0  0  0  0  0  0
   26.2120  -20.5551  -15.0251 C   0  0  2  0  0  0  0  0  0  0  0  0
   27.1050  -21.6795  -15.2006 N   0  0  0  0  0  0  0  0  0  0  0  0
   24.9325  -20.9792  -14.3991 C   0  0  0  0  0  0  0  0  0  0  0  0
   24.5981  -22.1857  -14.4861 O   0  0  0  0  0  0  0  0  0  0  0  0
   23.3658  -21.7695   -8.1259 N   0  0  0  0  0  0  0  0  0  0  0  0
   22.0639  -21.4021   -7.7477 C   0  0  0  0  0  0  0  0  0  0  0  0
   21.4368  -22.1517   -6.9051 N   0  0  0  0  0  0  0  0  0  0  0  0
   21.4511  -20.2398   -8.2749 N   0  0  0  0  0  0  0  0  0  0  0  0
   21.9925  -19.5790   -9.4320 C   0  0  0  0  0  0  0  0  0  0  0  0
   22.1624  -20.5218  -10.6042 C   0  0  0  0  0  0  0  0  0  0  0  0
   22.7254  -19.7523  -11.7438 C   0  0  0  0  0  0  0  0  0  0  0  0
   22.8754  -20.5231  -13.0157 C   0  0  2  0  0  0  0  0  0  0  0  0
   24.0710  -20.0823  -13.7073 N   0  0  0  0  0  0  0  0  0  0  0  0
   21.6791  -20.4639  -13.8835 C   0  0  0  0  0  0  0  0  0  0  0  0
   21.3642  -19.4453  -14.5573 O   0  0  0  0  0  0  0  0  0  0  0  0
   20.4632  -21.9129   -6.6351 C   0  0  0  0  0  0  0  0  0  0  0  0
   20.5813  -22.4777  -16.7734 C   0  0  2  0  0  0  0  0  0  0  0  0
   19.5072  -22.7118  -15.7259 O   0  0  0  0  0  0  0  0  0  0  0  0
   19.6566  -23.9600  -15.1275 C   0  0  2  0  0  0  0  0  0  0  0  0
   19.5815  -21.5959  -14.6996 N   0  0  0  0  0  0  0  0  0  0  0  0
   20.8304  -21.6007  -13.9755 C   0  0  0  0  0  0  0  0  0  0  0  0
   18.4008  -21.5675  -13.8210 O   0  0  0  0  0  0  0  0  0  0  0  0
   18.4146  -21.6968  -12.5800 O   0  0  0  0  0  0  0  0  0  0  0  0
  1  2  1  0
  3  2  1  0
  3  4  1  6
  5  3  1  0
  5  6  2  0
  7  8  1  0
  8  9  2  0
  8 10  1  0
 10 11  1  0
 11 12  1  0
 12 13  1  0
 14 13  1  1
 14 15  1  0
 15  5  1  0
 16 17  2  0
 16 14  1  0
 19 18  1  6
 19 21  1  0
 20 19  1  0
 21 22  1  6
 21 23  1  0
 22 16  1  0
 23 24  2  0
 23 25  1  0
M  END
$$$$
