SRT.pdb
     RDKit          3D

 25 24  0  0  1  0  0  0  0  0999 V2000
   18.2549  -21.6857  -13.2513 O   0  0  0  0  0  0  0  0  0  0  0  0
   18.9395  -22.4529  -12.3249 C   0  0  0  0  0  0  0  0  0  0  0  0
   19.8667  -21.5863  -11.4658 C   0  0  2  0  0  0  0  0  0  0  0  0
   19.0336  -20.6539  -10.7385 N   0  0  0  0  0  0  0  0  0  0  0  0
   20.7594  -20.8769  -12.4190 C   0  0  0  0  0  0  0  0  0  0  0  0
   20.4121  -19.7425  -12.8285 O   0  0  0  0  0  0  0  0  0  0  0  0
   28.2825  -23.0642  -15.9585 N   0  0  0  0  0  0  0  0  0  0  0  0
   28.2296  -21.6873  -16.2307 C   0  0  0  0  0  0  0  0  0  0  0  0
   28.8164  -21.2505  -17.2937 N   0  0  0  0  0  0  0  0  0  0  0  0
   27.5507  -20.7973  -15.3638 N   0  0  0  0  0  0  0  0  0  0  0  0
   26.5556  -21.2777  -14.4430 C   0  0  0  0  0  0  0  0  0  0  0  0
   25.1743  -20.7473  -14.7629 C   0  0  0  0  0  0  0  0  0  0  0  0
   24.2277  -21.2656  -13.7416 C   0  0  0  0  0  0  0  0  0  0  0  0
   22.8328  -20.7385  -13.8457 C   0  0  2  0  0  0  0  0  0  0  0  0
   21.9868  -21.4234  -12.8879 N   0  0  0  0  0  0  0  0  0  0  0  0
   22.2816  -20.8011  -15.2168 C   0  0  0  0  0  0  0  0  0  0  0  0
   21.9969  -21.8834  -15.7981 O   0  0  0  0  0  0  0  0  0  0  0  0
   28.7649  -20.2401  -17.5269 C   0  0  0  0  0  0  0  0  0  0  0  0
   19.1922  -19.0630  -16.6979 C   0  0  2  0  0  0  0  0  0  0  0  0
   20.4148  -18.5476  -17.4364 O   0  0  0  0  0  0  0  0  0  0  0  0
   20.7923  -17.2937  -16.9635 C   0  0  2  0  0  0  0  0  0  0  0  0
   21.5368  -19.5575  -17.2775 N   0  0  0  0  0  0  0  0  0  0  0  0
   22.0547  -19.5925  -15.9304 C   0  0  0  0  0  0  0  0  0  0  0  0
   22.5843  -19.3917  -18.2983 O   0  0  0  0  0  0  0  0  0  0  0  0
   23.7905  -19.1656  -18.0725 O   0  0  0  0  0  0  0  0  0  0  0  0
  1  2  1  0
  3  2  1  0
  3  4  1  6
  5  3  1  0
  5  6  2  0
  7  8  1  0
  8  9  2  0
  8 10  1  0
 10 11  1  0
 11 12  1  0
 12 13  1  0
 14 13  1  6
 14 15  1  0
 15  5  1  0
 16 17  2  0
 16 14  1  0
 19 18  1  6
 19 21  1  0
 20 19  1  0
 21 22  1  6
 21 23  1  0
 22 16  1  0
 23 24  2  0
 23 25  1  0
M  END
$$$$
