SRT.pdb
     RDKit          3D

 25 24  0  0  1  0  0  0  0  0999 V2000
   28.7722  -20.6995  -18.0853 O   0  0  0  0  0  0  0  0  0  0  0  0
   27.6227  -21.1766  -17.4800 C   0  0  0  0  0  0  0  0  0  0  0  0
   27.9546  -22.2167  -16.4044 C   0  0  2  0  0  0  0  0  0  0  0  0
   28.1016  -23.4927  -17.0697 N   0  0  0  0  0  0  0  0  0  0  0  0
   26.7939  -22.2265  -15.4762 C   0  0  0  0  0  0  0  0  0  0  0  0
   25.8058  -22.9440  -15.7658 O   0  0  0  0  0  0  0  0  0  0  0  0
   22.5641  -20.2256   -9.3590 N   0  0  0  0  0  0  0  0  0  0  0  0
   23.3159  -21.0333   -8.4900 C   0  0  0  0  0  0  0  0  0  0  0  0
   22.7045  -21.6185   -7.5158 N   0  0  0  0  0  0  0  0  0  0  0  0
   24.7092  -21.2041   -8.6741 N   0  0  0  0  0  0  0  0  0  0  0  0
   25.4028  -20.5267   -9.7365 C   0  0  0  0  0  0  0  0  0  0  0  0
   24.8317  -20.8596  -11.0984 C   0  0  0  0  0  0  0  0  0  0  0  0
   25.9602  -21.0116  -12.0529 C   0  0  0  0  0  0  0  0  0  0  0  0
   25.5647  -21.3700  -13.4492 C   0  0  2  0  0  0  0  0  0  0  0  0
   26.7515  -21.4614  -14.2770 N   0  0  0  0  0  0  0  0  0  0  0  0
   24.5547  -20.4567  -14.0267 C   0  0  0  0  0  0  0  0  0  0  0  0
   24.7344  -19.2141  -14.1452 O   0  0  0  0  0  0  0  0  0  0  0  0
   23.2444  -22.2125   -6.8573 C   0  0  0  0  0  0  0  0  0  0  0  0
   23.0467  -20.2193  -17.2928 C   0  0  2  0  0  0  0  0  0  0  0  0
   21.8550  -20.5021  -16.3952 O   0  0  0  0  0  0  0  0  0  0  0  0
   21.4479  -21.8287  -16.5087 C   0  0  2  0  0  0  0  0  0  0  0  0
   22.2353  -20.1624  -14.9655 N   0  0  0  0  0  0  0  0  0  0  0  0
   23.3143  -20.9869  -14.4757 C   0  0  0  0  0  0  0  0  0  0  0  0
   21.0682  -20.1402  -14.0689 O   0  0  0  0  0  0  0  0  0  0  0  0
   20.9030  -20.8723  -13.0720 O   0  0  0  0  0  0  0  0  0  0  0  0
  1  2  1  0
  3  2  1  0
  3  4  1  6
  5  3  1  0
  5  6  2  0
  7  8  1  0
  8  9  2  0
  8 10  1  0
 10 11  1  0
 11 12  1  0
 12 13  1  0
 14 13  1  1
 14 15  1  0
 15  5  1  0
 16 17  2  0
 16 14  1  0
 19 18  1  6
 19 21  1  0
 20 19  1  0
 21 22  1  1
 21 23  1  0
 22 16  1  0
 23 24  2  0
 23 25  1  0
M  END
$$$$
