SRT.pdb
     RDKit          3D

 25 24  0  0  1  0  0  0  0  0999 V2000
   21.7973  -11.6189  -17.2477 O   0  0  0  0  0  0  0  0  0  0  0  0
   21.0990  -10.5571  -16.6997 C   0  0  0  0  0  0  0  0  0  0  0  0
   20.1906  -11.0231  -15.5568 C   0  0  2  0  0  0  0  0  0  0  0  0
   19.2153  -11.9288  -16.1234 N   0  0  0  0  0  0  0  0  0  0  0  0
   19.5395   -9.7960  -15.0285 C   0  0  0  0  0  0  0  0  0  0  0  0
   18.7993   -9.1362  -15.7979 O   0  0  0  0  0  0  0  0  0  0  0  0
   14.7098   -8.2650   -8.2888 N   0  0  0  0  0  0  0  0  0  0  0  0
   14.8992   -6.9621   -8.7782 C   0  0  0  0  0  0  0  0  0  0  0  0
   14.1275   -6.0254   -8.3397 N   0  0  0  0  0  0  0  0  0  0  0  0
   15.9098   -6.6789   -9.7284 N   0  0  0  0  0  0  0  0  0  0  0  0
   16.7354   -7.7277  -10.2641 C   0  0  0  0  0  0  0  0  0  0  0  0
   17.6704   -7.2269  -11.3442 C   0  0  0  0  0  0  0  0  0  0  0  0
   18.3549   -8.3990  -11.9488 C   0  0  0  0  0  0  0  0  0  0  0  0
   19.1158   -8.1107  -13.2027 C   0  0  2  0  0  0  0  0  0  0  0  0
   19.7162   -9.3357  -13.6936 N   0  0  0  0  0  0  0  0  0  0  0  0
   20.1112   -7.0274  -13.0502 C   0  0  0  0  0  0  0  0  0  0  0  0
   21.1215   -7.1180  -12.3009 O   0  0  0  0  0  0  0  0  0  0  0  0
   14.2499   -5.0563   -8.6915 C   0  0  0  0  0  0  0  0  0  0  0  0
   22.6257   -5.8887  -15.0086 C   0  0  2  0  0  0  0  0  0  0  0  0
   21.7498   -4.6493  -14.9597 O   0  0  0  0  0  0  0  0  0  0  0  0
   20.9796   -4.5361  -16.1140 C   0  0  2  0  0  0  0  0  0  0  0  0
   20.8773   -4.7226  -13.7198 N   0  0  0  0  0  0  0  0  0  0  0  0
   19.9377   -5.8172  -13.7758 C   0  0  0  0  0  0  0  0  0  0  0  0
   20.2458   -3.4306  -13.4057 O   0  0  0  0  0  0  0  0  0  0  0  0
   19.0180   -3.2181  -13.3401 O   0  0  0  0  0  0  0  0  0  0  0  0
  1  2  1  0
  3  2  1  0
  3  4  1  6
  5  3  1  0
  5  6  2  0
  7  8  1  0
  8  9  2  0
  8 10  1  0
 10 11  1  0
 11 12  1  0
 12 13  1  0
 14 13  1  1
 14 15  1  0
 15  5  1  0
 16 17  2  0
 16 14  1  0
 19 18  1  6
 19 21  1  0
 20 19  1  0
 21 22  1  1
 21 23  1  0
 22 16  1  0
 23 24  2  0
 23 25  1  0
M  END
$$$$
