KLS.pdb
     RDKit          3D

 24 23  0  0  1  0  0  0  0  0999 V2000
    7.5814  -17.6942   21.3055 N   0  0  0  0  0  0  0  0  0  0  0  0
    6.9901  -17.6245   22.6224 C   0  0  1  0  0  0  0  0  0  0  0  0
    7.1486  -18.9913   23.2641 C   0  0  0  0  0  0  0  0  0  0  0  0
    6.3008  -20.0142   22.5595 C   0  0  0  0  0  0  0  0  0  0  0  0
    6.4465  -21.3677   23.1767 C   0  0  0  0  0  0  0  0  0  0  0  0
    5.4910  -22.3111   22.4453 C   0  0  0  0  0  0  0  0  0  0  0  0
    5.7355  -23.6368   23.0281 N   0  0  0  0  0  0  0  0  0  0  0  0
    7.6610  -16.5724   23.4260 C   0  0  0  0  0  0  0  0  0  0  0  0
    8.9032  -16.4104   23.2613 O   0  0  0  0  0  0  0  0  0  0  0  0
    5.9496  -12.0227   27.2119 C   0  0  0  0  0  0  0  0  0  0  0  0
    7.0781  -12.6865   26.4548 C   0  0  2  0  0  0  0  0  0  0  0  0
    8.0227  -11.6612   25.9175 C   0  0  0  0  0  0  0  0  0  0  0  0
    6.6796  -13.7861   25.5574 C   0  0  0  0  0  0  0  0  0  0  0  0
    7.6861  -14.8029   25.1549 C   0  0  2  0  0  0  0  0  0  0  0  0
    6.9313  -15.7803   24.3436 N   0  0  0  0  0  0  0  0  0  0  0  0
    8.3948  -15.5009   26.2381 C   0  0  0  0  0  0  0  0  0  0  0  0
    7.8650  -16.2335   27.1060 O   0  0  0  0  0  0  0  0  0  0  0  0
   12.7001  -15.7302   26.4247 O   0  0  0  0  0  0  0  0  0  0  0  0
   11.8217  -16.7647   26.7848 C   0  0  0  0  0  0  0  0  0  0  0  0
   10.5799  -16.1273   27.3713 C   0  0  2  0  0  0  0  0  0  0  0  0
    9.8301  -15.3890   26.3915 N   0  0  0  0  0  0  0  0  0  0  0  0
   10.8594  -15.3616   28.5892 C   0  0  0  0  0  0  0  0  0  0  0  0
   11.4776  -15.9689   29.6595 O   0  0  0  0  0  0  0  0  0  0  0  0
   10.5410  -14.1592   28.6658 O   0  0  0  0  0  0  0  0  0  0  0  0
  2  1  1  6
  3  2  1  0
  4  3  1  0
  5  6  1  0
  5  4  1  0
  6  7  1  0
  8  9  2  0
  8  2  1  0
 11 10  1  6
 12 11  1  0
 13 11  1  0
 14 13  1  1
 14 15  1  0
 15  8  1  0
 16 14  1  0
 17 16  2  0
 18 19  1  0
 20 19  1  6
 20 21  1  0
 21 16  1  0
 22 20  1  0
 22 23  1  0
 24 22  2  0
M  END
$$$$
