KLS.pdb
     RDKit          3D

 24 23  0  0  1  0  0  0  0  0999 V2000
    8.7340  -16.6281   20.4875 N   0  0  0  0  0  0  0  0  0  0  0  0
    8.0334  -16.9562   21.7081 C   0  0  1  0  0  0  0  0  0  0  0  0
    8.3287  -18.4115   22.0239 C   0  0  0  0  0  0  0  0  0  0  0  0
    7.6306  -19.3219   21.0516 C   0  0  0  0  0  0  0  0  0  0  0  0
    7.8162  -20.7598   21.4149 C   0  0  0  0  0  0  0  0  0  0  0  0
    7.0526  -21.5954   20.3871 C   0  0  0  0  0  0  0  0  0  0  0  0
    7.2116  -22.9878   20.8262 N   0  0  0  0  0  0  0  0  0  0  0  0
    8.4824  -16.0658   22.8074 C   0  0  0  0  0  0  0  0  0  0  0  0
    9.6976  -15.7201   22.8236 O   0  0  0  0  0  0  0  0  0  0  0  0
    5.8699  -12.3195   26.8921 C   0  0  0  0  0  0  0  0  0  0  0  0
    7.1529  -12.9257   26.3687 C   0  0  2  0  0  0  0  0  0  0  0  0
    8.2226  -11.8870   26.2746 C   0  0  0  0  0  0  0  0  0  0  0  0
    6.9993  -13.8541   25.2339 C   0  0  0  0  0  0  0  0  0  0  0  0
    8.1149  -14.7716   24.8835 C   0  0  2  0  0  0  0  0  0  0  0  0
    7.5782  -15.6216   23.8007 N   0  0  0  0  0  0  0  0  0  0  0  0
    8.6417  -15.6194   25.9635 C   0  0  0  0  0  0  0  0  0  0  0  0
    7.9746  -16.4276   26.6507 O   0  0  0  0  0  0  0  0  0  0  0  0
   12.3023  -16.3966   25.6790 O   0  0  0  0  0  0  0  0  0  0  0  0
   11.9464  -17.0252   26.8830 C   0  0  0  0  0  0  0  0  0  0  0  0
   10.6190  -16.4471   27.3260 C   0  0  2  0  0  0  0  0  0  0  0  0
   10.0411  -15.5826   26.3331 N   0  0  0  0  0  0  0  0  0  0  0  0
   10.6830  -15.8420   28.6591 C   0  0  0  0  0  0  0  0  0  0  0  0
   11.2108  -16.5519   29.7146 O   0  0  0  0  0  0  0  0  0  0  0  0
   10.2619  -14.6844   28.8478 O   0  0  0  0  0  0  0  0  0  0  0  0
  2  1  1  6
  3  2  1  0
  4  3  1  0
  5  6  1  0
  5  4  1  0
  6  7  1  0
  8  9  2  0
  8  2  1  0
 11 10  1  6
 12 11  1  0
 13 11  1  0
 14 13  1  1
 14 15  1  0
 15  8  1  0
 16 14  1  0
 17 16  2  0
 18 19  1  0
 20 19  1  6
 20 21  1  0
 21 16  1  0
 22 20  1  0
 22 23  1  0
 24 22  2  0
M  END
$$$$
