KLS.pdb
     RDKit          3D

 24 23  0  0  1  0  0  0  0  0999 V2000
    6.9825  -15.4370   21.2615 N   0  0  0  0  0  0  0  0  0  0  0  0
    8.2268  -14.7023   21.2815 C   0  0  1  0  0  0  0  0  0  0  0  0
    8.0073  -13.4163   20.5052 C   0  0  0  0  0  0  0  0  0  0  0  0
    7.4890  -13.7075   19.1239 C   0  0  0  0  0  0  0  0  0  0  0  0
    8.5412  -13.4890   18.0850 C   0  0  0  0  0  0  0  0  0  0  0  0
    7.8841  -13.6827   16.7180 C   0  0  0  0  0  0  0  0  0  0  0  0
    8.9402  -13.3986   15.7379 N   0  0  0  0  0  0  0  0  0  0  0  0
    8.6297  -14.4225   22.6824 C   0  0  0  0  0  0  0  0  0  0  0  0
    9.7353  -13.8404   22.8702 O   0  0  0  0  0  0  0  0  0  0  0  0
    7.7154  -11.6753   26.0095 C   0  0  0  0  0  0  0  0  0  0  0  0
    6.6668  -12.7441   25.7965 C   0  0  2  0  0  0  0  0  0  0  0  0
    5.3985  -12.3805   26.4972 C   0  0  0  0  0  0  0  0  0  0  0  0
    7.1428  -14.1338   25.9211 C   0  0  0  0  0  0  0  0  0  0  0  0
    8.3222  -14.5764   25.1323 C   0  0  2  0  0  0  0  0  0  0  0  0
    7.8018  -14.7963   23.7670 N   0  0  0  0  0  0  0  0  0  0  0  0
    9.0168  -15.7860   25.5982 C   0  0  0  0  0  0  0  0  0  0  0  0
    9.4129  -15.9974   26.7682 O   0  0  0  0  0  0  0  0  0  0  0  0
   10.4618  -18.6746   22.8734 O   0  0  0  0  0  0  0  0  0  0  0  0
    9.8967  -19.1734   24.0581 C   0  0  0  0  0  0  0  0  0  0  0  0
    9.9857  -18.0810   25.1027 C   0  0  2  0  0  0  0  0  0  0  0  0
    9.3101  -16.8790   24.6951 N   0  0  0  0  0  0  0  0  0  0  0  0
   11.3576  -17.8505   25.5635 C   0  0  0  0  0  0  0  0  0  0  0  0
   12.0981  -18.8928   26.0749 O   0  0  0  0  0  0  0  0  0  0  0  0
   11.8633  -16.7135   25.4965 O   0  0  0  0  0  0  0  0  0  0  0  0
  2  1  1  1
  3  2  1  0
  4  3  1  0
  5  6  1  0
  5  4  1  0
  6  7  1  0
  8  9  2  0
  8  2  1  0
 11 10  1  1
 12 11  1  0
 13 11  1  0
 14 13  1  1
 14 15  1  0
 15  8  1  0
 16 14  1  0
 17 16  2  0
 18 19  1  0
 20 19  1  6
 20 21  1  0
 21 16  1  0
 22 20  1  0
 22 23  1  0
 24 22  2  0
M  END
$$$$
