KLS.pdb
     RDKit          3D

 24 23  0  0  1  0  0  0  0  0999 V2000
    7.0297  -15.4808   21.2244 N   0  0  0  0  0  0  0  0  0  0  0  0
    8.3100  -14.8120   21.2715 C   0  0  1  0  0  0  0  0  0  0  0  0
    8.1574  -13.4877   20.5450 C   0  0  0  0  0  0  0  0  0  0  0  0
    7.5003  -13.6847   19.2067 C   0  0  0  0  0  0  0  0  0  0  0  0
    8.5098  -13.7965   18.1102 C   0  0  0  0  0  0  0  0  0  0  0  0
    7.7448  -13.9672   16.7974 C   0  0  0  0  0  0  0  0  0  0  0  0
    8.1361  -12.8187   15.9700 N   0  0  0  0  0  0  0  0  0  0  0  0
    8.7250  -14.6068   22.6817 C   0  0  0  0  0  0  0  0  0  0  0  0
    9.8839  -14.1495   22.8920 O   0  0  0  0  0  0  0  0  0  0  0  0
    7.9111  -11.8761   26.2027 C   0  0  0  0  0  0  0  0  0  0  0  0
    6.7879  -12.8447   25.9065 C   0  0  2  0  0  0  0  0  0  0  0  0
    5.5518  -12.4566   26.6504 C   0  0  0  0  0  0  0  0  0  0  0  0
    7.1640  -14.2702   25.9017 C   0  0  0  0  0  0  0  0  0  0  0  0
    8.3524  -14.7103   25.1252 C   0  0  2  0  0  0  0  0  0  0  0  0
    7.8505  -14.9139   23.7505 N   0  0  0  0  0  0  0  0  0  0  0  0
    9.0347  -15.9279   25.5885 C   0  0  0  0  0  0  0  0  0  0  0  0
    9.4076  -16.1557   26.7631 O   0  0  0  0  0  0  0  0  0  0  0  0
   10.7211  -20.3794   24.4775 O   0  0  0  0  0  0  0  0  0  0  0  0
   10.0516  -19.2509   23.9778 C   0  0  0  0  0  0  0  0  0  0  0  0
   10.0238  -18.2109   25.0779 C   0  0  2  0  0  0  0  0  0  0  0  0
    9.3427  -17.0098   24.6770 N   0  0  0  0  0  0  0  0  0  0  0  0
   11.3477  -17.9646   25.6560 C   0  0  0  0  0  0  0  0  0  0  0  0
   11.8439  -18.8054   26.6271 O   0  0  0  0  0  0  0  0  0  0  0  0
   12.0326  -16.9957   25.2748 O   0  0  0  0  0  0  0  0  0  0  0  0
  2  1  1  1
  3  2  1  0
  4  3  1  0
  5  6  1  0
  5  4  1  0
  6  7  1  0
  8  9  2  0
  8  2  1  0
 11 10  1  1
 12 11  1  0
 13 11  1  0
 14 13  1  1
 14 15  1  0
 15  8  1  0
 16 14  1  0
 17 16  2  0
 18 19  1  0
 20 19  1  6
 20 21  1  0
 21 16  1  0
 22 20  1  0
 22 23  1  0
 24 22  2  0
M  END
$$$$
