KLS.pdb
     RDKit          3D

 24 23  0  0  1  0  0  0  0  0999 V2000
    8.9179  -14.8413   20.5981 N   0  0  0  0  0  0  0  0  0  0  0  0
    8.0757  -15.5489   21.5354 C   0  0  1  0  0  0  0  0  0  0  0  0
    8.1824  -17.0288   21.2139 C   0  0  0  0  0  0  0  0  0  0  0  0
    7.5797  -17.3286   19.8691 C   0  0  0  0  0  0  0  0  0  0  0  0
    7.6578  -18.7855   19.5445 C   0  0  0  0  0  0  0  0  0  0  0  0
    7.1018  -18.9718   18.1324 C   0  0  0  0  0  0  0  0  0  0  0  0
    7.1010  -20.4228   17.9058 N   0  0  0  0  0  0  0  0  0  0  0  0
    8.5138  -15.2678   22.9253 C   0  0  0  0  0  0  0  0  0  0  0  0
    9.7553  -15.2631   23.1601 O   0  0  0  0  0  0  0  0  0  0  0  0
    8.2879  -11.8668   25.9325 C   0  0  0  0  0  0  0  0  0  0  0  0
    6.9813  -12.6153   25.7913 C   0  0  2  0  0  0  0  0  0  0  0  0
    5.8706  -11.8572   26.4420 C   0  0  0  0  0  0  0  0  0  0  0  0
    7.0524  -14.0676   26.0344 C   0  0  0  0  0  0  0  0  0  0  0  0
    8.0800  -14.8776   25.3295 C   0  0  2  0  0  0  0  0  0  0  0  0
    7.5709  -15.0143   23.9492 N   0  0  0  0  0  0  0  0  0  0  0  0
    8.3718  -16.2082   25.8837 C   0  0  0  0  0  0  0  0  0  0  0  0
    7.5270  -17.1022   26.1235 O   0  0  0  0  0  0  0  0  0  0  0  0
   12.1718  -17.9340   25.7335 O   0  0  0  0  0  0  0  0  0  0  0  0
   10.9917  -18.6800   25.8826 C   0  0  0  0  0  0  0  0  0  0  0  0
   10.0582  -17.8867   26.7724 C   0  0  2  0  0  0  0  0  0  0  0  0
    9.7251  -16.6059   26.2106 N   0  0  0  0  0  0  0  0  0  0  0  0
   10.5280  -17.8105   28.1584 C   0  0  0  0  0  0  0  0  0  0  0  0
   10.8954  -18.9572   28.8267 O   0  0  0  0  0  0  0  0  0  0  0  0
   10.5986  -16.7113   28.7414 O   0  0  0  0  0  0  0  0  0  0  0  0
  2  1  1  6
  3  2  1  0
  4  3  1  0
  5  6  1  0
  5  4  1  0
  6  7  1  0
  8  9  2  0
  8  2  1  0
 11 10  1  1
 12 11  1  0
 13 11  1  0
 14 13  1  1
 14 15  1  0
 15  8  1  0
 16 14  1  0
 17 16  2  0
 18 19  1  0
 20 19  1  6
 20 21  1  0
 21 16  1  0
 22 20  1  0
 22 23  1  0
 24 22  2  0
M  END
$$$$
