KLS.pdb
     RDKit          3D

 24 23  0  0  1  0  0  0  0  0999 V2000
    8.9855  -15.3294   19.7382 N   0  0  0  0  0  0  0  0  0  0  0  0
    7.9388  -15.5466   20.7108 C   0  0  1  0  0  0  0  0  0  0  0  0
    7.6402  -17.0349   20.7317 C   0  0  0  0  0  0  0  0  0  0  0  0
    7.1781  -17.5066   19.3806 C   0  0  0  0  0  0  0  0  0  0  0  0
    6.9080  -18.9767   19.3746 C   0  0  0  0  0  0  0  0  0  0  0  0
    6.4803  -19.3592   17.9574 C   0  0  0  0  0  0  0  0  0  0  0  0
    6.2009  -20.7999   18.0138 N   0  0  0  0  0  0  0  0  0  0  0  0
    8.3773  -15.0675   22.0453 C   0  0  0  0  0  0  0  0  0  0  0  0
    9.6118  -15.1159   22.3101 O   0  0  0  0  0  0  0  0  0  0  0  0
    5.8313  -12.1890   26.8478 C   0  0  0  0  0  0  0  0  0  0  0  0
    7.0936  -12.7681   26.2490 C   0  0  2  0  0  0  0  0  0  0  0  0
    8.2767  -11.9303   26.6100 C   0  0  0  0  0  0  0  0  0  0  0  0
    6.9810  -13.2268   24.8525 C   0  0  0  0  0  0  0  0  0  0  0  0
    7.9423  -14.2349   24.3340 C   0  0  2  0  0  0  0  0  0  0  0  0
    7.4423  -14.5742   22.9857 N   0  0  0  0  0  0  0  0  0  0  0  0
    8.1069  -15.4638   25.1249 C   0  0  0  0  0  0  0  0  0  0  0  0
    7.1806  -16.2121   25.5153 O   0  0  0  0  0  0  0  0  0  0  0  0
   11.7555  -17.4929   25.1377 O   0  0  0  0  0  0  0  0  0  0  0  0
   10.5038  -18.1103   25.2911 C   0  0  0  0  0  0  0  0  0  0  0  0
    9.6483  -17.2030   26.1498 C   0  0  2  0  0  0  0  0  0  0  0  0
    9.4173  -15.9251   25.5326 N   0  0  0  0  0  0  0  0  0  0  0  0
   10.1363  -17.1045   27.5281 C   0  0  0  0  0  0  0  0  0  0  0  0
   10.3656  -18.2469   28.2622 O   0  0  0  0  0  0  0  0  0  0  0  0
   10.3470  -15.9904   28.0450 O   0  0  0  0  0  0  0  0  0  0  0  0
  2  1  1  6
  3  2  1  0
  4  3  1  0
  5  6  1  0
  5  4  1  0
  6  7  1  0
  8  9  2  0
  8  2  1  0
 11 10  1  6
 12 11  1  0
 13 11  1  0
 14 13  1  1
 14 15  1  0
 15  8  1  0
 16 14  1  0
 17 16  2  0
 18 19  1  0
 20 19  1  6
 20 21  1  0
 21 16  1  0
 22 20  1  0
 22 23  1  0
 24 22  2  0
M  END
$$$$
