KLS.pdb
     RDKit          3D

 24 23  0  0  1  0  0  0  0  0999 V2000
   -1.4708  -24.9341   25.3377 N   0  0  0  0  0  0  0  0  0  0  0  0
   -2.8614  -25.3099   25.4549 C   0  0  1  0  0  0  0  0  0  0  0  0
   -2.9126  -26.6375   26.1893 C   0  0  0  0  0  0  0  0  0  0  0  0
   -2.2042  -27.7089   25.4072 C   0  0  0  0  0  0  0  0  0  0  0  0
   -2.2119  -29.0153   26.1333 C   0  0  0  0  0  0  0  0  0  0  0  0
   -1.5073  -30.0396   25.2433 C   0  0  0  0  0  0  0  0  0  0  0  0
   -1.5627  -31.3031   25.9898 N   0  0  0  0  0  0  0  0  0  0  0  0
   -3.6117  -24.2603   26.1886 C   0  0  0  0  0  0  0  0  0  0  0  0
   -3.1512  -23.8789   27.3017 O   0  0  0  0  0  0  0  0  0  0  0  0
   -3.9525  -20.0579   26.6426 C   0  0  0  0  0  0  0  0  0  0  0  0
   -4.5820  -20.5501   25.3585 C   0  0  2  0  0  0  0  0  0  0  0  0
   -4.8092  -19.4126   24.4171 C   0  0  0  0  0  0  0  0  0  0  0  0
   -5.6702  -21.5314   25.5208 C   0  0  0  0  0  0  0  0  0  0  0  0
   -5.4914  -22.6739   26.4545 C   0  0  2  0  0  0  0  0  0  0  0  0
   -4.8009  -23.7084   25.6568 N   0  0  0  0  0  0  0  0  0  0  0  0
   -6.7101  -23.2406   27.0516 C   0  0  0  0  0  0  0  0  0  0  0  0
   -7.7016  -23.6733   26.4191 O   0  0  0  0  0  0  0  0  0  0  0  0
   -6.8986  -24.4200   31.1255 O   0  0  0  0  0  0  0  0  0  0  0  0
   -7.6623  -25.0082   30.1047 C   0  0  0  0  0  0  0  0  0  0  0  0
   -8.0232  -23.9185   29.1174 C   0  0  2  0  0  0  0  0  0  0  0  0
   -6.8641  -23.3466   28.4873 N   0  0  0  0  0  0  0  0  0  0  0  0
   -8.9299  -22.9179   29.6868 C   0  0  0  0  0  0  0  0  0  0  0  0
  -10.1344  -23.3073   30.2289 O   0  0  0  0  0  0  0  0  0  0  0  0
   -8.6194  -21.7110   29.6849 O   0  0  0  0  0  0  0  0  0  0  0  0
  2  1  1  1
  3  2  1  0
  4  3  1  0
  5  6  1  0
  5  4  1  0
  6  7  1  0
  8  9  2  0
  8  2  1  0
 11 10  1  1
 12 11  1  0
 13 11  1  0
 14 13  1  6
 14 15  1  0
 15  8  1  0
 16 14  1  0
 17 16  2  0
 18 19  1  0
 20 19  1  1
 20 21  1  0
 21 16  1  0
 22 20  1  0
 22 23  1  0
 24 22  2  0
M  END
$$$$
