KLS.pdb
     RDKit          3D

 24 23  0  0  1  0  0  0  0  0999 V2000
    9.6487  -15.1240   20.9286 N   0  0  0  0  0  0  0  0  0  0  0  0
    8.6457  -15.6770   21.8098 C   0  0  1  0  0  0  0  0  0  0  0  0
    8.7368  -17.1891   21.7091 C   0  0  0  0  0  0  0  0  0  0  0  0
    8.2750  -17.6638   20.3589 C   0  0  0  0  0  0  0  0  0  0  0  0
    6.9306  -18.3126   20.4349 C   0  0  0  0  0  0  0  0  0  0  0  0
    6.5744  -18.7970   19.0291 C   0  0  0  0  0  0  0  0  0  0  0  0
    5.1905  -19.2789   19.1257 N   0  0  0  0  0  0  0  0  0  0  0  0
    8.8808  -15.2157   23.2008 C   0  0  0  0  0  0  0  0  0  0  0  0
   10.0785  -15.0936   23.5843 O   0  0  0  0  0  0  0  0  0  0  0  0
    5.4736  -11.8551   26.4811 C   0  0  0  0  0  0  0  0  0  0  0  0
    6.8464  -12.4688   26.3194 C   0  0  2  0  0  0  0  0  0  0  0  0
    7.7442  -11.5501   25.5568 C   0  0  0  0  0  0  0  0  0  0  0  0
    6.8639  -13.8980   25.9582 C   0  0  0  0  0  0  0  0  0  0  0  0
    8.1188  -14.5074   25.4454 C   0  0  2  0  0  0  0  0  0  0  0  0
    7.7988  -14.9239   24.0643 N   0  0  0  0  0  0  0  0  0  0  0  0
    8.6562  -15.6522   26.1959 C   0  0  0  0  0  0  0  0  0  0  0  0
    8.9423  -15.6579   27.4160 O   0  0  0  0  0  0  0  0  0  0  0  0
    9.8459  -20.3687   26.2798 O   0  0  0  0  0  0  0  0  0  0  0  0
    9.2670  -19.3486   25.5080 C   0  0  0  0  0  0  0  0  0  0  0  0
    9.5367  -18.0346   26.2102 C   0  0  2  0  0  0  0  0  0  0  0  0
    8.9079  -16.9231   25.5495 N   0  0  0  0  0  0  0  0  0  0  0  0
   10.9608  -17.8210   26.4817 C   0  0  0  0  0  0  0  0  0  0  0  0
   11.5956  -16.6999   25.9953 O   0  0  0  0  0  0  0  0  0  0  0  0
   11.6067  -18.6493   27.1525 O   0  0  0  0  0  0  0  0  0  0  0  0
  2  1  1  6
  3  2  1  0
  4  3  1  0
  5  6  1  0
  5  4  1  0
  6  7  1  0
  8  9  2  0
  8  2  1  0
 11 10  1  6
 12 11  1  0
 13 11  1  0
 14 13  1  1
 14 15  1  0
 15  8  1  0
 16 14  1  0
 17 16  2  0
 18 19  1  0
 20 19  1  6
 20 21  1  0
 21 16  1  0
 22 20  1  0
 22 23  1  0
 24 22  2  0
M  END
$$$$
