KLS.pdb
     RDKit          3D

 24 23  0  0  1  0  0  0  0  0999 V2000
    7.4375  -14.0095   20.3391 N   0  0  0  0  0  0  0  0  0  0  0  0
    7.0016  -14.7747   21.4850 C   0  0  1  0  0  0  0  0  0  0  0  0
    7.1122  -16.2438   21.1186 C   0  0  0  0  0  0  0  0  0  0  0  0
    8.4499  -16.5411   20.4990 C   0  0  0  0  0  0  0  0  0  0  0  0
    8.5390  -17.9604   20.0388 C   0  0  0  0  0  0  0  0  0  0  0  0
    9.9237  -18.1567   19.4209 C   0  0  0  0  0  0  0  0  0  0  0  0
    9.9383  -19.5436   18.9382 N   0  0  0  0  0  0  0  0  0  0  0  0
    7.8432  -14.4497   22.6635 C   0  0  0  0  0  0  0  0  0  0  0  0
    9.0384  -14.0982   22.4525 O   0  0  0  0  0  0  0  0  0  0  0  0
    7.8031  -11.1286   25.8069 C   0  0  0  0  0  0  0  0  0  0  0  0
    6.7454  -12.1856   26.0335 C   0  0  2  0  0  0  0  0  0  0  0  0
    5.7684  -11.7351   27.0700 C   0  0  0  0  0  0  0  0  0  0  0  0
    7.2410  -13.5715   26.1173 C   0  0  0  0  0  0  0  0  0  0  0  0
    8.1846  -14.0744   25.0849 C   0  0  2  0  0  0  0  0  0  0  0  0
    7.3217  -14.5318   23.9761 N   0  0  0  0  0  0  0  0  0  0  0  0
    9.0916  -15.1601   25.4867 C   0  0  0  0  0  0  0  0  0  0  0  0
    9.9860  -15.0804   26.3608 O   0  0  0  0  0  0  0  0  0  0  0  0
    9.2430  -18.8372   23.3377 O   0  0  0  0  0  0  0  0  0  0  0  0
    9.3930  -18.8879   24.7328 C   0  0  0  0  0  0  0  0  0  0  0  0
    9.9194  -17.5424   25.1855 C   0  0  2  0  0  0  0  0  0  0  0  0
    9.0160  -16.4687   24.8718 N   0  0  0  0  0  0  0  0  0  0  0  0
   11.2941  -17.2953   24.7422 C   0  0  0  0  0  0  0  0  0  0  0  0
   12.2667  -18.2489   24.9454 O   0  0  0  0  0  0  0  0  0  0  0  0
   11.5931  -16.2242   24.1797 O   0  0  0  0  0  0  0  0  0  0  0  0
  2  1  1  6
  3  2  1  0
  4  3  1  0
  5  6  1  0
  5  4  1  0
  6  7  1  0
  8  9  2  0
  8  2  1  0
 11 10  1  1
 12 11  1  0
 13 11  1  0
 14 13  1  1
 14 15  1  0
 15  8  1  0
 16 14  1  0
 17 16  2  0
 18 19  1  0
 20 19  1  6
 20 21  1  0
 21 16  1  0
 22 20  1  0
 22 23  1  0
 24 22  2  0
M  END
$$$$
