KLS.pdb
     RDKit          3D

 24 23  0  0  1  0  0  0  0  0999 V2000
   11.4164  -17.3940   17.1393 N   0  0  0  0  0  0  0  0  0  0  0  0
   10.4734  -17.6472   18.2048 C   0  0  1  0  0  0  0  0  0  0  0  0
   10.8564  -18.9691   18.8455 C   0  0  0  0  0  0  0  0  0  0  0  0
   11.9335  -19.6557   18.0517 C   0  0  0  0  0  0  0  0  0  0  0  0
   12.2096  -21.0290   18.5733 C   0  0  0  0  0  0  0  0  0  0  0  0
   13.2711  -21.6583   17.6705 C   0  0  0  0  0  0  0  0  0  0  0  0
   13.5368  -22.9810   18.2507 N   0  0  0  0  0  0  0  0  0  0  0  0
   10.5125  -16.5399   19.1923 C   0  0  0  0  0  0  0  0  0  0  0  0
   11.6046  -15.9214   19.3380 O   0  0  0  0  0  0  0  0  0  0  0  0
    8.4055  -12.7052   19.3606 C   0  0  0  0  0  0  0  0  0  0  0  0
    7.5512  -13.8114   19.9386 C   0  0  2  0  0  0  0  0  0  0  0  0
    6.1306  -13.3658   20.0619 C   0  0  0  0  0  0  0  0  0  0  0  0
    8.1408  -14.5398   21.0766 C   0  0  0  0  0  0  0  0  0  0  0  0
    9.5040  -15.1179   20.9477 C   0  0  2  0  0  0  0  0  0  0  0  0
    9.3647  -16.1920   19.9427 N   0  0  0  0  0  0  0  0  0  0  0  0
   10.1136  -15.6605   22.1711 C   0  0  0  0  0  0  0  0  0  0  0  0
   10.2835  -15.0347   23.2435 O   0  0  0  0  0  0  0  0  0  0  0  0
    9.7433  -19.4268   23.4144 O   0  0  0  0  0  0  0  0  0  0  0  0
   10.2613  -18.4092   24.2315 C   0  0  0  0  0  0  0  0  0  0  0  0
   11.2212  -17.5927   23.3922 C   0  0  2  0  0  0  0  0  0  0  0  0
   10.5874  -17.0273   22.2321 N   0  0  0  0  0  0  0  0  0  0  0  0
   12.4590  -18.3149   23.0860 C   0  0  0  0  0  0  0  0  0  0  0  0
   13.2308  -18.8249   24.1061 O   0  0  0  0  0  0  0  0  0  0  0  0
   12.8218  -18.4728   21.9043 O   0  0  0  0  0  0  0  0  0  0  0  0
  2  1  1  6
  3  2  1  0
  4  3  1  0
  5  6  1  0
  5  4  1  0
  6  7  1  0
  8  9  2  0
  8  2  1  0
 11 10  1  1
 12 11  1  0
 13 11  1  0
 14 13  1  1
 14 15  1  0
 15  8  1  0
 16 14  1  0
 17 16  2  0
 18 19  1  0
 20 19  1  6
 20 21  1  0
 21 16  1  0
 22 20  1  0
 22 23  1  0
 24 22  2  0
M  END
$$$$
