KLS.pdb
     RDKit          3D

 24 23  0  0  1  0  0  0  0  0999 V2000
    7.2467  -16.0364   21.8330 N   0  0  0  0  0  0  0  0  0  0  0  0
    8.4957  -15.3093   21.8268 C   0  0  1  0  0  0  0  0  0  0  0  0
    8.3145  -14.1032   20.9228 C   0  0  0  0  0  0  0  0  0  0  0  0
    8.0923  -14.5312   19.4984 C   0  0  0  0  0  0  0  0  0  0  0  0
    8.0272  -13.3571   18.5757 C   0  0  0  0  0  0  0  0  0  0  0  0
    7.7761  -13.8941   17.1663 C   0  0  0  0  0  0  0  0  0  0  0  0
    7.7331  -12.7071   16.3026 N   0  0  0  0  0  0  0  0  0  0  0  0
    8.8512  -14.8975   23.2078 C   0  0  0  0  0  0  0  0  0  0  0  0
    9.9935  -14.3907   23.3936 O   0  0  0  0  0  0  0  0  0  0  0  0
    7.9671  -11.6854   26.1401 C   0  0  0  0  0  0  0  0  0  0  0  0
    6.8533  -12.6950   25.9742 C   0  0  2  0  0  0  0  0  0  0  0  0
    5.5770  -12.1649   26.5416 C   0  0  0  0  0  0  0  0  0  0  0  0
    7.2113  -14.0913   26.2833 C   0  0  0  0  0  0  0  0  0  0  0  0
    8.3992  -14.7030   25.6323 C   0  0  2  0  0  0  0  0  0  0  0  0
    7.9398  -15.0683   24.2763 N   0  0  0  0  0  0  0  0  0  0  0  0
    8.9846  -15.8805   26.2907 C   0  0  0  0  0  0  0  0  0  0  0  0
    9.2447  -15.9818   27.5124 O   0  0  0  0  0  0  0  0  0  0  0  0
    9.5339  -20.5622   26.5685 O   0  0  0  0  0  0  0  0  0  0  0  0
    8.8974  -19.4397   26.0150 C   0  0  0  0  0  0  0  0  0  0  0  0
    9.8449  -18.2659   26.1453 C   0  0  2  0  0  0  0  0  0  0  0  0
    9.3215  -17.0715   25.5396 N   0  0  0  0  0  0  0  0  0  0  0  0
   11.2074  -18.5890   25.7135 C   0  0  0  0  0  0  0  0  0  0  0  0
   11.9640  -19.4880   26.4317 O   0  0  0  0  0  0  0  0  0  0  0  0
   11.6907  -18.0548   24.6966 O   0  0  0  0  0  0  0  0  0  0  0  0
  2  1  1  1
  3  2  1  0
  4  3  1  0
  5  6  1  0
  5  4  1  0
  6  7  1  0
  8  9  2  0
  8  2  1  0
 11 10  1  1
 12 11  1  0
 13 11  1  0
 14 13  1  1
 14 15  1  0
 15  8  1  0
 16 14  1  0
 17 16  2  0
 18 19  1  0
 20 19  1  6
 20 21  1  0
 21 16  1  0
 22 20  1  0
 22 23  1  0
 24 22  2  0
M  END
$$$$
