KLS.pdb
     RDKit          3D

 24 23  0  0  1  0  0  0  0  0999 V2000
    8.5814  -14.5177   20.2827 N   0  0  0  0  0  0  0  0  0  0  0  0
    7.7977  -15.2226   21.2714 C   0  0  1  0  0  0  0  0  0  0  0  0
    7.8085  -16.6933   20.8950 C   0  0  0  0  0  0  0  0  0  0  0  0
    7.1419  -16.9096   19.5644 C   0  0  0  0  0  0  0  0  0  0  0  0
    7.1542  -18.3517   19.1717 C   0  0  0  0  0  0  0  0  0  0  0  0
    6.4341  -18.4679   17.8279 C   0  0  0  0  0  0  0  0  0  0  0  0
    6.4940  -19.8933   17.4794 N   0  0  0  0  0  0  0  0  0  0  0  0
    8.3730  -15.0094   22.6228 C   0  0  0  0  0  0  0  0  0  0  0  0
    9.6319  -14.9936   22.7292 O   0  0  0  0  0  0  0  0  0  0  0  0
    8.2688  -11.7900   25.9416 C   0  0  0  0  0  0  0  0  0  0  0  0
    7.0077  -12.6172   25.8286 C   0  0  2  0  0  0  0  0  0  0  0  0
    5.9000  -11.9930   26.6132 C   0  0  0  0  0  0  0  0  0  0  0  0
    7.1923  -14.0750   25.9467 C   0  0  0  0  0  0  0  0  0  0  0  0
    8.1843  -14.7594   25.0769 C   0  0  2  0  0  0  0  0  0  0  0  0
    7.5374  -14.8303   23.7504 N   0  0  0  0  0  0  0  0  0  0  0  0
    8.6147  -16.1034   25.4905 C   0  0  0  0  0  0  0  0  0  0  0  0
    7.8741  -17.1090   25.5947 O   0  0  0  0  0  0  0  0  0  0  0  0
   12.6269  -17.3472   25.3805 O   0  0  0  0  0  0  0  0  0  0  0  0
   11.5334  -18.2268   25.3348 C   0  0  0  0  0  0  0  0  0  0  0  0
   10.4619  -17.6727   26.2498 C   0  0  2  0  0  0  0  0  0  0  0  0
    9.9958  -16.3804   25.8252 N   0  0  0  0  0  0  0  0  0  0  0  0
   10.8471  -17.7176   27.6629 C   0  0  0  0  0  0  0  0  0  0  0  0
   11.3433  -18.8816   28.2063 O   0  0  0  0  0  0  0  0  0  0  0  0
   10.7293  -16.7064   28.3818 O   0  0  0  0  0  0  0  0  0  0  0  0
  2  1  1  6
  3  2  1  0
  4  3  1  0
  5  6  1  0
  5  4  1  0
  6  7  1  0
  8  9  2  0
  8  2  1  0
 11 10  1  1
 12 11  1  0
 13 11  1  0
 14 13  1  1
 14 15  1  0
 15  8  1  0
 16 14  1  0
 17 16  2  0
 18 19  1  0
 20 19  1  6
 20 21  1  0
 21 16  1  0
 22 20  1  0
 22 23  1  0
 24 22  2  0
M  END
$$$$
