KLS.pdb
     RDKit          3D

 24 23  0  0  1  0  0  0  0  0999 V2000
    5.8311  -17.1581   21.4475 N   0  0  0  0  0  0  0  0  0  0  0  0
    5.8892  -17.1917   22.8912 C   0  0  1  0  0  0  0  0  0  0  0  0
    6.1063  -18.6367   23.3033 C   0  0  0  0  0  0  0  0  0  0  0  0
    4.9035  -19.4747   22.9681 C   0  0  0  0  0  0  0  0  0  0  0  0
    5.1101  -20.9069   23.3426 C   0  0  0  0  0  0  0  0  0  0  0  0
    3.8682  -21.6811   22.8997 C   0  0  0  0  0  0  0  0  0  0  0  0
    4.1047  -23.0668   23.3249 N   0  0  0  0  0  0  0  0  0  0  0  0
    6.9907  -16.3231   23.3762 C   0  0  0  0  0  0  0  0  0  0  0  0
    8.0340  -16.2472   22.6675 O   0  0  0  0  0  0  0  0  0  0  0  0
    7.2971  -11.8188   24.7202 C   0  0  0  0  0  0  0  0  0  0  0  0
    6.6799  -12.7660   25.7249 C   0  0  2  0  0  0  0  0  0  0  0  0
    6.0186  -12.0032   26.8262 C   0  0  0  0  0  0  0  0  0  0  0  0
    7.5115  -13.9244   26.0989 C   0  0  0  0  0  0  0  0  0  0  0  0
    8.0404  -14.8185   25.0359 C   0  0  2  0  0  0  0  0  0  0  0  0
    6.8727  -15.6065   24.5903 N   0  0  0  0  0  0  0  0  0  0  0  0
    9.1344  -15.7254   25.4146 C   0  0  0  0  0  0  0  0  0  0  0  0
    9.0492  -16.6751   26.2277 O   0  0  0  0  0  0  0  0  0  0  0  0
   11.0465  -17.6450   22.8972 O   0  0  0  0  0  0  0  0  0  0  0  0
   11.0837  -17.8849   24.2801 C   0  0  0  0  0  0  0  0  0  0  0  0
   11.4786  -16.5903   24.9587 C   0  0  2  0  0  0  0  0  0  0  0  0
   10.4592  -15.5825   24.8481 N   0  0  0  0  0  0  0  0  0  0  0  0
   12.8068  -16.1223   24.5532 C   0  0  0  0  0  0  0  0  0  0  0  0
   13.9049  -16.9373   24.7154 O   0  0  0  0  0  0  0  0  0  0  0  0
   12.9528  -14.9871   24.0601 O   0  0  0  0  0  0  0  0  0  0  0  0
  2  1  1  6
  3  2  1  0
  4  3  1  0
  5  6  1  0
  5  4  1  0
  6  7  1  0
  8  9  2  0
  8  2  1  0
 11 10  1  1
 12 11  1  0
 13 11  1  0
 14 13  1  1
 14 15  1  0
 15  8  1  0
 16 14  1  0
 17 16  2  0
 18 19  1  0
 20 19  1  6
 20 21  1  0
 21 16  1  0
 22 20  1  0
 22 23  1  0
 24 22  2  0
M  END
$$$$
