KLS.pdb
     RDKit          3D

 24 23  0  0  1  0  0  0  0  0999 V2000
    9.6677  -19.0123   18.4915 N   0  0  0  0  0  0  0  0  0  0  0  0
   10.9043  -18.2779   18.3490 C   0  0  1  0  0  0  0  0  0  0  0  0
   11.1734  -18.1259   16.8626 C   0  0  0  0  0  0  0  0  0  0  0  0
    9.9362  -17.6700   16.1392 C   0  0  0  0  0  0  0  0  0  0  0  0
   10.1848  -17.5079   14.6743 C   0  0  0  0  0  0  0  0  0  0  0  0
    8.8709  -17.0612   14.0323 C   0  0  0  0  0  0  0  0  0  0  0  0
    9.1735  -16.9013   12.6041 N   0  0  0  0  0  0  0  0  0  0  0  0
   10.7896  -16.9553   19.0126 C   0  0  0  0  0  0  0  0  0  0  0  0
   11.8376  -16.2571   19.1153 O   0  0  0  0  0  0  0  0  0  0  0  0
    6.3447  -12.9748   20.4484 C   0  0  0  0  0  0  0  0  0  0  0  0
    7.8092  -13.3395   20.5468 C   0  0  2  0  0  0  0  0  0  0  0  0
    8.6657  -12.1628   20.2098 C   0  0  0  0  0  0  0  0  0  0  0  0
    8.1788  -14.6432   19.9660 C   0  0  0  0  0  0  0  0  0  0  0  0
    9.5332  -15.1997   20.2208 C   0  0  2  0  0  0  0  0  0  0  0  0
    9.5480  -16.4957   19.5114 N   0  0  0  0  0  0  0  0  0  0  0  0
    9.9150  -15.4004   21.6267 C   0  0  0  0  0  0  0  0  0  0  0  0
    9.9649  -14.5086   22.5058 O   0  0  0  0  0  0  0  0  0  0  0  0
   10.2219  -19.2848   23.3427 O   0  0  0  0  0  0  0  0  0  0  0  0
    9.8379  -18.1440   24.0655 C   0  0  0  0  0  0  0  0  0  0  0  0
   10.6058  -16.9663   23.5034 C   0  0  2  0  0  0  0  0  0  0  0  0
   10.2806  -16.7091   22.1266 N   0  0  0  0  0  0  0  0  0  0  0  0
   12.0467  -17.0600   23.7538 C   0  0  0  0  0  0  0  0  0  0  0  0
   12.5152  -17.2103   25.0400 O   0  0  0  0  0  0  0  0  0  0  0  0
   12.8566  -17.0045   22.8083 O   0  0  0  0  0  0  0  0  0  0  0  0
  2  1  1  6
  3  2  1  0
  4  3  1  0
  5  6  1  0
  5  4  1  0
  6  7  1  0
  8  9  2  0
  8  2  1  0
 11 10  1  6
 12 11  1  0
 13 11  1  0
 14 13  1  1
 14 15  1  0
 15  8  1  0
 16 14  1  0
 17 16  2  0
 18 19  1  0
 20 19  1  6
 20 21  1  0
 21 16  1  0
 22 20  1  0
 22 23  1  0
 24 22  2  0
M  END
$$$$
