KLS.pdb
     RDKit          3D

 24 23  0  0  1  0  0  0  0  0999 V2000
    7.2247  -15.9507   21.0582 N   0  0  0  0  0  0  0  0  0  0  0  0
    8.5000  -15.2712   21.0852 C   0  0  1  0  0  0  0  0  0  0  0  0
    8.4042  -14.0880   20.1389 C   0  0  0  0  0  0  0  0  0  0  0  0
    8.0978  -14.5460   18.7396 C   0  0  0  0  0  0  0  0  0  0  0  0
    8.0250  -13.3953   17.7885 C   0  0  0  0  0  0  0  0  0  0  0  0
    7.8212  -13.9705   16.3865 C   0  0  0  0  0  0  0  0  0  0  0  0
    7.8252  -12.8090   15.4879 N   0  0  0  0  0  0  0  0  0  0  0  0
    8.8119  -14.8301   22.4676 C   0  0  0  0  0  0  0  0  0  0  0  0
    9.9709  -14.3799   22.6928 O   0  0  0  0  0  0  0  0  0  0  0  0
    5.5258  -12.3328   26.8626 C   0  0  0  0  0  0  0  0  0  0  0  0
    6.9092  -12.7030   26.3762 C   0  0  2  0  0  0  0  0  0  0  0  0
    7.8447  -11.5484   26.5299 C   0  0  0  0  0  0  0  0  0  0  0  0
    6.9560  -13.4574   25.1105 C   0  0  0  0  0  0  0  0  0  0  0  0
    8.1585  -14.2687   24.7867 C   0  0  2  0  0  0  0  0  0  0  0  0
    7.8426  -14.9124   23.4948 N   0  0  0  0  0  0  0  0  0  0  0  0
    8.5526  -15.2922   25.7665 C   0  0  0  0  0  0  0  0  0  0  0  0
    8.8947  -15.0763   26.9526 O   0  0  0  0  0  0  0  0  0  0  0  0
    7.2151  -18.7400   25.0322 O   0  0  0  0  0  0  0  0  0  0  0  0
    8.0433  -18.9789   26.1405 C   0  0  0  0  0  0  0  0  0  0  0  0
    8.8858  -17.7398   26.3578 C   0  0  2  0  0  0  0  0  0  0  0  0
    8.5763  -16.6971   25.4174 N   0  0  0  0  0  0  0  0  0  0  0  0
   10.3177  -18.0384   26.4461 C   0  0  0  0  0  0  0  0  0  0  0  0
   10.7801  -18.9285   27.3897 O   0  0  0  0  0  0  0  0  0  0  0  0
   11.1256  -17.4914   25.6709 O   0  0  0  0  0  0  0  0  0  0  0  0
  2  1  1  1
  3  2  1  0
  4  3  1  0
  5  6  1  0
  5  4  1  0
  6  7  1  0
  8  9  2  0
  8  2  1  0
 11 10  1  6
 12 11  1  0
 13 11  1  0
 14 13  1  1
 14 15  1  0
 15  8  1  0
 16 14  1  0
 17 16  2  0
 18 19  1  0
 20 19  1  6
 20 21  1  0
 21 16  1  0
 22 20  1  0
 22 23  1  0
 24 22  2  0
M  END
$$$$
