LDC.pdb
     RDKit          3D

 23 22  0  0  1  0  0  0  0  0999 V2000
    9.5686  -13.3018   19.3611 C   0  0  0  0  0  0  0  0  0  0  0  0
    8.1254  -13.5090   19.6711 C   0  0  2  0  0  0  0  0  0  0  0  0
    7.4589  -12.1286   19.7337 C   0  0  0  0  0  0  0  0  0  0  0  0
    7.8423  -14.2668   20.9256 C   0  0  0  0  0  0  0  0  0  0  0  0
    8.5312  -15.5928   20.9274 C   0  0  2  0  0  0  0  0  0  0  0  0
    7.7993  -16.5443   20.1255 N   0  0  0  0  0  0  0  0  0  0  0  0
    8.7107  -16.1252   22.3159 C   0  0  0  0  0  0  0  0  0  0  0  0
    7.6878  -16.4219   22.9640 O   0  0  0  0  0  0  0  0  0  0  0  0
    9.9709  -16.3060   22.9209 N   0  0  0  0  0  0  0  0  0  0  0  0
   10.0957  -16.8657   24.3153 C   0  0  1  0  0  0  0  0  0  0  0  0
   11.2776  -17.7812   24.2809 C   0  0  0  0  0  0  0  0  0  0  0  0
   11.6120  -18.4580   25.4976 C   0  0  0  0  0  0  0  0  0  0  0  0
   11.0315  -18.5249   26.5984 O   0  0  0  0  0  0  0  0  0  0  0  0
   10.2491  -15.7149   25.2111 C   0  0  0  0  0  0  0  0  0  0  0  0
   11.2713  -14.9419   25.1276 O   0  0  0  0  0  0  0  0  0  0  0  0
   12.8345  -19.2020   25.4699 O   0  0  0  0  0  0  0  0  0  0  0  0
    9.3299  -15.3445   26.2091 N   0  0  0  0  0  0  0  0  0  0  0  0
    9.6159  -14.2752   27.1659 C   0  0  1  0  0  0  0  0  0  0  0  0
    8.3385  -13.5244   27.3952 C   0  0  0  0  0  0  0  0  0  0  0  0
    7.4736  -13.1383   25.8670 S   0  0  0  0  0  0  0  0  0  0  0  0
   10.0613  -14.9094   28.4494 C   0  0  0  0  0  0  0  0  0  0  0  0
   10.5055  -14.1504   29.5175 O   0  0  0  0  0  0  0  0  0  0  0  0
   10.0414  -16.1677   28.5880 O   0  0  0  0  0  0  0  0  0  0  0  0
  2  1  1  1
  2  3  1  0
  4  2  1  0
  5  4  1  0
  5  7  1  0
  5  6  1  6
  7  9  1  0
  7  8  2  0
  9 10  1  0
 10 11  1  6
 12 11  1  0
 12 16  1  0
 13 12  2  0
 14 17  1  0
 14 10  1  0
 15 14  2  0
 18 21  1  0
 18 17  1  0
 18 19  1  1
 20 19  1  0
 21 22  1  0
 23 21  2  0
M  END
$$$$
