LDC.pdb
     RDKit          3D

 23 22  0  0  1  0  0  0  0  0999 V2000
    7.0019  -12.3101   24.0937 C   0  0  0  0  0  0  0  0  0  0  0  0
    6.2283  -13.0182   25.1529 C   0  0  2  0  0  0  0  0  0  0  0  0
    5.9163  -12.0032   26.2601 C   0  0  0  0  0  0  0  0  0  0  0  0
    6.8947  -14.2190   25.7380 C   0  0  0  0  0  0  0  0  0  0  0  0
    7.0884  -15.2878   24.7119 C   0  0  2  0  0  0  0  0  0  0  0  0
    5.9284  -16.1447   24.6486 N   0  0  0  0  0  0  0  0  0  0  0  0
    8.3138  -16.1052   24.9838 C   0  0  0  0  0  0  0  0  0  0  0  0
    8.2516  -16.9698   25.8798 O   0  0  0  0  0  0  0  0  0  0  0  0
    9.5250  -15.9456   24.2806 N   0  0  0  0  0  0  0  0  0  0  0  0
   10.7414  -16.7682   24.6221 C   0  0  1  0  0  0  0  0  0  0  0  0
   11.6740  -16.6142   23.4632 C   0  0  0  0  0  0  0  0  0  0  0  0
   11.1590  -16.9354   22.1664 C   0  0  0  0  0  0  0  0  0  0  0  0
   10.6332  -17.9706   21.7137 O   0  0  0  0  0  0  0  0  0  0  0  0
   11.2581  -16.2375   25.8878 C   0  0  0  0  0  0  0  0  0  0  0  0
   12.1271  -15.2920   25.9041 O   0  0  0  0  0  0  0  0  0  0  0  0
   11.2545  -15.8909   21.1924 O   0  0  0  0  0  0  0  0  0  0  0  0
   10.8690  -16.6811   27.1644 N   0  0  0  0  0  0  0  0  0  0  0  0
   11.6208  -16.3274   28.3687 C   0  0  1  0  0  0  0  0  0  0  0  0
   10.8661  -15.2344   29.0643 C   0  0  0  0  0  0  0  0  0  0  0  0
   10.2272  -13.9967   27.9274 S   0  0  0  0  0  0  0  0  0  0  0  0
   11.6765  -17.5378   29.2518 C   0  0  0  0  0  0  0  0  0  0  0  0
   12.3820  -17.5355   30.4419 O   0  0  0  0  0  0  0  0  0  0  0  0
   11.0729  -18.6020   28.9262 O   0  0  0  0  0  0  0  0  0  0  0  0
  2  1  1  6
  2  3  1  0
  4  2  1  0
  5  4  1  0
  5  7  1  0
  5  6  1  1
  7  9  1  0
  7  8  2  0
  9 10  1  0
 10 11  1  6
 12 11  1  0
 12 16  1  0
 13 12  2  0
 14 17  1  0
 14 10  1  0
 15 14  2  0
 18 21  1  0
 18 17  1  0
 18 19  1  1
 20 19  1  0
 21 22  1  0
 23 21  2  0
M  END
$$$$
