LDC.pdb
     RDKit          3D

 23 22  0  0  1  0  0  0  0  0999 V2000
    8.9940  -13.5224   19.2490 C   0  0  0  0  0  0  0  0  0  0  0  0
    7.7625  -13.7061   20.0684 C   0  0  2  0  0  0  0  0  0  0  0  0
    7.2240  -12.3133   20.4201 C   0  0  0  0  0  0  0  0  0  0  0  0
    7.9356  -14.5126   21.3125 C   0  0  0  0  0  0  0  0  0  0  0  0
    8.5409  -15.8463   21.0165 C   0  0  2  0  0  0  0  0  0  0  0  0
    7.5309  -16.7695   20.5565 N   0  0  0  0  0  0  0  0  0  0  0  0
    9.2478  -16.4141   22.2089 C   0  0  0  0  0  0  0  0  0  0  0  0
    8.5520  -16.8756   23.1347 O   0  0  0  0  0  0  0  0  0  0  0  0
   10.6512  -16.4516   22.3339 N   0  0  0  0  0  0  0  0  0  0  0  0
   11.3113  -17.0007   23.5732 C   0  0  1  0  0  0  0  0  0  0  0  0
   12.7491  -17.1993   23.2133 C   0  0  0  0  0  0  0  0  0  0  0  0
   13.5419  -17.9848   24.1105 C   0  0  0  0  0  0  0  0  0  0  0  0
   14.7574  -18.2596   24.1227 O   0  0  0  0  0  0  0  0  0  0  0  0
   11.0851  -16.0140   24.6343 C   0  0  0  0  0  0  0  0  0  0  0  0
   11.2604  -14.7598   24.4209 O   0  0  0  0  0  0  0  0  0  0  0  0
   12.8295  -18.5741   25.2032 O   0  0  0  0  0  0  0  0  0  0  0  0
   10.6624  -16.3201   25.9403 N   0  0  0  0  0  0  0  0  0  0  0  0
   10.5218  -15.2897   26.9695 C   0  0  1  0  0  0  0  0  0  0  0  0
    9.1962  -14.6218   26.7580 C   0  0  0  0  0  0  0  0  0  0  0  0
    8.8487  -13.3582   27.9888 S   0  0  0  0  0  0  0  0  0  0  0  0
   10.5336  -15.9667   28.3071 C   0  0  0  0  0  0  0  0  0  0  0  0
   10.5198  -17.3454   28.4224 O   0  0  0  0  0  0  0  0  0  0  0  0
   10.5569  -15.2860   29.3744 O   0  0  0  0  0  0  0  0  0  0  0  0
  2  1  1  1
  2  3  1  0
  4  2  1  0
  5  4  1  0
  5  7  1  0
  5  6  1  1
  7  9  1  0
  7  8  2  0
  9 10  1  0
 10 11  1  6
 12 11  1  0
 12 16  1  0
 13 12  2  0
 14 17  1  0
 14 10  1  0
 15 14  2  0
 18 21  1  0
 18 17  1  0
 18 19  1  6
 20 19  1  0
 21 22  1  0
 23 21  2  0
M  END
$$$$
