LDC.pdb
     RDKit          3D

 23 22  0  0  1  0  0  0  0  0999 V2000
    9.2125  -12.8382   18.9307 C   0  0  0  0  0  0  0  0  0  0  0  0
    8.0102  -13.5509   19.4487 C   0  0  2  0  0  0  0  0  0  0  0  0
    6.8569  -12.5408   19.5042 C   0  0  0  0  0  0  0  0  0  0  0  0
    8.1775  -14.2042   20.7805 C   0  0  0  0  0  0  0  0  0  0  0  0
    9.3841  -15.0852   20.8066 C   0  0  2  0  0  0  0  0  0  0  0  0
    9.3163  -16.0675   19.7510 N   0  0  0  0  0  0  0  0  0  0  0  0
    9.5470  -15.7673   22.1302 C   0  0  0  0  0  0  0  0  0  0  0  0
    8.6210  -15.6627   22.9585 O   0  0  0  0  0  0  0  0  0  0  0  0
   10.6880  -16.5164   22.4821 N   0  0  0  0  0  0  0  0  0  0  0  0
   10.7742  -17.2348   23.8048 C   0  0  1  0  0  0  0  0  0  0  0  0
   11.9834  -18.1099   23.7134 C   0  0  0  0  0  0  0  0  0  0  0  0
   11.8421  -19.3422   22.9981 C   0  0  0  0  0  0  0  0  0  0  0  0
   10.9556  -19.7595   22.2279 O   0  0  0  0  0  0  0  0  0  0  0  0
   10.8578  -16.1951   24.8358 C   0  0  0  0  0  0  0  0  0  0  0  0
   11.5647  -15.1383   24.6550 O   0  0  0  0  0  0  0  0  0  0  0  0
   12.9019  -20.2857   23.1860 O   0  0  0  0  0  0  0  0  0  0  0  0
   10.1954  -16.2371   26.0757 N   0  0  0  0  0  0  0  0  0  0  0  0
   10.2844  -15.1384   27.0379 C   0  0  1  0  0  0  0  0  0  0  0  0
    8.9904  -14.3833   26.9779 C   0  0  0  0  0  0  0  0  0  0  0  0
    8.9334  -13.0065   28.1328 S   0  0  0  0  0  0  0  0  0  0  0  0
   10.4549  -15.7321   28.4040 C   0  0  0  0  0  0  0  0  0  0  0  0
   10.3818  -17.0974   28.6158 O   0  0  0  0  0  0  0  0  0  0  0  0
   10.6723  -14.9906   29.4070 O   0  0  0  0  0  0  0  0  0  0  0  0
  2  1  1  1
  2  3  1  0
  4  2  1  0
  5  4  1  0
  5  7  1  0
  5  6  1  6
  7  9  1  0
  7  8  2  0
  9 10  1  0
 10 11  1  6
 12 11  1  0
 12 16  1  0
 13 12  2  0
 14 17  1  0
 14 10  1  0
 15 14  2  0
 18 21  1  0
 18 17  1  0
 18 19  1  1
 20 19  1  0
 21 22  1  0
 23 21  2  0
M  END
$$$$
