LDC.pdb
     RDKit          3D

 23 22  0  0  1  0  0  0  0  0999 V2000
    9.4778  -13.2673   19.0229 C   0  0  0  0  0  0  0  0  0  0  0  0
    8.0949  -13.5409   19.5072 C   0  0  2  0  0  0  0  0  0  0  0  0
    7.3227  -12.2155   19.4867 C   0  0  0  0  0  0  0  0  0  0  0  0
    8.0019  -14.1618   20.8615 C   0  0  0  0  0  0  0  0  0  0  0  0
    8.9560  -15.3030   21.0034 C   0  0  2  0  0  0  0  0  0  0  0  0
    8.5603  -16.4019   20.1550 N   0  0  0  0  0  0  0  0  0  0  0  0
    9.0626  -15.7663   22.4239 C   0  0  0  0  0  0  0  0  0  0  0  0
    8.0418  -15.7023   23.1368 O   0  0  0  0  0  0  0  0  0  0  0  0
   10.2524  -16.2677   22.9895 N   0  0  0  0  0  0  0  0  0  0  0  0
   10.2684  -16.8671   24.3728 C   0  0  1  0  0  0  0  0  0  0  0  0
   11.4341  -17.8035   24.3960 C   0  0  0  0  0  0  0  0  0  0  0  0
   11.4636  -18.8306   23.3987 C   0  0  0  0  0  0  0  0  0  0  0  0
   10.7260  -19.8146   23.1966 O   0  0  0  0  0  0  0  0  0  0  0  0
   10.3774  -15.7438   25.3094 C   0  0  0  0  0  0  0  0  0  0  0  0
   11.3405  -14.8988   25.2211 O   0  0  0  0  0  0  0  0  0  0  0  0
   12.5277  -18.7308   22.4466 O   0  0  0  0  0  0  0  0  0  0  0  0
    9.4743  -15.4774   26.3540 N   0  0  0  0  0  0  0  0  0  0  0  0
    9.7221  -14.4266   27.3417 C   0  0  1  0  0  0  0  0  0  0  0  0
    8.4050  -13.7789   27.6480 C   0  0  0  0  0  0  0  0  0  0  0  0
    7.4081  -13.4986   26.1783 S   0  0  0  0  0  0  0  0  0  0  0  0
   10.2619  -15.0745   28.5814 C   0  0  0  0  0  0  0  0  0  0  0  0
   10.7126  -14.3255   29.6537 O   0  0  0  0  0  0  0  0  0  0  0  0
   10.3188  -16.3356   28.6776 O   0  0  0  0  0  0  0  0  0  0  0  0
  2  1  1  1
  2  3  1  0
  4  2  1  0
  5  4  1  0
  5  7  1  0
  5  6  1  6
  7  9  1  0
  7  8  2  0
  9 10  1  0
 10 11  1  6
 12 11  1  0
 12 16  1  0
 13 12  2  0
 14 17  1  0
 14 10  1  0
 15 14  2  0
 18 21  1  0
 18 17  1  0
 18 19  1  1
 20 19  1  0
 21 22  1  0
 23 21  2  0
M  END
$$$$
