LDC.pdb
     RDKit          3D

 23 22  0  0  1  0  0  0  0  0999 V2000
    9.2918  -13.0570   18.8470 C   0  0  0  0  0  0  0  0  0  0  0  0
    7.9655  -13.5927   19.2664 C   0  0  2  0  0  0  0  0  0  0  0  0
    6.9205  -12.4971   19.0190 C   0  0  0  0  0  0  0  0  0  0  0  0
    7.8831  -14.0629   20.6807 C   0  0  0  0  0  0  0  0  0  0  0  0
    9.0060  -14.9915   21.0116 C   0  0  2  0  0  0  0  0  0  0  0  0
    9.0385  -16.0970   20.0838 N   0  0  0  0  0  0  0  0  0  0  0  0
    8.9089  -15.5048   22.4155 C   0  0  0  0  0  0  0  0  0  0  0  0
    7.8321  -15.3431   23.0227 O   0  0  0  0  0  0  0  0  0  0  0  0
    9.9681  -16.1570   23.0784 N   0  0  0  0  0  0  0  0  0  0  0  0
    9.8229  -16.6375   24.5001 C   0  0  1  0  0  0  0  0  0  0  0  0
   10.9140  -17.6397   24.7034 C   0  0  0  0  0  0  0  0  0  0  0  0
   10.7966  -18.8812   23.9997 C   0  0  0  0  0  0  0  0  0  0  0  0
    9.8315  -19.6505   23.8262 O   0  0  0  0  0  0  0  0  0  0  0  0
    9.9287  -15.4484   25.3517 C   0  0  0  0  0  0  0  0  0  0  0  0
   10.9591  -14.6837   25.2967 O   0  0  0  0  0  0  0  0  0  0  0  0
   11.9956  -19.3459   23.3710 O   0  0  0  0  0  0  0  0  0  0  0  0
    8.9529  -15.0304   26.2742 N   0  0  0  0  0  0  0  0  0  0  0  0
    9.1915  -13.9286   27.2068 C   0  0  1  0  0  0  0  0  0  0  0  0
    7.8837  -13.2253   27.4149 C   0  0  0  0  0  0  0  0  0  0  0  0
    6.8694  -13.1877   25.9309 S   0  0  0  0  0  0  0  0  0  0  0  0
    9.6572  -14.5144   28.5060 C   0  0  0  0  0  0  0  0  0  0  0  0
   10.0987  -13.7150   29.5453 O   0  0  0  0  0  0  0  0  0  0  0  0
    9.6576  -15.7678   28.6850 O   0  0  0  0  0  0  0  0  0  0  0  0
  2  1  1  1
  2  3  1  0
  4  2  1  0
  5  4  1  0
  5  7  1  0
  5  6  1  6
  7  9  1  0
  7  8  2  0
  9 10  1  0
 10 11  1  1
 12 11  1  0
 12 16  1  0
 13 12  2  0
 14 17  1  0
 14 10  1  0
 15 14  2  0
 18 21  1  0
 18 17  1  0
 18 19  1  1
 20 19  1  0
 21 22  1  0
 23 21  2  0
M  END
$$$$
