LDC.pdb
     RDKit          3D

 23 22  0  0  1  0  0  0  0  0999 V2000
    5.6207  -13.2614   26.5900 C   0  0  0  0  0  0  0  0  0  0  0  0
    6.8777  -13.5008   25.8255 C   0  0  2  0  0  0  0  0  0  0  0  0
    7.6727  -12.1888   25.8121 C   0  0  0  0  0  0  0  0  0  0  0  0
    6.6936  -13.9973   24.4298 C   0  0  0  0  0  0  0  0  0  0  0  0
    6.6636  -15.4905   24.3830 C   0  0  2  0  0  0  0  0  0  0  0  0
    5.7289  -16.0085   25.3535 N   0  0  0  0  0  0  0  0  0  0  0  0
    8.0203  -16.0822   24.6132 C   0  0  0  0  0  0  0  0  0  0  0  0
    8.1899  -16.7721   25.6377 O   0  0  0  0  0  0  0  0  0  0  0  0
    9.1065  -15.8983   23.7339 N   0  0  0  0  0  0  0  0  0  0  0  0
   10.4369  -16.5618   23.9854 C   0  0  1  0  0  0  0  0  0  0  0  0
   11.3030  -16.1873   22.8252 C   0  0  0  0  0  0  0  0  0  0  0  0
   12.5295  -16.9094   22.6692 C   0  0  0  0  0  0  0  0  0  0  0  0
   13.7100  -16.6101   22.9339 O   0  0  0  0  0  0  0  0  0  0  0  0
   10.9112  -16.0609   25.2795 C   0  0  0  0  0  0  0  0  0  0  0  0
   11.3111  -14.8479   25.4142 O   0  0  0  0  0  0  0  0  0  0  0  0
   12.4029  -18.2197   22.1070 O   0  0  0  0  0  0  0  0  0  0  0  0
   10.9689  -16.8187   26.4629 N   0  0  0  0  0  0  0  0  0  0  0  0
   11.2692  -16.2085   27.7584 C   0  0  1  0  0  0  0  0  0  0  0  0
   10.1138  -15.3222   28.1158 C   0  0  0  0  0  0  0  0  0  0  0  0
   10.5999  -13.6085   28.3591 S   0  0  0  0  0  0  0  0  0  0  0  0
   11.3892  -17.3076   28.7711 C   0  0  0  0  0  0  0  0  0  0  0  0
   11.0245  -18.6090   28.4757 O   0  0  0  0  0  0  0  0  0  0  0  0
   11.8318  -17.0685   29.9330 O   0  0  0  0  0  0  0  0  0  0  0  0
  2  1  1  6
  2  3  1  0
  4  2  1  0
  5  4  1  0
  5  7  1  0
  5  6  1  1
  7  9  1  0
  7  8  2  0
  9 10  1  0
 10 11  1  6
 12 11  1  0
 12 16  1  0
 13 12  2  0
 14 17  1  0
 14 10  1  0
 15 14  2  0
 18 21  1  0
 18 17  1  0
 18 19  1  1
 20 19  1  0
 21 22  1  0
 23 21  2  0
M  END
$$$$
