LDC.pdb
     RDKit          3D

 23 22  0  0  1  0  0  0  0  0999 V2000
    5.4007  -12.7771   26.0605 C   0  0  0  0  0  0  0  0  0  0  0  0
    6.8125  -12.8887   25.5956 C   0  0  2  0  0  0  0  0  0  0  0  0
    7.5282  -11.5814   25.9593 C   0  0  0  0  0  0  0  0  0  0  0  0
    6.9869  -13.1753   24.1410 C   0  0  0  0  0  0  0  0  0  0  0  0
    7.0861  -14.6439   23.8839 C   0  0  2  0  0  0  0  0  0  0  0  0
    6.4208  -15.3865   24.9278 N   0  0  0  0  0  0  0  0  0  0  0  0
    8.5101  -15.0933   23.7645 C   0  0  0  0  0  0  0  0  0  0  0  0
    9.3130  -14.3393   23.1805 O   0  0  0  0  0  0  0  0  0  0  0  0
    8.9828  -16.3183   24.2770 N   0  0  0  0  0  0  0  0  0  0  0  0
   10.4023  -16.7686   24.0414 C   0  0  1  0  0  0  0  0  0  0  0  0
   10.8324  -16.1073   22.7710 C   0  0  0  0  0  0  0  0  0  0  0  0
   10.5959  -16.8219   21.5530 C   0  0  0  0  0  0  0  0  0  0  0  0
   10.0000  -17.8912   21.3187 O   0  0  0  0  0  0  0  0  0  0  0  0
   11.1676  -16.3604   25.2239 C   0  0  0  0  0  0  0  0  0  0  0  0
   12.4495  -16.2884   25.1909 O   0  0  0  0  0  0  0  0  0  0  0  0
   11.1334  -16.2170   20.3724 O   0  0  0  0  0  0  0  0  0  0  0  0
   10.6052  -16.0110   26.4646 N   0  0  0  0  0  0  0  0  0  0  0  0
   11.4340  -15.6814   27.6245 C   0  0  1  0  0  0  0  0  0  0  0  0
   10.9821  -14.3457   28.1341 C   0  0  0  0  0  0  0  0  0  0  0  0
    9.2165  -14.2889   28.4686 S   0  0  0  0  0  0  0  0  0  0  0  0
   11.1964  -16.7247   28.6747 C   0  0  0  0  0  0  0  0  0  0  0  0
   10.2920  -17.7539   28.4832 O   0  0  0  0  0  0  0  0  0  0  0  0
   11.8244  -16.6884   29.7735 O   0  0  0  0  0  0  0  0  0  0  0  0
  2  1  1  6
  2  3  1  0
  4  2  1  0
  5  4  1  0
  5  7  1  0
  5  6  1  1
  7  9  1  0
  7  8  2  0
  9 10  1  0
 10 11  1  6
 12 11  1  0
 12 16  1  0
 13 12  2  0
 14 17  1  0
 14 10  1  0
 15 14  2  0
 18 21  1  0
 18 17  1  0
 18 19  1  1
 20 19  1  0
 21 22  1  0
 23 21  2  0
M  END
$$$$
