LDC.pdb
     RDKit          3D

 23 22  0  0  1  0  0  0  0  0999 V2000
    9.4899  -13.0012   19.4542 C   0  0  0  0  0  0  0  0  0  0  0  0
    8.0857  -13.4391   19.6959 C   0  0  2  0  0  0  0  0  0  0  0  0
    7.2544  -12.1884   20.0089 C   0  0  0  0  0  0  0  0  0  0  0  0
    7.9080  -14.4510   20.7789 C   0  0  0  0  0  0  0  0  0  0  0  0
    8.7217  -15.6767   20.5171 C   0  0  2  0  0  0  0  0  0  0  0  0
    7.9996  -16.5907   19.6644 N   0  0  0  0  0  0  0  0  0  0  0  0
    9.1157  -16.3654   21.7876 C   0  0  0  0  0  0  0  0  0  0  0  0
    8.2366  -16.9974   22.4056 O   0  0  0  0  0  0  0  0  0  0  0  0
   10.4227  -16.3339   22.3143 N   0  0  0  0  0  0  0  0  0  0  0  0
   10.7525  -16.9967   23.6277 C   0  0  1  0  0  0  0  0  0  0  0  0
   12.1111  -17.5960   23.4502 C   0  0  0  0  0  0  0  0  0  0  0  0
   12.7195  -18.1828   24.6060 C   0  0  0  0  0  0  0  0  0  0  0  0
   12.2323  -18.6993   25.6301 O   0  0  0  0  0  0  0  0  0  0  0  0
   10.6842  -15.9472   24.6497 C   0  0  0  0  0  0  0  0  0  0  0  0
   10.8683  -14.7132   24.3452 O   0  0  0  0  0  0  0  0  0  0  0  0
   14.1508  -18.1889   24.6095 O   0  0  0  0  0  0  0  0  0  0  0  0
   10.4134  -16.1677   26.0120 N   0  0  0  0  0  0  0  0  0  0  0  0
   10.3571  -15.0695   26.9772 C   0  0  1  0  0  0  0  0  0  0  0  0
    9.0561  -14.3543   26.7681 C   0  0  0  0  0  0  0  0  0  0  0  0
    8.7593  -13.0751   27.9962 S   0  0  0  0  0  0  0  0  0  0  0  0
   10.3874  -15.6616   28.3544 C   0  0  0  0  0  0  0  0  0  0  0  0
   10.8308  -14.9364   29.4460 O   0  0  0  0  0  0  0  0  0  0  0  0
   10.0039  -16.8517   28.5534 O   0  0  0  0  0  0  0  0  0  0  0  0
  2  1  1  1
  2  3  1  0
  4  2  1  0
  5  4  1  0
  5  7  1  0
  5  6  1  6
  7  9  1  0
  7  8  2  0
  9 10  1  0
 10 11  1  6
 12 11  1  0
 12 16  1  0
 13 12  2  0
 14 17  1  0
 14 10  1  0
 15 14  2  0
 18 21  1  0
 18 17  1  0
 18 19  1  6
 20 19  1  0
 21 22  1  0
 23 21  2  0
M  END
$$$$
