LDC.pdb
     RDKit          3D

 23 22  0  0  1  0  0  0  0  0999 V2000
    8.5261  -13.2046   18.9578 C   0  0  0  0  0  0  0  0  0  0  0  0
    7.4970  -13.7638   19.8799 C   0  0  2  0  0  0  0  0  0  0  0  0
    6.6430  -12.5956   20.3893 C   0  0  0  0  0  0  0  0  0  0  0  0
    8.0293  -14.5452   21.0351 C   0  0  0  0  0  0  0  0  0  0  0  0
    8.7945  -15.7433   20.5750 C   0  0  2  0  0  0  0  0  0  0  0  0
    7.9262  -16.6606   19.8761 N   0  0  0  0  0  0  0  0  0  0  0  0
    9.4688  -16.4445   21.7141 C   0  0  0  0  0  0  0  0  0  0  0  0
    8.8532  -17.3726   22.2745 O   0  0  0  0  0  0  0  0  0  0  0  0
   10.7561  -16.1085   22.1796 N   0  0  0  0  0  0  0  0  0  0  0  0
   11.4077  -16.8781   23.3004 C   0  0  1  0  0  0  0  0  0  0  0  0
   12.8219  -16.3951   23.3559 C   0  0  0  0  0  0  0  0  0  0  0  0
   13.7191  -16.8926   22.3570 C   0  0  0  0  0  0  0  0  0  0  0  0
   13.6789  -17.9073   21.6345 O   0  0  0  0  0  0  0  0  0  0  0  0
   10.6247  -16.5941   24.5074 C   0  0  0  0  0  0  0  0  0  0  0  0
   10.4460  -15.3886   24.9127 O   0  0  0  0  0  0  0  0  0  0  0  0
   14.8852  -16.0949   22.1277 O   0  0  0  0  0  0  0  0  0  0  0  0
   10.0052  -17.5675   25.3116 N   0  0  0  0  0  0  0  0  0  0  0  0
    9.3598  -17.2268   26.5797 C   0  0  1  0  0  0  0  0  0  0  0  0
    8.0227  -16.6301   26.2568 C   0  0  0  0  0  0  0  0  0  0  0  0
    6.9367  -17.7779   25.3990 S   0  0  0  0  0  0  0  0  0  0  0  0
    9.1679  -18.4946   27.3568 C   0  0  0  0  0  0  0  0  0  0  0  0
    8.6707  -18.4857   28.6478 O   0  0  0  0  0  0  0  0  0  0  0  0
    9.4594  -19.6152   26.8448 O   0  0  0  0  0  0  0  0  0  0  0  0
  2  1  1  1
  2  3  1  0
  4  2  1  0
  5  4  1  0
  5  7  1  0
  5  6  1  1
  7  9  1  0
  7  8  2  0
  9 10  1  0
 10 11  1  1
 12 11  1  0
 12 16  1  0
 13 12  2  0
 14 17  1  0
 14 10  1  0
 15 14  2  0
 18 21  1  0
 18 17  1  0
 18 19  1  6
 20 19  1  0
 21 22  1  0
 23 21  2  0
M  END
$$$$
