MCC.pdb
     RDKit          3D

 21 20  0  0  1  0  0  0  0  0999 V2000
   27.8003  -11.6502  -15.3021 C   0  0  0  0  0  0  0  0  0  0  0  0
   27.8269  -13.4183  -15.7484 S   0  0  0  0  0  0  0  0  0  0  0  0
   26.4967  -13.7790  -16.9505 C   0  0  0  0  0  0  0  0  0  0  0  0
   26.0527  -12.4716  -17.5717 C   0  0  0  0  0  0  0  0  0  0  0  0
   24.5536  -12.4294  -17.6124 C   0  0  2  0  0  0  0  0  0  0  0  0
   23.9674  -13.3806  -18.5161 N   0  0  0  0  0  0  0  0  0  0  0  0
   24.0816  -11.0484  -17.9344 C   0  0  0  0  0  0  0  0  0  0  0  0
   24.2783  -10.5179  -19.0565 O   0  0  0  0  0  0  0  0  0  0  0  0
   23.3807  -10.2404  -17.0005 N   0  0  0  0  0  0  0  0  0  0  0  0
   22.9198   -8.9369  -17.3117 C   0  0  1  0  0  0  0  0  0  0  0  0
   21.6908   -9.1031  -18.2180 C   0  0  0  0  0  0  0  0  0  0  0  0
   20.4997  -10.2428  -17.4602 S   0  0  0  0  0  0  0  0  0  0  0  0
   22.5625   -8.0851  -16.1987 C   0  0  0  0  0  0  0  0  0  0  0  0
   22.1730   -8.5247  -15.0932 O   0  0  0  0  0  0  0  0  0  0  0  0
   22.6460   -6.6767  -16.3317 N   0  0  0  0  0  0  0  0  0  0  0  0
   22.3370   -5.8006  -15.2260 C   0  0  1  0  0  0  0  0  0  0  0  0
   23.1800   -4.5288  -15.3337 C   0  0  0  0  0  0  0  0  0  0  0  0
   24.9212   -4.9581  -15.1653 S   0  0  0  0  0  0  0  0  0  0  0  0
   20.9012   -5.4935  -15.1327 C   0  0  0  0  0  0  0  0  0  0  0  0
   20.4210   -4.9149  -13.9683 O   0  0  0  0  0  0  0  0  0  0  0  0
   20.0783   -5.7261  -16.0519 O   0  0  0  0  0  0  0  0  0  0  0  0
  2  1  1  0
  3  2  1  0
  3  4  1  0
  4  5  1  0
  5  7  1  0
  5  6  1  6
  7  8  2  0
  9  7  1  0
  9 10  1  0
 10 13  1  0
 10 11  1  6
 12 11  1  0
 13 14  2  0
 15 13  1  0
 15 16  1  0
 16 19  1  0
 16 17  1  6
 18 17  1  0
 19 21  2  0
 19 20  1  0
M  END
$$$$
