MCC.pdb
     RDKit          3D

 21 20  0  0  1  0  0  0  0  0999 V2000
   27.6942  -14.4561  -16.1399 C   0  0  0  0  0  0  0  0  0  0  0  0
   27.6855  -12.8426  -15.2899 S   0  0  0  0  0  0  0  0  0  0  0  0
   28.3294  -11.5452  -16.4063 C   0  0  0  0  0  0  0  0  0  0  0  0
   27.2252  -10.5378  -16.6480 C   0  0  0  0  0  0  0  0  0  0  0  0
   26.1080  -11.2016  -17.3976 C   0  0  2  0  0  0  0  0  0  0  0  0
   26.4788  -11.6678  -18.7054 N   0  0  0  0  0  0  0  0  0  0  0  0
   24.9284  -10.2884  -17.4872 C   0  0  0  0  0  0  0  0  0  0  0  0
   24.8596   -9.3643  -18.3360 O   0  0  0  0  0  0  0  0  0  0  0  0
   23.8061  -10.3985  -16.6242 N   0  0  0  0  0  0  0  0  0  0  0  0
   22.6961   -9.5206  -16.6977 C   0  0  1  0  0  0  0  0  0  0  0  0
   21.4336  -10.3864  -16.5700 C   0  0  0  0  0  0  0  0  0  0  0  0
   21.2604  -11.4638  -18.0195 S   0  0  0  0  0  0  0  0  0  0  0  0
   22.6322   -8.4612  -15.7150 C   0  0  0  0  0  0  0  0  0  0  0  0
   23.4112   -8.3809  -14.7384 O   0  0  0  0  0  0  0  0  0  0  0  0
   21.6504   -7.4461  -15.8333 N   0  0  0  0  0  0  0  0  0  0  0  0
   21.7205   -6.2408  -15.0409 C   0  0  1  0  0  0  0  0  0  0  0  0
   23.0491   -5.5320  -15.3093 C   0  0  0  0  0  0  0  0  0  0  0  0
   23.1174   -4.0172  -14.3370 S   0  0  0  0  0  0  0  0  0  0  0  0
   20.5735   -5.3479  -15.2682 C   0  0  0  0  0  0  0  0  0  0  0  0
   20.1700   -5.1050  -16.5718 O   0  0  0  0  0  0  0  0  0  0  0  0
   19.9332   -4.7882  -14.3446 O   0  0  0  0  0  0  0  0  0  0  0  0
  2  1  1  0
  3  2  1  0
  3  4  1  0
  4  5  1  0
  5  7  1  0
  5  6  1  6
  7  8  2  0
  9  7  1  0
  9 10  1  0
 10 13  1  0
 10 11  1  1
 12 11  1  0
 13 14  2  0
 15 13  1  0
 15 16  1  0
 16 19  1  0
 16 17  1  6
 18 17  1  0
 19 21  2  0
 19 20  1  0
M  END
$$$$
