MCC.pdb
     RDKit          3D

 21 20  0  0  1  0  0  0  0  0999 V2000
   21.8144  -16.2477  -19.1423 C   0  0  0  0  0  0  0  0  0  0  0  0
   20.7512  -14.8944  -18.5391 S   0  0  0  0  0  0  0  0  0  0  0  0
   21.3581  -13.2916  -19.1773 C   0  0  0  0  0  0  0  0  0  0  0  0
   20.4558  -12.1981  -18.6457 C   0  0  0  0  0  0  0  0  0  0  0  0
   21.0330  -11.6598  -17.3699 C   0  0  2  0  0  0  0  0  0  0  0  0
   20.9085  -12.5526  -16.2507 N   0  0  0  0  0  0  0  0  0  0  0  0
   20.4270  -10.3328  -17.0451 C   0  0  0  0  0  0  0  0  0  0  0  0
   20.5049   -9.3516  -17.8264 O   0  0  0  0  0  0  0  0  0  0  0  0
   19.7234  -10.0863  -15.8366 N   0  0  0  0  0  0  0  0  0  0  0  0
   19.0528   -8.8650  -15.5778 C   0  0  1  0  0  0  0  0  0  0  0  0
   17.7329   -9.2207  -14.8773 C   0  0  0  0  0  0  0  0  0  0  0  0
   16.7260  -10.2931  -15.9395 S   0  0  0  0  0  0  0  0  0  0  0  0
   19.7552   -7.8892  -14.7737 C   0  0  0  0  0  0  0  0  0  0  0  0
   20.0458   -8.0708  -13.5697 O   0  0  0  0  0  0  0  0  0  0  0  0
   20.1497   -6.6543  -15.3461 N   0  0  0  0  0  0  0  0  0  0  0  0
   20.7742   -5.6250  -14.5486 C   0  0  1  0  0  0  0  0  0  0  0  0
   22.2752   -5.5951  -14.8411 C   0  0  0  0  0  0  0  0  0  0  0  0
   23.0379   -4.2752  -13.8816 S   0  0  0  0  0  0  0  0  0  0  0  0
   20.1565   -4.3044  -14.7464 C   0  0  0  0  0  0  0  0  0  0  0  0
   20.1010   -3.4304  -13.6720 O   0  0  0  0  0  0  0  0  0  0  0  0
   19.6728   -3.9186  -15.8388 O   0  0  0  0  0  0  0  0  0  0  0  0
  2  1  1  0
  3  2  1  0
  3  4  1  0
  4  5  1  0
  5  7  1  0
  5  6  1  1
  7  8  2  0
  9  7  1  0
  9 10  1  0
 10 13  1  0
 10 11  1  1
 12 11  1  0
 13 14  2  0
 15 13  1  0
 15 16  1  0
 16 19  1  0
 16 17  1  6
 18 17  1  0
 19 21  2  0
 19 20  1  0
M  END
$$$$
