MCC.pdb
     RDKit          3D

 21 20  0  0  1  0  0  0  0  0999 V2000
   22.2763  -21.6062  -19.9997 C   0  0  0  0  0  0  0  0  0  0  0  0
   21.3724  -20.0240  -19.9267 S   0  0  0  0  0  0  0  0  0  0  0  0
   22.0721  -18.9652  -18.6099 C   0  0  0  0  0  0  0  0  0  0  0  0
   22.7718  -19.8576  -17.6067 C   0  0  0  0  0  0  0  0  0  0  0  0
   23.3285  -19.0123  -16.4993 C   0  0  2  0  0  0  0  0  0  0  0  0
   24.7643  -18.9576  -16.4723 N   0  0  0  0  0  0  0  0  0  0  0  0
   22.8018  -19.4736  -15.1790 C   0  0  0  0  0  0  0  0  0  0  0  0
   23.4643  -20.2230  -14.4183 O   0  0  0  0  0  0  0  0  0  0  0  0
   21.5215  -19.1003  -14.6914 N   0  0  0  0  0  0  0  0  0  0  0  0
   20.9810  -19.6177  -13.4878 C   0  0  1  0  0  0  0  0  0  0  0  0
   20.5755  -18.4121  -12.6267 C   0  0  0  0  0  0  0  0  0  0  0  0
   19.9540  -18.9700  -11.0160 S   0  0  0  0  0  0  0  0  0  0  0  0
   19.8444  -20.5042  -13.6076 C   0  0  0  0  0  0  0  0  0  0  0  0
   18.8256  -20.2294  -14.2812 O   0  0  0  0  0  0  0  0  0  0  0  0
   19.8510  -21.7553  -12.9420 N   0  0  0  0  0  0  0  0  0  0  0  0
   18.7148  -22.6442  -13.0075 C   0  0  1  0  0  0  0  0  0  0  0  0
   19.0561  -23.9589  -12.3042 C   0  0  0  0  0  0  0  0  0  0  0  0
   17.6607  -25.0881  -12.4532 S   0  0  0  0  0  0  0  0  0  0  0  0
   17.4910  -22.0380  -12.4605 C   0  0  0  0  0  0  0  0  0  0  0  0
   16.2827  -22.3029  -13.0860 O   0  0  0  0  0  0  0  0  0  0  0  0
   17.4753  -21.2892  -11.4529 O   0  0  0  0  0  0  0  0  0  0  0  0
  2  1  1  0
  3  2  1  0
  3  4  1  0
  4  5  1  0
  5  7  1  0
  5  6  1  1
  7  8  2  0
  9  7  1  0
  9 10  1  0
 10 13  1  0
 10 11  1  1
 12 11  1  0
 13 14  2  0
 15 13  1  0
 15 16  1  0
 16 19  1  0
 16 17  1  1
 18 17  1  0
 19 21  2  0
 19 20  1  0
M  END
$$$$
