MCC.pdb
     RDKit          3D

 21 20  0  0  1  0  0  0  0  0999 V2000
   32.5466  -22.7570  -21.4159 C   0  0  0  0  0  0  0  0  0  0  0  0
   34.3498  -22.9633  -21.2370 S   0  0  0  0  0  0  0  0  0  0  0  0
   34.7778  -24.7413  -21.2360 C   0  0  0  0  0  0  0  0  0  0  0  0
   33.6648  -25.4958  -20.5402 C   0  0  0  0  0  0  0  0  0  0  0  0
   34.1508  -25.9672  -19.2014 C   0  0  2  0  0  0  0  0  0  0  0  0
   35.1506  -26.9969  -19.2731 N   0  0  0  0  0  0  0  0  0  0  0  0
   33.0004  -26.4183  -18.3608 C   0  0  0  0  0  0  0  0  0  0  0  0
   32.5744  -27.6003  -18.3871 O   0  0  0  0  0  0  0  0  0  0  0  0
   32.3094  -25.5484  -17.4764 N   0  0  0  0  0  0  0  0  0  0  0  0
   31.2466  -25.9869  -16.6479 C   0  0  1  0  0  0  0  0  0  0  0  0
   31.4313  -25.3016  -15.2856 C   0  0  0  0  0  0  0  0  0  0  0  0
   32.7905  -26.0792  -14.3692 S   0  0  0  0  0  0  0  0  0  0  0  0
   29.9022  -25.7314  -17.1162 C   0  0  0  0  0  0  0  0  0  0  0  0
   29.5989  -24.7537  -17.8367 O   0  0  0  0  0  0  0  0  0  0  0  0
   28.8508  -26.6125  -16.7605 N   0  0  0  0  0  0  0  0  0  0  0  0
   27.5516  -26.5180  -17.3839 C   0  0  1  0  0  0  0  0  0  0  0  0
   27.7071  -26.6196  -18.9021 C   0  0  0  0  0  0  0  0  0  0  0  0
   26.1001  -26.3751  -19.6782 S   0  0  0  0  0  0  0  0  0  0  0  0
   26.6031  -27.5172  -16.8675 C   0  0  0  0  0  0  0  0  0  0  0  0
   25.2489  -27.2234  -16.8964 O   0  0  0  0  0  0  0  0  0  0  0  0
   26.9498  -28.6290  -16.3986 O   0  0  0  0  0  0  0  0  0  0  0  0
  2  1  1  0
  3  2  1  0
  3  4  1  0
  4  5  1  0
  5  7  1  0
  5  6  1  6
  7  8  2  0
  9  7  1  0
  9 10  1  0
 10 13  1  0
 10 11  1  1
 12 11  1  0
 13 14  2  0
 15 13  1  0
 15 16  1  0
 16 19  1  0
 16 17  1  6
 18 17  1  0
 19 21  2  0
 19 20  1  0
M  END
$$$$
