MCC.pdb
     RDKit          3D

 21 20  0  0  1  0  0  0  0  0999 V2000
   12.1047  -12.4675  -15.6369 C   0  0  0  0  0  0  0  0  0  0  0  0
   12.9304  -14.0846  -15.8073 S   0  0  0  0  0  0  0  0  0  0  0  0
   14.7240  -13.8451  -16.0723 C   0  0  0  0  0  0  0  0  0  0  0  0
   15.1829  -12.6984  -15.1966 C   0  0  0  0  0  0  0  0  0  0  0  0
   16.6304  -12.4164  -15.4723 C   0  0  2  0  0  0  0  0  0  0  0  0
   17.5142  -13.4877  -15.1032 N   0  0  0  0  0  0  0  0  0  0  0  0
   17.0481  -11.1459  -14.8055 C   0  0  0  0  0  0  0  0  0  0  0  0
   17.2524  -11.0748  -13.5676 O   0  0  0  0  0  0  0  0  0  0  0  0
   17.2430   -9.9337  -15.5189 N   0  0  0  0  0  0  0  0  0  0  0  0
   17.6640   -8.7356  -14.8898 C   0  0  1  0  0  0  0  0  0  0  0  0
   19.1155   -8.4884  -15.3275 C   0  0  0  0  0  0  0  0  0  0  0  0
   19.2488   -8.5633  -17.1355 S   0  0  0  0  0  0  0  0  0  0  0  0
   16.8892   -7.5450  -15.1623 C   0  0  0  0  0  0  0  0  0  0  0  0
   16.2477   -7.3695  -16.2229 O   0  0  0  0  0  0  0  0  0  0  0  0
   16.8311   -6.5046  -14.2018 N   0  0  0  0  0  0  0  0  0  0  0  0
   16.1941   -5.2437  -14.5015 C   0  0  1  0  0  0  0  0  0  0  0  0
   15.1314   -4.9462  -13.4423 C   0  0  0  0  0  0  0  0  0  0  0  0
   14.5014   -3.2770  -13.6901 S   0  0  0  0  0  0  0  0  0  0  0  0
   17.1582   -4.1396  -14.6279 C   0  0  0  0  0  0  0  0  0  0  0  0
   16.9818   -3.2185  -15.6485 O   0  0  0  0  0  0  0  0  0  0  0  0
   18.1389   -3.9804  -13.8604 O   0  0  0  0  0  0  0  0  0  0  0  0
  2  1  1  0
  3  2  1  0
  3  4  1  0
  4  5  1  0
  5  7  1  0
  5  6  1  1
  7  8  2  0
  9  7  1  0
  9 10  1  0
 10 13  1  0
 10 11  1  6
 12 11  1  0
 13 14  2  0
 15 13  1  0
 15 16  1  0
 16 19  1  0
 16 17  1  1
 18 17  1  0
 19 21  2  0
 19 20  1  0
M  END
$$$$
