MCC.pdb
     RDKit          3D

 21 20  0  0  1  0  0  0  0  0999 V2000
   15.3152  -14.8684  -13.0437 C   0  0  0  0  0  0  0  0  0  0  0  0
   14.6990  -13.2589  -12.4472 S   0  0  0  0  0  0  0  0  0  0  0  0
   15.8541  -11.9280  -12.9358 C   0  0  0  0  0  0  0  0  0  0  0  0
   15.2550  -10.6029  -12.5145 C   0  0  0  0  0  0  0  0  0  0  0  0
   16.0296  -10.0599  -11.3500 C   0  0  2  0  0  0  0  0  0  0  0  0
   15.6820  -10.6556  -10.0893 N   0  0  0  0  0  0  0  0  0  0  0  0
   15.8867   -8.5739  -11.2789 C   0  0  0  0  0  0  0  0  0  0  0  0
   14.7708   -8.0144  -11.1349 O   0  0  0  0  0  0  0  0  0  0  0  0
   16.9959   -7.6918  -11.3686 N   0  0  0  0  0  0  0  0  0  0  0  0
   16.8550   -6.2818  -11.3485 C   0  0  1  0  0  0  0  0  0  0  0  0
   17.6645   -5.7699  -10.1476 C   0  0  0  0  0  0  0  0  0  0  0  0
   16.6718   -5.8679   -8.6320 S   0  0  0  0  0  0  0  0  0  0  0  0
   17.2771   -5.5641  -12.5311 C   0  0  0  0  0  0  0  0  0  0  0  0
   18.0234   -6.0586  -13.4062 O   0  0  0  0  0  0  0  0  0  0  0  0
   16.8424   -4.2318  -12.7418 N   0  0  0  0  0  0  0  0  0  0  0  0
   17.2165   -3.5013  -13.9300 C   0  0  1  0  0  0  0  0  0  0  0  0
   16.7696   -4.2804  -15.1681 C   0  0  0  0  0  0  0  0  0  0  0  0
   17.2310   -3.3581  -16.6449 S   0  0  0  0  0  0  0  0  0  0  0  0
   16.6930   -2.1263  -13.9361 C   0  0  0  0  0  0  0  0  0  0  0  0
   17.3108   -1.1848  -14.7442 O   0  0  0  0  0  0  0  0  0  0  0  0
   15.7122   -1.7518  -13.2476 O   0  0  0  0  0  0  0  0  0  0  0  0
  2  1  1  0
  3  2  1  0
  3  4  1  0
  4  5  1  0
  5  7  1  0
  5  6  1  1
  7  8  2  0
  9  7  1  0
  9 10  1  0
 10 13  1  0
 10 11  1  1
 12 11  1  0
 13 14  2  0
 15 13  1  0
 15 16  1  0
 16 19  1  0
 16 17  1  6
 18 17  1  0
 19 21  2  0
 19 20  1  0
M  END
$$$$
