MCC.pdb
     RDKit          3D

 21 20  0  0  1  0  0  0  0  0999 V2000
   29.0096  -11.2550  -16.5106 C   0  0  0  0  0  0  0  0  0  0  0  0
   28.4960  -12.6499  -15.4540 S   0  0  0  0  0  0  0  0  0  0  0  0
   26.7871  -13.1516  -15.8692 C   0  0  0  0  0  0  0  0  0  0  0  0
   26.0227  -11.9175  -16.2994 C   0  0  0  0  0  0  0  0  0  0  0  0
   24.6282  -12.3119  -16.6874 C   0  0  2  0  0  0  0  0  0  0  0  0
   24.5700  -13.3125  -17.7173 N   0  0  0  0  0  0  0  0  0  0  0  0
   23.8406  -11.1071  -17.0892 C   0  0  0  0  0  0  0  0  0  0  0  0
   23.3946  -10.9562  -18.2544 O   0  0  0  0  0  0  0  0  0  0  0  0
   23.5412  -10.0512  -16.1881 N   0  0  0  0  0  0  0  0  0  0  0  0
   22.8002   -8.9057  -16.5717 C   0  0  1  0  0  0  0  0  0  0  0  0
   21.3609   -9.3733  -16.8351 C   0  0  0  0  0  0  0  0  0  0  0  0
   20.7630  -10.3803  -15.4492 S   0  0  0  0  0  0  0  0  0  0  0  0
   22.7650   -7.8041  -15.6351 C   0  0  0  0  0  0  0  0  0  0  0  0
   22.9983   -7.9333  -14.4120 O   0  0  0  0  0  0  0  0  0  0  0  0
   22.4542   -6.4988  -16.0911 N   0  0  0  0  0  0  0  0  0  0  0  0
   22.5697   -5.3537  -15.2187 C   0  0  1  0  0  0  0  0  0  0  0  0
   23.8348   -4.5702  -15.5725 C   0  0  0  0  0  0  0  0  0  0  0  0
   23.7323   -4.0252  -17.2863 S   0  0  0  0  0  0  0  0  0  0  0  0
   21.3742   -4.4968  -15.2500 C   0  0  0  0  0  0  0  0  0  0  0  0
   21.2506   -3.4957  -14.2994 O   0  0  0  0  0  0  0  0  0  0  0  0
   20.4519   -4.6190  -16.0930 O   0  0  0  0  0  0  0  0  0  0  0  0
  2  1  1  0
  3  2  1  0
  3  4  1  0
  4  5  1  0
  5  7  1  0
  5  6  1  6
  7  8  2  0
  9  7  1  0
  9 10  1  0
 10 13  1  0
 10 11  1  1
 12 11  1  0
 13 14  2  0
 15 13  1  0
 15 16  1  0
 16 19  1  0
 16 17  1  6
 18 17  1  0
 19 21  2  0
 19 20  1  0
M  END
$$$$
