RFL.pdb
     RDKit          3D

 31 31  0  0  1  0  0  0  0  0999 V2000
   12.7912  -22.0467   19.0002 N   0  0  0  0  0  0  0  0  0  0  0  0
   11.9951  -21.6121   17.8863 C   0  0  0  0  0  0  0  0  0  0  0  0
   11.3044  -22.4598   17.1840 N   0  0  0  0  0  0  0  0  0  0  0  0
   11.9283  -20.2474   17.5038 N   0  0  0  0  0  0  0  0  0  0  0  0
   11.6952  -19.1611   18.4271 C   0  0  0  0  0  0  0  0  0  0  0  0
   10.2287  -19.0705   18.8421 C   0  0  0  0  0  0  0  0  0  0  0  0
    9.9897  -17.8251   19.6364 C   0  0  0  0  0  0  0  0  0  0  0  0
    9.8055  -18.0174   21.0972 C   0  0  2  0  0  0  0  0  0  0  0  0
    8.8150  -19.0058   21.4586 N   0  0  0  0  0  0  0  0  0  0  0  0
    9.6923  -16.7598   21.8795 C   0  0  0  0  0  0  0  0  0  0  0  0
   10.5388  -15.8679   21.6628 O   0  0  0  0  0  0  0  0  0  0  0  0
   10.7050  -22.1437   16.3974 N   0  0  0  0  0  0  0  0  0  0  0  0
    8.6739  -16.5393   22.8497 C   0  0  1  0  0  0  0  0  0  0  0  0
    8.5542  -15.3167   23.6164 C   0  0  0  0  0  0  0  0  0  0  0  0
    7.1601  -15.0881   24.1574 C   0  0  0  0  0  0  0  0  0  0  0  0
    6.9510  -13.7651   24.7421 C   0  0  0  0  0  0  0  0  0  0  0  0
    6.2086  -13.6325   25.8957 C   0  0  0  0  0  0  0  0  0  0  0  0
    5.9907  -12.3959   26.4783 C   0  0  0  0  0  0  0  0  0  0  0  0
    6.5127  -11.2350   25.9226 C   0  0  0  0  0  0  0  0  0  0  0  0
    7.2542  -11.3764   24.7688 C   0  0  0  0  0  0  0  0  0  0  0  0
    7.4775  -12.6047   24.1797 C   0  0  0  0  0  0  0  0  0  0  0  0
    9.4691  -15.3228   24.7924 O   0  0  0  0  0  0  0  0  0  0  0  0
   10.2789  -14.3763   24.9043 C   0  0  0  0  0  0  0  0  0  0  0  0
    8.8612  -14.0991   29.3020 C   0  0  1  0  0  0  0  0  0  0  0  0
    9.5115  -14.5399   27.9963 C   0  0  0  0  0  0  0  0  0  0  0  0
   10.7639  -13.6627   27.8473 C   0  0  0  0  0  0  0  0  0  0  0  0
    9.9514  -15.9674   28.1139 C   0  0  2  0  0  0  0  0  0  0  0  0
   10.4649  -16.4830   26.8163 N   0  0  0  0  0  0  0  0  0  0  0  0
    9.4411  -16.3494   25.7581 C   0  0  0  0  0  0  0  0  0  0  0  0
   10.9190  -17.8870   26.8888 O   0  0  0  0  0  0  0  0  0  0  0  0
   10.4155  -18.9283   26.1415 O   0  0  0  0  0  0  0  0  0  0  0  0
  2  1  1  0
  2  3  2  0
  4  5  1  0
  4  2  1  0
  6  5  1  0
  7  6  1  0
  8  9  1  6
  8  7  1  0
 10  8  1  0
 10 11  2  0
 12 10  1  0
 13 12  1  0
 13 21  1  0
 13 14  1  1
 15 14  1  0
 16 15  2  0
 17 16  1  0
 18 17  2  0
 18 19  1  0
 19 20  2  0
 20 15  1  0
 21 28  1  0
 22 21  2  0
 24 23  1  6
 24 25  1  0
 24 26  1  0
 27 26  1  6
 27 29  1  0
 28 27  1  0
 29 31  2  0
 29 30  1  0
M  END
$$$$
