RFL.pdb
     RDKit          3D

 31 31  0  0  1  0  0  0  0  0999 V2000
    9.1007  -17.7651   19.0665 N   0  0  0  0  0  0  0  0  0  0  0  0
    8.4815  -17.6701   17.7737 C   0  0  0  0  0  0  0  0  0  0  0  0
    9.1836  -17.4127   16.7108 N   0  0  0  0  0  0  0  0  0  0  0  0
    7.0849  -17.8502   17.5998 N   0  0  0  0  0  0  0  0  0  0  0  0
    6.1406  -17.9362   18.6896 C   0  0  0  0  0  0  0  0  0  0  0  0
    6.0929  -19.3377   19.2934 C   0  0  0  0  0  0  0  0  0  0  0  0
    5.0820  -19.3945   20.3952 C   0  0  0  0  0  0  0  0  0  0  0  0
    5.6299  -19.3676   21.7750 C   0  0  2  0  0  0  0  0  0  0  0  0
    4.9969  -20.2832   22.6968 N   0  0  0  0  0  0  0  0  0  0  0  0
    5.8241  -18.0074   22.3394 C   0  0  0  0  0  0  0  0  0  0  0  0
    5.6424  -17.0355   21.5768 O   0  0  0  0  0  0  0  0  0  0  0  0
    8.7337  -17.3150   15.7802 N   0  0  0  0  0  0  0  0  0  0  0  0
    6.2039  -17.7761   23.6919 C   0  0  1  0  0  0  0  0  0  0  0  0
    6.6137  -16.4816   24.1950 C   0  0  0  0  0  0  0  0  0  0  0  0
    6.6399  -16.4118   25.7059 C   0  0  0  0  0  0  0  0  0  0  0  0
    6.9203  -15.0814   26.2420 C   0  0  0  0  0  0  0  0  0  0  0  0
    8.2003  -14.7538   26.6342 C   0  0  0  0  0  0  0  0  0  0  0  0
    8.5032  -13.5035   27.1453 C   0  0  0  0  0  0  0  0  0  0  0  0
    7.5268  -12.5255   27.2842 C   0  0  0  0  0  0  0  0  0  0  0  0
    6.2492  -12.8614   26.8894 C   0  0  0  0  0  0  0  0  0  0  0  0
    5.9365  -14.1050   26.3785 C   0  0  0  0  0  0  0  0  0  0  0  0
    7.9851  -16.1293   23.7309 O   0  0  0  0  0  0  0  0  0  0  0  0
    8.8444  -17.0380   23.7132 C   0  0  0  0  0  0  0  0  0  0  0  0
    8.1008  -11.2572   21.1813 C   0  0  2  0  0  0  0  0  0  0  0  0
    8.1345  -12.7481   21.4944 C   0  0  0  0  0  0  0  0  0  0  0  0
    7.9348  -13.4537   20.1444 C   0  0  0  0  0  0  0  0  0  0  0  0
    9.4881  -13.1181   22.0199 C   0  0  2  0  0  0  0  0  0  0  0  0
    9.5158  -14.5271   22.4966 N   0  0  0  0  0  0  0  0  0  0  0  0
    8.3253  -14.8240   23.3214 C   0  0  0  0  0  0  0  0  0  0  0  0
   10.7381  -14.8582   23.2576 O   0  0  0  0  0  0  0  0  0  0  0  0
   10.7765  -15.2356   24.5813 O   0  0  0  0  0  0  0  0  0  0  0  0
  2  1  1  0
  2  3  2  0
  4  5  1  0
  4  2  1  0
  6  5  1  0
  7  6  1  0
  8  9  1  1
  8  7  1  0
 10  8  1  0
 10 11  2  0
 12 10  1  0
 13 12  1  0
 13 21  1  0
 13 14  1  1
 15 14  1  0
 16 15  2  0
 17 16  1  0
 18 17  2  0
 18 19  1  0
 19 20  2  0
 20 15  1  0
 21 28  1  0
 22 21  2  0
 24 23  1  1
 24 25  1  0
 24 26  1  0
 27 26  1  6
 27 29  1  0
 28 27  1  0
 29 31  2  0
 29 30  1  0
M  END
$$$$
