RFL.pdb
     RDKit          3D

 31 31  0  0  1  0  0  0  0  0999 V2000
    9.8729  -18.1472   15.6113 N   0  0  0  0  0  0  0  0  0  0  0  0
    8.5861  -18.7684   15.4632 C   0  0  0  0  0  0  0  0  0  0  0  0
    8.2654  -19.3947   14.3706 N   0  0  0  0  0  0  0  0  0  0  0  0
    7.6132  -18.7255   16.4950 N   0  0  0  0  0  0  0  0  0  0  0  0
    7.7992  -18.0370   17.7513 C   0  0  0  0  0  0  0  0  0  0  0  0
    8.4903  -18.9194   18.7879 C   0  0  0  0  0  0  0  0  0  0  0  0
    9.6317  -18.1845   19.4175 C   0  0  0  0  0  0  0  0  0  0  0  0
    9.7184  -18.2736   20.8971 C   0  0  2  0  0  0  0  0  0  0  0  0
    8.5762  -18.8871   21.5356 N   0  0  0  0  0  0  0  0  0  0  0  0
   10.1668  -17.0270   21.5690 C   0  0  0  0  0  0  0  0  0  0  0  0
   11.1862  -16.4640   21.1185 O   0  0  0  0  0  0  0  0  0  0  0  0
    7.3179  -19.7992   14.2414 N   0  0  0  0  0  0  0  0  0  0  0  0
    9.4902  -16.4624   22.6871 C   0  0  1  0  0  0  0  0  0  0  0  0
    9.8967  -15.2275   23.3249 C   0  0  0  0  0  0  0  0  0  0  0  0
    8.7675  -14.2306   23.4646 C   0  0  0  0  0  0  0  0  0  0  0  0
    8.1290  -13.8639   22.2022 C   0  0  0  0  0  0  0  0  0  0  0  0
    8.6124  -12.8008   21.4704 C   0  0  0  0  0  0  0  0  0  0  0  0
    8.0338  -12.4255   20.2700 C   0  0  0  0  0  0  0  0  0  0  0  0
    6.9396  -13.1068   19.7529 C   0  0  0  0  0  0  0  0  0  0  0  0
    6.4623  -14.1689   20.4912 C   0  0  0  0  0  0  0  0  0  0  0  0
    7.0317  -14.5515   21.6890 C   0  0  0  0  0  0  0  0  0  0  0  0
   10.4169  -15.4733   24.6994 O   0  0  0  0  0  0  0  0  0  0  0  0
   11.3733  -14.7703   25.0936 C   0  0  0  0  0  0  0  0  0  0  0  0
    8.3794  -13.7680   28.4975 C   0  0  1  0  0  0  0  0  0  0  0  0
    9.5040  -14.4485   27.7268 C   0  0  0  0  0  0  0  0  0  0  0  0
   10.8017  -13.9977   28.4144 C   0  0  0  0  0  0  0  0  0  0  0  0
    9.3860  -15.9346   27.8785 C   0  0  2  0  0  0  0  0  0  0  0  0
   10.2992  -16.6471   26.9449 N   0  0  0  0  0  0  0  0  0  0  0  0
    9.8663  -16.4587   25.5438 C   0  0  0  0  0  0  0  0  0  0  0  0
   10.4149  -18.0909   27.2354 O   0  0  0  0  0  0  0  0  0  0  0  0
   11.0180  -18.6356   28.3471 O   0  0  0  0  0  0  0  0  0  0  0  0
  2  1  1  0
  2  3  2  0
  4  5  1  0
  4  2  1  0
  6  5  1  0
  7  6  1  0
  8  9  1  1
  8  7  1  0
 10  8  1  0
 10 11  2  0
 12 10  1  0
 13 12  1  0
 13 21  1  0
 13 14  1  6
 15 14  1  0
 16 15  2  0
 17 16  1  0
 18 17  2  0
 18 19  1  0
 19 20  2  0
 20 15  1  0
 21 28  1  0
 22 21  2  0
 24 23  1  6
 24 25  1  0
 24 26  1  0
 27 26  1  6
 27 29  1  0
 28 27  1  0
 29 31  2  0
 29 30  1  0
M  END
$$$$
