RFL.pdb
     RDKit          3D

 31 31  0  0  1  0  0  0  0  0999 V2000
    8.6057  -15.3454   15.4874 N   0  0  0  0  0  0  0  0  0  0  0  0
    8.0555  -14.0195   15.5416 C   0  0  0  0  0  0  0  0  0  0  0  0
    7.9658  -13.2861   14.4725 N   0  0  0  0  0  0  0  0  0  0  0  0
    7.5898  -13.4536   16.7565 N   0  0  0  0  0  0  0  0  0  0  0  0
    7.4437  -14.1946   17.9879 C   0  0  0  0  0  0  0  0  0  0  0  0
    8.7945  -14.5985   18.5738 C   0  0  0  0  0  0  0  0  0  0  0  0
    8.8134  -14.3566   20.0505 C   0  0  0  0  0  0  0  0  0  0  0  0
    8.9074  -15.5697   20.9014 C   0  0  2  0  0  0  0  0  0  0  0  0
    7.8166  -16.5051   20.7466 N   0  0  0  0  0  0  0  0  0  0  0  0
    9.2580  -15.3069   22.3207 C   0  0  0  0  0  0  0  0  0  0  0  0
   10.2235  -14.5475   22.5449 O   0  0  0  0  0  0  0  0  0  0  0  0
    7.5760  -12.3245   14.5115 N   0  0  0  0  0  0  0  0  0  0  0  0
    8.5476  -15.8795   23.4137 C   0  0  1  0  0  0  0  0  0  0  0  0
    8.7500  -15.4831   24.7916 C   0  0  0  0  0  0  0  0  0  0  0  0
    7.4588  -15.3541   25.5692 C   0  0  0  0  0  0  0  0  0  0  0  0
    6.9719  -13.9827   25.7039 C   0  0  0  0  0  0  0  0  0  0  0  0
    7.8687  -12.9389   25.7793 C   0  0  0  0  0  0  0  0  0  0  0  0
    7.4442  -11.6274   25.9062 C   0  0  0  0  0  0  0  0  0  0  0  0
    6.0935  -11.3091   25.9629 C   0  0  0  0  0  0  0  0  0  0  0  0
    5.2031  -12.3591   25.8867 C   0  0  0  0  0  0  0  0  0  0  0  0
    5.6158  -13.6702   25.7601 C   0  0  0  0  0  0  0  0  0  0  0  0
    9.5876  -16.4747   25.5233 O   0  0  0  0  0  0  0  0  0  0  0  0
    9.8857  -17.5346   24.9298 C   0  0  0  0  0  0  0  0  0  0  0  0
   10.6513  -15.0351   30.6522 C   0  0  2  0  0  0  0  0  0  0  0  0
   10.6103  -15.3419   29.1602 C   0  0  0  0  0  0  0  0  0  0  0  0
   11.4489  -14.2407   28.4935 C   0  0  0  0  0  0  0  0  0  0  0  0
   11.2771  -16.6587   28.9021 C   0  0  2  0  0  0  0  0  0  0  0  0
   10.9747  -17.1583   27.5338 N   0  0  0  0  0  0  0  0  0  0  0  0
   10.0396  -16.2480   26.8391 C   0  0  0  0  0  0  0  0  0  0  0  0
   10.4256  -18.5298   27.5252 O   0  0  0  0  0  0  0  0  0  0  0  0
   11.1358  -19.6757   27.8062 O   0  0  0  0  0  0  0  0  0  0  0  0
  2  1  1  0
  2  3  2  0
  4  5  1  0
  4  2  1  0
  6  5  1  0
  7  6  1  0
  8  9  1  1
  8  7  1  0
 10  8  1  0
 10 11  2  0
 12 10  1  0
 13 12  1  0
 13 21  1  0
 13 14  1  1
 15 14  1  0
 16 15  2  0
 17 16  1  0
 18 17  2  0
 18 19  1  0
 19 20  2  0
 20 15  1  0
 21 28  1  0
 22 21  2  0
 24 23  1  6
 24 25  1  0
 24 26  1  0
 27 26  1  6
 27 29  1  0
 28 27  1  0
 29 31  2  0
 29 30  1  0
M  END
$$$$
