RFL.pdb
     RDKit          3D

 31 31  0  0  1  0  0  0  0  0999 V2000
    8.7840  -21.4237   16.6343 N   0  0  0  0  0  0  0  0  0  0  0  0
    9.2017  -20.5939   15.5387 C   0  0  0  0  0  0  0  0  0  0  0  0
    9.8689  -21.0882   14.5390 N   0  0  0  0  0  0  0  0  0  0  0  0
    8.9083  -19.2062   15.4991 N   0  0  0  0  0  0  0  0  0  0  0  0
    8.1702  -18.5079   16.5259 C   0  0  0  0  0  0  0  0  0  0  0  0
    8.9881  -18.3450   17.8049 C   0  0  0  0  0  0  0  0  0  0  0  0
    8.1933  -17.6126   18.8398 C   0  0  0  0  0  0  0  0  0  0  0  0
    8.5626  -17.8889   20.2512 C   0  0  2  0  0  0  0  0  0  0  0  0
    7.5122  -18.4808   21.0481 N   0  0  0  0  0  0  0  0  0  0  0  0
    9.2639  -16.7746   20.9390 C   0  0  0  0  0  0  0  0  0  0  0  0
   10.4311  -16.5178   20.5776 O   0  0  0  0  0  0  0  0  0  0  0  0
   10.2168  -20.4807   13.7722 N   0  0  0  0  0  0  0  0  0  0  0  0
    8.6654  -16.0046   21.9762 C   0  0  1  0  0  0  0  0  0  0  0  0
    9.2737  -14.8180   22.5409 C   0  0  0  0  0  0  0  0  0  0  0  0
    8.4353  -13.5729   22.3528 C   0  0  0  0  0  0  0  0  0  0  0  0
    8.0166  -13.3321   20.9736 C   0  0  0  0  0  0  0  0  0  0  0  0
    8.8002  -12.5620   20.1415 C   0  0  0  0  0  0  0  0  0  0  0  0
    8.4360  -12.3136   18.8292 C   0  0  0  0  0  0  0  0  0  0  0  0
    7.2628  -12.8316   18.2962 C   0  0  0  0  0  0  0  0  0  0  0  0
    6.4848  -13.6009   19.1352 C   0  0  0  0  0  0  0  0  0  0  0  0
    6.8387  -13.8548   20.4450 C   0  0  0  0  0  0  0  0  0  0  0  0
    9.4895  -14.9656   24.0078 O   0  0  0  0  0  0  0  0  0  0  0  0
   10.4600  -14.3624   24.5164 C   0  0  0  0  0  0  0  0  0  0  0  0
    6.5318  -12.8304   26.9482 C   0  0  1  0  0  0  0  0  0  0  0  0
    7.7649  -13.5752   26.4517 C   0  0  0  0  0  0  0  0  0  0  0  0
    8.9606  -12.8706   27.1106 C   0  0  0  0  0  0  0  0  0  0  0  0
    7.7264  -14.9900   26.9439 C   0  0  2  0  0  0  0  0  0  0  0  0
    8.7712  -15.8196   26.2856 N   0  0  0  0  0  0  0  0  0  0  0  0
    8.6426  -15.7526   24.8143 C   0  0  0  0  0  0  0  0  0  0  0  0
    8.7490  -17.2318   26.7188 O   0  0  0  0  0  0  0  0  0  0  0  0
    8.6655  -18.3222   25.8820 O   0  0  0  0  0  0  0  0  0  0  0  0
  2  1  1  0
  2  3  2  0
  4  5  1  0
  4  2  1  0
  6  5  1  0
  7  6  1  0
  8  9  1  1
  8  7  1  0
 10  8  1  0
 10 11  2  0
 12 10  1  0
 13 12  1  0
 13 21  1  0
 13 14  1  6
 15 14  1  0
 16 15  2  0
 17 16  1  0
 18 17  2  0
 18 19  1  0
 19 20  2  0
 20 15  1  0
 21 28  1  0
 22 21  2  0
 24 23  1  6
 24 25  1  0
 24 26  1  0
 27 26  1  6
 27 29  1  0
 28 27  1  0
 29 31  2  0
 29 30  1  0
M  END
$$$$
