RFL.pdb
     RDKit          3D

 31 31  0  0  1  0  0  0  0  0999 V2000
    8.5404  -21.9199   15.9929 N   0  0  0  0  0  0  0  0  0  0  0  0
    8.4259  -20.6241   15.3838 C   0  0  0  0  0  0  0  0  0  0  0  0
    7.8704  -20.4775   14.2180 N   0  0  0  0  0  0  0  0  0  0  0  0
    8.9120  -19.4537   16.0217 N   0  0  0  0  0  0  0  0  0  0  0  0
    9.6276  -19.4567   17.2766 C   0  0  0  0  0  0  0  0  0  0  0  0
    8.6837  -19.3443   18.4714 C   0  0  0  0  0  0  0  0  0  0  0  0
    8.8919  -18.0412   19.1769 C   0  0  0  0  0  0  0  0  0  0  0  0
    9.0375  -18.1228   20.6523 C   0  0  2  0  0  0  0  0  0  0  0  0
    7.8858  -18.6515   21.3470 N   0  0  0  0  0  0  0  0  0  0  0  0
    9.5983  -16.9036   21.2892 C   0  0  0  0  0  0  0  0  0  0  0  0
   10.6994  -16.4893   20.8709 O   0  0  0  0  0  0  0  0  0  0  0  0
    7.7871  -19.5416   13.7763 N   0  0  0  0  0  0  0  0  0  0  0  0
    8.9392  -16.2047   22.3399 C   0  0  1  0  0  0  0  0  0  0  0  0
    9.4487  -14.9832   22.9275 C   0  0  0  0  0  0  0  0  0  0  0  0
    8.4705  -13.8321   22.8485 C   0  0  0  0  0  0  0  0  0  0  0  0
    8.0759  -13.4700   21.4887 C   0  0  0  0  0  0  0  0  0  0  0  0
    6.9247  -13.9963   20.9436 C   0  0  0  0  0  0  0  0  0  0  0  0
    6.5192  -13.6751   19.6595 C   0  0  0  0  0  0  0  0  0  0  0  0
    7.2581  -12.8072   18.8660 C   0  0  0  0  0  0  0  0  0  0  0  0
    8.4082  -12.2851   19.4189 C   0  0  0  0  0  0  0  0  0  0  0  0
    8.8214  -12.5987   20.6982 C   0  0  0  0  0  0  0  0  0  0  0  0
    9.7686  -15.1688   24.3709 O   0  0  0  0  0  0  0  0  0  0  0  0
   10.7870  -14.5974   24.8191 C   0  0  0  0  0  0  0  0  0  0  0  0
    6.6073  -13.2330   27.4547 C   0  0  1  0  0  0  0  0  0  0  0  0
    7.9425  -13.8248   27.0201 C   0  0  0  0  0  0  0  0  0  0  0  0
    9.0014  -13.1201   27.8816 C   0  0  0  0  0  0  0  0  0  0  0  0
    7.9712  -15.2870   27.3465 C   0  0  2  0  0  0  0  0  0  0  0  0
    9.1223  -15.9642   26.6911 N   0  0  0  0  0  0  0  0  0  0  0  0
    8.9661  -15.9566   25.2210 C   0  0  0  0  0  0  0  0  0  0  0  0
    9.3221  -17.3513   27.1586 O   0  0  0  0  0  0  0  0  0  0  0  0
    9.6844  -17.7189   28.4353 O   0  0  0  0  0  0  0  0  0  0  0  0
  2  1  1  0
  2  3  2  0
  4  5  1  0
  4  2  1  0
  6  5  1  0
  7  6  1  0
  8  9  1  1
  8  7  1  0
 10  8  1  0
 10 11  2  0
 12 10  1  0
 13 12  1  0
 13 21  1  0
 13 14  1  6
 15 14  1  0
 16 15  2  0
 17 16  1  0
 18 17  2  0
 18 19  1  0
 19 20  2  0
 20 15  1  0
 21 28  1  0
 22 21  2  0
 24 23  1  6
 24 25  1  0
 24 26  1  0
 27 26  1  6
 27 29  1  0
 28 27  1  0
 29 31  2  0
 29 30  1  0
M  END
$$$$
