RFL.pdb
     RDKit          3D

 31 31  0  0  1  0  0  0  0  0999 V2000
    8.2398  -15.6479   15.0833 N   0  0  0  0  0  0  0  0  0  0  0  0
    8.2521  -14.2119   15.0485 C   0  0  0  0  0  0  0  0  0  0  0  0
    8.2037  -13.5677   13.9209 N   0  0  0  0  0  0  0  0  0  0  0  0
    8.3189  -13.4369   16.2351 N   0  0  0  0  0  0  0  0  0  0  0  0
    8.0679  -13.9623   17.5572 C   0  0  0  0  0  0  0  0  0  0  0  0
    8.8940  -15.2151   17.8389 C   0  0  0  0  0  0  0  0  0  0  0  0
    9.9783  -14.9114   18.8245 C   0  0  0  0  0  0  0  0  0  0  0  0
   10.1913  -15.9305   19.8832 C   0  0  2  0  0  0  0  0  0  0  0  0
    9.4675  -17.1663   19.6897 N   0  0  0  0  0  0  0  0  0  0  0  0
   10.1041  -15.4106   21.2719 C   0  0  0  0  0  0  0  0  0  0  0  0
   10.8063  -14.4195   21.5615 O   0  0  0  0  0  0  0  0  0  0  0  0
    8.1945  -12.5298   13.8949 N   0  0  0  0  0  0  0  0  0  0  0  0
    9.2661  -15.9908   22.2658 C   0  0  1  0  0  0  0  0  0  0  0  0
    8.9640  -15.3489   23.5282 C   0  0  0  0  0  0  0  0  0  0  0  0
    7.5158  -14.9289   23.6503 C   0  0  0  0  0  0  0  0  0  0  0  0
    7.2350  -14.0619   24.7927 C   0  0  0  0  0  0  0  0  0  0  0  0
    6.6027  -14.5735   25.9053 C   0  0  0  0  0  0  0  0  0  0  0  0
    6.3216  -13.7826   27.0061 C   0  0  0  0  0  0  0  0  0  0  0  0
    6.6662  -12.4375   27.0343 C   0  0  0  0  0  0  0  0  0  0  0  0
    7.2985  -11.9337   25.9174 C   0  0  0  0  0  0  0  0  0  0  0  0
    7.5834  -12.7135   24.8147 C   0  0  0  0  0  0  0  0  0  0  0  0
    9.2400  -16.2564   24.6772 O   0  0  0  0  0  0  0  0  0  0  0  0
    9.0979  -17.4856   24.4947 C   0  0  0  0  0  0  0  0  0  0  0  0
    9.8899  -13.8066   29.5054 C   0  0  2  0  0  0  0  0  0  0  0  0
   10.0420  -14.4648   28.1396 C   0  0  0  0  0  0  0  0  0  0  0  0
   11.3633  -13.9252   27.5710 C   0  0  0  0  0  0  0  0  0  0  0  0
   10.1773  -15.9472   28.3113 C   0  0  2  0  0  0  0  0  0  0  0  0
   10.1893  -16.6444   26.9972 N   0  0  0  0  0  0  0  0  0  0  0  0
    9.6479  -15.7693   25.9356 C   0  0  0  0  0  0  0  0  0  0  0  0
    9.4458  -17.9209   27.0109 O   0  0  0  0  0  0  0  0  0  0  0  0
    8.2630  -18.1629   26.3485 O   0  0  0  0  0  0  0  0  0  0  0  0
  2  1  1  0
  2  3  2  0
  4  5  1  0
  4  2  1  0
  6  5  1  0
  7  6  1  0
  8  9  1  1
  8  7  1  0
 10  8  1  0
 10 11  2  0
 12 10  1  0
 13 12  1  0
 13 21  1  0
 13 14  1  1
 15 14  1  0
 16 15  2  0
 17 16  1  0
 18 17  2  0
 18 19  1  0
 19 20  2  0
 20 15  1  0
 21 28  1  0
 22 21  2  0
 24 23  1  6
 24 25  1  0
 24 26  1  0
 27 26  1  6
 27 29  1  0
 28 27  1  0
 29 31  2  0
 29 30  1  0
M  END
$$$$
