RFL.pdb
     RDKit          3D

 31 31  0  0  1  0  0  0  0  0999 V2000
    8.7184  -12.7027   14.6973 N   0  0  0  0  0  0  0  0  0  0  0  0
    8.7961  -14.0704   15.1296 C   0  0  0  0  0  0  0  0  0  0  0  0
    9.3562  -14.9780   14.3869 N   0  0  0  0  0  0  0  0  0  0  0  0
    8.2672  -14.4902   16.3774 N   0  0  0  0  0  0  0  0  0  0  0  0
    8.2636  -15.8613   16.8322 C   0  0  0  0  0  0  0  0  0  0  0  0
    7.6291  -16.0020   18.2138 C   0  0  0  0  0  0  0  0  0  0  0  0
    8.5086  -15.3837   19.2546 C   0  0  0  0  0  0  0  0  0  0  0  0
    8.9201  -16.2787   20.3656 C   0  0  2  0  0  0  0  0  0  0  0  0
    8.1276  -17.4795   20.5022 N   0  0  0  0  0  0  0  0  0  0  0  0
    9.1695  -15.5900   21.6579 C   0  0  0  0  0  0  0  0  0  0  0  0
    9.9952  -14.6534   21.6619 O   0  0  0  0  0  0  0  0  0  0  0  0
    9.3787  -15.9737   14.6803 N   0  0  0  0  0  0  0  0  0  0  0  0
    8.5147  -15.9529   22.8688 C   0  0  1  0  0  0  0  0  0  0  0  0
    8.7382  -15.2769   24.1298 C   0  0  0  0  0  0  0  0  0  0  0  0
    7.5074  -15.2346   25.0083 C   0  0  0  0  0  0  0  0  0  0  0  0
    7.0630  -13.8868   25.3570 C   0  0  0  0  0  0  0  0  0  0  0  0
    7.7733  -12.7922   24.9134 C   0  0  0  0  0  0  0  0  0  0  0  0
    7.3817  -11.5010   25.2230 C   0  0  0  0  0  0  0  0  0  0  0  0
    6.2540  -11.2553   25.9956 C   0  0  0  0  0  0  0  0  0  0  0  0
    5.5492  -12.3557   26.4352 C   0  0  0  0  0  0  0  0  0  0  0  0
    5.9309  -13.6472   26.1322 C   0  0  0  0  0  0  0  0  0  0  0  0
    9.8029  -15.9512   24.9248 O   0  0  0  0  0  0  0  0  0  0  0  0
   10.9516  -16.0027   24.4327 C   0  0  0  0  0  0  0  0  0  0  0  0
    9.9775  -14.1951   29.5995 C   0  0  1  0  0  0  0  0  0  0  0  0
   10.1220  -14.8505   28.2315 C   0  0  0  0  0  0  0  0  0  0  0  0
   11.2606  -14.0917   27.5331 C   0  0  0  0  0  0  0  0  0  0  0  0
   10.5468  -16.2772   28.4031 C   0  0  2  0  0  0  0  0  0  0  0  0
   10.6229  -16.9794   27.0937 N   0  0  0  0  0  0  0  0  0  0  0  0
    9.5476  -16.5188   26.1896 C   0  0  0  0  0  0  0  0  0  0  0  0
   10.5649  -18.4502   27.2198 O   0  0  0  0  0  0  0  0  0  0  0  0
   11.5570  -19.2456   27.7483 O   0  0  0  0  0  0  0  0  0  0  0  0
  2  1  1  0
  2  3  2  0
  4  5  1  0
  4  2  1  0
  6  5  1  0
  7  6  1  0
  8  9  1  1
  8  7  1  0
 10  8  1  0
 10 11  2  0
 12 10  1  0
 13 12  1  0
 13 21  1  0
 13 14  1  1
 15 14  1  0
 16 15  2  0
 17 16  1  0
 18 17  2  0
 18 19  1  0
 19 20  2  0
 20 15  1  0
 21 28  1  0
 22 21  2  0
 24 23  1  6
 24 25  1  0
 24 26  1  0
 27 26  1  6
 27 29  1  0
 28 27  1  0
 29 31  2  0
 29 30  1  0
M  END
$$$$
