RFL.pdb
     RDKit          3D

 31 31  0  0  1  0  0  0  0  0999 V2000
   11.7637  -16.5224   17.1464 N   0  0  0  0  0  0  0  0  0  0  0  0
   11.7689  -17.6295   16.2311 C   0  0  0  0  0  0  0  0  0  0  0  0
   11.5634  -17.4505   14.9604 N   0  0  0  0  0  0  0  0  0  0  0  0
   11.9955  -18.9597   16.6698 N   0  0  0  0  0  0  0  0  0  0  0  0
   12.0448  -19.3540   18.0587 C   0  0  0  0  0  0  0  0  0  0  0  0
   10.8686  -18.7912   18.8530 C   0  0  0  0  0  0  0  0  0  0  0  0
   11.3613  -18.0528   20.0577 C   0  0  0  0  0  0  0  0  0  0  0  0
   10.6350  -18.3264   21.3235 C   0  0  2  0  0  0  0  0  0  0  0  0
    9.4318  -19.1130   21.1743 N   0  0  0  0  0  0  0  0  0  0  0  0
   10.4579  -17.1446   22.2057 C   0  0  0  0  0  0  0  0  0  0  0  0
   11.4350  -16.3804   22.3487 O   0  0  0  0  0  0  0  0  0  0  0  0
   11.7546  -18.2053   14.2736 N   0  0  0  0  0  0  0  0  0  0  0  0
    9.2383  -16.8577   22.8820 C   0  0  1  0  0  0  0  0  0  0  0  0
    8.9952  -15.6232   23.5987 C   0  0  0  0  0  0  0  0  0  0  0  0
    7.5274  -15.3657   23.8589 C   0  0  0  0  0  0  0  0  0  0  0  0
    7.2470  -14.0881   24.5108 C   0  0  0  0  0  0  0  0  0  0  0  0
    7.7808  -12.9242   24.0011 C   0  0  0  0  0  0  0  0  0  0  0  0
    7.5359  -11.6962   24.5912 C   0  0  0  0  0  0  0  0  0  0  0  0
    6.7401  -11.5866   25.7242 C   0  0  0  0  0  0  0  0  0  0  0  0
    6.2100  -12.7556   26.2276 C   0  0  0  0  0  0  0  0  0  0  0  0
    6.4478  -13.9851   25.6469 C   0  0  0  0  0  0  0  0  0  0  0  0
    9.6666  -15.6278   24.9289 O   0  0  0  0  0  0  0  0  0  0  0  0
   10.2592  -14.5855   25.2849 C   0  0  0  0  0  0  0  0  0  0  0  0
    8.4429  -13.7634   28.7586 C   0  0  1  0  0  0  0  0  0  0  0  0
    9.4448  -14.4981   27.8764 C   0  0  0  0  0  0  0  0  0  0  0  0
   10.8289  -14.1011   28.4120 C   0  0  0  0  0  0  0  0  0  0  0  0
    9.2798  -15.9765   28.0568 C   0  0  2  0  0  0  0  0  0  0  0  0
   10.1840  -16.7354   27.1514 N   0  0  0  0  0  0  0  0  0  0  0  0
    9.6480  -16.7562   25.7737 C   0  0  0  0  0  0  0  0  0  0  0  0
   10.4315  -18.1193   27.6053 O   0  0  0  0  0  0  0  0  0  0  0  0
   11.1867  -18.4774   28.6997 O   0  0  0  0  0  0  0  0  0  0  0  0
  2  1  1  0
  2  3  2  0
  4  5  1  0
  4  2  1  0
  6  5  1  0
  7  6  1  0
  8  9  1  6
  8  7  1  0
 10  8  1  0
 10 11  2  0
 12 10  1  0
 13 12  1  0
 13 21  1  0
 13 14  1  1
 15 14  1  0
 16 15  2  0
 17 16  1  0
 18 17  2  0
 18 19  1  0
 19 20  2  0
 20 15  1  0
 21 28  1  0
 22 21  2  0
 24 23  1  6
 24 25  1  0
 24 26  1  0
 27 26  1  6
 27 29  1  0
 28 27  1  0
 29 31  2  0
 29 30  1  0
M  END
$$$$
