RFL.pdb
     RDKit          3D

 31 31  0  0  1  0  0  0  0  0999 V2000
    9.6928  -18.4676   15.6359 N   0  0  0  0  0  0  0  0  0  0  0  0
    8.6152  -19.4173   15.6532 C   0  0  0  0  0  0  0  0  0  0  0  0
    8.4212  -20.2302   14.6579 N   0  0  0  0  0  0  0  0  0  0  0  0
    7.7189  -19.5095   16.7492 N   0  0  0  0  0  0  0  0  0  0  0  0
    7.7214  -18.6007   17.8722 C   0  0  0  0  0  0  0  0  0  0  0  0
    9.1136  -18.0370   18.1462 C   0  0  0  0  0  0  0  0  0  0  0  0
    9.0483  -16.9860   19.2094 C   0  0  0  0  0  0  0  0  0  0  0  0
    9.0307  -17.4840   20.6081 C   0  0  2  0  0  0  0  0  0  0  0  0
    7.9894  -18.4437   20.8970 N   0  0  0  0  0  0  0  0  0  0  0  0
    9.1595  -16.4280   21.6448 C   0  0  0  0  0  0  0  0  0  0  0  0
   10.1030  -15.6184   21.5288 O   0  0  0  0  0  0  0  0  0  0  0  0
    7.6554  -20.9310   14.6779 N   0  0  0  0  0  0  0  0  0  0  0  0
    8.2642  -16.3085   22.7453 C   0  0  1  0  0  0  0  0  0  0  0  0
    8.3555  -15.2574   23.7371 C   0  0  0  0  0  0  0  0  0  0  0  0
    7.1058  -15.1241   24.5792 C   0  0  0  0  0  0  0  0  0  0  0  0
    6.9858  -13.8473   25.2799 C   0  0  0  0  0  0  0  0  0  0  0  0
    7.8294  -12.8054   24.9603 C   0  0  0  0  0  0  0  0  0  0  0  0
    7.7442  -11.5818   25.6020 C   0  0  0  0  0  0  0  0  0  0  0  0
    6.8024  -11.3535   26.5969 C   0  0  0  0  0  0  0  0  0  0  0  0
    5.9623  -12.4009   26.9105 C   0  0  0  0  0  0  0  0  0  0  0  0
    6.0389  -13.6248   26.2768 C   0  0  0  0  0  0  0  0  0  0  0  0
    9.4799  -15.5019   24.6838 O   0  0  0  0  0  0  0  0  0  0  0  0
   10.4969  -14.7817   24.5773 C   0  0  0  0  0  0  0  0  0  0  0  0
   10.1383  -13.4602   27.1910 C   0  0  2  0  0  0  0  0  0  0  0  0
   10.6276  -14.5229   28.1672 C   0  0  0  0  0  0  0  0  0  0  0  0
   10.3026  -13.9744   29.5649 C   0  0  0  0  0  0  0  0  0  0  0  0
    9.8450  -15.7848   27.9662 C   0  0  2  0  0  0  0  0  0  0  0  0
   10.3644  -16.5643   26.8104 N   0  0  0  0  0  0  0  0  0  0  0  0
    9.4219  -16.5047   25.6730 C   0  0  0  0  0  0  0  0  0  0  0  0
   10.6476  -17.9757   27.1429 O   0  0  0  0  0  0  0  0  0  0  0  0
   11.8158  -18.4455   27.7002 O   0  0  0  0  0  0  0  0  0  0  0  0
  2  1  1  0
  2  3  2  0
  4  5  1  0
  4  2  1  0
  6  5  1  0
  7  6  1  0
  8  9  1  1
  8  7  1  0
 10  8  1  0
 10 11  2  0
 12 10  1  0
 13 12  1  0
 13 21  1  0
 13 14  1  6
 15 14  1  0
 16 15  2  0
 17 16  1  0
 18 17  2  0
 18 19  1  0
 19 20  2  0
 20 15  1  0
 21 28  1  0
 22 21  2  0
 24 23  1  1
 24 25  1  0
 24 26  1  0
 27 26  1  6
 27 29  1  0
 28 27  1  0
 29 31  2  0
 29 30  1  0
M  END
$$$$
