RFL.pdb
     RDKit          3D

 31 31  0  0  1  0  0  0  0  0999 V2000
   10.2850  -13.7863   16.2550 N   0  0  0  0  0  0  0  0  0  0  0  0
    8.9471  -13.6244   15.7575 C   0  0  0  0  0  0  0  0  0  0  0  0
    8.7169  -13.4787   14.4868 N   0  0  0  0  0  0  0  0  0  0  0  0
    7.8242  -13.6147   16.6248 N   0  0  0  0  0  0  0  0  0  0  0  0
    7.8928  -13.9109   18.0370 C   0  0  0  0  0  0  0  0  0  0  0  0
    8.0863  -15.4027   18.2978 C   0  0  0  0  0  0  0  0  0  0  0  0
    9.1699  -15.6173   19.3073 C   0  0  0  0  0  0  0  0  0  0  0  0
    8.8298  -16.5195   20.4364 C   0  0  2  0  0  0  0  0  0  0  0  0
    7.6122  -17.2780   20.2611 N   0  0  0  0  0  0  0  0  0  0  0  0
    8.9476  -15.9016   21.7821 C   0  0  0  0  0  0  0  0  0  0  0  0
    9.9322  -15.1631   21.9931 O   0  0  0  0  0  0  0  0  0  0  0  0
    7.7489  -13.3838   14.1235 N   0  0  0  0  0  0  0  0  0  0  0  0
    7.9978  -16.1177   22.8203 C   0  0  1  0  0  0  0  0  0  0  0  0
    8.0756  -15.4795   24.1179 C   0  0  0  0  0  0  0  0  0  0  0  0
    6.7245  -15.2994   24.7740 C   0  0  0  0  0  0  0  0  0  0  0  0
    6.5429  -14.0074   25.4325 C   0  0  0  0  0  0  0  0  0  0  0  0
    5.2744  -13.4996   25.6125 C   0  0  0  0  0  0  0  0  0  0  0  0
    5.0640  -12.2800   26.2328 C   0  0  0  0  0  0  0  0  0  0  0  0
    6.1257  -11.5164   26.7004 C   0  0  0  0  0  0  0  0  0  0  0  0
    7.3913  -12.0316   26.5165 C   0  0  0  0  0  0  0  0  0  0  0  0
    7.6120  -13.2465   25.8993 C   0  0  0  0  0  0  0  0  0  0  0  0
    8.9034  -16.2776   25.0654 O   0  0  0  0  0  0  0  0  0  0  0  0
    9.0828  -17.4875   24.8042 C   0  0  0  0  0  0  0  0  0  0  0  0
   13.1588  -16.4124   28.5405 C   0  0  2  0  0  0  0  0  0  0  0  0
   11.7658  -16.3459   29.1544 C   0  0  0  0  0  0  0  0  0  0  0  0
   11.9265  -15.5270   30.4443 C   0  0  0  0  0  0  0  0  0  0  0  0
   10.8498  -15.5963   28.2355 C   0  0  1  0  0  0  0  0  0  0  0  0
   10.3505  -16.4699   27.1398 N   0  0  0  0  0  0  0  0  0  0  0  0
    9.4746  -15.7101   26.2226 C   0  0  0  0  0  0  0  0  0  0  0  0
    9.6327  -17.6640   27.6311 O   0  0  0  0  0  0  0  0  0  0  0  0
   10.2038  -18.8919   27.8812 O   0  0  0  0  0  0  0  0  0  0  0  0
  2  1  1  0
  2  3  2  0
  4  5  1  0
  4  2  1  0
  6  5  1  0
  7  6  1  0
  8  9  1  6
  8  7  1  0
 10  8  1  0
 10 11  2  0
 12 10  1  0
 13 12  1  0
 13 21  1  0
 13 14  1  1
 15 14  1  0
 16 15  2  0
 17 16  1  0
 18 17  2  0
 18 19  1  0
 19 20  2  0
 20 15  1  0
 21 28  1  0
 22 21  2  0
 24 23  1  1
 24 25  1  0
 24 26  1  0
 27 26  1  6
 27 29  1  0
 28 27  1  0
 29 31  2  0
 29 30  1  0
M  END
$$$$
