SLC.pdb
     RDKit          3D

 21 20  0  0  1  0  0  0  0  0999 V2000
    8.4883  -20.7376   18.8835 O   0  0  0  0  0  0  0  0  0  0  0  0
    7.3560  -20.0592   18.5180 C   0  0  0  0  0  0  0  0  0  0  0  0
    7.7289  -18.9315   17.5746 C   0  0  2  0  0  0  0  0  0  0  0  0
    8.5732  -19.4613   16.4863 N   0  0  0  0  0  0  0  0  0  0  0  0
    8.5410  -17.8790   18.2292 C   0  0  0  0  0  0  0  0  0  0  0  0
    9.8033  -17.8722   18.2288 O   0  0  0  0  0  0  0  0  0  0  0  0
    9.0230  -12.6442   19.3718 C   0  0  0  0  0  0  0  0  0  0  0  0
    8.1237  -13.3795   20.3416 C   0  0  1  0  0  0  0  0  0  0  0  0
    6.9136  -12.4517   20.5521 C   0  0  0  0  0  0  0  0  0  0  0  0
    7.6421  -14.6589   19.7647 C   0  0  0  0  0  0  0  0  0  0  0  0
    8.6265  -15.7599   19.5949 C   0  0  2  0  0  0  0  0  0  0  0  0
    7.8979  -16.8275   18.8879 N   0  0  0  0  0  0  0  0  0  0  0  0
    9.1631  -16.3629   20.8122 C   0  0  0  0  0  0  0  0  0  0  0  0
    8.4078  -16.9358   21.6381 O   0  0  0  0  0  0  0  0  0  0  0  0
   10.5387  -16.3458   21.1362 N   0  0  0  0  0  0  0  0  0  0  0  0
   11.0577  -16.9932   22.3377 C   0  0  1  0  0  0  0  0  0  0  0  0
   12.0318  -18.1071   21.9550 C   0  0  0  0  0  0  0  0  0  0  0  0
   11.2554  -19.7086   22.2731 S   0  0  0  0  0  0  0  0  0  0  0  0
   11.7444  -16.0001   23.2017 C   0  0  0  0  0  0  0  0  0  0  0  0
   12.0806  -14.9064   22.7006 O   0  0  0  0  0  0  0  0  0  0  0  0
   12.0151  -16.2622   24.5364 O   0  0  0  0  0  0  0  0  0  0  0  0
  2  1  1  0
  3  2  1  0
  3  4  1  6
  5  3  1  0
  6  5  2  0
  8  9  1  6
  8  7  1  0
 10  8  1  0
 11 10  1  1
 11 13  1  0
 11 12  1  0
 12  5  1  0
 13 15  1  0
 14 13  2  0
 15 16  1  0
 16 19  1  0
 16 17  1  6
 18 17  1  0
 19 21  1  0
 20 19  2  0
M  END
$$$$
