SLC.pdb
     RDKit          3D

 21 20  0  0  1  0  0  0  0  0999 V2000
    7.5903  -19.5155   20.7071 O   0  0  0  0  0  0  0  0  0  0  0  0
    8.1681  -19.7068   19.4801 C   0  0  0  0  0  0  0  0  0  0  0  0
    8.2025  -18.3886   18.7304 C   0  0  2  0  0  0  0  0  0  0  0  0
    8.9292  -18.5666   17.4584 N   0  0  0  0  0  0  0  0  0  0  0  0
    8.9375  -17.3302   19.4617 C   0  0  0  0  0  0  0  0  0  0  0  0
   10.1971  -17.2561   19.4996 O   0  0  0  0  0  0  0  0  0  0  0  0
    6.8565  -12.3241   19.6083 C   0  0  0  0  0  0  0  0  0  0  0  0
    7.9015  -13.4180   19.5775 C   0  0  1  0  0  0  0  0  0  0  0  0
    9.2374  -12.6929   19.3345 C   0  0  0  0  0  0  0  0  0  0  0  0
    7.9791  -14.1252   20.8797 C   0  0  0  0  0  0  0  0  0  0  0  0
    8.8681  -15.3130   20.9747 C   0  0  2  0  0  0  0  0  0  0  0  0
    8.2202  -16.3504   20.1534 N   0  0  0  0  0  0  0  0  0  0  0  0
    9.0572  -15.8950   22.3009 C   0  0  0  0  0  0  0  0  0  0  0  0
    8.1320  -16.5314   22.8665 O   0  0  0  0  0  0  0  0  0  0  0  0
   10.2680  -15.7866   23.0220 N   0  0  0  0  0  0  0  0  0  0  0  0
   10.6207  -16.7233   24.0851 C   0  0  1  0  0  0  0  0  0  0  0  0
   10.6889  -18.1459   23.5304 C   0  0  0  0  0  0  0  0  0  0  0  0
   11.1891  -19.2740   24.8518 S   0  0  0  0  0  0  0  0  0  0  0  0
   11.9283  -16.3541   24.6834 C   0  0  0  0  0  0  0  0  0  0  0  0
   12.7970  -15.8418   23.9464 O   0  0  0  0  0  0  0  0  0  0  0  0
   12.1979  -16.5652   26.0274 O   0  0  0  0  0  0  0  0  0  0  0  0
  2  1  1  0
  3  2  1  0
  3  4  1  6
  5  3  1  0
  6  5  2  0
  8  9  1  1
  8  7  1  0
 10  8  1  0
 11 10  1  1
 11 13  1  0
 11 12  1  0
 12  5  1  0
 13 15  1  0
 14 13  2  0
 15 16  1  0
 16 19  1  0
 16 17  1  6
 18 17  1  0
 19 21  1  0
 20 19  2  0
M  END
$$$$
