SLC.pdb
     RDKit          3D

 21 20  0  0  1  0  0  0  0  0999 V2000
    6.7342  -17.6157   21.9121 O   0  0  0  0  0  0  0  0  0  0  0  0
    7.3899  -17.0004   20.8789 C   0  0  0  0  0  0  0  0  0  0  0  0
    7.4279  -15.5047   21.1283 C   0  0  2  0  0  0  0  0  0  0  0  0
    8.2497  -14.8549   20.0890 N   0  0  0  0  0  0  0  0  0  0  0  0
    8.0684  -15.1527   22.4172 C   0  0  0  0  0  0  0  0  0  0  0  0
    9.3187  -15.0912   22.5797 O   0  0  0  0  0  0  0  0  0  0  0  0
    5.7741  -11.7396   26.3505 C   0  0  0  0  0  0  0  0  0  0  0  0
    6.8759  -12.3907   25.5432 C   0  0  1  0  0  0  0  0  0  0  0  0
    8.1859  -11.9558   26.2244 C   0  0  0  0  0  0  0  0  0  0  0  0
    6.7831  -13.8705   25.6013 C   0  0  0  0  0  0  0  0  0  0  0  0
    7.8137  -14.6613   24.8782 C   0  0  2  0  0  0  0  0  0  0  0  0
    7.2667  -14.8692   23.5262 N   0  0  0  0  0  0  0  0  0  0  0  0
    8.1230  -15.9874   25.4065 C   0  0  0  0  0  0  0  0  0  0  0  0
    7.2857  -16.9229   25.3382 O   0  0  0  0  0  0  0  0  0  0  0  0
    9.3589  -16.3028   26.0153 N   0  0  0  0  0  0  0  0  0  0  0  0
    9.7451  -17.6794   26.3120 C   0  0  1  0  0  0  0  0  0  0  0  0
   10.6355  -18.2271   25.1969 C   0  0  0  0  0  0  0  0  0  0  0  0
   11.2537  -19.8564   25.6783 S   0  0  0  0  0  0  0  0  0  0  0  0
   10.4664  -17.7436   27.6081 C   0  0  0  0  0  0  0  0  0  0  0  0
   11.2353  -16.8063   27.9087 O   0  0  0  0  0  0  0  0  0  0  0  0
   10.3033  -18.8112   28.4782 O   0  0  0  0  0  0  0  0  0  0  0  0
  2  1  1  0
  3  2  1  0
  3  4  1  6
  5  3  1  0
  6  5  2  0
  8  9  1  1
  8  7  1  0
 10  8  1  0
 11 10  1  1
 11 13  1  0
 11 12  1  0
 12  5  1  0
 13 15  1  0
 14 13  2  0
 15 16  1  0
 16 19  1  0
 16 17  1  6
 18 17  1  0
 19 21  1  0
 20 19  2  0
M  END
$$$$
