SLC.pdb
     RDKit          3D

 21 20  0  0  1  0  0  0  0  0999 V2000
    9.5766  -19.8270   20.8851 O   0  0  0  0  0  0  0  0  0  0  0  0
    8.5935  -19.3743   20.0457 C   0  0  0  0  0  0  0  0  0  0  0  0
    9.1505  -18.2669   19.1715 C   0  0  2  0  0  0  0  0  0  0  0  0
   10.3448  -18.7590   18.4579 N   0  0  0  0  0  0  0  0  0  0  0  0
    9.6106  -17.0945   19.9521 C   0  0  0  0  0  0  0  0  0  0  0  0
   10.8272  -16.8329   20.1640 O   0  0  0  0  0  0  0  0  0  0  0  0
    6.4547  -12.7276   19.5548 C   0  0  0  0  0  0  0  0  0  0  0  0
    7.7020  -13.5796   19.6451 C   0  0  1  0  0  0  0  0  0  0  0  0
    8.8579  -12.6462   19.2427 C   0  0  0  0  0  0  0  0  0  0  0  0
    7.9352  -14.0471   21.0339 C   0  0  0  0  0  0  0  0  0  0  0  0
    9.0362  -15.0189   21.2653 C   0  0  2  0  0  0  0  0  0  0  0  0
    8.6664  -16.2171   20.4920 N   0  0  0  0  0  0  0  0  0  0  0  0
    9.2489  -15.4645   22.6399 C   0  0  0  0  0  0  0  0  0  0  0  0
    9.7165  -14.6845   23.5083 O   0  0  0  0  0  0  0  0  0  0  0  0
    8.9478  -16.7739   23.0785 N   0  0  0  0  0  0  0  0  0  0  0  0
    9.0668  -17.1660   24.4799 C   0  0  1  0  0  0  0  0  0  0  0  0
    7.9752  -18.1742   24.8378 C   0  0  0  0  0  0  0  0  0  0  0  0
    6.3563  -17.4186   24.5605 S   0  0  0  0  0  0  0  0  0  0  0  0
   10.4031  -17.7599   24.7365 C   0  0  0  0  0  0  0  0  0  0  0  0
   11.1923  -17.8874   23.7768 O   0  0  0  0  0  0  0  0  0  0  0  0
   10.7845  -18.1698   26.0054 O   0  0  0  0  0  0  0  0  0  0  0  0
  2  1  1  0
  3  2  1  0
  3  4  1  1
  5  3  1  0
  6  5  2  0
  8  9  1  1
  8  7  1  0
 10  8  1  0
 11 10  1  1
 11 13  1  0
 11 12  1  0
 12  5  1  0
 13 15  1  0
 14 13  2  0
 15 16  1  0
 16 19  1  0
 16 17  1  6
 18 17  1  0
 19 21  1  0
 20 19  2  0
M  END
$$$$
