SLC.pdb
     RDKit          3D

 21 20  0  0  1  0  0  0  0  0999 V2000
   10.0897  -18.7213   23.2483 O   0  0  0  0  0  0  0  0  0  0  0  0
    8.7464  -18.5413   23.0505 C   0  0  0  0  0  0  0  0  0  0  0  0
    8.5259  -17.3111   22.1910 C   0  0  2  0  0  0  0  0  0  0  0  0
    9.3771  -17.3940   20.9883 N   0  0  0  0  0  0  0  0  0  0  0  0
    8.9226  -16.0558   22.8711 C   0  0  0  0  0  0  0  0  0  0  0  0
   10.0145  -15.4609   22.6536 O   0  0  0  0  0  0  0  0  0  0  0  0
    7.4014  -11.4089   25.3248 C   0  0  0  0  0  0  0  0  0  0  0  0
    7.1866  -12.6700   26.1329 C   0  0  1  0  0  0  0  0  0  0  0  0
    5.8048  -12.4981   26.7889 C   0  0  0  0  0  0  0  0  0  0  0  0
    7.1480  -13.8689   25.2596 C   0  0  0  0  0  0  0  0  0  0  0  0
    8.4100  -14.2855   24.5933 C   0  0  2  0  0  0  0  0  0  0  0  0
    8.0585  -15.4805   23.8067 N   0  0  0  0  0  0  0  0  0  0  0  0
    9.5200  -14.6736   25.4596 C   0  0  0  0  0  0  0  0  0  0  0  0
   10.6582  -14.1567   25.3244 O   0  0  0  0  0  0  0  0  0  0  0  0
    9.3922  -15.6344   26.4883 N   0  0  0  0  0  0  0  0  0  0  0  0
   10.4893  -15.9380   27.4028 C   0  0  1  0  0  0  0  0  0  0  0  0
   10.2002  -15.3499   28.7837 C   0  0  0  0  0  0  0  0  0  0  0  0
   10.2505  -13.5455   28.6819 S   0  0  0  0  0  0  0  0  0  0  0  0
   10.6772  -17.4067   27.5115 C   0  0  0  0  0  0  0  0  0  0  0  0
    9.9118  -18.1543   26.8669 O   0  0  0  0  0  0  0  0  0  0  0  0
   11.6738  -17.9549   28.3050 O   0  0  0  0  0  0  0  0  0  0  0  0
  2  1  1  0
  3  2  1  0
  3  4  1  6
  5  3  1  0
  6  5  2  0
  8  9  1  6
  8  7  1  0
 10  8  1  0
 11 10  1  1
 11 13  1  0
 11 12  1  0
 12  5  1  0
 13 15  1  0
 14 13  2  0
 15 16  1  0
 16 19  1  0
 16 17  1  1
 18 17  1  0
 19 21  1  0
 20 19  2  0
M  END
$$$$
