SLC.pdb
     RDKit          3D

 21 20  0  0  1  0  0  0  0  0999 V2000
    8.5924  -19.3066   25.3616 O   0  0  0  0  0  0  0  0  0  0  0  0
    7.2238  -19.2999   25.4135 C   0  0  0  0  0  0  0  0  0  0  0  0
    6.6824  -18.4546   24.2762 C   0  0  2  0  0  0  0  0  0  0  0  0
    6.9829  -19.1126   22.9899 N   0  0  0  0  0  0  0  0  0  0  0  0
    7.3211  -17.1200   24.1971 C   0  0  0  0  0  0  0  0  0  0  0  0
    8.2619  -16.8441   23.4019 O   0  0  0  0  0  0  0  0  0  0  0  0
    6.9582  -11.6970   24.9691 C   0  0  0  0  0  0  0  0  0  0  0  0
    7.0068  -12.5413   26.2239 C   0  0  1  0  0  0  0  0  0  0  0  0
    5.9697  -11.9138   27.1726 C   0  0  0  0  0  0  0  0  0  0  0  0
    6.6046  -13.9423   25.9459 C   0  0  0  0  0  0  0  0  0  0  0  0
    7.4610  -14.7440   25.0326 C   0  0  2  0  0  0  0  0  0  0  0  0
    6.8753  -16.0958   25.0370 N   0  0  0  0  0  0  0  0  0  0  0  0
    8.8640  -14.9010   25.4071 C   0  0  0  0  0  0  0  0  0  0  0  0
    9.7823  -14.4282   24.6901 O   0  0  0  0  0  0  0  0  0  0  0  0
    9.2758  -15.5785   26.5772 N   0  0  0  0  0  0  0  0  0  0  0  0
   10.6852  -15.7274   26.9284 C   0  0  1  0  0  0  0  0  0  0  0  0
   11.1760  -14.4839   27.6694 C   0  0  0  0  0  0  0  0  0  0  0  0
    9.9784  -14.0464   28.9513 S   0  0  0  0  0  0  0  0  0  0  0  0
   10.8795  -16.9286   27.7791 C   0  0  0  0  0  0  0  0  0  0  0  0
   12.0322  -17.1938   28.1804 O   0  0  0  0  0  0  0  0  0  0  0  0
    9.8183  -17.7494   28.1307 O   0  0  0  0  0  0  0  0  0  0  0  0
  2  1  1  0
  3  2  1  0
  3  4  1  6
  5  3  1  0
  6  5  2  0
  8  9  1  1
  8  7  1  0
 10  8  1  0
 11 10  1  1
 11 13  1  0
 11 12  1  0
 12  5  1  0
 13 15  1  0
 14 13  2  0
 15 16  1  0
 16 19  1  0
 16 17  1  1
 18 17  1  0
 19 21  1  0
 20 19  2  0
M  END
$$$$
