SLC.pdb
     RDKit          3D

 21 20  0  0  1  0  0  0  0  0999 V2000
    7.7002  -17.2533   21.3519 O   0  0  0  0  0  0  0  0  0  0  0  0
    6.6361  -16.4150   21.1495 C   0  0  0  0  0  0  0  0  0  0  0  0
    7.0736  -14.9821   21.3869 C   0  0  2  0  0  0  0  0  0  0  0  0
    7.9207  -14.5355   20.2640 N   0  0  0  0  0  0  0  0  0  0  0  0
    7.9111  -14.8300   22.5997 C   0  0  0  0  0  0  0  0  0  0  0  0
    9.1720  -14.7763   22.5731 O   0  0  0  0  0  0  0  0  0  0  0  0
    5.7510  -12.0230   26.8740 C   0  0  0  0  0  0  0  0  0  0  0  0
    6.7634  -12.4984   25.8548 C   0  0  1  0  0  0  0  0  0  0  0  0
    8.0284  -11.6636   26.1233 C   0  0  0  0  0  0  0  0  0  0  0  0
    7.0936  -13.9315   26.0520 C   0  0  0  0  0  0  0  0  0  0  0  0
    8.0496  -14.5622   25.1041 C   0  0  2  0  0  0  0  0  0  0  0  0
    7.2953  -14.7386   23.8508 N   0  0  0  0  0  0  0  0  0  0  0  0
    8.5670  -15.8800   25.4632 C   0  0  0  0  0  0  0  0  0  0  0  0
    7.8012  -16.8729   25.5561 O   0  0  0  0  0  0  0  0  0  0  0  0
    9.9347  -16.1238   25.7228 N   0  0  0  0  0  0  0  0  0  0  0  0
   10.4357  -17.4588   26.0370 C   0  0  1  0  0  0  0  0  0  0  0  0
   11.7645  -17.7029   25.3223 C   0  0  0  0  0  0  0  0  0  0  0  0
   11.9980  -16.4343   24.0555 S   0  0  0  0  0  0  0  0  0  0  0  0
   10.6187  -17.6081   27.5027 C   0  0  0  0  0  0  0  0  0  0  0  0
   10.3721  -16.6278   28.2365 O   0  0  0  0  0  0  0  0  0  0  0  0
   11.0524  -18.8004   28.0631 O   0  0  0  0  0  0  0  0  0  0  0  0
  2  1  1  0
  3  2  1  0
  3  4  1  6
  5  3  1  0
  6  5  2  0
  8  9  1  1
  8  7  1  0
 10  8  1  0
 11 10  1  1
 11 13  1  0
 11 12  1  0
 12  5  1  0
 13 15  1  0
 14 13  2  0
 15 16  1  0
 16 19  1  0
 16 17  1  6
 18 17  1  0
 19 21  1  0
 20 19  2  0
M  END
$$$$
