SLC.pdb
     RDKit          3D

 21 20  0  0  1  0  0  0  0  0999 V2000
    7.5722  -19.4331   24.1342 O   0  0  0  0  0  0  0  0  0  0  0  0
    6.2481  -19.0860   24.1806 C   0  0  0  0  0  0  0  0  0  0  0  0
    6.0499  -17.7649   23.4620 C   0  0  2  0  0  0  0  0  0  0  0  0
    6.2812  -17.9531   22.0167 N   0  0  0  0  0  0  0  0  0  0  0  0
    7.0199  -16.7283   23.8866 C   0  0  0  0  0  0  0  0  0  0  0  0
    8.0868  -16.4751   23.2614 O   0  0  0  0  0  0  0  0  0  0  0  0
    5.6689  -12.0048   26.8239 C   0  0  0  0  0  0  0  0  0  0  0  0
    6.4271  -12.8517   25.8251 C   0  0  1  0  0  0  0  0  0  0  0  0
    7.6374  -11.9971   25.4081 C   0  0  0  0  0  0  0  0  0  0  0  0
    6.9256  -14.1025   26.4487 C   0  0  0  0  0  0  0  0  0  0  0  0
    7.7309  -15.0265   25.6073 C   0  0  2  0  0  0  0  0  0  0  0  0
    6.7614  -15.9777   25.0367 N   0  0  0  0  0  0  0  0  0  0  0  0
    8.7446  -15.8286   26.2873 C   0  0  0  0  0  0  0  0  0  0  0  0
    8.4179  -16.7596   27.0668 O   0  0  0  0  0  0  0  0  0  0  0  0
   10.1319  -15.6187   26.1172 N   0  0  0  0  0  0  0  0  0  0  0  0
   11.1270  -16.4162   26.8283 C   0  0  1  0  0  0  0  0  0  0  0  0
   12.5102  -16.1984   26.2154 C   0  0  0  0  0  0  0  0  0  0  0  0
   13.7218  -17.1908   27.1188 S   0  0  0  0  0  0  0  0  0  0  0  0
   11.1508  -16.0470   28.2661 C   0  0  0  0  0  0  0  0  0  0  0  0
   10.9128  -14.8618   28.5805 O   0  0  0  0  0  0  0  0  0  0  0  0
   11.4285  -16.9822   29.2519 O   0  0  0  0  0  0  0  0  0  0  0  0
  2  1  1  0
  3  2  1  0
  3  4  1  6
  5  3  1  0
  6  5  2  0
  8  9  1  1
  8  7  1  0
 10  8  1  0
 11 10  1  1
 11 13  1  0
 11 12  1  0
 12  5  1  0
 13 15  1  0
 14 13  2  0
 15 16  1  0
 16 19  1  0
 16 17  1  6
 18 17  1  0
 19 21  1  0
 20 19  2  0
M  END
$$$$
