SLC.pdb
     RDKit          3D

 21 20  0  0  1  0  0  0  0  0999 V2000
    8.3407  -17.7158   21.6627 O   0  0  0  0  0  0  0  0  0  0  0  0
    7.4249  -16.7826   21.2545 C   0  0  0  0  0  0  0  0  0  0  0  0
    8.0182  -15.3953   21.4104 C   0  0  2  0  0  0  0  0  0  0  0  0
    9.2210  -15.2783   20.5634 N   0  0  0  0  0  0  0  0  0  0  0  0
    8.4779  -15.1184   22.7915 C   0  0  0  0  0  0  0  0  0  0  0  0
    9.6900  -15.1529   23.1421 O   0  0  0  0  0  0  0  0  0  0  0  0
    5.5154  -11.8458   26.3921 C   0  0  0  0  0  0  0  0  0  0  0  0
    6.7136  -12.4328   25.6784 C   0  0  1  0  0  0  0  0  0  0  0  0
    7.9401  -11.8539   26.4063 C   0  0  0  0  0  0  0  0  0  0  0  0
    6.7446  -13.9109   25.8049 C   0  0  0  0  0  0  0  0  0  0  0  0
    7.8904  -14.6375   25.1970 C   0  0  2  0  0  0  0  0  0  0  0  0
    7.5384  -14.7991   23.7755 N   0  0  0  0  0  0  0  0  0  0  0  0
    8.1718  -15.9768   25.7072 C   0  0  0  0  0  0  0  0  0  0  0  0
    7.2653  -16.8449   25.7816 O   0  0  0  0  0  0  0  0  0  0  0  0
    9.4553  -16.3799   26.1405 N   0  0  0  0  0  0  0  0  0  0  0  0
    9.7799  -17.7803   26.3967 C   0  0  1  0  0  0  0  0  0  0  0  0
    9.6966  -18.5845   25.0996 C   0  0  0  0  0  0  0  0  0  0  0  0
   10.2297  -20.2822   25.4195 S   0  0  0  0  0  0  0  0  0  0  0  0
   11.1434  -17.8955   26.9727 C   0  0  0  0  0  0  0  0  0  0  0  0
   11.4837  -18.9830   27.4843 O   0  0  0  0  0  0  0  0  0  0  0  0
   12.0329  -16.8317   26.9526 O   0  0  0  0  0  0  0  0  0  0  0  0
  2  1  1  0
  3  2  1  0
  3  4  1  6
  5  3  1  0
  6  5  2  0
  8  9  1  1
  8  7  1  0
 10  8  1  0
 11 10  1  1
 11 13  1  0
 11 12  1  0
 12  5  1  0
 13 15  1  0
 14 13  2  0
 15 16  1  0
 16 19  1  0
 16 17  1  6
 18 17  1  0
 19 21  1  0
 20 19  2  0
M  END
$$$$
