EFK.pdb
     RDKit          3D

 30 30  0  0  1  0  0  0  0  0999 V2000
   28.9656  -20.6377  -14.8188 N   0  0  0  0  0  0  0  0  0  0  0  0
   28.1535  -19.7518  -13.9893 C   0  0  1  0  0  0  0  0  0  0  0  0
   27.5213  -18.7659  -14.9342 C   0  0  0  0  0  0  0  0  0  0  0  0
   28.4563  -17.8071  -15.5813 C   0  0  0  0  0  0  0  0  0  0  0  0
   28.7104  -18.1114  -16.9967 C   0  0  0  0  0  0  0  0  0  0  0  0
   29.8532  -18.1468  -17.4924 O   0  0  0  0  0  0  0  0  0  0  0  0
   27.1488  -20.5693  -13.2418 C   0  0  0  0  0  0  0  0  0  0  0  0
   26.7555  -21.6614  -13.7367 O   0  0  0  0  0  0  0  0  0  0  0  0
   27.5995  -18.3705  -17.8057 O   0  0  0  0  0  0  0  0  0  0  0  0
   26.6599  -20.0995  -11.9928 N   0  0  0  0  0  0  0  0  0  0  0  0
   25.6598  -20.8571  -11.2383 C   0  0  1  0  0  0  0  0  0  0  0  0
   25.5503  -20.1975   -9.9137 C   0  0  0  0  0  0  0  0  0  0  0  0
   26.6781  -20.2446   -9.0160 C   0  0  0  0  0  0  0  0  0  0  0  0
   26.7884  -19.4828   -7.8619 C   0  0  0  0  0  0  0  0  0  0  0  0
   27.8904  -19.5928   -7.0542 C   0  0  0  0  0  0  0  0  0  0  0  0
   28.9327  -20.4543   -7.3424 C   0  0  0  0  0  0  0  0  0  0  0  0
   28.8386  -21.2148   -8.4806 C   0  0  0  0  0  0  0  0  0  0  0  0
   27.7215  -21.1017   -9.2971 C   0  0  0  0  0  0  0  0  0  0  0  0
   24.3391  -20.8189  -11.9014 C   0  0  0  0  0  0  0  0  0  0  0  0
   23.9358  -19.7022  -12.3173 O   0  0  0  0  0  0  0  0  0  0  0  0
   23.5010  -21.9257  -12.1042 N   0  0  0  0  0  0  0  0  0  0  0  0
   22.3331  -21.9136  -12.9763 C   0  0  1  0  0  0  0  0  0  0  0  0
   22.0853  -23.2087  -13.6359 C   0  0  0  0  0  0  0  0  0  0  0  0
   23.2982  -23.6457  -14.4073 C   0  0  0  0  0  0  0  0  0  0  0  0
   23.0316  -24.9600  -15.1477 C   0  0  0  0  0  0  0  0  0  0  0  0
   24.2624  -25.2303  -15.9870 C   0  0  0  0  0  0  0  0  0  0  0  0
   24.1817  -26.5167  -16.6521 N   0  0  0  0  0  0  0  0  0  0  0  0
   21.1430  -21.3971  -12.2775 C   0  0  0  0  0  0  0  0  0  0  0  0
   21.0435  -21.0841  -11.0846 O   0  0  0  0  0  0  0  0  0  0  0  0
   19.9873  -21.2494  -13.0877 O   0  0  0  0  0  0  0  0  0  0  0  0
  2  1  1  6
  3  2  1  0
  3  4  1  0
  4  5  1  0
  5  6  2  0
  5  9  1  0
  7  2  1  0
  7  8  2  0
 10  7  1  0
 11 10  1  0
 11 12  1  1
 13 12  1  0
 13 18  2  0
 14 13  1  0
 15 14  2  0
 15 16  1  0
 16 17  2  0
 17 18  1  0
 19 11  1  0
 20 19  2  0
 21 19  1  0
 22 21  1  0
 22 28  1  0
 22 23  1  1
 24 23  1  0
 25 24  1  0
 26 27  1  0
 26 25  1  0
 28 29  2  0
 28 30  1  0
M  END
$$$$
