EFK.pdb
     RDKit          3D

 30 30  0  0  1  0  0  0  0  0999 V2000
   21.6153  -13.3740  -18.4755 N   0  0  0  0  0  0  0  0  0  0  0  0
   22.0592  -12.0396  -18.8689 C   0  0  1  0  0  0  0  0  0  0  0  0
   21.5286  -11.8213  -20.2601 C   0  0  0  0  0  0  0  0  0  0  0  0
   20.0568  -11.9692  -20.4160 C   0  0  0  0  0  0  0  0  0  0  0  0
   19.3829  -10.7126  -20.7729 C   0  0  0  0  0  0  0  0  0  0  0  0
   19.7399   -9.9940  -21.7265 O   0  0  0  0  0  0  0  0  0  0  0  0
   21.5386  -11.0426  -17.8834 C   0  0  0  0  0  0  0  0  0  0  0  0
   20.4414  -11.2689  -17.3024 O   0  0  0  0  0  0  0  0  0  0  0  0
   18.2908  -10.3263  -19.9895 O   0  0  0  0  0  0  0  0  0  0  0  0
   22.2892   -9.8643  -17.6228 N   0  0  0  0  0  0  0  0  0  0  0  0
   21.7963   -8.8419  -16.6980 C   0  0  1  0  0  0  0  0  0  0  0  0
   22.9795   -8.3546  -15.9471 C   0  0  0  0  0  0  0  0  0  0  0  0
   22.8094   -7.2835  -14.9964 C   0  0  0  0  0  0  0  0  0  0  0  0
   22.2652   -7.4437  -13.7305 C   0  0  0  0  0  0  0  0  0  0  0  0
   22.1464   -6.3751  -12.8802 C   0  0  0  0  0  0  0  0  0  0  0  0
   22.5559   -5.1027  -13.2335 C   0  0  0  0  0  0  0  0  0  0  0  0
   23.0964   -4.9279  -14.4826 C   0  0  0  0  0  0  0  0  0  0  0  0
   23.2157   -6.0116  -15.3420 C   0  0  0  0  0  0  0  0  0  0  0  0
   21.1890   -7.7053  -17.4224 C   0  0  0  0  0  0  0  0  0  0  0  0
   21.7727   -7.3083  -18.4637 O   0  0  0  0  0  0  0  0  0  0  0  0
   20.0162   -7.0351  -17.0430 N   0  0  0  0  0  0  0  0  0  0  0  0
   19.4929   -5.8592  -17.7271 C   0  0  1  0  0  0  0  0  0  0  0  0
   18.1258   -6.0475  -18.2461 C   0  0  0  0  0  0  0  0  0  0  0  0
   18.1528   -6.8440  -19.5197 C   0  0  0  0  0  0  0  0  0  0  0  0
   16.9125   -6.5562  -20.3716 C   0  0  0  0  0  0  0  0  0  0  0  0
   17.0076   -7.4653  -21.5785 C   0  0  0  0  0  0  0  0  0  0  0  0
   15.8790   -7.2850  -22.4715 N   0  0  0  0  0  0  0  0  0  0  0  0
   19.6213   -4.6493  -16.8956 C   0  0  0  0  0  0  0  0  0  0  0  0
   20.4180   -3.7138  -17.0405 O   0  0  0  0  0  0  0  0  0  0  0  0
   18.7145   -4.5694  -15.8069 O   0  0  0  0  0  0  0  0  0  0  0  0
  2  1  1  1
  3  2  1  0
  3  4  1  0
  4  5  1  0
  5  6  2  0
  5  9  1  0
  7  2  1  0
  7  8  2  0
 10  7  1  0
 11 10  1  0
 11 12  1  6
 13 12  1  0
 13 18  2  0
 14 13  1  0
 15 14  2  0
 15 16  1  0
 16 17  2  0
 17 18  1  0
 19 11  1  0
 20 19  2  0
 21 19  1  0
 22 21  1  0
 22 28  1  0
 22 23  1  1
 24 23  1  0
 25 24  1  0
 26 27  1  0
 26 25  1  0
 28 29  2  0
 28 30  1  0
M  END
$$$$
