EFK.pdb
     RDKit          3D

 30 30  0  0  1  0  0  0  0  0999 V2000
   28.0432  -22.4495  -17.4767 N   0  0  0  0  0  0  0  0  0  0  0  0
   28.2079  -21.3423  -16.5390 C   0  0  1  0  0  0  0  0  0  0  0  0
   28.0330  -20.0859  -17.3485 C   0  0  0  0  0  0  0  0  0  0  0  0
   26.6665  -19.8560  -17.8891 C   0  0  0  0  0  0  0  0  0  0  0  0
   26.5227  -18.5604  -18.5683 C   0  0  0  0  0  0  0  0  0  0  0  0
   27.4649  -17.7576  -18.7128 O   0  0  0  0  0  0  0  0  0  0  0  0
   27.1975  -21.4760  -15.4446 C   0  0  0  0  0  0  0  0  0  0  0  0
   26.0957  -22.0394  -15.6919 O   0  0  0  0  0  0  0  0  0  0  0  0
   25.2575  -18.2358  -19.0678 O   0  0  0  0  0  0  0  0  0  0  0  0
   27.4993  -20.9668  -14.1526 N   0  0  0  0  0  0  0  0  0  0  0  0
   26.5467  -21.0929  -13.0480 C   0  0  1  0  0  0  0  0  0  0  0  0
   27.2207  -20.5317  -11.8512 C   0  0  0  0  0  0  0  0  0  0  0  0
   26.5181  -20.5304  -10.5917 C   0  0  0  0  0  0  0  0  0  0  0  0
   26.6646  -19.5532   -9.6180 C   0  0  0  0  0  0  0  0  0  0  0  0
   25.9518  -19.6185   -8.4491 C   0  0  0  0  0  0  0  0  0  0  0  0
   25.0640  -20.6446   -8.1832 C   0  0  0  0  0  0  0  0  0  0  0  0
   24.9078  -21.6191   -9.1366 C   0  0  0  0  0  0  0  0  0  0  0  0
   25.6308  -21.5508  -10.3197 C   0  0  0  0  0  0  0  0  0  0  0  0
   25.3129  -20.3209  -13.3073 C   0  0  0  0  0  0  0  0  0  0  0  0
   25.4365  -19.2233  -13.9094 O   0  0  0  0  0  0  0  0  0  0  0  0
   24.0177  -20.7131  -12.9370 N   0  0  0  0  0  0  0  0  0  0  0  0
   22.8161  -19.9471  -13.2434 C   0  0  1  0  0  0  0  0  0  0  0  0
   22.6142  -19.7334  -14.6882 C   0  0  0  0  0  0  0  0  0  0  0  0
   21.4384  -18.8289  -14.9258 C   0  0  0  0  0  0  0  0  0  0  0  0
   20.8093  -19.0979  -16.2965 C   0  0  0  0  0  0  0  0  0  0  0  0
   20.6451  -17.7467  -16.9595 C   0  0  0  0  0  0  0  0  0  0  0  0
   20.0447  -17.8678  -18.2743 N   0  0  0  0  0  0  0  0  0  0  0  0
   21.6287  -20.5191  -12.5842 C   0  0  0  0  0  0  0  0  0  0  0  0
   20.7578  -19.9186  -11.9424 O   0  0  0  0  0  0  0  0  0  0  0  0
   21.4882  -21.9253  -12.7141 O   0  0  0  0  0  0  0  0  0  0  0  0
  2  1  1  6
  3  2  1  0
  3  4  1  0
  4  5  1  0
  5  6  2  0
  5  9  1  0
  7  2  1  0
  7  8  2  0
 10  7  1  0
 11 10  1  0
 11 12  1  1
 13 12  1  0
 13 18  2  0
 14 13  1  0
 15 14  2  0
 15 16  1  0
 16 17  2  0
 17 18  1  0
 19 11  1  0
 20 19  2  0
 21 19  1  0
 22 21  1  0
 22 28  1  0
 22 23  1  6
 24 23  1  0
 25 24  1  0
 26 27  1  0
 26 25  1  0
 28 29  2  0
 28 30  1  0
M  END
$$$$
