EFK.pdb
     RDKit          3D

 30 30  0  0  1  0  0  0  0  0999 V2000
   20.3885  -16.1084  -17.0089 N   0  0  0  0  0  0  0  0  0  0  0  0
   20.2564  -14.7217  -17.4470 C   0  0  1  0  0  0  0  0  0  0  0  0
   18.8205  -14.3454  -17.1996 C   0  0  0  0  0  0  0  0  0  0  0  0
   17.8186  -15.0454  -18.0473 C   0  0  0  0  0  0  0  0  0  0  0  0
   17.1956  -16.1958  -17.3774 C   0  0  0  0  0  0  0  0  0  0  0  0
   16.3196  -16.9037  -17.9109 O   0  0  0  0  0  0  0  0  0  0  0  0
   21.2213  -13.8744  -16.6805 C   0  0  0  0  0  0  0  0  0  0  0  0
   21.3578  -14.0677  -15.4409 O   0  0  0  0  0  0  0  0  0  0  0  0
   17.6234  -16.4900  -16.0789 O   0  0  0  0  0  0  0  0  0  0  0  0
   21.9621  -12.8720  -17.3632 N   0  0  0  0  0  0  0  0  0  0  0  0
   22.9022  -12.0068  -16.6482 C   0  0  1  0  0  0  0  0  0  0  0  0
   24.2155  -12.1765  -17.3174 C   0  0  0  0  0  0  0  0  0  0  0  0
   25.3421  -11.4089  -16.8469 C   0  0  0  0  0  0  0  0  0  0  0  0
   25.8015  -10.2477  -17.4511 C   0  0  0  0  0  0  0  0  0  0  0  0
   26.8750   -9.5689  -16.9357 C   0  0  0  0  0  0  0  0  0  0  0  0
   27.5454   -9.9985  -15.8054 C   0  0  0  0  0  0  0  0  0  0  0  0
   27.1031  -11.1456  -15.1960 C   0  0  0  0  0  0  0  0  0  0  0  0
   26.0156  -11.8314  -15.7199 C   0  0  0  0  0  0  0  0  0  0  0  0
   22.5023  -10.5862  -16.7344 C   0  0  0  0  0  0  0  0  0  0  0  0
   22.2734  -10.1211  -17.8807 O   0  0  0  0  0  0  0  0  0  0  0  0
   22.3574   -9.7166  -15.6429 N   0  0  0  0  0  0  0  0  0  0  0  0
   21.9283   -8.3285  -15.7592 C   0  0  1  0  0  0  0  0  0  0  0  0
   20.6209   -8.1766  -16.4235 C   0  0  0  0  0  0  0  0  0  0  0  0
   19.5212   -8.7012  -15.5445 C   0  0  0  0  0  0  0  0  0  0  0  0
   18.1521   -8.4990  -16.2014 C   0  0  0  0  0  0  0  0  0  0  0  0
   17.1414   -9.1534  -15.2836 C   0  0  0  0  0  0  0  0  0  0  0  0
   15.8137   -9.1545  -15.8676 N   0  0  0  0  0  0  0  0  0  0  0  0
   21.9876   -7.6347  -14.4604 C   0  0  0  0  0  0  0  0  0  0  0  0
   21.8076   -6.4309  -14.2377 O   0  0  0  0  0  0  0  0  0  0  0  0
   22.2877   -8.4645  -13.3490 O   0  0  0  0  0  0  0  0  0  0  0  0
  2  1  1  1
  3  2  1  0
  3  4  1  0
  4  5  1  0
  5  6  2  0
  5  9  1  0
  7  2  1  0
  7  8  2  0
 10  7  1  0
 11 10  1  0
 11 12  1  6
 13 12  1  0
 13 18  2  0
 14 13  1  0
 15 14  2  0
 15 16  1  0
 16 17  2  0
 17 18  1  0
 19 11  1  0
 20 19  2  0
 21 19  1  0
 22 21  1  0
 22 28  1  0
 22 23  1  1
 24 23  1  0
 25 24  1  0
 26 27  1  0
 26 25  1  0
 28 29  2  0
 28 30  1  0
M  END
$$$$
