EFK.pdb
     RDKit          3D

 30 30  0  0  1  0  0  0  0  0999 V2000
   15.9335  -20.8363    1.8497 N   0  0  0  0  0  0  0  0  0  0  0  0
   15.4943  -20.0732    3.0147 C   0  0  1  0  0  0  0  0  0  0  0  0
   15.2772  -21.0811    4.1108 C   0  0  0  0  0  0  0  0  0  0  0  0
   14.0899  -21.9618    3.9466 C   0  0  0  0  0  0  0  0  0  0  0  0
   12.8155  -21.2309    3.9936 C   0  0  0  0  0  0  0  0  0  0  0  0
   12.7399  -19.9879    3.9466 O   0  0  0  0  0  0  0  0  0  0  0  0
   16.5388  -19.0583    3.3546 C   0  0  0  0  0  0  0  0  0  0  0  0
   17.7503  -19.3217    3.1188 O   0  0  0  0  0  0  0  0  0  0  0  0
   11.6452  -21.9896    4.0960 O   0  0  0  0  0  0  0  0  0  0  0  0
   16.1454  -17.8219    3.9344 N   0  0  0  0  0  0  0  0  0  0  0  0
   17.1342  -16.7982    4.2772 C   0  0  1  0  0  0  0  0  0  0  0  0
   16.8461  -15.6328    3.4052 C   0  0  0  0  0  0  0  0  0  0  0  0
   17.6444  -14.4403    3.5487 C   0  0  0  0  0  0  0  0  0  0  0  0
   17.2614  -13.3297    4.2866 C   0  0  0  0  0  0  0  0  0  0  0  0
   18.0830  -12.2367    4.3825 C   0  0  0  0  0  0  0  0  0  0  0  0
   19.3161  -12.1844    3.7594 C   0  0  0  0  0  0  0  0  0  0  0  0
   19.7094  -13.2752    3.0256 C   0  0  0  0  0  0  0  0  0  0  0  0
   18.8756  -14.3810    2.9300 C   0  0  0  0  0  0  0  0  0  0  0  0
   17.0117  -16.3795    5.6897 C   0  0  0  0  0  0  0  0  0  0  0  0
   15.8594  -16.0980    6.1088 O   0  0  0  0  0  0  0  0  0  0  0  0
   18.0748  -16.2715    6.5989 N   0  0  0  0  0  0  0  0  0  0  0  0
   17.9313  -15.7854    7.9655 C   0  0  1  0  0  0  0  0  0  0  0  0
   18.9078  -16.3754    8.8993 C   0  0  0  0  0  0  0  0  0  0  0  0
   18.7894  -17.8731    8.9057 C   0  0  0  0  0  0  0  0  0  0  0  0
   19.8973  -18.5060    9.7535 C   0  0  0  0  0  0  0  0  0  0  0  0
   19.6126  -19.9927    9.7808 C   0  0  0  0  0  0  0  0  0  0  0  0
   20.6100  -20.7122   10.5497 N   0  0  0  0  0  0  0  0  0  0  0  0
   17.9179  -14.3126    8.0159 C   0  0  0  0  0  0  0  0  0  0  0  0
   18.1753  -13.5227    7.0989 O   0  0  0  0  0  0  0  0  0  0  0  0
   17.5656  -13.7576    9.2735 O   0  0  0  0  0  0  0  0  0  0  0  0
  2  1  1  6
  3  2  1  0
  3  4  1  0
  4  5  1  0
  5  6  2  0
  5  9  1  0
  7  2  1  0
  7  8  2  0
 10  7  1  0
 11 10  1  0
 11 12  1  6
 13 12  1  0
 13 18  2  0
 14 13  1  0
 15 14  2  0
 15 16  1  0
 16 17  2  0
 17 18  1  0
 19 11  1  0
 20 19  2  0
 21 19  1  0
 22 21  1  0
 22 28  1  0
 22 23  1  1
 24 23  1  0
 25 24  1  0
 26 27  1  0
 26 25  1  0
 28 29  2  0
 28 30  1  0
M  END
$$$$
