EFK.pdb
     RDKit          3D

 30 30  0  0  1  0  0  0  0  0999 V2000
   26.9801  -22.9055  -17.1054 N   0  0  0  0  0  0  0  0  0  0  0  0
   27.4754  -21.9040  -16.1651 C   0  0  1  0  0  0  0  0  0  0  0  0
   27.4627  -20.5964  -16.9098 C   0  0  0  0  0  0  0  0  0  0  0  0
   26.9006  -20.6471  -18.2859 C   0  0  0  0  0  0  0  0  0  0  0  0
   25.8440  -19.6518  -18.5172 C   0  0  0  0  0  0  0  0  0  0  0  0
   26.0702  -18.4321  -18.6369 O   0  0  0  0  0  0  0  0  0  0  0  0
   26.5963  -21.8943  -14.9553 C   0  0  0  0  0  0  0  0  0  0  0  0
   25.4353  -22.3823  -15.0362 O   0  0  0  0  0  0  0  0  0  0  0  0
   24.5295  -20.1211  -18.6034 O   0  0  0  0  0  0  0  0  0  0  0  0
   27.0864  -21.3372  -13.7433 N   0  0  0  0  0  0  0  0  0  0  0  0
   26.2589  -21.3054  -12.5360 C   0  0  1  0  0  0  0  0  0  0  0  0
   27.1088  -20.7310  -11.4639 C   0  0  0  0  0  0  0  0  0  0  0  0
   26.5389  -20.5311  -10.1542 C   0  0  0  0  0  0  0  0  0  0  0  0
   27.1010  -19.7266   -9.1738 C   0  0  0  0  0  0  0  0  0  0  0  0
   26.4911  -19.5802   -7.9550 C   0  0  0  0  0  0  0  0  0  0  0  0
   25.3034  -20.2159   -7.6438 C   0  0  0  0  0  0  0  0  0  0  0  0
   24.7347  -21.0153   -8.6031 C   0  0  0  0  0  0  0  0  0  0  0  0
   25.3543  -21.1621   -9.8368 C   0  0  0  0  0  0  0  0  0  0  0  0
   25.0713  -20.4438  -12.7170 C   0  0  0  0  0  0  0  0  0  0  0  0
   25.2749  -19.2325  -12.9892 O   0  0  0  0  0  0  0  0  0  0  0  0
   23.7380  -20.8673  -12.6102 N   0  0  0  0  0  0  0  0  0  0  0  0
   22.5880  -20.0073  -12.8601 C   0  0  1  0  0  0  0  0  0  0  0  0
   22.3803  -19.7130  -14.2898 C   0  0  0  0  0  0  0  0  0  0  0  0
   21.2363  -18.7557  -14.4680 C   0  0  0  0  0  0  0  0  0  0  0  0
   20.9599  -18.5038  -15.9536 C   0  0  0  0  0  0  0  0  0  0  0  0
   21.2108  -17.0291  -16.1868 C   0  0  0  0  0  0  0  0  0  0  0  0
   20.9431  -16.6540  -17.5621 N   0  0  0  0  0  0  0  0  0  0  0  0
   21.3736  -20.5266  -12.2066 C   0  0  0  0  0  0  0  0  0  0  0  0
   21.2420  -21.5945  -11.5956 O   0  0  0  0  0  0  0  0  0  0  0  0
   20.2339  -19.6865  -12.3019 O   0  0  0  0  0  0  0  0  0  0  0  0
  2  1  1  6
  3  2  1  0
  3  4  1  0
  4  5  1  0
  5  6  2  0
  5  9  1  0
  7  2  1  0
  7  8  2  0
 10  7  1  0
 11 10  1  0
 11 12  1  1
 13 12  1  0
 13 18  2  0
 14 13  1  0
 15 14  2  0
 15 16  1  0
 16 17  2  0
 17 18  1  0
 19 11  1  0
 20 19  2  0
 21 19  1  0
 22 21  1  0
 22 28  1  0
 22 23  1  6
 24 23  1  0
 25 24  1  0
 26 27  1  0
 26 25  1  0
 28 29  2  0
 28 30  1  0
M  END
$$$$
