EFK.pdb
     RDKit          3D

 30 30  0  0  1  0  0  0  0  0999 V2000
   28.8441  -21.0046  -14.6623 N   0  0  0  0  0  0  0  0  0  0  0  0
   28.4061  -20.3746  -13.4199 C   0  0  1  0  0  0  0  0  0  0  0  0
   28.2925  -18.9044  -13.7200 C   0  0  0  0  0  0  0  0  0  0  0  0
   27.2552  -18.5316  -14.7187 C   0  0  0  0  0  0  0  0  0  0  0  0
   27.8124  -17.9084  -15.9276 C   0  0  0  0  0  0  0  0  0  0  0  0
   29.0305  -17.8992  -16.1908 O   0  0  0  0  0  0  0  0  0  0  0  0
   27.1085  -20.9847  -12.9950 C   0  0  0  0  0  0  0  0  0  0  0  0
   26.3799  -21.5429  -13.8611 O   0  0  0  0  0  0  0  0  0  0  0  0
   26.9118  -17.3031  -16.8097 O   0  0  0  0  0  0  0  0  0  0  0  0
   26.7248  -20.9229  -11.6281 N   0  0  0  0  0  0  0  0  0  0  0  0
   25.4797  -21.5368  -11.1630 C   0  0  1  0  0  0  0  0  0  0  0  0
   25.5780  -21.6083   -9.6842 C   0  0  0  0  0  0  0  0  0  0  0  0
   26.5686  -20.8043   -9.0116 C   0  0  0  0  0  0  0  0  0  0  0  0
   26.2966  -19.6006   -8.3779 C   0  0  0  0  0  0  0  0  0  0  0  0
   27.2937  -18.8996   -7.7510 C   0  0  0  0  0  0  0  0  0  0  0  0
   28.6013  -19.3476   -7.7177 C   0  0  0  0  0  0  0  0  0  0  0  0
   28.8865  -20.5368   -8.3401 C   0  0  0  0  0  0  0  0  0  0  0  0
   27.8749  -21.2451   -8.9744 C   0  0  0  0  0  0  0  0  0  0  0  0
   24.3043  -20.7163  -11.5244 C   0  0  0  0  0  0  0  0  0  0  0  0
   23.7555  -20.0593  -10.6026 O   0  0  0  0  0  0  0  0  0  0  0  0
   23.7529  -20.6111  -12.8102 N   0  0  0  0  0  0  0  0  0  0  0  0
   22.4417  -20.0389  -13.0895 C   0  0  1  0  0  0  0  0  0  0  0  0
   22.3097  -19.5298  -14.4669 C   0  0  0  0  0  0  0  0  0  0  0  0
   20.9766  -18.8630  -14.6546 C   0  0  0  0  0  0  0  0  0  0  0  0
   20.5885  -18.8232  -16.1361 C   0  0  0  0  0  0  0  0  0  0  0  0
   19.3250  -17.9935  -16.2205 C   0  0  0  0  0  0  0  0  0  0  0  0
   18.8748  -17.8464  -17.5915 N   0  0  0  0  0  0  0  0  0  0  0  0
   21.3582  -20.9681  -12.7229 C   0  0  0  0  0  0  0  0  0  0  0  0
   21.2795  -22.1760  -12.9793 O   0  0  0  0  0  0  0  0  0  0  0  0
   20.2908  -20.3872  -11.9902 O   0  0  0  0  0  0  0  0  0  0  0  0
  2  1  1  6
  3  2  1  0
  3  4  1  0
  4  5  1  0
  5  6  2  0
  5  9  1  0
  7  2  1  0
  7  8  2  0
 10  7  1  0
 11 10  1  0
 11 12  1  1
 13 12  1  0
 13 18  2  0
 14 13  1  0
 15 14  2  0
 15 16  1  0
 16 17  2  0
 17 18  1  0
 19 11  1  0
 20 19  2  0
 21 19  1  0
 22 21  1  0
 22 28  1  0
 22 23  1  6
 24 23  1  0
 25 24  1  0
 26 27  1  0
 26 25  1  0
 28 29  2  0
 28 30  1  0
M  END
$$$$
