EFK.pdb
     RDKit          3D

 30 30  0  0  1  0  0  0  0  0999 V2000
   24.0583  -11.6605  -19.2478 N   0  0  0  0  0  0  0  0  0  0  0  0
   23.3894  -10.3764  -19.4374 C   0  0  1  0  0  0  0  0  0  0  0  0
   22.3142  -10.6181  -20.4622 C   0  0  0  0  0  0  0  0  0  0  0  0
   21.4266  -11.7821  -20.1986 C   0  0  0  0  0  0  0  0  0  0  0  0
   20.8692  -12.3746  -21.4228 C   0  0  0  0  0  0  0  0  0  0  0  0
   20.6574  -11.7202  -22.4621 O   0  0  0  0  0  0  0  0  0  0  0  0
   22.8482   -9.9099  -18.1237 C   0  0  0  0  0  0  0  0  0  0  0  0
   22.3562  -10.7561  -17.3272 O   0  0  0  0  0  0  0  0  0  0  0  0
   20.5706  -13.7405  -21.3951 O   0  0  0  0  0  0  0  0  0  0  0  0
   22.8997   -8.5268  -17.8013 N   0  0  0  0  0  0  0  0  0  0  0  0
   22.3755   -8.0262  -16.5293 C   0  0  1  0  0  0  0  0  0  0  0  0
   23.5382   -7.4817  -15.7855 C   0  0  0  0  0  0  0  0  0  0  0  0
   24.5861   -8.3828  -15.3730 C   0  0  0  0  0  0  0  0  0  0  0  0
   24.4646   -9.2983  -14.3379 C   0  0  0  0  0  0  0  0  0  0  0  0
   25.5058  -10.1285  -14.0131 C   0  0  0  0  0  0  0  0  0  0  0  0
   26.7118  -10.0977  -14.6886 C   0  0  0  0  0  0  0  0  0  0  0  0
   26.8476   -9.1975  -15.7152 C   0  0  0  0  0  0  0  0  0  0  0  0
   25.7917   -8.3577  -16.0424 C   0  0  0  0  0  0  0  0  0  0  0  0
   21.3924   -6.9422  -16.7387 C   0  0  0  0  0  0  0  0  0  0  0  0
   21.6841   -6.0555  -17.5820 O   0  0  0  0  0  0  0  0  0  0  0  0
   20.1624   -6.8231  -16.0742 N   0  0  0  0  0  0  0  0  0  0  0  0
   19.2002   -5.7579  -16.3272 C   0  0  1  0  0  0  0  0  0  0  0  0
   17.8202   -6.2480  -16.4983 C   0  0  0  0  0  0  0  0  0  0  0  0
   16.8940   -5.1086  -16.8160 C   0  0  0  0  0  0  0  0  0  0  0  0
   15.4447   -5.5941  -16.9197 C   0  0  0  0  0  0  0  0  0  0  0  0
   14.6338   -4.4076  -17.3959 C   0  0  0  0  0  0  0  0  0  0  0  0
   13.2313   -4.7461  -17.5449 N   0  0  0  0  0  0  0  0  0  0  0  0
   19.3005   -4.6890  -15.3176 C   0  0  0  0  0  0  0  0  0  0  0  0
   19.0135   -3.4930  -15.4522 O   0  0  0  0  0  0  0  0  0  0  0  0
   19.7853   -5.1034  -14.0499 O   0  0  0  0  0  0  0  0  0  0  0  0
  2  1  1  1
  3  2  1  0
  3  4  1  0
  4  5  1  0
  5  6  2  0
  5  9  1  0
  7  2  1  0
  7  8  2  0
 10  7  1  0
 11 10  1  0
 11 12  1  1
 13 12  1  0
 13 18  2  0
 14 13  1  0
 15 14  2  0
 15 16  1  0
 16 17  2  0
 17 18  1  0
 19 11  1  0
 20 19  2  0
 21 19  1  0
 22 21  1  0
 22 28  1  0
 22 23  1  1
 24 23  1  0
 25 24  1  0
 26 27  1  0
 26 25  1  0
 28 29  2  0
 28 30  1  0
M  END
$$$$
