EFK.pdb
     RDKit          3D

 30 30  0  0  1  0  0  0  0  0999 V2000
   17.7735  -13.1849  -16.2477 N   0  0  0  0  0  0  0  0  0  0  0  0
   18.3249  -12.0664  -17.0075 C   0  0  1  0  0  0  0  0  0  0  0  0
   17.1678  -11.1448  -17.2842 C   0  0  0  0  0  0  0  0  0  0  0  0
   16.1708  -11.6443  -18.2684 C   0  0  0  0  0  0  0  0  0  0  0  0
   16.6815  -11.6734  -19.6464 C   0  0  0  0  0  0  0  0  0  0  0  0
   16.7389  -12.7133  -20.3308 O   0  0  0  0  0  0  0  0  0  0  0  0
   19.4073  -11.4182  -16.2046 C   0  0  0  0  0  0  0  0  0  0  0  0
   19.3173  -11.4108  -14.9459 O   0  0  0  0  0  0  0  0  0  0  0  0
   17.1180  -10.4627  -20.1936 O   0  0  0  0  0  0  0  0  0  0  0  0
   20.5115  -10.8259  -16.8751 N   0  0  0  0  0  0  0  0  0  0  0  0
   21.6264  -10.2420  -16.1271 C   0  0  1  0  0  0  0  0  0  0  0  0
   22.8658  -10.7834  -16.7371 C   0  0  0  0  0  0  0  0  0  0  0  0
   24.1422  -10.3458  -16.2281 C   0  0  0  0  0  0  0  0  0  0  0  0
   24.6799  -10.7539  -15.0162 C   0  0  0  0  0  0  0  0  0  0  0  0
   25.9065  -10.2992  -14.6069 C   0  0  0  0  0  0  0  0  0  0  0  0
   26.6600   -9.4245  -15.3677 C   0  0  0  0  0  0  0  0  0  0  0  0
   26.1419   -9.0114  -16.5693 C   0  0  0  0  0  0  0  0  0  0  0  0
   24.8993   -9.4733  -16.9817 C   0  0  0  0  0  0  0  0  0  0  0  0
   21.6418   -8.7682  -16.2424 C   0  0  0  0  0  0  0  0  0  0  0  0
   21.5565   -8.2804  -17.3989 O   0  0  0  0  0  0  0  0  0  0  0  0
   21.7434   -7.8715  -15.1682 N   0  0  0  0  0  0  0  0  0  0  0  0
   21.7309   -6.4213  -15.3141 C   0  0  1  0  0  0  0  0  0  0  0  0
   20.3717   -5.8555  -15.3936 C   0  0  0  0  0  0  0  0  0  0  0  0
   20.4317   -4.3867  -15.7035 C   0  0  0  0  0  0  0  0  0  0  0  0
   19.0243   -3.7882  -15.7918 C   0  0  0  0  0  0  0  0  0  0  0  0
   19.2075   -2.3230  -16.1263 C   0  0  0  0  0  0  0  0  0  0  0  0
   17.9347   -1.6641  -16.3489 N   0  0  0  0  0  0  0  0  0  0  0  0
   22.5568   -5.7680  -14.2833 C   0  0  0  0  0  0  0  0  0  0  0  0
   22.5979   -6.0242  -13.0734 O   0  0  0  0  0  0  0  0  0  0  0  0
   23.3956   -4.7259  -14.7568 O   0  0  0  0  0  0  0  0  0  0  0  0
  2  1  1  1
  3  2  1  0
  3  4  1  0
  4  5  1  0
  5  6  2  0
  5  9  1  0
  7  2  1  0
  7  8  2  0
 10  7  1  0
 11 10  1  0
 11 12  1  6
 13 12  1  0
 13 18  2  0
 14 13  1  0
 15 14  2  0
 15 16  1  0
 16 17  2  0
 17 18  1  0
 19 11  1  0
 20 19  2  0
 21 19  1  0
 22 21  1  0
 22 28  1  0
 22 23  1  1
 24 23  1  0
 25 24  1  0
 26 27  1  0
 26 25  1  0
 28 29  2  0
 28 30  1  0
M  END
$$$$
