EFK.pdb
     RDKit          3D

 30 30  0  0  1  0  0  0  0  0999 V2000
   22.3861  -35.0779   -9.5025 N   0  0  0  0  0  0  0  0  0  0  0  0
   22.3299  -35.8813   -8.2844 C   0  0  1  0  0  0  0  0  0  0  0  0
   22.2719  -37.3152   -8.7376 C   0  0  0  0  0  0  0  0  0  0  0  0
   20.9064  -37.8769   -8.9161 C   0  0  0  0  0  0  0  0  0  0  0  0
   20.1520  -37.9766   -7.6586 C   0  0  0  0  0  0  0  0  0  0  0  0
   18.9735  -37.5898   -7.5374 O   0  0  0  0  0  0  0  0  0  0  0  0
   23.5329  -35.5827   -7.4476 C   0  0  0  0  0  0  0  0  0  0  0  0
   24.6816  -35.7778   -7.9324 O   0  0  0  0  0  0  0  0  0  0  0  0
   20.8105  -38.5365   -6.5591 O   0  0  0  0  0  0  0  0  0  0  0  0
   23.3568  -35.0867   -6.1276 N   0  0  0  0  0  0  0  0  0  0  0  0
   24.4974  -34.6254   -5.3340 C   0  0  1  0  0  0  0  0  0  0  0  0
   24.6652  -33.1844   -5.6449 C   0  0  0  0  0  0  0  0  0  0  0  0
   25.3926  -32.8073   -6.8318 C   0  0  0  0  0  0  0  0  0  0  0  0
   26.7519  -33.0173   -7.0129 C   0  0  0  0  0  0  0  0  0  0  0  0
   27.3689  -32.6383   -8.1767 C   0  0  0  0  0  0  0  0  0  0  0  0
   26.6807  -32.0367   -9.2141 C   0  0  0  0  0  0  0  0  0  0  0  0
   25.3354  -31.8221   -9.0502 C   0  0  0  0  0  0  0  0  0  0  0  0
   24.7126  -32.2068   -7.8706 C   0  0  0  0  0  0  0  0  0  0  0  0
   24.2440  -34.7751   -3.8853 C   0  0  0  0  0  0  0  0  0  0  0  0
   23.0981  -34.4681   -3.4666 O   0  0  0  0  0  0  0  0  0  0  0  0
   25.1765  -35.2313   -2.9415 N   0  0  0  0  0  0  0  0  0  0  0  0
   24.8817  -35.4075   -1.5250 C   0  0  1  0  0  0  0  0  0  0  0  0
   25.3680  -36.6899   -0.9839 C   0  0  0  0  0  0  0  0  0  0  0  0
   24.9048  -36.8711    0.4337 C   0  0  0  0  0  0  0  0  0  0  0  0
   25.5176  -38.1312    1.0528 C   0  0  0  0  0  0  0  0  0  0  0  0
   24.9506  -38.2338    2.4529 C   0  0  0  0  0  0  0  0  0  0  0  0
   25.4970  -39.3719    3.1669 N   0  0  0  0  0  0  0  0  0  0  0  0
   25.3332  -34.2506   -0.7317 C   0  0  0  0  0  0  0  0  0  0  0  0
   24.7373  -33.6932    0.1985 O   0  0  0  0  0  0  0  0  0  0  0  0
   26.6030  -33.7317   -1.0950 O   0  0  0  0  0  0  0  0  0  0  0  0
  2  1  1  6
  3  2  1  0
  3  4  1  0
  4  5  1  0
  5  6  2  0
  5  9  1  0
  7  2  1  0
  7  8  2  0
 10  7  1  0
 11 10  1  0
 11 12  1  1
 13 12  1  0
 13 18  2  0
 14 13  1  0
 15 14  2  0
 15 16  1  0
 16 17  2  0
 17 18  1  0
 19 11  1  0
 20 19  2  0
 21 19  1  0
 22 21  1  0
 22 28  1  0
 22 23  1  1
 24 23  1  0
 25 24  1  0
 26 27  1  0
 26 25  1  0
 28 29  2  0
 28 30  1  0
M  END
$$$$
