EFK.pdb
     RDKit          3D

 30 30  0  0  1  0  0  0  0  0999 V2000
   28.5136  -21.9307  -17.9882 N   0  0  0  0  0  0  0  0  0  0  0  0
   27.4912  -20.9745  -17.5725 C   0  0  1  0  0  0  0  0  0  0  0  0
   26.5626  -20.8258  -18.7473 C   0  0  0  0  0  0  0  0  0  0  0  0
   27.0891  -20.0238  -19.8838 C   0  0  0  0  0  0  0  0  0  0  0  0
   27.5475  -18.6853  -19.4850 C   0  0  0  0  0  0  0  0  0  0  0  0
   26.8000  -17.8356  -18.9631 O   0  0  0  0  0  0  0  0  0  0  0  0
   26.8054  -21.4950  -16.3497 C   0  0  0  0  0  0  0  0  0  0  0  0
   26.3056  -22.6535  -16.3724 O   0  0  0  0  0  0  0  0  0  0  0  0
   28.8919  -18.3743  -19.7125 O   0  0  0  0  0  0  0  0  0  0  0  0
   26.7317  -20.6755  -15.1910 N   0  0  0  0  0  0  0  0  0  0  0  0
   25.9861  -21.1050  -14.0065 C   0  0  1  0  0  0  0  0  0  0  0  0
   26.5054  -20.3001  -12.8734 C   0  0  0  0  0  0  0  0  0  0  0  0
   25.9222  -20.4785  -11.5664 C   0  0  0  0  0  0  0  0  0  0  0  0
   24.7985  -19.8018  -11.1150 C   0  0  0  0  0  0  0  0  0  0  0  0
   24.2989  -20.0353   -9.8602 C   0  0  0  0  0  0  0  0  0  0  0  0
   24.8787  -20.9425   -8.9927 C   0  0  0  0  0  0  0  0  0  0  0  0
   25.9910  -21.6200   -9.4245 C   0  0  0  0  0  0  0  0  0  0  0  0
   26.4952  -21.3818  -10.6959 C   0  0  0  0  0  0  0  0  0  0  0  0
   24.5386  -20.8431  -14.1545 C   0  0  0  0  0  0  0  0  0  0  0  0
   24.1988  -19.7028  -14.5631 O   0  0  0  0  0  0  0  0  0  0  0  0
   23.5155  -21.7620  -13.8767 N   0  0  0  0  0  0  0  0  0  0  0  0
   22.0956  -21.4712  -14.0319 C   0  0  1  0  0  0  0  0  0  0  0  0
   21.3457  -22.5604  -14.6838 C   0  0  0  0  0  0  0  0  0  0  0  0
   19.9015  -22.1797  -14.8460 C   0  0  0  0  0  0  0  0  0  0  0  0
   19.1196  -23.2891  -15.5564 C   0  0  0  0  0  0  0  0  0  0  0  0
   19.7243  -23.4146  -16.9387 C   0  0  0  0  0  0  0  0  0  0  0  0
   19.0160  -24.3916  -17.7434 N   0  0  0  0  0  0  0  0  0  0  0  0
   21.4886  -21.0497  -12.7569 C   0  0  0  0  0  0  0  0  0  0  0  0
   21.9540  -21.1820  -11.6181 O   0  0  0  0  0  0  0  0  0  0  0  0
   20.2220  -20.4204  -12.8735 O   0  0  0  0  0  0  0  0  0  0  0  0
  2  1  1  6
  3  2  1  0
  3  4  1  0
  4  5  1  0
  5  6  2  0
  5  9  1  0
  7  2  1  0
  7  8  2  0
 10  7  1  0
 11 10  1  0
 11 12  1  1
 13 12  1  0
 13 18  2  0
 14 13  1  0
 15 14  2  0
 15 16  1  0
 16 17  2  0
 17 18  1  0
 19 11  1  0
 20 19  2  0
 21 19  1  0
 22 21  1  0
 22 28  1  0
 22 23  1  1
 24 23  1  0
 25 24  1  0
 26 27  1  0
 26 25  1  0
 28 29  2  0
 28 30  1  0
M  END
$$$$
