QEA.pdb
     RDKit          3D

 24 23  0  0  1  0  0  0  0  0999 V2000
    9.0753  -13.4398   16.9723 N   0  0  0  0  0  0  0  0  0  0  0  0
    8.1448  -14.5090   17.0511 C   0  0  0  0  0  0  0  0  0  0  0  0
    8.1204  -15.3520   16.1355 O   0  0  0  0  0  0  0  0  0  0  0  0
    7.1970  -14.6366   18.2143 C   0  0  0  0  0  0  0  0  0  0  0  0
    7.2122  -13.3532   18.9656 C   0  0  0  0  0  0  0  0  0  0  0  0
    8.2567  -13.2119   20.0172 C   0  0  2  0  0  0  0  0  0  0  0  0
    9.5043  -13.7194   19.3887 N   0  0  0  0  0  0  0  0  0  0  0  0
    8.0511  -14.0041   21.2328 C   0  0  0  0  0  0  0  0  0  0  0  0
    6.9624  -13.9571   21.8723 O   0  0  0  0  0  0  0  0  0  0  0  0
    9.0367  -14.8792   21.7835 N   0  0  0  0  0  0  0  0  0  0  0  0
    8.8026  -15.5572   23.0442 C   0  0  1  0  0  0  0  0  0  0  0  0
    9.7343  -16.7851   23.1245 C   0  0  0  0  0  0  0  0  0  0  0  0
    9.4225  -17.5203   24.4088 C   0  0  0  0  0  0  0  0  0  0  0  0
   10.2819  -18.7067   24.5509 C   0  0  0  0  0  0  0  0  0  0  0  0
   11.0728  -19.0739   23.6520 O   0  0  0  0  0  0  0  0  0  0  0  0
    8.9733  -14.7180   24.2364 C   0  0  0  0  0  0  0  0  0  0  0  0
   10.1016  -14.1509   24.3984 O   0  0  0  0  0  0  0  0  0  0  0  0
   10.2193  -19.4468   25.7150 O   0  0  0  0  0  0  0  0  0  0  0  0
    6.8264  -12.8741   26.6249 C   0  0  0  0  0  0  0  0  0  0  0  0
    8.1515  -13.5408   26.3025 C   0  0  2  0  0  0  0  0  0  0  0  0
    8.0042  -14.4854   25.2103 N   0  0  0  0  0  0  0  0  0  0  0  0
    8.6716  -14.1930   27.5250 C   0  0  0  0  0  0  0  0  0  0  0  0
    9.1218  -13.4832   28.6241 O   0  0  0  0  0  0  0  0  0  0  0  0
    8.7130  -15.4462   27.5838 O   0  0  0  0  0  0  0  0  0  0  0  0
  1  2  1  0
  2  3  2  0
  4  5  1  0
  4  2  1  0
  6  5  1  0
  6  7  1  6
  8  6  1  0
  8 10  1  0
  9  8  2  0
 10 11  1  0
 11 16  1  0
 12 13  1  0
 11 12  1  1
 13 14  1  0
 14 18  1  0
 14 15  2  0
 16 17  2  0
 20 19  1  1
 20 22  1  0
 21 20  1  0
 21 16  1  0
 22 24  2  0
 22 23  1  0
M  END
$$$$
