QEA.pdb
     RDKit          3D

 24 23  0  0  1  0  0  0  0  0999 V2000
    9.9356  -13.2000   19.2878 N   0  0  0  0  0  0  0  0  0  0  0  0
    8.8381  -13.0724   18.3965 C   0  0  0  0  0  0  0  0  0  0  0  0
    9.0620  -12.7842   17.2063 O   0  0  0  0  0  0  0  0  0  0  0  0
    7.4221  -13.2787   18.8654 C   0  0  0  0  0  0  0  0  0  0  0  0
    7.4639  -13.6950   20.2925 C   0  0  0  0  0  0  0  0  0  0  0  0
    7.8025  -15.1204   20.5585 C   0  0  2  0  0  0  0  0  0  0  0  0
    6.7111  -15.8995   19.9176 N   0  0  0  0  0  0  0  0  0  0  0  0
    7.8262  -15.5193   21.9683 C   0  0  0  0  0  0  0  0  0  0  0  0
    6.7588  -15.7376   22.6083 O   0  0  0  0  0  0  0  0  0  0  0  0
    9.0274  -15.6961   22.7210 N   0  0  0  0  0  0  0  0  0  0  0  0
    8.9749  -15.9770   24.1430 C   0  0  1  0  0  0  0  0  0  0  0  0
   10.1798  -16.8673   24.5148 C   0  0  0  0  0  0  0  0  0  0  0  0
    9.9736  -18.2194   23.8696 C   0  0  0  0  0  0  0  0  0  0  0  0
   11.0718  -19.1352   24.2184 C   0  0  0  0  0  0  0  0  0  0  0  0
   10.8685  -20.2826   24.6769 O   0  0  0  0  0  0  0  0  0  0  0  0
    8.9425  -14.7895   25.0051 C   0  0  0  0  0  0  0  0  0  0  0  0
    9.9854  -14.0598   25.0387 O   0  0  0  0  0  0  0  0  0  0  0  0
   12.3763  -18.7208   24.0361 O   0  0  0  0  0  0  0  0  0  0  0  0
    6.4811  -12.7329   26.9457 C   0  0  0  0  0  0  0  0  0  0  0  0
    7.8866  -13.2449   26.6871 C   0  0  2  0  0  0  0  0  0  0  0  0
    7.8655  -14.3880   25.7928 N   0  0  0  0  0  0  0  0  0  0  0  0
    8.5244  -13.5732   27.9816 C   0  0  0  0  0  0  0  0  0  0  0  0
    8.9431  -12.6089   28.8812 O   0  0  0  0  0  0  0  0  0  0  0  0
    8.7010  -14.7764   28.2930 O   0  0  0  0  0  0  0  0  0  0  0  0
  1  2  1  0
  2  3  2  0
  4  5  1  0
  4  2  1  0
  6  5  1  0
  6  7  1  6
  8  6  1  0
  8 10  1  0
  9  8  2  0
 10 11  1  0
 11 16  1  0
 12 13  1  0
 11 12  1  1
 13 14  1  0
 14 18  1  0
 14 15  2  0
 16 17  2  0
 20 19  1  1
 20 22  1  0
 21 20  1  0
 21 16  1  0
 22 24  2  0
 22 23  1  0
M  END
$$$$
