QEA.pdb
     RDKit          3D

 24 23  0  0  1  0  0  0  0  0999 V2000
    6.6881  -14.9531   14.8875 N   0  0  0  0  0  0  0  0  0  0  0  0
    7.3168  -13.7433   15.2829 C   0  0  0  0  0  0  0  0  0  0  0  0
    7.9921  -13.1165   14.4457 O   0  0  0  0  0  0  0  0  0  0  0  0
    7.1799  -13.2132   16.6857 C   0  0  0  0  0  0  0  0  0  0  0  0
    7.4394  -14.3325   17.6299 C   0  0  0  0  0  0  0  0  0  0  0  0
    8.1180  -13.9794   18.9073 C   0  0  2  0  0  0  0  0  0  0  0  0
    9.1806  -13.0142   18.5226 N   0  0  0  0  0  0  0  0  0  0  0  0
    8.7889  -15.0824   19.6007 C   0  0  0  0  0  0  0  0  0  0  0  0
    8.1355  -16.0488   20.0863 O   0  0  0  0  0  0  0  0  0  0  0  0
   10.2040  -15.1612   19.7793 N   0  0  0  0  0  0  0  0  0  0  0  0
   10.7979  -16.2686   20.5037 C   0  0  1  0  0  0  0  0  0  0  0  0
   12.1516  -16.6170   19.8492 C   0  0  0  0  0  0  0  0  0  0  0  0
   12.7610  -17.7624   20.6262 C   0  0  0  0  0  0  0  0  0  0  0  0
   14.0452  -18.1686   20.0329 C   0  0  0  0  0  0  0  0  0  0  0  0
   14.9790  -17.3580   19.8348 O   0  0  0  0  0  0  0  0  0  0  0  0
   10.9795  -16.0378   21.9418 C   0  0  0  0  0  0  0  0  0  0  0  0
   11.8825  -15.2124   22.2944 O   0  0  0  0  0  0  0  0  0  0  0  0
   14.2345  -19.4899   19.6793 O   0  0  0  0  0  0  0  0  0  0  0  0
    9.1725  -16.3460   25.1375 C   0  0  0  0  0  0  0  0  0  0  0  0
   10.4829  -16.4337   24.3763 C   0  0  2  0  0  0  0  0  0  0  0  0
   10.2464  -16.6445   22.9598 N   0  0  0  0  0  0  0  0  0  0  0  0
   11.3073  -17.5146   24.9613 C   0  0  0  0  0  0  0  0  0  0  0  0
   11.8700  -17.4341   26.2229 O   0  0  0  0  0  0  0  0  0  0  0  0
   11.5153  -18.5586   24.2961 O   0  0  0  0  0  0  0  0  0  0  0  0
  1  2  1  0
  2  3  2  0
  4  5  1  0
  4  2  1  0
  6  5  1  0
  6  7  1  6
  8  6  1  0
  8 10  1  0
  9  8  2  0
 10 11  1  0
 11 16  1  0
 12 13  1  0
 11 12  1  6
 13 14  1  0
 14 18  1  0
 14 15  2  0
 16 17  2  0
 20 19  1  1
 20 22  1  0
 21 20  1  0
 21 16  1  0
 22 24  2  0
 22 23  1  0
M  END
$$$$
