QEA.pdb
     RDKit          3D

 24 23  0  0  1  0  0  0  0  0999 V2000
    6.6940  -13.2296   16.9354 N   0  0  0  0  0  0  0  0  0  0  0  0
    7.9296  -13.8148   16.5531 C   0  0  0  0  0  0  0  0  0  0  0  0
    8.2158  -13.8759   15.3431 O   0  0  0  0  0  0  0  0  0  0  0  0
    8.8888  -14.3568   17.5796 C   0  0  0  0  0  0  0  0  0  0  0  0
    8.2638  -14.2065   18.9207 C   0  0  0  0  0  0  0  0  0  0  0  0
    9.1942  -14.0980   20.0781 C   0  0  2  0  0  0  0  0  0  0  0  0
   10.3269  -15.0007   19.7451 N   0  0  0  0  0  0  0  0  0  0  0  0
    8.6658  -14.5516   21.3675 C   0  0  0  0  0  0  0  0  0  0  0  0
    7.5442  -14.1565   21.7946 O   0  0  0  0  0  0  0  0  0  0  0  0
    9.3532  -15.4600   22.2294 N   0  0  0  0  0  0  0  0  0  0  0  0
    8.8456  -15.7477   23.5573 C   0  0  1  0  0  0  0  0  0  0  0  0
    9.6881  -16.8858   24.1717 C   0  0  0  0  0  0  0  0  0  0  0  0
    9.3256  -18.1685   23.4574 C   0  0  0  0  0  0  0  0  0  0  0  0
   10.1803  -19.2769   23.9126 C   0  0  0  0  0  0  0  0  0  0  0  0
    9.9211  -19.9463   24.9387 O   0  0  0  0  0  0  0  0  0  0  0  0
    8.8148  -14.5971   24.4681 C   0  0  0  0  0  0  0  0  0  0  0  0
    9.9153  -13.9984   24.6948 O   0  0  0  0  0  0  0  0  0  0  0  0
   11.3108  -19.5960   23.1866 O   0  0  0  0  0  0  0  0  0  0  0  0
    6.3236  -12.3003   26.0589 C   0  0  0  0  0  0  0  0  0  0  0  0
    7.6860  -12.9685   26.0185 C   0  0  2  0  0  0  0  0  0  0  0  0
    7.6818  -14.0995   25.1086 N   0  0  0  0  0  0  0  0  0  0  0  0
    8.0652  -13.3707   27.3913 C   0  0  0  0  0  0  0  0  0  0  0  0
    8.3640  -12.4587   28.3881 O   0  0  0  0  0  0  0  0  0  0  0  0
    8.1232  -14.5907   27.6812 O   0  0  0  0  0  0  0  0  0  0  0  0
  1  2  1  0
  2  3  2  0
  4  5  1  0
  4  2  1  0
  6  5  1  0
  6  7  1  6
  8  6  1  0
  8 10  1  0
  9  8  2  0
 10 11  1  0
 11 16  1  0
 12 13  1  0
 11 12  1  1
 13 14  1  0
 14 18  1  0
 14 15  2  0
 16 17  2  0
 20 19  1  1
 20 22  1  0
 21 20  1  0
 21 16  1  0
 22 24  2  0
 22 23  1  0
M  END
$$$$
