QEA.pdb
     RDKit          3D

 24 23  0  0  1  0  0  0  0  0999 V2000
    6.8407  -15.4458   13.7471 N   0  0  0  0  0  0  0  0  0  0  0  0
    6.7865  -14.0497   13.9983 C   0  0  0  0  0  0  0  0  0  0  0  0
    6.3646  -13.2947   13.1029 O   0  0  0  0  0  0  0  0  0  0  0  0
    7.2274  -13.4752   15.3186 C   0  0  0  0  0  0  0  0  0  0  0  0
    7.8096  -14.5768   16.1305 C   0  0  0  0  0  0  0  0  0  0  0  0
    8.1040  -14.2662   17.5566 C   0  0  2  0  0  0  0  0  0  0  0  0
    8.9136  -13.0204   17.5182 N   0  0  0  0  0  0  0  0  0  0  0  0
    8.9048  -15.2610   18.2753 C   0  0  0  0  0  0  0  0  0  0  0  0
    8.4189  -16.3774   18.6129 O   0  0  0  0  0  0  0  0  0  0  0  0
   10.2707  -15.0619   18.6430 N   0  0  0  0  0  0  0  0  0  0  0  0
   10.9899  -16.0736   19.3934 C   0  0  1  0  0  0  0  0  0  0  0  0
   12.4015  -16.2265   18.7880 C   0  0  0  0  0  0  0  0  0  0  0  0
   12.2554  -16.8734   17.4289 C   0  0  0  0  0  0  0  0  0  0  0  0
   13.5703  -17.0442   16.7900 C   0  0  0  0  0  0  0  0  0  0  0  0
   13.7053  -17.5767   15.6647 O   0  0  0  0  0  0  0  0  0  0  0  0
   11.0865  -15.8188   20.8357 C   0  0  0  0  0  0  0  0  0  0  0  0
   11.8590  -14.8806   21.2156 O   0  0  0  0  0  0  0  0  0  0  0  0
   14.7006  -16.6037   17.4496 O   0  0  0  0  0  0  0  0  0  0  0  0
    9.2221  -16.5040   23.9725 C   0  0  0  0  0  0  0  0  0  0  0  0
   10.5341  -16.2524   23.2516 C   0  0  2  0  0  0  0  0  0  0  0  0
   10.4032  -16.5157   21.8302 N   0  0  0  0  0  0  0  0  0  0  0  0
   11.5894  -17.0863   23.8688 C   0  0  0  0  0  0  0  0  0  0  0  0
   12.0620  -16.8754   25.1521 O   0  0  0  0  0  0  0  0  0  0  0  0
   12.0892  -18.0320   23.2119 O   0  0  0  0  0  0  0  0  0  0  0  0
  1  2  1  0
  2  3  2  0
  4  5  1  0
  4  2  1  0
  6  5  1  0
  6  7  1  6
  8  6  1  0
  8 10  1  0
  9  8  2  0
 10 11  1  0
 11 16  1  0
 12 13  1  0
 11 12  1  6
 13 14  1  0
 14 18  1  0
 14 15  2  0
 16 17  2  0
 20 19  1  1
 20 22  1  0
 21 20  1  0
 21 16  1  0
 22 24  2  0
 22 23  1  0
M  END
$$$$
