QEA.pdb
     RDKit          3D

 24 23  0  0  1  0  0  0  0  0999 V2000
   10.3107  -13.1021   19.8404 N   0  0  0  0  0  0  0  0  0  0  0  0
    9.2012  -12.7899   19.0117 C   0  0  0  0  0  0  0  0  0  0  0  0
    9.4099  -12.2691   17.9004 O   0  0  0  0  0  0  0  0  0  0  0  0
    7.7904  -13.0767   19.4532 C   0  0  0  0  0  0  0  0  0  0  0  0
    7.8453  -13.6866   20.8085 C   0  0  0  0  0  0  0  0  0  0  0  0
    8.4250  -15.0552   20.8974 C   0  0  2  0  0  0  0  0  0  0  0  0
    7.4863  -15.9191   20.1349 N   0  0  0  0  0  0  0  0  0  0  0  0
    8.5142  -15.6251   22.2445 C   0  0  0  0  0  0  0  0  0  0  0  0
    7.4776  -15.9109   22.9081 O   0  0  0  0  0  0  0  0  0  0  0  0
    9.7493  -15.9045   22.9056 N   0  0  0  0  0  0  0  0  0  0  0  0
    9.7654  -16.3496   24.2860 C   0  0  1  0  0  0  0  0  0  0  0  0
   10.7416  -17.5388   24.4096 C   0  0  0  0  0  0  0  0  0  0  0  0
   10.8370  -18.2029   23.0542 C   0  0  0  0  0  0  0  0  0  0  0  0
   11.8410  -19.2790   23.0717 C   0  0  0  0  0  0  0  0  0  0  0  0
   12.1314  -19.9423   22.0500 O   0  0  0  0  0  0  0  0  0  0  0  0
   10.1116  -15.3116   25.2644 C   0  0  0  0  0  0  0  0  0  0  0  0
   11.2450  -14.7446   25.1425 O   0  0  0  0  0  0  0  0  0  0  0  0
   12.4904  -19.5735   24.2542 O   0  0  0  0  0  0  0  0  0  0  0  0
    8.5980  -12.9857   27.6834 C   0  0  0  0  0  0  0  0  0  0  0  0
    9.7213  -13.9482   27.3426 C   0  0  2  0  0  0  0  0  0  0  0  0
    9.3047  -14.8894   26.3191 N   0  0  0  0  0  0  0  0  0  0  0  0
   10.1547  -14.6381   28.5780 C   0  0  0  0  0  0  0  0  0  0  0  0
   10.8372  -13.9989   29.5980 O   0  0  0  0  0  0  0  0  0  0  0  0
    9.8995  -15.8586   28.7232 O   0  0  0  0  0  0  0  0  0  0  0  0
  1  2  1  0
  2  3  2  0
  4  5  1  0
  4  2  1  0
  6  5  1  0
  6  7  1  6
  8  6  1  0
  8 10  1  0
  9  8  2  0
 10 11  1  0
 11 16  1  0
 12 13  1  0
 11 12  1  6
 13 14  1  0
 14 18  1  0
 14 15  2  0
 16 17  2  0
 20 19  1  1
 20 22  1  0
 21 20  1  0
 21 16  1  0
 22 24  2  0
 22 23  1  0
M  END
$$$$
