QEA.pdb
     RDKit          3D

 24 23  0  0  1  0  0  0  0  0999 V2000
   10.2120  -13.1032   19.7279 N   0  0  0  0  0  0  0  0  0  0  0  0
    9.0785  -12.9664   18.8843 C   0  0  0  0  0  0  0  0  0  0  0  0
    9.2497  -12.6221   17.7003 O   0  0  0  0  0  0  0  0  0  0  0  0
    7.6869  -13.2292   19.3959 C   0  0  0  0  0  0  0  0  0  0  0  0
    7.7944  -13.7238   20.7943 C   0  0  0  0  0  0  0  0  0  0  0  0
    7.9030  -15.1983   20.9704 C   0  0  2  0  0  0  0  0  0  0  0  0
    6.5851  -15.7336   20.5397 N   0  0  0  0  0  0  0  0  0  0  0  0
    8.1128  -15.6643   22.3438 C   0  0  0  0  0  0  0  0  0  0  0  0
    7.2139  -15.5444   23.2238 O   0  0  0  0  0  0  0  0  0  0  0  0
    9.3189  -16.2828   22.7944 N   0  0  0  0  0  0  0  0  0  0  0  0
    9.4935  -16.6340   24.1908 C   0  0  1  0  0  0  0  0  0  0  0  0
   10.6003  -17.7048   24.2957 C   0  0  0  0  0  0  0  0  0  0  0  0
   10.7985  -18.0245   25.7604 C   0  0  0  0  0  0  0  0  0  0  0  0
   11.8920  -18.9936   25.9380 C   0  0  0  0  0  0  0  0  0  0  0  0
   11.6872  -20.1818   26.2764 O   0  0  0  0  0  0  0  0  0  0  0  0
    9.8012  -15.5047   25.0766 C   0  0  0  0  0  0  0  0  0  0  0  0
   10.8366  -14.8138   24.8088 O   0  0  0  0  0  0  0  0  0  0  0  0
   13.1938  -18.5848   25.7255 O   0  0  0  0  0  0  0  0  0  0  0  0
    8.2947  -13.0585   27.2646 C   0  0  0  0  0  0  0  0  0  0  0  0
    9.4314  -14.0505   27.0960 C   0  0  2  0  0  0  0  0  0  0  0  0
    9.0558  -15.1198   26.1892 N   0  0  0  0  0  0  0  0  0  0  0  0
    9.8171  -14.5704   28.4268 C   0  0  0  0  0  0  0  0  0  0  0  0
   10.3823  -13.7780   29.4104 O   0  0  0  0  0  0  0  0  0  0  0  0
    9.6300  -15.7830   28.6917 O   0  0  0  0  0  0  0  0  0  0  0  0
  1  2  1  0
  2  3  2  0
  4  5  1  0
  4  2  1  0
  6  5  1  0
  6  7  1  1
  8  6  1  0
  8 10  1  0
  9  8  2  0
 10 11  1  0
 11 16  1  0
 12 13  1  0
 11 12  1  6
 13 14  1  0
 14 18  1  0
 14 15  2  0
 16 17  2  0
 20 19  1  1
 20 22  1  0
 21 20  1  0
 21 16  1  0
 22 24  2  0
 22 23  1  0
M  END
$$$$
