QEA.pdb
     RDKit          3D

 24 23  0  0  1  0  0  0  0  0999 V2000
    8.0387  -12.7075   18.2811 N   0  0  0  0  0  0  0  0  0  0  0  0
    7.8173  -14.0717   18.6053 C   0  0  0  0  0  0  0  0  0  0  0  0
    6.8369  -14.6554   18.1072 O   0  0  0  0  0  0  0  0  0  0  0  0
    8.7416  -14.8148   19.5331 C   0  0  0  0  0  0  0  0  0  0  0  0
    9.7234  -13.8427   20.0835 C   0  0  0  0  0  0  0  0  0  0  0  0
   10.6608  -14.3598   21.1183 C   0  0  2  0  0  0  0  0  0  0  0  0
   11.2548  -15.5838   20.5199 N   0  0  0  0  0  0  0  0  0  0  0  0
   10.0504  -14.7704   22.3857 C   0  0  0  0  0  0  0  0  0  0  0  0
    9.3024  -13.9893   23.0391 O   0  0  0  0  0  0  0  0  0  0  0  0
   10.2394  -16.0578   22.9750 N   0  0  0  0  0  0  0  0  0  0  0  0
    9.5361  -16.4264   24.1888 C   0  0  1  0  0  0  0  0  0  0  0  0
    9.4270  -17.9649   24.2481 C   0  0  0  0  0  0  0  0  0  0  0  0
   10.8297  -18.5270   24.3087 C   0  0  0  0  0  0  0  0  0  0  0  0
   10.7979  -19.9949   24.4109 C   0  0  0  0  0  0  0  0  0  0  0  0
    9.7665  -20.6221   24.7442 O   0  0  0  0  0  0  0  0  0  0  0  0
   10.1362  -15.9170   25.4278 C   0  0  0  0  0  0  0  0  0  0  0  0
   11.4066  -15.9262   25.5117 O   0  0  0  0  0  0  0  0  0  0  0  0
   11.9434  -20.7134   24.1305 O   0  0  0  0  0  0  0  0  0  0  0  0
    9.2736  -13.6236   28.1766 C   0  0  0  0  0  0  0  0  0  0  0  0
   10.0571  -14.8318   27.6963 C   0  0  2  0  0  0  0  0  0  0  0  0
    9.4346  -15.4210   26.5248 N   0  0  0  0  0  0  0  0  0  0  0  0
   10.1684  -15.8048   28.8058 C   0  0  0  0  0  0  0  0  0  0  0  0
   10.8758  -15.5461   29.9666 O   0  0  0  0  0  0  0  0  0  0  0  0
    9.6013  -16.9201   28.7054 O   0  0  0  0  0  0  0  0  0  0  0  0
  1  2  1  0
  2  3  2  0
  4  5  1  0
  4  2  1  0
  6  5  1  0
  6  7  1  6
  8  6  1  0
  8 10  1  0
  9  8  2  0
 10 11  1  0
 11 16  1  0
 12 13  1  0
 11 12  1  1
 13 14  1  0
 14 18  1  0
 14 15  2  0
 16 17  2  0
 20 19  1  1
 20 22  1  0
 21 20  1  0
 21 16  1  0
 22 24  2  0
 22 23  1  0
M  END
$$$$
