QEA.pdb
     RDKit          3D

 24 23  0  0  1  0  0  0  0  0999 V2000
    6.8739  -14.3055   16.9179 N   0  0  0  0  0  0  0  0  0  0  0  0
    7.9471  -13.8792   17.7436 C   0  0  0  0  0  0  0  0  0  0  0  0
    9.0964  -14.2860   17.4916 O   0  0  0  0  0  0  0  0  0  0  0  0
    7.7174  -12.9519   18.9076 C   0  0  0  0  0  0  0  0  0  0  0  0
    7.6201  -13.7754   20.1422 C   0  0  0  0  0  0  0  0  0  0  0  0
    8.8155  -13.7846   21.0299 C   0  0  2  0  0  0  0  0  0  0  0  0
    9.8841  -14.4340   20.2268 N   0  0  0  0  0  0  0  0  0  0  0  0
    8.6894  -14.5652   22.2636 C   0  0  0  0  0  0  0  0  0  0  0  0
    7.7934  -14.3076   23.1165 O   0  0  0  0  0  0  0  0  0  0  0  0
    9.5436  -15.6600   22.5984 N   0  0  0  0  0  0  0  0  0  0  0  0
    9.4882  -16.2661   23.9151 C   0  0  1  0  0  0  0  0  0  0  0  0
   10.2126  -17.6280   23.8623 C   0  0  0  0  0  0  0  0  0  0  0  0
   10.1745  -18.2274   25.2502 C   0  0  0  0  0  0  0  0  0  0  0  0
   10.8507  -19.5345   25.2711 C   0  0  0  0  0  0  0  0  0  0  0  0
   11.3938  -20.0254   24.2551 O   0  0  0  0  0  0  0  0  0  0  0  0
   10.0433  -15.4431   24.9963 C   0  0  0  0  0  0  0  0  0  0  0  0
   11.2693  -15.1107   24.9107 O   0  0  0  0  0  0  0  0  0  0  0  0
   10.8918  -20.2514   26.4506 O   0  0  0  0  0  0  0  0  0  0  0  0
    9.0375  -13.0399   27.5571 C   0  0  0  0  0  0  0  0  0  0  0  0
    9.9303  -14.2103   27.1866 C   0  0  2  0  0  0  0  0  0  0  0  0
    9.3430  -14.9907   26.1128 N   0  0  0  0  0  0  0  0  0  0  0  0
   10.1708  -15.0324   28.3935 C   0  0  0  0  0  0  0  0  0  0  0  0
   10.8550  -14.5628   29.5008 O   0  0  0  0  0  0  0  0  0  0  0  0
    9.7413  -16.2113   28.4307 O   0  0  0  0  0  0  0  0  0  0  0  0
  1  2  1  0
  2  3  2  0
  4  5  1  0
  4  2  1  0
  6  5  1  0
  6  7  1  6
  8  6  1  0
  8 10  1  0
  9  8  2  0
 10 11  1  0
 11 16  1  0
 12 13  1  0
 11 12  1  6
 13 14  1  0
 14 18  1  0
 14 15  2  0
 16 17  2  0
 20 19  1  1
 20 22  1  0
 21 20  1  0
 21 16  1  0
 22 24  2  0
 22 23  1  0
M  END
$$$$
