QEA.pdb
     RDKit          3D

 24 23  0  0  1  0  0  0  0  0999 V2000
    7.7215  -12.4366   19.5458 N   0  0  0  0  0  0  0  0  0  0  0  0
    7.7857  -13.4278   18.5316 C   0  0  0  0  0  0  0  0  0  0  0  0
    7.8495  -13.0660   17.3421 O   0  0  0  0  0  0  0  0  0  0  0  0
    7.7778  -14.8949   18.8706 C   0  0  0  0  0  0  0  0  0  0  0  0
    7.7039  -15.0269   20.3501 C   0  0  0  0  0  0  0  0  0  0  0  0
    8.9999  -15.0178   21.0829 C   0  0  2  0  0  0  0  0  0  0  0  0
    9.8617  -15.9811   20.3493 N   0  0  0  0  0  0  0  0  0  0  0  0
    8.9512  -15.4781   22.4733 C   0  0  0  0  0  0  0  0  0  0  0  0
    7.9790  -15.1912   23.2276 O   0  0  0  0  0  0  0  0  0  0  0  0
    9.9703  -16.2745   23.0797 N   0  0  0  0  0  0  0  0  0  0  0  0
    9.8680  -16.6736   24.4704 C   0  0  1  0  0  0  0  0  0  0  0  0
   10.6736  -17.9748   24.6708 C   0  0  0  0  0  0  0  0  0  0  0  0
    9.9844  -19.0715   23.8904 C   0  0  0  0  0  0  0  0  0  0  0  0
   10.7108  -20.3441   24.0291 C   0  0  0  0  0  0  0  0  0  0  0  0
   10.7646  -20.9714   25.1116 O   0  0  0  0  0  0  0  0  0  0  0  0
   10.3044  -15.6585   25.4367 C   0  0  0  0  0  0  0  0  0  0  0  0
   11.5448  -15.3731   25.4684 O   0  0  0  0  0  0  0  0  0  0  0  0
   11.3588  -20.8717   22.9297 O   0  0  0  0  0  0  0  0  0  0  0  0
    8.9097  -13.0274   27.6923 C   0  0  0  0  0  0  0  0  0  0  0  0
    9.9524  -14.0809   27.3647 C   0  0  2  0  0  0  0  0  0  0  0  0
    9.4765  -14.9758   26.3257 N   0  0  0  0  0  0  0  0  0  0  0  0
   10.3006  -14.8139   28.6024 C   0  0  0  0  0  0  0  0  0  0  0  0
   11.0513  -14.2563   29.6223 O   0  0  0  0  0  0  0  0  0  0  0  0
    9.9048  -15.9960   28.7495 O   0  0  0  0  0  0  0  0  0  0  0  0
  1  2  1  0
  2  3  2  0
  4  5  1  0
  4  2  1  0
  6  5  1  0
  6  7  1  6
  8  6  1  0
  8 10  1  0
  9  8  2  0
 10 11  1  0
 11 16  1  0
 12 13  1  0
 11 12  1  6
 13 14  1  0
 14 18  1  0
 14 15  2  0
 16 17  2  0
 20 19  1  1
 20 22  1  0
 21 20  1  0
 21 16  1  0
 22 24  2  0
 22 23  1  0
M  END
$$$$
