QEA.pdb
     RDKit          3D

 24 23  0  0  1  0  0  0  0  0999 V2000
    9.5217  -12.7620   18.4606 N   0  0  0  0  0  0  0  0  0  0  0  0
    9.4051  -12.7246   19.8749 C   0  0  0  0  0  0  0  0  0  0  0  0
   10.3835  -12.3514   20.5481 O   0  0  0  0  0  0  0  0  0  0  0  0
    8.1282  -13.1258   20.5650 C   0  0  0  0  0  0  0  0  0  0  0  0
    7.6581  -14.4013   19.9619 C   0  0  0  0  0  0  0  0  0  0  0  0
    8.3516  -15.6413   20.4073 C   0  0  2  0  0  0  0  0  0  0  0  0
    7.6774  -16.7426   19.6714 N   0  0  0  0  0  0  0  0  0  0  0  0
    8.2361  -15.9614   21.8326 C   0  0  0  0  0  0  0  0  0  0  0  0
    7.1120  -16.0072   22.4077 O   0  0  0  0  0  0  0  0  0  0  0  0
    9.3554  -16.2468   22.6730 N   0  0  0  0  0  0  0  0  0  0  0  0
    9.1635  -16.5955   24.0678 C   0  0  1  0  0  0  0  0  0  0  0  0
    9.8106  -17.9729   24.3257 C   0  0  0  0  0  0  0  0  0  0  0  0
   11.1747  -17.9736   23.6731 C   0  0  0  0  0  0  0  0  0  0  0  0
   11.8609  -19.2552   23.9031 C   0  0  0  0  0  0  0  0  0  0  0  0
   12.5143  -19.4888   24.9455 O   0  0  0  0  0  0  0  0  0  0  0  0
    9.6795  -15.6105   25.0260 C   0  0  0  0  0  0  0  0  0  0  0  0
   10.8269  -15.1103   24.7931 O   0  0  0  0  0  0  0  0  0  0  0  0
   11.7857  -20.2407   22.9387 O   0  0  0  0  0  0  0  0  0  0  0  0
    8.5199  -13.2310   27.5754 C   0  0  0  0  0  0  0  0  0  0  0  0
    9.5743  -14.2252   27.1236 C   0  0  2  0  0  0  0  0  0  0  0  0
    9.0205  -15.1718   26.1727 N   0  0  0  0  0  0  0  0  0  0  0  0
   10.1339  -14.9061   28.3125 C   0  0  0  0  0  0  0  0  0  0  0  0
   10.8978  -14.2539   29.2642 O   0  0  0  0  0  0  0  0  0  0  0  0
    9.9150  -16.1307   28.4802 O   0  0  0  0  0  0  0  0  0  0  0  0
  1  2  1  0
  2  3  2  0
  4  5  1  0
  4  2  1  0
  6  5  1  0
  6  7  1  6
  8  6  1  0
  8 10  1  0
  9  8  2  0
 10 11  1  0
 11 16  1  0
 12 13  1  0
 11 12  1  1
 13 14  1  0
 14 18  1  0
 14 15  2  0
 16 17  2  0
 20 19  1  1
 20 22  1  0
 21 20  1  0
 21 16  1  0
 22 24  2  0
 22 23  1  0
M  END
$$$$
