QEA.pdb
     RDKit          3D

 24 23  0  0  1  0  0  0  0  0999 V2000
    7.5935  -13.3181   17.4295 N   0  0  0  0  0  0  0  0  0  0  0  0
    8.5014  -13.0833   18.4952 C   0  0  0  0  0  0  0  0  0  0  0  0
    9.7237  -13.1390   18.2655 O   0  0  0  0  0  0  0  0  0  0  0  0
    8.0121  -12.7712   19.8847 C   0  0  0  0  0  0  0  0  0  0  0  0
    7.6090  -14.0488   20.5305 C   0  0  0  0  0  0  0  0  0  0  0  0
    8.6975  -15.0278   20.8016 C   0  0  2  0  0  0  0  0  0  0  0  0
    8.4012  -16.1849   19.9172 N   0  0  0  0  0  0  0  0  0  0  0  0
    8.7587  -15.5534   22.1682 C   0  0  0  0  0  0  0  0  0  0  0  0
    7.7085  -15.8245   22.8164 O   0  0  0  0  0  0  0  0  0  0  0  0
    9.9795  -15.8028   22.8665 N   0  0  0  0  0  0  0  0  0  0  0  0
    9.9668  -16.3933   24.1913 C   0  0  1  0  0  0  0  0  0  0  0  0
   10.9723  -17.5640   24.2194 C   0  0  0  0  0  0  0  0  0  0  0  0
   10.4097  -18.6788   23.3663 C   0  0  0  0  0  0  0  0  0  0  0  0
   11.3570  -19.8025   23.2876 C   0  0  0  0  0  0  0  0  0  0  0  0
   11.5512  -20.4435   22.2295 O   0  0  0  0  0  0  0  0  0  0  0  0
   10.2537  -15.4581   25.2857 C   0  0  0  0  0  0  0  0  0  0  0  0
   11.3913  -14.8865   25.2864 O   0  0  0  0  0  0  0  0  0  0  0  0
   12.0609  -20.1688   24.4177 O   0  0  0  0  0  0  0  0  0  0  0  0
    8.5597  -13.4182   27.8587 C   0  0  0  0  0  0  0  0  0  0  0  0
    9.7348  -14.2890   27.4523 C   0  0  2  0  0  0  0  0  0  0  0  0
    9.3860  -15.1385   26.3282 N   0  0  0  0  0  0  0  0  0  0  0  0
   10.1736  -15.0812   28.6227 C   0  0  0  0  0  0  0  0  0  0  0  0
   10.1784  -16.4649   28.6370 O   0  0  0  0  0  0  0  0  0  0  0  0
   10.5621  -14.4865   29.6577 O   0  0  0  0  0  0  0  0  0  0  0  0
  1  2  1  0
  2  3  2  0
  4  5  1  0
  4  2  1  0
  6  5  1  0
  6  7  1  6
  8  6  1  0
  8 10  1  0
  9  8  2  0
 10 11  1  0
 11 16  1  0
 12 13  1  0
 11 12  1  6
 13 14  1  0
 14 18  1  0
 14 15  2  0
 16 17  2  0
 20 19  1  1
 20 22  1  0
 21 20  1  0
 21 16  1  0
 22 24  2  0
 22 23  1  0
M  END
$$$$
