RPW.pdb
     RDKit          3D

 33 35  0  0  1  0  0  0  0  0999 V2000
    2.4068  -21.3245   21.9346 N   0  0  0  0  0  0  0  0  0  0  0  0
    1.9472  -19.9915   21.8500 C   0  0  0  0  0  0  0  0  0  0  0  0
    1.0273  -19.6449   22.6906 N   0  0  0  0  0  0  0  0  0  0  0  0
    2.4693  -19.0844   20.8936 N   0  0  0  0  0  0  0  0  0  0  0  0
    3.6490  -18.2850   21.3063 C   0  0  0  0  0  0  0  0  0  0  0  0
    4.8449  -18.9467   20.7327 C   0  0  0  0  0  0  0  0  0  0  0  0
    6.1761  -18.3601   20.9743 C   0  0  0  0  0  0  0  0  0  0  0  0
    6.7468  -17.6649   19.7651 C   0  0  2  0  0  0  0  0  0  0  0  0
    7.2090  -18.6974   18.8619 N   0  0  0  0  0  0  0  0  0  0  0  0
    7.8758  -16.7942   20.1860 C   0  0  0  0  0  0  0  0  0  0  0  0
    9.0171  -17.1199   19.6992 O   0  0  0  0  0  0  0  0  0  0  0  0
    0.5409  -18.7347   22.6872 N   0  0  0  0  0  0  0  0  0  0  0  0
    7.7950  -15.6865   21.0395 C   0  0  0  0  0  0  0  0  0  0  0  0
    6.6419  -15.3028   21.7996 C   0  0  0  0  0  0  0  0  0  0  0  0
    6.7694  -13.8018   21.9265 C   0  0  0  0  0  0  0  0  0  0  0  0
    8.0323  -13.4221   21.1849 C   0  0  1  0  0  0  0  0  0  0  0  0
    8.8161  -14.7289   21.3159 C   0  0  0  0  0  0  0  0  0  0  0  0
    9.2867  -14.9422   22.7109 O   0  0  0  0  0  0  0  0  0  0  0  0
   10.0862  -14.1391   23.2602 N   0  0  0  0  0  0  0  0  0  0  0  0
    8.8859  -16.0372   23.5164 C   0  0  1  0  0  0  0  0  0  0  0  0
    9.3559  -16.2317   24.8952 C   0  0  0  0  0  0  0  0  0  0  0  0
    8.2276  -16.4625   25.8177 C   0  0  0  0  0  0  0  0  0  0  0  0
    7.2784  -15.3527   25.8564 C   0  0  0  0  0  0  0  0  0  0  0  0
    5.9570  -15.4222   25.3915 N   0  0  0  0  0  0  0  0  0  0  0  0
    5.3762  -14.2266   25.5289 C   0  0  0  0  0  0  0  0  0  0  0  0
    6.2602  -13.3818   26.0637 C   0  0  0  0  0  0  0  0  0  0  0  0
    6.1716  -12.0655   26.4242 C   0  0  0  0  0  0  0  0  0  0  0  0
    7.2171  -11.3520   27.0025 C   0  0  0  0  0  0  0  0  0  0  0  0
    8.3841  -12.0670   27.1981 C   0  0  0  0  0  0  0  0  0  0  0  0
    8.5047  -13.3875   26.8464 C   0  0  0  0  0  0  0  0  0  0  0  0
    7.4506  -14.0607   26.2762 C   0  0  0  0  0  0  0  0  0  0  0  0
   10.3359  -17.3111   24.8816 O   0  0  0  0  0  0  0  0  0  0  0  0
   10.4677  -18.1536   23.9541 O   0  0  0  0  0  0  0  0  0  0  0  0
  2  1  1  0
  2  4  1  0
  3  2  2  0
  4  5  1  0
  6  5  1  0
  7  6  1  0
  7  8  1  0
  8  9  1  6
 10  8  1  0
 11 10  2  0
 12 16  1  0
 12 10  1  0
 13 12  1  0
 13 14  1  0
 14 15  1  0
 16 15  1  0
 16 17  1  1
 18 17  2  0
 19 17  1  0
 20 21  1  1
 20 19  1  0
 21 22  1  0
 22 30  1  0
 22 23  2  0
 23 24  1  0
 25 26  2  0
 25 24  1  0
 27 26  1  0
 28 27  2  0
 29 28  1  0
 29 30  2  0
 30 25  1  0
 31 20  1  0
 31 33  1  0
 32 31  2  0
M  END
$$$$
