RPW.pdb
     RDKit          3D

 33 35  0  0  1  0  0  0  0  0999 V2000
    9.5918  -21.5946   21.0703 N   0  0  0  0  0  0  0  0  0  0  0  0
    8.4134  -22.3038   20.7480 C   0  0  0  0  0  0  0  0  0  0  0  0
    8.5658  -23.4001   20.0786 N   0  0  0  0  0  0  0  0  0  0  0  0
    7.1336  -21.8362   21.1397 N   0  0  0  0  0  0  0  0  0  0  0  0
    7.0760  -20.4894   21.7593 C   0  0  0  0  0  0  0  0  0  0  0  0
    7.4228  -19.5095   20.7026 C   0  0  0  0  0  0  0  0  0  0  0  0
    6.7942  -18.1756   20.7252 C   0  0  0  0  0  0  0  0  0  0  0  0
    7.2036  -17.3068   19.5638 C   0  0  2  0  0  0  0  0  0  0  0  0
    7.5705  -18.1937   18.4802 N   0  0  0  0  0  0  0  0  0  0  0  0
    8.3607  -16.4639   19.9646 C   0  0  0  0  0  0  0  0  0  0  0  0
    9.4723  -16.7745   19.4047 O   0  0  0  0  0  0  0  0  0  0  0  0
    7.7937  -24.0058   19.7595 N   0  0  0  0  0  0  0  0  0  0  0  0
    8.3341  -15.3961   20.8706 C   0  0  0  0  0  0  0  0  0  0  0  0
    7.2115  -15.0147   21.6761 C   0  0  0  0  0  0  0  0  0  0  0  0
    7.3883  -13.5259   21.8699 C   0  0  0  0  0  0  0  0  0  0  0  0
    8.6448  -13.1493   21.1159 C   0  0  1  0  0  0  0  0  0  0  0  0
    9.3906  -14.4836   21.1662 C   0  0  0  0  0  0  0  0  0  0  0  0
    9.8867  -14.7768   22.5377 O   0  0  0  0  0  0  0  0  0  0  0  0
   10.6699  -13.9891   23.1309 N   0  0  0  0  0  0  0  0  0  0  0  0
    9.5296  -15.9357   23.2712 C   0  0  1  0  0  0  0  0  0  0  0  0
   10.0883  -16.2506   24.5934 C   0  0  0  0  0  0  0  0  0  0  0  0
    9.8091  -15.1739   25.5629 C   0  0  0  0  0  0  0  0  0  0  0  0
    8.3828  -14.9067   25.7325 C   0  0  0  0  0  0  0  0  0  0  0  0
    7.3689  -15.8556   25.5362 N   0  0  0  0  0  0  0  0  0  0  0  0
    6.1793  -15.2778   25.7272 C   0  0  0  0  0  0  0  0  0  0  0  0
    6.3733  -13.9951   26.0402 C   0  0  0  0  0  0  0  0  0  0  0  0
    5.5065  -12.9830   26.3486 C   0  0  0  0  0  0  0  0  0  0  0  0
    5.9124  -11.6936   26.6790 C   0  0  0  0  0  0  0  0  0  0  0  0
    7.2791  -11.4853   26.6782 C   0  0  0  0  0  0  0  0  0  0  0  0
    8.1739  -12.4792   26.3725 C   0  0  0  0  0  0  0  0  0  0  0  0
    7.7367  -13.7417   26.0497 C   0  0  0  0  0  0  0  0  0  0  0  0
    9.5710  -17.5533   24.9947 O   0  0  0  0  0  0  0  0  0  0  0  0
    8.6614  -18.1843   24.3931 O   0  0  0  0  0  0  0  0  0  0  0  0
  2  1  1  0
  2  4  1  0
  3  2  2  0
  4  5  1  0
  6  5  1  0
  7  6  1  0
  7  8  1  0
  8  9  1  6
 10  8  1  0
 11 10  2  0
 12 16  1  0
 12 10  1  0
 13 12  1  0
 13 14  1  0
 14 15  1  0
 16 15  1  0
 16 17  1  1
 18 17  2  0
 19 17  1  0
 20 21  1  1
 20 19  1  0
 21 22  1  0
 22 30  1  0
 22 23  2  0
 23 24  1  0
 25 26  2  0
 25 24  1  0
 27 26  1  0
 28 27  2  0
 29 28  1  0
 29 30  2  0
 30 25  1  0
 31 20  1  0
 31 33  1  0
 32 31  2  0
M  END
$$$$
