RPW.pdb
     RDKit          3D

 33 35  0  0  1  0  0  0  0  0999 V2000
   10.6840  -19.8069   20.8928 N   0  0  0  0  0  0  0  0  0  0  0  0
   10.3211  -20.9395   21.6551 C   0  0  0  0  0  0  0  0  0  0  0  0
   11.0671  -21.9876   21.5204 N   0  0  0  0  0  0  0  0  0  0  0  0
    9.1987  -20.9242   22.5211 N   0  0  0  0  0  0  0  0  0  0  0  0
    8.4183  -19.6639   22.5802 C   0  0  0  0  0  0  0  0  0  0  0  0
    7.5485  -19.6344   21.3803 C   0  0  0  0  0  0  0  0  0  0  0  0
    6.6520  -18.4825   21.1707 C   0  0  0  0  0  0  0  0  0  0  0  0
    6.9340  -17.7357   19.8924 C   0  0  2  0  0  0  0  0  0  0  0  0
    7.2994  -18.7218   18.8978 N   0  0  0  0  0  0  0  0  0  0  0  0
    8.0509  -16.7808   20.1174 C   0  0  0  0  0  0  0  0  0  0  0  0
    9.1422  -17.0766   19.5114 O   0  0  0  0  0  0  0  0  0  0  0  0
   10.9074  -22.8878   21.9989 N   0  0  0  0  0  0  0  0  0  0  0  0
    8.0075  -15.6256   20.9083 C   0  0  0  0  0  0  0  0  0  0  0  0
    6.9095  -15.2248   21.7378 C   0  0  0  0  0  0  0  0  0  0  0  0
    7.0027  -13.7162   21.7657 C   0  0  0  0  0  0  0  0  0  0  0  0
    8.1893  -13.3515   20.9008 C   0  0  1  0  0  0  0  0  0  0  0  0
    9.0192  -14.6283   21.0424 C   0  0  0  0  0  0  0  0  0  0  0  0
    9.6080  -14.7450   22.4035 O   0  0  0  0  0  0  0  0  0  0  0  0
   10.4358  -13.8980   22.8315 N   0  0  0  0  0  0  0  0  0  0  0  0
    9.2954  -15.7905   23.3077 C   0  0  1  0  0  0  0  0  0  0  0  0
    9.8951  -15.8992   24.6450 C   0  0  0  0  0  0  0  0  0  0  0  0
    8.8881  -16.2802   25.6540 C   0  0  0  0  0  0  0  0  0  0  0  0
    7.7443  -15.3723   25.6982 C   0  0  0  0  0  0  0  0  0  0  0  0
    6.4443  -15.7138   25.2978 N   0  0  0  0  0  0  0  0  0  0  0  0
    5.6491  -14.6469   25.4206 C   0  0  0  0  0  0  0  0  0  0  0  0
    6.3730  -13.6262   25.8842 C   0  0  0  0  0  0  0  0  0  0  0  0
    6.0456  -12.3370   26.2026 C   0  0  0  0  0  0  0  0  0  0  0  0
    6.9551  -11.4121   26.7067 C   0  0  0  0  0  0  0  0  0  0  0  0
    8.2450  -11.8811   26.8725 C   0  0  0  0  0  0  0  0  0  0  0  0
    8.6050  -13.1679   26.5616 C   0  0  0  0  0  0  0  0  0  0  0  0
    7.6797  -14.0545   26.0646 C   0  0  0  0  0  0  0  0  0  0  0  0
   11.0173  -16.8255   24.5539 O   0  0  0  0  0  0  0  0  0  0  0  0
   11.8026  -17.1018   25.4997 O   0  0  0  0  0  0  0  0  0  0  0  0
  2  1  1  0
  2  4  1  0
  3  2  2  0
  4  5  1  0
  6  5  1  0
  7  6  1  0
  7  8  1  0
  8  9  1  6
 10  8  1  0
 11 10  2  0
 12 16  1  0
 12 10  1  0
 13 12  1  0
 13 14  1  0
 14 15  1  0
 16 15  1  0
 16 17  1  1
 18 17  2  0
 19 17  1  0
 20 21  1  1
 20 19  1  0
 21 22  1  0
 22 30  1  0
 22 23  2  0
 23 24  1  0
 25 26  2  0
 25 24  1  0
 27 26  1  0
 28 27  2  0
 29 28  1  0
 29 30  2  0
 30 25  1  0
 31 20  1  0
 31 33  1  0
 32 31  2  0
M  END
$$$$
