RPW.pdb
     RDKit          3D

 33 35  0  0  1  0  0  0  0  0999 V2000
    8.8617  -12.9190   20.7486 N   0  0  0  0  0  0  0  0  0  0  0  0
    8.9433  -13.1309   19.3544 C   0  0  0  0  0  0  0  0  0  0  0  0
    8.3531  -12.2585   18.6036 N   0  0  0  0  0  0  0  0  0  0  0  0
    9.6368  -14.2415   18.8106 N   0  0  0  0  0  0  0  0  0  0  0  0
    9.0777  -14.8360   17.5717 C   0  0  0  0  0  0  0  0  0  0  0  0
    8.2713  -16.0112   17.9789 C   0  0  0  0  0  0  0  0  0  0  0  0
    8.8549  -17.3601   17.8578 C   0  0  0  0  0  0  0  0  0  0  0  0
    7.9522  -18.4467   18.3828 C   0  0  2  0  0  0  0  0  0  0  0  0
    6.6672  -18.2780   17.7379 N   0  0  0  0  0  0  0  0  0  0  0  0
    7.8203  -18.3064   19.8569 C   0  0  0  0  0  0  0  0  0  0  0  0
    6.7625  -17.6943   20.2467 O   0  0  0  0  0  0  0  0  0  0  0  0
    8.2578  -12.3338   17.5789 N   0  0  0  0  0  0  0  0  0  0  0  0
    8.7252  -18.7736   20.8184 C   0  0  0  0  0  0  0  0  0  0  0  0
   10.0121  -19.3423   20.5444 C   0  0  0  0  0  0  0  0  0  0  0  0
   10.2436  -20.2961   21.6942 C   0  0  0  0  0  0  0  0  0  0  0  0
    9.0123  -20.2082   22.5689 C   0  0  1  0  0  0  0  0  0  0  0  0
    8.5545  -18.7876   22.2350 C   0  0  0  0  0  0  0  0  0  0  0  0
    9.4677  -17.7707   22.8224 O   0  0  0  0  0  0  0  0  0  0  0  0
   10.6199  -17.5786   22.3520 N   0  0  0  0  0  0  0  0  0  0  0  0
    9.1269  -16.9556   23.9305 C   0  0  1  0  0  0  0  0  0  0  0  0
   10.0857  -16.0578   24.5895 C   0  0  0  0  0  0  0  0  0  0  0  0
    9.6075  -14.6619   24.5775 C   0  0  0  0  0  0  0  0  0  0  0  0
    8.2213  -14.5237   25.0177 C   0  0  0  0  0  0  0  0  0  0  0  0
    7.3407  -15.5972   25.2150 N   0  0  0  0  0  0  0  0  0  0  0  0
    6.1419  -15.1263   25.5710 C   0  0  0  0  0  0  0  0  0  0  0  0
    6.2029  -13.7939   25.6154 C   0  0  0  0  0  0  0  0  0  0  0  0
    5.2761  -12.8417   25.9395 C   0  0  0  0  0  0  0  0  0  0  0  0
    5.5447  -11.4764   25.9517 C   0  0  0  0  0  0  0  0  0  0  0  0
    6.8369  -11.1247   25.6082 C   0  0  0  0  0  0  0  0  0  0  0  0
    7.7887  -12.0557   25.2774 C   0  0  0  0  0  0  0  0  0  0  0  0
    7.4873  -13.3967   25.2751 C   0  0  0  0  0  0  0  0  0  0  0  0
   10.3380  -16.5824   25.9263 O   0  0  0  0  0  0  0  0  0  0  0  0
   11.2018  -16.1331   26.7259 O   0  0  0  0  0  0  0  0  0  0  0  0
  2  1  1  0
  2  4  1  0
  3  2  2  0
  4  5  1  0
  6  5  1  0
  7  6  1  0
  7  8  1  0
  8  9  1  6
 10  8  1  0
 11 10  2  0
 12 16  1  0
 12 10  1  0
 13 12  1  0
 13 14  1  0
 14 15  1  0
 16 15  1  0
 16 17  1  1
 18 17  2  0
 19 17  1  0
 20 21  1  1
 20 19  1  0
 21 22  1  0
 22 30  1  0
 22 23  2  0
 23 24  1  0
 25 26  2  0
 25 24  1  0
 27 26  1  0
 28 27  2  0
 29 28  1  0
 29 30  2  0
 30 25  1  0
 31 20  1  0
 31 33  1  0
 32 31  2  0
M  END
$$$$
