RPW.pdb
     RDKit          3D

 33 35  0  0  1  0  0  0  0  0999 V2000
    9.6287  -22.9287   22.0491 N   0  0  0  0  0  0  0  0  0  0  0  0
    8.6369  -22.1162   21.4562 C   0  0  0  0  0  0  0  0  0  0  0  0
    8.0287  -22.6087   20.4263 N   0  0  0  0  0  0  0  0  0  0  0  0
    8.3269  -20.8301   21.9660 N   0  0  0  0  0  0  0  0  0  0  0  0
    7.2523  -20.0784   21.2724 C   0  0  0  0  0  0  0  0  0  0  0  0
    7.9141  -19.0809   20.3982 C   0  0  0  0  0  0  0  0  0  0  0  0
    7.0830  -18.1835   19.5745 C   0  0  0  0  0  0  0  0  0  0  0  0
    7.8907  -17.1918   18.7773 C   0  0  2  0  0  0  0  0  0  0  0  0
    8.7394  -17.9553   17.8872 N   0  0  0  0  0  0  0  0  0  0  0  0
    8.7111  -16.3683   19.7040 C   0  0  0  0  0  0  0  0  0  0  0  0
    9.9623  -16.6515   19.7113 O   0  0  0  0  0  0  0  0  0  0  0  0
    7.3847  -22.0812   19.8165 N   0  0  0  0  0  0  0  0  0  0  0  0
    8.2438  -15.3446   20.5380 C   0  0  0  0  0  0  0  0  0  0  0  0
    6.8706  -14.9715   20.7096 C   0  0  0  0  0  0  0  0  0  0  0  0
    6.9302  -13.4990   21.0468 C   0  0  0  0  0  0  0  0  0  0  0  0
    8.3951  -13.1214   21.0273 C   0  0  1  0  0  0  0  0  0  0  0  0
    9.0196  -14.4766   21.3630 C   0  0  0  0  0  0  0  0  0  0  0  0
    8.7787  -14.8485   22.7831 O   0  0  0  0  0  0  0  0  0  0  0  0
    7.8355  -14.3356   23.4413 N   0  0  0  0  0  0  0  0  0  0  0  0
    9.5689  -15.7852   23.4948 C   0  0  1  0  0  0  0  0  0  0  0  0
    9.8862  -15.6446   24.9228 C   0  0  0  0  0  0  0  0  0  0  0  0
    8.7604  -16.0878   25.7675 C   0  0  0  0  0  0  0  0  0  0  0  0
    7.6221  -15.1725   25.7375 C   0  0  0  0  0  0  0  0  0  0  0  0
    6.3699  -15.4814   25.1865 N   0  0  0  0  0  0  0  0  0  0  0  0
    5.5706  -14.4145   25.2790 C   0  0  0  0  0  0  0  0  0  0  0  0
    6.2461  -13.4249   25.8667 C   0  0  0  0  0  0  0  0  0  0  0  0
    5.8925  -12.1501   26.2137 C   0  0  0  0  0  0  0  0  0  0  0  0
    6.7478  -11.2600   26.8561 C   0  0  0  0  0  0  0  0  0  0  0  0
    8.0112  -11.7488   27.1322 C   0  0  0  0  0  0  0  0  0  0  0  0
    8.3965  -13.0218   26.7962 C   0  0  0  0  0  0  0  0  0  0  0  0
    7.5248  -13.8739   26.1611 C   0  0  0  0  0  0  0  0  0  0  0  0
   11.1295  -16.3635   25.1738 O   0  0  0  0  0  0  0  0  0  0  0  0
   11.7632  -17.0303   24.3128 O   0  0  0  0  0  0  0  0  0  0  0  0
  2  1  1  0
  2  4  1  0
  3  2  2  0
  4  5  1  0
  6  5  1  0
  7  6  1  0
  7  8  1  0
  8  9  1  6
 10  8  1  0
 11 10  2  0
 12 16  1  0
 12 10  1  0
 13 12  1  0
 13 14  1  0
 14 15  1  0
 16 15  1  0
 16 17  1  1
 18 17  2  0
 19 17  1  0
 20 21  1  6
 20 19  1  0
 21 22  1  0
 22 30  1  0
 22 23  2  0
 23 24  1  0
 25 26  2  0
 25 24  1  0
 27 26  1  0
 28 27  2  0
 29 28  1  0
 29 30  2  0
 30 25  1  0
 31 20  1  0
 31 33  1  0
 32 31  2  0
M  END
$$$$
