RPW.pdb
     RDKit          3D

 33 35  0  0  1  0  0  0  0  0999 V2000
   13.5853  -16.0383   17.5783 N   0  0  0  0  0  0  0  0  0  0  0  0
   14.1976  -14.7749   17.7340 C   0  0  0  0  0  0  0  0  0  0  0  0
   15.1103  -14.4668   16.8707 N   0  0  0  0  0  0  0  0  0  0  0  0
   13.8282  -13.8938   18.7815 N   0  0  0  0  0  0  0  0  0  0  0  0
   12.9828  -14.4586   19.8619 C   0  0  0  0  0  0  0  0  0  0  0  0
   11.5845  -14.0604   19.5728 C   0  0  0  0  0  0  0  0  0  0  0  0
   10.8493  -14.7490   18.4958 C   0  0  0  0  0  0  0  0  0  0  0  0
    9.3958  -14.3570   18.4247 C   0  0  2  0  0  0  0  0  0  0  0  0
    9.3530  -12.9450   18.1087 N   0  0  0  0  0  0  0  0  0  0  0  0
    8.7515  -14.6188   19.7386 C   0  0  0  0  0  0  0  0  0  0  0  0
    8.4419  -13.5674   20.4052 O   0  0  0  0  0  0  0  0  0  0  0  0
   15.6341  -13.5778   16.8615 N   0  0  0  0  0  0  0  0  0  0  0  0
    8.4649  -15.8760   20.2856 C   0  0  0  0  0  0  0  0  0  0  0  0
    8.9303  -17.1321   19.7756 C   0  0  0  0  0  0  0  0  0  0  0  0
    7.8514  -18.1126   20.1758 C   0  0  0  0  0  0  0  0  0  0  0  0
    6.7980  -17.3060   20.9031 C   0  0  1  0  0  0  0  0  0  0  0  0
    7.6631  -16.1606   21.4311 C   0  0  0  0  0  0  0  0  0  0  0  0
    8.5620  -16.6186   22.5244 O   0  0  0  0  0  0  0  0  0  0  0  0
    9.5408  -17.3756   22.2909 N   0  0  0  0  0  0  0  0  0  0  0  0
    8.3964  -16.2515   23.8832 C   0  0  1  0  0  0  0  0  0  0  0  0
    9.5134  -16.1797   24.8354 C   0  0  0  0  0  0  0  0  0  0  0  0
    9.4209  -14.9727   25.6791 C   0  0  0  0  0  0  0  0  0  0  0  0
    8.0451  -14.5787   25.9728 C   0  0  0  0  0  0  0  0  0  0  0  0
    6.9481  -15.4523   25.9525 N   0  0  0  0  0  0  0  0  0  0  0  0
    5.8323  -14.7675   26.2200 C   0  0  0  0  0  0  0  0  0  0  0  0
    6.1539  -13.4870   26.4147 C   0  0  0  0  0  0  0  0  0  0  0  0
    5.4032  -12.3891   26.7335 C   0  0  0  0  0  0  0  0  0  0  0  0
    5.9372  -11.1181   26.9234 C   0  0  0  0  0  0  0  0  0  0  0  0
    7.3076  -11.0231   26.7677 C   0  0  0  0  0  0  0  0  0  0  0  0
    8.0877  -12.1052   26.4474 C   0  0  0  0  0  0  0  0  0  0  0  0
    7.5255  -13.3462   26.2663 C   0  0  0  0  0  0  0  0  0  0  0  0
    9.5328  -17.4265   25.5911 O   0  0  0  0  0  0  0  0  0  0  0  0
   10.4406  -17.7678   26.3955 O   0  0  0  0  0  0  0  0  0  0  0  0
  2  1  1  0
  2  4  1  0
  3  2  2  0
  4  5  1  0
  6  5  1  0
  7  6  1  0
  7  8  1  0
  8  9  1  1
 10  8  1  0
 11 10  2  0
 12 16  1  0
 12 10  1  0
 13 12  1  0
 13 14  1  0
 14 15  1  0
 16 15  1  0
 16 17  1  1
 18 17  2  0
 19 17  1  0
 20 21  1  1
 20 19  1  0
 21 22  1  0
 22 30  1  0
 22 23  2  0
 23 24  1  0
 25 26  2  0
 25 24  1  0
 27 26  1  0
 28 27  2  0
 29 28  1  0
 29 30  2  0
 30 25  1  0
 31 20  1  0
 31 33  1  0
 32 31  2  0
M  END
$$$$
