RPW.pdb
     RDKit          3D

 33 35  0  0  1  0  0  0  0  0999 V2000
    9.5014  -14.1251   16.4966 N   0  0  0  0  0  0  0  0  0  0  0  0
    8.7801  -13.0809   17.1169 C   0  0  0  0  0  0  0  0  0  0  0  0
    8.1603  -12.2624   16.3301 N   0  0  0  0  0  0  0  0  0  0  0  0
    8.7394  -12.9410   18.5272 N   0  0  0  0  0  0  0  0  0  0  0  0
    7.7803  -13.8066   19.2564 C   0  0  0  0  0  0  0  0  0  0  0  0
    7.8415  -15.1482   18.6289 C   0  0  0  0  0  0  0  0  0  0  0  0
    8.3683  -16.2831   19.4093 C   0  0  0  0  0  0  0  0  0  0  0  0
    7.3065  -17.2791   19.7991 C   0  0  2  0  0  0  0  0  0  0  0  0
    6.0296  -16.6981   19.4424 N   0  0  0  0  0  0  0  0  0  0  0  0
    7.3783  -17.5261   21.2632 C   0  0  0  0  0  0  0  0  0  0  0  0
    6.3453  -17.1491   21.9239 O   0  0  0  0  0  0  0  0  0  0  0  0
    7.5878  -11.4640   16.6457 N   0  0  0  0  0  0  0  0  0  0  0  0
    8.4444  -18.1173   21.9530 C   0  0  0  0  0  0  0  0  0  0  0  0
    9.6945  -18.5125   21.3738 C   0  0  0  0  0  0  0  0  0  0  0  0
   10.1475  -19.6701   22.2342 C   0  0  0  0  0  0  0  0  0  0  0  0
    9.0687  -19.8675   23.2765 C   0  0  1  0  0  0  0  0  0  0  0  0
    8.5025  -18.4482   23.3398 C   0  0  0  0  0  0  0  0  0  0  0  0
    9.4528  -17.5135   24.0004 O   0  0  0  0  0  0  0  0  0  0  0  0
   10.2456  -16.8041   23.3265 N   0  0  0  0  0  0  0  0  0  0  0  0
    9.5432  -17.3479   25.4050 C   0  0  1  0  0  0  0  0  0  0  0  0
   10.4578  -16.3897   26.0413 C   0  0  0  0  0  0  0  0  0  0  0  0
   10.0365  -14.9984   25.7883 C   0  0  0  0  0  0  0  0  0  0  0  0
    8.5964  -14.7974   25.9302 C   0  0  0  0  0  0  0  0  0  0  0  0
    7.6843  -15.8065   26.2719 N   0  0  0  0  0  0  0  0  0  0  0  0
    6.4466  -15.3027   26.2717 C   0  0  0  0  0  0  0  0  0  0  0  0
    6.5122  -14.0102   25.9462 C   0  0  0  0  0  0  0  0  0  0  0  0
    5.5527  -13.0430   25.8254 C   0  0  0  0  0  0  0  0  0  0  0  0
    5.8286  -11.7196   25.4953 C   0  0  0  0  0  0  0  0  0  0  0  0
    7.1642  -11.4274   25.2899 C   0  0  0  0  0  0  0  0  0  0  0  0
    8.1497  -12.3751   25.4025 C   0  0  0  0  0  0  0  0  0  0  0  0
    7.8400  -13.6737   25.7296 C   0  0  0  0  0  0  0  0  0  0  0  0
   10.5437  -16.7310   27.4562 O   0  0  0  0  0  0  0  0  0  0  0  0
    9.8193  -17.5823   28.0377 O   0  0  0  0  0  0  0  0  0  0  0  0
  2  1  1  0
  2  4  1  0
  3  2  2  0
  4  5  1  0
  6  5  1  0
  7  6  1  0
  7  8  1  0
  8  9  1  1
 10  8  1  0
 11 10  2  0
 12 16  1  0
 12 10  1  0
 13 12  1  0
 13 14  1  0
 14 15  1  0
 16 15  1  0
 16 17  1  1
 18 17  2  0
 19 17  1  0
 20 21  1  1
 20 19  1  0
 21 22  1  0
 22 30  1  0
 22 23  2  0
 23 24  1  0
 25 26  2  0
 25 24  1  0
 27 26  1  0
 28 27  2  0
 29 28  1  0
 29 30  2  0
 30 25  1  0
 31 20  1  0
 31 33  1  0
 32 31  2  0
M  END
$$$$
