RPW.pdb
     RDKit          3D

 33 35  0  0  1  0  0  0  0  0999 V2000
   15.1265  -12.9423   19.7244 N   0  0  0  0  0  0  0  0  0  0  0  0
   14.3593  -13.9324   19.0712 C   0  0  0  0  0  0  0  0  0  0  0  0
   14.6781  -14.1922   17.8449 N   0  0  0  0  0  0  0  0  0  0  0  0
   13.2975  -14.6039   19.7284 N   0  0  0  0  0  0  0  0  0  0  0  0
   12.0384  -13.8413   19.9131 C   0  0  0  0  0  0  0  0  0  0  0  0
   11.2699  -13.9588   18.6510 C   0  0  0  0  0  0  0  0  0  0  0  0
   10.3130  -15.0697   18.4931 C   0  0  0  0  0  0  0  0  0  0  0  0
    8.8748  -14.6192   18.4971 C   0  0  2  0  0  0  0  0  0  0  0  0
    8.8696  -13.2158   18.1423 N   0  0  0  0  0  0  0  0  0  0  0  0
    8.3014  -14.8179   19.8542 C   0  0  0  0  0  0  0  0  0  0  0  0
    7.9452  -13.7397   20.4511 O   0  0  0  0  0  0  0  0  0  0  0  0
   14.2288  -14.9152   17.2615 N   0  0  0  0  0  0  0  0  0  0  0  0
    8.1247  -16.0438   20.5083 C   0  0  0  0  0  0  0  0  0  0  0  0
    8.6034  -17.3125   20.0437 C   0  0  0  0  0  0  0  0  0  0  0  0
    7.6121  -18.3063   20.6052 C   0  0  0  0  0  0  0  0  0  0  0  0
    6.5889  -17.4948   21.3691 C   0  0  1  0  0  0  0  0  0  0  0  0
    7.4409  -16.2794   21.7383 C   0  0  0  0  0  0  0  0  0  0  0  0
    8.4530  -16.6203   22.7738 O   0  0  0  0  0  0  0  0  0  0  0  0
    9.4955  -17.2632   22.4812 N   0  0  0  0  0  0  0  0  0  0  0  0
    8.3319  -16.2601   24.1392 C   0  0  1  0  0  0  0  0  0  0  0  0
    9.4028  -16.4751   25.1224 C   0  0  0  0  0  0  0  0  0  0  0  0
    9.0501  -15.8967   26.4332 C   0  0  0  0  0  0  0  0  0  0  0  0
    7.8989  -14.9990   26.3762 C   0  0  0  0  0  0  0  0  0  0  0  0
    6.5633  -15.4237   26.3252 N   0  0  0  0  0  0  0  0  0  0  0  0
    5.7632  -14.3573   26.2336 C   0  0  0  0  0  0  0  0  0  0  0  0
    6.5182  -13.2570   26.2238 C   0  0  0  0  0  0  0  0  0  0  0  0
    6.2039  -11.9271   26.1672 C   0  0  0  0  0  0  0  0  0  0  0  0
    7.1517  -10.9085   26.1948 C   0  0  0  0  0  0  0  0  0  0  0  0
    8.4665  -11.3264   26.2850 C   0  0  0  0  0  0  0  0  0  0  0  0
    8.8140  -12.6523   26.3425 C   0  0  0  0  0  0  0  0  0  0  0  0
    7.8505  -13.6320   26.3119 C   0  0  0  0  0  0  0  0  0  0  0  0
    9.6844  -17.9050   25.1660 O   0  0  0  0  0  0  0  0  0  0  0  0
    8.9387  -18.8015   24.6888 O   0  0  0  0  0  0  0  0  0  0  0  0
  2  1  1  0
  2  4  1  0
  3  2  2  0
  4  5  1  0
  6  5  1  0
  7  6  1  0
  7  8  1  0
  8  9  1  1
 10  8  1  0
 11 10  2  0
 12 16  1  0
 12 10  1  0
 13 12  1  0
 13 14  1  0
 14 15  1  0
 16 15  1  0
 16 17  1  1
 18 17  2  0
 19 17  1  0
 20 21  1  1
 20 19  1  0
 21 22  1  0
 22 30  1  0
 22 23  2  0
 23 24  1  0
 25 26  2  0
 25 24  1  0
 27 26  1  0
 28 27  2  0
 29 28  1  0
 29 30  2  0
 30 25  1  0
 31 20  1  0
 31 33  1  0
 32 31  2  0
M  END
$$$$
