RPW.pdb
     RDKit          3D

 33 35  0  0  1  0  0  0  0  0999 V2000
    5.7820  -22.3209   16.2205 N   0  0  0  0  0  0  0  0  0  0  0  0
    6.9540  -21.8084   15.6213 C   0  0  0  0  0  0  0  0  0  0  0  0
    7.1989  -22.1950   14.4115 N   0  0  0  0  0  0  0  0  0  0  0  0
    7.8135  -20.9172   16.3121 N   0  0  0  0  0  0  0  0  0  0  0  0
    7.4634  -20.6094   17.7205 C   0  0  0  0  0  0  0  0  0  0  0  0
    7.1872  -19.1548   17.7919 C   0  0  0  0  0  0  0  0  0  0  0  0
    7.7398  -18.3726   18.9132 C   0  0  0  0  0  0  0  0  0  0  0  0
    8.5668  -17.1951   18.4648 C   0  0  2  0  0  0  0  0  0  0  0  0
    9.6283  -17.7166   17.6301 N   0  0  0  0  0  0  0  0  0  0  0  0
    9.1286  -16.5069   19.6567 C   0  0  0  0  0  0  0  0  0  0  0  0
   10.3822  -16.6998   19.8483 O   0  0  0  0  0  0  0  0  0  0  0  0
    7.9914  -21.8658   13.8385 N   0  0  0  0  0  0  0  0  0  0  0  0
    8.4240  -15.6934   20.5531 C   0  0  0  0  0  0  0  0  0  0  0  0
    7.0089  -15.4659   20.5360 C   0  0  0  0  0  0  0  0  0  0  0  0
    6.8532  -14.0805   21.1206 C   0  0  0  0  0  0  0  0  0  0  0  0
    8.2523  -13.5932   21.4274 C   0  0  1  0  0  0  0  0  0  0  0  0
    8.9568  -14.9344   21.6375 C   0  0  0  0  0  0  0  0  0  0  0  0
    8.5299  -15.5786   22.9086 O   0  0  0  0  0  0  0  0  0  0  0  0
    7.3574  -15.4429   23.3477 N   0  0  0  0  0  0  0  0  0  0  0  0
    9.3836  -16.3769   23.7101 C   0  0  2  0  0  0  0  0  0  0  0  0
    9.9247  -15.9256   24.9998 C   0  0  0  0  0  0  0  0  0  0  0  0
    9.6031  -14.5071   25.2483 C   0  0  0  0  0  0  0  0  0  0  0  0
    8.2681  -14.3082   25.8074 C   0  0  0  0  0  0  0  0  0  0  0  0
    7.2570  -15.2801   25.8121 N   0  0  0  0  0  0  0  0  0  0  0  0
    6.1497  -14.7638   26.3534 C   0  0  0  0  0  0  0  0  0  0  0  0
    6.3950  -13.4994   26.7025 C   0  0  0  0  0  0  0  0  0  0  0  0
    5.6218  -12.5459   27.3055 C   0  0  0  0  0  0  0  0  0  0  0  0
    6.0758  -11.2676   27.6162 C   0  0  0  0  0  0  0  0  0  0  0  0
    7.3891  -11.0065   27.2719 C   0  0  0  0  0  0  0  0  0  0  0  0
    8.1897  -11.9411   26.6655 C   0  0  0  0  0  0  0  0  0  0  0  0
    7.7070  -13.1942   26.3726 C   0  0  0  0  0  0  0  0  0  0  0  0
    9.4297  -16.8310   26.0298 O   0  0  0  0  0  0  0  0  0  0  0  0
    8.6261  -17.7805   25.8294 O   0  0  0  0  0  0  0  0  0  0  0  0
  2  1  1  0
  2  4  1  0
  3  2  2  0
  4  5  1  0
  6  5  1  0
  7  6  1  0
  7  8  1  0
  8  9  1  6
 10  8  1  0
 11 10  2  0
 12 16  1  0
 12 10  1  0
 13 12  1  0
 13 14  1  0
 14 15  1  0
 16 15  1  0
 16 17  1  1
 18 17  2  0
 19 17  1  0
 20 21  1  6
 20 19  1  0
 21 22  1  0
 22 30  1  0
 22 23  2  0
 23 24  1  0
 25 26  2  0
 25 24  1  0
 27 26  1  0
 28 27  2  0
 29 28  1  0
 29 30  2  0
 30 25  1  0
 31 20  1  0
 31 33  1  0
 32 31  2  0
M  END
$$$$
