RPW.pdb
     RDKit          3D

 33 35  0  0  1  0  0  0  0  0999 V2000
    8.6450  -14.0812   18.4133 N   0  0  0  0  0  0  0  0  0  0  0  0
    7.9765  -12.8606   18.6557 C   0  0  0  0  0  0  0  0  0  0  0  0
    8.0214  -11.9812   17.7081 N   0  0  0  0  0  0  0  0  0  0  0  0
    7.2932  -12.6163   19.8736 N   0  0  0  0  0  0  0  0  0  0  0  0
    6.4000  -13.6938   20.3656 C   0  0  0  0  0  0  0  0  0  0  0  0
    7.2610  -14.7070   21.0208 C   0  0  0  0  0  0  0  0  0  0  0  0
    7.7984  -15.8210   20.2177 C   0  0  0  0  0  0  0  0  0  0  0  0
    7.2127  -17.1584   20.5911 C   0  0  2  0  0  0  0  0  0  0  0  0
    5.7728  -17.0116   20.5675 N   0  0  0  0  0  0  0  0  0  0  0  0
    7.6779  -17.5361   21.9516 C   0  0  0  0  0  0  0  0  0  0  0  0
    6.7415  -17.7172   22.8095 O   0  0  0  0  0  0  0  0  0  0  0  0
    7.5781  -11.0503   17.7491 N   0  0  0  0  0  0  0  0  0  0  0  0
    9.0082  -17.7048   22.3558 C   0  0  0  0  0  0  0  0  0  0  0  0
   10.1637  -17.3190   21.6005 C   0  0  0  0  0  0  0  0  0  0  0  0
   11.2304  -18.2972   22.0369 C   0  0  0  0  0  0  0  0  0  0  0  0
   10.5723  -19.2177   23.0412 C   0  0  1  0  0  0  0  0  0  0  0  0
    9.4779  -18.2893   23.5698 C   0  0  0  0  0  0  0  0  0  0  0  0
   10.0468  -17.2064   24.4164 O   0  0  0  0  0  0  0  0  0  0  0  0
   10.7929  -16.3182   23.9261 N   0  0  0  0  0  0  0  0  0  0  0  0
    9.8036  -17.0869   25.8074 C   0  0  1  0  0  0  0  0  0  0  0  0
   10.5384  -16.1527   26.6718 C   0  0  0  0  0  0  0  0  0  0  0  0
    9.6155  -15.3258   27.4728 C   0  0  0  0  0  0  0  0  0  0  0  0
    8.4057  -14.9449   26.7475 C   0  0  0  0  0  0  0  0  0  0  0  0
    7.4532  -15.8523   26.2615 N   0  0  0  0  0  0  0  0  0  0  0  0
    6.4983  -15.1837   25.6083 C   0  0  0  0  0  0  0  0  0  0  0  0
    6.7859  -13.8812   25.6483 C   0  0  0  0  0  0  0  0  0  0  0  0
    6.1356  -12.7810   25.1610 C   0  0  0  0  0  0  0  0  0  0  0  0
    6.5914  -11.4772   25.3311 C   0  0  0  0  0  0  0  0  0  0  0  0
    7.7718  -11.3511   26.0399 C   0  0  0  0  0  0  0  0  0  0  0  0
    8.4479  -12.4347   26.5404 C   0  0  0  0  0  0  0  0  0  0  0  0
    7.9682  -13.7090   26.3523 C   0  0  0  0  0  0  0  0  0  0  0  0
   11.4758  -16.9322   27.4715 O   0  0  0  0  0  0  0  0  0  0  0  0
   12.3037  -16.4471   28.2880 O   0  0  0  0  0  0  0  0  0  0  0  0
  2  1  1  0
  2  4  1  0
  3  2  2  0
  4  5  1  0
  6  5  1  0
  7  6  1  0
  7  8  1  0
  8  9  1  1
 10  8  1  0
 11 10  2  0
 12 16  1  0
 12 10  1  0
 13 12  1  0
 13 14  1  0
 14 15  1  0
 16 15  1  0
 16 17  1  1
 18 17  2  0
 19 17  1  0
 20 21  1  1
 20 19  1  0
 21 22  1  0
 22 30  1  0
 22 23  2  0
 23 24  1  0
 25 26  2  0
 25 24  1  0
 27 26  1  0
 28 27  2  0
 29 28  1  0
 29 30  2  0
 30 25  1  0
 31 20  1  0
 31 33  1  0
 32 31  2  0
M  END
$$$$
