RPW.pdb
     RDKit          3D

 33 35  0  0  1  0  0  0  0  0999 V2000
    9.4363  -22.1023   22.0687 N   0  0  0  0  0  0  0  0  0  0  0  0
    8.1119  -22.5926   22.0386 C   0  0  0  0  0  0  0  0  0  0  0  0
    7.9344  -23.7373   21.4629 N   0  0  0  0  0  0  0  0  0  0  0  0
    7.0370  -21.8663   22.6105 N   0  0  0  0  0  0  0  0  0  0  0  0
    6.2185  -21.0455   21.6846 C   0  0  0  0  0  0  0  0  0  0  0  0
    7.0344  -19.8650   21.3133 C   0  0  0  0  0  0  0  0  0  0  0  0
    6.3900  -18.5407   21.2389 C   0  0  0  0  0  0  0  0  0  0  0  0
    6.7657  -17.7664   20.0017 C   0  0  2  0  0  0  0  0  0  0  0  0
    6.9969  -18.7343   18.9504 N   0  0  0  0  0  0  0  0  0  0  0  0
    7.9986  -16.9803   20.2695 C   0  0  0  0  0  0  0  0  0  0  0  0
    9.0666  -17.4585   19.7438 O   0  0  0  0  0  0  0  0  0  0  0  0
    7.0150  -24.1760   21.2985 N   0  0  0  0  0  0  0  0  0  0  0  0
    8.0834  -15.8017   21.0215 C   0  0  0  0  0  0  0  0  0  0  0  0
    7.0279  -15.2401   21.8121 C   0  0  0  0  0  0  0  0  0  0  0  0
    7.3065  -13.7544   21.7934 C   0  0  0  0  0  0  0  0  0  0  0  0
    8.5453  -13.5688   20.9448 C   0  0  1  0  0  0  0  0  0  0  0  0
    9.2080  -14.9323   21.1467 C   0  0  0  0  0  0  0  0  0  0  0  0
    9.7519  -15.0729   22.5242 O   0  0  0  0  0  0  0  0  0  0  0  0
   10.6035  -14.2625   22.9757 N   0  0  0  0  0  0  0  0  0  0  0  0
    9.3680  -16.1026   23.4191 C   0  0  1  0  0  0  0  0  0  0  0  0
    9.9095  -16.2244   24.7798 C   0  0  0  0  0  0  0  0  0  0  0  0
    9.7526  -14.9654   25.5332 C   0  0  0  0  0  0  0  0  0  0  0  0
    8.3566  -14.5863   25.7377 C   0  0  0  0  0  0  0  0  0  0  0  0
    7.2709  -15.4673   25.6282 N   0  0  0  0  0  0  0  0  0  0  0  0
    6.1337  -14.7950   25.8292 C   0  0  0  0  0  0  0  0  0  0  0  0
    6.4305  -13.5157   26.0658 C   0  0  0  0  0  0  0  0  0  0  0  0
    5.6506  -12.4285   26.3495 C   0  0  0  0  0  0  0  0  0  0  0  0
    6.1596  -11.1570   26.5958 C   0  0  0  0  0  0  0  0  0  0  0  0
    7.5367  -11.0495   26.5362 C   0  0  0  0  0  0  0  0  0  0  0  0
    8.3460  -12.1205   26.2532 C   0  0  0  0  0  0  0  0  0  0  0  0
    7.8079  -13.3625   26.0142 C   0  0  0  0  0  0  0  0  0  0  0  0
    9.2691  -17.3721   25.4110 O   0  0  0  0  0  0  0  0  0  0  0  0
    8.2887  -18.0033   24.9337 O   0  0  0  0  0  0  0  0  0  0  0  0
  2  1  1  0
  2  4  1  0
  3  2  2  0
  4  5  1  0
  6  5  1  0
  7  6  1  0
  7  8  1  0
  8  9  1  6
 10  8  1  0
 11 10  2  0
 12 16  1  0
 12 10  1  0
 13 12  1  0
 13 14  1  0
 14 15  1  0
 16 15  1  0
 16 17  1  1
 18 17  2  0
 19 17  1  0
 20 21  1  1
 20 19  1  0
 21 22  1  0
 22 30  1  0
 22 23  2  0
 23 24  1  0
 25 26  2  0
 25 24  1  0
 27 26  1  0
 28 27  2  0
 29 28  1  0
 29 30  2  0
 30 25  1  0
 31 20  1  0
 31 33  1  0
 32 31  2  0
M  END
$$$$
