RPW.pdb
     RDKit          3D

 33 35  0  0  1  0  0  0  0  0999 V2000
    4.9069  -21.6208   19.5113 N   0  0  0  0  0  0  0  0  0  0  0  0
    6.3063  -21.7282   19.6707 C   0  0  0  0  0  0  0  0  0  0  0  0
    6.7226  -22.5927   20.5382 N   0  0  0  0  0  0  0  0  0  0  0  0
    7.2038  -20.9297   18.9176 N   0  0  0  0  0  0  0  0  0  0  0  0
    6.6820  -19.6372   18.4095 C   0  0  0  0  0  0  0  0  0  0  0  0
    7.8417  -18.7245   18.2709 C   0  0  0  0  0  0  0  0  0  0  0  0
    7.6099  -17.3228   17.8758 C   0  0  0  0  0  0  0  0  0  0  0  0
    8.8647  -16.4882   17.8850 C   0  0  2  0  0  0  0  0  0  0  0  0
    9.9022  -17.2766   17.2544 N   0  0  0  0  0  0  0  0  0  0  0  0
    9.2316  -16.1681   19.2895 C   0  0  0  0  0  0  0  0  0  0  0  0
   10.3643  -16.6353   19.6697 O   0  0  0  0  0  0  0  0  0  0  0  0
    7.7133  -22.7550   20.7771 N   0  0  0  0  0  0  0  0  0  0  0  0
    8.4676  -15.4232   20.1969 C   0  0  0  0  0  0  0  0  0  0  0  0
    7.1330  -14.9515   19.9717 C   0  0  0  0  0  0  0  0  0  0  0  0
    7.0440  -13.6924   20.8037 C   0  0  0  0  0  0  0  0  0  0  0  0
    8.3975  -13.5237   21.4584 C   0  0  2  0  0  0  0  0  0  0  0  0
    8.8531  -14.9831   21.4983 C   0  0  0  0  0  0  0  0  0  0  0  0
    8.0809  -15.7658   22.5004 O   0  0  0  0  0  0  0  0  0  0  0  0
    6.8217  -15.7799   22.4881 N   0  0  0  0  0  0  0  0  0  0  0  0
    8.6811  -16.5395   23.5248 C   0  0  1  0  0  0  0  0  0  0  0  0
    9.7114  -16.0101   24.4292 C   0  0  0  0  0  0  0  0  0  0  0  0
    9.4105  -14.6221   24.8294 C   0  0  0  0  0  0  0  0  0  0  0  0
    8.0130  -14.4205   25.2044 C   0  0  0  0  0  0  0  0  0  0  0  0
    6.9845  -15.3417   24.9579 N   0  0  0  0  0  0  0  0  0  0  0  0
    5.8240  -14.8331   25.3825 C   0  0  0  0  0  0  0  0  0  0  0  0
    6.0511  -13.6223   25.8956 C   0  0  0  0  0  0  0  0  0  0  0  0
    5.2243  -12.7003   26.4761 C   0  0  0  0  0  0  0  0  0  0  0  0
    5.6638  -11.4813   26.9835 C   0  0  0  0  0  0  0  0  0  0  0  0
    7.0211  -11.2462   26.8652 C   0  0  0  0  0  0  0  0  0  0  0  0
    7.8760  -12.1503   26.2874 C   0  0  0  0  0  0  0  0  0  0  0  0
    7.4062  -13.3448   25.7958 C   0  0  0  0  0  0  0  0  0  0  0  0
    9.8337  -16.9333   25.5510 O   0  0  0  0  0  0  0  0  0  0  0  0
   10.6278  -16.7906   26.5188 O   0  0  0  0  0  0  0  0  0  0  0  0
  2  1  1  0
  2  4  1  0
  3  2  2  0
  4  5  1  0
  6  5  1  0
  7  6  1  0
  7  8  1  0
  8  9  1  1
 10  8  1  0
 11 10  2  0
 12 16  1  0
 12 10  1  0
 13 12  1  0
 13 14  1  0
 14 15  1  0
 16 15  1  0
 16 17  1  1
 18 17  2  0
 19 17  1  0
 20 21  1  6
 20 19  1  0
 21 22  1  0
 22 30  1  0
 22 23  2  0
 23 24  1  0
 25 26  2  0
 25 24  1  0
 27 26  1  0
 28 27  2  0
 29 28  1  0
 29 30  2  0
 30 25  1  0
 31 20  1  0
 31 33  1  0
 32 31  2  0
M  END
$$$$
