NMV.pdb
     RDKit          3D

 24 23  0  0  1  0  0  0  0  0999 V2000
   18.9273  -25.5874   -7.5307 N   0  0  0  0  0  0  0  0  0  0  0  0
   18.5755  -24.7236   -8.5866 C   0  0  0  0  0  0  0  0  0  0  0  0
   17.6381  -25.0812   -9.3502 O   0  0  0  0  0  0  0  0  0  0  0  0
   19.2282  -23.4242   -8.8648 C   0  0  0  0  0  0  0  0  0  0  0  0
   20.2984  -23.1051   -7.8585 C   0  0  2  0  0  0  0  0  0  0  0  0
   19.7666  -22.7123   -6.5801 N   0  0  0  0  0  0  0  0  0  0  0  0
   21.1088  -21.9939   -8.4109 C   0  0  0  0  0  0  0  0  0  0  0  0
   20.5583  -20.9054   -8.7289 O   0  0  0  0  0  0  0  0  0  0  0  0
   26.8421  -18.8237   -6.8568 C   0  0  0  0  0  0  0  0  0  0  0  0
   27.1006  -19.7549   -8.3956 S   0  0  0  0  0  0  0  0  0  0  0  0
   25.4649  -19.8035   -9.2523 C   0  0  0  0  0  0  0  0  0  0  0  0
   24.6250  -20.8855   -8.6536 C   0  0  0  0  0  0  0  0  0  0  0  0
   23.2547  -20.9705   -9.2523 C   0  0  2  0  0  0  0  0  0  0  0  0
   22.5029  -22.0759   -8.6114 N   0  0  0  0  0  0  0  0  0  0  0  0
   23.3287  -21.2236  -10.7077 C   0  0  0  0  0  0  0  0  0  0  0  0
   23.8346  -22.2531  -11.1495 O   0  0  0  0  0  0  0  0  0  0  0  0
   21.2700  -18.6343  -13.5288 C   0  0  0  0  0  0  0  0  0  0  0  0
   21.5156  -20.0956  -13.6813 C   0  0  2  0  0  0  0  0  0  0  0  0
   20.3626  -20.9308  -13.1628 C   0  0  0  0  0  0  0  0  0  0  0  0
   22.8413  -20.5444  -13.0760 C   0  0  2  0  0  0  0  0  0  0  0  0
   22.8128  -20.2767  -11.6598 N   0  0  0  0  0  0  0  0  0  0  0  0
   23.9816  -19.8787  -13.7531 C   0  0  0  0  0  0  0  0  0  0  0  0
   24.2736  -20.1729  -14.9372 O   0  0  0  0  0  0  0  0  0  0  0  0
   24.7659  -18.9219  -13.1334 O   0  0  0  0  0  0  0  0  0  0  0  0
  2  1  1  0
  2  3  2  0
  4  2  1  0
  5  7  1  0
  5  4  1  0
  5  6  1  1
  7  8  2  0
  9 10  1  0
 10 11  1  0
 11 12  1  0
 13 12  1  1
 14 13  1  0
 14  7  1  0
 15 16  2  0
 15 13  1  0
 18 17  1  1
 19 18  1  0
 20 18  1  0
 20 21  1  1
 21 15  1  0
 22 20  1  0
 23 22  2  0
 24 22  1  0
M  END
$$$$
