NMV.pdb
     RDKit          3D

 24 23  0  0  1  0  0  0  0  0999 V2000
   18.3652  -20.9383  -15.0901 N   0  0  0  0  0  0  0  0  0  0  0  0
   18.8663  -19.8660  -14.3262 C   0  0  0  0  0  0  0  0  0  0  0  0
   18.0342  -19.0586  -13.8309 O   0  0  0  0  0  0  0  0  0  0  0  0
   20.3019  -19.6184  -14.0625 C   0  0  0  0  0  0  0  0  0  0  0  0
   21.0569  -20.8946  -13.8146 C   0  0  2  0  0  0  0  0  0  0  0  0
   20.4839  -21.6890  -12.7601 N   0  0  0  0  0  0  0  0  0  0  0  0
   22.4440  -20.5243  -13.4464 C   0  0  0  0  0  0  0  0  0  0  0  0
   23.0498  -19.6221  -14.0852 O   0  0  0  0  0  0  0  0  0  0  0  0
   24.8909  -20.5016   -7.6664 C   0  0  0  0  0  0  0  0  0  0  0  0
   26.4554  -21.0043   -8.4419 S   0  0  0  0  0  0  0  0  0  0  0  0
   26.2528  -20.7100  -10.2542 C   0  0  0  0  0  0  0  0  0  0  0  0
   24.8738  -21.1108  -10.6691 C   0  0  0  0  0  0  0  0  0  0  0  0
   24.5571  -20.7570  -12.0897 C   0  0  2  0  0  0  0  0  0  0  0  0
   23.1560  -21.1352  -12.3928 N   0  0  0  0  0  0  0  0  0  0  0  0
   25.4568  -21.4675  -13.0243 C   0  0  0  0  0  0  0  0  0  0  0  0
   25.6114  -22.6851  -12.9568 O   0  0  0  0  0  0  0  0  0  0  0  0
   25.1126  -21.7840  -16.6959 C   0  0  0  0  0  0  0  0  0  0  0  0
   26.0618  -22.4495  -15.7606 C   0  0  2  0  0  0  0  0  0  0  0  0
   25.3591  -23.3763  -14.7894 C   0  0  0  0  0  0  0  0  0  0  0  0
   26.9686  -21.4652  -15.0298 C   0  0  2  0  0  0  0  0  0  0  0  0
   26.1839  -20.7624  -14.0458 N   0  0  0  0  0  0  0  0  0  0  0  0
   27.6273  -20.5442  -15.9889 C   0  0  0  0  0  0  0  0  0  0  0  0
   27.2365  -19.3569  -16.0960 O   0  0  0  0  0  0  0  0  0  0  0  0
   28.6810  -20.9325  -16.7973 O   0  0  0  0  0  0  0  0  0  0  0  0
  2  1  1  0
  2  3  2  0
  4  2  1  0
  5  7  1  0
  5  4  1  0
  5  6  1  1
  7  8  2  0
  9 10  1  0
 10 11  1  0
 11 12  1  0
 13 12  1  1
 14 13  1  0
 14  7  1  0
 15 16  2  0
 15 13  1  0
 18 17  1  1
 19 18  1  0
 20 18  1  0
 20 21  1  1
 21 15  1  0
 22 20  1  0
 23 22  2  0
 24 22  1  0
M  END
$$$$
