NMV.pdb
     RDKit          3D

 24 23  0  0  1  0  0  0  0  0999 V2000
   19.9278  -21.7726  -11.5983 N   0  0  0  0  0  0  0  0  0  0  0  0
   20.3349  -20.4263  -11.6775 C   0  0  0  0  0  0  0  0  0  0  0  0
   19.4836  -19.5382  -11.4016 O   0  0  0  0  0  0  0  0  0  0  0  0
   21.6926  -19.9782  -12.0621 C   0  0  0  0  0  0  0  0  0  0  0  0
   22.5962  -21.1350  -12.3867 C   0  0  2  0  0  0  0  0  0  0  0  0
   22.7280  -22.0662  -11.2973 N   0  0  0  0  0  0  0  0  0  0  0  0
   23.9297  -20.5772  -12.7144 C   0  0  0  0  0  0  0  0  0  0  0  0
   24.0249  -19.5259  -13.4034 O   0  0  0  0  0  0  0  0  0  0  0  0
   29.2072  -21.4532   -9.2989 C   0  0  0  0  0  0  0  0  0  0  0  0
   30.0954  -21.2653  -10.8730 S   0  0  0  0  0  0  0  0  0  0  0  0
   28.8762  -20.5736  -12.0760 C   0  0  0  0  0  0  0  0  0  0  0  0
   27.5180  -21.1191  -11.7725 C   0  0  0  0  0  0  0  0  0  0  0  0
   26.4514  -20.5905  -12.6814 C   0  0  2  0  0  0  0  0  0  0  0  0
   25.1410  -21.1644  -12.2922 N   0  0  0  0  0  0  0  0  0  0  0  0
   26.7310  -20.9490  -14.0889 C   0  0  0  0  0  0  0  0  0  0  0  0
   26.8747  -22.1211  -14.4304 O   0  0  0  0  0  0  0  0  0  0  0  0
   25.6843  -18.4380  -17.3286 C   0  0  0  0  0  0  0  0  0  0  0  0
   25.9755  -19.8986  -17.3553 C   0  0  2  0  0  0  0  0  0  0  0  0
   24.7529  -20.7357  -17.0385 C   0  0  0  0  0  0  0  0  0  0  0  0
   27.1574  -20.2879  -16.4740 C   0  0  2  0  0  0  0  0  0  0  0  0
   26.8456  -19.9421  -15.1098 N   0  0  0  0  0  0  0  0  0  0  0  0
   28.4047  -19.6398  -16.9494 C   0  0  0  0  0  0  0  0  0  0  0  0
   29.0060  -20.0865  -17.9558 O   0  0  0  0  0  0  0  0  0  0  0  0
   28.9601  -18.5362  -16.3261 O   0  0  0  0  0  0  0  0  0  0  0  0
  2  1  1  0
  2  3  2  0
  4  2  1  0
  5  7  1  0
  5  4  1  0
  5  6  1  1
  7  8  2  0
  9 10  1  0
 10 11  1  0
 11 12  1  0
 13 12  1  1
 14 13  1  0
 14  7  1  0
 15 16  2  0
 15 13  1  0
 18 17  1  1
 19 18  1  0
 20 18  1  0
 20 21  1  1
 21 15  1  0
 22 20  1  0
 23 22  2  0
 24 22  1  0
M  END
$$$$
