NMV.pdb
     RDKit          3D

 24 23  0  0  1  0  0  0  0  0999 V2000
   29.1154  -21.1437  -17.1550 N   0  0  0  0  0  0  0  0  0  0  0  0
   28.1702  -22.1883  -17.1529 C   0  0  0  0  0  0  0  0  0  0  0  0
   28.2444  -23.0492  -18.0711 O   0  0  0  0  0  0  0  0  0  0  0  0
   27.0943  -22.3485  -16.1487 C   0  0  0  0  0  0  0  0  0  0  0  0
   27.0627  -21.2072  -15.1707 C   0  0  2  0  0  0  0  0  0  0  0  0
   28.2815  -21.0821  -14.4157 N   0  0  0  0  0  0  0  0  0  0  0  0
   25.9361  -21.4527  -14.2395 C   0  0  0  0  0  0  0  0  0  0  0  0
   25.0726  -22.3312  -14.5073 O   0  0  0  0  0  0  0  0  0  0  0  0
   27.7376  -20.6266   -7.7343 C   0  0  0  0  0  0  0  0  0  0  0  0
   26.2152  -19.9871   -8.4927 S   0  0  0  0  0  0  0  0  0  0  0  0
   25.9952  -20.9157  -10.0743 C   0  0  0  0  0  0  0  0  0  0  0  0
   24.8264  -20.3550  -10.8186 C   0  0  0  0  0  0  0  0  0  0  0  0
   24.6008  -21.0103  -12.1464 C   0  0  2  0  0  0  0  0  0  0  0  0
   25.7595  -20.7446  -13.0321 N   0  0  0  0  0  0  0  0  0  0  0  0
   23.3763  -20.4888  -12.7918 C   0  0  0  0  0  0  0  0  0  0  0  0
   23.3021  -19.3197  -13.1643 O   0  0  0  0  0  0  0  0  0  0  0  0
   20.4067  -22.9836  -14.6013 C   0  0  0  0  0  0  0  0  0  0  0  0
   20.6383  -21.5265  -14.8063 C   0  0  2  0  0  0  0  0  0  0  0  0
   21.6572  -21.2525  -15.8937 C   0  0  0  0  0  0  0  0  0  0  0  0
   20.9912  -20.7911  -13.5179 C   0  0  2  0  0  0  0  0  0  0  0  0
   22.2280  -21.3278  -13.0077 N   0  0  0  0  0  0  0  0  0  0  0  0
   19.8845  -20.8910  -12.5345 C   0  0  0  0  0  0  0  0  0  0  0  0
   18.8003  -20.2941  -12.7392 O   0  0  0  0  0  0  0  0  0  0  0  0
   19.9835  -21.6282  -11.3676 O   0  0  0  0  0  0  0  0  0  0  0  0
  2  1  1  0
  2  3  2  0
  4  2  1  0
  5  7  1  0
  5  4  1  0
  5  6  1  1
  7  8  2  0
  9 10  1  0
 10 11  1  0
 11 12  1  0
 13 12  1  1
 14 13  1  0
 14  7  1  0
 15 16  2  0
 15 13  1  0
 18 17  1  1
 19 18  1  0
 20 18  1  0
 20 21  1  1
 21 15  1  0
 22 20  1  0
 23 22  2  0
 24 22  1  0
M  END
$$$$
