NMV.pdb
     RDKit          3D

 24 23  0  0  1  0  0  0  0  0999 V2000
   18.2464  -22.0409  -15.5108 N   0  0  0  0  0  0  0  0  0  0  0  0
   19.2238  -22.3789  -14.5542 C   0  0  0  0  0  0  0  0  0  0  0  0
   18.9335  -23.2654  -13.7060 O   0  0  0  0  0  0  0  0  0  0  0  0
   20.5696  -21.7672  -14.4729 C   0  0  0  0  0  0  0  0  0  0  0  0
   20.7690  -21.0145  -13.1869 C   0  0  2  0  0  0  0  0  0  0  0  0
   19.9301  -19.8496  -13.0834 N   0  0  0  0  0  0  0  0  0  0  0  0
   22.1902  -20.5974  -13.1334 C   0  0  0  0  0  0  0  0  0  0  0  0
   22.5587  -19.5297  -13.6931 O   0  0  0  0  0  0  0  0  0  0  0  0
   26.1233  -20.6166   -8.1234 C   0  0  0  0  0  0  0  0  0  0  0  0
   27.2710  -21.3466   -9.3283 S   0  0  0  0  0  0  0  0  0  0  0  0
   26.6467  -20.8612  -10.9976 C   0  0  0  0  0  0  0  0  0  0  0  0
   25.2346  -21.3264  -11.1520 C   0  0  0  0  0  0  0  0  0  0  0  0
   24.5960  -20.8663  -12.4263 C   0  0  2  0  0  0  0  0  0  0  0  0
   23.1924  -21.3412  -12.4755 N   0  0  0  0  0  0  0  0  0  0  0  0
   25.3211  -21.3955  -13.6019 C   0  0  0  0  0  0  0  0  0  0  0  0
   25.2179  -22.5741  -13.9354 O   0  0  0  0  0  0  0  0  0  0  0  0
   25.8404  -19.1807  -16.9279 C   0  0  0  0  0  0  0  0  0  0  0  0
   27.0886  -19.8860  -16.5237 C   0  0  2  0  0  0  0  0  0  0  0  0
   27.9203  -20.3140  -17.7157 C   0  0  0  0  0  0  0  0  0  0  0  0
   26.8345  -21.0540  -15.5769 C   0  0  2  0  0  0  0  0  0  0  0  0
   26.1730  -20.5531  -14.3981 N   0  0  0  0  0  0  0  0  0  0  0  0
   28.1010  -21.7578  -15.2571 C   0  0  0  0  0  0  0  0  0  0  0  0
   28.9477  -21.2243  -14.5004 O   0  0  0  0  0  0  0  0  0  0  0  0
   28.4114  -23.0083  -15.7618 O   0  0  0  0  0  0  0  0  0  0  0  0
  2  1  1  0
  2  3  2  0
  4  2  1  0
  5  7  1  0
  5  4  1  0
  5  6  1  6
  7  8  2  0
  9 10  1  0
 10 11  1  0
 11 12  1  0
 13 12  1  1
 14 13  1  0
 14  7  1  0
 15 16  2  0
 15 13  1  0
 18 17  1  6
 19 18  1  0
 20 18  1  0
 20 21  1  1
 21 15  1  0
 22 20  1  0
 23 22  2  0
 24 22  1  0
M  END
$$$$
