NMV.pdb
     RDKit          3D

 24 23  0  0  1  0  0  0  0  0999 V2000
   20.4941  -22.2604  -12.8751 N   0  0  0  0  0  0  0  0  0  0  0  0
   20.8401  -21.1400  -12.0942 C   0  0  0  0  0  0  0  0  0  0  0  0
   19.9689  -20.6817  -11.3064 O   0  0  0  0  0  0  0  0  0  0  0  0
   22.1550  -20.4607  -12.1321 C   0  0  0  0  0  0  0  0  0  0  0  0
   23.0413  -21.0101  -13.2150 C   0  0  2  0  0  0  0  0  0  0  0  0
   23.2259  -22.4342  -13.1197 N   0  0  0  0  0  0  0  0  0  0  0  0
   24.3573  -20.3393  -13.0932 C   0  0  0  0  0  0  0  0  0  0  0  0
   24.4306  -19.0810  -13.1048 O   0  0  0  0  0  0  0  0  0  0  0  0
   29.3956  -22.2816  -10.1214 C   0  0  0  0  0  0  0  0  0  0  0  0
   30.3066  -20.9252  -10.9166 S   0  0  0  0  0  0  0  0  0  0  0  0
   29.2287  -20.3099  -12.2846 C   0  0  0  0  0  0  0  0  0  0  0  0
   27.8535  -20.8724  -12.1218 C   0  0  0  0  0  0  0  0  0  0  0  0
   26.8788  -20.3552  -13.1348 C   0  0  2  0  0  0  0  0  0  0  0  0
   25.5751  -21.0392  -12.9607 N   0  0  0  0  0  0  0  0  0  0  0  0
   27.3665  -20.5987  -14.5097 C   0  0  0  0  0  0  0  0  0  0  0  0
   27.3897  -21.7321  -14.9852 O   0  0  0  0  0  0  0  0  0  0  0  0
   26.2491  -20.0572  -18.6975 C   0  0  0  0  0  0  0  0  0  0  0  0
   26.3705  -19.7846  -17.2381 C   0  0  2  0  0  0  0  0  0  0  0  0
   25.5173  -18.6124  -16.7980 C   0  0  0  0  0  0  0  0  0  0  0  0
   27.8155  -19.6216  -16.7794 C   0  0  2  0  0  0  0  0  0  0  0  0
   27.8315  -19.5211  -15.3415 N   0  0  0  0  0  0  0  0  0  0  0  0
   28.4467  -18.4490  -17.4340 C   0  0  0  0  0  0  0  0  0  0  0  0
   28.3023  -17.3005  -16.9501 O   0  0  0  0  0  0  0  0  0  0  0  0
   29.2093  -18.5533  -18.5839 O   0  0  0  0  0  0  0  0  0  0  0  0
  2  1  1  0
  2  3  2  0
  4  2  1  0
  5  7  1  0
  5  4  1  0
  5  6  1  1
  7  8  2  0
  9 10  1  0
 10 11  1  0
 11 12  1  0
 13 12  1  1
 14 13  1  0
 14  7  1  0
 15 16  2  0
 15 13  1  0
 18 17  1  6
 19 18  1  0
 20 18  1  0
 20 21  1  1
 21 15  1  0
 22 20  1  0
 23 22  2  0
 24 22  1  0
M  END
$$$$
