NMV.pdb
     RDKit          3D

 24 23  0  0  1  0  0  0  0  0999 V2000
   21.2462  -11.4002  -21.2008 N   0  0  0  0  0  0  0  0  0  0  0  0
   19.8659  -11.6766  -21.1463 C   0  0  0  0  0  0  0  0  0  0  0  0
   19.1624  -11.3521  -22.1411 O   0  0  0  0  0  0  0  0  0  0  0  0
   19.1805  -12.3216  -20.0035 C   0  0  0  0  0  0  0  0  0  0  0  0
   20.1291  -12.6268  -18.8778 C   0  0  2  0  0  0  0  0  0  0  0  0
   19.9659  -13.9567  -18.3523 N   0  0  0  0  0  0  0  0  0  0  0  0
   19.8697  -11.6424  -17.8006 C   0  0  0  0  0  0  0  0  0  0  0  0
   18.7625  -11.6396  -17.1980 O   0  0  0  0  0  0  0  0  0  0  0  0
   23.3422  -10.8551  -13.0284 C   0  0  0  0  0  0  0  0  0  0  0  0
   22.8392   -9.1126  -12.9164 S   0  0  0  0  0  0  0  0  0  0  0  0
   21.4411   -8.9000  -14.1047 C   0  0  0  0  0  0  0  0  0  0  0  0
   21.6224   -9.8377  -15.2545 C   0  0  0  0  0  0  0  0  0  0  0  0
   20.5247   -9.7484  -16.2697 C   0  0  2  0  0  0  0  0  0  0  0  0
   20.8114  -10.6752  -17.3907 N   0  0  0  0  0  0  0  0  0  0  0  0
   20.4093   -8.3738  -16.8035 C   0  0  0  0  0  0  0  0  0  0  0  0
   21.2239   -7.9352  -17.6130 O   0  0  0  0  0  0  0  0  0  0  0  0
   17.4483   -6.7781  -18.5060 C   0  0  0  0  0  0  0  0  0  0  0  0
   17.8365   -5.8925  -17.3729 C   0  0  2  0  0  0  0  0  0  0  0  0
   17.6127   -4.4267  -17.6846 C   0  0  0  0  0  0  0  0  0  0  0  0
   19.2570   -6.1435  -16.8786 C   0  0  2  0  0  0  0  0  0  0  0  0
   19.3419   -7.4995  -16.3968 N   0  0  0  0  0  0  0  0  0  0  0  0
   19.6370   -5.1517  -15.8424 C   0  0  0  0  0  0  0  0  0  0  0  0
   19.8847   -3.9645  -16.1634 O   0  0  0  0  0  0  0  0  0  0  0  0
   19.7369   -5.4717  -14.4998 O   0  0  0  0  0  0  0  0  0  0  0  0
  2  1  1  0
  2  3  2  0
  4  2  1  0
  5  7  1  0
  5  4  1  0
  5  6  1  1
  7  8  2  0
  9 10  1  0
 10 11  1  0
 11 12  1  0
 13 12  1  1
 14 13  1  0
 14  7  1  0
 15 16  2  0
 15 13  1  0
 18 17  1  6
 19 18  1  0
 20 18  1  0
 20 21  1  1
 21 15  1  0
 22 20  1  0
 23 22  2  0
 24 22  1  0
M  END
$$$$
