NMV.pdb
     RDKit          3D

 24 23  0  0  1  0  0  0  0  0999 V2000
   29.4662  -24.4976  -18.3665 N   0  0  0  0  0  0  0  0  0  0  0  0
   30.1863  -23.5186  -17.6540 C   0  0  0  0  0  0  0  0  0  0  0  0
   31.4351  -23.6630  -17.5568 O   0  0  0  0  0  0  0  0  0  0  0  0
   29.5817  -22.3305  -17.0102 C   0  0  0  0  0  0  0  0  0  0  0  0
   28.0833  -22.3254  -17.1325 C   0  0  2  0  0  0  0  0  0  0  0  0
   27.6309  -22.0350  -18.4676 N   0  0  0  0  0  0  0  0  0  0  0  0
   27.5668  -21.2891  -16.2073 C   0  0  0  0  0  0  0  0  0  0  0  0
   27.7710  -20.0683  -16.4456 O   0  0  0  0  0  0  0  0  0  0  0  0
   23.3857  -18.6395  -17.7122 C   0  0  0  0  0  0  0  0  0  0  0  0
   22.5208  -19.0048  -16.1564 S   0  0  0  0  0  0  0  0  0  0  0  0
   23.8338  -19.2849  -14.8876 C   0  0  0  0  0  0  0  0  0  0  0  0
   24.8450  -20.2450  -15.4261 C   0  0  0  0  0  0  0  0  0  0  0  0
   25.9103  -20.6002  -14.4349 C   0  0  2  0  0  0  0  0  0  0  0  0
   26.8368  -21.5882  -15.0376 N   0  0  0  0  0  0  0  0  0  0  0  0
   25.3197  -21.1836  -13.2108 C   0  0  0  0  0  0  0  0  0  0  0  0
   24.6459  -22.2109  -13.2567 O   0  0  0  0  0  0  0  0  0  0  0  0
   25.1494  -21.1061   -8.2263 C   0  0  0  0  0  0  0  0  0  0  0  0
   25.6370  -20.5455   -9.5174 C   0  0  2  0  0  0  0  0  0  0  0  0
   25.5982  -19.0309   -9.5390 C   0  0  0  0  0  0  0  0  0  0  0  0
   24.9265  -21.1356  -10.7307 C   0  0  2  0  0  0  0  0  0  0  0  0
   25.5104  -20.5728  -11.9225 N   0  0  0  0  0  0  0  0  0  0  0  0
   23.4641  -20.8970  -10.6522 C   0  0  0  0  0  0  0  0  0  0  0  0
   22.9467  -19.9317  -11.2641 O   0  0  0  0  0  0  0  0  0  0  0  0
   22.6116  -21.7039   -9.9193 O   0  0  0  0  0  0  0  0  0  0  0  0
  2  1  1  0
  2  3  2  0
  4  2  1  0
  5  7  1  0
  5  4  1  0
  5  6  1  6
  7  8  2  0
  9 10  1  0
 10 11  1  0
 11 12  1  0
 13 12  1  6
 14 13  1  0
 14  7  1  0
 15 16  2  0
 15 13  1  0
 18 17  1  1
 19 18  1  0
 20 18  1  0
 20 21  1  6
 21 15  1  0
 22 20  1  0
 23 22  2  0
 24 22  1  0
M  END
$$$$
