NMV.pdb
     RDKit          3D

 24 23  0  0  1  0  0  0  0  0999 V2000
   29.4628  -18.1745  -17.3874 N   0  0  0  0  0  0  0  0  0  0  0  0
   28.1511  -18.6338  -17.6182 C   0  0  0  0  0  0  0  0  0  0  0  0
   27.6688  -18.4775  -18.7726 O   0  0  0  0  0  0  0  0  0  0  0  0
   27.2967  -19.2879  -16.6013 C   0  0  0  0  0  0  0  0  0  0  0  0
   28.0357  -20.3610  -15.8512 C   0  0  2  0  0  0  0  0  0  0  0  0
   28.4781  -21.4353  -16.7006 N   0  0  0  0  0  0  0  0  0  0  0  0
   27.1122  -20.9004  -14.8251 C   0  0  0  0  0  0  0  0  0  0  0  0
   26.3721  -21.8849  -15.0935 O   0  0  0  0  0  0  0  0  0  0  0  0
   24.8470  -21.0044   -7.2474 C   0  0  0  0  0  0  0  0  0  0  0  0
   25.9879  -20.2935   -8.4700 S   0  0  0  0  0  0  0  0  0  0  0  0
   25.4526  -20.9407  -10.1152 C   0  0  0  0  0  0  0  0  0  0  0  0
   26.3928  -20.4510  -11.1691 C   0  0  0  0  0  0  0  0  0  0  0  0
   26.0318  -20.9158  -12.5464 C   0  0  2  0  0  0  0  0  0  0  0  0
   27.0023  -20.3671  -13.5236 N   0  0  0  0  0  0  0  0  0  0  0  0
   24.6730  -20.4642  -12.9172 C   0  0  0  0  0  0  0  0  0  0  0  0
   24.4249  -19.2735  -13.0957 O   0  0  0  0  0  0  0  0  0  0  0  0
   22.9743  -21.1748  -15.8937 C   0  0  0  0  0  0  0  0  0  0  0  0
   21.9726  -21.5546  -14.8588 C   0  0  2  0  0  0  0  0  0  0  0  0
   20.5535  -21.2427  -15.2887 C   0  0  0  0  0  0  0  0  0  0  0  0
   22.2785  -20.9639  -13.4867 C   0  0  2  0  0  0  0  0  0  0  0  0
   23.5921  -21.3988  -13.0828 N   0  0  0  0  0  0  0  0  0  0  0  0
   21.2322  -21.3427  -12.5051 C   0  0  0  0  0  0  0  0  0  0  0  0
   21.2025  -22.5025  -12.0278 O   0  0  0  0  0  0  0  0  0  0  0  0
   20.2565  -20.4619  -12.0725 O   0  0  0  0  0  0  0  0  0  0  0  0
  2  1  1  0
  2  3  2  0
  4  2  1  0
  5  7  1  0
  5  4  1  0
  5  6  1  6
  7  8  2  0
  9 10  1  0
 10 11  1  0
 11 12  1  0
 13 12  1  1
 14 13  1  0
 14  7  1  0
 15 16  2  0
 15 13  1  0
 18 17  1  6
 19 18  1  0
 20 18  1  0
 20 21  1  1
 21 15  1  0
 22 20  1  0
 23 22  2  0
 24 22  1  0
M  END
$$$$
