NMV.pdb
     RDKit          3D

 24 23  0  0  1  0  0  0  0  0999 V2000
   29.7361  -18.7653  -16.6562 N   0  0  0  0  0  0  0  0  0  0  0  0
   28.3548  -18.5021  -16.5700 C   0  0  0  0  0  0  0  0  0  0  0  0
   27.9019  -17.5228  -17.2222 O   0  0  0  0  0  0  0  0  0  0  0  0
   27.3951  -19.2937  -15.7674 C   0  0  0  0  0  0  0  0  0  0  0  0
   28.0656  -20.4325  -15.0506 C   0  0  2  0  0  0  0  0  0  0  0  0
   28.5352  -21.4584  -15.9442 N   0  0  0  0  0  0  0  0  0  0  0  0
   27.0718  -21.0160  -14.1187 C   0  0  0  0  0  0  0  0  0  0  0  0
   26.2777  -21.9100  -14.5177 O   0  0  0  0  0  0  0  0  0  0  0  0
   26.3054  -19.1927   -7.8663 C   0  0  0  0  0  0  0  0  0  0  0  0
   25.5633  -20.8505   -7.8092 S   0  0  0  0  0  0  0  0  0  0  0  0
   25.0709  -21.2571   -9.5425 C   0  0  0  0  0  0  0  0  0  0  0  0
   26.1511  -20.8204  -10.4789 C   0  0  0  0  0  0  0  0  0  0  0  0
   25.8574  -21.1416  -11.9120 C   0  0  2  0  0  0  0  0  0  0  0  0
   26.9510  -20.6241  -12.7688 N   0  0  0  0  0  0  0  0  0  0  0  0
   24.5824  -20.5266  -12.3409 C   0  0  0  0  0  0  0  0  0  0  0  0
   24.4765  -19.3092  -12.4744 O   0  0  0  0  0  0  0  0  0  0  0  0
   21.6182  -22.5705  -14.6081 C   0  0  0  0  0  0  0  0  0  0  0  0
   21.8503  -21.1098  -14.4312 C   0  0  2  0  0  0  0  0  0  0  0  0
   22.8984  -20.5733  -15.3849 C   0  0  0  0  0  0  0  0  0  0  0  0
   22.1642  -20.7255  -12.9894 C   0  0  2  0  0  0  0  0  0  0  0  0
   23.4200  -21.3277  -12.6174 N   0  0  0  0  0  0  0  0  0  0  0  0
   21.0574  -21.1245  -12.0851 C   0  0  0  0  0  0  0  0  0  0  0  0
   21.2156  -22.0625  -11.2671 O   0  0  0  0  0  0  0  0  0  0  0  0
   19.8219  -20.5014  -12.0930 O   0  0  0  0  0  0  0  0  0  0  0  0
  2  1  1  0
  2  3  2  0
  4  2  1  0
  5  7  1  0
  5  4  1  0
  5  6  1  6
  7  8  2  0
  9 10  1  0
 10 11  1  0
 11 12  1  0
 13 12  1  1
 14 13  1  0
 14  7  1  0
 15 16  2  0
 15 13  1  0
 18 17  1  1
 19 18  1  0
 20 18  1  0
 20 21  1  1
 21 15  1  0
 22 20  1  0
 23 22  2  0
 24 22  1  0
M  END
$$$$
