NMV.pdb
     RDKit          3D

 24 23  0  0  1  0  0  0  0  0999 V2000
   22.0267   -9.6266  -14.5498 N   0  0  0  0  0  0  0  0  0  0  0  0
   21.5159   -8.3517  -14.2362 C   0  0  0  0  0  0  0  0  0  0  0  0
   22.2809   -7.3603  -14.3831 O   0  0  0  0  0  0  0  0  0  0  0  0
   20.1434   -8.0916  -13.7459 C   0  0  0  0  0  0  0  0  0  0  0  0
   19.3771   -9.3644  -13.5162 C   0  0  2  0  0  0  0  0  0  0  0  0
   19.1314  -10.0975  -14.7301 N   0  0  0  0  0  0  0  0  0  0  0  0
   18.0810   -8.9960  -12.8991 C   0  0  0  0  0  0  0  0  0  0  0  0
   17.1374   -8.5660  -13.6159 O   0  0  0  0  0  0  0  0  0  0  0  0
   16.2125  -13.0136   -8.9636 C   0  0  0  0  0  0  0  0  0  0  0  0
   14.9366  -12.6491  -10.2050 S   0  0  0  0  0  0  0  0  0  0  0  0
   15.5664  -11.2190  -11.1900 C   0  0  0  0  0  0  0  0  0  0  0  0
   16.0173  -10.1386  -10.2606 C   0  0  0  0  0  0  0  0  0  0  0  0
   16.4608   -8.8956  -10.9691 C   0  0  2  0  0  0  0  0  0  0  0  0
   17.8240   -9.0978  -11.5156 N   0  0  0  0  0  0  0  0  0  0  0  0
   16.4825   -7.7404  -10.0457 C   0  0  0  0  0  0  0  0  0  0  0  0
   17.3548   -7.6289   -9.1866 O   0  0  0  0  0  0  0  0  0  0  0  0
   13.7762   -4.3835  -10.5637 C   0  0  0  0  0  0  0  0  0  0  0  0
   15.1098   -4.3361   -9.9018 C   0  0  2  0  0  0  0  0  0  0  0  0
   16.2141   -3.9359  -10.8590 C   0  0  0  0  0  0  0  0  0  0  0  0
   15.4561   -5.6247   -9.1637 C   0  0  2  0  0  0  0  0  0  0  0  0
   15.4861   -6.7054  -10.1172 N   0  0  0  0  0  0  0  0  0  0  0  0
   14.4965   -5.8732   -8.0594 C   0  0  0  0  0  0  0  0  0  0  0  0
   13.6284   -6.7725   -8.1659 O   0  0  0  0  0  0  0  0  0  0  0  0
   14.5049   -5.1465   -6.8819 O   0  0  0  0  0  0  0  0  0  0  0  0
  2  1  1  0
  2  3  2  0
  4  2  1  0
  5  7  1  0
  5  4  1  0
  5  6  1  6
  7  8  2  0
  9 10  1  0
 10 11  1  0
 11 12  1  0
 13 12  1  1
 14 13  1  0
 14  7  1  0
 15 16  2  0
 15 13  1  0
 18 17  1  6
 19 18  1  0
 20 18  1  0
 20 21  1  6
 21 15  1  0
 22 20  1  0
 23 22  2  0
 24 22  1  0
M  END
$$$$
