NMV.pdb
     RDKit          3D

 24 23  0  0  1  0  0  0  0  0999 V2000
   21.0059  -11.0288  -22.9212 N   0  0  0  0  0  0  0  0  0  0  0  0
   20.2556  -10.1384  -22.1282 C   0  0  0  0  0  0  0  0  0  0  0  0
   19.4256   -9.3895  -22.7112 O   0  0  0  0  0  0  0  0  0  0  0  0
   20.3716  -10.0184  -20.6571 C   0  0  0  0  0  0  0  0  0  0  0  0
   21.4501  -10.9073  -20.1032 C   0  0  2  0  0  0  0  0  0  0  0  0
   21.0602  -12.2915  -20.0442 N   0  0  0  0  0  0  0  0  0  0  0  0
   21.7584  -10.4296  -18.7345 C   0  0  0  0  0  0  0  0  0  0  0  0
   20.9169  -10.5765  -17.8075 O   0  0  0  0  0  0  0  0  0  0  0  0
   26.9397  -10.6861  -14.6089 C   0  0  0  0  0  0  0  0  0  0  0  0
   26.5673  -11.7003  -16.0700 S   0  0  0  0  0  0  0  0  0  0  0  0
   24.8246  -11.3091  -16.5412 C   0  0  0  0  0  0  0  0  0  0  0  0
   24.6582   -9.8264  -16.6331 C   0  0  0  0  0  0  0  0  0  0  0  0
   23.2644   -9.4084  -16.9882 C   0  0  2  0  0  0  0  0  0  0  0  0
   22.9724   -9.7997  -18.3881 N   0  0  0  0  0  0  0  0  0  0  0  0
   23.1025   -7.9440  -16.8577 C   0  0  0  0  0  0  0  0  0  0  0  0
   23.7153   -7.1685  -17.5886 O   0  0  0  0  0  0  0  0  0  0  0  0
   19.5280   -6.2380  -15.4741 C   0  0  0  0  0  0  0  0  0  0  0  0
   20.6041   -5.6461  -16.3170 C   0  0  2  0  0  0  0  0  0  0  0  0
   20.4652   -6.0238  -17.7777 C   0  0  0  0  0  0  0  0  0  0  0  0
   22.0049   -5.9496  -15.7967 C   0  0  2  0  0  0  0  0  0  0  0  0
   22.2238   -7.3724  -15.8725 N   0  0  0  0  0  0  0  0  0  0  0  0
   22.1808   -5.4243  -14.4202 C   0  0  0  0  0  0  0  0  0  0  0  0
   22.1386   -6.2013  -13.4362 O   0  0  0  0  0  0  0  0  0  0  0  0
   22.3954   -4.0839  -14.1515 O   0  0  0  0  0  0  0  0  0  0  0  0
  2  1  1  0
  2  3  2  0
  4  2  1  0
  5  7  1  0
  5  4  1  0
  5  6  1  1
  7  8  2  0
  9 10  1  0
 10 11  1  0
 11 12  1  0
 13 12  1  6
 14 13  1  0
 14  7  1  0
 15 16  2  0
 15 13  1  0
 18 17  1  1
 19 18  1  0
 20 18  1  0
 20 21  1  1
 21 15  1  0
 22 20  1  0
 23 22  2  0
 24 22  1  0
M  END
$$$$
