NMV.pdb
     RDKit          3D

 24 23  0  0  1  0  0  0  0  0999 V2000
   29.4388  -20.8539  -17.9662 N   0  0  0  0  0  0  0  0  0  0  0  0
   28.7847  -22.0776  -17.7226 C   0  0  0  0  0  0  0  0  0  0  0  0
   29.0363  -23.0418  -18.4951 O   0  0  0  0  0  0  0  0  0  0  0  0
   27.8217  -22.3136  -16.6232 C   0  0  0  0  0  0  0  0  0  0  0  0
   27.6318  -21.0910  -15.7692 C   0  0  2  0  0  0  0  0  0  0  0  0
   28.8393  -20.6800  -15.1025 N   0  0  0  0  0  0  0  0  0  0  0  0
   26.6015  -21.4152  -14.7543 C   0  0  0  0  0  0  0  0  0  0  0  0
   25.6624  -22.2077  -15.0355 O   0  0  0  0  0  0  0  0  0  0  0  0
   27.3396  -20.7510   -8.4810 C   0  0  0  0  0  0  0  0  0  0  0  0
   25.5387  -20.5164   -8.4193 S   0  0  0  0  0  0  0  0  0  0  0  0
   24.8931  -21.0282  -10.0726 C   0  0  0  0  0  0  0  0  0  0  0  0
   25.9258  -20.7458  -11.1158 C   0  0  0  0  0  0  0  0  0  0  0  0
   25.5217  -21.1969  -12.4857 C   0  0  2  0  0  0  0  0  0  0  0  0
   26.6016  -20.8776  -13.4500 N   0  0  0  0  0  0  0  0  0  0  0  0
   24.2790  -20.5219  -12.9192 C   0  0  0  0  0  0  0  0  0  0  0  0
   24.2172  -19.2972  -13.0059 O   0  0  0  0  0  0  0  0  0  0  0  0
   21.1373  -22.4612  -15.1066 C   0  0  0  0  0  0  0  0  0  0  0  0
   21.4277  -21.0066  -14.9704 C   0  0  2  0  0  0  0  0  0  0  0  0
   22.4244  -20.5189  -16.0022 C   0  0  0  0  0  0  0  0  0  0  0  0
   21.8523  -20.6121  -13.5599 C   0  0  2  0  0  0  0  0  0  0  0  0
   23.0977  -21.2709  -13.2549 N   0  0  0  0  0  0  0  0  0  0  0  0
   20.7872  -20.9370  -12.5792 C   0  0  0  0  0  0  0  0  0  0  0  0
   20.9299  -21.8977  -11.7852 O   0  0  0  0  0  0  0  0  0  0  0  0
   19.6084  -20.2180  -12.4876 O   0  0  0  0  0  0  0  0  0  0  0  0
  2  1  1  0
  2  3  2  0
  4  2  1  0
  5  7  1  0
  5  4  1  0
  5  6  1  1
  7  8  2  0
  9 10  1  0
 10 11  1  0
 11 12  1  0
 13 12  1  1
 14 13  1  0
 14  7  1  0
 15 16  2  0
 15 13  1  0
 18 17  1  1
 19 18  1  0
 20 18  1  0
 20 21  1  1
 21 15  1  0
 22 20  1  0
 23 22  2  0
 24 22  1  0
M  END
$$$$
