NMV.pdb
     RDKit          3D

 24 23  0  0  1  0  0  0  0  0999 V2000
   17.0883  -11.7359  -19.1499 N   0  0  0  0  0  0  0  0  0  0  0  0
   16.8112  -10.6493  -18.2971 C   0  0  0  0  0  0  0  0  0  0  0  0
   15.7698   -9.9757  -18.5238 O   0  0  0  0  0  0  0  0  0  0  0  0
   17.6560  -10.2405  -17.1522 C   0  0  0  0  0  0  0  0  0  0  0  0
   18.8221  -11.1684  -16.9535 C   0  0  2  0  0  0  0  0  0  0  0  0
   18.4638  -12.3790  -16.2626 N   0  0  0  0  0  0  0  0  0  0  0  0
   19.8393  -10.4381  -16.1606 C   0  0  0  0  0  0  0  0  0  0  0  0
   19.6686  -10.2559  -14.9250 O   0  0  0  0  0  0  0  0  0  0  0  0
   26.4795  -10.9309  -14.2797 C   0  0  0  0  0  0  0  0  0  0  0  0
   26.0906   -9.9380  -15.7510 S   0  0  0  0  0  0  0  0  0  0  0  0
   24.4825   -9.0999  -15.3996 C   0  0  0  0  0  0  0  0  0  0  0  0
   23.3894   -9.7941  -16.1464 C   0  0  0  0  0  0  0  0  0  0  0  0
   22.0314   -9.2250  -15.8720 C   0  0  2  0  0  0  0  0  0  0  0  0
   21.0264   -9.9153  -16.7155 N   0  0  0  0  0  0  0  0  0  0  0  0
   21.9945   -7.7773  -16.1728 C   0  0  0  0  0  0  0  0  0  0  0  0
   22.2561   -7.3542  -17.2969 O   0  0  0  0  0  0  0  0  0  0  0  0
   19.4518   -4.9833  -14.4666 C   0  0  0  0  0  0  0  0  0  0  0  0
   20.3369   -4.8544  -15.6577 C   0  0  2  0  0  0  0  0  0  0  0  0
   19.7192   -5.4582  -16.9025 C   0  0  0  0  0  0  0  0  0  0  0  0
   21.7425   -5.3951  -15.4183 C   0  0  2  0  0  0  0  0  0  0  0  0
   21.6519   -6.8110  -15.1637 N   0  0  0  0  0  0  0  0  0  0  0  0
   22.4064   -4.6640  -14.3107 C   0  0  0  0  0  0  0  0  0  0  0  0
   22.8032   -3.4858  -14.4786 O   0  0  0  0  0  0  0  0  0  0  0  0
   22.6195   -5.2256  -13.0641 O   0  0  0  0  0  0  0  0  0  0  0  0
  2  1  1  0
  2  3  2  0
  4  2  1  0
  5  7  1  0
  5  4  1  0
  5  6  1  1
  7  8  2  0
  9 10  1  0
 10 11  1  0
 11 12  1  0
 13 12  1  6
 14 13  1  0
 14  7  1  0
 15 16  2  0
 15 13  1  0
 18 17  1  1
 19 18  1  0
 20 18  1  0
 20 21  1  1
 21 15  1  0
 22 20  1  0
 23 22  2  0
 24 22  1  0
M  END
$$$$
