PRF.pdb
     RDKit          3D

 30 31  0  0  1  0  0  0  0  0999 V2000
    9.1765  -14.0894   19.4512 N   0  0  0  0  0  0  0  0  0  0  0  0
    8.5341  -13.9265   18.1594 C   0  0  0  0  0  0  0  0  0  0  0  0
    7.5757  -12.7630   18.3322 C   0  0  0  0  0  0  0  0  0  0  0  0
    7.1329  -12.9175   19.7694 C   0  0  0  0  0  0  0  0  0  0  0  0
    8.2788  -13.5677   20.4330 C   0  0  1  0  0  0  0  0  0  0  0  0
    7.9150  -14.6000   21.4248 C   0  0  0  0  0  0  0  0  0  0  0  0
    6.9914  -14.3261   22.2310 O   0  0  0  0  0  0  0  0  0  0  0  0
    7.5301  -22.1681   20.5122 N   0  0  0  0  0  0  0  0  0  0  0  0
    7.1591  -22.3308   21.8707 C   0  0  0  0  0  0  0  0  0  0  0  0
    6.1452  -23.0597   22.1789 N   0  0  0  0  0  0  0  0  0  0  0  0
    7.8799  -21.7035   22.9339 N   0  0  0  0  0  0  0  0  0  0  0  0
    8.8376  -20.6536   22.7003 C   0  0  0  0  0  0  0  0  0  0  0  0
    8.2668  -19.2895   23.0599 C   0  0  0  0  0  0  0  0  0  0  0  0
    8.7608  -18.2225   22.1204 C   0  0  0  0  0  0  0  0  0  0  0  0
    8.1154  -16.8688   22.4505 C   0  0  2  0  0  0  0  0  0  0  0  0
    8.5639  -15.8657   21.4926 N   0  0  0  0  0  0  0  0  0  0  0  0
    8.7222  -16.4869   23.7746 C   0  0  0  0  0  0  0  0  0  0  0  0
    9.8837  -16.0004   23.8536 O   0  0  0  0  0  0  0  0  0  0  0  0
    5.8932  -23.3047   23.1435 N   0  0  0  0  0  0  0  0  0  0  0  0
    8.0437  -16.6445   24.9950 C   0  0  2  0  0  0  0  0  0  0  0  0
    8.6254  -16.3049   26.2352 C   0  0  0  0  0  0  0  0  0  0  0  0
    7.7578  -15.5961   27.2167 C   0  0  0  0  0  0  0  0  0  0  0  0
    7.3423  -14.2220   26.7827 C   0  0  0  0  0  0  0  0  0  0  0  0
    6.0688  -13.9885   26.3008 C   0  0  0  0  0  0  0  0  0  0  0  0
    5.7184  -12.7203   25.9036 C   0  0  0  0  0  0  0  0  0  0  0  0
    6.5934  -11.6519   25.9648 C   0  0  0  0  0  0  0  0  0  0  0  0
    7.8589  -11.8732   26.4414 C   0  0  0  0  0  0  0  0  0  0  0  0
    8.2036  -13.1502   26.8384 C   0  0  0  0  0  0  0  0  0  0  0  0
    9.1946  -17.5091   26.8751 O   0  0  0  0  0  0  0  0  0  0  0  0
   10.0190  -17.4467   28.0090 O   0  0  0  0  0  0  0  0  0  0  0  0
  1  2  1  0
  3  2  1  0
  4  5  1  0
  4  3  1  0
  5  1  1  0
  6 16  1  0
  5  6  1  1
  7  6  2  0
  9 10  2  0
  9  8  1  0
 11  9  1  0
 12 11  1  0
 12 13  1  0
 14 13  1  0
 15 14  1  6
 15 16  1  0
 17 19  1  0
 17 15  1  0
 18 17  2  0
 20 19  1  0
 20 28  1  0
 21 22  1  0
 20 21  1  6
 22 27  1  0
 23 22  2  0
 23 24  1  0
 24 25  2  0
 25 26  1  0
 27 26  2  0
 28 29  1  0
 30 28  2  0
M  END
$$$$
