PRF.pdb
     RDKit          3D

 30 31  0  0  1  0  0  0  0  0999 V2000
   10.3101  -18.8049   19.0333 N   0  0  0  0  0  0  0  0  0  0  0  0
    9.9287  -18.8228   17.6325 C   0  0  0  0  0  0  0  0  0  0  0  0
   11.1684  -18.3870   16.8739 C   0  0  0  0  0  0  0  0  0  0  0  0
   11.8039  -17.4021   17.8286 C   0  0  0  0  0  0  0  0  0  0  0  0
   11.3802  -17.8669   19.1631 C   0  0  1  0  0  0  0  0  0  0  0  0
   11.0327  -16.7895   20.1118 C   0  0  0  0  0  0  0  0  0  0  0  0
   11.9681  -16.0598   20.5247 O   0  0  0  0  0  0  0  0  0  0  0  0
    7.7339  -15.3680   17.1920 N   0  0  0  0  0  0  0  0  0  0  0  0
    7.7871  -13.9573   17.0635 C   0  0  0  0  0  0  0  0  0  0  0  0
    8.3256  -13.4248   16.0239 N   0  0  0  0  0  0  0  0  0  0  0  0
    7.2571  -13.0842   18.0637 N   0  0  0  0  0  0  0  0  0  0  0  0
    7.1829  -13.4593   19.4522 C   0  0  0  0  0  0  0  0  0  0  0  0
    8.4069  -14.2563   19.8795 C   0  0  0  0  0  0  0  0  0  0  0  0
    8.3007  -14.6990   21.3140 C   0  0  0  0  0  0  0  0  0  0  0  0
    9.4505  -15.6510   21.6739 C   0  0  2  0  0  0  0  0  0  0  0  0
    9.7014  -16.5587   20.5612 N   0  0  0  0  0  0  0  0  0  0  0  0
    8.8917  -16.4957   22.7881 C   0  0  0  0  0  0  0  0  0  0  0  0
    8.0502  -17.4094   22.5665 O   0  0  0  0  0  0  0  0  0  0  0  0
    8.3989  -12.4113   15.8774 N   0  0  0  0  0  0  0  0  0  0  0  0
    9.2657  -16.3250   24.1317 C   0  0  1  0  0  0  0  0  0  0  0  0
    8.5256  -15.5257   25.0291 C   0  0  0  0  0  0  0  0  0  0  0  0
    8.3701  -14.0860   24.6807 C   0  0  0  0  0  0  0  0  0  0  0  0
    7.6373  -13.2838   25.7145 C   0  0  0  0  0  0  0  0  0  0  0  0
    8.2707  -12.8784   26.8734 C   0  0  0  0  0  0  0  0  0  0  0  0
    7.5717  -12.1504   27.8064 C   0  0  0  0  0  0  0  0  0  0  0  0
    6.2454  -11.7997   27.6368 C   0  0  0  0  0  0  0  0  0  0  0  0
    5.6083  -12.1971   26.4906 C   0  0  0  0  0  0  0  0  0  0  0  0
    6.3172  -12.9284   25.5580 C   0  0  0  0  0  0  0  0  0  0  0  0
    7.1893  -16.1161   25.2505 O   0  0  0  0  0  0  0  0  0  0  0  0
    6.8188  -16.7197   26.4620 O   0  0  0  0  0  0  0  0  0  0  0  0
  1  2  1  0
  3  2  1  0
  4  5  1  0
  4  3  1  0
  5  1  1  0
  6 16  1  0
  5  6  1  1
  7  6  2  0
  9 10  2  0
  9  8  1  0
 11  9  1  0
 12 11  1  0
 12 13  1  0
 14 13  1  0
 15 14  1  6
 15 16  1  0
 17 19  1  0
 17 15  1  0
 18 17  2  0
 20 19  1  0
 20 28  1  0
 21 22  1  0
 20 21  1  1
 22 27  1  0
 23 22  2  0
 23 24  1  0
 24 25  2  0
 25 26  1  0
 27 26  2  0
 28 29  1  0
 30 28  2  0
M  END
$$$$
