PRF.pdb
     RDKit          3D

 30 31  0  0  1  0  0  0  0  0999 V2000
    9.2692  -14.2265   18.3133 N   0  0  0  0  0  0  0  0  0  0  0  0
    8.4309  -14.2442   17.1279 C   0  0  0  0  0  0  0  0  0  0  0  0
    7.3666  -13.1912   17.3739 C   0  0  0  0  0  0  0  0  0  0  0  0
    7.1601  -13.2810   18.8688 C   0  0  0  0  0  0  0  0  0  0  0  0
    8.4637  -13.7369   19.3873 C   0  0  1  0  0  0  0  0  0  0  0  0
    8.3827  -14.7220   20.4849 C   0  0  0  0  0  0  0  0  0  0  0  0
    7.6730  -14.4234   21.4775 O   0  0  0  0  0  0  0  0  0  0  0  0
   10.2298  -21.9654   24.6328 N   0  0  0  0  0  0  0  0  0  0  0  0
    9.8131  -22.3275   23.3271 C   0  0  0  0  0  0  0  0  0  0  0  0
    9.2025  -23.4425   23.1315 N   0  0  0  0  0  0  0  0  0  0  0  0
   10.0501  -21.4871   22.1952 N   0  0  0  0  0  0  0  0  0  0  0  0
   10.7569  -20.2367   22.2992 C   0  0  0  0  0  0  0  0  0  0  0  0
    9.7983  -19.0691   22.4830 C   0  0  0  0  0  0  0  0  0  0  0  0
    9.9369  -18.0645   21.3710 C   0  0  0  0  0  0  0  0  0  0  0  0
    8.9726  -16.8880   21.5804 C   0  0  2  0  0  0  0  0  0  0  0  0
    9.0678  -15.9698   20.4522 N   0  0  0  0  0  0  0  0  0  0  0  0
    9.5400  -16.1560   22.7675 C   0  0  0  0  0  0  0  0  0  0  0  0
   10.4662  -15.3085   22.6406 O   0  0  0  0  0  0  0  0  0  0  0  0
    8.9342  -23.7886   22.2030 N   0  0  0  0  0  0  0  0  0  0  0  0
    9.0814  -16.3650   24.0792 C   0  0  2  0  0  0  0  0  0  0  0  0
    8.7531  -15.3009   24.9462 C   0  0  0  0  0  0  0  0  0  0  0  0
    7.5743  -14.4685   24.5777 C   0  0  0  0  0  0  0  0  0  0  0  0
    7.3284  -13.3150   25.5041 C   0  0  0  0  0  0  0  0  0  0  0  0
    6.8509  -13.5258   26.7832 C   0  0  0  0  0  0  0  0  0  0  0  0
    6.6281  -12.4489   27.6075 C   0  0  0  0  0  0  0  0  0  0  0  0
    6.8629  -11.1457   27.2107 C   0  0  0  0  0  0  0  0  0  0  0  0
    7.3365  -10.9261   25.9438 C   0  0  0  0  0  0  0  0  0  0  0  0
    7.5577  -12.0132   25.1214 C   0  0  0  0  0  0  0  0  0  0  0  0
    8.5766  -15.8051   26.3238 O   0  0  0  0  0  0  0  0  0  0  0  0
    7.6113  -16.7663   26.6611 O   0  0  0  0  0  0  0  0  0  0  0  0
  1  2  1  0
  3  2  1  0
  4  5  1  0
  4  3  1  0
  5  1  1  0
  6 16  1  0
  5  6  1  1
  7  6  2  0
  9 10  2  0
  9  8  1  0
 11  9  1  0
 12 11  1  0
 12 13  1  0
 14 13  1  0
 15 14  1  6
 15 16  1  0
 17 19  1  0
 17 15  1  0
 18 17  2  0
 20 19  1  0
 20 28  1  0
 21 22  1  0
 20 21  1  6
 22 27  1  0
 23 22  2  0
 23 24  1  0
 24 25  2  0
 25 26  1  0
 27 26  2  0
 28 29  1  0
 30 28  2  0
M  END
$$$$
