PRF.pdb
     RDKit          3D

 30 31  0  0  1  0  0  0  0  0999 V2000
    9.1849  -14.3669   18.4400 N   0  0  0  0  0  0  0  0  0  0  0  0
    8.1831  -14.2294   17.3980 C   0  0  0  0  0  0  0  0  0  0  0  0
    7.4156  -12.9671   17.7439 C   0  0  0  0  0  0  0  0  0  0  0  0
    7.4364  -12.9781   19.2555 C   0  0  0  0  0  0  0  0  0  0  0  0
    8.6817  -13.6924   19.5949 C   0  0  1  0  0  0  0  0  0  0  0  0
    8.5729  -14.6131   20.7448 C   0  0  0  0  0  0  0  0  0  0  0  0
    8.0187  -14.1761   21.7840 O   0  0  0  0  0  0  0  0  0  0  0  0
   10.9167  -19.8776   19.8735 N   0  0  0  0  0  0  0  0  0  0  0  0
    9.8907  -20.0979   18.9204 C   0  0  0  0  0  0  0  0  0  0  0  0
   10.1551  -20.0367   17.6631 N   0  0  0  0  0  0  0  0  0  0  0  0
    8.5459  -20.3897   19.3077 N   0  0  0  0  0  0  0  0  0  0  0  0
    8.1026  -20.3030   20.6752 C   0  0  0  0  0  0  0  0  0  0  0  0
    7.9233  -18.8562   21.1115 C   0  0  0  0  0  0  0  0  0  0  0  0
    9.2306  -18.2455   21.5391 C   0  0  0  0  0  0  0  0  0  0  0  0
    9.0413  -16.7690   21.9162 C   0  0  2  0  0  0  0  0  0  0  0  0
    9.0651  -15.9488   20.7114 N   0  0  0  0  0  0  0  0  0  0  0  0
   10.2895  -16.4242   22.6845 C   0  0  0  0  0  0  0  0  0  0  0  0
   11.2777  -17.2076   22.7261 O   0  0  0  0  0  0  0  0  0  0  0  0
    9.4684  -20.2387   16.9272 N   0  0  0  0  0  0  0  0  0  0  0  0
   10.4352  -15.2219   23.3971 C   0  0  2  0  0  0  0  0  0  0  0  0
   10.6299  -15.1877   24.7946 C   0  0  0  0  0  0  0  0  0  0  0  0
    9.4352  -14.9000   25.6362 C   0  0  0  0  0  0  0  0  0  0  0  0
    9.7309  -14.8062   27.1035 C   0  0  0  0  0  0  0  0  0  0  0  0
    9.7616  -13.5809   27.7408 C   0  0  0  0  0  0  0  0  0  0  0  0
   10.0425  -13.5251   29.0850 C   0  0  0  0  0  0  0  0  0  0  0  0
   10.2993  -14.6542   29.8401 C   0  0  0  0  0  0  0  0  0  0  0  0
   10.2710  -15.8743   29.2171 C   0  0  0  0  0  0  0  0  0  0  0  0
    9.9883  -15.9222   27.8662 C   0  0  0  0  0  0  0  0  0  0  0  0
   11.2501  -16.4487   25.2513 O   0  0  0  0  0  0  0  0  0  0  0  0
   12.5180  -16.4959   25.8510 O   0  0  0  0  0  0  0  0  0  0  0  0
  1  2  1  0
  3  2  1  0
  4  5  1  0
  4  3  1  0
  5  1  1  0
  6 16  1  0
  5  6  1  1
  7  6  2  0
  9 10  2  0
  9  8  1  0
 11  9  1  0
 12 11  1  0
 12 13  1  0
 14 13  1  0
 15 14  1  6
 15 16  1  0
 17 19  1  0
 17 15  1  0
 18 17  2  0
 20 19  1  0
 20 28  1  0
 21 22  1  0
 20 21  1  6
 22 27  1  0
 23 22  2  0
 23 24  1  0
 24 25  2  0
 25 26  1  0
 27 26  2  0
 28 29  1  0
 30 28  2  0
M  END
$$$$
