PRF.pdb
     RDKit          3D

 30 31  0  0  1  0  0  0  0  0999 V2000
    8.9246  -14.4048   19.3848 N   0  0  0  0  0  0  0  0  0  0  0  0
    8.0868  -14.1503   18.2266 C   0  0  0  0  0  0  0  0  0  0  0  0
    7.4283  -12.8100   18.4950 C   0  0  0  0  0  0  0  0  0  0  0  0
    7.2534  -12.8287   19.9965 C   0  0  0  0  0  0  0  0  0  0  0  0
    8.3564  -13.6815   20.4785 C   0  0  1  0  0  0  0  0  0  0  0  0
    7.9980  -14.5879   21.5883 C   0  0  0  0  0  0  0  0  0  0  0  0
    7.2033  -14.1506   22.4573 O   0  0  0  0  0  0  0  0  0  0  0  0
   10.6866  -18.6792   18.6195 N   0  0  0  0  0  0  0  0  0  0  0  0
    9.5750  -19.5140   18.3420 C   0  0  0  0  0  0  0  0  0  0  0  0
    9.1223  -19.6066   17.1416 N   0  0  0  0  0  0  0  0  0  0  0  0
    8.9220  -20.2716   19.3634 N   0  0  0  0  0  0  0  0  0  0  0  0
    9.0328  -19.9371   20.7598 C   0  0  0  0  0  0  0  0  0  0  0  0
    8.5051  -18.5376   21.0404 C   0  0  0  0  0  0  0  0  0  0  0  0
    8.5485  -18.2189   22.5107 C   0  0  0  0  0  0  0  0  0  0  0  0
    8.0551  -16.7881   22.7697 C   0  0  2  0  0  0  0  0  0  0  0  0
    8.5135  -15.9106   21.6997 N   0  0  0  0  0  0  0  0  0  0  0  0
    8.7974  -16.3633   24.0090 C   0  0  0  0  0  0  0  0  0  0  0  0
    9.9710  -15.9036   23.9515 O   0  0  0  0  0  0  0  0  0  0  0  0
    8.2967  -20.1607   16.8864 N   0  0  0  0  0  0  0  0  0  0  0  0
    8.2394  -16.4492   25.2957 C   0  0  1  0  0  0  0  0  0  0  0  0
    8.9544  -16.0884   26.4579 C   0  0  0  0  0  0  0  0  0  0  0  0
    8.2625  -15.1922   27.4255 C   0  0  0  0  0  0  0  0  0  0  0  0
    7.7325  -13.9288   26.8155 C   0  0  0  0  0  0  0  0  0  0  0  0
    6.4114  -13.8343   26.4225 C   0  0  0  0  0  0  0  0  0  0  0  0
    5.9557  -12.6663   25.8596 C   0  0  0  0  0  0  0  0  0  0  0  0
    6.7691  -11.5655   25.6657 C   0  0  0  0  0  0  0  0  0  0  0  0
    8.0810  -11.6493   26.0523 C   0  0  0  0  0  0  0  0  0  0  0  0
    8.5316  -12.8263   26.6169 C   0  0  0  0  0  0  0  0  0  0  0  0
    9.4153  -17.3004   27.1665 O   0  0  0  0  0  0  0  0  0  0  0  0
   10.2538  -17.2482   28.2905 O   0  0  0  0  0  0  0  0  0  0  0  0
  1  2  1  0
  3  2  1  0
  4  5  1  0
  4  3  1  0
  5  1  1  0
  6 16  1  0
  5  6  1  1
  7  6  2  0
  9 10  2  0
  9  8  1  0
 11  9  1  0
 12 11  1  0
 12 13  1  0
 14 13  1  0
 15 14  1  6
 15 16  1  0
 17 19  1  0
 17 15  1  0
 18 17  2  0
 20 19  1  0
 20 28  1  0
 21 22  1  0
 20 21  1  1
 22 27  1  0
 23 22  2  0
 23 24  1  0
 24 25  2  0
 25 26  1  0
 27 26  2  0
 28 29  1  0
 30 28  2  0
M  END
$$$$
