PRF.pdb
     RDKit          3D

 30 31  0  0  1  0  0  0  0  0999 V2000
    9.1560  -14.6163   18.9570 N   0  0  0  0  0  0  0  0  0  0  0  0
    8.2857  -14.5835   17.7953 C   0  0  0  0  0  0  0  0  0  0  0  0
    7.4823  -13.3037   17.9324 C   0  0  0  0  0  0  0  0  0  0  0  0
    7.3227  -13.1791   19.4305 C   0  0  0  0  0  0  0  0  0  0  0  0
    8.5187  -13.8467   19.9785 C   0  0  1  0  0  0  0  0  0  0  0  0
    8.2736  -14.6618   21.1855 C   0  0  0  0  0  0  0  0  0  0  0  0
    7.6470  -14.1208   22.1303 O   0  0  0  0  0  0  0  0  0  0  0  0
    9.5030  -18.7785   18.2710 N   0  0  0  0  0  0  0  0  0  0  0  0
   10.1184  -20.0081   18.6159 C   0  0  0  0  0  0  0  0  0  0  0  0
   10.9539  -20.5595   17.8083 N   0  0  0  0  0  0  0  0  0  0  0  0
    9.8412  -20.6749   19.8497 N   0  0  0  0  0  0  0  0  0  0  0  0
    8.8762  -20.1755   20.7948 C   0  0  0  0  0  0  0  0  0  0  0  0
    9.2049  -18.7540   21.2274 C   0  0  0  0  0  0  0  0  0  0  0  0
    8.1844  -18.2258   22.1993 C   0  0  0  0  0  0  0  0  0  0  0  0
    8.4672  -16.7545   22.5358 C   0  0  2  0  0  0  0  0  0  0  0  0
    8.7154  -16.0100   21.3073 N   0  0  0  0  0  0  0  0  0  0  0  0
    9.7777  -16.7933   23.2762 C   0  0  0  0  0  0  0  0  0  0  0  0
   10.4372  -17.8622   23.3968 O   0  0  0  0  0  0  0  0  0  0  0  0
   11.4291  -21.4487   18.0014 N   0  0  0  0  0  0  0  0  0  0  0  0
   10.3465  -15.6560   23.8741 C   0  0  1  0  0  0  0  0  0  0  0  0
    9.6426  -14.8520   24.7961 C   0  0  0  0  0  0  0  0  0  0  0  0
    8.2716  -14.4198   24.4063 C   0  0  0  0  0  0  0  0  0  0  0  0
    7.6156  -13.5047   25.3971 C   0  0  0  0  0  0  0  0  0  0  0  0
    6.6925  -12.5630   24.9852 C   0  0  0  0  0  0  0  0  0  0  0  0
    6.1130  -11.7330   25.9149 C   0  0  0  0  0  0  0  0  0  0  0  0
    6.4149  -11.7975   27.2623 C   0  0  0  0  0  0  0  0  0  0  0  0
    7.3293  -12.7283   27.6808 C   0  0  0  0  0  0  0  0  0  0  0  0
    7.9075  -13.5585   26.7408 C   0  0  0  0  0  0  0  0  0  0  0  0
    9.5820  -15.5228   26.1112 O   0  0  0  0  0  0  0  0  0  0  0  0
    9.0319  -16.8022   26.2847 O   0  0  0  0  0  0  0  0  0  0  0  0
  1  2  1  0
  3  2  1  0
  4  5  1  0
  4  3  1  0
  5  1  1  0
  6 16  1  0
  5  6  1  1
  7  6  2  0
  9 10  2  0
  9  8  1  0
 11  9  1  0
 12 11  1  0
 12 13  1  0
 14 13  1  0
 15 14  1  6
 15 16  1  0
 17 19  1  0
 17 15  1  0
 18 17  2  0
 20 19  1  0
 20 28  1  0
 21 22  1  0
 20 21  1  6
 22 27  1  0
 23 22  2  0
 23 24  1  0
 24 25  2  0
 25 26  1  0
 27 26  2  0
 28 29  1  0
 30 28  2  0
M  END
$$$$
