PRF.pdb
     RDKit          3D

 30 31  0  0  1  0  0  0  0  0999 V2000
    9.2137  -13.9792   19.5506 N   0  0  0  0  0  0  0  0  0  0  0  0
    8.5017  -13.8887   18.2885 C   0  0  0  0  0  0  0  0  0  0  0  0
    7.4128  -12.8568   18.5158 C   0  0  0  0  0  0  0  0  0  0  0  0
    7.0544  -13.0770   19.9678 C   0  0  0  0  0  0  0  0  0  0  0  0
    8.3001  -13.5826   20.5752 C   0  0  1  0  0  0  0  0  0  0  0  0
    8.1114  -14.6601   21.5676 C   0  0  0  0  0  0  0  0  0  0  0  0
    7.1305  -14.5628   22.3463 O   0  0  0  0  0  0  0  0  0  0  0  0
    7.7424  -20.2648   19.4078 N   0  0  0  0  0  0  0  0  0  0  0  0
    8.9396  -20.2300   18.6493 C   0  0  0  0  0  0  0  0  0  0  0  0
    8.8936  -20.3282   17.3677 N   0  0  0  0  0  0  0  0  0  0  0  0
   10.2226  -20.0888   19.2637 N   0  0  0  0  0  0  0  0  0  0  0  0
   10.3792  -19.6590   20.6294 C   0  0  0  0  0  0  0  0  0  0  0  0
    9.4359  -18.5126   20.9637 C   0  0  0  0  0  0  0  0  0  0  0  0
    9.6380  -18.0286   22.3743 C   0  0  0  0  0  0  0  0  0  0  0  0
    8.7447  -16.8136   22.6636 C   0  0  2  0  0  0  0  0  0  0  0  0
    8.9867  -15.7790   21.6656 N   0  0  0  0  0  0  0  0  0  0  0  0
    9.2719  -16.2731   23.9663 C   0  0  0  0  0  0  0  0  0  0  0  0
   10.2987  -15.5412   24.0109 O   0  0  0  0  0  0  0  0  0  0  0  0
    9.7263  -20.4176   16.7740 N   0  0  0  0  0  0  0  0  0  0  0  0
    8.6629  -16.5440   25.2033 C   0  0  1  0  0  0  0  0  0  0  0  0
    9.2013  -16.0945   26.4280 C   0  0  0  0  0  0  0  0  0  0  0  0
    8.2998  -15.3055   27.3130 C   0  0  0  0  0  0  0  0  0  0  0  0
    7.8539  -14.0010   26.7225 C   0  0  0  0  0  0  0  0  0  0  0  0
    6.6414  -13.8997   26.0680 C   0  0  0  0  0  0  0  0  0  0  0  0
    6.2623  -12.6930   25.5305 C   0  0  0  0  0  0  0  0  0  0  0  0
    7.0488  -11.5594   25.6155 C   0  0  0  0  0  0  0  0  0  0  0  0
    8.2532  -11.6495   26.2627 C   0  0  0  0  0  0  0  0  0  0  0  0
    8.6273  -12.8655   26.8000 C   0  0  0  0  0  0  0  0  0  0  0  0
    9.7491  -17.2354   27.1905 O   0  0  0  0  0  0  0  0  0  0  0  0
   10.4798  -17.0728   28.3775 O   0  0  0  0  0  0  0  0  0  0  0  0
  1  2  1  0
  3  2  1  0
  4  5  1  0
  4  3  1  0
  5  1  1  0
  6 16  1  0
  5  6  1  1
  7  6  2  0
  9 10  2  0
  9  8  1  0
 11  9  1  0
 12 11  1  0
 12 13  1  0
 14 13  1  0
 15 14  1  6
 15 16  1  0
 17 19  1  0
 17 15  1  0
 18 17  2  0
 20 19  1  0
 20 28  1  0
 21 22  1  0
 20 21  1  1
 22 27  1  0
 23 22  2  0
 23 24  1  0
 24 25  2  0
 25 26  1  0
 27 26  2  0
 28 29  1  0
 30 28  2  0
M  END
$$$$
