PRF.pdb
     RDKit          3D

 30 31  0  0  1  0  0  0  0  0999 V2000
    9.1686  -14.2283   19.0422 N   0  0  0  0  0  0  0  0  0  0  0  0
    8.4100  -13.8775   17.8549 C   0  0  0  0  0  0  0  0  0  0  0  0
    7.8944  -12.4734   18.1090 C   0  0  0  0  0  0  0  0  0  0  0  0
    7.6603  -12.4785   19.6025 C   0  0  0  0  0  0  0  0  0  0  0  0
    8.6422  -13.4507   20.1193 C   0  0  1  0  0  0  0  0  0  0  0  0
    8.1424  -14.3160   21.2070 C   0  0  0  0  0  0  0  0  0  0  0  0
    7.4810  -13.7676   22.1234 O   0  0  0  0  0  0  0  0  0  0  0  0
    7.4976  -22.3423   18.8739 N   0  0  0  0  0  0  0  0  0  0  0  0
    6.9952  -21.1819   18.2330 C   0  0  0  0  0  0  0  0  0  0  0  0
    6.5994  -21.2411   17.0106 N   0  0  0  0  0  0  0  0  0  0  0  0
    6.9102  -19.9221   18.9034 N   0  0  0  0  0  0  0  0  0  0  0  0
    7.2994  -19.7548   20.2798 C   0  0  0  0  0  0  0  0  0  0  0  0
    7.0972  -18.3199   20.7448 C   0  0  0  0  0  0  0  0  0  0  0  0
    7.9283  -18.0148   21.9619 C   0  0  0  0  0  0  0  0  0  0  0  0
    7.8285  -16.5266   22.3269 C   0  0  2  0  0  0  0  0  0  0  0  0
    8.3817  -15.7191   21.2467 N   0  0  0  0  0  0  0  0  0  0  0  0
    8.7692  -16.3714   23.4924 C   0  0  0  0  0  0  0  0  0  0  0  0
   10.0207  -16.3490   23.3332 O   0  0  0  0  0  0  0  0  0  0  0  0
    6.2538  -20.4298   16.4849 N   0  0  0  0  0  0  0  0  0  0  0  0
    8.3216  -16.2423   24.8180 C   0  0  1  0  0  0  0  0  0  0  0  0
    9.2084  -16.1246   25.9097 C   0  0  0  0  0  0  0  0  0  0  0  0
    9.5117  -14.7471   26.3880 C   0  0  0  0  0  0  0  0  0  0  0  0
    8.3756  -13.7814   26.2268 C   0  0  0  0  0  0  0  0  0  0  0  0
    8.6154  -12.4348   26.0323 C   0  0  0  0  0  0  0  0  0  0  0  0
    7.5542  -11.5723   25.8950 C   0  0  0  0  0  0  0  0  0  0  0  0
    6.2391  -11.9953   25.9431 C   0  0  0  0  0  0  0  0  0  0  0  0
    5.9908  -13.3290   26.1356 C   0  0  0  0  0  0  0  0  0  0  0  0
    7.0622  -14.1894   26.2729 C   0  0  0  0  0  0  0  0  0  0  0  0
    8.7239  -16.9348   27.0464 O   0  0  0  0  0  0  0  0  0  0  0  0
    9.5098  -17.1980   28.1788 O   0  0  0  0  0  0  0  0  0  0  0  0
  1  2  1  0
  3  2  1  0
  4  5  1  0
  4  3  1  0
  5  1  1  0
  6 16  1  0
  5  6  1  1
  7  6  2  0
  9 10  2  0
  9  8  1  0
 11  9  1  0
 12 11  1  0
 12 13  1  0
 14 13  1  0
 15 14  1  6
 15 16  1  0
 17 19  1  0
 17 15  1  0
 18 17  2  0
 20 19  1  0
 20 28  1  0
 21 22  1  0
 20 21  1  6
 22 27  1  0
 23 22  2  0
 23 24  1  0
 24 25  2  0
 25 26  1  0
 27 26  2  0
 28 29  1  0
 30 28  2  0
M  END
$$$$
