PRF.pdb
     RDKit          3D

 30 31  0  0  1  0  0  0  0  0999 V2000
    9.1216  -14.6132   18.6289 N   0  0  0  0  0  0  0  0  0  0  0  0
    8.1624  -14.1962   17.6219 C   0  0  0  0  0  0  0  0  0  0  0  0
    7.7760  -12.7783   17.9992 C   0  0  0  0  0  0  0  0  0  0  0  0
    7.8402  -12.8149   19.5092 C   0  0  0  0  0  0  0  0  0  0  0  0
    8.8559  -13.8436   19.8032 C   0  0  1  0  0  0  0  0  0  0  0  0
    8.5382  -14.7161   20.9519 C   0  0  0  0  0  0  0  0  0  0  0  0
    8.2736  -14.1575   22.0455 O   0  0  0  0  0  0  0  0  0  0  0  0
    7.3094  -21.4095   24.9619 N   0  0  0  0  0  0  0  0  0  0  0  0
    6.0707  -21.6088   24.3020 C   0  0  0  0  0  0  0  0  0  0  0  0
    5.1153  -22.2300   24.8984 N   0  0  0  0  0  0  0  0  0  0  0  0
    5.8358  -21.1391   22.9723 N   0  0  0  0  0  0  0  0  0  0  0  0
    6.8731  -20.5398   22.1730 C   0  0  0  0  0  0  0  0  0  0  0  0
    7.1475  -19.1056   22.6016 C   0  0  0  0  0  0  0  0  0  0  0  0
    8.0732  -18.4123   21.6386 C   0  0  0  0  0  0  0  0  0  0  0  0
    8.2807  -16.9465   22.0467 C   0  0  2  0  0  0  0  0  0  0  0  0
    8.5228  -16.1369   20.8589 N   0  0  0  0  0  0  0  0  0  0  0  0
    9.5744  -16.9604   22.8171 C   0  0  0  0  0  0  0  0  0  0  0  0
   10.6071  -16.3782   22.3852 O   0  0  0  0  0  0  0  0  0  0  0  0
    4.2142  -22.4458   24.4565 N   0  0  0  0  0  0  0  0  0  0  0  0
    9.7156  -17.6140   24.0529 C   0  0  2  0  0  0  0  0  0  0  0  0
    9.8090  -16.9136   25.2747 C   0  0  0  0  0  0  0  0  0  0  0  0
    9.0134  -15.6605   25.3974 C   0  0  0  0  0  0  0  0  0  0  0  0
    9.1890  -14.9521   26.7076 C   0  0  0  0  0  0  0  0  0  0  0  0
   10.3544  -15.0932   27.4361 C   0  0  0  0  0  0  0  0  0  0  0  0
   10.4841  -14.4377   28.6371 C   0  0  0  0  0  0  0  0  0  0  0  0
    9.4888  -13.6319   29.1576 C   0  0  0  0  0  0  0  0  0  0  0  0
    8.3292  -13.4855   28.4425 C   0  0  0  0  0  0  0  0  0  0  0  0
    8.2061  -14.1475   27.2368 C   0  0  0  0  0  0  0  0  0  0  0  0
    9.4743  -17.8104   26.4003 O   0  0  0  0  0  0  0  0  0  0  0  0
   10.2900  -17.9396   27.5348 O   0  0  0  0  0  0  0  0  0  0  0  0
  1  2  1  0
  3  2  1  0
  4  5  1  0
  4  3  1  0
  5  1  1  0
  6 16  1  0
  5  6  1  1
  7  6  2  0
  9 10  2  0
  9  8  1  0
 11  9  1  0
 12 11  1  0
 12 13  1  0
 14 13  1  0
 15 14  1  6
 15 16  1  0
 17 19  1  0
 17 15  1  0
 18 17  2  0
 20 19  1  0
 20 28  1  0
 21 22  1  0
 20 21  1  6
 22 27  1  0
 23 22  2  0
 23 24  1  0
 24 25  2  0
 25 26  1  0
 27 26  2  0
 28 29  1  0
 30 28  2  0
M  END
$$$$
