PRF.pdb
     RDKit          3D

 30 31  0  0  1  0  0  0  0  0999 V2000
    7.0169  -19.7356   21.8616 N   0  0  0  0  0  0  0  0  0  0  0  0
    5.8950  -20.1603   21.0437 C   0  0  0  0  0  0  0  0  0  0  0  0
    6.5140  -20.7784   19.8040 C   0  0  0  0  0  0  0  0  0  0  0  0
    7.7611  -19.9454   19.6138 C   0  0  0  0  0  0  0  0  0  0  0  0
    8.1165  -19.5095   20.9776 C   0  0  1  0  0  0  0  0  0  0  0  0
    8.6019  -18.1180   21.0755 C   0  0  0  0  0  0  0  0  0  0  0  0
    9.7612  -17.8798   20.6542 O   0  0  0  0  0  0  0  0  0  0  0  0
    9.2848  -14.7891   17.6941 N   0  0  0  0  0  0  0  0  0  0  0  0
    8.5521  -13.6126   17.3962 C   0  0  0  0  0  0  0  0  0  0  0  0
    8.8672  -12.8988   16.3736 N   0  0  0  0  0  0  0  0  0  0  0  0
    7.4556  -13.1774   18.2035 N   0  0  0  0  0  0  0  0  0  0  0  0
    6.9172  -13.9824   19.2695 C   0  0  0  0  0  0  0  0  0  0  0  0
    7.5709  -13.6496   20.6029 C   0  0  0  0  0  0  0  0  0  0  0  0
    7.2464  -14.6839   21.6469 C   0  0  0  0  0  0  0  0  0  0  0  0
    8.3722  -15.7233   21.7481 C   0  0  2  0  0  0  0  0  0  0  0  0
    7.8142  -17.0639   21.6195 N   0  0  0  0  0  0  0  0  0  0  0  0
    8.8550  -15.6032   23.1693 C   0  0  0  0  0  0  0  0  0  0  0  0
    8.1398  -15.0816   24.0684 O   0  0  0  0  0  0  0  0  0  0  0  0
    8.3497  -12.0609   16.0839 N   0  0  0  0  0  0  0  0  0  0  0  0
   10.1180  -16.0586   23.5836 C   0  0  1  0  0  0  0  0  0  0  0  0
   10.5934  -15.8813   24.9006 C   0  0  0  0  0  0  0  0  0  0  0  0
    9.7638  -16.4480   26.0002 C   0  0  0  0  0  0  0  0  0  0  0  0
    9.6788  -15.5715   27.2141 C   0  0  0  0  0  0  0  0  0  0  0  0
    8.8953  -14.4336   27.2102 C   0  0  0  0  0  0  0  0  0  0  0  0
    8.8425  -13.6456   28.3350 C   0  0  0  0  0  0  0  0  0  0  0  0
    9.5468  -13.9427   29.4868 C   0  0  0  0  0  0  0  0  0  0  0  0
   10.3266  -15.0693   29.5007 C   0  0  0  0  0  0  0  0  0  0  0  0
   10.3748  -15.8559   28.3666 C   0  0  0  0  0  0  0  0  0  0  0  0
   11.9710  -16.4027   25.0171 O   0  0  0  0  0  0  0  0  0  0  0  0
   12.7761  -16.1718   26.1431 O   0  0  0  0  0  0  0  0  0  0  0  0
  1  2  1  0
  3  2  1  0
  4  5  1  0
  4  3  1  0
  5  1  1  0
  6 16  1  0
  5  6  1  6
  7  6  2  0
  9 10  2  0
  9  8  1  0
 11  9  1  0
 12 11  1  0
 12 13  1  0
 14 13  1  0
 15 14  1  1
 15 16  1  0
 17 19  1  0
 17 15  1  0
 18 17  2  0
 20 19  1  0
 20 28  1  0
 21 22  1  0
 20 21  1  6
 22 27  1  0
 23 22  2  0
 23 24  1  0
 24 25  2  0
 25 26  1  0
 27 26  2  0
 28 29  1  0
 30 28  2  0
M  END
$$$$
