PRF.pdb
     RDKit          3D

 30 31  0  0  1  0  0  0  0  0999 V2000
    9.3843  -14.2975   19.3074 N   0  0  0  0  0  0  0  0  0  0  0  0
    8.6997  -13.9899   18.0645 C   0  0  0  0  0  0  0  0  0  0  0  0
    8.0442  -12.6405   18.2914 C   0  0  0  0  0  0  0  0  0  0  0  0
    7.6876  -12.6952   19.7595 C   0  0  0  0  0  0  0  0  0  0  0  0
    8.7040  -13.5895   20.3456 C   0  0  1  0  0  0  0  0  0  0  0  0
    8.1926  -14.5158   21.3761 C   0  0  0  0  0  0  0  0  0  0  0  0
    7.3204  -14.0762   22.1660 O   0  0  0  0  0  0  0  0  0  0  0  0
    6.5101  -19.1601   18.9139 N   0  0  0  0  0  0  0  0  0  0  0  0
    7.6981  -19.7072   18.3673 C   0  0  0  0  0  0  0  0  0  0  0  0
    7.9029  -19.6641   17.0982 N   0  0  0  0  0  0  0  0  0  0  0  0
    8.6978  -20.3189   19.1858 N   0  0  0  0  0  0  0  0  0  0  0  0
    8.8979  -19.9483   20.5630 C   0  0  0  0  0  0  0  0  0  0  0  0
    8.3873  -18.5419   20.8407 C   0  0  0  0  0  0  0  0  0  0  0  0
    8.5552  -18.1729   22.2901 C   0  0  0  0  0  0  0  0  0  0  0  0
    8.1040  -16.7260   22.5366 C   0  0  2  0  0  0  0  0  0  0  0  0
    8.6473  -15.8596   21.4977 N   0  0  0  0  0  0  0  0  0  0  0  0
    8.7997  -16.3379   23.8143 C   0  0  0  0  0  0  0  0  0  0  0  0
    9.9952  -15.9342   23.8197 O   0  0  0  0  0  0  0  0  0  0  0  0
    8.7665  -19.9917   16.6502 N   0  0  0  0  0  0  0  0  0  0  0  0
    8.1718  -16.3984   25.0699 C   0  0  1  0  0  0  0  0  0  0  0  0
    8.8121  -15.9869   26.2585 C   0  0  0  0  0  0  0  0  0  0  0  0
    7.9751  -15.2777   27.2658 C   0  0  0  0  0  0  0  0  0  0  0  0
    7.2228  -14.1027   26.7156 C   0  0  0  0  0  0  0  0  0  0  0  0
    5.8909  -14.2172   26.3673 C   0  0  0  0  0  0  0  0  0  0  0  0
    5.2291  -13.1253   25.8587 C   0  0  0  0  0  0  0  0  0  0  0  0
    5.8428  -11.9001   25.6769 C   0  0  0  0  0  0  0  0  0  0  0  0
    7.1638  -11.7764   26.0195 C   0  0  0  0  0  0  0  0  0  0  0  0
    7.8220  -12.8780   26.5297 C   0  0  0  0  0  0  0  0  0  0  0  0
    9.4720  -17.1403   26.9046 O   0  0  0  0  0  0  0  0  0  0  0  0
   10.3341  -17.0024   28.0032 O   0  0  0  0  0  0  0  0  0  0  0  0
  1  2  1  0
  3  2  1  0
  4  5  1  0
  4  3  1  0
  5  1  1  0
  6 16  1  0
  5  6  1  1
  7  6  2  0
  9 10  2  0
  9  8  1  0
 11  9  1  0
 12 11  1  0
 12 13  1  0
 14 13  1  0
 15 14  1  6
 15 16  1  0
 17 19  1  0
 17 15  1  0
 18 17  2  0
 20 19  1  0
 20 28  1  0
 21 22  1  0
 20 21  1  1
 22 27  1  0
 23 22  2  0
 23 24  1  0
 24 25  2  0
 25 26  1  0
 27 26  2  0
 28 29  1  0
 30 28  2  0
M  END
$$$$
