PRF.pdb
     RDKit          3D

 30 31  0  0  1  0  0  0  0  0999 V2000
    8.8736  -14.7531   19.2938 N   0  0  0  0  0  0  0  0  0  0  0  0
    8.0798  -14.4714   18.1112 C   0  0  0  0  0  0  0  0  0  0  0  0
    7.6883  -13.0103   18.2299 C   0  0  0  0  0  0  0  0  0  0  0  0
    7.5372  -12.8348   19.7238 C   0  0  0  0  0  0  0  0  0  0  0  0
    8.4686  -13.8230   20.3002 C   0  0  1  0  0  0  0  0  0  0  0  0
    7.9647  -14.5215   21.5000 C   0  0  0  0  0  0  0  0  0  0  0  0
    7.5880  -13.8120   22.4658 O   0  0  0  0  0  0  0  0  0  0  0  0
    8.0857  -20.2085   26.2708 N   0  0  0  0  0  0  0  0  0  0  0  0
    6.8362  -20.8551   26.0967 C   0  0  0  0  0  0  0  0  0  0  0  0
    6.2450  -21.3963   27.1027 N   0  0  0  0  0  0  0  0  0  0  0  0
    6.1938  -20.9333   24.8220 N   0  0  0  0  0  0  0  0  0  0  0  0
    6.7253  -20.2847   23.6511 C   0  0  0  0  0  0  0  0  0  0  0  0
    6.7514  -18.7721   23.8162 C   0  0  0  0  0  0  0  0  0  0  0  0
    7.3086  -18.0956   22.5928 C   0  0  0  0  0  0  0  0  0  0  0  0
    7.3121  -16.5704   22.7711 C   0  0  2  0  0  0  0  0  0  0  0  0
    7.8944  -15.9407   21.5924 N   0  0  0  0  0  0  0  0  0  0  0  0
    8.2839  -16.3355   23.8970 C   0  0  0  0  0  0  0  0  0  0  0  0
    9.5265  -16.4884   23.7403 O   0  0  0  0  0  0  0  0  0  0  0  0
    5.2928  -21.7782   27.0647 N   0  0  0  0  0  0  0  0  0  0  0  0
    7.8767  -15.9348   25.1808 C   0  0  2  0  0  0  0  0  0  0  0  0
    8.7962  -15.6397   26.2101 C   0  0  0  0  0  0  0  0  0  0  0  0
    8.3423  -14.6991   27.2720 C   0  0  0  0  0  0  0  0  0  0  0  0
    7.7419  -13.4293   26.7463 C   0  0  0  0  0  0  0  0  0  0  0  0
    6.3782  -13.3192   26.5548 C   0  0  0  0  0  0  0  0  0  0  0  0
    5.8571  -12.1456   26.0648 C   0  0  0  0  0  0  0  0  0  0  0  0
    6.6452  -11.0544   25.7501 C   0  0  0  0  0  0  0  0  0  0  0  0
    7.9991  -11.1537   25.9366 C   0  0  0  0  0  0  0  0  0  0  0  0
    8.5152  -12.3361   26.4290 C   0  0  0  0  0  0  0  0  0  0  0  0
    9.2689  -16.8892   26.8416 O   0  0  0  0  0  0  0  0  0  0  0  0
   10.2565  -16.9080   27.8383 O   0  0  0  0  0  0  0  0  0  0  0  0
  1  2  1  0
  3  2  1  0
  4  5  1  0
  4  3  1  0
  5  1  1  0
  6 16  1  0
  5  6  1  1
  7  6  2  0
  9 10  2  0
  9  8  1  0
 11  9  1  0
 12 11  1  0
 12 13  1  0
 14 13  1  0
 15 14  1  6
 15 16  1  0
 17 19  1  0
 17 15  1  0
 18 17  2  0
 20 19  1  0
 20 28  1  0
 21 22  1  0
 20 21  1  6
 22 27  1  0
 23 22  2  0
 23 24  1  0
 24 25  2  0
 25 26  1  0
 27 26  2  0
 28 29  1  0
 30 28  2  0
M  END
$$$$
