PRF.pdb
     RDKit          3D

 30 31  0  0  1  0  0  0  0  0999 V2000
    8.7721  -14.5348   19.6230 N   0  0  0  0  0  0  0  0  0  0  0  0
    8.1760  -14.2199   18.3371 C   0  0  0  0  0  0  0  0  0  0  0  0
    7.7580  -12.7645   18.4347 C   0  0  0  0  0  0  0  0  0  0  0  0
    7.3676  -12.6355   19.8895 C   0  0  0  0  0  0  0  0  0  0  0  0
    8.2029  -13.6375   20.5785 C   0  0  1  0  0  0  0  0  0  0  0  0
    7.5189  -14.3745   21.6604 C   0  0  0  0  0  0  0  0  0  0  0  0
    6.8096  -13.7078   22.4544 O   0  0  0  0  0  0  0  0  0  0  0  0
    2.7279  -19.8326   21.8678 N   0  0  0  0  0  0  0  0  0  0  0  0
    3.4156  -19.7151   20.6338 C   0  0  0  0  0  0  0  0  0  0  0  0
    2.8054  -19.2605   19.5968 N   0  0  0  0  0  0  0  0  0  0  0  0
    4.7876  -20.0905   20.4916 N   0  0  0  0  0  0  0  0  0  0  0  0
    5.7777  -19.7819   21.4908 C   0  0  0  0  0  0  0  0  0  0  0  0
    5.8539  -18.2852   21.7552 C   0  0  0  0  0  0  0  0  0  0  0  0
    6.9546  -17.9544   22.7269 C   0  0  0  0  0  0  0  0  0  0  0  0
    7.0225  -16.4404   22.9739 C   0  0  2  0  0  0  0  0  0  0  0  0
    7.6362  -15.7838   21.8262 N   0  0  0  0  0  0  0  0  0  0  0  0
    7.9987  -16.2982   24.1115 C   0  0  0  0  0  0  0  0  0  0  0  0
    9.2342  -16.1445   23.9068 O   0  0  0  0  0  0  0  0  0  0  0  0
    3.2374  -19.1905   18.6681 N   0  0  0  0  0  0  0  0  0  0  0  0
    7.6036  -16.3265   25.4596 C   0  0  1  0  0  0  0  0  0  0  0  0
    8.5257  -16.2162   26.5224 C   0  0  0  0  0  0  0  0  0  0  0  0
    8.1750  -15.2800   27.6264 C   0  0  0  0  0  0  0  0  0  0  0  0
    7.8145  -13.8995   27.1644 C   0  0  0  0  0  0  0  0  0  0  0  0
    6.5099  -13.5818   26.8392 C   0  0  0  0  0  0  0  0  0  0  0  0
    6.2105  -12.3104   26.4117 C   0  0  0  0  0  0  0  0  0  0  0  0
    7.1675  -11.3203   26.2902 C   0  0  0  0  0  0  0  0  0  0  0  0
    8.4643  -11.6255   26.6103 C   0  0  0  0  0  0  0  0  0  0  0  0
    8.7575  -12.9052   27.0389 C   0  0  0  0  0  0  0  0  0  0  0  0
    8.8057  -17.5507   27.0915 O   0  0  0  0  0  0  0  0  0  0  0  0
    8.1464  -18.7120   26.6602 O   0  0  0  0  0  0  0  0  0  0  0  0
  1  2  1  0
  3  2  1  0
  4  5  1  0
  4  3  1  0
  5  1  1  0
  6 16  1  0
  5  6  1  1
  7  6  2  0
  9 10  2  0
  9  8  1  0
 11  9  1  0
 12 11  1  0
 12 13  1  0
 14 13  1  0
 15 14  1  6
 15 16  1  0
 17 19  1  0
 17 15  1  0
 18 17  2  0
 20 19  1  0
 20 28  1  0
 21 22  1  0
 20 21  1  6
 22 27  1  0
 23 22  2  0
 23 24  1  0
 24 25  2  0
 25 26  1  0
 27 26  2  0
 28 29  1  0
 30 28  2  0
M  END
$$$$
