PRF.pdb
     RDKit          3D

 30 31  0  0  1  0  0  0  0  0999 V2000
    9.2011  -14.3395   18.3715 N   0  0  0  0  0  0  0  0  0  0  0  0
    8.2755  -14.1850   17.2636 C   0  0  0  0  0  0  0  0  0  0  0  0
    7.3954  -13.0071   17.6379 C   0  0  0  0  0  0  0  0  0  0  0  0
    7.3002  -13.1374   19.1410 C   0  0  0  0  0  0  0  0  0  0  0  0
    8.5634  -13.7937   19.5280 C   0  0  1  0  0  0  0  0  0  0  0  0
    8.4323  -14.8084   20.5933 C   0  0  0  0  0  0  0  0  0  0  0  0
    7.6802  -14.5350   21.5616 O   0  0  0  0  0  0  0  0  0  0  0  0
   11.2515  -18.0872   16.8013 N   0  0  0  0  0  0  0  0  0  0  0  0
   10.9535  -19.3675   17.3319 C   0  0  0  0  0  0  0  0  0  0  0  0
   10.4461  -20.2762   16.5761 N   0  0  0  0  0  0  0  0  0  0  0  0
   11.1976  -19.6962   18.7016 N   0  0  0  0  0  0  0  0  0  0  0  0
   10.1425  -20.0934   19.5978 C   0  0  0  0  0  0  0  0  0  0  0  0
    9.2680  -18.9104   19.9870 C   0  0  0  0  0  0  0  0  0  0  0  0
    9.7034  -18.3134   21.2981 C   0  0  0  0  0  0  0  0  0  0  0  0
    8.8995  -17.0424   21.6083 C   0  0  2  0  0  0  0  0  0  0  0  0
    9.1159  -16.0569   20.5563 N   0  0  0  0  0  0  0  0  0  0  0  0
    9.5543  -16.4877   22.8456 C   0  0  0  0  0  0  0  0  0  0  0  0
   10.6296  -15.8303   22.7861 O   0  0  0  0  0  0  0  0  0  0  0  0
   10.1889  -21.2131   16.9076 N   0  0  0  0  0  0  0  0  0  0  0  0
    9.0179  -16.6626   24.1325 C   0  0  1  0  0  0  0  0  0  0  0  0
    9.5989  -16.0840   25.2812 C   0  0  0  0  0  0  0  0  0  0  0  0
    8.6729  -15.4473   26.2587 C   0  0  0  0  0  0  0  0  0  0  0  0
    9.3521  -14.9168   27.4861 C   0  0  0  0  0  0  0  0  0  0  0  0
    9.7224  -15.7657   28.5111 C   0  0  0  0  0  0  0  0  0  0  0  0
   10.3367  -15.2500   29.6272 C   0  0  0  0  0  0  0  0  0  0  0  0
   10.6054  -13.9020   29.7740 C   0  0  0  0  0  0  0  0  0  0  0  0
   10.2420  -13.0518   28.7628 C   0  0  0  0  0  0  0  0  0  0  0  0
    9.6250  -13.5774   27.6447 C   0  0  0  0  0  0  0  0  0  0  0  0
   10.4330  -17.0804   25.9844 O   0  0  0  0  0  0  0  0  0  0  0  0
   11.6732  -16.7611   26.5583 O   0  0  0  0  0  0  0  0  0  0  0  0
  1  2  1  0
  3  2  1  0
  4  5  1  0
  4  3  1  0
  5  1  1  0
  6 16  1  0
  5  6  1  1
  7  6  2  0
  9 10  2  0
  9  8  1  0
 11  9  1  0
 12 11  1  0
 12 13  1  0
 14 13  1  0
 15 14  1  6
 15 16  1  0
 17 19  1  0
 17 15  1  0
 18 17  2  0
 20 19  1  0
 20 28  1  0
 21 22  1  0
 20 21  1  1
 22 27  1  0
 23 22  2  0
 23 24  1  0
 24 25  2  0
 25 26  1  0
 27 26  2  0
 28 29  1  0
 30 28  2  0
M  END
$$$$
