PRF.pdb
     RDKit          3D

 30 31  0  0  1  0  0  0  0  0999 V2000
    8.8649  -14.5058   19.7577 N   0  0  0  0  0  0  0  0  0  0  0  0
    8.3588  -14.2170   18.4278 C   0  0  0  0  0  0  0  0  0  0  0  0
    7.8708  -12.7816   18.4876 C   0  0  0  0  0  0  0  0  0  0  0  0
    7.3616  -12.6703   19.9066 C   0  0  0  0  0  0  0  0  0  0  0  0
    8.1831  -13.6347   20.6624 C   0  0  1  0  0  0  0  0  0  0  0  0
    7.4490  -14.4015   21.6895 C   0  0  0  0  0  0  0  0  0  0  0  0
    6.7206  -13.7543   22.4823 O   0  0  0  0  0  0  0  0  0  0  0  0
    6.7694  -21.9658   20.7183 N   0  0  0  0  0  0  0  0  0  0  0  0
    7.5922  -21.3687   21.7063 C   0  0  0  0  0  0  0  0  0  0  0  0
    8.8646  -21.3014   21.5305 N   0  0  0  0  0  0  0  0  0  0  0  0
    7.0546  -20.8286   22.9157 N   0  0  0  0  0  0  0  0  0  0  0  0
    5.7305  -20.2666   22.9861 C   0  0  0  0  0  0  0  0  0  0  0  0
    5.7723  -18.7854   23.3329 C   0  0  0  0  0  0  0  0  0  0  0  0
    6.7001  -18.0329   22.4175 C   0  0  0  0  0  0  0  0  0  0  0  0
    6.6855  -16.5328   22.7450 C   0  0  2  0  0  0  0  0  0  0  0  0
    7.5397  -15.8178   21.8047 N   0  0  0  0  0  0  0  0  0  0  0  0
    7.3674  -16.4436   24.0845 C   0  0  0  0  0  0  0  0  0  0  0  0
    6.8158  -16.8690   25.1365 O   0  0  0  0  0  0  0  0  0  0  0  0
    9.5026  -20.8179   22.1731 N   0  0  0  0  0  0  0  0  0  0  0  0
    8.6473  -15.8879   24.2499 C   0  0  1  0  0  0  0  0  0  0  0  0
    9.2065  -15.6370   25.5213 C   0  0  0  0  0  0  0  0  0  0  0  0
    8.2914  -15.1029   26.5681 C   0  0  0  0  0  0  0  0  0  0  0  0
    7.8014  -13.7115   26.2979 C   0  0  0  0  0  0  0  0  0  0  0  0
    6.5042  -13.3477   26.6035 C   0  0  0  0  0  0  0  0  0  0  0  0
    6.0809  -12.0674   26.3379 C   0  0  0  0  0  0  0  0  0  0  0  0
    6.9046  -11.1127   25.7713 C   0  0  0  0  0  0  0  0  0  0  0  0
    8.1931  -11.4637   25.4646 C   0  0  0  0  0  0  0  0  0  0  0  0
    8.6110  -12.7521   25.7342 C   0  0  0  0  0  0  0  0  0  0  0  0
    9.8680  -16.8549   26.0337 O   0  0  0  0  0  0  0  0  0  0  0  0
   10.5591  -16.8852   27.2546 O   0  0  0  0  0  0  0  0  0  0  0  0
  1  2  1  0
  3  2  1  0
  4  5  1  0
  4  3  1  0
  5  1  1  0
  6 16  1  0
  5  6  1  1
  7  6  2  0
  9 10  2  0
  9  8  1  0
 11  9  1  0
 12 11  1  0
 12 13  1  0
 14 13  1  0
 15 14  1  6
 15 16  1  0
 17 19  1  0
 17 15  1  0
 18 17  2  0
 20 19  1  0
 20 28  1  0
 21 22  1  0
 20 21  1  1
 22 27  1  0
 23 22  2  0
 23 24  1  0
 24 25  2  0
 25 26  1  0
 27 26  2  0
 28 29  1  0
 30 28  2  0
M  END
$$$$
