PSH.pdb
     RDKit          3D

 24 25  0  0  1  0  0  0  0  0999 V2000
    8.6978  -18.3454   18.9021 N   0  0  0  0  0  0  0  0  0  0  0  0
    8.5283  -18.8287   17.5449 C   0  0  0  0  0  0  0  0  0  0  0  0
    9.1797  -17.8084   16.6446 C   0  0  0  0  0  0  0  0  0  0  0  0
    9.0583  -16.5565   17.4879 C   0  0  0  0  0  0  0  0  0  0  0  0
    9.3566  -17.0896   18.8735 C   0  0  1  0  0  0  0  0  0  0  0  0
    8.9980  -16.1340   19.9279 C   0  0  0  0  0  0  0  0  0  0  0  0
    9.7398  -15.1205   20.1017 O   0  0  0  0  0  0  0  0  0  0  0  0
    5.7461  -16.6529   22.3572 O   0  0  0  0  0  0  0  0  0  0  0  0
    6.0312  -15.3131   22.0002 C   0  0  0  0  0  0  0  0  0  0  0  0
    7.5282  -15.2463   21.8057 C   0  0  2  0  0  0  0  0  0  0  0  0
    7.8866  -16.2170   20.7977 N   0  0  0  0  0  0  0  0  0  0  0  0
    8.1516  -15.5480   23.1188 C   0  0  0  0  0  0  0  0  0  0  0  0
    8.4934  -16.7631   23.2921 O   0  0  0  0  0  0  0  0  0  0  0  0
    8.3870  -14.6331   24.1514 N   0  0  0  0  0  0  0  0  0  0  0  0
    9.0332  -15.0147   25.3895 C   0  0  1  0  0  0  0  0  0  0  0  0
    9.2777  -13.8592   26.2994 C   0  0  0  0  0  0  0  0  0  0  0  0
   10.0216  -14.2060   27.5259 C   0  0  0  0  0  0  0  0  0  0  0  0
    9.3857  -14.4880   28.7141 C   0  0  0  0  0  0  0  0  0  0  0  0
   10.2975  -14.7590   29.6561 N   0  0  0  0  0  0  0  0  0  0  0  0
   11.4955  -14.6476   29.0621 C   0  0  0  0  0  0  0  0  0  0  0  0
   11.3209  -14.3115   27.7679 N   0  0  0  0  0  0  0  0  0  0  0  0
    8.1938  -15.9946   26.1546 C   0  0  0  0  0  0  0  0  0  0  0  0
    6.9362  -15.9506   26.1635 O   0  0  0  0  0  0  0  0  0  0  0  0
    8.8333  -16.9871   26.8803 O   0  0  0  0  0  0  0  0  0  0  0  0
  1  5  1  0
  1  2  1  0
  2  3  1  0
  4  3  1  0
  5  6  1  1
  5  4  1  0
  6 11  1  0
  6  7  2  0
  9  8  1  0
 10  9  1  1
 10 12  1  0
 11 10  1  0
 12 13  2  0
 12 14  1  0
 14 15  1  0
 15 16  1  1
 15 22  1  0
 17 21  1  0
 17 16  1  0
 18 17  2  0
 19 18  1  0
 19 20  1  0
 20 21  2  0
 22 24  1  0
 23 22  2  0
M  END
$$$$
