PSH.pdb
     RDKit          3D

 24 25  0  0  1  0  0  0  0  0999 V2000
    7.2747  -15.7262   20.4215 N   0  0  0  0  0  0  0  0  0  0  0  0
    6.4288  -15.1850   19.3746 C   0  0  0  0  0  0  0  0  0  0  0  0
    7.1703  -14.0067   18.7938 C   0  0  0  0  0  0  0  0  0  0  0  0
    8.0212  -13.5877   19.9743 C   0  0  0  0  0  0  0  0  0  0  0  0
    8.4410  -14.9277   20.5411 C   0  0  1  0  0  0  0  0  0  0  0  0
    9.0221  -14.8082   21.8833 C   0  0  0  0  0  0  0  0  0  0  0  0
   10.1087  -14.1683   22.0158 O   0  0  0  0  0  0  0  0  0  0  0  0
    7.0017  -16.0389   25.1182 O   0  0  0  0  0  0  0  0  0  0  0  0
    7.8914  -14.9653   25.3620 C   0  0  0  0  0  0  0  0  0  0  0  0
    9.0439  -15.1572   24.4037 C   0  0  2  0  0  0  0  0  0  0  0  0
    8.4929  -15.3411   23.0810 N   0  0  0  0  0  0  0  0  0  0  0  0
    9.7996  -16.3489   24.8649 C   0  0  0  0  0  0  0  0  0  0  0  0
    9.2964  -17.4724   24.5366 O   0  0  0  0  0  0  0  0  0  0  0  0
   10.9846  -16.3385   25.6093 N   0  0  0  0  0  0  0  0  0  0  0  0
   11.6703  -17.5563   25.9874 C   0  0  1  0  0  0  0  0  0  0  0  0
   13.1509  -17.3946   26.0545 C   0  0  0  0  0  0  0  0  0  0  0  0
   13.7590  -16.8963   24.8055 C   0  0  0  0  0  0  0  0  0  0  0  0
   13.2430  -17.2015   23.5661 C   0  0  0  0  0  0  0  0  0  0  0  0
   13.9921  -16.6284   22.6161 N   0  0  0  0  0  0  0  0  0  0  0  0
   14.9701  -15.9691   23.2560 C   0  0  0  0  0  0  0  0  0  0  0  0
   14.8227  -16.1359   24.5860 N   0  0  0  0  0  0  0  0  0  0  0  0
   11.2269  -18.0248   27.3417 C   0  0  0  0  0  0  0  0  0  0  0  0
   10.4136  -17.3785   28.0517 O   0  0  0  0  0  0  0  0  0  0  0  0
   11.7365  -19.2187   27.8273 O   0  0  0  0  0  0  0  0  0  0  0  0
  1  5  1  0
  1  2  1  0
  2  3  1  0
  4  3  1  0
  5  6  1  1
  5  4  1  0
  6 11  1  0
  6  7  2  0
  9  8  1  0
 10  9  1  1
 10 12  1  0
 11 10  1  0
 12 13  2  0
 12 14  1  0
 14 15  1  0
 15 16  1  1
 15 22  1  0
 17 21  1  0
 17 16  1  0
 18 17  2  0
 19 18  1  0
 19 20  1  0
 20 21  2  0
 22 24  1  0
 23 22  2  0
M  END
$$$$
