PSH.pdb
     RDKit          3D

 24 25  0  0  1  0  0  0  0  0999 V2000
    7.2075  -15.0527   19.3175 N   0  0  0  0  0  0  0  0  0  0  0  0
    6.4202  -14.3685   18.3092 C   0  0  0  0  0  0  0  0  0  0  0  0
    7.3189  -13.3165   17.7081 C   0  0  0  0  0  0  0  0  0  0  0  0
    8.2705  -13.0557   18.8569 C   0  0  0  0  0  0  0  0  0  0  0  0
    8.4906  -14.4533   19.3965 C   0  0  1  0  0  0  0  0  0  0  0  0
    9.1342  -14.4471   20.7153 C   0  0  0  0  0  0  0  0  0  0  0  0
   10.3557  -14.1150   20.7893 O   0  0  0  0  0  0  0  0  0  0  0  0
    7.0778  -15.4122   24.0302 O   0  0  0  0  0  0  0  0  0  0  0  0
    8.1092  -14.4755   24.2811 C   0  0  0  0  0  0  0  0  0  0  0  0
    9.1732  -14.7436   23.2422 C   0  0  2  0  0  0  0  0  0  0  0  0
    8.5296  -14.7789   21.9494 N   0  0  0  0  0  0  0  0  0  0  0  0
    9.8025  -16.0427   23.5888 C   0  0  0  0  0  0  0  0  0  0  0  0
    9.2063  -17.0737   23.1361 O   0  0  0  0  0  0  0  0  0  0  0  0
   10.9630  -16.2215   24.3503 N   0  0  0  0  0  0  0  0  0  0  0  0
   11.4880  -17.5342   24.6623 C   0  0  1  0  0  0  0  0  0  0  0  0
   12.9690  -17.6199   24.5134 C   0  0  0  0  0  0  0  0  0  0  0  0
   13.4477  -17.4163   23.1323 C   0  0  0  0  0  0  0  0  0  0  0  0
   12.6026  -17.4758   22.0470 C   0  0  0  0  0  0  0  0  0  0  0  0
   13.3004  -17.2636   20.9245 N   0  0  0  0  0  0  0  0  0  0  0  0
   14.5732  -17.0725   21.3041 C   0  0  0  0  0  0  0  0  0  0  0  0
   14.6559  -17.1665   22.6468 N   0  0  0  0  0  0  0  0  0  0  0  0
   11.1752  -17.9158   26.0789 C   0  0  0  0  0  0  0  0  0  0  0  0
   10.5228  -17.1707   26.8552 O   0  0  0  0  0  0  0  0  0  0  0  0
   11.6253  -19.1397   26.5481 O   0  0  0  0  0  0  0  0  0  0  0  0
  1  5  1  0
  1  2  1  0
  2  3  1  0
  4  3  1  0
  5  6  1  1
  5  4  1  0
  6 11  1  0
  6  7  2  0
  9  8  1  0
 10  9  1  1
 10 12  1  0
 11 10  1  0
 12 13  2  0
 12 14  1  0
 14 15  1  0
 15 16  1  1
 15 22  1  0
 17 21  1  0
 17 16  1  0
 18 17  2  0
 19 18  1  0
 19 20  1  0
 20 21  2  0
 22 24  1  0
 23 22  2  0
M  END
$$$$
