PSH.pdb
     RDKit          3D

 24 25  0  0  1  0  0  0  0  0999 V2000
    7.6931  -14.8888   18.7443 N   0  0  0  0  0  0  0  0  0  0  0  0
    6.9498  -14.2356   17.6836 C   0  0  0  0  0  0  0  0  0  0  0  0
    7.7276  -12.9953   17.3194 C   0  0  0  0  0  0  0  0  0  0  0  0
    8.4466  -12.7100   18.6212 C   0  0  0  0  0  0  0  0  0  0  0  0
    8.8279  -14.1040   19.0732 C   0  0  1  0  0  0  0  0  0  0  0  0
    9.2670  -14.1359   20.4731 C   0  0  0  0  0  0  0  0  0  0  0  0
   10.4089  -13.6643   20.7585 O   0  0  0  0  0  0  0  0  0  0  0  0
    7.0540  -15.9174   23.3244 O   0  0  0  0  0  0  0  0  0  0  0  0
    7.7562  -14.7944   23.8241 C   0  0  0  0  0  0  0  0  0  0  0  0
    8.9792  -14.6483   22.9489 C   0  0  2  0  0  0  0  0  0  0  0  0
    8.5403  -14.6475   21.5726 N   0  0  0  0  0  0  0  0  0  0  0  0
    9.8702  -15.7968   23.2506 C   0  0  0  0  0  0  0  0  0  0  0  0
    9.6099  -16.8690   22.6135 O   0  0  0  0  0  0  0  0  0  0  0  0
   10.9409  -15.7974   24.1518 N   0  0  0  0  0  0  0  0  0  0  0  0
   11.7250  -16.9847   24.4195 C   0  0  1  0  0  0  0  0  0  0  0  0
   13.1930  -16.7242   24.4265 C   0  0  0  0  0  0  0  0  0  0  0  0
   13.7160  -16.1932   23.1528 C   0  0  0  0  0  0  0  0  0  0  0  0
   13.0816  -16.4136   21.9508 C   0  0  0  0  0  0  0  0  0  0  0  0
   13.7743  -15.8288   20.9656 N   0  0  0  0  0  0  0  0  0  0  0  0
   14.8345  -15.2466   21.5465 C   0  0  0  0  0  0  0  0  0  0  0  0
   14.7932  -15.4716   22.8754 N   0  0  0  0  0  0  0  0  0  0  0  0
   11.3842  -17.5631   25.7610 C   0  0  0  0  0  0  0  0  0  0  0  0
   10.5138  -17.0590   26.5172 O   0  0  0  0  0  0  0  0  0  0  0  0
   12.0581  -18.6990   26.1811 O   0  0  0  0  0  0  0  0  0  0  0  0
  1  5  1  0
  1  2  1  0
  2  3  1  0
  4  3  1  0
  5  6  1  1
  5  4  1  0
  6 11  1  0
  6  7  2  0
  9  8  1  0
 10  9  1  1
 10 12  1  0
 11 10  1  0
 12 13  2  0
 12 14  1  0
 14 15  1  0
 15 16  1  1
 15 22  1  0
 17 21  1  0
 17 16  1  0
 18 17  2  0
 19 18  1  0
 19 20  1  0
 20 21  2  0
 22 24  1  0
 23 22  2  0
M  END
$$$$
