PSH.pdb
     RDKit          3D

 24 25  0  0  1  0  0  0  0  0999 V2000
    9.0392  -15.0357   18.1417 N   0  0  0  0  0  0  0  0  0  0  0  0
    8.8080  -14.3703   16.8735 C   0  0  0  0  0  0  0  0  0  0  0  0
    8.2181  -13.0211   17.2013 C   0  0  0  0  0  0  0  0  0  0  0  0
    7.5594  -13.3076   18.5345 C   0  0  0  0  0  0  0  0  0  0  0  0
    8.5845  -14.2040   19.1969 C   0  0  1  0  0  0  0  0  0  0  0  0
    8.0495  -14.8803   20.3843 C   0  0  0  0  0  0  0  0  0  0  0  0
    7.7398  -14.1759   21.3921 O   0  0  0  0  0  0  0  0  0  0  0  0
    8.4562  -18.8978   21.5882 O   0  0  0  0  0  0  0  0  0  0  0  0
    7.1487  -18.3905   21.3955 C   0  0  0  0  0  0  0  0  0  0  0  0
    7.2329  -16.9096   21.6843 C   0  0  2  0  0  0  0  0  0  0  0  0
    7.8335  -16.2691   20.5372 N   0  0  0  0  0  0  0  0  0  0  0  0
    8.0578  -16.7510   22.9084 C   0  0  0  0  0  0  0  0  0  0  0  0
    9.3030  -16.5731   22.7057 O   0  0  0  0  0  0  0  0  0  0  0  0
    7.5924  -16.7807   24.2279 N   0  0  0  0  0  0  0  0  0  0  0  0
    7.8285  -15.6942   25.1552 C   0  0  1  0  0  0  0  0  0  0  0  0
    6.5724  -15.0294   25.6059 C   0  0  0  0  0  0  0  0  0  0  0  0
    6.7896  -13.8768   26.5017 C   0  0  0  0  0  0  0  0  0  0  0  0
    8.0484  -13.4797   26.8934 C   0  0  0  0  0  0  0  0  0  0  0  0
    7.9505  -12.4206   27.7065 N   0  0  0  0  0  0  0  0  0  0  0  0
    6.6401  -12.1565   27.8228 C   0  0  0  0  0  0  0  0  0  0  0  0
    5.9402  -13.0449   27.0883 N   0  0  0  0  0  0  0  0  0  0  0  0
    8.5236  -16.1836   26.3912 C   0  0  0  0  0  0  0  0  0  0  0  0
    8.6224  -17.4051   26.6767 O   0  0  0  0  0  0  0  0  0  0  0  0
    9.0780  -15.2489   27.2513 O   0  0  0  0  0  0  0  0  0  0  0  0
  1  5  1  0
  1  2  1  0
  2  3  1  0
  4  3  1  0
  5  6  1  1
  5  4  1  0
  6 11  1  0
  6  7  2  0
  9  8  1  0
 10  9  1  6
 10 12  1  0
 11 10  1  0
 12 13  2  0
 12 14  1  0
 14 15  1  0
 15 16  1  1
 15 22  1  0
 17 21  1  0
 17 16  1  0
 18 17  2  0
 19 18  1  0
 19 20  1  0
 20 21  2  0
 22 24  1  0
 23 22  2  0
M  END
$$$$
