PSH.pdb
     RDKit          3D

 24 25  0  0  1  0  0  0  0  0999 V2000
    7.6275  -15.2815   18.8777 N   0  0  0  0  0  0  0  0  0  0  0  0
    6.8402  -14.7475   17.7825 C   0  0  0  0  0  0  0  0  0  0  0  0
    7.4783  -13.4354   17.3990 C   0  0  0  0  0  0  0  0  0  0  0  0
    8.1270  -13.0339   18.7071 C   0  0  0  0  0  0  0  0  0  0  0  0
    8.6556  -14.3617   19.2078 C   0  0  1  0  0  0  0  0  0  0  0  0
    9.0606  -14.3050   20.6172 C   0  0  0  0  0  0  0  0  0  0  0  0
   10.0573  -13.5865   20.9304 O   0  0  0  0  0  0  0  0  0  0  0  0
    6.7558  -15.8014   23.6361 O   0  0  0  0  0  0  0  0  0  0  0  0
    7.5660  -14.6700   23.8958 C   0  0  0  0  0  0  0  0  0  0  0  0
    8.8268  -14.8697   23.0873 C   0  0  2  0  0  0  0  0  0  0  0  0
    8.4479  -14.9802   21.6976 N   0  0  0  0  0  0  0  0  0  0  0  0
    9.4748  -16.1072   23.5899 C   0  0  0  0  0  0  0  0  0  0  0  0
    9.0090  -17.1951   23.1180 O   0  0  0  0  0  0  0  0  0  0  0  0
   10.5245  -16.1738   24.5130 N   0  0  0  0  0  0  0  0  0  0  0  0
   11.0262  -17.4323   25.0234 C   0  0  1  0  0  0  0  0  0  0  0  0
   12.5012  -17.4267   25.2406 C   0  0  0  0  0  0  0  0  0  0  0  0
   13.2818  -17.0118   24.0589 C   0  0  0  0  0  0  0  0  0  0  0  0
   13.0199  -17.5006   22.7986 C   0  0  0  0  0  0  0  0  0  0  0  0
   13.8799  -16.9649   21.9235 N   0  0  0  0  0  0  0  0  0  0  0  0
   14.6743  -16.1468   22.6306 C   0  0  0  0  0  0  0  0  0  0  0  0
   14.3056  -16.1798   23.9273 N   0  0  0  0  0  0  0  0  0  0  0  0
   10.3981  -17.7656   26.3444 C   0  0  0  0  0  0  0  0  0  0  0  0
    9.5652  -17.0112   26.9105 O   0  0  0  0  0  0  0  0  0  0  0  0
   10.7527  -18.9539   26.9633 O   0  0  0  0  0  0  0  0  0  0  0  0
  1  5  1  0
  1  2  1  0
  2  3  1  0
  4  3  1  0
  5  6  1  1
  5  4  1  0
  6 11  1  0
  6  7  2  0
  9  8  1  0
 10  9  1  1
 10 12  1  0
 11 10  1  0
 12 13  2  0
 12 14  1  0
 14 15  1  0
 15 16  1  1
 15 22  1  0
 17 21  1  0
 17 16  1  0
 18 17  2  0
 19 18  1  0
 19 20  1  0
 20 21  2  0
 22 24  1  0
 23 22  2  0
M  END
$$$$
