PSH.pdb
     RDKit          3D

 24 25  0  0  1  0  0  0  0  0999 V2000
    7.4131  -15.2426   19.7251 N   0  0  0  0  0  0  0  0  0  0  0  0
    6.5622  -14.6162   18.7312 C   0  0  0  0  0  0  0  0  0  0  0  0
    7.3339  -13.4379   18.1910 C   0  0  0  0  0  0  0  0  0  0  0  0
    8.2307  -13.1134   19.3672 C   0  0  0  0  0  0  0  0  0  0  0  0
    8.6124  -14.4960   19.8529 C   0  0  1  0  0  0  0  0  0  0  0  0
    9.2322  -14.4686   21.1827 C   0  0  0  0  0  0  0  0  0  0  0  0
   10.3382  -13.8640   21.3209 O   0  0  0  0  0  0  0  0  0  0  0  0
    7.2975  -15.8785   24.4245 O   0  0  0  0  0  0  0  0  0  0  0  0
    8.1936  -14.8127   24.6793 C   0  0  0  0  0  0  0  0  0  0  0  0
    9.3140  -14.9656   23.6770 C   0  0  2  0  0  0  0  0  0  0  0  0
    8.7217  -15.0569   22.3625 N   0  0  0  0  0  0  0  0  0  0  0  0
   10.0587  -16.1972   24.0410 C   0  0  0  0  0  0  0  0  0  0  0  0
    9.5846  -17.2799   23.5653 O   0  0  0  0  0  0  0  0  0  0  0  0
   11.2049  -16.2635   24.8412 N   0  0  0  0  0  0  0  0  0  0  0  0
   11.8918  -17.5102   25.1055 C   0  0  1  0  0  0  0  0  0  0  0  0
   13.3701  -17.3496   25.2135 C   0  0  0  0  0  0  0  0  0  0  0  0
   14.0006  -16.7620   24.0155 C   0  0  0  0  0  0  0  0  0  0  0  0
   13.5551  -17.0380   22.7423 C   0  0  0  0  0  0  0  0  0  0  0  0
   14.3095  -16.3816   21.8522 N   0  0  0  0  0  0  0  0  0  0  0  0
   15.2206  -15.6995   22.5629 C   0  0  0  0  0  0  0  0  0  0  0  0
   15.0275  -15.9349   23.8766 N   0  0  0  0  0  0  0  0  0  0  0  0
   11.4293  -18.1155   26.3979 C   0  0  0  0  0  0  0  0  0  0  0  0
   10.5528  -17.5792   27.1242 O   0  0  0  0  0  0  0  0  0  0  0  0
   11.9932  -19.3143   26.8050 O   0  0  0  0  0  0  0  0  0  0  0  0
  1  5  1  0
  1  2  1  0
  2  3  1  0
  4  3  1  0
  5  6  1  1
  5  4  1  0
  6 11  1  0
  6  7  2  0
  9  8  1  0
 10  9  1  1
 10 12  1  0
 11 10  1  0
 12 13  2  0
 12 14  1  0
 14 15  1  0
 15 16  1  1
 15 22  1  0
 17 21  1  0
 17 16  1  0
 18 17  2  0
 19 18  1  0
 19 20  1  0
 20 21  2  0
 22 24  1  0
 23 22  2  0
M  END
$$$$
