PSH.pdb
     RDKit          3D

 24 25  0  0  1  0  0  0  0  0999 V2000
    9.1615  -14.7463   18.6311 N   0  0  0  0  0  0  0  0  0  0  0  0
    8.7517  -14.1887   17.3561 C   0  0  0  0  0  0  0  0  0  0  0  0
    7.9468  -12.9522   17.6705 C   0  0  0  0  0  0  0  0  0  0  0  0
    7.4175  -13.2920   19.0481 C   0  0  0  0  0  0  0  0  0  0  0  0
    8.6183  -13.9628   19.6814 C   0  0  1  0  0  0  0  0  0  0  0  0
    8.2732  -14.6705   20.9198 C   0  0  0  0  0  0  0  0  0  0  0  0
    7.7519  -14.0091   21.8677 O   0  0  0  0  0  0  0  0  0  0  0  0
    9.7030  -18.3156   22.0610 O   0  0  0  0  0  0  0  0  0  0  0  0
    8.2938  -18.2219   22.1564 C   0  0  0  0  0  0  0  0  0  0  0  0
    7.9889  -16.7549   22.3513 C   0  0  2  0  0  0  0  0  0  0  0  0
    8.4611  -16.0465   21.1842 N   0  0  0  0  0  0  0  0  0  0  0  0
    8.6898  -16.3251   23.5874 C   0  0  0  0  0  0  0  0  0  0  0  0
    9.8909  -15.9331   23.4232 O   0  0  0  0  0  0  0  0  0  0  0  0
    8.1541  -16.3162   24.8803 N   0  0  0  0  0  0  0  0  0  0  0  0
    8.9249  -15.9007   26.0333 C   0  0  1  0  0  0  0  0  0  0  0  0
    8.0904  -15.2696   27.0954 C   0  0  0  0  0  0  0  0  0  0  0  0
    7.4494  -14.0052   26.6852 C   0  0  0  0  0  0  0  0  0  0  0  0
    7.8126  -13.3377   25.5370 C   0  0  0  0  0  0  0  0  0  0  0  0
    7.0796  -12.2240   25.4161 N   0  0  0  0  0  0  0  0  0  0  0  0
    6.2632  -12.1945   26.4806 C   0  0  0  0  0  0  0  0  0  0  0  0
    6.4929  -13.2795   27.2477 N   0  0  0  0  0  0  0  0  0  0  0  0
    9.6164  -17.0708   26.6680 C   0  0  0  0  0  0  0  0  0  0  0  0
    9.4225  -18.2577   26.2975 O   0  0  0  0  0  0  0  0  0  0  0  0
   10.5043  -16.8307   27.7048 O   0  0  0  0  0  0  0  0  0  0  0  0
  1  5  1  0
  1  2  1  0
  2  3  1  0
  4  3  1  0
  5  6  1  1
  5  4  1  0
  6 11  1  0
  6  7  2  0
  9  8  1  0
 10  9  1  6
 10 12  1  0
 11 10  1  0
 12 13  2  0
 12 14  1  0
 14 15  1  0
 15 16  1  1
 15 22  1  0
 17 21  1  0
 17 16  1  0
 18 17  2  0
 19 18  1  0
 19 20  1  0
 20 21  2  0
 22 24  1  0
 23 22  2  0
M  END
$$$$
