PSH.pdb
     RDKit          3D

 24 25  0  0  1  0  0  0  0  0999 V2000
    9.5874  -14.7936   17.3777 N   0  0  0  0  0  0  0  0  0  0  0  0
    9.3536  -14.9872   15.9592 C   0  0  0  0  0  0  0  0  0  0  0  0
    8.0219  -14.3468   15.6554 C   0  0  0  0  0  0  0  0  0  0  0  0
    7.3356  -14.4498   17.0014 C   0  0  0  0  0  0  0  0  0  0  0  0
    8.4718  -14.1307   17.9503 C   0  0  1  0  0  0  0  0  0  0  0  0
    8.1481  -14.4684   19.3413 C   0  0  0  0  0  0  0  0  0  0  0  0
    6.9974  -14.1705   19.7827 O   0  0  0  0  0  0  0  0  0  0  0  0
    8.5640  -18.4915   21.4099 O   0  0  0  0  0  0  0  0  0  0  0  0
    9.1086  -17.4716   20.5932 C   0  0  0  0  0  0  0  0  0  0  0  0
    8.6166  -16.1675   21.1766 C   0  0  2  0  0  0  0  0  0  0  0  0
    8.9984  -15.1070   20.2729 N   0  0  0  0  0  0  0  0  0  0  0  0
    9.2515  -16.0204   22.5105 C   0  0  0  0  0  0  0  0  0  0  0  0
   10.4614  -15.6215   22.4959 O   0  0  0  0  0  0  0  0  0  0  0  0
    8.6467  -16.2771   23.7462 N   0  0  0  0  0  0  0  0  0  0  0  0
    9.3165  -16.0176   25.0032 C   0  0  1  0  0  0  0  0  0  0  0  0
    8.3705  -15.7309   26.1193 C   0  0  0  0  0  0  0  0  0  0  0  0
    7.5420  -14.5274   25.9116 C   0  0  0  0  0  0  0  0  0  0  0  0
    7.9942  -13.4399   25.1984 C   0  0  0  0  0  0  0  0  0  0  0  0
    7.0466  -12.4946   25.1754 N   0  0  0  0  0  0  0  0  0  0  0  0
    6.0087  -12.9864   25.8690 C   0  0  0  0  0  0  0  0  0  0  0  0
    6.3161  -14.2219   26.3136 N   0  0  0  0  0  0  0  0  0  0  0  0
   10.1383  -17.1984   25.4285 C   0  0  0  0  0  0  0  0  0  0  0  0
   10.1419  -18.2867   24.7968 O   0  0  0  0  0  0  0  0  0  0  0  0
   10.9241  -17.0818   26.5641 O   0  0  0  0  0  0  0  0  0  0  0  0
  1  5  1  0
  1  2  1  0
  2  3  1  0
  4  3  1  0
  5  6  1  1
  5  4  1  0
  6 11  1  0
  6  7  2  0
  9  8  1  0
 10  9  1  6
 10 12  1  0
 11 10  1  0
 12 13  2  0
 12 14  1  0
 14 15  1  0
 15 16  1  1
 15 22  1  0
 17 21  1  0
 17 16  1  0
 18 17  2  0
 19 18  1  0
 19 20  1  0
 20 21  2  0
 22 24  1  0
 23 22  2  0
M  END
$$$$
