PSH.pdb
     RDKit          3D

 24 25  0  0  1  0  0  0  0  0999 V2000
    9.1513  -14.6811   18.9143 N   0  0  0  0  0  0  0  0  0  0  0  0
    8.7491  -14.1377   17.6308 C   0  0  0  0  0  0  0  0  0  0  0  0
    7.9115  -12.9187   17.9275 C   0  0  0  0  0  0  0  0  0  0  0  0
    7.3685  -13.2652   19.2980 C   0  0  0  0  0  0  0  0  0  0  0  0
    8.5741  -13.9062   19.9528 C   0  0  1  0  0  0  0  0  0  0  0  0
    8.2257  -14.6168   21.1885 C   0  0  0  0  0  0  0  0  0  0  0  0
    7.6427  -13.9722   22.1118 O   0  0  0  0  0  0  0  0  0  0  0  0
    9.7017  -18.2565   22.3126 O   0  0  0  0  0  0  0  0  0  0  0  0
    8.2929  -18.1663   22.4182 C   0  0  0  0  0  0  0  0  0  0  0  0
    7.9868  -16.7015   22.6280 C   0  0  2  0  0  0  0  0  0  0  0  0
    8.4732  -15.9789   21.4755 N   0  0  0  0  0  0  0  0  0  0  0  0
    8.6734  -16.2879   23.8776 C   0  0  0  0  0  0  0  0  0  0  0  0
    9.8712  -15.8793   23.7302 O   0  0  0  0  0  0  0  0  0  0  0  0
    8.1280  -16.3102   25.1662 N   0  0  0  0  0  0  0  0  0  0  0  0
    8.8771  -15.8848   26.3298 C   0  0  1  0  0  0  0  0  0  0  0  0
    8.0486  -15.1279   27.3115 C   0  0  0  0  0  0  0  0  0  0  0  0
    7.4578  -13.8882   26.7710 C   0  0  0  0  0  0  0  0  0  0  0  0
    8.1820  -13.0059   26.0011 C   0  0  0  0  0  0  0  0  0  0  0  0
    7.4053  -11.9715   25.6560 N   0  0  0  0  0  0  0  0  0  0  0  0
    6.2036  -12.2046   26.2057 C   0  0  0  0  0  0  0  0  0  0  0  0
    6.2422  -13.3707   26.8817 N   0  0  0  0  0  0  0  0  0  0  0  0
    9.4449  -17.0632   27.0642 C   0  0  0  0  0  0  0  0  0  0  0  0
    9.1676  -18.2521   26.7590 O   0  0  0  0  0  0  0  0  0  0  0  0
   10.3095  -16.8285   28.1216 O   0  0  0  0  0  0  0  0  0  0  0  0
  1  5  1  0
  1  2  1  0
  2  3  1  0
  4  3  1  0
  5  6  1  1
  5  4  1  0
  6 11  1  0
  6  7  2  0
  9  8  1  0
 10  9  1  6
 10 12  1  0
 11 10  1  0
 12 13  2  0
 12 14  1  0
 14 15  1  0
 15 16  1  1
 15 22  1  0
 17 21  1  0
 17 16  1  0
 18 17  2  0
 19 18  1  0
 19 20  1  0
 20 21  2  0
 22 24  1  0
 23 22  2  0
M  END
$$$$
