PSH.pdb
     RDKit          3D

 24 25  0  0  1  0  0  0  0  0999 V2000
    9.2540  -14.4931   18.9439 N   0  0  0  0  0  0  0  0  0  0  0  0
    8.8561  -13.9653   17.6525 C   0  0  0  0  0  0  0  0  0  0  0  0
    7.7971  -12.9261   17.9247 C   0  0  0  0  0  0  0  0  0  0  0  0
    7.2260  -13.4284   19.2342 C   0  0  0  0  0  0  0  0  0  0  0  0
    8.4753  -13.8820   19.9599 C   0  0  1  0  0  0  0  0  0  0  0  0
    8.1694  -14.7021   21.1377 C   0  0  0  0  0  0  0  0  0  0  0  0
    7.4516  -14.1989   22.0538 O   0  0  0  0  0  0  0  0  0  0  0  0
   10.0876  -18.1648   22.1014 O   0  0  0  0  0  0  0  0  0  0  0  0
    8.6795  -18.2668   22.2054 C   0  0  0  0  0  0  0  0  0  0  0  0
    8.1821  -16.8660   22.4765 C   0  0  2  0  0  0  0  0  0  0  0  0
    8.5964  -16.0289   21.3744 N   0  0  0  0  0  0  0  0  0  0  0  0
    8.7818  -16.4326   23.7636 C   0  0  0  0  0  0  0  0  0  0  0  0
    9.8735  -15.7833   23.6635 O   0  0  0  0  0  0  0  0  0  0  0  0
    8.2609  -16.6727   25.0401 N   0  0  0  0  0  0  0  0  0  0  0  0
    8.9688  -16.2989   26.2464 C   0  0  1  0  0  0  0  0  0  0  0  0
    8.0939  -15.6312   27.2523 C   0  0  0  0  0  0  0  0  0  0  0  0
    7.4918  -14.3684   26.7822 C   0  0  0  0  0  0  0  0  0  0  0  0
    8.2532  -13.3294   26.2960 C   0  0  0  0  0  0  0  0  0  0  0  0
    7.4540  -12.3121   25.9516 N   0  0  0  0  0  0  0  0  0  0  0  0
    6.2014  -12.7113   26.2201 C   0  0  0  0  0  0  0  0  0  0  0  0
    6.2313  -13.9615   26.7245 N   0  0  0  0  0  0  0  0  0  0  0  0
    9.5570  -17.5033   26.9200 C   0  0  0  0  0  0  0  0  0  0  0  0
    9.3376  -18.6778   26.5249 O   0  0  0  0  0  0  0  0  0  0  0  0
   10.3747  -17.3104   28.0222 O   0  0  0  0  0  0  0  0  0  0  0  0
  1  5  1  0
  1  2  1  0
  2  3  1  0
  4  3  1  0
  5  6  1  1
  5  4  1  0
  6 11  1  0
  6  7  2  0
  9  8  1  0
 10  9  1  6
 10 12  1  0
 11 10  1  0
 12 13  2  0
 12 14  1  0
 14 15  1  0
 15 16  1  1
 15 22  1  0
 17 21  1  0
 17 16  1  0
 18 17  2  0
 19 18  1  0
 19 20  1  0
 20 21  2  0
 22 24  1  0
 23 22  2  0
M  END
$$$$
