PSH.pdb
     RDKit          3D

 24 25  0  0  1  0  0  0  0  0999 V2000
    9.1574  -14.7522   18.4579 N   0  0  0  0  0  0  0  0  0  0  0  0
    8.7827  -14.1596   17.1880 C   0  0  0  0  0  0  0  0  0  0  0  0
    7.9691  -12.9318   17.5140 C   0  0  0  0  0  0  0  0  0  0  0  0
    7.4023  -13.3090   18.8667 C   0  0  0  0  0  0  0  0  0  0  0  0
    8.5855  -13.9976   19.5140 C   0  0  1  0  0  0  0  0  0  0  0  0
    8.2066  -14.7388   20.7226 C   0  0  0  0  0  0  0  0  0  0  0  0
    7.6614  -14.1030   21.6746 O   0  0  0  0  0  0  0  0  0  0  0  0
    9.5372  -18.4468   21.5699 O   0  0  0  0  0  0  0  0  0  0  0  0
    8.1550  -18.3241   21.8498 C   0  0  0  0  0  0  0  0  0  0  0  0
    7.9135  -16.8546   22.1055 C   0  0  2  0  0  0  0  0  0  0  0  0
    8.3854  -16.1221   20.9532 N   0  0  0  0  0  0  0  0  0  0  0  0
    8.6604  -16.4987   23.3381 C   0  0  0  0  0  0  0  0  0  0  0  0
    9.8950  -16.2334   23.1684 O   0  0  0  0  0  0  0  0  0  0  0  0
    8.1342  -16.4334   24.6333 N   0  0  0  0  0  0  0  0  0  0  0  0
    8.9495  -16.1026   25.7829 C   0  0  1  0  0  0  0  0  0  0  0  0
    8.1710  -15.4730   26.8877 C   0  0  0  0  0  0  0  0  0  0  0  0
    7.4633  -14.2382   26.4974 C   0  0  0  0  0  0  0  0  0  0  0  0
    7.8567  -13.4771   25.4196 C   0  0  0  0  0  0  0  0  0  0  0  0
    7.0480  -12.4167   25.3018 N   0  0  0  0  0  0  0  0  0  0  0  0
    6.1548  -12.5132   26.2985 C   0  0  0  0  0  0  0  0  0  0  0  0
    6.4127  -13.6221   27.0212 N   0  0  0  0  0  0  0  0  0  0  0  0
    9.5943  -17.3298   26.3561 C   0  0  0  0  0  0  0  0  0  0  0  0
    9.3830  -18.4839   25.9013 O   0  0  0  0  0  0  0  0  0  0  0  0
   10.4572  -17.1821   27.4306 O   0  0  0  0  0  0  0  0  0  0  0  0
  1  5  1  0
  1  2  1  0
  2  3  1  0
  4  3  1  0
  5  6  1  1
  5  4  1  0
  6 11  1  0
  6  7  2  0
  9  8  1  0
 10  9  1  6
 10 12  1  0
 11 10  1  0
 12 13  2  0
 12 14  1  0
 14 15  1  0
 15 16  1  1
 15 22  1  0
 17 21  1  0
 17 16  1  0
 18 17  2  0
 19 18  1  0
 19 20  1  0
 20 21  2  0
 22 24  1  0
 23 22  2  0
M  END
$$$$
