DWH.pdb
     RDKit          3D

 33 35  0  0  1  0  0  0  0  0999 V2000
    9.3272  -17.9921   19.9037 N   0  0  0  0  0  0  0  0  0  0  0  0
   10.5790  -17.4433   20.3763 C   0  0  1  0  0  0  0  0  0  0  0  0
   11.1087  -16.4304   19.4193 C   0  0  0  0  0  0  0  0  0  0  0  0
   11.5527  -17.1280   18.1849 C   0  0  0  0  0  0  0  0  0  0  0  0
   11.4953  -18.3805   18.0991 O   0  0  0  0  0  0  0  0  0  0  0  0
   10.4463  -17.0071   21.7503 C   0  0  0  0  0  0  0  0  0  0  0  0
   11.3923  -16.3828   22.2932 O   0  0  0  0  0  0  0  0  0  0  0  0
   12.0471  -16.4405   17.0775 O   0  0  0  0  0  0  0  0  0  0  0  0
    9.2874  -17.2388   22.5608 N   0  0  0  0  0  0  0  0  0  0  0  0
    9.2558  -16.8765   23.9567 C   0  0  1  0  0  0  0  0  0  0  0  0
    7.9281  -16.3851   24.4462 C   0  0  0  0  0  0  0  0  0  0  0  0
    7.5500  -15.0317   24.0383 C   0  0  0  0  0  0  0  0  0  0  0  0
    7.5099  -14.5946   22.7284 C   0  0  0  0  0  0  0  0  0  0  0  0
    7.1397  -13.3086   22.7703 N   0  0  0  0  0  0  0  0  0  0  0  0
    6.9436  -12.9157   24.0559 C   0  0  0  0  0  0  0  0  0  0  0  0
    6.5565  -11.7175   24.6234 C   0  0  0  0  0  0  0  0  0  0  0  0
    6.4335  -11.6251   25.9813 C   0  0  0  0  0  0  0  0  0  0  0  0
    6.6757  -12.6725   26.8417 C   0  0  0  0  0  0  0  0  0  0  0  0
    7.0610  -13.8609   26.2654 C   0  0  0  0  0  0  0  0  0  0  0  0
    7.1932  -13.9803   24.8950 C   0  0  0  0  0  0  0  0  0  0  0  0
    9.8767  -17.9134   24.8131 C   0  0  0  0  0  0  0  0  0  0  0  0
    9.2634  -18.9918   25.0983 O   0  0  0  0  0  0  0  0  0  0  0  0
   11.1779  -17.6952   25.3171 N   0  0  0  0  0  0  0  0  0  0  0  0
   11.3878  -17.2868   26.7302 C   0  0  1  0  0  0  0  0  0  0  0  0
   10.5895  -15.9909   26.8647 C   0  0  0  0  0  0  0  0  0  0  0  0
   10.7304  -15.4317   28.2133 C   0  0  0  0  0  0  0  0  0  0  0  0
   11.5123  -16.0465   29.2019 C   0  0  0  0  0  0  0  0  0  0  0  0
   11.4491  -15.3119   30.3185 N   0  0  0  0  0  0  0  0  0  0  0  0
   10.6632  -14.2535   30.0944 C   0  0  0  0  0  0  0  0  0  0  0  0
   10.2392  -14.3445   28.8169 N   0  0  0  0  0  0  0  0  0  0  0  0
   10.8214  -18.3476   27.5762 C   0  0  0  0  0  0  0  0  0  0  0  0
   11.4605  -18.7219   28.7382 O   0  0  0  0  0  0  0  0  0  0  0  0
    9.7676  -18.9246   27.2675 O   0  0  0  0  0  0  0  0  0  0  0  0
  2  1  1  6
  2  3  1  0
  3  4  1  0
  4  8  1  0
  5  4  2  0
  6  2  1  0
  6  7  2  0
  9  6  1  0
 10 11  1  1
 10  9  1  0
 12 11  1  0
 12 20  1  0
 13 14  1  0
 13 12  2  0
 14 15  1  0
 15 20  2  0
 15 16  1  0
 16 17  2  0
 17 18  1  0
 19 18  2  0
 20 19  1  0
 21 10  1  0
 22 21  2  0
 23 21  1  0
 24 25  1  6
 24 23  1  0
 25 26  1  0
 26 30  1  0
 27 26  2  0
 27 28  1  0
 28 29  1  0
 30 29  2  0
 31 32  1  0
 31 24  1  0
 33 31  2  0
M  END
$$$$
