DWH.pdb
     RDKit          3D

 33 35  0  0  1  0  0  0  0  0999 V2000
    9.8130  -17.2776   21.0056 N   0  0  0  0  0  0  0  0  0  0  0  0
   10.3502  -17.5215   22.3260 C   0  0  1  0  0  0  0  0  0  0  0  0
   11.8369  -17.6233   22.2830 C   0  0  0  0  0  0  0  0  0  0  0  0
   12.2114  -18.7500   21.3898 C   0  0  0  0  0  0  0  0  0  0  0  0
   11.6935  -18.8660   20.2507 O   0  0  0  0  0  0  0  0  0  0  0  0
    9.8084  -16.5670   23.2701 C   0  0  0  0  0  0  0  0  0  0  0  0
    9.0118  -15.6833   22.8652 O   0  0  0  0  0  0  0  0  0  0  0  0
   13.1407  -19.7197   21.7635 O   0  0  0  0  0  0  0  0  0  0  0  0
   10.1192  -16.5522   24.6690 N   0  0  0  0  0  0  0  0  0  0  0  0
    9.0906  -16.4162   25.6710 C   0  0  1  0  0  0  0  0  0  0  0  0
    7.7126  -16.1931   25.1275 C   0  0  0  0  0  0  0  0  0  0  0  0
    7.4123  -14.8378   24.6651 C   0  0  0  0  0  0  0  0  0  0  0  0
    7.4234  -14.4453   23.3405 C   0  0  0  0  0  0  0  0  0  0  0  0
    7.1176  -13.1419   23.3299 N   0  0  0  0  0  0  0  0  0  0  0  0
    6.9131  -12.6949   24.5964 C   0  0  0  0  0  0  0  0  0  0  0  0
    6.5743  -11.4598   25.1135 C   0  0  0  0  0  0  0  0  0  0  0  0
    6.4261  -11.3139   26.4643 C   0  0  0  0  0  0  0  0  0  0  0  0
    6.5961  -12.3413   27.3652 C   0  0  0  0  0  0  0  0  0  0  0  0
    6.9337  -13.5667   26.8388 C   0  0  0  0  0  0  0  0  0  0  0  0
    7.0900  -13.7405   25.4769 C   0  0  0  0  0  0  0  0  0  0  0  0
    9.1762  -17.4768   26.7014 C   0  0  0  0  0  0  0  0  0  0  0  0
    8.3053  -17.5759   27.6245 O   0  0  0  0  0  0  0  0  0  0  0  0
   10.2476  -18.3955   26.6499 N   0  0  0  0  0  0  0  0  0  0  0  0
   10.4475  -19.3927   27.7331 C   0  0  1  0  0  0  0  0  0  0  0  0
   11.1638  -20.5525   27.0427 C   0  0  0  0  0  0  0  0  0  0  0  0
   10.2657  -21.2320   26.1030 C   0  0  0  0  0  0  0  0  0  0  0  0
    8.9188  -20.8697   25.9582 C   0  0  0  0  0  0  0  0  0  0  0  0
    8.3577  -21.6604   25.0360 N   0  0  0  0  0  0  0  0  0  0  0  0
    9.2807  -22.5141   24.5809 C   0  0  0  0  0  0  0  0  0  0  0  0
   10.4262  -22.2389   25.2381 N   0  0  0  0  0  0  0  0  0  0  0  0
   11.3098  -18.7655   28.7455 C   0  0  0  0  0  0  0  0  0  0  0  0
   12.1956  -17.7743   28.3826 O   0  0  0  0  0  0  0  0  0  0  0  0
   11.2615  -19.1099   29.9362 O   0  0  0  0  0  0  0  0  0  0  0  0
  2  1  1  6
  2  3  1  0
  3  4  1  0
  4  8  1  0
  5  4  2  0
  6  2  1  0
  6  7  2  0
  9  6  1  0
 10 11  1  6
 10  9  1  0
 12 11  1  0
 12 20  1  0
 13 14  1  0
 13 12  2  0
 14 15  1  0
 15 20  2  0
 15 16  1  0
 16 17  2  0
 17 18  1  0
 19 18  2  0
 20 19  1  0
 21 10  1  0
 22 21  2  0
 23 21  1  0
 24 25  1  6
 24 23  1  0
 25 26  1  0
 26 30  1  0
 27 26  2  0
 27 28  1  0
 28 29  1  0
 30 29  2  0
 31 32  1  0
 31 24  1  0
 33 31  2  0
M  END
$$$$
