DWH.pdb
     RDKit          3D

 33 35  0  0  1  0  0  0  0  0999 V2000
    7.3057  -16.1607   20.9271 N   0  0  0  0  0  0  0  0  0  0  0  0
    8.6400  -16.6975   21.0795 C   0  0  1  0  0  0  0  0  0  0  0  0
    9.4949  -16.3313   19.9143 C   0  0  0  0  0  0  0  0  0  0  0  0
    9.0107  -17.0679   18.7183 C   0  0  0  0  0  0  0  0  0  0  0  0
    8.1362  -17.9639   18.8264 O   0  0  0  0  0  0  0  0  0  0  0  0
    9.1690  -16.3586   22.3837 C   0  0  0  0  0  0  0  0  0  0  0  0
    9.9574  -15.3863   22.4959 O   0  0  0  0  0  0  0  0  0  0  0  0
    9.4935  -16.8071   17.4367 O   0  0  0  0  0  0  0  0  0  0  0  0
    8.8541  -17.0661   23.5896 N   0  0  0  0  0  0  0  0  0  0  0  0
    9.4825  -16.7372   24.8456 C   0  0  1  0  0  0  0  0  0  0  0  0
    8.5355  -16.5661   25.9936 C   0  0  0  0  0  0  0  0  0  0  0  0
    7.4409  -15.6163   25.7920 C   0  0  0  0  0  0  0  0  0  0  0  0
    6.1924  -15.9564   25.3080 C   0  0  0  0  0  0  0  0  0  0  0  0
    5.4865  -14.8202   25.2519 N   0  0  0  0  0  0  0  0  0  0  0  0
    6.2399  -13.7747   25.6819 C   0  0  0  0  0  0  0  0  0  0  0  0
    5.9813  -12.4253   25.8222 C   0  0  0  0  0  0  0  0  0  0  0  0
    6.9591  -11.5994   26.3016 C   0  0  0  0  0  0  0  0  0  0  0  0
    8.2148  -12.0340   26.6626 C   0  0  0  0  0  0  0  0  0  0  0  0
    8.4611  -13.3798   26.5182 C   0  0  0  0  0  0  0  0  0  0  0  0
    7.4898  -14.2360   26.0354 C   0  0  0  0  0  0  0  0  0  0  0  0
   10.6393  -17.6161   25.1341 C   0  0  0  0  0  0  0  0  0  0  0  0
   10.5436  -18.8833   25.0603 O   0  0  0  0  0  0  0  0  0  0  0  0
   11.8718  -17.0282   25.4947 N   0  0  0  0  0  0  0  0  0  0  0  0
   13.0132  -17.8678   25.9423 C   0  0  1  0  0  0  0  0  0  0  0  0
   14.2026  -16.9086   25.9411 C   0  0  0  0  0  0  0  0  0  0  0  0
   14.5489  -16.5124   24.5720 C   0  0  0  0  0  0  0  0  0  0  0  0
   13.8898  -17.0363   23.4505 C   0  0  0  0  0  0  0  0  0  0  0  0
   14.4185  -16.4924   22.3482 N   0  0  0  0  0  0  0  0  0  0  0  0
   15.3867  -15.6433   22.7082 C   0  0  0  0  0  0  0  0  0  0  0  0
   15.4496  -15.6699   24.0555 N   0  0  0  0  0  0  0  0  0  0  0  0
   12.7049  -18.3270   27.3045 C   0  0  0  0  0  0  0  0  0  0  0  0
   11.8186  -17.6217   28.0892 O   0  0  0  0  0  0  0  0  0  0  0  0
   13.2296  -19.3480   27.7748 O   0  0  0  0  0  0  0  0  0  0  0  0
  2  1  1  6
  2  3  1  0
  3  4  1  0
  4  8  1  0
  5  4  2  0
  6  2  1  0
  6  7  2  0
  9  6  1  0
 10 11  1  1
 10  9  1  0
 12 11  1  0
 12 20  1  0
 13 14  1  0
 13 12  2  0
 14 15  1  0
 15 20  2  0
 15 16  1  0
 16 17  2  0
 17 18  1  0
 19 18  2  0
 20 19  1  0
 21 10  1  0
 22 21  2  0
 23 21  1  0
 24 25  1  1
 24 23  1  0
 25 26  1  0
 26 30  1  0
 27 26  2  0
 27 28  1  0
 28 29  1  0
 30 29  2  0
 31 32  1  0
 31 24  1  0
 33 31  2  0
M  END
$$$$
