DWH.pdb
     RDKit          3D

 33 35  0  0  1  0  0  0  0  0999 V2000
   10.0722  -16.6200   18.4655 N   0  0  0  0  0  0  0  0  0  0  0  0
    9.9858  -17.4349   19.6572 C   0  0  1  0  0  0  0  0  0  0  0  0
   11.1252  -18.3937   19.7275 C   0  0  0  0  0  0  0  0  0  0  0  0
   11.0978  -19.2554   18.5174 C   0  0  0  0  0  0  0  0  0  0  0  0
   10.0067  -19.6494   18.0342 O   0  0  0  0  0  0  0  0  0  0  0  0
    9.7906  -16.5977   20.8219 C   0  0  0  0  0  0  0  0  0  0  0  0
   10.5065  -15.5760   20.9741 O   0  0  0  0  0  0  0  0  0  0  0  0
   12.2614  -19.6637   17.8672 O   0  0  0  0  0  0  0  0  0  0  0  0
    8.8171  -16.8514   21.8426 N   0  0  0  0  0  0  0  0  0  0  0  0
    8.6945  -15.9990   22.9997 C   0  0  1  0  0  0  0  0  0  0  0  0
    7.2858  -15.7256   23.4296 C   0  0  0  0  0  0  0  0  0  0  0  0
    7.1229  -15.0507   24.7176 C   0  0  0  0  0  0  0  0  0  0  0  0
    6.8283  -15.6948   25.9038 C   0  0  0  0  0  0  0  0  0  0  0  0
    6.7441  -14.7418   26.8404 N   0  0  0  0  0  0  0  0  0  0  0  0
    6.9744  -13.5201   26.2927 C   0  0  0  0  0  0  0  0  0  0  0  0
    7.0095  -12.2449   26.8219 C   0  0  0  0  0  0  0  0  0  0  0  0
    7.2836  -11.1847   26.0041 C   0  0  0  0  0  0  0  0  0  0  0  0
    7.5332  -11.3067   24.6555 C   0  0  0  0  0  0  0  0  0  0  0  0
    7.4953  -12.5815   24.1394 C   0  0  0  0  0  0  0  0  0  0  0  0
    7.2200  -13.6702   24.9447 C   0  0  0  0  0  0  0  0  0  0  0  0
    9.5969  -16.4193   24.0965 C   0  0  0  0  0  0  0  0  0  0  0  0
    9.4878  -17.5639   24.6427 O   0  0  0  0  0  0  0  0  0  0  0  0
   10.5991  -15.5272   24.5374 N   0  0  0  0  0  0  0  0  0  0  0  0
   11.5304  -15.9092   25.6304 C   0  0  1  0  0  0  0  0  0  0  0  0
   10.7344  -16.9137   26.4624 C   0  0  0  0  0  0  0  0  0  0  0  0
   10.3990  -16.3510   27.7747 C   0  0  0  0  0  0  0  0  0  0  0  0
   10.7133  -15.0305   28.1267 C   0  0  0  0  0  0  0  0  0  0  0  0
   10.2871  -14.8053   29.3749 N   0  0  0  0  0  0  0  0  0  0  0  0
    9.7134  -15.9191   29.8422 C   0  0  0  0  0  0  0  0  0  0  0  0
    9.7914  -16.8409   28.8603 N   0  0  0  0  0  0  0  0  0  0  0  0
   12.6963  -16.5481   25.0025 C   0  0  0  0  0  0  0  0  0  0  0  0
   13.7999  -15.7955   24.6643 O   0  0  0  0  0  0  0  0  0  0  0  0
   12.7139  -17.7654   24.7643 O   0  0  0  0  0  0  0  0  0  0  0  0
  2  1  1  6
  2  3  1  0
  3  4  1  0
  4  8  1  0
  5  4  2  0
  6  2  1  0
  6  7  2  0
  9  6  1  0
 10 11  1  1
 10  9  1  0
 12 11  1  0
 12 20  1  0
 13 14  1  0
 13 12  2  0
 14 15  1  0
 15 20  2  0
 15 16  1  0
 16 17  2  0
 17 18  1  0
 19 18  2  0
 20 19  1  0
 21 10  1  0
 22 21  2  0
 23 21  1  0
 24 25  1  1
 24 23  1  0
 25 26  1  0
 26 30  1  0
 27 26  2  0
 27 28  1  0
 28 29  1  0
 30 29  2  0
 31 32  1  0
 31 24  1  0
 33 31  2  0
M  END
$$$$
