DWH.pdb
     RDKit          3D

 33 35  0  0  1  0  0  0  0  0999 V2000
   10.6637  -17.4141   17.2744 N   0  0  0  0  0  0  0  0  0  0  0  0
   11.5431  -17.9778   18.2746 C   0  0  1  0  0  0  0  0  0  0  0  0
   12.9691  -17.8506   17.8589 C   0  0  0  0  0  0  0  0  0  0  0  0
   13.2343  -18.8197   16.7644 C   0  0  0  0  0  0  0  0  0  0  0  0
   12.6189  -19.9142   16.7126 O   0  0  0  0  0  0  0  0  0  0  0  0
   11.2158  -17.4501   19.5823 C   0  0  0  0  0  0  0  0  0  0  0  0
   11.9285  -16.5405   20.0765 O   0  0  0  0  0  0  0  0  0  0  0  0
   14.1635  -18.5686   15.7559 O   0  0  0  0  0  0  0  0  0  0  0  0
   10.1112  -17.8975   20.3783 N   0  0  0  0  0  0  0  0  0  0  0  0
    9.8513  -17.3500   21.6873 C   0  0  1  0  0  0  0  0  0  0  0  0
    8.4168  -17.0070   21.9489 C   0  0  0  0  0  0  0  0  0  0  0  0
    7.8334  -15.9733   21.0933 C   0  0  0  0  0  0  0  0  0  0  0  0
    7.1845  -16.2237   19.8997 C   0  0  0  0  0  0  0  0  0  0  0  0
    6.8150  -15.0323   19.4133 N   0  0  0  0  0  0  0  0  0  0  0  0
    7.2047  -14.0382   20.2532 C   0  0  0  0  0  0  0  0  0  0  0  0
    7.0622  -12.6651   20.2135 C   0  0  0  0  0  0  0  0  0  0  0  0
    7.5635  -11.9071   21.2343 C   0  0  0  0  0  0  0  0  0  0  0  0
    8.2167  -12.4344   22.3257 C   0  0  0  0  0  0  0  0  0  0  0  0
    8.3532  -13.8032   22.3543 C   0  0  0  0  0  0  0  0  0  0  0  0
    7.8557  -14.5920   21.3346 C   0  0  0  0  0  0  0  0  0  0  0  0
   10.4942  -18.1453   22.7588 C   0  0  0  0  0  0  0  0  0  0  0  0
   11.0592  -19.2585   22.5098 O   0  0  0  0  0  0  0  0  0  0  0  0
   10.4789  -17.6497   24.0812 N   0  0  0  0  0  0  0  0  0  0  0  0
   11.1977  -18.3623   25.1691 C   0  0  1  0  0  0  0  0  0  0  0  0
   12.6569  -18.3564   24.7159 C   0  0  0  0  0  0  0  0  0  0  0  0
   12.9737  -19.5782   23.9689 C   0  0  0  0  0  0  0  0  0  0  0  0
   12.0146  -20.5676   23.7085 C   0  0  0  0  0  0  0  0  0  0  0  0
   12.5927  -21.5544   23.0139 N   0  0  0  0  0  0  0  0  0  0  0  0
   13.8785  -21.2460   22.8153 C   0  0  0  0  0  0  0  0  0  0  0  0
   14.0885  -20.0486   23.4000 N   0  0  0  0  0  0  0  0  0  0  0  0
   11.0212  -17.5709   26.3956 C   0  0  0  0  0  0  0  0  0  0  0  0
   10.2597  -16.4227   26.3753 O   0  0  0  0  0  0  0  0  0  0  0  0
   11.5479  -17.9135   27.4652 O   0  0  0  0  0  0  0  0  0  0  0  0
  2  1  1  6
  2  3  1  0
  3  4  1  0
  4  8  1  0
  5  4  2  0
  6  2  1  0
  6  7  2  0
  9  6  1  0
 10 11  1  1
 10  9  1  0
 12 11  1  0
 12 20  1  0
 13 14  1  0
 13 12  2  0
 14 15  1  0
 15 20  2  0
 15 16  1  0
 16 17  2  0
 17 18  1  0
 19 18  2  0
 20 19  1  0
 21 10  1  0
 22 21  2  0
 23 21  1  0
 24 25  1  6
 24 23  1  0
 25 26  1  0
 26 30  1  0
 27 26  2  0
 27 28  1  0
 28 29  1  0
 30 29  2  0
 31 32  1  0
 31 24  1  0
 33 31  2  0
M  END
$$$$
