DWH.pdb
     RDKit          3D

 33 35  0  0  1  0  0  0  0  0999 V2000
    9.6685  -18.2743   21.3972 N   0  0  0  0  0  0  0  0  0  0  0  0
   10.6595  -17.2970   21.7902 C   0  0  1  0  0  0  0  0  0  0  0  0
   10.7352  -16.1892   20.7955 C   0  0  0  0  0  0  0  0  0  0  0  0
   11.4786  -16.6704   19.6025 C   0  0  0  0  0  0  0  0  0  0  0  0
   12.4218  -17.4922   19.7220 O   0  0  0  0  0  0  0  0  0  0  0  0
   10.4503  -16.8987   23.1662 C   0  0  0  0  0  0  0  0  0  0  0  0
   11.2435  -16.0828   23.6996 O   0  0  0  0  0  0  0  0  0  0  0  0
   11.1729  -16.2422   18.3115 O   0  0  0  0  0  0  0  0  0  0  0  0
    9.3787  -17.3764   23.9892 N   0  0  0  0  0  0  0  0  0  0  0  0
    9.2272  -16.9476   25.3581 C   0  0  1  0  0  0  0  0  0  0  0  0
    7.8673  -16.4224   25.7028 C   0  0  0  0  0  0  0  0  0  0  0  0
    7.4746  -15.1710   25.0541 C   0  0  0  0  0  0  0  0  0  0  0  0
    7.1030  -15.0633   23.7278 C   0  0  0  0  0  0  0  0  0  0  0  0
    6.8374  -13.7687   23.5137 N   0  0  0  0  0  0  0  0  0  0  0  0
    7.0263  -13.0535   24.6532 C   0  0  0  0  0  0  0  0  0  0  0  0
    6.8835  -11.7135   24.9558 C   0  0  0  0  0  0  0  0  0  0  0  0
    7.1440  -11.2792   26.2252 C   0  0  0  0  0  0  0  0  0  0  0  0
    7.5491  -12.1089   27.2467 C   0  0  0  0  0  0  0  0  0  0  0  0
    7.6883  -13.4414   26.9335 C   0  0  0  0  0  0  0  0  0  0  0  0
    7.4315  -13.9059   25.6577 C   0  0  0  0  0  0  0  0  0  0  0  0
    9.7560  -17.9474   26.3144 C   0  0  0  0  0  0  0  0  0  0  0  0
    9.2414  -19.1076   26.4126 O   0  0  0  0  0  0  0  0  0  0  0  0
   10.8567  -17.6000   27.1283 N   0  0  0  0  0  0  0  0  0  0  0  0
   11.4278  -18.5756   28.0927 C   0  0  1  0  0  0  0  0  0  0  0  0
   12.9062  -18.1976   28.1716 C   0  0  0  0  0  0  0  0  0  0  0  0
   13.6203  -18.6401   26.9693 C   0  0  0  0  0  0  0  0  0  0  0  0
   12.9819  -19.3327   25.9305 C   0  0  0  0  0  0  0  0  0  0  0  0
   13.8811  -19.6014   24.9768 N   0  0  0  0  0  0  0  0  0  0  0  0
   15.0679  -19.1140   25.3535 C   0  0  0  0  0  0  0  0  0  0  0  0
   14.8890  -18.5372   26.5599 N   0  0  0  0  0  0  0  0  0  0  0  0
   10.7554  -18.3548   29.3814 C   0  0  0  0  0  0  0  0  0  0  0  0
   10.9725  -19.2187   30.4327 O   0  0  0  0  0  0  0  0  0  0  0  0
    9.9852  -17.3973   29.5510 O   0  0  0  0  0  0  0  0  0  0  0  0
  2  1  1  6
  2  3  1  0
  3  4  1  0
  4  8  1  0
  5  4  2  0
  6  2  1  0
  6  7  2  0
  9  6  1  0
 10 11  1  1
 10  9  1  0
 12 11  1  0
 12 20  1  0
 13 14  1  0
 13 12  2  0
 14 15  1  0
 15 20  2  0
 15 16  1  0
 16 17  2  0
 17 18  1  0
 19 18  2  0
 20 19  1  0
 21 10  1  0
 22 21  2  0
 23 21  1  0
 24 25  1  1
 24 23  1  0
 25 26  1  0
 26 30  1  0
 27 26  2  0
 27 28  1  0
 28 29  1  0
 30 29  2  0
 31 32  1  0
 31 24  1  0
 33 31  2  0
M  END
$$$$
