DWH.pdb
     RDKit          3D

 33 35  0  0  1  0  0  0  0  0999 V2000
   10.3882  -18.7462   21.7928 N   0  0  0  0  0  0  0  0  0  0  0  0
   10.3387  -17.3279   21.5137 C   0  0  1  0  0  0  0  0  0  0  0  0
    9.6609  -17.0672   20.2118 C   0  0  0  0  0  0  0  0  0  0  0  0
   10.3450  -17.8534   19.1529 C   0  0  0  0  0  0  0  0  0  0  0  0
    9.7307  -18.7480   18.5191 O   0  0  0  0  0  0  0  0  0  0  0  0
    9.8116  -16.6119   22.6562 C   0  0  0  0  0  0  0  0  0  0  0  0
    8.9602  -15.7051   22.4765 O   0  0  0  0  0  0  0  0  0  0  0  0
   11.6807  -17.6424   18.8139 O   0  0  0  0  0  0  0  0  0  0  0  0
   10.1966  -16.8647   24.0132 N   0  0  0  0  0  0  0  0  0  0  0  0
    9.5495  -16.2021   25.1191 C   0  0  1  0  0  0  0  0  0  0  0  0
    8.0536  -16.1760   25.0449 C   0  0  0  0  0  0  0  0  0  0  0  0
    7.4485  -14.9031   24.6517 C   0  0  0  0  0  0  0  0  0  0  0  0
    6.9550  -14.6310   23.3904 C   0  0  0  0  0  0  0  0  0  0  0  0
    6.5066  -13.3698   23.4241 N   0  0  0  0  0  0  0  0  0  0  0  0
    6.6971  -12.8341   24.6579 C   0  0  0  0  0  0  0  0  0  0  0  0
    6.4080  -11.5970   25.1997 C   0  0  0  0  0  0  0  0  0  0  0  0
    6.7168  -11.3467   26.5073 C   0  0  0  0  0  0  0  0  0  0  0  0
    7.3111  -12.2682   27.3401 C   0  0  0  0  0  0  0  0  0  0  0  0
    7.5948  -13.4967   26.7895 C   0  0  0  0  0  0  0  0  0  0  0  0
    7.2931  -13.7748   25.4700 C   0  0  0  0  0  0  0  0  0  0  0  0
   10.0884  -16.6475   26.4249 C   0  0  0  0  0  0  0  0  0  0  0  0
    9.5257  -16.3230   27.5196 O   0  0  0  0  0  0  0  0  0  0  0  0
   11.2493  -17.4516   26.4474 N   0  0  0  0  0  0  0  0  0  0  0  0
   11.2167  -18.8187   27.0285 C   0  0  1  0  0  0  0  0  0  0  0  0
   10.2885  -19.5963   26.0964 C   0  0  0  0  0  0  0  0  0  0  0  0
    8.9723  -19.7872   26.7150 C   0  0  0  0  0  0  0  0  0  0  0  0
    8.6723  -19.3135   28.0004 C   0  0  0  0  0  0  0  0  0  0  0  0
    7.4064  -19.6342   28.2919 N   0  0  0  0  0  0  0  0  0  0  0  0
    6.8782  -20.2917   27.2544 C   0  0  0  0  0  0  0  0  0  0  0  0
    7.8403  -20.3737   26.3122 N   0  0  0  0  0  0  0  0  0  0  0  0
   12.5878  -19.3465   26.9710 C   0  0  0  0  0  0  0  0  0  0  0  0
   12.8881  -20.5590   27.5527 O   0  0  0  0  0  0  0  0  0  0  0  0
   13.4965  -18.7200   26.4048 O   0  0  0  0  0  0  0  0  0  0  0  0
  2  1  1  1
  2  3  1  0
  3  4  1  0
  4  8  1  0
  5  4  2  0
  6  2  1  0
  6  7  2  0
  9  6  1  0
 10 11  1  1
 10  9  1  0
 12 11  1  0
 12 20  1  0
 13 14  1  0
 13 12  2  0
 14 15  1  0
 15 20  2  0
 15 16  1  0
 16 17  2  0
 17 18  1  0
 19 18  2  0
 20 19  1  0
 21 10  1  0
 22 21  2  0
 23 21  1  0
 24 25  1  6
 24 23  1  0
 25 26  1  0
 26 30  1  0
 27 26  2  0
 27 28  1  0
 28 29  1  0
 30 29  2  0
 31 32  1  0
 31 24  1  0
 33 31  2  0
M  END
$$$$
