DWH.pdb
     RDKit          3D

 33 35  0  0  1  0  0  0  0  0999 V2000
   10.2030  -18.1310   21.6558 N   0  0  0  0  0  0  0  0  0  0  0  0
   10.9312  -16.9693   22.1161 C   0  0  1  0  0  0  0  0  0  0  0  0
   10.9349  -15.9000   21.0773 C   0  0  0  0  0  0  0  0  0  0  0  0
   11.6810  -16.3918   19.8904 C   0  0  0  0  0  0  0  0  0  0  0  0
   12.2240  -17.5251   19.8974 O   0  0  0  0  0  0  0  0  0  0  0  0
   10.4646  -16.5749   23.4286 C   0  0  0  0  0  0  0  0  0  0  0  0
   10.9362  -15.5413   23.9659 O   0  0  0  0  0  0  0  0  0  0  0  0
   11.8144  -15.6341   18.7278 O   0  0  0  0  0  0  0  0  0  0  0  0
    9.4793  -17.2921   24.1826 N   0  0  0  0  0  0  0  0  0  0  0  0
    9.0825  -16.8698   25.5035 C   0  0  1  0  0  0  0  0  0  0  0  0
    7.6447  -16.4680   25.6269 C   0  0  0  0  0  0  0  0  0  0  0  0
    7.2838  -15.1738   25.0475 C   0  0  0  0  0  0  0  0  0  0  0  0
    7.1328  -14.9401   23.6943 C   0  0  0  0  0  0  0  0  0  0  0  0
    6.8213  -13.6442   23.5670 N   0  0  0  0  0  0  0  0  0  0  0  0
    6.7690  -13.0494   24.7873 C   0  0  0  0  0  0  0  0  0  0  0  0
    6.4889  -11.7590   25.1922 C   0  0  0  0  0  0  0  0  0  0  0  0
    6.5042  -11.4538   26.5242 C   0  0  0  0  0  0  0  0  0  0  0  0
    6.7871  -12.3695   27.5129 C   0  0  0  0  0  0  0  0  0  0  0  0
    7.0649  -13.6514   27.0979 C   0  0  0  0  0  0  0  0  0  0  0  0
    7.0564  -13.9857   25.7571 C   0  0  0  0  0  0  0  0  0  0  0  0
    9.5453  -17.8112   26.5493 C   0  0  0  0  0  0  0  0  0  0  0  0
    9.0608  -17.7849   27.7261 O   0  0  0  0  0  0  0  0  0  0  0  0
   10.5429  -18.7570   26.2252 N   0  0  0  0  0  0  0  0  0  0  0  0
   11.1582  -19.6051   27.2787 C   0  0  1  0  0  0  0  0  0  0  0  0
   11.9006  -20.6880   26.4970 C   0  0  0  0  0  0  0  0  0  0  0  0
   10.9565  -21.5451   25.7724 C   0  0  0  0  0  0  0  0  0  0  0  0
    9.5670  -21.4085   25.9038 C   0  0  0  0  0  0  0  0  0  0  0  0
    8.9701  -22.3208   25.1281 N   0  0  0  0  0  0  0  0  0  0  0  0
    9.9105  -23.0378   24.5039 C   0  0  0  0  0  0  0  0  0  0  0  0
   11.1034  -22.5534   24.9067 N   0  0  0  0  0  0  0  0  0  0  0  0
   12.0962  -18.7547   28.0262 C   0  0  0  0  0  0  0  0  0  0  0  0
   12.2331  -18.9062   29.3889 O   0  0  0  0  0  0  0  0  0  0  0  0
   12.7782  -17.8903   27.4549 O   0  0  0  0  0  0  0  0  0  0  0  0
  2  1  1  6
  2  3  1  0
  3  4  1  0
  4  8  1  0
  5  4  2  0
  6  2  1  0
  6  7  2  0
  9  6  1  0
 10 11  1  6
 10  9  1  0
 12 11  1  0
 12 20  1  0
 13 14  1  0
 13 12  2  0
 14 15  1  0
 15 20  2  0
 15 16  1  0
 16 17  2  0
 17 18  1  0
 19 18  2  0
 20 19  1  0
 21 10  1  0
 22 21  2  0
 23 21  1  0
 24 25  1  6
 24 23  1  0
 25 26  1  0
 26 30  1  0
 27 26  2  0
 27 28  1  0
 28 29  1  0
 30 29  2  0
 31 32  1  0
 31 24  1  0
 33 31  2  0
M  END
$$$$
