DWH.pdb
     RDKit          3D

 33 35  0  0  1  0  0  0  0  0999 V2000
   10.2237  -18.3586   21.8721 N   0  0  0  0  0  0  0  0  0  0  0  0
   11.0088  -17.2664   22.4034 C   0  0  1  0  0  0  0  0  0  0  0  0
   11.2497  -16.2298   21.3594 C   0  0  0  0  0  0  0  0  0  0  0  0
   12.1550  -16.7958   20.3263 C   0  0  0  0  0  0  0  0  0  0  0  0
   12.5612  -17.9822   20.4087 O   0  0  0  0  0  0  0  0  0  0  0  0
   10.4316  -16.7930   23.6437 C   0  0  0  0  0  0  0  0  0  0  0  0
   11.0425  -15.9252   24.3167 O   0  0  0  0  0  0  0  0  0  0  0  0
   12.5927  -16.0524   19.2311 O   0  0  0  0  0  0  0  0  0  0  0  0
    9.1828  -17.2507   24.1776 N   0  0  0  0  0  0  0  0  0  0  0  0
    8.6410  -16.7132   25.4016 C   0  0  1  0  0  0  0  0  0  0  0  0
    7.2466  -16.1779   25.2871 C   0  0  0  0  0  0  0  0  0  0  0  0
    7.1066  -14.8735   24.6392 C   0  0  0  0  0  0  0  0  0  0  0  0
    7.0575  -14.6834   23.2717 C   0  0  0  0  0  0  0  0  0  0  0  0
    6.9446  -13.3635   23.0775 N   0  0  0  0  0  0  0  0  0  0  0  0
    6.9200  -12.7116   24.2692 C   0  0  0  0  0  0  0  0  0  0  0  0
    6.8113  -11.3771   24.6079 C   0  0  0  0  0  0  0  0  0  0  0  0
    6.8057  -11.0160   25.9260 C   0  0  0  0  0  0  0  0  0  0  0  0
    6.9036  -11.9161   26.9634 C   0  0  0  0  0  0  0  0  0  0  0  0
    7.0118  -13.2424   26.6141 C   0  0  0  0  0  0  0  0  0  0  0  0
    7.0202  -13.6336   25.2888 C   0  0  0  0  0  0  0  0  0  0  0  0
    8.8527  -17.6251   26.5495 C   0  0  0  0  0  0  0  0  0  0  0  0
    7.8898  -17.9729   27.3060 O   0  0  0  0  0  0  0  0  0  0  0  0
   10.1522  -18.1175   26.8012 N   0  0  0  0  0  0  0  0  0  0  0  0
   10.3596  -19.3158   27.6550 C   0  0  1  0  0  0  0  0  0  0  0  0
    9.6238  -20.4314   26.9143 C   0  0  0  0  0  0  0  0  0  0  0  0
    8.2691  -20.6044   27.4492 C   0  0  0  0  0  0  0  0  0  0  0  0
    7.5473  -19.5457   28.0191 C   0  0  0  0  0  0  0  0  0  0  0  0
    6.3537  -20.0031   28.4148 N   0  0  0  0  0  0  0  0  0  0  0  0
    6.2741  -21.3063   28.1261 C   0  0  0  0  0  0  0  0  0  0  0  0
    7.4412  -21.6500   27.5433 N   0  0  0  0  0  0  0  0  0  0  0  0
   11.8067  -19.5728   27.6964 C   0  0  0  0  0  0  0  0  0  0  0  0
   12.3085  -20.5816   28.4897 O   0  0  0  0  0  0  0  0  0  0  0  0
   12.6012  -18.8953   27.0267 O   0  0  0  0  0  0  0  0  0  0  0  0
  2  1  1  6
  2  3  1  0
  3  4  1  0
  4  8  1  0
  5  4  2  0
  6  2  1  0
  6  7  2  0
  9  6  1  0
 10 11  1  6
 10  9  1  0
 12 11  1  0
 12 20  1  0
 13 14  1  0
 13 12  2  0
 14 15  1  0
 15 20  2  0
 15 16  1  0
 16 17  2  0
 17 18  1  0
 19 18  2  0
 20 19  1  0
 21 10  1  0
 22 21  2  0
 23 21  1  0
 24 25  1  6
 24 23  1  0
 25 26  1  0
 26 30  1  0
 27 26  2  0
 27 28  1  0
 28 29  1  0
 30 29  2  0
 31 32  1  0
 31 24  1  0
 33 31  2  0
M  END
$$$$
