DWH.pdb
     RDKit          3D

 33 35  0  0  1  0  0  0  0  0999 V2000
    9.5825  -17.1333   21.1394 N   0  0  0  0  0  0  0  0  0  0  0  0
   10.8043  -17.0854   21.9118 C   0  0  1  0  0  0  0  0  0  0  0  0
   11.8151  -16.2111   21.2513 C   0  0  0  0  0  0  0  0  0  0  0  0
   12.1221  -16.7685   19.9087 C   0  0  0  0  0  0  0  0  0  0  0  0
   11.9717  -17.9936   19.6722 O   0  0  0  0  0  0  0  0  0  0  0  0
   10.5091  -16.7779   23.2953 C   0  0  0  0  0  0  0  0  0  0  0  0
   11.2362  -15.9607   23.9141 O   0  0  0  0  0  0  0  0  0  0  0  0
   12.5847  -15.9744   18.8604 O   0  0  0  0  0  0  0  0  0  0  0  0
    9.4217  -17.3494   24.0334 N   0  0  0  0  0  0  0  0  0  0  0  0
    9.1705  -16.9925   25.4083 C   0  0  1  0  0  0  0  0  0  0  0  0
    7.7976  -16.4557   25.6749 C   0  0  0  0  0  0  0  0  0  0  0  0
    7.4635  -15.1863   25.0284 C   0  0  0  0  0  0  0  0  0  0  0  0
    7.2221  -15.0398   23.6761 C   0  0  0  0  0  0  0  0  0  0  0  0
    6.9720  -13.7399   23.4755 N   0  0  0  0  0  0  0  0  0  0  0  0
    7.0455  -13.0587   24.6486 C   0  0  0  0  0  0  0  0  0  0  0  0
    6.8671  -11.7287   24.9755 C   0  0  0  0  0  0  0  0  0  0  0  0
    7.0009  -11.3321   26.2765 C   0  0  0  0  0  0  0  0  0  0  0  0
    7.3089  -12.1912   27.3075 C   0  0  0  0  0  0  0  0  0  0  0  0
    7.4847  -13.5133   26.9702 C   0  0  0  0  0  0  0  0  0  0  0  0
    7.3555  -13.9399   25.6622 C   0  0  0  0  0  0  0  0  0  0  0  0
    9.6034  -18.0549   26.3452 C   0  0  0  0  0  0  0  0  0  0  0  0
    8.9776  -19.1603   26.4285 O   0  0  0  0  0  0  0  0  0  0  0  0
   10.7369  -17.8306   27.1571 N   0  0  0  0  0  0  0  0  0  0  0  0
   11.2230  -18.8787   28.0915 C   0  0  1  0  0  0  0  0  0  0  0  0
   12.7065  -18.5587   28.2692 C   0  0  0  0  0  0  0  0  0  0  0  0
   13.4733  -18.9793   27.0917 C   0  0  0  0  0  0  0  0  0  0  0  0
   12.8688  -19.5843   25.9804 C   0  0  0  0  0  0  0  0  0  0  0  0
   13.8129  -19.8538   25.0713 N   0  0  0  0  0  0  0  0  0  0  0  0
   14.9961  -19.4505   25.5458 C   0  0  0  0  0  0  0  0  0  0  0  0
   14.7693  -18.9251   26.7674 N   0  0  0  0  0  0  0  0  0  0  0  0
   10.4895  -18.7072   29.3541 C   0  0  0  0  0  0  0  0  0  0  0  0
   10.6162  -19.6396   30.3607 O   0  0  0  0  0  0  0  0  0  0  0  0
    9.7473  -17.7309   29.5410 O   0  0  0  0  0  0  0  0  0  0  0  0
  2  1  1  6
  2  3  1  0
  3  4  1  0
  4  8  1  0
  5  4  2  0
  6  2  1  0
  6  7  2  0
  9  6  1  0
 10 11  1  6
 10  9  1  0
 12 11  1  0
 12 20  1  0
 13 14  1  0
 13 12  2  0
 14 15  1  0
 15 20  2  0
 15 16  1  0
 16 17  2  0
 17 18  1  0
 19 18  2  0
 20 19  1  0
 21 10  1  0
 22 21  2  0
 23 21  1  0
 24 25  1  1
 24 23  1  0
 25 26  1  0
 26 30  1  0
 27 26  2  0
 27 28  1  0
 28 29  1  0
 30 29  2  0
 31 32  1  0
 31 24  1  0
 33 31  2  0
M  END
$$$$
