DWH.pdb
     RDKit          3D

 33 35  0  0  1  0  0  0  0  0999 V2000
    7.2330  -17.7024   20.4241 N   0  0  0  0  0  0  0  0  0  0  0  0
    8.2560  -16.8324   19.8872 C   0  0  1  0  0  0  0  0  0  0  0  0
    7.6777  -15.8858   18.8912 C   0  0  0  0  0  0  0  0  0  0  0  0
    8.2348  -16.2053   17.5514 C   0  0  0  0  0  0  0  0  0  0  0  0
    8.5058  -17.3908   17.2346 O   0  0  0  0  0  0  0  0  0  0  0  0
    9.0167  -16.2324   20.9629 C   0  0  0  0  0  0  0  0  0  0  0  0
   10.1835  -15.8224   20.7391 O   0  0  0  0  0  0  0  0  0  0  0  0
    8.4811  -15.2229   16.5935 O   0  0  0  0  0  0  0  0  0  0  0  0
    8.5281  -16.0657   22.2998 N   0  0  0  0  0  0  0  0  0  0  0  0
    9.3394  -15.4696   23.3328 C   0  0  1  0  0  0  0  0  0  0  0  0
    8.8482  -14.1438   23.8279 C   0  0  0  0  0  0  0  0  0  0  0  0
    7.7276  -14.1802   24.7680 C   0  0  0  0  0  0  0  0  0  0  0  0
    6.9224  -15.2828   24.9791 C   0  0  0  0  0  0  0  0  0  0  0  0
    6.0112  -14.9165   25.8892 N   0  0  0  0  0  0  0  0  0  0  0  0
    6.2092  -13.6253   26.2621 C   0  0  0  0  0  0  0  0  0  0  0  0
    5.5613  -12.7957   27.1562 C   0  0  0  0  0  0  0  0  0  0  0  0
    6.0065  -11.5153   27.3298 C   0  0  0  0  0  0  0  0  0  0  0  0
    7.0839  -10.9849   26.6561 C   0  0  0  0  0  0  0  0  0  0  0  0
    7.7213  -11.8201   25.7678 C   0  0  0  0  0  0  0  0  0  0  0  0
    7.2907  -13.1188   25.5737 C   0  0  0  0  0  0  0  0  0  0  0  0
    9.6715  -16.4366   24.4045 C   0  0  0  0  0  0  0  0  0  0  0  0
    9.2535  -16.2751   25.5959 O   0  0  0  0  0  0  0  0  0  0  0  0
   10.4663  -17.5607   24.0892 N   0  0  0  0  0  0  0  0  0  0  0  0
   11.9181  -17.5789   24.4055 C   0  0  1  0  0  0  0  0  0  0  0  0
   12.4200  -16.2183   23.9242 C   0  0  0  0  0  0  0  0  0  0  0  0
   13.0325  -16.3307   22.5963 C   0  0  0  0  0  0  0  0  0  0  0  0
   12.9473  -17.5008   21.8281 C   0  0  0  0  0  0  0  0  0  0  0  0
   13.5959  -17.3055   20.6741 N   0  0  0  0  0  0  0  0  0  0  0  0
   14.0942  -16.0647   20.6641 C   0  0  0  0  0  0  0  0  0  0  0  0
   13.7427  -15.4925   21.8342 N   0  0  0  0  0  0  0  0  0  0  0  0
   12.0416  -17.7025   25.8654 C   0  0  0  0  0  0  0  0  0  0  0  0
   12.5064  -16.6427   26.6132 O   0  0  0  0  0  0  0  0  0  0  0  0
   11.7347  -18.7517   26.4517 O   0  0  0  0  0  0  0  0  0  0  0  0
  2  1  1  1
  2  3  1  0
  3  4  1  0
  4  8  1  0
  5  4  2  0
  6  2  1  0
  6  7  2  0
  9  6  1  0
 10 11  1  1
 10  9  1  0
 12 11  1  0
 12 20  1  0
 13 14  1  0
 13 12  2  0
 14 15  1  0
 15 20  2  0
 15 16  1  0
 16 17  2  0
 17 18  1  0
 19 18  2  0
 20 19  1  0
 21 10  1  0
 22 21  2  0
 23 21  1  0
 24 25  1  1
 24 23  1  0
 25 26  1  0
 26 30  1  0
 27 26  2  0
 27 28  1  0
 28 29  1  0
 30 29  2  0
 31 32  1  0
 31 24  1  0
 33 31  2  0
M  END
$$$$
