DWH.pdb
     RDKit          3D

 33 35  0  0  1  0  0  0  0  0999 V2000
    8.8512  -17.0580   21.0990 N   0  0  0  0  0  0  0  0  0  0  0  0
   10.2682  -17.2783   21.2867 C   0  0  1  0  0  0  0  0  0  0  0  0
   11.0519  -16.6625   20.1781 C   0  0  0  0  0  0  0  0  0  0  0  0
   10.6067  -17.2583   18.8920 C   0  0  0  0  0  0  0  0  0  0  0  0
    9.8784  -18.2824   18.8767 O   0  0  0  0  0  0  0  0  0  0  0  0
   10.6601  -16.8962   22.6269 C   0  0  0  0  0  0  0  0  0  0  0  0
   11.8759  -16.7092   22.8843 O   0  0  0  0  0  0  0  0  0  0  0  0
   10.9678  -16.7210   17.6574 O   0  0  0  0  0  0  0  0  0  0  0  0
    9.7430  -16.7098   23.7123 N   0  0  0  0  0  0  0  0  0  0  0  0
   10.2003  -16.3933   25.0432 C   0  0  1  0  0  0  0  0  0  0  0  0
    9.7776  -15.0474   25.5470 C   0  0  0  0  0  0  0  0  0  0  0  0
    8.3379  -14.7874   25.5650 C   0  0  0  0  0  0  0  0  0  0  0  0
    7.3774  -15.6889   25.1486 C   0  0  0  0  0  0  0  0  0  0  0  0
    6.1952  -15.0793   25.3017 N   0  0  0  0  0  0  0  0  0  0  0  0
    6.3708  -13.8274   25.7992 C   0  0  0  0  0  0  0  0  0  0  0  0
    5.4900  -12.8184   26.1362 C   0  0  0  0  0  0  0  0  0  0  0  0
    5.9743  -11.6416   26.6347 C   0  0  0  0  0  0  0  0  0  0  0  0
    7.3141  -11.3893   26.8277 C   0  0  0  0  0  0  0  0  0  0  0  0
    8.1821  -12.4014   26.4882 C   0  0  0  0  0  0  0  0  0  0  0  0
    7.7180  -13.6005   25.9818 C   0  0  0  0  0  0  0  0  0  0  0  0
    9.9574  -17.5044   25.9921 C   0  0  0  0  0  0  0  0  0  0  0  0
    8.8827  -18.1856   25.9538 O   0  0  0  0  0  0  0  0  0  0  0  0
   10.9449  -17.8104   26.9543 N   0  0  0  0  0  0  0  0  0  0  0  0
   10.7889  -18.9782   27.8598 C   0  0  1  0  0  0  0  0  0  0  0  0
   12.0085  -19.8477   27.5578 C   0  0  0  0  0  0  0  0  0  0  0  0
   11.8891  -20.4682   26.2341 C   0  0  0  0  0  0  0  0  0  0  0  0
   10.6480  -20.7930   25.6677 C   0  0  0  0  0  0  0  0  0  0  0  0
   10.8549  -21.3412   24.4647 N   0  0  0  0  0  0  0  0  0  0  0  0
   12.1707  -21.3842   24.2310 C   0  0  0  0  0  0  0  0  0  0  0  0
   12.7778  -20.8522   25.3119 N   0  0  0  0  0  0  0  0  0  0  0  0
   10.8316  -18.4666   29.2375 C   0  0  0  0  0  0  0  0  0  0  0  0
   10.6337  -19.3214   30.3000 O   0  0  0  0  0  0  0  0  0  0  0  0
   11.0436  -17.2674   29.4736 O   0  0  0  0  0  0  0  0  0  0  0  0
  2  1  1  6
  2  3  1  0
  3  4  1  0
  4  8  1  0
  5  4  2  0
  6  2  1  0
  6  7  2  0
  9  6  1  0
 10 11  1  1
 10  9  1  0
 12 11  1  0
 12 20  1  0
 13 14  1  0
 13 12  2  0
 14 15  1  0
 15 20  2  0
 15 16  1  0
 16 17  2  0
 17 18  1  0
 19 18  2  0
 20 19  1  0
 21 10  1  0
 22 21  2  0
 23 21  1  0
 24 25  1  1
 24 23  1  0
 25 26  1  0
 26 30  1  0
 27 26  2  0
 27 28  1  0
 28 29  1  0
 30 29  2  0
 31 32  1  0
 31 24  1  0
 33 31  2  0
M  END
$$$$
