DWH.pdb
     RDKit          3D

 33 35  0  0  1  0  0  0  0  0999 V2000
   10.5222  -18.1374   20.0906 N   0  0  0  0  0  0  0  0  0  0  0  0
   11.5203  -17.2718   20.6790 C   0  0  1  0  0  0  0  0  0  0  0  0
   12.2417  -16.5019   19.6257 C   0  0  0  0  0  0  0  0  0  0  0  0
   12.7035  -17.4475   18.5769 C   0  0  0  0  0  0  0  0  0  0  0  0
   13.7603  -18.1102   18.7300 O   0  0  0  0  0  0  0  0  0  0  0  0
   10.9356  -16.4884   21.7467 C   0  0  0  0  0  0  0  0  0  0  0  0
   11.6231  -15.5970   22.3053 O   0  0  0  0  0  0  0  0  0  0  0  0
   12.0001  -17.6448   17.3895 O   0  0  0  0  0  0  0  0  0  0  0  0
    9.5964  -16.6560   22.2287 N   0  0  0  0  0  0  0  0  0  0  0  0
    9.0844  -15.8739   23.3273 C   0  0  1  0  0  0  0  0  0  0  0  0
    7.6025  -15.9672   23.5251 C   0  0  0  0  0  0  0  0  0  0  0  0
    7.0553  -15.2304   24.6647 C   0  0  0  0  0  0  0  0  0  0  0  0
    6.5031  -15.8228   25.7839 C   0  0  0  0  0  0  0  0  0  0  0  0
    6.1049  -14.8245   26.5823 N   0  0  0  0  0  0  0  0  0  0  0  0
    6.3843  -13.6238   26.0116 C   0  0  0  0  0  0  0  0  0  0  0  0
    6.1859  -12.3199   26.4216 C   0  0  0  0  0  0  0  0  0  0  0  0
    6.5907  -11.2927   25.6161 C   0  0  0  0  0  0  0  0  0  0  0  0
    7.1977  -11.4759   24.3939 C   0  0  0  0  0  0  0  0  0  0  0  0
    7.3897  -12.7787   23.9957 C   0  0  0  0  0  0  0  0  0  0  0  0
    6.9892  -13.8352   24.7913 C   0  0  0  0  0  0  0  0  0  0  0  0
    9.8787  -16.0662   24.5627 C   0  0  0  0  0  0  0  0  0  0  0  0
   10.2074  -15.0813   25.2992 O   0  0  0  0  0  0  0  0  0  0  0  0
   10.2728  -17.3728   24.9260 N   0  0  0  0  0  0  0  0  0  0  0  0
   10.9907  -17.6236   26.2026 C   0  0  1  0  0  0  0  0  0  0  0  0
    9.9578  -17.2962   27.2800 C   0  0  0  0  0  0  0  0  0  0  0  0
   10.2728  -16.0201   27.9308 C   0  0  0  0  0  0  0  0  0  0  0  0
   11.3703  -15.2349   27.5494 C   0  0  0  0  0  0  0  0  0  0  0  0
   11.4013  -14.1385   28.3159 N   0  0  0  0  0  0  0  0  0  0  0  0
   10.3753  -14.1818   29.1722 C   0  0  0  0  0  0  0  0  0  0  0  0
    9.7059  -15.3263   28.9233 N   0  0  0  0  0  0  0  0  0  0  0  0
   11.3464  -19.0500   26.2264 C   0  0  0  0  0  0  0  0  0  0  0  0
   10.9933  -19.8694   25.1763 O   0  0  0  0  0  0  0  0  0  0  0  0
   11.9650  -19.5443   27.1813 O   0  0  0  0  0  0  0  0  0  0  0  0
  2  1  1  6
  2  3  1  0
  3  4  1  0
  4  8  1  0
  5  4  2  0
  6  2  1  0
  6  7  2  0
  9  6  1  0
 10 11  1  1
 10  9  1  0
 12 11  1  0
 12 20  1  0
 13 14  1  0
 13 12  2  0
 14 15  1  0
 15 20  2  0
 15 16  1  0
 16 17  2  0
 17 18  1  0
 19 18  2  0
 20 19  1  0
 21 10  1  0
 22 21  2  0
 23 21  1  0
 24 25  1  1
 24 23  1  0
 25 26  1  0
 26 30  1  0
 27 26  2  0
 27 28  1  0
 28 29  1  0
 30 29  2  0
 31 32  1  0
 31 24  1  0
 33 31  2  0
M  END
$$$$
