DWH.pdb
     RDKit          3D

 33 35  0  0  1  0  0  0  0  0999 V2000
   11.0910  -16.7551   19.8368 N   0  0  0  0  0  0  0  0  0  0  0  0
   11.8402  -17.1115   21.0214 C   0  0  1  0  0  0  0  0  0  0  0  0
   13.2815  -16.7658   20.8610 C   0  0  0  0  0  0  0  0  0  0  0  0
   13.5655  -16.5670   19.4163 C   0  0  0  0  0  0  0  0  0  0  0  0
   12.8308  -17.0877   18.5397 O   0  0  0  0  0  0  0  0  0  0  0  0
   11.1901  -16.5824   22.2017 C   0  0  0  0  0  0  0  0  0  0  0  0
   11.8777  -16.3264   23.2221 O   0  0  0  0  0  0  0  0  0  0  0  0
   14.6434  -15.8055   18.9669 O   0  0  0  0  0  0  0  0  0  0  0  0
    9.7844  -16.3211   22.2986 N   0  0  0  0  0  0  0  0  0  0  0  0
    9.1688  -15.9472   23.5484 C   0  0  1  0  0  0  0  0  0  0  0  0
    7.8504  -15.2491   23.4128 C   0  0  0  0  0  0  0  0  0  0  0  0
    7.2073  -14.8353   24.6602 C   0  0  0  0  0  0  0  0  0  0  0  0
    6.4619  -15.6720   25.4682 C   0  0  0  0  0  0  0  0  0  0  0  0
    6.0330  -14.9245   26.4928 N   0  0  0  0  0  0  0  0  0  0  0  0
    6.4786  -13.6476   26.3644 C   0  0  0  0  0  0  0  0  0  0  0  0
    6.3241  -12.5160   27.1410 C   0  0  0  0  0  0  0  0  0  0  0  0
    6.9131  -11.3464   26.7502 C   0  0  0  0  0  0  0  0  0  0  0  0
    7.6684  -11.2183   25.6061 C   0  0  0  0  0  0  0  0  0  0  0  0
    7.8153  -12.3518   24.8401 C   0  0  0  0  0  0  0  0  0  0  0  0
    7.2296  -13.5466   25.2130 C   0  0  0  0  0  0  0  0  0  0  0  0
    9.1721  -17.0619   24.5238 C   0  0  0  0  0  0  0  0  0  0  0  0
    8.7986  -18.2330   24.1931 O   0  0  0  0  0  0  0  0  0  0  0  0
    9.6031  -16.8129   25.8455 N   0  0  0  0  0  0  0  0  0  0  0  0
    9.9488  -17.9343   26.7569 C   0  0  1  0  0  0  0  0  0  0  0  0
   11.2100  -18.5382   26.1410 C   0  0  0  0  0  0  0  0  0  0  0  0
   10.8938  -19.7731   25.4157 C   0  0  0  0  0  0  0  0  0  0  0  0
    9.5871  -20.2733   25.3211 C   0  0  0  0  0  0  0  0  0  0  0  0
    9.6101  -21.4031   24.6046 N   0  0  0  0  0  0  0  0  0  0  0  0
   10.8703  -21.6530   24.2339 C   0  0  0  0  0  0  0  0  0  0  0  0
   11.6301  -20.6566   24.7338 N   0  0  0  0  0  0  0  0  0  0  0  0
   10.2317  -17.3490   28.0757 C   0  0  0  0  0  0  0  0  0  0  0  0
   10.3525  -18.1611   29.1823 O   0  0  0  0  0  0  0  0  0  0  0  0
   10.3663  -16.1245   28.2221 O   0  0  0  0  0  0  0  0  0  0  0  0
  2  1  1  6
  2  3  1  0
  3  4  1  0
  4  8  1  0
  5  4  2  0
  6  2  1  0
  6  7  2  0
  9  6  1  0
 10 11  1  6
 10  9  1  0
 12 11  1  0
 12 20  1  0
 13 14  1  0
 13 12  2  0
 14 15  1  0
 15 20  2  0
 15 16  1  0
 16 17  2  0
 17 18  1  0
 19 18  2  0
 20 19  1  0
 21 10  1  0
 22 21  2  0
 23 21  1  0
 24 25  1  6
 24 23  1  0
 25 26  1  0
 26 30  1  0
 27 26  2  0
 27 28  1  0
 28 29  1  0
 30 29  2  0
 31 32  1  0
 31 24  1  0
 33 31  2  0
M  END
$$$$
