VAQ.pdb
     RDKit          3D

 22 21  0  0  1  0  0  0  0  0999 V2000
   17.2860  -10.4374  -16.2899 C   0  0  0  0  0  0  0  0  0  0  0  0
   17.2350  -11.5642  -15.2894 C   0  0  2  0  0  0  0  0  0  0  0  0
   16.8301  -12.8633  -15.9121 C   0  0  0  0  0  0  0  0  0  0  0  0
   16.2561  -11.1411  -14.1863 C   0  0  2  0  0  0  0  0  0  0  0  0
   14.9844  -10.9418  -14.8249 N   0  0  0  0  0  0  0  0  0  0  0  0
   16.7366   -9.8388  -13.6509 C   0  0  0  0  0  0  0  0  0  0  0  0
   16.6599   -8.7631  -14.3055 O   0  0  0  0  0  0  0  0  0  0  0  0
   18.1065   -8.5147  -10.3633 C   0  0  0  0  0  0  0  0  0  0  0  0
   17.9658   -8.5438  -11.8677 C   0  0  2  0  0  0  0  0  0  0  0  0
   17.3193   -9.7306  -12.3500 N   0  0  0  0  0  0  0  0  0  0  0  0
   19.2326   -8.2438  -12.5560 C   0  0  0  0  0  0  0  0  0  0  0  0
   19.8279   -9.1288  -13.1955 O   0  0  0  0  0  0  0  0  0  0  0  0
   21.5950   -8.6721  -16.7578 N   0  0  0  0  0  0  0  0  0  0  0  0
   22.2206   -7.4228  -16.6117 C   0  0  0  0  0  0  0  0  0  0  0  0
   23.1934   -7.1108  -17.3409 O   0  0  0  0  0  0  0  0  0  0  0  0
   21.7807   -6.4149  -15.6077 C   0  0  0  0  0  0  0  0  0  0  0  0
   20.7285   -6.9375  -14.6964 C   0  0  0  0  0  0  0  0  0  0  0  0
   20.9338   -6.5105  -13.2658 C   0  0  2  0  0  0  0  0  0  0  0  0
   19.7691   -6.9444  -12.4864 N   0  0  0  0  0  0  0  0  0  0  0  0
   21.1240   -5.0828  -13.0552 C   0  0  0  0  0  0  0  0  0  0  0  0
   20.1067   -4.3180  -13.0772 O   0  0  0  0  0  0  0  0  0  0  0  0
   22.3984   -4.5436  -12.8290 O   0  0  0  0  0  0  0  0  0  0  0  0
  2  3  1  6
  2  1  1  0
  4  2  1  0
  4  5  1  6
  6 10  1  0
  6  4  1  0
  7  6  2  0
  9 10  1  0
  9  8  1  1
 11  9  1  0
 11 19  1  0
 12 11  2  0
 14 13  1  0
 14 15  2  0
 16 14  1  0
 16 17  1  0
 18 17  1  6
 18 19  1  0
 18 20  1  0
 20 21  2  0
 20 22  1  0
M  END
$$$$
