VAQ.pdb
     RDKit          3D

 22 21  0  0  1  0  0  0  0  0999 V2000
   17.3587  -12.4345  -17.4396 C   0  0  0  0  0  0  0  0  0  0  0  0
   18.5329  -13.2288  -17.9529 C   0  0  2  0  0  0  0  0  0  0  0  0
   18.1103  -14.4382  -18.7264 C   0  0  0  0  0  0  0  0  0  0  0  0
   19.3836  -13.6107  -16.7345 C   0  0  2  0  0  0  0  0  0  0  0  0
   18.5468  -14.4182  -15.8905 N   0  0  0  0  0  0  0  0  0  0  0  0
   19.7152  -12.3487  -16.0198 C   0  0  0  0  0  0  0  0  0  0  0  0
   18.8496  -11.6647  -15.4078 O   0  0  0  0  0  0  0  0  0  0  0  0
   22.8868  -10.4069  -15.1912 C   0  0  0  0  0  0  0  0  0  0  0  0
   21.3974  -10.5799  -15.3797 C   0  0  2  0  0  0  0  0  0  0  0  0
   21.0482  -11.8332  -15.9851 N   0  0  0  0  0  0  0  0  0  0  0  0
   20.7756   -9.4172  -16.0354 C   0  0  0  0  0  0  0  0  0  0  0  0
   20.5309   -9.4368  -17.2545 O   0  0  0  0  0  0  0  0  0  0  0  0
   15.2731   -5.0490  -16.2651 N   0  0  0  0  0  0  0  0  0  0  0  0
   16.1997   -5.9336  -15.6885 C   0  0  0  0  0  0  0  0  0  0  0  0
   15.8209   -6.8019  -14.8649 O   0  0  0  0  0  0  0  0  0  0  0  0
   17.6533   -5.8984  -16.0094 C   0  0  0  0  0  0  0  0  0  0  0  0
   18.3589   -7.1423  -15.6021 C   0  0  0  0  0  0  0  0  0  0  0  0
   19.8453   -7.0722  -15.8405 C   0  0  2  0  0  0  0  0  0  0  0  0
   20.4579   -8.2780  -15.2721 N   0  0  0  0  0  0  0  0  0  0  0  0
   20.5186   -5.9072  -15.2852 C   0  0  0  0  0  0  0  0  0  0  0  0
   21.2588   -6.0562  -14.2604 O   0  0  0  0  0  0  0  0  0  0  0  0
   20.3664   -4.6365  -15.8580 O   0  0  0  0  0  0  0  0  0  0  0  0
  2  3  1  1
  2  1  1  0
  4  2  1  0
  4  5  1  1
  6 10  1  0
  6  4  1  0
  7  6  2  0
  9 10  1  0
  9  8  1  6
 11  9  1  0
 11 19  1  0
 12 11  2  0
 14 13  1  0
 14 15  2  0
 16 14  1  0
 16 17  1  0
 18 17  1  1
 18 19  1  0
 18 20  1  0
 20 21  2  0
 20 22  1  0
M  END
$$$$
