VAQ.pdb
     RDKit          3D

 22 21  0  0  1  0  0  0  0  0999 V2000
   14.6841  -10.9767  -12.6369 C   0  0  0  0  0  0  0  0  0  0  0  0
   15.5250  -10.2302  -13.6412 C   0  0  2  0  0  0  0  0  0  0  0  0
   16.2236  -11.1471  -14.5956 C   0  0  0  0  0  0  0  0  0  0  0  0
   16.5245   -9.3798  -12.8463 C   0  0  2  0  0  0  0  0  0  0  0  0
   17.2943  -10.2947  -12.0495 N   0  0  0  0  0  0  0  0  0  0  0  0
   15.7315   -8.5027  -11.9434 C   0  0  0  0  0  0  0  0  0  0  0  0
   14.9391   -7.6204  -12.3738 O   0  0  0  0  0  0  0  0  0  0  0  0
   15.0499   -8.2408   -8.2164 C   0  0  0  0  0  0  0  0  0  0  0  0
   15.2004   -7.6881   -9.6148 C   0  0  2  0  0  0  0  0  0  0  0  0
   15.8231   -8.6104  -10.5208 N   0  0  0  0  0  0  0  0  0  0  0  0
   15.8130   -6.3490   -9.6264 C   0  0  0  0  0  0  0  0  0  0  0  0
   16.9873   -6.1959  -10.0056 O   0  0  0  0  0  0  0  0  0  0  0  0
   17.2244   -3.3105  -13.1693 N   0  0  0  0  0  0  0  0  0  0  0  0
   16.5922   -2.1989  -12.5876 C   0  0  0  0  0  0  0  0  0  0  0  0
   16.8765   -1.0366  -12.9667 O   0  0  0  0  0  0  0  0  0  0  0  0
   15.5707   -2.3256  -11.5117 C   0  0  0  0  0  0  0  0  0  0  0  0
   15.3957   -3.7288  -11.0521 C   0  0  0  0  0  0  0  0  0  0  0  0
   15.4011   -3.8537   -9.5503 C   0  0  2  0  0  0  0  0  0  0  0  0
   15.0593   -5.2377   -9.2042 N   0  0  0  0  0  0  0  0  0  0  0  0
   14.4942   -2.9633   -8.8405 C   0  0  0  0  0  0  0  0  0  0  0  0
   13.3072   -3.3573   -8.6036 O   0  0  0  0  0  0  0  0  0  0  0  0
   14.9056   -1.6915   -8.4168 O   0  0  0  0  0  0  0  0  0  0  0  0
  2  3  1  6
  2  1  1  0
  4  2  1  0
  4  5  1  1
  6 10  1  0
  6  4  1  0
  7  6  2  0
  9 10  1  0
  9  8  1  1
 11  9  1  0
 11 19  1  0
 12 11  2  0
 14 13  1  0
 14 15  2  0
 16 14  1  0
 16 17  1  0
 18 17  1  6
 18 19  1  0
 18 20  1  0
 20 21  2  0
 20 22  1  0
M  END
$$$$
