VAQ.pdb
     RDKit          3D

 22 21  0  0  1  0  0  0  0  0999 V2000
   18.6943  -12.2600  -18.7169 C   0  0  0  0  0  0  0  0  0  0  0  0
   20.0838  -12.6726  -18.3023 C   0  0  2  0  0  0  0  0  0  0  0  0
   20.3005  -14.1487  -18.4198 C   0  0  0  0  0  0  0  0  0  0  0  0
   20.2843  -12.1888  -16.8601 C   0  0  2  0  0  0  0  0  0  0  0  0
   19.2856  -12.8500  -16.0663 N   0  0  0  0  0  0  0  0  0  0  0  0
   20.0184  -10.7250  -16.8489 C   0  0  0  0  0  0  0  0  0  0  0  0
   20.7554   -9.8942  -17.4474 O   0  0  0  0  0  0  0  0  0  0  0  0
   17.2330   -8.4344  -15.6500 C   0  0  0  0  0  0  0  0  0  0  0  0
   18.6555   -8.7604  -16.0424 C   0  0  2  0  0  0  0  0  0  0  0  0
   18.9006  -10.1700  -16.1518 N   0  0  0  0  0  0  0  0  0  0  0  0
   19.6436   -8.0551  -15.2089 C   0  0  0  0  0  0  0  0  0  0  0  0
   20.1051   -8.5927  -14.1870 O   0  0  0  0  0  0  0  0  0  0  0  0
   24.8400   -6.0405  -17.0459 N   0  0  0  0  0  0  0  0  0  0  0  0
   24.6585   -5.1589  -15.9672 C   0  0  0  0  0  0  0  0  0  0  0  0
   25.5654   -4.3524  -15.6470 O   0  0  0  0  0  0  0  0  0  0  0  0
   23.4104   -5.1261  -15.1557 C   0  0  0  0  0  0  0  0  0  0  0  0
   22.3570   -6.0289  -15.6906 C   0  0  0  0  0  0  0  0  0  0  0  0
   21.1032   -6.0189  -14.8546 C   0  0  2  0  0  0  0  0  0  0  0  0
   20.0653   -6.7634  -15.5761 N   0  0  0  0  0  0  0  0  0  0  0  0
   20.5788   -4.7026  -14.5206 C   0  0  0  0  0  0  0  0  0  0  0  0
   19.7120   -4.1741  -15.2883 O   0  0  0  0  0  0  0  0  0  0  0  0
   21.0093   -4.0164  -13.3760 O   0  0  0  0  0  0  0  0  0  0  0  0
  2  3  1  1
  2  1  1  0
  4  2  1  0
  4  5  1  1
  6 10  1  0
  6  4  1  0
  7  6  2  0
  9 10  1  0
  9  8  1  1
 11  9  1  0
 11 19  1  0
 12 11  2  0
 14 13  1  0
 14 15  2  0
 16 14  1  0
 16 17  1  0
 18 17  1  6
 18 19  1  0
 18 20  1  0
 20 21  2  0
 20 22  1  0
M  END
$$$$
