VAQ.pdb
     RDKit          3D

 22 21  0  0  1  0  0  0  0  0999 V2000
   17.4333  -12.2091  -16.6013 C   0  0  0  0  0  0  0  0  0  0  0  0
   16.8025  -12.1299  -15.2342 C   0  0  2  0  0  0  0  0  0  0  0  0
   16.0439  -13.3709  -14.8823 C   0  0  0  0  0  0  0  0  0  0  0  0
   15.8917  -10.8952  -15.2309 C   0  0  2  0  0  0  0  0  0  0  0  0
   14.9599  -11.0736  -16.3101 N   0  0  0  0  0  0  0  0  0  0  0  0
   16.7511   -9.7169  -15.5252 C   0  0  0  0  0  0  0  0  0  0  0  0
   17.5725   -9.6949  -16.4825 O   0  0  0  0  0  0  0  0  0  0  0  0
   16.5450   -6.0872  -14.9730 C   0  0  0  0  0  0  0  0  0  0  0  0
   17.4066   -7.3260  -15.0546 C   0  0  2  0  0  0  0  0  0  0  0  0
   16.6947   -8.5293  -14.7315 N   0  0  0  0  0  0  0  0  0  0  0  0
   18.6741   -7.1778  -14.3197 C   0  0  0  0  0  0  0  0  0  0  0  0
   18.7575   -7.5278  -13.1293 O   0  0  0  0  0  0  0  0  0  0  0  0
   24.0714  -10.5626  -14.5802 N   0  0  0  0  0  0  0  0  0  0  0  0
   23.3694   -9.5039  -15.1802 C   0  0  0  0  0  0  0  0  0  0  0  0
   23.5669   -9.2135  -16.3853 O   0  0  0  0  0  0  0  0  0  0  0  0
   22.3719   -8.6797  -14.4435 C   0  0  0  0  0  0  0  0  0  0  0  0
   22.0786   -7.3917  -15.1261 C   0  0  0  0  0  0  0  0  0  0  0  0
   21.1191   -6.5273  -14.3494 C   0  0  2  0  0  0  0  0  0  0  0  0
   19.7962   -6.6357  -14.9741 N   0  0  0  0  0  0  0  0  0  0  0  0
   21.4723   -5.1181  -14.2585 C   0  0  0  0  0  0  0  0  0  0  0  0
   20.8945   -4.2891  -15.0326 O   0  0  0  0  0  0  0  0  0  0  0  0
   22.4287   -4.6651  -13.3386 O   0  0  0  0  0  0  0  0  0  0  0  0
  2  3  1  6
  2  1  1  0
  4  2  1  0
  4  5  1  6
  6 10  1  0
  6  4  1  0
  7  6  2  0
  9 10  1  0
  9  8  1  1
 11  9  1  0
 11 19  1  0
 12 11  2  0
 14 13  1  0
 14 15  2  0
 16 14  1  0
 16 17  1  0
 18 17  1  6
 18 19  1  0
 18 20  1  0
 20 21  2  0
 20 22  1  0
M  END
$$$$
