VAQ.pdb
     RDKit          3D

 22 21  0  0  1  0  0  0  0  0999 V2000
   25.5964  -22.4746  -12.5763 C   0  0  0  0  0  0  0  0  0  0  0  0
   25.6593  -21.1389  -11.8799 C   0  0  2  0  0  0  0  0  0  0  0  0
   25.2829  -21.2299  -10.4344 C   0  0  0  0  0  0  0  0  0  0  0  0
   24.7270  -20.1898  -12.6441 C   0  0  2  0  0  0  0  0  0  0  0  0
   23.4627  -20.8633  -12.7559 N   0  0  0  0  0  0  0  0  0  0  0  0
   25.3020  -20.0136  -14.0049 C   0  0  0  0  0  0  0  0  0  0  0  0
   24.8557  -20.6207  -15.0168 O   0  0  0  0  0  0  0  0  0  0  0  0
   27.8578  -17.7045  -15.6185 C   0  0  0  0  0  0  0  0  0  0  0  0
   26.9925  -18.9410  -15.5410 C   0  0  2  0  0  0  0  0  0  0  0  0
   26.4050  -19.1370  -14.2465 N   0  0  0  0  0  0  0  0  0  0  0  0
   27.6741  -20.1370  -16.0640 C   0  0  0  0  0  0  0  0  0  0  0  0
   28.0447  -21.0395  -15.2930 O   0  0  0  0  0  0  0  0  0  0  0  0
   27.0812  -24.6865  -16.1421 N   0  0  0  0  0  0  0  0  0  0  0  0
   27.0572  -24.8622  -17.5357 C   0  0  0  0  0  0  0  0  0  0  0  0
   27.1491  -26.0113  -18.0323 O   0  0  0  0  0  0  0  0  0  0  0  0
   26.9247  -23.7253  -18.4881 C   0  0  0  0  0  0  0  0  0  0  0  0
   26.8824  -22.4068  -17.8021 C   0  0  0  0  0  0  0  0  0  0  0  0
   28.0722  -21.5421  -18.1303 C   0  0  2  0  0  0  0  0  0  0  0  0
   27.9051  -20.2545  -17.4475 N   0  0  0  0  0  0  0  0  0  0  0  0
   28.2953  -21.2880  -19.5462 C   0  0  0  0  0  0  0  0  0  0  0  0
   27.7843  -20.2471  -20.0712 O   0  0  0  0  0  0  0  0  0  0  0  0
   29.0586  -22.1636  -20.3316 O   0  0  0  0  0  0  0  0  0  0  0  0
  2  3  1  1
  2  1  1  0
  4  2  1  0
  4  5  1  6
  6 10  1  0
  6  4  1  0
  7  6  2  0
  9 10  1  0
  9  8  1  1
 11  9  1  0
 11 19  1  0
 12 11  2  0
 14 13  1  0
 14 15  2  0
 16 14  1  0
 16 17  1  0
 18 17  1  6
 18 19  1  0
 18 20  1  0
 20 21  2  0
 20 22  1  0
M  END
$$$$
