VAQ.pdb
     RDKit          3D

 22 21  0  0  1  0  0  0  0  0999 V2000
   12.7512  -11.2877  -12.2979 C   0  0  0  0  0  0  0  0  0  0  0  0
   13.9373  -11.5932  -13.1771 C   0  0  2  0  0  0  0  0  0  0  0  0
   13.8363  -12.9378  -13.8260 C   0  0  0  0  0  0  0  0  0  0  0  0
   15.1886  -11.4877  -12.2955 C   0  0  2  0  0  0  0  0  0  0  0  0
   15.0253  -12.4489  -11.2400 N   0  0  0  0  0  0  0  0  0  0  0  0
   15.1952  -10.1213  -11.7071 C   0  0  0  0  0  0  0  0  0  0  0  0
   15.3378   -9.0798  -12.4047 O   0  0  0  0  0  0  0  0  0  0  0  0
   14.3399   -8.5877   -8.3493 C   0  0  0  0  0  0  0  0  0  0  0  0
   15.0274   -8.6077   -9.6949 C   0  0  2  0  0  0  0  0  0  0  0  0
   15.0388   -9.9078  -10.3022 N   0  0  0  0  0  0  0  0  0  0  0  0
   16.3516   -7.9645   -9.6586 C   0  0  0  0  0  0  0  0  0  0  0  0
   17.3609   -8.6168   -9.3390 O   0  0  0  0  0  0  0  0  0  0  0  0
   20.1103   -7.9695  -13.1926 N   0  0  0  0  0  0  0  0  0  0  0  0
   20.4951   -6.6970  -12.7385 C   0  0  0  0  0  0  0  0  0  0  0  0
   21.5358   -6.1527  -13.1817 O   0  0  0  0  0  0  0  0  0  0  0  0
   19.7129   -5.9324  -11.7282 C   0  0  0  0  0  0  0  0  0  0  0  0
   18.5376   -6.6898  -11.2225 C   0  0  0  0  0  0  0  0  0  0  0  0
   17.7590   -5.9278  -10.1812 C   0  0  2  0  0  0  0  0  0  0  0  0
   16.4701   -6.6014   -9.9889 N   0  0  0  0  0  0  0  0  0  0  0  0
   17.5066   -4.5263  -10.4832 C   0  0  0  0  0  0  0  0  0  0  0  0
   16.4268   -4.2115  -11.0791 O   0  0  0  0  0  0  0  0  0  0  0  0
   18.4257   -3.5283  -10.1292 O   0  0  0  0  0  0  0  0  0  0  0  0
  2  3  1  1
  2  1  1  0
  4  2  1  0
  4  5  1  1
  6 10  1  0
  6  4  1  0
  7  6  2  0
  9 10  1  0
  9  8  1  1
 11  9  1  0
 11 19  1  0
 12 11  2  0
 14 13  1  0
 14 15  2  0
 16 14  1  0
 16 17  1  0
 18 17  1  6
 18 19  1  0
 18 20  1  0
 20 21  2  0
 20 22  1  0
M  END
$$$$
