VAQ.pdb
     RDKit          3D

 22 21  0  0  1  0  0  0  0  0999 V2000
   19.3606  -13.4340  -17.1319 C   0  0  0  0  0  0  0  0  0  0  0  0
   19.4513  -11.9819  -16.7362 C   0  0  2  0  0  0  0  0  0  0  0  0
   20.0925  -11.7935  -15.3972 C   0  0  0  0  0  0  0  0  0  0  0  0
   18.0237  -11.4203  -16.7592 C   0  0  2  0  0  0  0  0  0  0  0  0
   17.5059  -11.6778  -18.0746 N   0  0  0  0  0  0  0  0  0  0  0  0
   18.1290   -9.9496  -16.5613 C   0  0  0  0  0  0  0  0  0  0  0  0
   18.8227   -9.2092  -17.3112 O   0  0  0  0  0  0  0  0  0  0  0  0
   16.3252   -7.3458  -14.4785 C   0  0  0  0  0  0  0  0  0  0  0  0
   17.4875   -7.8642  -15.2935 C   0  0  2  0  0  0  0  0  0  0  0  0
   17.4428   -9.2837  -15.4986 N   0  0  0  0  0  0  0  0  0  0  0  0
   18.7851   -7.3839  -14.7896 C   0  0  0  0  0  0  0  0  0  0  0  0
   19.5823   -8.1707  -14.2494 O   0  0  0  0  0  0  0  0  0  0  0  0
   23.1868   -7.6247  -17.4333 N   0  0  0  0  0  0  0  0  0  0  0  0
   23.6658   -6.5826  -16.6221 C   0  0  0  0  0  0  0  0  0  0  0  0
   24.8803   -6.2663  -16.6462 O   0  0  0  0  0  0  0  0  0  0  0  0
   22.7857   -5.8067  -15.7053 C   0  0  0  0  0  0  0  0  0  0  0  0
   21.3735   -6.2707  -15.7399 C   0  0  0  0  0  0  0  0  0  0  0  0
   20.4890   -5.5133  -14.7833 C   0  0  2  0  0  0  0  0  0  0  0  0
   19.1206   -6.0233  -14.9228 N   0  0  0  0  0  0  0  0  0  0  0  0
   20.4628   -4.0684  -14.9586 C   0  0  0  0  0  0  0  0  0  0  0  0
   21.2974   -3.3564  -14.3130 O   0  0  0  0  0  0  0  0  0  0  0  0
   19.5421   -3.4561  -15.8208 O   0  0  0  0  0  0  0  0  0  0  0  0
  2  3  1  1
  2  1  1  0
  4  2  1  0
  4  5  1  6
  6 10  1  0
  6  4  1  0
  7  6  2  0
  9 10  1  0
  9  8  1  1
 11  9  1  0
 11 19  1  0
 12 11  2  0
 14 13  1  0
 14 15  2  0
 16 14  1  0
 16 17  1  0
 18 17  1  6
 18 19  1  0
 18 20  1  0
 20 21  2  0
 20 22  1  0
M  END
$$$$
