VAQ.pdb
     RDKit          3D

 22 21  0  0  1  0  0  0  0  0999 V2000
   18.6383  -13.4035  -18.2604 C   0  0  0  0  0  0  0  0  0  0  0  0
   19.3084  -13.5982  -16.9239 C   0  0  2  0  0  0  0  0  0  0  0  0
   19.3985  -15.0403  -16.5346 C   0  0  0  0  0  0  0  0  0  0  0  0
   18.5058  -12.7885  -15.8971 C   0  0  2  0  0  0  0  0  0  0  0  0
   17.1647  -13.3035  -15.9308 N   0  0  0  0  0  0  0  0  0  0  0  0
   18.4926  -11.3769  -16.3669 C   0  0  0  0  0  0  0  0  0  0  0  0
   19.5327  -10.6643  -16.4122 O   0  0  0  0  0  0  0  0  0  0  0  0
   15.9009   -8.9825  -17.8146 C   0  0  0  0  0  0  0  0  0  0  0  0
   17.2080   -9.3518  -17.1521 C   0  0  2  0  0  0  0  0  0  0  0  0
   17.2876  -10.7403  -16.7986 N   0  0  0  0  0  0  0  0  0  0  0  0
   17.5534   -8.4431  -16.0460 C   0  0  0  0  0  0  0  0  0  0  0  0
   17.2178   -8.7134  -14.8796 O   0  0  0  0  0  0  0  0  0  0  0  0
   23.0031   -6.2535  -14.9047 N   0  0  0  0  0  0  0  0  0  0  0  0
   22.2174   -5.3479  -14.1724 C   0  0  0  0  0  0  0  0  0  0  0  0
   22.7594   -4.4930  -13.4302 O   0  0  0  0  0  0  0  0  0  0  0  0
   20.7295   -5.3448  -14.2287 C   0  0  0  0  0  0  0  0  0  0  0  0
   20.1924   -6.3280  -15.2063 C   0  0  0  0  0  0  0  0  0  0  0  0
   18.6870   -6.3163  -15.2755 C   0  0  2  0  0  0  0  0  0  0  0  0
   18.2688   -7.2614  -16.3165 N   0  0  0  0  0  0  0  0  0  0  0  0
   18.0789   -5.0235  -15.5547 C   0  0  0  0  0  0  0  0  0  0  0  0
   17.6252   -4.7978  -16.7223 O   0  0  0  0  0  0  0  0  0  0  0  0
   17.9853   -4.0341  -14.5656 O   0  0  0  0  0  0  0  0  0  0  0  0
  2  3  1  1
  2  1  1  0
  4  2  1  0
  4  5  1  6
  6 10  1  0
  6  4  1  0
  7  6  2  0
  9 10  1  0
  9  8  1  1
 11  9  1  0
 11 19  1  0
 12 11  2  0
 14 13  1  0
 14 15  2  0
 16 14  1  0
 16 17  1  0
 18 17  1  6
 18 19  1  0
 18 20  1  0
 20 21  2  0
 20 22  1  0
M  END
$$$$
