VAQ.pdb
     RDKit          3D

 22 21  0  0  1  0  0  0  0  0999 V2000
   16.8761  -14.5793  -17.9156 C   0  0  0  0  0  0  0  0  0  0  0  0
   18.2811  -14.8865  -17.4632 C   0  0  2  0  0  0  0  0  0  0  0  0
   18.6036  -16.3452  -17.5508 C   0  0  0  0  0  0  0  0  0  0  0  0
   18.4133  -14.3677  -16.0253 C   0  0  2  0  0  0  0  0  0  0  0  0
   17.4417  -15.0818  -15.2438 N   0  0  0  0  0  0  0  0  0  0  0  0
   18.0503  -12.9250  -16.0457 C   0  0  0  0  0  0  0  0  0  0  0  0
   18.7571  -12.0528  -16.6214 O   0  0  0  0  0  0  0  0  0  0  0  0
   15.0241  -10.8531  -15.0428 C   0  0  0  0  0  0  0  0  0  0  0  0
   16.4758  -11.0586  -15.4094 C   0  0  2  0  0  0  0  0  0  0  0  0
   16.8671  -12.4392  -15.4074 N   0  0  0  0  0  0  0  0  0  0  0  0
   17.3788  -10.1908  -14.6349 C   0  0  0  0  0  0  0  0  0  0  0  0
   17.8993  -10.6012  -13.5828 O   0  0  0  0  0  0  0  0  0  0  0  0
   22.3255   -7.9183  -16.6953 N   0  0  0  0  0  0  0  0  0  0  0  0
   22.1918   -7.1475  -15.5284 C   0  0  0  0  0  0  0  0  0  0  0  0
   23.1422   -6.4319  -15.1279 O   0  0  0  0  0  0  0  0  0  0  0  0
   20.9459   -7.1307  -14.7132 C   0  0  0  0  0  0  0  0  0  0  0  0
   19.9117   -8.0654  -15.2305 C   0  0  0  0  0  0  0  0  0  0  0  0
   18.6230   -7.9951  -14.4525 C   0  0  2  0  0  0  0  0  0  0  0  0
   17.6515   -8.8882  -15.0934 N   0  0  0  0  0  0  0  0  0  0  0  0
   18.0274   -6.6718  -14.3377 C   0  0  0  0  0  0  0  0  0  0  0  0
   17.2857   -6.2483  -15.2815 O   0  0  0  0  0  0  0  0  0  0  0  0
   18.2552   -5.8659  -13.2131 O   0  0  0  0  0  0  0  0  0  0  0  0
  2  3  1  1
  2  1  1  0
  4  2  1  0
  4  5  1  1
  6 10  1  0
  6  4  1  0
  7  6  2  0
  9 10  1  0
  9  8  1  1
 11  9  1  0
 11 19  1  0
 12 11  2  0
 14 13  1  0
 14 15  2  0
 16 14  1  0
 16 17  1  0
 18 17  1  6
 18 19  1  0
 18 20  1  0
 20 21  2  0
 20 22  1  0
M  END
$$$$
