VAQ.pdb
     RDKit          3D

 22 21  0  0  1  0  0  0  0  0999 V2000
   27.0673  -10.1083  -17.5668 C   0  0  0  0  0  0  0  0  0  0  0  0
   27.6123  -11.0993  -16.5698 C   0  0  2  0  0  0  0  0  0  0  0  0
   28.9243  -11.6778  -16.9980 C   0  0  0  0  0  0  0  0  0  0  0  0
   26.5482  -12.1905  -16.3939 C   0  0  2  0  0  0  0  0  0  0  0  0
   26.4596  -12.8794  -17.6518 N   0  0  0  0  0  0  0  0  0  0  0  0
   25.2560  -11.5026  -16.1283 C   0  0  0  0  0  0  0  0  0  0  0  0
   24.6237  -10.8728  -17.0201 O   0  0  0  0  0  0  0  0  0  0  0  0
   22.8502  -11.2355  -13.1825 C   0  0  0  0  0  0  0  0  0  0  0  0
   23.4169  -10.8488  -14.5290 C   0  0  2  0  0  0  0  0  0  0  0  0
   24.6503  -11.5159  -14.8335 N   0  0  0  0  0  0  0  0  0  0  0  0
   23.4769   -9.3892  -14.7148 C   0  0  0  0  0  0  0  0  0  0  0  0
   24.5734   -8.8058  -14.7756 O   0  0  0  0  0  0  0  0  0  0  0  0
   24.1277   -6.5904  -18.9947 N   0  0  0  0  0  0  0  0  0  0  0  0
   22.8454   -7.1597  -18.9224 C   0  0  0  0  0  0  0  0  0  0  0  0
   22.2259   -7.4640  -19.9709 O   0  0  0  0  0  0  0  0  0  0  0  0
   22.1570   -7.4314  -17.6303 C   0  0  0  0  0  0  0  0  0  0  0  0
   22.9658   -7.0169  -16.4535 C   0  0  0  0  0  0  0  0  0  0  0  0
   22.2417   -7.2239  -15.1483 C   0  0  2  0  0  0  0  0  0  0  0  0
   22.2815   -8.6540  -14.8238 N   0  0  0  0  0  0  0  0  0  0  0  0
   20.8546   -6.7829  -15.1201 C   0  0  0  0  0  0  0  0  0  0  0  0
   20.6071   -5.5343  -15.1236 O   0  0  0  0  0  0  0  0  0  0  0  0
   19.7982   -7.7044  -15.0912 O   0  0  0  0  0  0  0  0  0  0  0  0
  2  3  1  6
  2  1  1  0
  4  2  1  0
  4  5  1  6
  6 10  1  0
  6  4  1  0
  7  6  2  0
  9 10  1  0
  9  8  1  1
 11  9  1  0
 11 19  1  0
 12 11  2  0
 14 13  1  0
 14 15  2  0
 16 14  1  0
 16 17  1  0
 18 17  1  6
 18 19  1  0
 18 20  1  0
 20 21  2  0
 20 22  1  0
M  END
$$$$
