RDQ.pdb
     RDKit          3D

 29 28  0  0  1  0  0  0  0  0999 V2000
    8.8892  -11.2938   19.3672 N   0  0  0  0  0  0  0  0  0  0  0  0
    8.9182  -12.7059   19.2262 C   0  0  0  0  0  0  0  0  0  0  0  0
    9.9544  -13.3411   19.6384 N   0  0  0  0  0  0  0  0  0  0  0  0
    7.8614  -13.4510   18.6539 N   0  0  0  0  0  0  0  0  0  0  0  0
    7.0854  -14.4319   19.3867 C   0  0  0  0  0  0  0  0  0  0  0  0
    8.0161  -15.5637   19.7432 C   0  0  0  0  0  0  0  0  0  0  0  0
    8.0238  -15.8597   21.2291 C   0  0  0  0  0  0  0  0  0  0  0  0
    8.9750  -17.0312   21.4278 C   0  0  2  0  0  0  0  0  0  0  0  0
    8.4815  -18.2165   20.7765 N   0  0  0  0  0  0  0  0  0  0  0  0
    9.0893  -17.3545   22.8910 C   0  0  0  0  0  0  0  0  0  0  0  0
    8.0561  -17.7043   23.5442 O   0  0  0  0  0  0  0  0  0  0  0  0
   10.0561  -14.3577   19.6330 N   0  0  0  0  0  0  0  0  0  0  0  0
   10.3305  -17.2814   23.5798 C   0  0  1  0  0  0  0  0  0  0  0  0
   10.4212  -17.5842   24.9798 C   0  0  0  0  0  0  0  0  0  0  0  0
   11.4691  -18.5988   25.2968 C   0  0  0  0  0  0  0  0  0  0  0  0
   11.6336  -18.8833   26.7234 O   0  0  0  0  0  0  0  0  0  0  0  0
   10.5827  -19.0165   27.4174 C   0  0  0  0  0  0  0  0  0  0  0  0
   10.6430  -16.2979   25.7193 O   0  0  0  0  0  0  0  0  0  0  0  0
   11.6825  -15.6181   25.5288 O   0  0  0  0  0  0  0  0  0  0  0  0
   12.8956  -18.9968   27.2671 N   0  0  0  0  0  0  0  0  0  0  0  0
    6.3143  -12.4496   27.6047 C   0  0  0  0  0  0  0  0  0  0  0  0
    6.6413  -12.9659   26.3191 O   0  0  0  0  0  0  0  0  0  0  0  0
    5.8114  -12.7154   25.4005 C   0  0  0  0  0  0  0  0  0  0  0  0
    7.8876  -13.7323   26.1488 C   0  0  0  0  0  0  0  0  0  0  0  0
    8.6429  -13.7688   27.4472 C   0  0  2  0  0  0  0  0  0  0  0  0
    9.9040  -14.5564   27.3922 N   0  0  0  0  0  0  0  0  0  0  0  0
    9.6941  -15.8065   26.6530 C   0  0  0  0  0  0  0  0  0  0  0  0
   10.4346  -14.8888   28.7394 O   0  0  0  0  0  0  0  0  0  0  0  0
   10.4734  -16.0729   29.1702 O   0  0  0  0  0  0  0  0  0  0  0  0
  2  3  2  0
  2  1  1  0
  4  2  1  0
  5  4  1  0
  6  5  1  0
  7  6  1  0
  8  7  1  0
  8  9  1  6
 10 12  1  0
 10  8  1  0
 11 10  2  0
 13 14  1  6
 13 12  1  0
 14 15  1  0
 15 16  2  0
 15 19  1  0
 17 13  1  0
 17 18  2  0
 20 21  1  0
 21 22  2  0
 23 21  1  0
 23 24  1  0
 25 24  1  6
 25 26  1  0
 25 27  1  0
 26 17  1  0
 27 28  2  0
 27 29  1  0
M  END
$$$$
