RDQ.pdb
     RDKit          3D

 29 28  0  0  1  0  0  0  0  0999 V2000
    7.4662  -13.3735   14.9259 N   0  0  0  0  0  0  0  0  0  0  0  0
    8.4736  -14.1294   15.5807 C   0  0  0  0  0  0  0  0  0  0  0  0
    9.1462  -14.9787   14.8926 N   0  0  0  0  0  0  0  0  0  0  0  0
    8.7753  -13.9944   16.9555 N   0  0  0  0  0  0  0  0  0  0  0  0
    8.0851  -14.7230   18.0016 C   0  0  0  0  0  0  0  0  0  0  0  0
    7.3146  -13.7144   18.8161 C   0  0  0  0  0  0  0  0  0  0  0  0
    7.7990  -13.6375   20.2495 C   0  0  0  0  0  0  0  0  0  0  0  0
    8.4028  -14.9971   20.5715 C   0  0  2  0  0  0  0  0  0  0  0  0
    7.4046  -16.0334   20.5202 N   0  0  0  0  0  0  0  0  0  0  0  0
    8.9546  -14.9935   21.9694 C   0  0  0  0  0  0  0  0  0  0  0  0
    8.2109  -14.6510   22.9421 O   0  0  0  0  0  0  0  0  0  0  0  0
    9.9211  -15.5385   15.2528 N   0  0  0  0  0  0  0  0  0  0  0  0
   10.2985  -15.3648   22.2453 C   0  0  2  0  0  0  0  0  0  0  0  0
   10.6884  -15.8269   23.5471 C   0  0  0  0  0  0  0  0  0  0  0  0
    9.7989  -16.8991   24.0829 C   0  0  0  0  0  0  0  0  0  0  0  0
   10.2087  -17.4433   25.3787 O   0  0  0  0  0  0  0  0  0  0  0  0
   11.1943  -16.8967   25.9564 C   0  0  0  0  0  0  0  0  0  0  0  0
   12.1198  -16.2697   23.4727 O   0  0  0  0  0  0  0  0  0  0  0  0
   13.0339  -15.5786   23.9884 O   0  0  0  0  0  0  0  0  0  0  0  0
    9.5314  -18.5112   25.9282 N   0  0  0  0  0  0  0  0  0  0  0  0
   13.8085  -15.0417   17.7240 C   0  0  0  0  0  0  0  0  0  0  0  0
   13.5287  -14.7534   19.0895 O   0  0  0  0  0  0  0  0  0  0  0  0
   13.9747  -13.6529   19.5199 C   0  0  0  0  0  0  0  0  0  0  0  0
   12.7599  -15.7254   19.8857 C   0  0  0  0  0  0  0  0  0  0  0  0
   13.5310  -16.0925   21.1219 C   0  0  2  0  0  0  0  0  0  0  0  0
   13.2922  -17.4832   21.5938 N   0  0  0  0  0  0  0  0  0  0  0  0
   12.4900  -17.4754   22.8225 C   0  0  0  0  0  0  0  0  0  0  0  0
   14.5515  -18.2258   21.8578 O   0  0  0  0  0  0  0  0  0  0  0  0
   14.8280  -18.6917   22.9962 O   0  0  0  0  0  0  0  0  0  0  0  0
  2  3  2  0
  2  1  1  0
  4  2  1  0
  5  4  1  0
  6  5  1  0
  7  6  1  0
  8  7  1  0
  8  9  1  1
 10 12  1  0
 10  8  1  0
 11 10  2  0
 13 14  1  1
 13 12  1  0
 14 15  1  0
 15 16  2  0
 15 19  1  0
 17 13  1  0
 17 18  2  0
 20 21  1  0
 21 22  2  0
 23 21  1  0
 23 24  1  0
 25 24  1  6
 25 26  1  0
 25 27  1  0
 26 17  1  0
 27 28  2  0
 27 29  1  0
M  END
$$$$
