RDQ.pdb
     RDKit          3D

 29 28  0  0  1  0  0  0  0  0999 V2000
    6.8632  -12.0911   19.1661 N   0  0  0  0  0  0  0  0  0  0  0  0
    8.2175  -12.4691   18.9713 C   0  0  0  0  0  0  0  0  0  0  0  0
    9.1317  -11.5876   19.1566 N   0  0  0  0  0  0  0  0  0  0  0  0
    8.6123  -13.7701   18.5830 N   0  0  0  0  0  0  0  0  0  0  0  0
    7.6807  -14.7946   18.1542 C   0  0  0  0  0  0  0  0  0  0  0  0
    8.4827  -16.0414   17.8771 C   0  0  0  0  0  0  0  0  0  0  0  0
    9.4187  -16.3917   19.0159 C   0  0  0  0  0  0  0  0  0  0  0  0
   10.1214  -17.6801   18.6122 C   0  0  2  0  0  0  0  0  0  0  0  0
    9.1973  -18.7833   18.5681 N   0  0  0  0  0  0  0  0  0  0  0  0
   11.1698  -18.0313   19.6301 C   0  0  0  0  0  0  0  0  0  0  0  0
   10.9035  -18.8680   20.5496 O   0  0  0  0  0  0  0  0  0  0  0  0
   10.1275  -11.7341   18.9813 N   0  0  0  0  0  0  0  0  0  0  0  0
   12.4672  -17.4517   19.6000 C   0  0  2  0  0  0  0  0  0  0  0  0
   13.4076  -17.6819   20.6596 C   0  0  0  0  0  0  0  0  0  0  0  0
   14.8085  -17.3192   20.2937 C   0  0  0  0  0  0  0  0  0  0  0  0
   15.8277  -17.7905   21.2330 O   0  0  0  0  0  0  0  0  0  0  0  0
   15.4437  -18.5210   22.1936 C   0  0  0  0  0  0  0  0  0  0  0  0
   12.9326  -16.9360   21.8715 O   0  0  0  0  0  0  0  0  0  0  0  0
   12.5642  -15.7377   21.7852 O   0  0  0  0  0  0  0  0  0  0  0  0
   17.1490  -17.4381   21.0572 N   0  0  0  0  0  0  0  0  0  0  0  0
    8.6099  -15.2947   22.8903 C   0  0  0  0  0  0  0  0  0  0  0  0
    8.6579  -15.4946   24.2988 O   0  0  0  0  0  0  0  0  0  0  0  0
    7.7277  -14.9549   24.9611 C   0  0  0  0  0  0  0  0  0  0  0  0
    9.7533  -16.2943   24.8736 C   0  0  0  0  0  0  0  0  0  0  0  0
   10.6872  -16.7352   23.7823 C   0  0  1  0  0  0  0  0  0  0  0  0
   12.0748  -17.0065   24.2457 N   0  0  0  0  0  0  0  0  0  0  0  0
   12.8825  -17.5522   23.1488 C   0  0  0  0  0  0  0  0  0  0  0  0
   12.1254  -17.9569   25.3863 O   0  0  0  0  0  0  0  0  0  0  0  0
   11.7979  -17.6177   26.5555 O   0  0  0  0  0  0  0  0  0  0  0  0
  2  3  2  0
  2  1  1  0
  4  2  1  0
  5  4  1  0
  6  5  1  0
  7  6  1  0
  8  7  1  0
  8  9  1  1
 10 12  1  0
 10  8  1  0
 11 10  2  0
 13 14  1  6
 13 12  1  0
 14 15  1  0
 15 16  2  0
 15 19  1  0
 17 13  1  0
 17 18  2  0
 20 21  1  0
 21 22  2  0
 23 21  1  0
 23 24  1  0
 25 24  1  6
 25 26  1  0
 25 27  1  0
 26 17  1  0
 27 28  2  0
 27 29  1  0
M  END
$$$$
