RDQ.pdb
     RDKit          3D

 29 28  0  0  1  0  0  0  0  0999 V2000
    8.2981  -13.9544   16.3260 N   0  0  0  0  0  0  0  0  0  0  0  0
    8.2194  -13.5086   17.6714 C   0  0  0  0  0  0  0  0  0  0  0  0
    8.9728  -12.5369   18.0393 N   0  0  0  0  0  0  0  0  0  0  0  0
    7.3513  -14.0811   18.6295 N   0  0  0  0  0  0  0  0  0  0  0  0
    7.7016  -14.2518   20.0258 C   0  0  0  0  0  0  0  0  0  0  0  0
    8.1038  -15.6932   20.2136 C   0  0  0  0  0  0  0  0  0  0  0  0
    7.1349  -16.4534   21.0961 C   0  0  0  0  0  0  0  0  0  0  0  0
    7.3224  -15.9104   22.5056 C   0  0  2  0  0  0  0  0  0  0  0  0
    7.6212  -14.5022   22.4837 N   0  0  0  0  0  0  0  0  0  0  0  0
    8.4880  -16.5921   23.1653 C   0  0  0  0  0  0  0  0  0  0  0  0
    8.3991  -17.8157   23.4990 O   0  0  0  0  0  0  0  0  0  0  0  0
    9.0634  -12.2002   18.9997 N   0  0  0  0  0  0  0  0  0  0  0  0
    9.7038  -15.9062   23.4330 C   0  0  2  0  0  0  0  0  0  0  0  0
   10.7628  -16.5336   24.1712 C   0  0  0  0  0  0  0  0  0  0  0  0
   12.0402  -16.6278   23.4049 C   0  0  0  0  0  0  0  0  0  0  0  0
   12.7398  -17.9071   23.5366 O   0  0  0  0  0  0  0  0  0  0  0  0
   13.7515  -18.0982   22.7993 C   0  0  0  0  0  0  0  0  0  0  0  0
   10.9352  -15.7865   25.4607 O   0  0  0  0  0  0  0  0  0  0  0  0
   11.7760  -14.8577   25.5579 O   0  0  0  0  0  0  0  0  0  0  0  0
   12.2940  -18.8520   24.4363 N   0  0  0  0  0  0  0  0  0  0  0  0
    6.5505  -13.2962   28.0853 C   0  0  0  0  0  0  0  0  0  0  0  0
    7.5341  -12.6526   27.2826 O   0  0  0  0  0  0  0  0  0  0  0  0
    7.1737  -11.5732   26.7345 C   0  0  0  0  0  0  0  0  0  0  0  0
    8.8664  -13.2665   27.1495 C   0  0  0  0  0  0  0  0  0  0  0  0
    8.9346  -14.5171   27.9795 C   0  0  2  0  0  0  0  0  0  0  0  0
   10.2033  -15.2787   27.8238 N   0  0  0  0  0  0  0  0  0  0  0  0
   10.1609  -16.0993   26.6080 C   0  0  0  0  0  0  0  0  0  0  0  0
   10.4883  -16.1654   28.9812 O   0  0  0  0  0  0  0  0  0  0  0  0
   10.4228  -17.4214   28.8945 O   0  0  0  0  0  0  0  0  0  0  0  0
  2  3  2  0
  2  1  1  0
  4  2  1  0
  5  4  1  0
  6  5  1  0
  7  6  1  0
  8  7  1  0
  8  9  1  6
 10 12  1  0
 10  8  1  0
 11 10  2  0
 13 14  1  6
 13 12  1  0
 14 15  1  0
 15 16  2  0
 15 19  1  0
 17 13  1  0
 17 18  2  0
 20 21  1  0
 21 22  2  0
 23 21  1  0
 23 24  1  0
 25 24  1  6
 25 26  1  0
 25 27  1  0
 26 17  1  0
 27 28  2  0
 27 29  1  0
M  END
$$$$
