RDQ.pdb
     RDKit          3D

 29 28  0  0  1  0  0  0  0  0999 V2000
    6.7698  -12.1607   20.0628 N   0  0  0  0  0  0  0  0  0  0  0  0
    7.8639  -13.0280   19.8067 C   0  0  0  0  0  0  0  0  0  0  0  0
    8.1505  -13.3083   18.5875 N   0  0  0  0  0  0  0  0  0  0  0  0
    8.6567  -13.6003   20.8282 N   0  0  0  0  0  0  0  0  0  0  0  0
    9.9195  -14.2681   20.5817 C   0  0  0  0  0  0  0  0  0  0  0  0
    9.8020  -15.6663   21.1344 C   0  0  0  0  0  0  0  0  0  0  0  0
    8.3775  -16.1815   21.1055 C   0  0  0  0  0  0  0  0  0  0  0  0
    8.4408  -17.6411   21.5327 C   0  0  2  0  0  0  0  0  0  0  0  0
    7.1448  -18.2626   21.4505 N   0  0  0  0  0  0  0  0  0  0  0  0
    8.8782  -17.7354   22.9674 C   0  0  0  0  0  0  0  0  0  0  0  0
    8.0245  -17.5972   23.8993 O   0  0  0  0  0  0  0  0  0  0  0  0
    8.9524  -13.8673   18.2904 N   0  0  0  0  0  0  0  0  0  0  0  0
   10.2329  -17.9769   23.3234 C   0  0  2  0  0  0  0  0  0  0  0  0
   10.6257  -18.1163   24.6969 C   0  0  0  0  0  0  0  0  0  0  0  0
   11.9880  -18.7030   24.8638 C   0  0  0  0  0  0  0  0  0  0  0  0
   12.3479  -19.0311   26.2444 O   0  0  0  0  0  0  0  0  0  0  0  0
   11.4193  -19.0326   27.1055 C   0  0  0  0  0  0  0  0  0  0  0  0
   10.5093  -16.7714   25.3514 O   0  0  0  0  0  0  0  0  0  0  0  0
   11.0109  -15.7508   24.8167 O   0  0  0  0  0  0  0  0  0  0  0  0
   13.6555  -19.3233   26.5696 N   0  0  0  0  0  0  0  0  0  0  0  0
    6.9841  -12.7018   24.6510 C   0  0  0  0  0  0  0  0  0  0  0  0
    7.6921  -13.1411   25.8050 O   0  0  0  0  0  0  0  0  0  0  0  0
    8.2178  -12.2307   26.5051 C   0  0  0  0  0  0  0  0  0  0  0  0
    7.7615  -14.5827   26.0994 C   0  0  0  0  0  0  0  0  0  0  0  0
    8.4432  -14.7990   27.4208 C   0  0  2  0  0  0  0  0  0  0  0  0
    9.8301  -15.3258   27.3075 N   0  0  0  0  0  0  0  0  0  0  0  0
    9.8338  -16.6048   26.5882 C   0  0  0  0  0  0  0  0  0  0  0  0
   10.4796  -15.5261   28.6285 O   0  0  0  0  0  0  0  0  0  0  0  0
   10.8097  -16.6690   29.0459 O   0  0  0  0  0  0  0  0  0  0  0  0
  2  3  2  0
  2  1  1  0
  4  2  1  0
  5  4  1  0
  6  5  1  0
  7  6  1  0
  8  7  1  0
  8  9  1  1
 10 12  1  0
 10  8  1  0
 11 10  2  0
 13 14  1  6
 13 12  1  0
 14 15  1  0
 15 16  2  0
 15 19  1  0
 17 13  1  0
 17 18  2  0
 20 21  1  0
 21 22  2  0
 23 21  1  0
 23 24  1  0
 25 24  1  6
 25 26  1  0
 25 27  1  0
 26 17  1  0
 27 28  2  0
 27 29  1  0
M  END
$$$$
