RDQ.pdb
     RDKit          3D

 29 28  0  0  1  0  0  0  0  0999 V2000
    9.0472  -12.4199   20.0136 N   0  0  0  0  0  0  0  0  0  0  0  0
    7.8636  -12.9430   19.4304 C   0  0  0  0  0  0  0  0  0  0  0  0
    6.7457  -12.7407   20.0276 N   0  0  0  0  0  0  0  0  0  0  0  0
    7.8523  -13.6772   18.2220 N   0  0  0  0  0  0  0  0  0  0  0  0
    8.9011  -14.6009   17.8370 C   0  0  0  0  0  0  0  0  0  0  0  0
    8.5860  -15.9287   18.4788 C   0  0  0  0  0  0  0  0  0  0  0  0
    9.7081  -16.4210   19.3698 C   0  0  0  0  0  0  0  0  0  0  0  0
   10.2438  -17.6903   18.7228 C   0  0  2  0  0  0  0  0  0  0  0  0
    9.3131  -18.7791   18.8677 N   0  0  0  0  0  0  0  0  0  0  0  0
   11.5163  -18.1125   19.4017 C   0  0  0  0  0  0  0  0  0  0  0  0
   11.4789  -18.9731   20.3369 O   0  0  0  0  0  0  0  0  0  0  0  0
    5.8383  -13.0720   19.6952 N   0  0  0  0  0  0  0  0  0  0  0  0
   12.7783  -17.5750   19.0292 C   0  0  2  0  0  0  0  0  0  0  0  0
   13.9782  -17.9500   19.7217 C   0  0  0  0  0  0  0  0  0  0  0  0
   15.1196  -18.2451   18.8062 C   0  0  0  0  0  0  0  0  0  0  0  0
   15.4654  -17.1576   17.8892 O   0  0  0  0  0  0  0  0  0  0  0  0
   14.5116  -16.5159   17.3581 C   0  0  0  0  0  0  0  0  0  0  0  0
   14.3093  -16.8610   20.6990 O   0  0  0  0  0  0  0  0  0  0  0  0
   15.4342  -16.3013   20.6809 O   0  0  0  0  0  0  0  0  0  0  0  0
   16.7871  -16.8631   17.6297 N   0  0  0  0  0  0  0  0  0  0  0  0
   11.6097  -20.0501   24.3970 C   0  0  0  0  0  0  0  0  0  0  0  0
   12.3953  -19.3947   25.3866 O   0  0  0  0  0  0  0  0  0  0  0  0
   12.4086  -19.9401   26.5257 C   0  0  0  0  0  0  0  0  0  0  0  0
   13.1203  -18.1634   25.0285 C   0  0  0  0  0  0  0  0  0  0  0  0
   12.8462  -17.8117   23.5936 C   0  0  1  0  0  0  0  0  0  0  0  0
   13.5937  -16.6201   23.1089 N   0  0  0  0  0  0  0  0  0  0  0  0
   13.3712  -16.4271   21.6713 C   0  0  0  0  0  0  0  0  0  0  0  0
   15.0562  -16.7205   23.3502 O   0  0  0  0  0  0  0  0  0  0  0  0
   15.7056  -17.7714   23.0990 O   0  0  0  0  0  0  0  0  0  0  0  0
  2  3  2  0
  2  1  1  0
  4  2  1  0
  5  4  1  0
  6  5  1  0
  7  6  1  0
  8  7  1  0
  8  9  1  1
 10 12  1  0
 10  8  1  0
 11 10  2  0
 13 14  1  6
 13 12  1  0
 14 15  1  0
 15 16  2  0
 15 19  1  0
 17 13  1  0
 17 18  2  0
 20 21  1  0
 21 22  2  0
 23 21  1  0
 23 24  1  0
 25 24  1  1
 25 26  1  0
 25 27  1  0
 26 17  1  0
 27 28  2  0
 27 29  1  0
M  END
$$$$
