RDQ.pdb
     RDKit          3D

 29 28  0  0  1  0  0  0  0  0999 V2000
   10.1048  -13.4770   18.3771 N   0  0  0  0  0  0  0  0  0  0  0  0
    8.7320  -13.4786   18.0161 C   0  0  0  0  0  0  0  0  0  0  0  0
    8.4251  -13.6111   16.7770 N   0  0  0  0  0  0  0  0  0  0  0  0
    7.6824  -13.3418   18.9536 N   0  0  0  0  0  0  0  0  0  0  0  0
    7.7382  -13.8743   20.3008 C   0  0  0  0  0  0  0  0  0  0  0  0
    7.8164  -15.3759   20.1858 C   0  0  0  0  0  0  0  0  0  0  0  0
    7.9023  -16.0555   21.5372 C   0  0  0  0  0  0  0  0  0  0  0  0
    9.2811  -15.7300   22.0937 C   0  0  2  0  0  0  0  0  0  0  0  0
   10.3195  -16.1845   21.2060 N   0  0  0  0  0  0  0  0  0  0  0  0
    9.4853  -16.4408   23.4020 C   0  0  0  0  0  0  0  0  0  0  0  0
    8.5745  -16.4081   24.2885 O   0  0  0  0  0  0  0  0  0  0  0  0
    7.4741  -13.5798   16.4049 N   0  0  0  0  0  0  0  0  0  0  0  0
   10.6787  -17.1584   23.6866 C   0  0  1  0  0  0  0  0  0  0  0  0
   10.8361  -17.8779   24.9185 C   0  0  0  0  0  0  0  0  0  0  0  0
   11.8448  -18.9750   24.8357 C   0  0  0  0  0  0  0  0  0  0  0  0
   13.1079  -18.5981   24.1987 O   0  0  0  0  0  0  0  0  0  0  0  0
   14.0766  -18.2953   24.9561 C   0  0  0  0  0  0  0  0  0  0  0  0
   11.1704  -16.8876   25.9947 O   0  0  0  0  0  0  0  0  0  0  0  0
   12.3610  -16.5457   26.2060 O   0  0  0  0  0  0  0  0  0  0  0  0
   13.2133  -18.5806   22.8241 N   0  0  0  0  0  0  0  0  0  0  0  0
    7.8790  -12.1209   27.8104 C   0  0  0  0  0  0  0  0  0  0  0  0
    7.4784  -13.2394   27.0264 O   0  0  0  0  0  0  0  0  0  0  0  0
    6.3869  -13.1097   26.4041 C   0  0  0  0  0  0  0  0  0  0  0  0
    8.3365  -14.4361   26.9912 C   0  0  0  0  0  0  0  0  0  0  0  0
    9.5071  -14.2489   27.9143 C   0  0  1  0  0  0  0  0  0  0  0  0
   10.4793  -15.3751   27.8953 N   0  0  0  0  0  0  0  0  0  0  0  0
   10.1621  -16.3058   26.8060 C   0  0  0  0  0  0  0  0  0  0  0  0
   10.5056  -16.1347   29.1717 O   0  0  0  0  0  0  0  0  0  0  0  0
   10.1191  -17.3324   29.2462 O   0  0  0  0  0  0  0  0  0  0  0  0
  2  3  2  0
  2  1  1  0
  4  2  1  0
  5  4  1  0
  6  5  1  0
  7  6  1  0
  8  7  1  0
  8  9  1  6
 10 12  1  0
 10  8  1  0
 11 10  2  0
 13 14  1  6
 13 12  1  0
 14 15  1  0
 15 16  2  0
 15 19  1  0
 17 13  1  0
 17 18  2  0
 20 21  1  0
 21 22  2  0
 23 21  1  0
 23 24  1  0
 25 24  1  6
 25 26  1  0
 25 27  1  0
 26 17  1  0
 27 28  2  0
 27 29  1  0
M  END
$$$$
