RDQ.pdb
     RDKit          3D

 29 28  0  0  1  0  0  0  0  0999 V2000
    7.5658  -12.0560   18.7963 N   0  0  0  0  0  0  0  0  0  0  0  0
    8.2016  -13.2085   18.2650 C   0  0  0  0  0  0  0  0  0  0  0  0
    7.5431  -13.9503   17.4506 N   0  0  0  0  0  0  0  0  0  0  0  0
    9.5266  -13.5824   18.5873 N   0  0  0  0  0  0  0  0  0  0  0  0
    9.9947  -13.7797   19.9451 C   0  0  0  0  0  0  0  0  0  0  0  0
    9.5957  -15.1742   20.3581 C   0  0  0  0  0  0  0  0  0  0  0  0
    8.5532  -15.1755   21.4575 C   0  0  0  0  0  0  0  0  0  0  0  0
    8.0020  -16.5927   21.5238 C   0  0  2  0  0  0  0  0  0  0  0  0
    6.7687  -16.7047   20.7894 N   0  0  0  0  0  0  0  0  0  0  0  0
    7.6939  -16.9553   22.9494 C   0  0  0  0  0  0  0  0  0  0  0  0
    6.5372  -16.7255   23.4247 O   0  0  0  0  0  0  0  0  0  0  0  0
    7.9221  -14.7680   16.9695 N   0  0  0  0  0  0  0  0  0  0  0  0
    8.6649  -17.5546   23.7967 C   0  0  1  0  0  0  0  0  0  0  0  0
    8.3250  -17.9943   25.1201 C   0  0  0  0  0  0  0  0  0  0  0  0
    7.1667  -18.9352   25.1494 C   0  0  0  0  0  0  0  0  0  0  0  0
    6.8591  -19.4861   26.4704 O   0  0  0  0  0  0  0  0  0  0  0  0
    6.6276  -18.6649   27.4062 C   0  0  0  0  0  0  0  0  0  0  0  0
    9.5524  -18.5951   25.7389 O   0  0  0  0  0  0  0  0  0  0  0  0
    9.6050  -19.8232   26.0002 O   0  0  0  0  0  0  0  0  0  0  0  0
    6.8294  -20.8511   26.6629 N   0  0  0  0  0  0  0  0  0  0  0  0
    9.0571  -13.8927   28.4634 C   0  0  0  0  0  0  0  0  0  0  0  0
    9.7047  -14.5681   29.5360 O   0  0  0  0  0  0  0  0  0  0  0  0
    9.6980  -13.9662   30.6464 C   0  0  0  0  0  0  0  0  0  0  0  0
   10.3190  -15.8841   29.2896 C   0  0  0  0  0  0  0  0  0  0  0  0
   10.1944  -16.2382   27.8347 C   0  0  1  0  0  0  0  0  0  0  0  0
   11.0130  -17.4112   27.4249 N   0  0  0  0  0  0  0  0  0  0  0  0
   10.6893  -17.8045   26.0487 C   0  0  0  0  0  0  0  0  0  0  0  0
   10.8164  -18.5880   28.3101 O   0  0  0  0  0  0  0  0  0  0  0  0
   11.3854  -18.6852   29.4309 O   0  0  0  0  0  0  0  0  0  0  0  0
  2  3  2  0
  2  1  1  0
  4  2  1  0
  5  4  1  0
  6  5  1  0
  7  6  1  0
  8  7  1  0
  8  9  1  6
 10 12  1  0
 10  8  1  0
 11 10  2  0
 13 14  1  1
 13 12  1  0
 14 15  1  0
 15 16  2  0
 15 19  1  0
 17 13  1  0
 17 18  2  0
 20 21  1  0
 21 22  2  0
 23 21  1  0
 23 24  1  0
 25 24  1  6
 25 26  1  0
 25 27  1  0
 26 17  1  0
 27 28  2  0
 27 29  1  0
M  END
$$$$
