RDQ.pdb
     RDKit          3D

 29 28  0  0  1  0  0  0  0  0999 V2000
    7.5880  -12.7811   17.5642 N   0  0  0  0  0  0  0  0  0  0  0  0
    7.9395  -12.6765   18.9355 C   0  0  0  0  0  0  0  0  0  0  0  0
    7.8167  -11.5374   19.5137 N   0  0  0  0  0  0  0  0  0  0  0  0
    8.4190  -13.7655   19.6993 N   0  0  0  0  0  0  0  0  0  0  0  0
    8.7366  -15.0618   19.1333 C   0  0  0  0  0  0  0  0  0  0  0  0
    8.6164  -16.0763   20.2427 C   0  0  0  0  0  0  0  0  0  0  0  0
    8.8172  -17.4957   19.7522 C   0  0  0  0  0  0  0  0  0  0  0  0
    8.7389  -18.3892   20.9820 C   0  0  2  0  0  0  0  0  0  0  0  0
    8.2554  -17.6585   22.1244 N   0  0  0  0  0  0  0  0  0  0  0  0
   10.1099  -18.8928   21.3362 C   0  0  0  0  0  0  0  0  0  0  0  0
   10.7876  -19.5399   20.4769 O   0  0  0  0  0  0  0  0  0  0  0  0
    8.0944  -11.3390   20.4767 N   0  0  0  0  0  0  0  0  0  0  0  0
   10.6830  -18.6676   22.6172 C   0  0  2  0  0  0  0  0  0  0  0  0
   11.8097  -17.7940   22.7829 C   0  0  0  0  0  0  0  0  0  0  0  0
   12.2019  -17.0927   21.5251 C   0  0  0  0  0  0  0  0  0  0  0  0
   13.3386  -16.1803   21.6622 O   0  0  0  0  0  0  0  0  0  0  0  0
   14.1316  -16.3764   22.6299 C   0  0  0  0  0  0  0  0  0  0  0  0
   11.4907  -16.8301   23.8873 O   0  0  0  0  0  0  0  0  0  0  0  0
   12.3932  -16.1270   24.4073 O   0  0  0  0  0  0  0  0  0  0  0  0
   13.5168  -15.1537   20.7592 N   0  0  0  0  0  0  0  0  0  0  0  0
    7.1087  -15.3238   23.7077 C   0  0  0  0  0  0  0  0  0  0  0  0
    6.6406  -16.3621   24.5614 O   0  0  0  0  0  0  0  0  0  0  0  0
    5.5753  -16.9338   24.1958 C   0  0  0  0  0  0  0  0  0  0  0  0
    7.4057  -16.6931   25.7758 C   0  0  0  0  0  0  0  0  0  0  0  0
    8.5547  -15.7370   25.9285 C   0  0  1  0  0  0  0  0  0  0  0  0
    9.8932  -16.3718   25.7887 N   0  0  0  0  0  0  0  0  0  0  0  0
   10.1688  -16.6787   24.3805 C   0  0  0  0  0  0  0  0  0  0  0  0
   10.0218  -17.6238   26.5779 O   0  0  0  0  0  0  0  0  0  0  0  0
    9.9694  -18.7627   26.0400 O   0  0  0  0  0  0  0  0  0  0  0  0
  2  3  2  0
  2  1  1  0
  4  2  1  0
  5  4  1  0
  6  5  1  0
  7  6  1  0
  8  7  1  0
  8  9  1  1
 10 12  1  0
 10  8  1  0
 11 10  2  0
 13 14  1  6
 13 12  1  0
 14 15  1  0
 15 16  2  0
 15 19  1  0
 17 13  1  0
 17 18  2  0
 20 21  1  0
 21 22  2  0
 23 21  1  0
 23 24  1  0
 25 24  1  6
 25 26  1  0
 25 27  1  0
 26 17  1  0
 27 28  2  0
 27 29  1  0
M  END
$$$$
