RDQ.pdb
     RDKit          3D

 29 28  0  0  1  0  0  0  0  0999 V2000
    8.2777  -12.5321   17.9543 N   0  0  0  0  0  0  0  0  0  0  0  0
    8.5442  -13.0292   19.2569 C   0  0  0  0  0  0  0  0  0  0  0  0
    9.7661  -13.1212   19.6388 N   0  0  0  0  0  0  0  0  0  0  0  0
    7.5305  -13.4291   20.1579 N   0  0  0  0  0  0  0  0  0  0  0  0
    7.7951  -13.8928   21.5057 C   0  0  0  0  0  0  0  0  0  0  0  0
    8.2867  -15.3147   21.4016 C   0  0  0  0  0  0  0  0  0  0  0  0
    7.1916  -16.3262   21.6719 C   0  0  0  0  0  0  0  0  0  0  0  0
    7.8169  -17.6992   21.4700 C   0  0  2  0  0  0  0  0  0  0  0  0
    6.8248  -18.7389   21.5556 N   0  0  0  0  0  0  0  0  0  0  0  0
    8.8227  -17.9673   22.5541 C   0  0  0  0  0  0  0  0  0  0  0  0
    8.4361  -18.4190   23.6779 O   0  0  0  0  0  0  0  0  0  0  0  0
   10.0728  -13.5456   20.5161 N   0  0  0  0  0  0  0  0  0  0  0  0
   10.2110  -17.7296   22.3635 C   0  0  2  0  0  0  0  0  0  0  0  0
   11.1716  -18.1018   23.3629 C   0  0  0  0  0  0  0  0  0  0  0  0
   12.5596  -18.2279   22.8285 C   0  0  0  0  0  0  0  0  0  0  0  0
   13.5071  -18.8798   23.7343 O   0  0  0  0  0  0  0  0  0  0  0  0
   13.0510  -19.3464   24.8197 C   0  0  0  0  0  0  0  0  0  0  0  0
   11.0885  -17.1045   24.4805 O   0  0  0  0  0  0  0  0  0  0  0  0
   11.3262  -15.8878   24.2751 O   0  0  0  0  0  0  0  0  0  0  0  0
   14.8407  -18.9692   23.3960 N   0  0  0  0  0  0  0  0  0  0  0  0
    7.6704  -13.8378   26.4125 C   0  0  0  0  0  0  0  0  0  0  0  0
    8.3292  -13.7702   27.6725 O   0  0  0  0  0  0  0  0  0  0  0  0
    8.0771  -12.7469   28.3686 C   0  0  0  0  0  0  0  0  0  0  0  0
    9.2316  -14.8643   28.0706 C   0  0  0  0  0  0  0  0  0  0  0  0
    9.3834  -15.8362   26.9348 C   0  0  1  0  0  0  0  0  0  0  0  0
   10.6951  -16.5381   26.9099 N   0  0  0  0  0  0  0  0  0  0  0  0
   10.7410  -17.4962   25.7994 C   0  0  0  0  0  0  0  0  0  0  0  0
   10.9826  -17.2660   28.1726 O   0  0  0  0  0  0  0  0  0  0  0  0
   10.8635  -18.5176   28.2660 O   0  0  0  0  0  0  0  0  0  0  0  0
  2  3  2  0
  2  1  1  0
  4  2  1  0
  5  4  1  0
  6  5  1  0
  7  6  1  0
  8  7  1  0
  8  9  1  1
 10 12  1  0
 10  8  1  0
 11 10  2  0
 13 14  1  6
 13 12  1  0
 14 15  1  0
 15 16  2  0
 15 19  1  0
 17 13  1  0
 17 18  2  0
 20 21  1  0
 21 22  2  0
 23 21  1  0
 23 24  1  0
 25 24  1  6
 25 26  1  0
 25 27  1  0
 26 17  1  0
 27 28  2  0
 27 29  1  0
M  END
$$$$
