RDQ.pdb
     RDKit          3D

 29 28  0  0  1  0  0  0  0  0999 V2000
    6.5756  -13.6220   19.7443 N   0  0  0  0  0  0  0  0  0  0  0  0
    7.2952  -13.7462   18.5271 C   0  0  0  0  0  0  0  0  0  0  0  0
    7.2676  -12.7677   17.6971 N   0  0  0  0  0  0  0  0  0  0  0  0
    8.0431  -14.8953   18.1810 N   0  0  0  0  0  0  0  0  0  0  0  0
    8.1037  -16.0881   19.0026 C   0  0  0  0  0  0  0  0  0  0  0  0
    9.4638  -16.1146   19.6537 C   0  0  0  0  0  0  0  0  0  0  0  0
    9.6667  -17.3417   20.5188 C   0  0  0  0  0  0  0  0  0  0  0  0
    9.6440  -16.8575   21.9616 C   0  0  2  0  0  0  0  0  0  0  0  0
    9.7259  -15.4216   22.0284 N   0  0  0  0  0  0  0  0  0  0  0  0
   10.8367  -17.3960   22.7006 C   0  0  0  0  0  0  0  0  0  0  0  0
   10.9782  -18.6514   22.8436 O   0  0  0  0  0  0  0  0  0  0  0  0
    7.7306  -12.7619   16.7864 N   0  0  0  0  0  0  0  0  0  0  0  0
   11.8259  -16.5380   23.2531 C   0  0  1  0  0  0  0  0  0  0  0  0
   12.9200  -17.0635   24.0192 C   0  0  0  0  0  0  0  0  0  0  0  0
   14.1994  -16.3258   23.8026 C   0  0  0  0  0  0  0  0  0  0  0  0
   14.7753  -16.4791   22.4654 O   0  0  0  0  0  0  0  0  0  0  0  0
   15.5369  -15.5574   22.0482 C   0  0  0  0  0  0  0  0  0  0  0  0
   12.5137  -17.0712   25.4633 O   0  0  0  0  0  0  0  0  0  0  0  0
   13.3489  -17.3347   26.3645 O   0  0  0  0  0  0  0  0  0  0  0  0
   14.4837  -17.5940   21.7083 N   0  0  0  0  0  0  0  0  0  0  0  0
    7.6625  -13.9737   27.5990 C   0  0  0  0  0  0  0  0  0  0  0  0
    8.9179  -13.4180   27.2231 O   0  0  0  0  0  0  0  0  0  0  0  0
    8.9260  -12.1719   27.0169 C   0  0  0  0  0  0  0  0  0  0  0  0
   10.0888  -14.3038   27.1050 C   0  0  0  0  0  0  0  0  0  0  0  0
    9.6975  -15.7121   27.4530 C   0  0  2  0  0  0  0  0  0  0  0  0
   10.7897  -16.7062   27.2722 N   0  0  0  0  0  0  0  0  0  0  0  0
   11.1821  -16.7833   25.8603 C   0  0  0  0  0  0  0  0  0  0  0  0
   10.4110  -18.0675   27.7311 O   0  0  0  0  0  0  0  0  0  0  0  0
   10.1061  -18.9858   26.9230 O   0  0  0  0  0  0  0  0  0  0  0  0
  2  3  2  0
  2  1  1  0
  4  2  1  0
  5  4  1  0
  6  5  1  0
  7  6  1  0
  8  7  1  0
  8  9  1  6
 10 12  1  0
 10  8  1  0
 11 10  2  0
 13 14  1  6
 13 12  1  0
 14 15  1  0
 15 16  2  0
 15 19  1  0
 17 13  1  0
 17 18  2  0
 20 21  1  0
 21 22  2  0
 23 21  1  0
 23 24  1  0
 25 24  1  1
 25 26  1  0
 25 27  1  0
 26 17  1  0
 27 28  2  0
 27 29  1  0
M  END
$$$$
