RDQ.pdb
     RDKit          3D

 29 28  0  0  1  0  0  0  0  0999 V2000
    8.8180  -11.5159   18.9613 N   0  0  0  0  0  0  0  0  0  0  0  0
    8.7286  -12.8684   19.3827 C   0  0  0  0  0  0  0  0  0  0  0  0
    9.1152  -13.7879   18.5751 N   0  0  0  0  0  0  0  0  0  0  0  0
    8.2347  -13.2560   20.6497 N   0  0  0  0  0  0  0  0  0  0  0  0
    6.9899  -13.9747   20.8376 C   0  0  0  0  0  0  0  0  0  0  0  0
    7.3354  -15.4337   21.0001 C   0  0  0  0  0  0  0  0  0  0  0  0
    7.9579  -15.7337   22.3484 C   0  0  0  0  0  0  0  0  0  0  0  0
    8.2429  -17.2288   22.3657 C   0  0  2  0  0  0  0  0  0  0  0  0
    7.0208  -17.9897   22.3862 N   0  0  0  0  0  0  0  0  0  0  0  0
    9.0014  -17.5904   23.6117 C   0  0  0  0  0  0  0  0  0  0  0  0
    8.3787  -18.0505   24.6202 O   0  0  0  0  0  0  0  0  0  0  0  0
    9.0982  -14.7889   18.7794 N   0  0  0  0  0  0  0  0  0  0  0  0
   10.4110  -17.4331   23.7029 C   0  0  2  0  0  0  0  0  0  0  0  0
   11.1115  -17.7131   24.9240 C   0  0  0  0  0  0  0  0  0  0  0  0
   12.4899  -18.2420   24.7050 C   0  0  0  0  0  0  0  0  0  0  0  0
   13.2269  -18.5555   25.9306 O   0  0  0  0  0  0  0  0  0  0  0  0
   12.5503  -18.8480   26.9603 C   0  0  0  0  0  0  0  0  0  0  0  0
   11.1147  -16.4633   25.7539 O   0  0  0  0  0  0  0  0  0  0  0  0
   11.9178  -15.5292   25.5058 O   0  0  0  0  0  0  0  0  0  0  0  0
   14.6053  -18.5259   25.9378 N   0  0  0  0  0  0  0  0  0  0  0  0
    6.9069  -12.7662   25.0641 C   0  0  0  0  0  0  0  0  0  0  0  0
    7.5038  -13.1500   26.2979 O   0  0  0  0  0  0  0  0  0  0  0  0
    6.9450  -12.7043   27.3392 C   0  0  0  0  0  0  0  0  0  0  0  0
    8.6951  -14.0162   26.2805 C   0  0  0  0  0  0  0  0  0  0  0  0
    9.1471  -14.2866   27.6877 C   0  0  2  0  0  0  0  0  0  0  0  0
   10.3386  -15.1729   27.7812 N   0  0  0  0  0  0  0  0  0  0  0  0
   10.2179  -16.2924   26.8403 C   0  0  0  0  0  0  0  0  0  0  0  0
   10.5406  -15.7239   29.1460 O   0  0  0  0  0  0  0  0  0  0  0  0
   10.7526  -14.9819   30.1429 O   0  0  0  0  0  0  0  0  0  0  0  0
  2  3  2  0
  2  1  1  0
  4  2  1  0
  5  4  1  0
  6  5  1  0
  7  6  1  0
  8  7  1  0
  8  9  1  1
 10 12  1  0
 10  8  1  0
 11 10  2  0
 13 14  1  6
 13 12  1  0
 14 15  1  0
 15 16  2  0
 15 19  1  0
 17 13  1  0
 17 18  2  0
 20 21  1  0
 21 22  2  0
 23 21  1  0
 23 24  1  0
 25 24  1  6
 25 26  1  0
 25 27  1  0
 26 17  1  0
 27 28  2  0
 27 29  1  0
M  END
$$$$
