RDQ.pdb
     RDKit          3D

 29 28  0  0  1  0  0  0  0  0999 V2000
   11.9570  -18.1400   11.1450 N   0  0  0  0  0  0  0  0  0  0  0  0
   12.2644  -19.5158   11.3115 C   0  0  0  0  0  0  0  0  0  0  0  0
   11.7738  -20.3580   10.4766 N   0  0  0  0  0  0  0  0  0  0  0  0
   13.0857  -20.0074   12.3523 N   0  0  0  0  0  0  0  0  0  0  0  0
   13.7017  -19.1597   13.3539 C   0  0  0  0  0  0  0  0  0  0  0  0
   12.9316  -19.3501   14.6366 C   0  0  0  0  0  0  0  0  0  0  0  0
   13.4696  -20.4959   15.4692 C   0  0  0  0  0  0  0  0  0  0  0  0
   12.6806  -20.4872   16.7708 C   0  0  2  0  0  0  0  0  0  0  0  0
   11.6039  -19.5328   16.7186 N   0  0  0  0  0  0  0  0  0  0  0  0
   13.5733  -20.0741   17.9071 C   0  0  0  0  0  0  0  0  0  0  0  0
   13.0721  -19.5215   18.9366 O   0  0  0  0  0  0  0  0  0  0  0  0
   11.8918  -21.3713   10.5326 N   0  0  0  0  0  0  0  0  0  0  0  0
   14.9788  -20.2827   17.8697 C   0  0  1  0  0  0  0  0  0  0  0  0
   15.7917  -20.0705   19.0334 C   0  0  0  0  0  0  0  0  0  0  0  0
   15.3413  -20.8578   20.2188 C   0  0  0  0  0  0  0  0  0  0  0  0
   16.2108  -20.7494   21.3916 O   0  0  0  0  0  0  0  0  0  0  0  0
   16.7936  -19.6421   21.5862 C   0  0  0  0  0  0  0  0  0  0  0  0
   17.2147  -20.3722   18.6665 O   0  0  0  0  0  0  0  0  0  0  0  0
   17.4947  -21.3502   17.9289 O   0  0  0  0  0  0  0  0  0  0  0  0
   16.3730  -21.8266   22.2367 N   0  0  0  0  0  0  0  0  0  0  0  0
   20.6954  -22.1098   14.8194 C   0  0  0  0  0  0  0  0  0  0  0  0
   21.2213  -21.4287   15.9531 O   0  0  0  0  0  0  0  0  0  0  0  0
   22.1021  -22.0536   16.6081 C   0  0  0  0  0  0  0  0  0  0  0  0
   20.7216  -20.0814   16.2770 C   0  0  0  0  0  0  0  0  0  0  0  0
   19.4781  -20.1884   17.1136 C   0  0  2  0  0  0  0  0  0  0  0  0
   19.4939  -19.3368   18.3335 N   0  0  0  0  0  0  0  0  0  0  0  0
   18.2872  -19.5700   19.1353 C   0  0  0  0  0  0  0  0  0  0  0  0
   19.5799  -17.8867   18.0223 O   0  0  0  0  0  0  0  0  0  0  0  0
   20.4529  -17.4201   17.2415 O   0  0  0  0  0  0  0  0  0  0  0  0
  2  3  2  0
  2  1  1  0
  4  2  1  0
  5  4  1  0
  6  5  1  0
  7  6  1  0
  8  7  1  0
  8  9  1  6
 10 12  1  0
 10  8  1  0
 11 10  2  0
 13 14  1  6
 13 12  1  0
 14 15  1  0
 15 16  2  0
 15 19  1  0
 17 13  1  0
 17 18  2  0
 20 21  1  0
 21 22  2  0
 23 21  1  0
 23 24  1  0
 25 24  1  1
 25 26  1  0
 25 27  1  0
 26 17  1  0
 27 28  2  0
 27 29  1  0
M  END
$$$$
