RDQ.pdb
     RDKit          3D

 29 28  0  0  1  0  0  0  0  0999 V2000
    8.3488  -13.7768   15.2232 N   0  0  0  0  0  0  0  0  0  0  0  0
    8.5880  -14.8008   16.1766 C   0  0  0  0  0  0  0  0  0  0  0  0
    8.4045  -16.0210   15.8235 N   0  0  0  0  0  0  0  0  0  0  0  0
    9.0193  -14.5454   17.4988 N   0  0  0  0  0  0  0  0  0  0  0  0
    8.3726  -13.5951   18.3820 C   0  0  0  0  0  0  0  0  0  0  0  0
    7.0637  -14.2059   18.8157 C   0  0  0  0  0  0  0  0  0  0  0  0
    7.2325  -15.1794   19.9643 C   0  0  0  0  0  0  0  0  0  0  0  0
    8.1759  -14.5132   20.9558 C   0  0  2  0  0  0  0  0  0  0  0  0
    9.4388  -14.1992   20.3398 N   0  0  0  0  0  0  0  0  0  0  0  0
    8.4679  -15.4511   22.0931 C   0  0  0  0  0  0  0  0  0  0  0  0
    7.5228  -15.8449   22.8469 O   0  0  0  0  0  0  0  0  0  0  0  0
    8.5824  -16.8333   16.4171 N   0  0  0  0  0  0  0  0  0  0  0  0
    9.7832  -15.9195   22.3592 C   0  0  1  0  0  0  0  0  0  0  0  0
   10.0484  -16.8011   23.4603 C   0  0  0  0  0  0  0  0  0  0  0  0
   11.2750  -17.6300   23.2697 C   0  0  0  0  0  0  0  0  0  0  0  0
   11.5557  -18.5670   24.3590 O   0  0  0  0  0  0  0  0  0  0  0  0
   10.5649  -19.0759   24.9615 C   0  0  0  0  0  0  0  0  0  0  0  0
   10.1179  -15.9744   24.7102 O   0  0  0  0  0  0  0  0  0  0  0  0
   11.0760  -15.1852   24.9063 O   0  0  0  0  0  0  0  0  0  0  0  0
   12.8581  -18.8672   24.6974 N   0  0  0  0  0  0  0  0  0  0  0  0
    5.8178  -12.8482   25.9607 C   0  0  0  0  0  0  0  0  0  0  0  0
    7.0096  -12.1348   26.2716 O   0  0  0  0  0  0  0  0  0  0  0  0
    7.0081  -10.9080   25.9713 C   0  0  0  0  0  0  0  0  0  0  0  0
    8.1303  -12.8504   26.9053 C   0  0  0  0  0  0  0  0  0  0  0  0
    7.8682  -14.3297   26.8788 C   0  0  2  0  0  0  0  0  0  0  0  0
    9.1008  -15.1630   26.8746 N   0  0  0  0  0  0  0  0  0  0  0  0
    9.1121  -16.0531   25.7080 C   0  0  0  0  0  0  0  0  0  0  0  0
    9.2405  -15.9907   28.1003 O   0  0  0  0  0  0  0  0  0  0  0  0
    9.1437  -17.2474   28.0742 O   0  0  0  0  0  0  0  0  0  0  0  0
  2  3  2  0
  2  1  1  0
  4  2  1  0
  5  4  1  0
  6  5  1  0
  7  6  1  0
  8  7  1  0
  8  9  1  6
 10 12  1  0
 10  8  1  0
 11 10  2  0
 13 14  1  1
 13 12  1  0
 14 15  1  0
 15 16  2  0
 15 19  1  0
 17 13  1  0
 17 18  2  0
 20 21  1  0
 21 22  2  0
 23 21  1  0
 23 24  1  0
 25 24  1  6
 25 26  1  0
 25 27  1  0
 26 17  1  0
 27 28  2  0
 27 29  1  0
M  END
$$$$
