RDQ.pdb
     RDKit          3D

 29 28  0  0  1  0  0  0  0  0999 V2000
    7.9018  -12.7066   16.7753 N   0  0  0  0  0  0  0  0  0  0  0  0
    7.6761  -13.3033   18.0433 C   0  0  0  0  0  0  0  0  0  0  0  0
    7.7181  -12.5575   19.0870 N   0  0  0  0  0  0  0  0  0  0  0  0
    7.4063  -14.6805   18.2164 N   0  0  0  0  0  0  0  0  0  0  0  0
    7.2737  -15.3131   19.5140 C   0  0  0  0  0  0  0  0  0  0  0  0
    8.6290  -15.2693   20.1740 C   0  0  0  0  0  0  0  0  0  0  0  0
    8.6420  -15.9742   21.5150 C   0  0  0  0  0  0  0  0  0  0  0  0
   10.0624  -15.8541   22.0487 C   0  0  2  0  0  0  0  0  0  0  0  0
   11.0155  -16.3907   21.1125 N   0  0  0  0  0  0  0  0  0  0  0  0
   10.2016  -16.6502   23.3158 C   0  0  0  0  0  0  0  0  0  0  0  0
    9.3972  -16.4504   24.2799 O   0  0  0  0  0  0  0  0  0  0  0  0
    7.5705  -12.8841   20.0438 N   0  0  0  0  0  0  0  0  0  0  0  0
   11.2163  -17.6325   23.4757 C   0  0  1  0  0  0  0  0  0  0  0  0
   11.3302  -18.3909   24.6890 C   0  0  0  0  0  0  0  0  0  0  0  0
   12.3477  -19.4802   24.6100 C   0  0  0  0  0  0  0  0  0  0  0  0
   12.0605  -20.5146   23.6146 O   0  0  0  0  0  0  0  0  0  0  0  0
   12.8120  -20.5704   22.5968 C   0  0  0  0  0  0  0  0  0  0  0  0
   11.6172  -17.4345   25.8086 O   0  0  0  0  0  0  0  0  0  0  0  0
   12.0193  -16.2681   25.5703 O   0  0  0  0  0  0  0  0  0  0  0  0
   11.0058  -21.3828   23.8010 N   0  0  0  0  0  0  0  0  0  0  0  0
    8.0203  -14.4292   27.2783 C   0  0  0  0  0  0  0  0  0  0  0  0
    9.1627  -13.7282   27.7576 O   0  0  0  0  0  0  0  0  0  0  0  0
    9.0520  -12.4711   27.8106 C   0  0  0  0  0  0  0  0  0  0  0  0
   10.3605  -14.4904   28.1501 C   0  0  0  0  0  0  0  0  0  0  0  0
   10.1033  -15.9615   27.9844 C   0  0  2  0  0  0  0  0  0  0  0  0
   11.2948  -16.8165   28.2359 N   0  0  0  0  0  0  0  0  0  0  0  0
   11.4460  -17.8098   27.1664 C   0  0  0  0  0  0  0  0  0  0  0  0
   11.2264  -17.5311   29.5366 O   0  0  0  0  0  0  0  0  0  0  0  0
   11.0448  -18.7766   29.6075 O   0  0  0  0  0  0  0  0  0  0  0  0
  2  3  2  0
  2  1  1  0
  4  2  1  0
  5  4  1  0
  6  5  1  0
  7  6  1  0
  8  7  1  0
  8  9  1  6
 10 12  1  0
 10  8  1  0
 11 10  2  0
 13 14  1  1
 13 12  1  0
 14 15  1  0
 15 16  2  0
 15 19  1  0
 17 13  1  0
 17 18  2  0
 20 21  1  0
 21 22  2  0
 23 21  1  0
 23 24  1  0
 25 24  1  6
 25 26  1  0
 25 27  1  0
 26 17  1  0
 27 28  2  0
 27 29  1  0
M  END
$$$$
