RDQ.pdb
     RDKit          3D

 29 28  0  0  1  0  0  0  0  0999 V2000
    7.8381  -13.4884   16.5832 N   0  0  0  0  0  0  0  0  0  0  0  0
    8.6048  -13.6563   17.7659 C   0  0  0  0  0  0  0  0  0  0  0  0
    9.1666  -12.6247   18.2829 N   0  0  0  0  0  0  0  0  0  0  0  0
    8.7816  -14.9047   18.4059 N   0  0  0  0  0  0  0  0  0  0  0  0
    8.0347  -16.0966   18.0554 C   0  0  0  0  0  0  0  0  0  0  0  0
    7.2283  -16.4921   19.2669 C   0  0  0  0  0  0  0  0  0  0  0  0
    8.0735  -17.1642   20.3297 C   0  0  0  0  0  0  0  0  0  0  0  0
    7.3802  -18.4781   20.6612 C   0  0  2  0  0  0  0  0  0  0  0  0
    6.0774  -18.5454   20.0521 N   0  0  0  0  0  0  0  0  0  0  0  0
    7.1724  -18.5861   22.1457 C   0  0  0  0  0  0  0  0  0  0  0  0
    6.0122  -18.4137   22.6362 O   0  0  0  0  0  0  0  0  0  0  0  0
    9.7734  -12.6411   19.1047 N   0  0  0  0  0  0  0  0  0  0  0  0
    8.2437  -18.8783   23.0329 C   0  0  1  0  0  0  0  0  0  0  0  0
    8.0452  -18.9003   24.4543 C   0  0  0  0  0  0  0  0  0  0  0  0
    8.2941  -20.2400   25.0637 C   0  0  0  0  0  0  0  0  0  0  0  0
    8.3746  -20.2418   26.5254 O   0  0  0  0  0  0  0  0  0  0  0  0
    7.4446  -19.6647   27.1624 C   0  0  0  0  0  0  0  0  0  0  0  0
    8.9132  -17.8375   25.0605 O   0  0  0  0  0  0  0  0  0  0  0  0
   10.1291  -18.0552   25.2916 O   0  0  0  0  0  0  0  0  0  0  0  0
    9.4334  -20.8550   27.1610 N   0  0  0  0  0  0  0  0  0  0  0  0
    9.4390  -16.3612   30.1561 C   0  0  0  0  0  0  0  0  0  0  0  0
    9.9177  -15.0803   29.7609 O   0  0  0  0  0  0  0  0  0  0  0  0
   10.2846  -14.3188   30.6994 C   0  0  0  0  0  0  0  0  0  0  0  0
    9.9547  -14.7379   28.3287 C   0  0  0  0  0  0  0  0  0  0  0  0
    9.1381  -15.7288   27.5484 C   0  0  1  0  0  0  0  0  0  0  0  0
    9.2079  -15.5432   26.0738 N   0  0  0  0  0  0  0  0  0  0  0  0
    8.3966  -16.5581   25.3919 C   0  0  0  0  0  0  0  0  0  0  0  0
   10.5957  -15.6186   25.5491 O   0  0  0  0  0  0  0  0  0  0  0  0
   11.0106  -16.6123   24.8935 O   0  0  0  0  0  0  0  0  0  0  0  0
  2  3  2  0
  2  1  1  0
  4  2  1  0
  5  4  1  0
  6  5  1  0
  7  6  1  0
  8  7  1  0
  8  9  1  6
 10 12  1  0
 10  8  1  0
 11 10  2  0
 13 14  1  1
 13 12  1  0
 14 15  1  0
 15 16  2  0
 15 19  1  0
 17 13  1  0
 17 18  2  0
 20 21  1  0
 21 22  2  0
 23 21  1  0
 23 24  1  0
 25 24  1  1
 25 26  1  0
 25 27  1  0
 26 17  1  0
 27 28  2  0
 27 29  1  0
M  END
$$$$
