RSD.pdb
     RDKit          3D

 26 25  0  0  1  0  0  0  0  0999 V2000
   30.9308  -23.4850   -9.6123 N   0  0  0  0  0  0  0  0  0  0  0  0
   31.9052  -22.8791  -10.4643 C   0  0  0  0  0  0  0  0  0  0  0  0
   32.6603  -23.6453  -11.1668 N   0  0  0  0  0  0  0  0  0  0  0  0
   32.0662  -21.4778  -10.5630 N   0  0  0  0  0  0  0  0  0  0  0  0
   30.9101  -20.6307  -10.6015 C   0  0  0  0  0  0  0  0  0  0  0  0
   29.8342  -21.3638  -11.4072 C   0  0  0  0  0  0  0  0  0  0  0  0
   28.5982  -20.5016  -11.5401 C   0  0  0  0  0  0  0  0  0  0  0  0
   27.5738  -21.2777  -12.3719 C   0  0  2  0  0  0  0  0  0  0  0  0
   28.1640  -21.3923  -13.6920 N   0  0  0  0  0  0  0  0  0  0  0  0
   26.2793  -20.5618  -12.4090 C   0  0  0  0  0  0  0  0  0  0  0  0
   26.0362  -19.6772  -11.5617 O   0  0  0  0  0  0  0  0  0  0  0  0
   33.4098  -23.3078  -11.8067 O   0  0  0  0  0  0  0  0  0  0  0  0
   24.5056  -20.2356  -15.9040 C   0  0  0  0  0  0  0  0  0  0  0  0
   24.0523  -19.4525  -14.8538 C   0  0  1  0  0  0  0  0  0  0  0  0
   24.0487  -20.2334  -13.5309 N   0  0  0  0  0  0  0  0  0  0  0  0
   25.3211  -20.8680  -13.3897 C   0  0  0  0  0  0  0  0  0  0  0  0
   22.9136  -21.1461  -13.5806 O   0  0  0  0  0  0  0  0  0  0  0  0
   23.0858  -22.3585  -13.8387 N   0  0  0  0  0  0  0  0  0  0  0  0
   21.5954  -20.6863  -13.3406 C   0  0  1  0  0  0  0  0  0  0  0  0
   20.4247  -21.5373  -13.4339 C   0  0  0  0  0  0  0  0  0  0  0  0
   19.4569  -21.3279  -12.2980 C   0  0  0  0  0  0  0  0  0  0  0  0
   18.2824  -22.1980  -12.4287 O   0  0  0  0  0  0  0  0  0  0  0  0
   17.1596  -21.8216  -12.8855 C   0  0  0  0  0  0  0  0  0  0  0  0
   19.7310  -21.2751  -14.7297 O   0  0  0  0  0  0  0  0  0  0  0  0
   19.0548  -22.2952  -15.3683 O   0  0  0  0  0  0  0  0  0  0  0  0
   18.4091  -23.5309  -12.0224 O   0  0  0  0  0  0  0  0  0  0  0  0
  1  2  1  0
  2  3  2  0
  4  5  1  0
  4  2  1  0
  6  5  1  0
  7  6  1  0
  7  8  1  0
  8 10  1  0
  8  9  1  6
 10 11  2  0
 13 12  1  0
 14 13  1  1
 15 14  1  0
 15 10  1  0
 16 17  2  0
 16 14  1  0
 18 16  1  0
 19 20  1  6
 19 18  1  0
 20 21  1  0
 21 25  1  0
 21 22  2  0
 23 19  1  0
 24 23  1  0
 26 23  2  0
M  END
$$$$
