RSD.pdb
     RDKit          3D

 26 25  0  0  1  0  0  0  0  0999 V2000
   27.3702  -22.9859  -17.2462 N   0  0  0  0  0  0  0  0  0  0  0  0
   26.7625  -22.8931  -15.9560 C   0  0  0  0  0  0  0  0  0  0  0  0
   25.8495  -23.7439  -15.6505 N   0  0  0  0  0  0  0  0  0  0  0  0
   27.1277  -21.9077  -15.0100 N   0  0  0  0  0  0  0  0  0  0  0  0
   28.1182  -20.9285  -15.3502 C   0  0  0  0  0  0  0  0  0  0  0  0
   27.4021  -19.7910  -16.0833 C   0  0  0  0  0  0  0  0  0  0  0  0
   28.0970  -19.4903  -17.3931 C   0  0  0  0  0  0  0  0  0  0  0  0
   27.2741  -18.4273  -18.1256 C   0  0  2  0  0  0  0  0  0  0  0  0
   27.8288  -17.1564  -17.6997 N   0  0  0  0  0  0  0  0  0  0  0  0
   25.8403  -18.5448  -17.7793 C   0  0  0  0  0  0  0  0  0  0  0  0
   25.3764  -17.8812  -16.8285 O   0  0  0  0  0  0  0  0  0  0  0  0
   25.3907  -23.8060  -14.7173 O   0  0  0  0  0  0  0  0  0  0  0  0
   23.5368  -21.7507  -19.3111 C   0  0  0  0  0  0  0  0  0  0  0  0
   23.0404  -20.4599  -19.4069 C   0  0  1  0  0  0  0  0  0  0  0  0
   23.5934  -19.5607  -18.2909 N   0  0  0  0  0  0  0  0  0  0  0  0
   24.9956  -19.3959  -18.5111 C   0  0  0  0  0  0  0  0  0  0  0  0
   23.2446  -20.1931  -17.0250 O   0  0  0  0  0  0  0  0  0  0  0  0
   24.1307  -20.7143  -16.3113 N   0  0  0  0  0  0  0  0  0  0  0  0
   21.9022  -20.2341  -16.5744 C   0  0  1  0  0  0  0  0  0  0  0  0
   21.5191  -20.6853  -15.2503 C   0  0  0  0  0  0  0  0  0  0  0  0
   22.1129  -19.8433  -14.1506 C   0  0  0  0  0  0  0  0  0  0  0  0
   21.7582  -20.3658  -12.8260 O   0  0  0  0  0  0  0  0  0  0  0  0
   21.0989  -21.4325  -12.6299 C   0  0  0  0  0  0  0  0  0  0  0  0
   20.0305  -20.6669  -15.1387 O   0  0  0  0  0  0  0  0  0  0  0  0
   19.4133  -21.2579  -14.0544 O   0  0  0  0  0  0  0  0  0  0  0  0
   22.1746  -19.6394  -11.7049 O   0  0  0  0  0  0  0  0  0  0  0  0
  1  2  1  0
  2  3  2  0
  4  5  1  0
  4  2  1  0
  6  5  1  0
  7  6  1  0
  7  8  1  0
  8 10  1  0
  8  9  1  1
 10 11  2  0
 13 12  1  0
 14 13  1  6
 15 14  1  0
 15 10  1  0
 16 17  2  0
 16 14  1  0
 18 16  1  0
 19 20  1  6
 19 18  1  0
 20 21  1  0
 21 25  1  0
 21 22  2  0
 23 19  1  0
 24 23  1  0
 26 23  2  0
M  END
$$$$
