RSD.pdb
     RDKit          3D

 26 25  0  0  1  0  0  0  0  0999 V2000
   18.2443  -13.9381  -15.2180 N   0  0  0  0  0  0  0  0  0  0  0  0
   17.0058  -14.3086  -14.6085 C   0  0  0  0  0  0  0  0  0  0  0  0
   16.6135  -15.5270  -14.7190 N   0  0  0  0  0  0  0  0  0  0  0  0
   16.2037  -13.3906  -13.8923 N   0  0  0  0  0  0  0  0  0  0  0  0
   16.5942  -12.0130  -13.8176 C   0  0  0  0  0  0  0  0  0  0  0  0
   15.5110  -11.2741  -13.0271 C   0  0  0  0  0  0  0  0  0  0  0  0
   15.9018   -9.8264  -12.8269 C   0  0  0  0  0  0  0  0  0  0  0  0
   15.5204   -9.4326  -11.3975 C   0  0  2  0  0  0  0  0  0  0  0  0
   14.1867   -9.9673  -11.1986 N   0  0  0  0  0  0  0  0  0  0  0  0
   15.5530   -7.9623  -11.2334 C   0  0  0  0  0  0  0  0  0  0  0  0
   14.7391   -7.2510  -11.8588 O   0  0  0  0  0  0  0  0  0  0  0  0
   15.7614  -15.9151  -14.2623 O   0  0  0  0  0  0  0  0  0  0  0  0
   17.2298   -6.2663   -7.9615 C   0  0  0  0  0  0  0  0  0  0  0  0
   16.5272   -5.4924   -8.8722 C   0  0  1  0  0  0  0  0  0  0  0  0
   16.7731   -5.9598  -10.3147 N   0  0  0  0  0  0  0  0  0  0  0  0
   16.4913   -7.3591  -10.3792 C   0  0  0  0  0  0  0  0  0  0  0  0
   18.1443   -5.5973  -10.6499 O   0  0  0  0  0  0  0  0  0  0  0  0
   19.1062   -6.2071  -10.1312 N   0  0  0  0  0  0  0  0  0  0  0  0
   18.4206   -4.5514  -11.5645 C   0  0  1  0  0  0  0  0  0  0  0  0
   19.7538   -4.2452  -12.0465 C   0  0  0  0  0  0  0  0  0  0  0  0
   20.3667   -5.3764  -12.8311 C   0  0  0  0  0  0  0  0  0  0  0  0
   21.6750   -5.0001  -13.3790 O   0  0  0  0  0  0  0  0  0  0  0  0
   21.8486   -4.4722  -14.5200 C   0  0  0  0  0  0  0  0  0  0  0  0
   19.6962   -3.0234  -12.9027 O   0  0  0  0  0  0  0  0  0  0  0  0
   20.8343   -2.2686  -13.1040 O   0  0  0  0  0  0  0  0  0  0  0  0
   22.8060   -5.2397  -12.5908 O   0  0  0  0  0  0  0  0  0  0  0  0
  1  2  1  0
  2  3  2  0
  4  5  1  0
  4  2  1  0
  6  5  1  0
  7  6  1  0
  7  8  1  0
  8 10  1  0
  8  9  1  6
 10 11  2  0
 13 12  1  0
 14 13  1  6
 15 14  1  0
 15 10  1  0
 16 17  2  0
 16 14  1  0
 18 16  1  0
 19 20  1  1
 19 18  1  0
 20 21  1  0
 21 25  1  0
 21 22  2  0
 23 19  1  0
 24 23  1  0
 26 23  2  0
M  END
$$$$
