RSD.pdb
     RDKit          3D

 26 25  0  0  1  0  0  0  0  0999 V2000
   22.9394  -12.4454  -20.8680 N   0  0  0  0  0  0  0  0  0  0  0  0
   22.0306  -12.2116  -21.9461 C   0  0  0  0  0  0  0  0  0  0  0  0
   22.2839  -12.7522  -23.0837 N   0  0  0  0  0  0  0  0  0  0  0  0
   20.8710  -11.4147  -21.8068 N   0  0  0  0  0  0  0  0  0  0  0  0
   20.6089  -10.7528  -20.5623 C   0  0  0  0  0  0  0  0  0  0  0  0
   19.1376  -10.9980  -20.2164 C   0  0  0  0  0  0  0  0  0  0  0  0
   18.7570  -10.2339  -18.9673 C   0  0  0  0  0  0  0  0  0  0  0  0
   19.4696  -10.8906  -17.7822 C   0  0  2  0  0  0  0  0  0  0  0  0
   18.7233  -12.1054  -17.5150 N   0  0  0  0  0  0  0  0  0  0  0  0
   19.4824   -9.9850  -16.6120 C   0  0  0  0  0  0  0  0  0  0  0  0
   18.4327   -9.7984  -15.9617 O   0  0  0  0  0  0  0  0  0  0  0  0
   21.6982  -12.6313  -23.9367 O   0  0  0  0  0  0  0  0  0  0  0  0
   23.0916   -9.0286  -14.8373 C   0  0  0  0  0  0  0  0  0  0  0  0
   21.8695   -8.8993  -14.1958 C   0  0  1  0  0  0  0  0  0  0  0  0
   20.7816   -8.3936  -15.1553 N   0  0  0  0  0  0  0  0  0  0  0  0
   20.6655   -9.3335  -16.2253 C   0  0  0  0  0  0  0  0  0  0  0  0
   21.1680   -7.0489  -15.5633 O   0  0  0  0  0  0  0  0  0  0  0  0
   21.9196   -6.8768  -16.5490 N   0  0  0  0  0  0  0  0  0  0  0  0
   20.7061   -5.9105  -14.8580 C   0  0  1  0  0  0  0  0  0  0  0  0
   21.1115   -4.5554  -15.1785 C   0  0  0  0  0  0  0  0  0  0  0  0
   19.9748   -3.5695  -15.0961 C   0  0  0  0  0  0  0  0  0  0  0  0
   18.9482   -3.8510  -16.1062 O   0  0  0  0  0  0  0  0  0  0  0  0
   17.7140   -4.0002  -15.8506 C   0  0  0  0  0  0  0  0  0  0  0  0
   22.1988   -4.1361  -14.2451 O   0  0  0  0  0  0  0  0  0  0  0  0
   22.8905   -2.9637  -14.4751 O   0  0  0  0  0  0  0  0  0  0  0  0
   19.3578   -3.9622  -17.4395 O   0  0  0  0  0  0  0  0  0  0  0  0
  1  2  1  0
  2  3  2  0
  4  5  1  0
  4  2  1  0
  6  5  1  0
  7  6  1  0
  7  8  1  0
  8 10  1  0
  8  9  1  1
 10 11  2  0
 13 12  1  0
 14 13  1  1
 15 14  1  0
 15 10  1  0
 16 17  2  0
 16 14  1  0
 18 16  1  0
 19 20  1  6
 19 18  1  0
 20 21  1  0
 21 25  1  0
 21 22  2  0
 23 19  1  0
 24 23  1  0
 26 23  2  0
M  END
$$$$
