RSD.pdb
     RDKit          3D

 26 25  0  0  1  0  0  0  0  0999 V2000
   17.3751  -24.9205   -5.4642 N   0  0  0  0  0  0  0  0  0  0  0  0
   18.0284  -26.1486   -5.7923 C   0  0  0  0  0  0  0  0  0  0  0  0
   18.3264  -26.9538   -4.8366 N   0  0  0  0  0  0  0  0  0  0  0  0
   18.3546  -26.5078   -7.1204 N   0  0  0  0  0  0  0  0  0  0  0  0
   19.0126  -25.5601   -7.9716 C   0  0  0  0  0  0  0  0  0  0  0  0
   18.0197  -25.1658   -9.0683 C   0  0  0  0  0  0  0  0  0  0  0  0
   18.6690  -24.2122  -10.0470 C   0  0  0  0  0  0  0  0  0  0  0  0
   18.8959  -22.8823   -9.3235 C   0  0  2  0  0  0  0  0  0  0  0  0
   17.6951  -22.6664   -8.5387 N   0  0  0  0  0  0  0  0  0  0  0  0
   19.1210  -21.7894  -10.2953 C   0  0  0  0  0  0  0  0  0  0  0  0
   18.1435  -21.2091  -10.8123 O   0  0  0  0  0  0  0  0  0  0  0  0
   18.7716  -27.8862   -4.9692 O   0  0  0  0  0  0  0  0  0  0  0  0
   22.7810  -21.6646  -12.1924 C   0  0  0  0  0  0  0  0  0  0  0  0
   22.2932  -20.4295  -11.7944 C   0  0  1  0  0  0  0  0  0  0  0  0
   20.7636  -20.4480  -11.6536 N   0  0  0  0  0  0  0  0  0  0  0  0
   20.4251  -21.3980  -10.6414 C   0  0  0  0  0  0  0  0  0  0  0  0
   20.2200  -20.7426  -12.9733 O   0  0  0  0  0  0  0  0  0  0  0  0
   19.4239  -21.6949  -13.1330 N   0  0  0  0  0  0  0  0  0  0  0  0
   20.5778  -19.9638  -14.1013 C   0  0  2  0  0  0  0  0  0  0  0  0
   19.8905  -20.0438  -15.3759 C   0  0  0  0  0  0  0  0  0  0  0  0
   18.4209  -19.7281  -15.2693 C   0  0  0  0  0  0  0  0  0  0  0  0
   17.6524  -20.3946  -16.3270 O   0  0  0  0  0  0  0  0  0  0  0  0
   17.9292  -21.5392  -16.8003 C   0  0  0  0  0  0  0  0  0  0  0  0
   20.5312  -19.0985  -16.3377 O   0  0  0  0  0  0  0  0  0  0  0  0
   20.7355  -19.4815  -17.6481 O   0  0  0  0  0  0  0  0  0  0  0  0
   16.5408  -19.7231  -16.8479 O   0  0  0  0  0  0  0  0  0  0  0  0
  1  2  1  0
  2  3  2  0
  4  5  1  0
  4  2  1  0
  6  5  1  0
  7  6  1  0
  7  8  1  0
  8 10  1  0
  8  9  1  6
 10 11  2  0
 13 12  1  0
 14 13  1  1
 15 14  1  0
 15 10  1  0
 16 17  2  0
 16 14  1  0
 18 16  1  0
 19 20  1  6
 19 18  1  0
 20 21  1  0
 21 25  1  0
 21 22  2  0
 23 19  1  0
 24 23  1  0
 26 23  2  0
M  END
$$$$
