RSD.pdb
     RDKit          3D

 26 25  0  0  1  0  0  0  0  0999 V2000
   19.5438  -20.8704   -8.8722 N   0  0  0  0  0  0  0  0  0  0  0  0
   19.5266  -20.1027  -10.0776 C   0  0  0  0  0  0  0  0  0  0  0  0
   18.3976  -19.6585  -10.5003 N   0  0  0  0  0  0  0  0  0  0  0  0
   20.6980  -19.8149  -10.8153 N   0  0  0  0  0  0  0  0  0  0  0  0
   21.1835  -20.7621  -11.7759 C   0  0  0  0  0  0  0  0  0  0  0  0
   22.5600  -21.2319  -11.2977 C   0  0  0  0  0  0  0  0  0  0  0  0
   23.6325  -20.2677  -11.7549 C   0  0  0  0  0  0  0  0  0  0  0  0
   24.9921  -20.9052  -11.4571 C   0  0  2  0  0  0  0  0  0  0  0  0
   25.1870  -20.7364  -10.0297 N   0  0  0  0  0  0  0  0  0  0  0  0
   26.0616  -20.2464  -12.2394 C   0  0  0  0  0  0  0  0  0  0  0  0
   26.5975  -19.2065  -11.8026 O   0  0  0  0  0  0  0  0  0  0  0  0
   18.2716  -19.1087  -11.3762 O   0  0  0  0  0  0  0  0  0  0  0  0
   28.1909  -22.2023  -15.0613 C   0  0  0  0  0  0  0  0  0  0  0  0
   28.4810  -20.8740  -14.7905 C   0  0  1  0  0  0  0  0  0  0  0  0
   27.2082  -20.0737  -14.4750 N   0  0  0  0  0  0  0  0  0  0  0  0
   26.4802  -20.7810  -13.4693 C   0  0  0  0  0  0  0  0  0  0  0  0
   26.4955  -19.8971  -15.7339 O   0  0  0  0  0  0  0  0  0  0  0  0
   25.5168  -20.6243  -16.0158 N   0  0  0  0  0  0  0  0  0  0  0  0
   26.8912  -18.9049  -16.6644 C   0  0  1  0  0  0  0  0  0  0  0  0
   26.2288  -18.6966  -17.9377 C   0  0  0  0  0  0  0  0  0  0  0  0
   26.4024  -17.2958  -18.4653 C   0  0  0  0  0  0  0  0  0  0  0  0
   25.6507  -16.3245  -17.6621 O   0  0  0  0  0  0  0  0  0  0  0  0
   24.8196  -16.6361  -16.7548 C   0  0  0  0  0  0  0  0  0  0  0  0
   26.7656  -19.6705  -18.9338 O   0  0  0  0  0  0  0  0  0  0  0  0
   25.9471  -20.1547  -19.9345 O   0  0  0  0  0  0  0  0  0  0  0  0
   25.8646  -14.9648  -17.9136 O   0  0  0  0  0  0  0  0  0  0  0  0
  1  2  1  0
  2  3  2  0
  4  5  1  0
  4  2  1  0
  6  5  1  0
  7  6  1  0
  7  8  1  0
  8 10  1  0
  8  9  1  1
 10 11  2  0
 13 12  1  0
 14 13  1  1
 15 14  1  0
 15 10  1  0
 16 17  2  0
 16 14  1  0
 18 16  1  0
 19 20  1  6
 19 18  1  0
 20 21  1  0
 21 25  1  0
 21 22  2  0
 23 19  1  0
 24 23  1  0
 26 23  2  0
M  END
$$$$
