RSD.pdb
     RDKit          3D

 26 25  0  0  1  0  0  0  0  0999 V2000
   23.4723  -20.6817  -10.0042 N   0  0  0  0  0  0  0  0  0  0  0  0
   24.4819  -20.8981   -9.0160 C   0  0  0  0  0  0  0  0  0  0  0  0
   24.1182  -21.3072   -7.8537 N   0  0  0  0  0  0  0  0  0  0  0  0
   25.8560  -20.6819   -9.2696 N   0  0  0  0  0  0  0  0  0  0  0  0
   26.2854  -20.3060  -10.5848 C   0  0  0  0  0  0  0  0  0  0  0  0
   26.3867  -21.5882  -11.4154 C   0  0  0  0  0  0  0  0  0  0  0  0
   26.3805  -21.2597  -12.8922 C   0  0  0  0  0  0  0  0  0  0  0  0
   27.1940  -19.9780  -13.0894 C   0  0  2  0  0  0  0  0  0  0  0  0
   27.5948  -19.5727  -11.7556 N   0  0  0  0  0  0  0  0  0  0  0  0
   26.3797  -18.9389  -13.7580 C   0  0  0  0  0  0  0  0  0  0  0  0
   25.3784  -18.4687  -13.1785 O   0  0  0  0  0  0  0  0  0  0  0  0
   24.7632  -21.4340   -7.0455 O   0  0  0  0  0  0  0  0  0  0  0  0
   27.4899  -17.7915  -17.6703 C   0  0  0  0  0  0  0  0  0  0  0  0
   26.9455  -16.8605  -16.7992 C   0  0  1  0  0  0  0  0  0  0  0  0
   25.9826  -17.5206  -15.8008 N   0  0  0  0  0  0  0  0  0  0  0  0
   26.7234  -18.4760  -15.0391 C   0  0  0  0  0  0  0  0  0  0  0  0
   24.8836  -18.0794  -16.5779 O   0  0  0  0  0  0  0  0  0  0  0  0
   25.0802  -19.0430  -17.3518 N   0  0  0  0  0  0  0  0  0  0  0  0
   23.5741  -17.5484  -16.4780 C   0  0  1  0  0  0  0  0  0  0  0  0
   22.3750  -18.3491  -16.6341 C   0  0  0  0  0  0  0  0  0  0  0  0
   22.3211  -19.5144  -15.6802 C   0  0  0  0  0  0  0  0  0  0  0  0
   21.1045  -20.3111  -15.8772 O   0  0  0  0  0  0  0  0  0  0  0  0
   20.2104  -20.0516  -16.7398 C   0  0  0  0  0  0  0  0  0  0  0  0
   21.1772  -17.4826  -16.4250 O   0  0  0  0  0  0  0  0  0  0  0  0
   21.3377  -16.1628  -16.0535 O   0  0  0  0  0  0  0  0  0  0  0  0
   20.9183  -21.4310  -15.0593 O   0  0  0  0  0  0  0  0  0  0  0  0
  1  2  1  0
  2  3  2  0
  4  5  1  0
  4  2  1  0
  6  5  1  0
  7  6  1  0
  7  8  1  0
  8 10  1  0
  8  9  1  1
 10 11  2  0
 13 12  1  0
 14 13  1  1
 15 14  1  0
 15 10  1  0
 16 17  2  0
 16 14  1  0
 18 16  1  0
 19 20  1  6
 19 18  1  0
 20 21  1  0
 21 25  1  0
 21 22  2  0
 23 19  1  0
 24 23  1  0
 26 23  2  0
M  END
$$$$
