RSD.pdb
     RDKit          3D

 26 25  0  0  1  0  0  0  0  0999 V2000
   27.3507  -19.0450  -19.9972 N   0  0  0  0  0  0  0  0  0  0  0  0
   25.9227  -18.9880  -20.0159 C   0  0  0  0  0  0  0  0  0  0  0  0
   25.2681  -20.0875  -19.9011 N   0  0  0  0  0  0  0  0  0  0  0  0
   25.2096  -17.7748  -20.1533 N   0  0  0  0  0  0  0  0  0  0  0  0
   25.9189  -16.5288  -20.1456 C   0  0  0  0  0  0  0  0  0  0  0  0
   25.0707  -15.5261  -19.3586 C   0  0  0  0  0  0  0  0  0  0  0  0
   25.7259  -14.1624  -19.3675 C   0  0  0  0  0  0  0  0  0  0  0  0
   24.8282  -13.2073  -18.5766 C   0  0  2  0  0  0  0  0  0  0  0  0
   23.5749  -13.1715  -19.3061 N   0  0  0  0  0  0  0  0  0  0  0  0
   25.4467  -11.8664  -18.4808 C   0  0  0  0  0  0  0  0  0  0  0  0
   25.2266  -11.0178  -19.3701 O   0  0  0  0  0  0  0  0  0  0  0  0
   24.2291  -20.1533  -19.8641 O   0  0  0  0  0  0  0  0  0  0  0  0
   26.5214  -10.4724  -14.8299 C   0  0  0  0  0  0  0  0  0  0  0  0
   26.3599   -9.6432  -15.9291 C   0  0  1  0  0  0  0  0  0  0  0  0
   26.9308  -10.2822  -17.2040 N   0  0  0  0  0  0  0  0  0  0  0  0
   26.2792  -11.5391  -17.3975 C   0  0  0  0  0  0  0  0  0  0  0  0
   28.3751  -10.3644  -17.0269 O   0  0  0  0  0  0  0  0  0  0  0  0
   28.8874  -11.3461  -16.4438 N   0  0  0  0  0  0  0  0  0  0  0  0
   29.2293   -9.3410  -17.5063 C   0  0  1  0  0  0  0  0  0  0  0  0
   30.6711   -9.3687  -17.3521 C   0  0  0  0  0  0  0  0  0  0  0  0
   31.3194  -10.4975  -18.1114 C   0  0  0  0  0  0  0  0  0  0  0  0
   32.7780  -10.4820  -17.9508 O   0  0  0  0  0  0  0  0  0  0  0  0
   33.4040   -9.7042  -17.1672 C   0  0  0  0  0  0  0  0  0  0  0  0
   31.2383   -8.0687  -17.8186 O   0  0  0  0  0  0  0  0  0  0  0  0
   32.5941   -7.8312  -17.7141 O   0  0  0  0  0  0  0  0  0  0  0  0
   33.5280  -11.3848  -18.7126 O   0  0  0  0  0  0  0  0  0  0  0  0
  1  2  1  0
  2  3  2  0
  4  5  1  0
  4  2  1  0
  6  5  1  0
  7  6  1  0
  7  8  1  0
  8 10  1  0
  8  9  1  6
 10 11  2  0
 13 12  1  0
 14 13  1  6
 15 14  1  0
 15 10  1  0
 16 17  2  0
 16 14  1  0
 18 16  1  0
 19 20  1  1
 19 18  1  0
 20 21  1  0
 21 25  1  0
 21 22  2  0
 23 19  1  0
 24 23  1  0
 26 23  2  0
M  END
$$$$
