RSD.pdb
     RDKit          3D

 26 25  0  0  1  0  0  0  0  0999 V2000
   15.3597  -14.8239  -15.6624 N   0  0  0  0  0  0  0  0  0  0  0  0
   16.1878  -15.7767  -16.3326 C   0  0  0  0  0  0  0  0  0  0  0  0
   15.7010  -16.9401  -16.5780 N   0  0  0  0  0  0  0  0  0  0  0  0
   17.5123  -15.4873  -16.7339 N   0  0  0  0  0  0  0  0  0  0  0  0
   18.0957  -14.2211  -16.3991 C   0  0  0  0  0  0  0  0  0  0  0  0
   19.4884  -14.1786  -17.0337 C   0  0  0  0  0  0  0  0  0  0  0  0
   20.1670  -12.8623  -16.7242 C   0  0  0  0  0  0  0  0  0  0  0  0
   21.4952  -12.8309  -17.4847 C   0  0  2  0  0  0  0  0  0  0  0  0
   22.2509  -13.9603  -16.9773 N   0  0  0  0  0  0  0  0  0  0  0  0
   22.1999  -11.5503  -17.2545 C   0  0  0  0  0  0  0  0  0  0  0  0
   23.0606  -11.4702  -16.3532 O   0  0  0  0  0  0  0  0  0  0  0  0
   16.2178  -17.7048  -17.0612 O   0  0  0  0  0  0  0  0  0  0  0  0
   21.2413   -8.2397  -19.7487 C   0  0  0  0  0  0  0  0  0  0  0  0
   22.5317   -8.4786  -19.3021 C   0  0  1  0  0  0  0  0  0  0  0  0
   22.5333   -9.1436  -17.9173 N   0  0  0  0  0  0  0  0  0  0  0  0
   21.9100  -10.4233  -18.0417 C   0  0  0  0  0  0  0  0  0  0  0  0
   21.8642   -8.2249  -17.0052 O   0  0  0  0  0  0  0  0  0  0  0  0
   20.6289   -8.3023  -16.8204 N   0  0  0  0  0  0  0  0  0  0  0  0
   22.5907   -7.2269  -16.3102 C   0  0  1  0  0  0  0  0  0  0  0  0
   21.9746   -6.2798  -15.4009 C   0  0  0  0  0  0  0  0  0  0  0  0
   22.9688   -5.6218  -14.4792 C   0  0  0  0  0  0  0  0  0  0  0  0
   22.3029   -4.7294  -13.5233 O   0  0  0  0  0  0  0  0  0  0  0  0
   21.1904   -4.9791  -12.9657 C   0  0  0  0  0  0  0  0  0  0  0  0
   21.2650   -5.2316  -16.1926 O   0  0  0  0  0  0  0  0  0  0  0  0
   19.9874   -4.8472  -15.8383 O   0  0  0  0  0  0  0  0  0  0  0  0
   22.9369   -3.5230  -13.2060 O   0  0  0  0  0  0  0  0  0  0  0  0
  1  2  1  0
  2  3  2  0
  4  5  1  0
  4  2  1  0
  6  5  1  0
  7  6  1  0
  7  8  1  0
  8 10  1  0
  8  9  1  1
 10 11  2  0
 13 12  1  0
 14 13  1  6
 15 14  1  0
 15 10  1  0
 16 17  2  0
 16 14  1  0
 18 16  1  0
 19 20  1  6
 19 18  1  0
 20 21  1  0
 21 25  1  0
 21 22  2  0
 23 19  1  0
 24 23  1  0
 26 23  2  0
M  END
$$$$
