RSD.pdb
     RDKit          3D

 26 25  0  0  1  0  0  0  0  0999 V2000
   13.0139  -11.5799  -16.2165 N   0  0  0  0  0  0  0  0  0  0  0  0
   13.7446  -12.7707  -16.5176 C   0  0  0  0  0  0  0  0  0  0  0  0
   13.1047  -13.8842  -16.5559 N   0  0  0  0  0  0  0  0  0  0  0  0
   15.1349  -12.7679  -16.7746 N   0  0  0  0  0  0  0  0  0  0  0  0
   15.9490  -11.7018  -16.2683 C   0  0  0  0  0  0  0  0  0  0  0  0
   17.3929  -11.9922  -16.6869 C   0  0  0  0  0  0  0  0  0  0  0  0
   18.3053  -10.8714  -16.2397 C   0  0  0  0  0  0  0  0  0  0  0  0
   19.7466  -11.2977  -16.5301 C   0  0  2  0  0  0  0  0  0  0  0  0
   19.8894  -12.6022  -15.9120 N   0  0  0  0  0  0  0  0  0  0  0  0
   20.7049  -10.3176  -15.9726 C   0  0  0  0  0  0  0  0  0  0  0  0
   20.7874  -10.1669  -14.7357 O   0  0  0  0  0  0  0  0  0  0  0  0
   13.5354  -14.8032  -16.7909 O   0  0  0  0  0  0  0  0  0  0  0  0
   23.1390   -8.1276  -18.6774 C   0  0  0  0  0  0  0  0  0  0  0  0
   23.6014   -8.5217  -17.4314 C   0  0  1  0  0  0  0  0  0  0  0  0
   22.4651   -8.5677  -16.3987 N   0  0  0  0  0  0  0  0  0  0  0  0
   21.5235   -9.5553  -16.8225 C   0  0  0  0  0  0  0  0  0  0  0  0
   21.9286   -7.2163  -16.2983 O   0  0  0  0  0  0  0  0  0  0  0  0
   21.1853   -6.7610  -17.1962 N   0  0  0  0  0  0  0  0  0  0  0  0
   22.2341   -6.3896  -15.1893 C   0  0  1  0  0  0  0  0  0  0  0  0
   21.6297   -5.0890  -14.9739 C   0  0  0  0  0  0  0  0  0  0  0  0
   20.1349   -5.1604  -14.7966 C   0  0  0  0  0  0  0  0  0  0  0  0
   19.5738   -3.8489  -14.4522 O   0  0  0  0  0  0  0  0  0  0  0  0
   20.1982   -2.7500  -14.5679 C   0  0  0  0  0  0  0  0  0  0  0  0
   22.2416   -4.4587  -13.7666 O   0  0  0  0  0  0  0  0  0  0  0  0
   21.8988   -3.1688  -13.4140 O   0  0  0  0  0  0  0  0  0  0  0  0
   18.2632   -3.8077  -13.9637 O   0  0  0  0  0  0  0  0  0  0  0  0
  1  2  1  0
  2  3  2  0
  4  5  1  0
  4  2  1  0
  6  5  1  0
  7  6  1  0
  7  8  1  0
  8 10  1  0
  8  9  1  1
 10 11  2  0
 13 12  1  0
 14 13  1  1
 15 14  1  0
 15 10  1  0
 16 17  2  0
 16 14  1  0
 18 16  1  0
 19 20  1  6
 19 18  1  0
 20 21  1  0
 21 25  1  0
 21 22  2  0
 23 19  1  0
 24 23  1  0
 26 23  2  0
M  END
$$$$
