RSD.pdb
     RDKit          3D

 26 25  0  0  1  0  0  0  0  0999 V2000
   19.7362  -15.7783  -14.8516 N   0  0  0  0  0  0  0  0  0  0  0  0
   20.4513  -16.3941  -15.9249 C   0  0  0  0  0  0  0  0  0  0  0  0
   20.2534  -17.6434  -16.1504 N   0  0  0  0  0  0  0  0  0  0  0  0
   21.3603  -15.6838  -16.7425 N   0  0  0  0  0  0  0  0  0  0  0  0
   21.5169  -14.2693  -16.5683 C   0  0  0  0  0  0  0  0  0  0  0  0
   20.3731  -13.5874  -17.3238 C   0  0  0  0  0  0  0  0  0  0  0  0
   20.5203  -12.0833  -17.2542 C   0  0  0  0  0  0  0  0  0  0  0  0
   19.3845  -11.4639  -18.0727 C   0  0  2  0  0  0  0  0  0  0  0  0
   19.5585  -11.9807  -19.4169 N   0  0  0  0  0  0  0  0  0  0  0  0
   19.4596   -9.9865  -18.0380 C   0  0  0  0  0  0  0  0  0  0  0  0
   20.3386   -9.3953  -18.6995 O   0  0  0  0  0  0  0  0  0  0  0  0
   20.7734  -18.2038  -16.8581 O   0  0  0  0  0  0  0  0  0  0  0  0
   16.5218   -7.9129  -15.8226 C   0  0  0  0  0  0  0  0  0  0  0  0
   17.1036   -7.3547  -16.9503 C   0  0  1  0  0  0  0  0  0  0  0  0
   18.5572   -7.8210  -17.1222 N   0  0  0  0  0  0  0  0  0  0  0  0
   18.5503   -9.2424  -17.2678 C   0  0  0  0  0  0  0  0  0  0  0  0
   19.2993   -7.3293  -15.9684 O   0  0  0  0  0  0  0  0  0  0  0  0
   19.7185   -8.1250  -15.0981 N   0  0  0  0  0  0  0  0  0  0  0  0
   19.5621   -5.9471  -15.8038 C   0  0  1  0  0  0  0  0  0  0  0  0
   20.3570   -5.4106  -14.7157 C   0  0  0  0  0  0  0  0  0  0  0  0
   21.7617   -5.9556  -14.6931 C   0  0  0  0  0  0  0  0  0  0  0  0
   22.5358   -5.3933  -13.5803 O   0  0  0  0  0  0  0  0  0  0  0  0
   23.2354   -4.3371  -13.6563 C   0  0  0  0  0  0  0  0  0  0  0  0
   20.4053   -3.9229  -14.8320 O   0  0  0  0  0  0  0  0  0  0  0  0
   20.6721   -3.1528  -13.7177 O   0  0  0  0  0  0  0  0  0  0  0  0
   22.5001   -6.0670  -12.3544 O   0  0  0  0  0  0  0  0  0  0  0  0
  1  2  1  0
  2  3  2  0
  4  5  1  0
  4  2  1  0
  6  5  1  0
  7  6  1  0
  7  8  1  0
  8 10  1  0
  8  9  1  6
 10 11  2  0
 13 12  1  0
 14 13  1  6
 15 14  1  0
 15 10  1  0
 16 17  2  0
 16 14  1  0
 18 16  1  0
 19 20  1  1
 19 18  1  0
 20 21  1  0
 21 25  1  0
 21 22  2  0
 23 19  1  0
 24 23  1  0
 26 23  2  0
M  END
$$$$
