RSD.pdb
     RDKit          3D

 26 25  0  0  1  0  0  0  0  0999 V2000
   25.3249  -20.6946   -8.2556 N   0  0  0  0  0  0  0  0  0  0  0  0
   24.5712  -20.9080   -9.4510 C   0  0  0  0  0  0  0  0  0  0  0  0
   23.2920  -20.9851   -9.3585 N   0  0  0  0  0  0  0  0  0  0  0  0
   25.1770  -21.0344  -10.7223 N   0  0  0  0  0  0  0  0  0  0  0  0
   26.3066  -21.9018  -10.8880 C   0  0  0  0  0  0  0  0  0  0  0  0
   27.4407  -21.0645  -11.4854 C   0  0  0  0  0  0  0  0  0  0  0  0
   26.8895  -20.0660  -12.4794 C   0  0  0  0  0  0  0  0  0  0  0  0
   27.3784  -20.4738  -13.8716 C   0  0  2  0  0  0  0  0  0  0  0  0
   28.8210  -20.3290  -13.8258 N   0  0  0  0  0  0  0  0  0  0  0  0
   26.7726  -19.6133  -14.9119 C   0  0  0  0  0  0  0  0  0  0  0  0
   27.3517  -18.5637  -15.2620 O   0  0  0  0  0  0  0  0  0  0  0  0
   22.6563  -21.2072  -10.1533 O   0  0  0  0  0  0  0  0  0  0  0  0
   26.0992  -20.1776  -18.3021 C   0  0  0  0  0  0  0  0  0  0  0  0
   25.7861  -18.9773  -17.6833 C   0  0  1  0  0  0  0  0  0  0  0  0
   24.8507  -19.1905  -16.4835 N   0  0  0  0  0  0  0  0  0  0  0  0
   25.5516  -19.9670  -15.5102 C   0  0  0  0  0  0  0  0  0  0  0  0
   23.6356  -19.8093  -16.9981 O   0  0  0  0  0  0  0  0  0  0  0  0
   23.4465  -21.0395  -16.8678 N   0  0  0  0  0  0  0  0  0  0  0  0
   22.6452  -19.0386  -17.6552 C   0  0  1  0  0  0  0  0  0  0  0  0
   21.2667  -18.9655  -17.2105 C   0  0  0  0  0  0  0  0  0  0  0  0
   21.1283  -18.3874  -15.8258 C   0  0  0  0  0  0  0  0  0  0  0  0
   19.7265  -18.3676  -15.3919 O   0  0  0  0  0  0  0  0  0  0  0  0
   18.9912  -17.3332  -15.3927 C   0  0  0  0  0  0  0  0  0  0  0  0
   20.4850  -18.1348  -18.1739 O   0  0  0  0  0  0  0  0  0  0  0  0
   19.1835  -18.4774  -18.4813 O   0  0  0  0  0  0  0  0  0  0  0  0
   19.1638  -19.5693  -14.9480 O   0  0  0  0  0  0  0  0  0  0  0  0
  1  2  1  0
  2  3  2  0
  4  5  1  0
  4  2  1  0
  6  5  1  0
  7  6  1  0
  7  8  1  0
  8 10  1  0
  8  9  1  1
 10 11  2  0
 13 12  1  0
 14 13  1  1
 15 14  1  0
 15 10  1  0
 16 17  2  0
 16 14  1  0
 18 16  1  0
 19 20  1  6
 19 18  1  0
 20 21  1  0
 21 25  1  0
 21 22  2  0
 23 19  1  0
 24 23  1  0
 26 23  2  0
M  END
$$$$
