RSD.pdb
     RDKit          3D

 26 25  0  0  1  0  0  0  0  0999 V2000
   29.4177  -27.0852  -19.3303 N   0  0  0  0  0  0  0  0  0  0  0  0
   28.4051  -28.0363  -18.9947 C   0  0  0  0  0  0  0  0  0  0  0  0
   28.7673  -29.2344  -18.7049 N   0  0  0  0  0  0  0  0  0  0  0  0
   27.0298  -27.7088  -18.9685 N   0  0  0  0  0  0  0  0  0  0  0  0
   26.6271  -26.3328  -18.9596 C   0  0  0  0  0  0  0  0  0  0  0  0
   27.3625  -25.6498  -17.8033 C   0  0  0  0  0  0  0  0  0  0  0  0
   26.8855  -24.2226  -17.6470 C   0  0  0  0  0  0  0  0  0  0  0  0
   27.6810  -23.5863  -16.5042 C   0  0  2  0  0  0  0  0  0  0  0  0
   28.0482  -24.6890  -15.6362 N   0  0  0  0  0  0  0  0  0  0  0  0
   26.8627  -22.5777  -15.7951 C   0  0  0  0  0  0  0  0  0  0  0  0
   26.1422  -22.9273  -14.8369 O   0  0  0  0  0  0  0  0  0  0  0  0
   28.1092  -30.0139  -18.4940 O   0  0  0  0  0  0  0  0  0  0  0  0
   27.6311  -18.4853  -16.1093 C   0  0  0  0  0  0  0  0  0  0  0  0
   26.3548  -18.9053  -16.4507 C   0  0  2  0  0  0  0  0  0  0  0  0
   25.9863  -20.2173  -15.7418 N   0  0  0  0  0  0  0  0  0  0  0  0
   26.8897  -21.2297  -16.1898 C   0  0  0  0  0  0  0  0  0  0  0  0
   24.5829  -20.4782  -16.0356 O   0  0  0  0  0  0  0  0  0  0  0  0
   24.2614  -21.3687  -16.8540 N   0  0  0  0  0  0  0  0  0  0  0  0
   23.5544  -19.7342  -15.4068 C   0  0  1  0  0  0  0  0  0  0  0  0
   22.1904  -20.2102  -15.2784 C   0  0  0  0  0  0  0  0  0  0  0  0
   22.0930  -21.5101  -14.5224 C   0  0  0  0  0  0  0  0  0  0  0  0
   20.7001  -21.9567  -14.4034 O   0  0  0  0  0  0  0  0  0  0  0  0
   19.7033  -21.3256  -14.8714 C   0  0  0  0  0  0  0  0  0  0  0  0
   21.3728  -19.1716  -14.5842 O   0  0  0  0  0  0  0  0  0  0  0  0
   21.9529  -17.9778  -14.2048 O   0  0  0  0  0  0  0  0  0  0  0  0
   20.4552  -23.1580  -13.7290 O   0  0  0  0  0  0  0  0  0  0  0  0
  1  2  1  0
  2  3  2  0
  4  5  1  0
  4  2  1  0
  6  5  1  0
  7  6  1  0
  7  8  1  0
  8 10  1  0
  8  9  1  1
 10 11  2  0
 13 12  1  0
 14 13  1  1
 15 14  1  0
 15 10  1  0
 16 17  2  0
 16 14  1  0
 18 16  1  0
 19 20  1  6
 19 18  1  0
 20 21  1  0
 21 25  1  0
 21 22  2  0
 23 19  1  0
 24 23  1  0
 26 23  2  0
M  END
$$$$
