VQC.pdb
     RDKit          3D

 23 22  0  0  1  0  0  0  0  0999 V2000
   28.3653  -26.3217  -16.6166 C   0  0  0  0  0  0  0  0  0  0  0  0
   29.7714  -26.7519  -17.0569 C   0  0  2  0  0  0  0  0  0  0  0  0
   30.6799  -25.5888  -16.7193 C   0  0  0  0  0  0  0  0  0  0  0  0
   29.6974  -26.9963  -18.5394 C   0  0  2  0  0  0  0  0  0  0  0  0
   29.3706  -25.7987  -19.2767 N   0  0  0  0  0  0  0  0  0  0  0  0
   28.7715  -28.0766  -18.9148 C   0  0  0  0  0  0  0  0  0  0  0  0
   27.7286  -27.7076  -19.5607 O   0  0  0  0  0  0  0  0  0  0  0  0
   26.4105  -32.3605  -21.6148 N   0  0  0  0  0  0  0  0  0  0  0  0
   27.3596  -31.4634  -22.1784 C   0  0  0  0  0  0  0  0  0  0  0  0
   27.1936  -31.1413  -23.3779 O   0  0  0  0  0  0  0  0  0  0  0  0
   28.5034  -30.9219  -21.3955 C   0  0  0  0  0  0  0  0  0  0  0  0
   28.4104  -31.4088  -19.9906 C   0  0  0  0  0  0  0  0  0  0  0  0
   27.9908  -30.3923  -18.9796 C   0  0  2  0  0  0  0  0  0  0  0  0
   28.9808  -29.4470  -18.6027 N   0  0  0  0  0  0  0  0  0  0  0  0
   27.4354  -31.0845  -17.7754 C   0  0  0  0  0  0  0  0  0  0  0  0
   28.2555  -31.5154  -16.9311 O   0  0  0  0  0  0  0  0  0  0  0  0
   26.0639  -31.2805  -17.5329 N   0  0  0  0  0  0  0  0  0  0  0  0
   25.5198  -31.9081  -16.3548 C   0  0  1  0  0  0  0  0  0  0  0  0
   24.1857  -31.3165  -15.9570 C   0  0  0  0  0  0  0  0  0  0  0  0
   23.6598  -32.0960  -14.4200 S   0  0  0  0  0  0  0  0  0  0  0  0
   25.2806  -33.3374  -16.6771 C   0  0  0  0  0  0  0  0  0  0  0  0
   24.7328  -33.6908  -17.7508 O   0  0  0  0  0  0  0  0  0  0  0  0
   25.6597  -34.3516  -15.7893 O   0  0  0  0  0  0  0  0  0  0  0  0
  2  1  1  6
  2  3  1  0
  4  6  1  0
  4  2  1  0
  4  5  1  6
  6 14  1  0
  6  7  2  0
  9  8  1  0
 10  9  2  0
 11  9  1  0
 12 11  1  0
 13 12  1  6
 14 13  1  0
 15 17  1  0
 15 13  1  0
 16 15  2  0
 18 21  1  0
 18 17  1  0
 18 19  1  6
 20 19  1  0
 21 23  1  0
 22 21  2  0
M  END
$$$$
