VQC.pdb
     RDKit          3D

 23 22  0  0  1  0  0  0  0  0999 V2000
   19.1943  -13.8474  -20.8247 C   0  0  0  0  0  0  0  0  0  0  0  0
   19.2025  -14.8843  -19.6930 C   0  0  2  0  0  0  0  0  0  0  0  0
   18.2206  -15.9573  -20.1137 C   0  0  0  0  0  0  0  0  0  0  0  0
   18.7513  -14.1640  -18.4519 C   0  0  2  0  0  0  0  0  0  0  0  0
   17.3467  -13.8321  -18.4908 N   0  0  0  0  0  0  0  0  0  0  0  0
   19.5367  -12.9566  -18.1508 C   0  0  0  0  0  0  0  0  0  0  0  0
   20.7802  -13.1540  -17.9144 O   0  0  0  0  0  0  0  0  0  0  0  0
   23.2654   -8.6767  -20.4945 N   0  0  0  0  0  0  0  0  0  0  0  0
   21.8485   -8.7884  -20.4362 C   0  0  0  0  0  0  0  0  0  0  0  0
   21.1844   -7.8063  -20.8416 O   0  0  0  0  0  0  0  0  0  0  0  0
   21.1682  -10.0075  -19.9206 C   0  0  0  0  0  0  0  0  0  0  0  0
   20.1044   -9.6056  -18.9584 C   0  0  0  0  0  0  0  0  0  0  0  0
   19.8591  -10.5546  -17.8310 C   0  0  2  0  0  0  0  0  0  0  0  0
   18.9938  -11.6439  -18.1143 N   0  0  0  0  0  0  0  0  0  0  0  0
   19.3794   -9.7959  -16.6343 C   0  0  0  0  0  0  0  0  0  0  0  0
   18.1522   -9.5508  -16.5635 O   0  0  0  0  0  0  0  0  0  0  0  0
   20.2106   -9.3446  -15.5933 N   0  0  0  0  0  0  0  0  0  0  0  0
   19.7604   -8.5855  -14.4535 C   0  0  1  0  0  0  0  0  0  0  0  0
   19.5451   -9.4570  -13.2360 C   0  0  0  0  0  0  0  0  0  0  0  0
   19.1222   -8.3898  -11.8472 S   0  0  0  0  0  0  0  0  0  0  0  0
   20.8304   -7.6162  -14.1082 C   0  0  0  0  0  0  0  0  0  0  0  0
   22.0284   -7.8101  -14.4322 O   0  0  0  0  0  0  0  0  0  0  0  0
   20.5413   -6.4415  -13.4034 O   0  0  0  0  0  0  0  0  0  0  0  0
  2  1  1  6
  2  3  1  0
  4  6  1  0
  4  2  1  0
  4  5  1  6
  6 14  1  0
  6  7  2  0
  9  8  1  0
 10  9  2  0
 11  9  1  0
 12 11  1  0
 13 12  1  6
 14 13  1  0
 15 17  1  0
 15 13  1  0
 16 15  2  0
 18 21  1  0
 18 17  1  0
 18 19  1  1
 20 19  1  0
 21 23  1  0
 22 21  2  0
M  END
$$$$
