VQC.pdb
     RDKit          3D

 23 22  0  0  1  0  0  0  0  0999 V2000
   12.3433   -9.7092  -12.6732 C   0  0  0  0  0  0  0  0  0  0  0  0
   12.1260  -10.8739  -11.6975 C   0  0  2  0  0  0  0  0  0  0  0  0
   11.5078  -10.2605  -10.4590 C   0  0  0  0  0  0  0  0  0  0  0  0
   13.4850  -11.4556  -11.4190 C   0  0  2  0  0  0  0  0  0  0  0  0
   13.4233  -12.5916  -10.5301 N   0  0  0  0  0  0  0  0  0  0  0  0
   14.4529  -10.4750  -10.9022 C   0  0  0  0  0  0  0  0  0  0  0  0
   14.4330  -10.2984   -9.6336 O   0  0  0  0  0  0  0  0  0  0  0  0
   19.8647   -8.2965  -13.3221 N   0  0  0  0  0  0  0  0  0  0  0  0
   19.8075   -7.7307  -12.0183 C   0  0  0  0  0  0  0  0  0  0  0  0
   20.8438   -7.1648  -11.5990 O   0  0  0  0  0  0  0  0  0  0  0  0
   18.5824   -7.7978  -11.1761 C   0  0  0  0  0  0  0  0  0  0  0  0
   17.5502   -8.6128  -11.8758 C   0  0  0  0  0  0  0  0  0  0  0  0
   16.3094   -8.8962  -11.0937 C   0  0  2  0  0  0  0  0  0  0  0  0
   15.3645   -9.7521  -11.7182 N   0  0  0  0  0  0  0  0  0  0  0  0
   15.6681   -7.6067  -10.6890 C   0  0  0  0  0  0  0  0  0  0  0  0
   14.9164   -7.0519  -11.5246 O   0  0  0  0  0  0  0  0  0  0  0  0
   15.8535   -6.9834   -9.4419 N   0  0  0  0  0  0  0  0  0  0  0  0
   15.1966   -5.7699   -9.0247 C   0  0  1  0  0  0  0  0  0  0  0  0
   15.2410   -5.5834   -7.5242 C   0  0  0  0  0  0  0  0  0  0  0  0
   14.3446   -4.0742   -7.1176 S   0  0  0  0  0  0  0  0  0  0  0  0
   15.9350   -4.6303   -9.6246 C   0  0  0  0  0  0  0  0  0  0  0  0
   17.1882   -4.6254   -9.7098 O   0  0  0  0  0  0  0  0  0  0  0  0
   15.2565   -3.5107  -10.1210 O   0  0  0  0  0  0  0  0  0  0  0  0
  2  1  1  6
  2  3  1  0
  4  6  1  0
  4  2  1  0
  4  5  1  1
  6 14  1  0
  6  7  2  0
  9  8  1  0
 10  9  2  0
 11  9  1  0
 12 11  1  0
 13 12  1  6
 14 13  1  0
 15 17  1  0
 15 13  1  0
 16 15  2  0
 18 21  1  0
 18 17  1  0
 18 19  1  1
 20 19  1  0
 21 23  1  0
 22 21  2  0
M  END
$$$$
