VQC.pdb
     RDKit          3D

 23 22  0  0  1  0  0  0  0  0999 V2000
   18.4526  -12.7119  -17.7423 C   0  0  0  0  0  0  0  0  0  0  0  0
   17.5609  -12.9517  -16.5162 C   0  0  2  0  0  0  0  0  0  0  0  0
   16.3024  -13.6051  -17.0466 C   0  0  0  0  0  0  0  0  0  0  0  0
   17.2840  -11.5988  -15.9197 C   0  0  2  0  0  0  0  0  0  0  0  0
   16.4675  -10.7767  -16.7810 N   0  0  0  0  0  0  0  0  0  0  0  0
   18.4989  -10.8613  -15.5381 C   0  0  0  0  0  0  0  0  0  0  0  0
   19.2499  -11.4448  -14.6798 O   0  0  0  0  0  0  0  0  0  0  0  0
   22.8393   -8.2837  -18.8035 N   0  0  0  0  0  0  0  0  0  0  0  0
   22.5965   -9.6397  -18.4493 C   0  0  0  0  0  0  0  0  0  0  0  0
   23.2263  -10.5147  -19.0878 O   0  0  0  0  0  0  0  0  0  0  0  0
   21.6423  -10.0212  -17.3729 C   0  0  0  0  0  0  0  0  0  0  0  0
   21.0846   -8.7872  -16.7519 C   0  0  0  0  0  0  0  0  0  0  0  0
   20.0849   -9.0053  -15.6635 C   0  0  2  0  0  0  0  0  0  0  0  0
   18.8528   -9.5882  -16.0607 N   0  0  0  0  0  0  0  0  0  0  0  0
   19.8508   -7.7199  -14.9347 C   0  0  0  0  0  0  0  0  0  0  0  0
   19.0126   -6.9267  -15.4237 O   0  0  0  0  0  0  0  0  0  0  0  0
   20.5058   -7.3489  -13.7467 N   0  0  0  0  0  0  0  0  0  0  0  0
   20.2735   -6.1197  -13.0304 C   0  0  1  0  0  0  0  0  0  0  0  0
   20.3916   -6.3000  -11.5332 C   0  0  0  0  0  0  0  0  0  0  0  0
   19.0563   -7.3805  -10.9890 S   0  0  0  0  0  0  0  0  0  0  0  0
   21.3291   -5.1576  -13.4350 C   0  0  0  0  0  0  0  0  0  0  0  0
   22.3144   -5.5101  -14.1298 O   0  0  0  0  0  0  0  0  0  0  0  0
   21.2648   -3.8118  -13.0542 O   0  0  0  0  0  0  0  0  0  0  0  0
  2  1  1  6
  2  3  1  0
  4  6  1  0
  4  2  1  0
  4  5  1  6
  6 14  1  0
  6  7  2  0
  9  8  1  0
 10  9  2  0
 11  9  1  0
 12 11  1  0
 13 12  1  6
 14 13  1  0
 15 17  1  0
 15 13  1  0
 16 15  2  0
 18 21  1  0
 18 17  1  0
 18 19  1  1
 20 19  1  0
 21 23  1  0
 22 21  2  0
M  END
$$$$
