VQC.pdb
     RDKit          3D

 23 22  0  0  1  0  0  0  0  0999 V2000
   19.3115  -13.2112  -17.8938 C   0  0  0  0  0  0  0  0  0  0  0  0
   20.4905  -12.6803  -18.7208 C   0  0  2  0  0  0  0  0  0  0  0  0
   21.3579  -13.8852  -19.0178 C   0  0  0  0  0  0  0  0  0  0  0  0
   21.2003  -11.6758  -17.8547 C   0  0  2  0  0  0  0  0  0  0  0  0
   21.8366  -12.2891  -16.7129 N   0  0  0  0  0  0  0  0  0  0  0  0
   20.3400  -10.5693  -17.4066 C   0  0  0  0  0  0  0  0  0  0  0  0
   19.8935   -9.8087  -18.3356 O   0  0  0  0  0  0  0  0  0  0  0  0
   15.3205  -10.3777  -14.2864 N   0  0  0  0  0  0  0  0  0  0  0  0
   15.5564   -8.9909  -14.4974 C   0  0  0  0  0  0  0  0  0  0  0  0
   14.5852   -8.2176  -14.3275 O   0  0  0  0  0  0  0  0  0  0  0  0
   16.8882   -8.4639  -14.9015 C   0  0  0  0  0  0  0  0  0  0  0  0
   17.7982   -9.6056  -15.1974 C   0  0  0  0  0  0  0  0  0  0  0  0
   19.1397   -9.2395  -15.7431 C   0  0  2  0  0  0  0  0  0  0  0  0
   20.0026  -10.3249  -16.0480 N   0  0  0  0  0  0  0  0  0  0  0  0
   19.8103   -8.2753  -14.8166 C   0  0  0  0  0  0  0  0  0  0  0  0
   20.3276   -8.7442  -13.7756 O   0  0  0  0  0  0  0  0  0  0  0  0
   19.8963   -6.8890  -15.0377 N   0  0  0  0  0  0  0  0  0  0  0  0
   20.6345   -5.9695  -14.2085 C   0  0  1  0  0  0  0  0  0  0  0  0
   22.0979   -5.9085  -14.5860 C   0  0  0  0  0  0  0  0  0  0  0  0
   22.9080   -4.7122  -13.5094 S   0  0  0  0  0  0  0  0  0  0  0  0
   20.0731   -4.6134  -14.4316 C   0  0  0  0  0  0  0  0  0  0  0  0
   19.5802   -4.2750  -15.5363 O   0  0  0  0  0  0  0  0  0  0  0  0
   20.0725   -3.6547  -13.4112 O   0  0  0  0  0  0  0  0  0  0  0  0
  2  1  1  1
  2  3  1  0
  4  6  1  0
  4  2  1  0
  4  5  1  1
  6 14  1  0
  6  7  2  0
  9  8  1  0
 10  9  2  0
 11  9  1  0
 12 11  1  0
 13 12  1  1
 14 13  1  0
 15 17  1  0
 15 13  1  0
 16 15  2  0
 18 21  1  0
 18 17  1  0
 18 19  1  6
 20 19  1  0
 21 23  1  0
 22 21  2  0
M  END
$$$$
