VQC.pdb
     RDKit          3D

 23 22  0  0  1  0  0  0  0  0999 V2000
   21.9260  -18.2278  -18.9951 C   0  0  0  0  0  0  0  0  0  0  0  0
   22.7093  -16.9748  -18.5802 C   0  0  2  0  0  0  0  0  0  0  0  0
   23.3322  -16.4412  -19.8528 C   0  0  0  0  0  0  0  0  0  0  0  0
   23.7489  -17.4298  -17.5927 C   0  0  2  0  0  0  0  0  0  0  0  0
   24.7202  -18.3163  -18.1888 N   0  0  0  0  0  0  0  0  0  0  0  0
   23.1843  -18.0542  -16.3858 C   0  0  0  0  0  0  0  0  0  0  0  0
   22.4126  -17.3060  -15.6889 O   0  0  0  0  0  0  0  0  0  0  0  0
   20.2302  -23.0495  -14.8830 N   0  0  0  0  0  0  0  0  0  0  0  0
   20.5449  -22.5278  -13.5976 C   0  0  0  0  0  0  0  0  0  0  0  0
   19.9810  -23.0620  -12.6145 O   0  0  0  0  0  0  0  0  0  0  0  0
   21.4975  -21.4001  -13.4094 C   0  0  0  0  0  0  0  0  0  0  0  0
   21.9795  -20.9377  -14.7410 C   0  0  0  0  0  0  0  0  0  0  0  0
   22.9814  -19.8298  -14.7178 C   0  0  2  0  0  0  0  0  0  0  0  0
   23.4502  -19.3911  -15.9840 N   0  0  0  0  0  0  0  0  0  0  0  0
   24.1261  -20.2094  -13.8328 C   0  0  0  0  0  0  0  0  0  0  0  0
   25.0502  -20.8830  -14.3459 O   0  0  0  0  0  0  0  0  0  0  0  0
   24.2301  -19.8612  -12.4741 N   0  0  0  0  0  0  0  0  0  0  0  0
   25.3102  -20.2571  -11.6053 C   0  0  1  0  0  0  0  0  0  0  0  0
   25.0321  -19.9184  -10.1576 C   0  0  0  0  0  0  0  0  0  0  0  0
   26.5223  -20.2581   -9.2034 S   0  0  0  0  0  0  0  0  0  0  0  0
   25.4350  -21.7340  -11.6880 C   0  0  0  0  0  0  0  0  0  0  0  0
   24.4312  -22.4760  -11.8281 O   0  0  0  0  0  0  0  0  0  0  0  0
   26.6857  -22.3589  -11.6124 O   0  0  0  0  0  0  0  0  0  0  0  0
  2  1  1  6
  2  3  1  0
  4  6  1  0
  4  2  1  0
  4  5  1  6
  6 14  1  0
  6  7  2  0
  9  8  1  0
 10  9  2  0
 11  9  1  0
 12 11  1  0
 13 12  1  6
 14 13  1  0
 15 17  1  0
 15 13  1  0
 16 15  2  0
 18 21  1  0
 18 17  1  0
 18 19  1  1
 20 19  1  0
 21 23  1  0
 22 21  2  0
M  END
$$$$
