VQC.pdb
     RDKit          3D

 23 22  0  0  1  0  0  0  0  0999 V2000
   26.9222  -16.7814  -17.5479 C   0  0  0  0  0  0  0  0  0  0  0  0
   26.5988  -17.3346  -16.1532 C   0  0  2  0  0  0  0  0  0  0  0  0
   27.8710  -17.9989  -15.6711 C   0  0  0  0  0  0  0  0  0  0  0  0
   25.4814  -18.3249  -16.3364 C   0  0  2  0  0  0  0  0  0  0  0  0
   24.3084  -17.7249  -16.9268 N   0  0  0  0  0  0  0  0  0  0  0  0
   25.1075  -19.0294  -15.0997 C   0  0  0  0  0  0  0  0  0  0  0  0
   24.3314  -18.3833  -14.3116 O   0  0  0  0  0  0  0  0  0  0  0  0
   24.2380  -25.0582  -13.7334 N   0  0  0  0  0  0  0  0  0  0  0  0
   23.3276  -24.1704  -14.3709 C   0  0  0  0  0  0  0  0  0  0  0  0
   22.3289  -24.6840  -14.9266 O   0  0  0  0  0  0  0  0  0  0  0  0
   23.5347  -22.6968  -14.3874 C   0  0  0  0  0  0  0  0  0  0  0  0
   24.7559  -22.3643  -13.6016 C   0  0  0  0  0  0  0  0  0  0  0  0
   25.1141  -20.9152  -13.5441 C   0  0  2  0  0  0  0  0  0  0  0  0
   25.5536  -20.3361  -14.7636 N   0  0  0  0  0  0  0  0  0  0  0  0
   26.1203  -20.6915  -12.4600 C   0  0  0  0  0  0  0  0  0  0  0  0
   27.2195  -21.2846  -12.5650 O   0  0  0  0  0  0  0  0  0  0  0  0
   25.9128  -19.8654  -11.3407 N   0  0  0  0  0  0  0  0  0  0  0  0
   26.3276  -20.1834   -9.9973 C   0  0  1  0  0  0  0  0  0  0  0  0
   26.6366  -18.9443   -9.1866 C   0  0  0  0  0  0  0  0  0  0  0  0
   27.1086  -19.4608   -7.5262 S   0  0  0  0  0  0  0  0  0  0  0  0
   25.1933  -20.8674   -9.3269 C   0  0  0  0  0  0  0  0  0  0  0  0
   24.0021  -20.6638   -9.6696 O   0  0  0  0  0  0  0  0  0  0  0  0
   25.4114  -21.7715   -8.2803 O   0  0  0  0  0  0  0  0  0  0  0  0
  2  1  1  6
  2  3  1  0
  4  6  1  0
  4  2  1  0
  4  5  1  1
  6 14  1  0
  6  7  2  0
  9  8  1  0
 10  9  2  0
 11  9  1  0
 12 11  1  0
 13 12  1  6
 14 13  1  0
 15 17  1  0
 15 13  1  0
 16 15  2  0
 18 21  1  0
 18 17  1  0
 18 19  1  1
 20 19  1  0
 21 23  1  0
 22 21  2  0
M  END
$$$$
