VQC.pdb
     RDKit          3D

 23 22  0  0  1  0  0  0  0  0999 V2000
   17.0413   -9.9897  -20.1825 C   0  0  0  0  0  0  0  0  0  0  0  0
   17.9699  -11.2116  -20.2062 C   0  0  2  0  0  0  0  0  0  0  0  0
   17.0585  -12.4196  -20.1571 C   0  0  0  0  0  0  0  0  0  0  0  0
   18.8376  -11.1111  -18.9815 C   0  0  2  0  0  0  0  0  0  0  0  0
   18.1007  -11.3623  -17.7656 N   0  0  0  0  0  0  0  0  0  0  0  0
   19.5558   -9.8317  -18.8694 C   0  0  0  0  0  0  0  0  0  0  0  0
   20.3775   -9.5771  -19.8186 O   0  0  0  0  0  0  0  0  0  0  0  0
   19.9399   -4.0034  -18.4360 N   0  0  0  0  0  0  0  0  0  0  0  0
   18.6732   -4.6374  -18.5656 C   0  0  0  0  0  0  0  0  0  0  0  0
   17.6611   -3.9011  -18.5059 O   0  0  0  0  0  0  0  0  0  0  0  0
   18.5363   -6.1060  -18.7637 C   0  0  0  0  0  0  0  0  0  0  0  0
   19.8916   -6.7219  -18.8187 C   0  0  0  0  0  0  0  0  0  0  0  0
   20.1823   -7.7419  -17.7667 C   0  0  2  0  0  0  0  0  0  0  0  0
   19.3803   -8.9129  -17.7997 N   0  0  0  0  0  0  0  0  0  0  0  0
   20.1237   -7.0990  -16.4172 C   0  0  0  0  0  0  0  0  0  0  0  0
   19.0013   -7.0250  -15.8643 O   0  0  0  0  0  0  0  0  0  0  0  0
   21.2381   -6.5772  -15.7360 N   0  0  0  0  0  0  0  0  0  0  0  0
   21.2090   -6.0561  -14.3922 C   0  0  1  0  0  0  0  0  0  0  0  0
   21.6379   -7.0861  -13.3709 C   0  0  0  0  0  0  0  0  0  0  0  0
   21.6241   -6.3076  -11.7459 S   0  0  0  0  0  0  0  0  0  0  0  0
   22.1879   -4.9423  -14.3210 C   0  0  0  0  0  0  0  0  0  0  0  0
   23.2867   -4.9874  -14.9279 O   0  0  0  0  0  0  0  0  0  0  0  0
   21.9202   -3.7919  -13.5691 O   0  0  0  0  0  0  0  0  0  0  0  0
  2  1  1  1
  2  3  1  0
  4  6  1  0
  4  2  1  0
  4  5  1  1
  6 14  1  0
  6  7  2  0
  9  8  1  0
 10  9  2  0
 11  9  1  0
 12 11  1  0
 13 12  1  6
 14 13  1  0
 15 17  1  0
 15 13  1  0
 16 15  2  0
 18 21  1  0
 18 17  1  0
 18 19  1  1
 20 19  1  0
 21 23  1  0
 22 21  2  0
M  END
$$$$
