VQC.pdb
     RDKit          3D

 23 22  0  0  1  0  0  0  0  0999 V2000
   19.5360  -12.2485  -17.6324 C   0  0  0  0  0  0  0  0  0  0  0  0
   18.7009  -12.9278  -16.5384 C   0  0  2  0  0  0  0  0  0  0  0  0
   17.9932  -14.0800  -17.2195 C   0  0  0  0  0  0  0  0  0  0  0  0
   17.7335  -11.8914  -16.0356 C   0  0  2  0  0  0  0  0  0  0  0  0
   16.7635  -11.5155  -17.0368 N   0  0  0  0  0  0  0  0  0  0  0  0
   18.3848  -10.6853  -15.5003 C   0  0  0  0  0  0  0  0  0  0  0  0
   19.1733  -10.8796  -14.5095 O   0  0  0  0  0  0  0  0  0  0  0  0
   23.0771   -8.4214  -15.5511 N   0  0  0  0  0  0  0  0  0  0  0  0
   22.3995   -7.8999  -16.6879 C   0  0  0  0  0  0  0  0  0  0  0  0
   23.1090   -7.5389  -17.6555 O   0  0  0  0  0  0  0  0  0  0  0  0
   20.9172   -7.7810  -16.7439 C   0  0  0  0  0  0  0  0  0  0  0  0
   20.3354   -8.2966  -15.4731 C   0  0  0  0  0  0  0  0  0  0  0  0
   18.8437   -8.2866  -15.3931 C   0  0  2  0  0  0  0  0  0  0  0  0
   18.1818   -9.3770  -16.0164 N   0  0  0  0  0  0  0  0  0  0  0  0
   18.3238   -6.9845  -15.9149 C   0  0  0  0  0  0  0  0  0  0  0  0
   17.9868   -6.9426  -17.1214 O   0  0  0  0  0  0  0  0  0  0  0  0
   18.1905   -5.8155  -15.1444 N   0  0  0  0  0  0  0  0  0  0  0  0
   17.7121   -4.5515  -15.6460 C   0  0  1  0  0  0  0  0  0  0  0  0
   16.5810   -3.9962  -14.8092 C   0  0  0  0  0  0  0  0  0  0  0  0
   16.1735   -2.3550  -15.4312 S   0  0  0  0  0  0  0  0  0  0  0  0
   18.8319   -3.5808  -15.5590 C   0  0  0  0  0  0  0  0  0  0  0  0
   19.6166   -3.5621  -14.5783 O   0  0  0  0  0  0  0  0  0  0  0  0
   19.0562   -2.6433  -16.5745 O   0  0  0  0  0  0  0  0  0  0  0  0
  2  1  1  6
  2  3  1  0
  4  6  1  0
  4  2  1  0
  4  5  1  6
  6 14  1  0
  6  7  2  0
  9  8  1  0
 10  9  2  0
 11  9  1  0
 12 11  1  0
 13 12  1  6
 14 13  1  0
 15 17  1  0
 15 13  1  0
 16 15  2  0
 18 21  1  0
 18 17  1  0
 18 19  1  1
 20 19  1  0
 21 23  1  0
 22 21  2  0
M  END
$$$$
