VQC.pdb
     RDKit          3D

 23 22  0  0  1  0  0  0  0  0999 V2000
   17.9094  -10.8232  -17.2488 C   0  0  0  0  0  0  0  0  0  0  0  0
   18.2657  -11.6707  -16.0198 C   0  0  2  0  0  0  0  0  0  0  0  0
   18.1711  -13.1117  -16.4747 C   0  0  0  0  0  0  0  0  0  0  0  0
   17.2425  -11.3449  -14.9664 C   0  0  2  0  0  0  0  0  0  0  0  0
   15.9084  -11.7321  -15.3597 N   0  0  0  0  0  0  0  0  0  0  0  0
   17.2467   -9.9319  -14.5555 C   0  0  0  0  0  0  0  0  0  0  0  0
   16.1314   -9.3164  -14.6906 O   0  0  0  0  0  0  0  0  0  0  0  0
   16.9324   -6.2280  -10.2354 N   0  0  0  0  0  0  0  0  0  0  0  0
   17.1780   -7.6280  -10.1820 C   0  0  0  0  0  0  0  0  0  0  0  0
   17.2377   -8.1509   -9.0450 O   0  0  0  0  0  0  0  0  0  0  0  0
   17.3584   -8.4504  -11.4092 C   0  0  0  0  0  0  0  0  0  0  0  0
   17.3000   -7.5651  -12.6059 C   0  0  0  0  0  0  0  0  0  0  0  0
   18.2702   -7.8851  -13.6958 C   0  0  2  0  0  0  0  0  0  0  0  0
   18.3863   -9.2576  -14.0396 N   0  0  0  0  0  0  0  0  0  0  0  0
   19.6091   -7.3097  -13.3581 C   0  0  0  0  0  0  0  0  0  0  0  0
   20.1862   -7.7570  -12.3393 O   0  0  0  0  0  0  0  0  0  0  0  0
   20.2553   -6.3080  -14.1046 N   0  0  0  0  0  0  0  0  0  0  0  0
   21.6059   -5.8577  -13.8783 C   0  0  1  0  0  0  0  0  0  0  0  0
   22.4831   -6.0490  -15.0957 C   0  0  0  0  0  0  0  0  0  0  0  0
   22.5097   -7.8045  -15.5005 S   0  0  0  0  0  0  0  0  0  0  0  0
   21.5536   -4.3991  -13.6074 C   0  0  0  0  0  0  0  0  0  0  0  0
   20.5281   -3.7168  -13.8537 O   0  0  0  0  0  0  0  0  0  0  0  0
   22.6537   -3.7253  -13.0632 O   0  0  0  0  0  0  0  0  0  0  0  0
  2  1  1  6
  2  3  1  0
  4  6  1  0
  4  2  1  0
  4  5  1  6
  6 14  1  0
  6  7  2  0
  9  8  1  0
 10  9  2  0
 11  9  1  0
 12 11  1  0
 13 12  1  1
 14 13  1  0
 15 17  1  0
 15 13  1  0
 16 15  2  0
 18 21  1  0
 18 17  1  0
 18 19  1  6
 20 19  1  0
 21 23  1  0
 22 21  2  0
M  END
$$$$
