RCI.pdb
     RDKit          3D

 26 25  0  0  1  0  0  0  0  0999 V2000
    8.1887  -12.6191   18.4003 N   0  0  0  0  0  0  0  0  0  0  0  0
    8.1723  -13.2809   19.6531 C   0  0  0  0  0  0  0  0  0  0  0  0
    8.3218  -12.6361   20.7716 N   0  0  0  0  0  0  0  0  0  0  0  0
    7.9891  -14.6928   19.7278 N   0  0  0  0  0  0  0  0  0  0  0  0
    7.6575  -15.4507   18.5366 C   0  0  0  0  0  0  0  0  0  0  0  0
    7.4836  -16.9094   18.9297 C   0  0  0  0  0  0  0  0  0  0  0  0
    6.2750  -17.1060   19.8129 C   0  0  0  0  0  0  0  0  0  0  0  0
    6.5871  -18.2804   20.7224 C   0  0  2  0  0  0  0  0  0  0  0  0
    5.8394  -19.4493   20.2445 N   0  0  0  0  0  0  0  0  0  0  0  0
    6.1908  -18.0036   22.1176 C   0  0  0  0  0  0  0  0  0  0  0  0
    4.9751  -17.9835   22.4812 O   0  0  0  0  0  0  0  0  0  0  0  0
    8.3400  -13.1512   21.6778 N   0  0  0  0  0  0  0  0  0  0  0  0
    7.1597  -17.7510   23.0973 C   0  0  2  0  0  0  0  0  0  0  0  0
    6.8084  -17.3753   24.4872 C   0  0  0  0  0  0  0  0  0  0  0  0
    6.7930  -18.6367   25.3318 S   0  0  0  0  0  0  0  0  0  0  0  0
    8.3667  -19.4886   25.4034 C   0  0  0  0  0  0  0  0  0  0  0  0
    7.8523  -16.4665   25.0163 O   0  0  0  0  0  0  0  0  0  0  0  0
    9.0300  -16.4789   24.5222 C   0  0  0  0  0  0  0  0  0  0  0  0
    6.3313  -11.6025   26.0598 C   0  0  0  0  0  0  0  0  0  0  0  0
    7.1156  -12.8226   25.6918 C   0  0  2  0  0  0  0  0  0  0  0  0
    7.9731  -13.3250   26.8302 C   0  0  0  0  0  0  0  0  0  0  0  0
    8.8758  -12.2794   27.3916 C   0  0  2  0  0  0  0  0  0  0  0  0
    8.6840  -14.6148   26.4957 N   0  0  0  0  0  0  0  0  0  0  0  0
    7.6257  -15.5499   26.0697 C   0  0  0  0  0  0  0  0  0  0  0  0
    9.4268  -15.1839   27.6511 O   0  0  0  0  0  0  0  0  0  0  0  0
    8.9292  -16.0482   28.4250 O   0  0  0  0  0  0  0  0  0  0  0  0
  2  3  2  0
  2  1  1  0
  4  2  1  0
  5  4  1  0
  6  5  1  0
  7  6  1  0
  8 10  1  0
  8  7  1  0
  8  9  1  6
 10 11  2  0
 12 13  1  0
 12 10  1  0
 13 16  1  0
 13 14  1  6
 15 14  1  0
 16 23  1  0
 16 17  2  0
 18 19  1  0
 19 20  1  0
 20 21  1  1
 22 20  1  0
 22 24  1  0
 22 23  1  6
 24 25  2  0
 24 26  1  0
M  END
$$$$
