RCI.pdb
     RDKit          3D

 26 25  0  0  1  0  0  0  0  0999 V2000
    8.4093  -13.1867   15.5297 N   0  0  0  0  0  0  0  0  0  0  0  0
    8.6429  -14.4392   16.1496 C   0  0  0  0  0  0  0  0  0  0  0  0
    9.5379  -15.2693   15.7033 N   0  0  0  0  0  0  0  0  0  0  0  0
    7.8945  -14.8341   17.2971 N   0  0  0  0  0  0  0  0  0  0  0  0
    7.0215  -13.8859   17.9619 C   0  0  0  0  0  0  0  0  0  0  0  0
    7.6001  -13.5835   19.3354 C   0  0  0  0  0  0  0  0  0  0  0  0
    6.7184  -14.1166   20.4388 C   0  0  0  0  0  0  0  0  0  0  0  0
    7.2265  -15.5085   20.7677 C   0  0  2  0  0  0  0  0  0  0  0  0
    6.5260  -16.4729   19.9114 N   0  0  0  0  0  0  0  0  0  0  0  0
    6.9714  -15.8574   22.1796 C   0  0  0  0  0  0  0  0  0  0  0  0
    5.9010  -15.5225   22.7735 O   0  0  0  0  0  0  0  0  0  0  0  0
    9.6899  -16.1850   16.1780 N   0  0  0  0  0  0  0  0  0  0  0  0
    7.9178  -16.5797   22.9178 C   0  0  2  0  0  0  0  0  0  0  0  0
    7.6581  -17.0559   24.2969 C   0  0  0  0  0  0  0  0  0  0  0  0
    7.7063  -18.5733   24.2935 S   0  0  0  0  0  0  0  0  0  0  0  0
    7.7078  -19.3089   25.9264 C   0  0  0  0  0  0  0  0  0  0  0  0
    8.7299  -16.5524   25.1876 O   0  0  0  0  0  0  0  0  0  0  0  0
    9.9478  -16.5650   24.8033 C   0  0  0  0  0  0  0  0  0  0  0  0
    7.5359  -12.4790   28.2838 C   0  0  0  0  0  0  0  0  0  0  0  0
    8.2362  -13.4700   27.4083 C   0  0  2  0  0  0  0  0  0  0  0  0
    9.0271  -14.4852   28.2003 C   0  0  0  0  0  0  0  0  0  0  0  0
   10.0282  -13.8659   29.1155 C   0  0  2  0  0  0  0  0  0  0  0  0
    9.6038  -15.5776   27.3312 N   0  0  0  0  0  0  0  0  0  0  0  0
    8.4881  -16.0372   26.4827 C   0  0  0  0  0  0  0  0  0  0  0  0
   10.1452  -16.7180   28.1165 O   0  0  0  0  0  0  0  0  0  0  0  0
    9.4416  -17.7098   28.4556 O   0  0  0  0  0  0  0  0  0  0  0  0
  2  3  2  0
  2  1  1  0
  4  2  1  0
  5  4  1  0
  6  5  1  0
  7  6  1  0
  8 10  1  0
  8  7  1  0
  8  9  1  6
 10 11  2  0
 12 13  1  0
 12 10  1  0
 13 16  1  0
 13 14  1  6
 15 14  1  0
 16 23  1  0
 16 17  2  0
 18 19  1  0
 19 20  1  0
 20 21  1  1
 22 20  1  0
 22 24  1  0
 22 23  1  6
 24 25  2  0
 24 26  1  0
M  END
$$$$
