RCI.pdb
     RDKit          3D

 26 25  0  0  1  0  0  0  0  0999 V2000
    8.5409  -12.1468   16.5921 N   0  0  0  0  0  0  0  0  0  0  0  0
    8.0943  -13.4292   16.1874 C   0  0  0  0  0  0  0  0  0  0  0  0
    8.2467  -13.8558   14.9691 N   0  0  0  0  0  0  0  0  0  0  0  0
    7.4555  -14.3034   17.1149 N   0  0  0  0  0  0  0  0  0  0  0  0
    7.3098  -13.9146   18.5044 C   0  0  0  0  0  0  0  0  0  0  0  0
    7.9861  -14.9664   19.3698 C   0  0  0  0  0  0  0  0  0  0  0  0
    7.7146  -16.3618   18.8615 C   0  0  0  0  0  0  0  0  0  0  0  0
    8.4475  -17.3132   19.7897 C   0  0  2  0  0  0  0  0  0  0  0  0
    8.2276  -18.6850   19.3166 N   0  0  0  0  0  0  0  0  0  0  0  0
    7.9504  -17.2058   21.1759 C   0  0  0  0  0  0  0  0  0  0  0  0
    6.7120  -17.2356   21.4518 O   0  0  0  0  0  0  0  0  0  0  0  0
    8.0341  -14.8475   14.7282 N   0  0  0  0  0  0  0  0  0  0  0  0
    8.8446  -17.0656   22.2452 C   0  0  2  0  0  0  0  0  0  0  0  0
    8.4006  -17.0546   23.6590 C   0  0  0  0  0  0  0  0  0  0  0  0
    9.2029  -18.0962   24.4181 S   0  0  0  0  0  0  0  0  0  0  0  0
   10.9734  -17.8292   24.3762 C   0  0  0  0  0  0  0  0  0  0  0  0
    8.6875  -15.7225   24.2410 O   0  0  0  0  0  0  0  0  0  0  0  0
    9.6309  -15.0018   23.7702 C   0  0  0  0  0  0  0  0  0  0  0  0
    6.0614  -10.8640   26.5618 C   0  0  0  0  0  0  0  0  0  0  0  0
    7.2791  -11.7283   26.6594 C   0  0  2  0  0  0  0  0  0  0  0  0
    7.0604  -13.1047   26.0753 C   0  0  0  0  0  0  0  0  0  0  0  0
    5.9934  -13.8769   26.7743 C   0  0  2  0  0  0  0  0  0  0  0  0
    8.3484  -13.8759   25.9097 N   0  0  0  0  0  0  0  0  0  0  0  0
    7.9598  -15.1719   25.3220 C   0  0  0  0  0  0  0  0  0  0  0  0
    9.0612  -14.0970   27.1956 O   0  0  0  0  0  0  0  0  0  0  0  0
    9.7225  -13.1913   27.7752 O   0  0  0  0  0  0  0  0  0  0  0  0
  2  3  2  0
  2  1  1  0
  4  2  1  0
  5  4  1  0
  6  5  1  0
  7  6  1  0
  8 10  1  0
  8  7  1  0
  8  9  1  6
 10 11  2  0
 12 13  1  0
 12 10  1  0
 13 16  1  0
 13 14  1  6
 15 14  1  0
 16 23  1  0
 16 17  2  0
 18 19  1  0
 19 20  1  0
 20 21  1  6
 22 20  1  0
 22 24  1  0
 22 23  1  1
 24 25  2  0
 24 26  1  0
M  END
$$$$
