RCI.pdb
     RDKit          3D

 26 25  0  0  1  0  0  0  0  0999 V2000
   11.2262  -21.4596   18.1456 N   0  0  0  0  0  0  0  0  0  0  0  0
   12.4448  -21.2665   18.8422 C   0  0  0  0  0  0  0  0  0  0  0  0
   13.5899  -21.6045   18.3284 N   0  0  0  0  0  0  0  0  0  0  0  0
   12.4543  -20.6882   20.1454 N   0  0  0  0  0  0  0  0  0  0  0  0
   11.2069  -20.3594   20.8080 C   0  0  0  0  0  0  0  0  0  0  0  0
   10.7727  -18.9750   20.3526 C   0  0  0  0  0  0  0  0  0  0  0  0
    9.5368  -18.5117   21.0855 C   0  0  0  0  0  0  0  0  0  0  0  0
    9.1802  -17.1494   20.5192 C   0  0  2  0  0  0  0  0  0  0  0  0
   10.1249  -16.8325   19.4418 N   0  0  0  0  0  0  0  0  0  0  0  0
    9.2680  -16.0958   21.5500 C   0  0  0  0  0  0  0  0  0  0  0  0
   10.3265  -15.4204   21.7345 O   0  0  0  0  0  0  0  0  0  0  0  0
   14.4734  -21.4380   18.8561 N   0  0  0  0  0  0  0  0  0  0  0  0
    8.1687  -15.8055   22.3683 C   0  0  2  0  0  0  0  0  0  0  0  0
    8.2445  -14.8431   23.4928 C   0  0  0  0  0  0  0  0  0  0  0  0
    6.8310  -14.4294   23.8613 S   0  0  0  0  0  0  0  0  0  0  0  0
    6.7245  -13.4283   25.3425 C   0  0  0  0  0  0  0  0  0  0  0  0
    8.8577  -15.5181   24.6607 O   0  0  0  0  0  0  0  0  0  0  0  0
    8.9269  -16.7925   24.7069 C   0  0  0  0  0  0  0  0  0  0  0  0
   11.6155  -14.0420   30.0378 C   0  0  0  0  0  0  0  0  0  0  0  0
   11.3653  -15.0481   28.9588 C   0  0  2  0  0  0  0  0  0  0  0  0
   10.5476  -14.4845   27.8198 C   0  0  0  0  0  0  0  0  0  0  0  0
    9.3746  -13.6859   28.2776 C   0  0  2  0  0  0  0  0  0  0  0  0
   10.1963  -15.5280   26.7860 N   0  0  0  0  0  0  0  0  0  0  0  0
    9.3939  -14.8220   25.7693 C   0  0  0  0  0  0  0  0  0  0  0  0
    9.4161  -16.6617   27.3484 O   0  0  0  0  0  0  0  0  0  0  0  0
    9.9476  -17.5946   28.0124 O   0  0  0  0  0  0  0  0  0  0  0  0
  2  3  2  0
  2  1  1  0
  4  2  1  0
  5  4  1  0
  6  5  1  0
  7  6  1  0
  8 10  1  0
  8  7  1  0
  8  9  1  6
 10 11  2  0
 12 13  1  0
 12 10  1  0
 13 16  1  0
 13 14  1  1
 15 14  1  0
 16 23  1  0
 16 17  2  0
 18 19  1  0
 19 20  1  0
 20 21  1  6
 22 20  1  0
 22 24  1  0
 22 23  1  1
 24 25  2  0
 24 26  1  0
M  END
$$$$
