RCI.pdb
     RDKit          3D

 26 25  0  0  1  0  0  0  0  0999 V2000
    9.4737  -11.7696   17.8154 N   0  0  0  0  0  0  0  0  0  0  0  0
    9.9614  -12.8979   18.5203 C   0  0  0  0  0  0  0  0  0  0  0  0
   11.2288  -13.1819   18.5679 N   0  0  0  0  0  0  0  0  0  0  0  0
    9.0664  -13.7687   19.2083 N   0  0  0  0  0  0  0  0  0  0  0  0
    7.6455  -13.4802   19.2392 C   0  0  0  0  0  0  0  0  0  0  0  0
    6.9540  -14.5643   20.0511 C   0  0  0  0  0  0  0  0  0  0  0  0
    6.8138  -15.8441   19.2626 C   0  0  0  0  0  0  0  0  0  0  0  0
    7.5586  -16.9162   20.0371 C   0  0  2  0  0  0  0  0  0  0  0  0
    7.4853  -18.1714   19.2802 N   0  0  0  0  0  0  0  0  0  0  0  0
    6.9620  -17.1326   21.3703 C   0  0  0  0  0  0  0  0  0  0  0  0
    5.8923  -17.7966   21.5300 O   0  0  0  0  0  0  0  0  0  0  0  0
   11.5578  -14.0407   19.0590 N   0  0  0  0  0  0  0  0  0  0  0  0
    7.5679  -16.6033   22.5171 C   0  0  2  0  0  0  0  0  0  0  0  0
    7.0673  -16.8823   23.8838 C   0  0  0  0  0  0  0  0  0  0  0  0
    7.1646  -18.3772   24.1305 S   0  0  0  0  0  0  0  0  0  0  0  0
    6.8788  -18.8580   25.8318 C   0  0  0  0  0  0  0  0  0  0  0  0
    7.9341  -16.1857   24.8631 O   0  0  0  0  0  0  0  0  0  0  0  0
    9.2032  -16.3191   24.8116 C   0  0  0  0  0  0  0  0  0  0  0  0
    5.6270  -11.9323   27.2344 C   0  0  0  0  0  0  0  0  0  0  0  0
    6.5604  -12.8608   26.5231 C   0  0  2  0  0  0  0  0  0  0  0  0
    7.4989  -13.5745   27.4683 C   0  0  0  0  0  0  0  0  0  0  0  0
    8.2800  -12.6451   28.3339 C   0  0  2  0  0  0  0  0  0  0  0  0
    8.3541  -14.6044   26.7689 N   0  0  0  0  0  0  0  0  0  0  0  0
    7.4342  -15.3497   25.8890 C   0  0  0  0  0  0  0  0  0  0  0  0
    9.0219  -15.5402   27.7116 O   0  0  0  0  0  0  0  0  0  0  0  0
    8.4769  -16.6028   28.1209 O   0  0  0  0  0  0  0  0  0  0  0  0
  2  3  2  0
  2  1  1  0
  4  2  1  0
  5  4  1  0
  6  5  1  0
  7  6  1  0
  8 10  1  0
  8  7  1  0
  8  9  1  6
 10 11  2  0
 12 13  1  0
 12 10  1  0
 13 16  1  0
 13 14  1  6
 15 14  1  0
 16 23  1  0
 16 17  2  0
 18 19  1  0
 19 20  1  0
 20 21  1  1
 22 20  1  0
 22 24  1  0
 22 23  1  6
 24 25  2  0
 24 26  1  0
M  END
$$$$
