RCI.pdb
     RDKit          3D

 26 25  0  0  1  0  0  0  0  0999 V2000
    9.2471  -14.5687   13.7535 N   0  0  0  0  0  0  0  0  0  0  0  0
    8.3081  -13.9916   14.6440 C   0  0  0  0  0  0  0  0  0  0  0  0
    7.5852  -12.9649   14.3080 N   0  0  0  0  0  0  0  0  0  0  0  0
    8.1238  -14.5251   15.9532 N   0  0  0  0  0  0  0  0  0  0  0  0
    8.7511  -15.7781   16.3267 C   0  0  0  0  0  0  0  0  0  0  0  0
    8.1273  -16.2570   17.6283 C   0  0  0  0  0  0  0  0  0  0  0  0
    8.3238  -15.2546   18.7400 C   0  0  0  0  0  0  0  0  0  0  0  0
    8.9122  -16.0163   19.9136 C   0  0  2  0  0  0  0  0  0  0  0  0
    8.6458  -17.4464   19.7197 N   0  0  0  0  0  0  0  0  0  0  0  0
    8.3067  -15.5916   21.1916 C   0  0  0  0  0  0  0  0  0  0  0  0
    7.1882  -14.9942   21.2415 O   0  0  0  0  0  0  0  0  0  0  0  0
    6.9039  -12.5572   14.9836 N   0  0  0  0  0  0  0  0  0  0  0  0
    8.9587  -15.8391   22.4066 C   0  0  1  0  0  0  0  0  0  0  0  0
    8.3520  -15.5099   23.7180 C   0  0  0  0  0  0  0  0  0  0  0  0
    7.0757  -16.3181   23.8684 S   0  0  0  0  0  0  0  0  0  0  0  0
    6.5760  -16.5872   25.5670 C   0  0  0  0  0  0  0  0  0  0  0  0
    9.2908  -15.9070   24.7935 O   0  0  0  0  0  0  0  0  0  0  0  0
    9.5897  -17.1363   24.9682 C   0  0  0  0  0  0  0  0  0  0  0  0
   10.5760  -13.7686   30.3471 C   0  0  0  0  0  0  0  0  0  0  0  0
   10.9595  -14.7316   29.2678 C   0  0  2  0  0  0  0  0  0  0  0  0
   10.2581  -14.4452   27.9603 C   0  0  0  0  0  0  0  0  0  0  0  0
    8.7915  -14.2259   28.1159 C   0  0  2  0  0  0  0  0  0  0  0  0
   10.6041  -15.4476   26.8847 N   0  0  0  0  0  0  0  0  0  0  0  0
    9.9036  -14.9833   25.6724 C   0  0  0  0  0  0  0  0  0  0  0  0
   10.1722  -16.8301   27.2202 O   0  0  0  0  0  0  0  0  0  0  0  0
    8.9796  -17.2238   27.0924 O   0  0  0  0  0  0  0  0  0  0  0  0
  2  3  2  0
  2  1  1  0
  4  2  1  0
  5  4  1  0
  6  5  1  0
  7  6  1  0
  8 10  1  0
  8  7  1  0
  8  9  1  6
 10 11  2  0
 12 13  1  0
 12 10  1  0
 13 16  1  0
 13 14  1  1
 15 14  1  0
 16 23  1  0
 16 17  2  0
 18 19  1  0
 19 20  1  0
 20 21  1  6
 22 20  1  0
 22 24  1  0
 22 23  1  1
 24 25  2  0
 24 26  1  0
M  END
$$$$
