RCI.pdb
     RDKit          3D

 26 25  0  0  1  0  0  0  0  0999 V2000
    8.8751  -12.9222   17.8262 N   0  0  0  0  0  0  0  0  0  0  0  0
    8.6412  -12.6311   19.1930 C   0  0  0  0  0  0  0  0  0  0  0  0
    8.7939  -11.4339   19.6754 N   0  0  0  0  0  0  0  0  0  0  0  0
    8.2257  -13.6548   20.0942 N   0  0  0  0  0  0  0  0  0  0  0  0
    7.7450  -14.9251   19.5858 C   0  0  0  0  0  0  0  0  0  0  0  0
    6.4544  -15.2738   20.3106 C   0  0  0  0  0  0  0  0  0  0  0  0
    5.9044  -16.6042   19.8557 C   0  0  0  0  0  0  0  0  0  0  0  0
    6.7650  -17.6747   20.5017 C   0  0  2  0  0  0  0  0  0  0  0  0
    6.2818  -18.9881   20.0599 N   0  0  0  0  0  0  0  0  0  0  0  0
    6.6881  -17.6137   21.9750 C   0  0  0  0  0  0  0  0  0  0  0  0
    5.5804  -17.6451   22.5937 O   0  0  0  0  0  0  0  0  0  0  0  0
    8.6521  -11.2541   20.6925 N   0  0  0  0  0  0  0  0  0  0  0  0
    7.8534  -17.5178   22.7465 C   0  0  2  0  0  0  0  0  0  0  0  0
    7.8269  -17.4691   24.2274 C   0  0  0  0  0  0  0  0  0  0  0  0
    8.5851  -18.6731   24.7569 S   0  0  0  0  0  0  0  0  0  0  0  0
    9.0026  -18.5682   26.4953 C   0  0  0  0  0  0  0  0  0  0  0  0
    8.5200  -16.2397   24.6790 O   0  0  0  0  0  0  0  0  0  0  0  0
    9.6675  -15.9355   24.2078 C   0  0  0  0  0  0  0  0  0  0  0  0
    6.0814  -11.7106   27.1043 C   0  0  0  0  0  0  0  0  0  0  0  0
    6.6858  -13.0612   26.8813 C   0  0  2  0  0  0  0  0  0  0  0  0
    7.9374  -13.0031   26.0365 C   0  0  0  0  0  0  0  0  0  0  0  0
    7.6725  -12.6241   24.6190 C   0  0  1  0  0  0  0  0  0  0  0  0
    8.7902  -14.2418   26.1770 N   0  0  0  0  0  0  0  0  0  0  0  0
    7.9773  -15.3448   25.6306 C   0  0  0  0  0  0  0  0  0  0  0  0
    9.1583  -14.5353   27.5873 O   0  0  0  0  0  0  0  0  0  0  0  0
    8.6959  -15.5229   28.2231 O   0  0  0  0  0  0  0  0  0  0  0  0
  2  3  2  0
  2  1  1  0
  4  2  1  0
  5  4  1  0
  6  5  1  0
  7  6  1  0
  8 10  1  0
  8  7  1  0
  8  9  1  6
 10 11  2  0
 12 13  1  0
 12 10  1  0
 13 16  1  0
 13 14  1  6
 15 14  1  0
 16 23  1  0
 16 17  2  0
 18 19  1  0
 19 20  1  0
 20 21  1  1
 22 20  1  0
 22 24  1  0
 22 23  1  6
 24 25  2  0
 24 26  1  0
M  END
$$$$
