RCI.pdb
     RDKit          3D

 26 25  0  0  1  0  0  0  0  0999 V2000
   10.2308  -18.9291   19.6336 N   0  0  0  0  0  0  0  0  0  0  0  0
    8.9059  -19.1595   19.1871 C   0  0  0  0  0  0  0  0  0  0  0  0
    8.4648  -20.3560   18.9361 N   0  0  0  0  0  0  0  0  0  0  0  0
    8.0030  -18.0727   18.9965 N   0  0  0  0  0  0  0  0  0  0  0  0
    7.6066  -17.2462   20.1203 C   0  0  0  0  0  0  0  0  0  0  0  0
    8.7855  -16.3675   20.5082 C   0  0  0  0  0  0  0  0  0  0  0  0
    8.7247  -15.0231   19.8240 C   0  0  0  0  0  0  0  0  0  0  0  0
    7.6310  -14.2312   20.5172 C   0  0  2  0  0  0  0  0  0  0  0  0
    7.3716  -13.0159   19.7364 N   0  0  0  0  0  0  0  0  0  0  0  0
    8.0309  -13.8390   21.8834 C   0  0  0  0  0  0  0  0  0  0  0  0
    8.8779  -12.9189   22.0995 O   0  0  0  0  0  0  0  0  0  0  0  0
    7.4897  -20.4969   18.5955 N   0  0  0  0  0  0  0  0  0  0  0  0
    7.4790  -14.4805   22.9998 C   0  0  2  0  0  0  0  0  0  0  0  0
    7.8146  -14.0907   24.3896 C   0  0  0  0  0  0  0  0  0  0  0  0
    6.5190  -13.8295   25.1368 S   0  0  0  0  0  0  0  0  0  0  0  0
    5.7663  -15.2985   25.8317 C   0  0  0  0  0  0  0  0  0  0  0  0
    8.5186  -15.2171   25.0464 O   0  0  0  0  0  0  0  0  0  0  0  0
    8.8892  -16.2319   24.3654 C   0  0  0  0  0  0  0  0  0  0  0  0
    9.8265  -13.3601   29.7211 C   0  0  0  0  0  0  0  0  0  0  0  0
   10.3371  -13.8949   28.4202 C   0  0  2  0  0  0  0  0  0  0  0  0
   10.2349  -15.4001   28.3329 C   0  0  0  0  0  0  0  0  0  0  0  0
   11.3209  -16.1066   29.0710 C   0  0  2  0  0  0  0  0  0  0  0  0
   10.0575  -15.8882   26.9147 N   0  0  0  0  0  0  0  0  0  0  0  0
    8.8218  -15.2463   26.4279 C   0  0  0  0  0  0  0  0  0  0  0  0
    9.9297  -17.3666   26.8221 O   0  0  0  0  0  0  0  0  0  0  0  0
   10.9283  -18.1369   26.7661 O   0  0  0  0  0  0  0  0  0  0  0  0
  2  3  2  0
  2  1  1  0
  4  2  1  0
  5  4  1  0
  6  5  1  0
  7  6  1  0
  8 10  1  0
  8  7  1  0
  8  9  1  6
 10 11  2  0
 12 13  1  0
 12 10  1  0
 13 16  1  0
 13 14  1  6
 15 14  1  0
 16 23  1  0
 16 17  2  0
 18 19  1  0
 19 20  1  0
 20 21  1  6
 22 20  1  0
 22 24  1  0
 22 23  1  6
 24 25  2  0
 24 26  1  0
M  END
$$$$
