RCI.pdb
     RDKit          3D

 26 25  0  0  1  0  0  0  0  0999 V2000
    9.0178  -12.9141   13.5216 N   0  0  0  0  0  0  0  0  0  0  0  0
    8.3977  -13.8621   14.3729 C   0  0  0  0  0  0  0  0  0  0  0  0
    8.1712  -15.0833   13.9899 N   0  0  0  0  0  0  0  0  0  0  0  0
    7.9975  -13.5023   15.6931 N   0  0  0  0  0  0  0  0  0  0  0  0
    7.1096  -14.3652   16.4483 C   0  0  0  0  0  0  0  0  0  0  0  0
    7.9322  -15.1016   17.4940 C   0  0  0  0  0  0  0  0  0  0  0  0
    8.1284  -14.2656   18.7357 C   0  0  0  0  0  0  0  0  0  0  0  0
    8.7866  -15.1649   19.7662 C   0  0  2  0  0  0  0  0  0  0  0  0
    8.7875  -16.5389   19.2506 N   0  0  0  0  0  0  0  0  0  0  0  0
    8.0558  -15.1418   21.0491 C   0  0  0  0  0  0  0  0  0  0  0  0
    7.8140  -14.0601   21.6673 O   0  0  0  0  0  0  0  0  0  0  0  0
    7.8712  -15.8044   14.6805 N   0  0  0  0  0  0  0  0  0  0  0  0
    7.6002  -16.3315   21.6317 C   0  0  1  0  0  0  0  0  0  0  0  0
    6.8665  -16.3584   22.9190 C   0  0  0  0  0  0  0  0  0  0  0  0
    6.5036  -17.7993   23.2301 S   0  0  0  0  0  0  0  0  0  0  0  0
    7.8548  -18.7660   23.8990 C   0  0  0  0  0  0  0  0  0  0  0  0
    7.7588  -15.8553   23.9897 O   0  0  0  0  0  0  0  0  0  0  0  0
    9.0273  -15.9273   23.8598 C   0  0  0  0  0  0  0  0  0  0  0  0
    5.9756  -11.6802   26.6692 C   0  0  0  0  0  0  0  0  0  0  0  0
    6.8391  -12.6795   25.9658 C   0  0  2  0  0  0  0  0  0  0  0  0
    7.4867  -13.6575   26.9185 C   0  0  0  0  0  0  0  0  0  0  0  0
    8.2958  -12.9945   27.9811 C   0  0  2  0  0  0  0  0  0  0  0  0
    8.2271  -14.7618   26.2019 N   0  0  0  0  0  0  0  0  0  0  0  0
    7.2849  -15.2772   25.1906 C   0  0  0  0  0  0  0  0  0  0  0  0
    8.6469  -15.8622   27.1094 O   0  0  0  0  0  0  0  0  0  0  0  0
    7.9042  -16.8467   27.3791 O   0  0  0  0  0  0  0  0  0  0  0  0
  2  3  2  0
  2  1  1  0
  4  2  1  0
  5  4  1  0
  6  5  1  0
  7  6  1  0
  8 10  1  0
  8  7  1  0
  8  9  1  6
 10 11  2  0
 12 13  1  0
 12 10  1  0
 13 16  1  0
 13 14  1  6
 15 14  1  0
 16 23  1  0
 16 17  2  0
 18 19  1  0
 19 20  1  0
 20 21  1  1
 22 20  1  0
 22 24  1  0
 22 23  1  6
 24 25  2  0
 24 26  1  0
M  END
$$$$
