RCI.pdb
     RDKit          3D

 26 25  0  0  1  0  0  0  0  0999 V2000
    8.3394  -22.0931   18.5760 N   0  0  0  0  0  0  0  0  0  0  0  0
    9.6931  -22.1908   18.9832 C   0  0  0  0  0  0  0  0  0  0  0  0
   10.3068  -23.3342   19.0560 N   0  0  0  0  0  0  0  0  0  0  0  0
   10.4345  -21.0236   19.3304 N   0  0  0  0  0  0  0  0  0  0  0  0
   10.4976  -19.8992   18.4167 C   0  0  0  0  0  0  0  0  0  0  0  0
    9.4570  -18.8759   18.8436 C   0  0  0  0  0  0  0  0  0  0  0  0
    9.9379  -17.4641   18.6091 C   0  0  0  0  0  0  0  0  0  0  0  0
   10.4558  -16.9539   19.9415 C   0  0  2  0  0  0  0  0  0  0  0  0
   11.2936  -17.9972   20.5444 N   0  0  0  0  0  0  0  0  0  0  0  0
    9.3491  -16.6422   20.8680 C   0  0  0  0  0  0  0  0  0  0  0  0
    8.4194  -15.8353   20.5596 O   0  0  0  0  0  0  0  0  0  0  0  0
   11.3093  -23.3765   19.3388 N   0  0  0  0  0  0  0  0  0  0  0  0
    9.2908  -17.2370   22.1350 C   0  0  1  0  0  0  0  0  0  0  0  0
    8.2629  -16.8743   23.1390 C   0  0  0  0  0  0  0  0  0  0  0  0
    7.8474  -18.1369   23.8724 S   0  0  0  0  0  0  0  0  0  0  0  0
    8.9454  -18.6018   25.2087 C   0  0  0  0  0  0  0  0  0  0  0  0
    8.8596  -15.9354   24.1179 O   0  0  0  0  0  0  0  0  0  0  0  0
   10.1271  -15.7944   24.1874 C   0  0  0  0  0  0  0  0  0  0  0  0
    6.0101  -11.6814   26.6606 C   0  0  0  0  0  0  0  0  0  0  0  0
    6.6535  -13.0295   26.5720 C   0  0  2  0  0  0  0  0  0  0  0  0
    8.0335  -12.9733   25.9588 C   0  0  0  0  0  0  0  0  0  0  0  0
    8.0486  -12.3557   24.6017 C   0  0  1  0  0  0  0  0  0  0  0  0
    8.7509  -14.3008   26.0219 N   0  0  0  0  0  0  0  0  0  0  0  0
    8.0933  -15.1533   25.0136 C   0  0  0  0  0  0  0  0  0  0  0  0
    8.6656  -14.9428   27.3602 O   0  0  0  0  0  0  0  0  0  0  0  0
    7.9365  -15.9471   27.5915 O   0  0  0  0  0  0  0  0  0  0  0  0
  2  3  2  0
  2  1  1  0
  4  2  1  0
  5  4  1  0
  6  5  1  0
  7  6  1  0
  8 10  1  0
  8  7  1  0
  8  9  1  1
 10 11  2  0
 12 13  1  0
 12 10  1  0
 13 16  1  0
 13 14  1  6
 15 14  1  0
 16 23  1  0
 16 17  2  0
 18 19  1  0
 19 20  1  0
 20 21  1  1
 22 20  1  0
 22 24  1  0
 22 23  1  6
 24 25  2  0
 24 26  1  0
M  END
$$$$
