RCI.pdb
     RDKit          3D

 26 25  0  0  1  0  0  0  0  0999 V2000
    9.6444  -14.1779   18.6114 N   0  0  0  0  0  0  0  0  0  0  0  0
    8.5308  -13.7482   17.8478 C   0  0  0  0  0  0  0  0  0  0  0  0
    8.6647  -12.9604   16.8227 N   0  0  0  0  0  0  0  0  0  0  0  0
    7.2114  -14.1716   18.1835 N   0  0  0  0  0  0  0  0  0  0  0  0
    6.7670  -14.1527   19.5638 C   0  0  0  0  0  0  0  0  0  0  0  0
    7.2145  -15.4449   20.2290 C   0  0  0  0  0  0  0  0  0  0  0  0
    6.4094  -16.6265   19.7443 C   0  0  0  0  0  0  0  0  0  0  0  0
    6.7802  -17.7996   20.6332 C   0  0  2  0  0  0  0  0  0  0  0  0
    6.1028  -18.9987   20.1261 N   0  0  0  0  0  0  0  0  0  0  0  0
    6.3587  -17.5736   22.0301 C   0  0  0  0  0  0  0  0  0  0  0  0
    5.1448  -17.6606   22.3900 O   0  0  0  0  0  0  0  0  0  0  0  0
    7.8260  -12.6353   16.2956 N   0  0  0  0  0  0  0  0  0  0  0  0
    7.3004  -17.2512   23.0158 C   0  0  2  0  0  0  0  0  0  0  0  0
    6.9232  -17.0021   24.4272 C   0  0  0  0  0  0  0  0  0  0  0  0
    7.0278  -18.3126   25.1864 S   0  0  0  0  0  0  0  0  0  0  0  0
    8.6926  -18.9636   25.2960 C   0  0  0  0  0  0  0  0  0  0  0  0
    7.8820  -16.0382   25.0164 O   0  0  0  0  0  0  0  0  0  0  0  0
    9.1152  -16.0700   24.6855 C   0  0  0  0  0  0  0  0  0  0  0  0
    6.1334  -11.4051   27.7897 C   0  0  0  0  0  0  0  0  0  0  0  0
    6.5473  -12.7712   27.3409 C   0  0  2  0  0  0  0  0  0  0  0  0
    7.7948  -12.7474   26.4884 C   0  0  0  0  0  0  0  0  0  0  0  0
    7.5691  -12.1691   25.1328 C   0  0  1  0  0  0  0  0  0  0  0  0
    8.5046  -14.0804   26.4615 N   0  0  0  0  0  0  0  0  0  0  0  0
    7.5116  -15.0462   25.9545 C   0  0  0  0  0  0  0  0  0  0  0  0
    8.9872  -14.5073   27.8014 O   0  0  0  0  0  0  0  0  0  0  0  0
    8.4680  -15.4630   28.4424 O   0  0  0  0  0  0  0  0  0  0  0  0
  2  3  2  0
  2  1  1  0
  4  2  1  0
  5  4  1  0
  6  5  1  0
  7  6  1  0
  8 10  1  0
  8  7  1  0
  8  9  1  6
 10 11  2  0
 12 13  1  0
 12 10  1  0
 13 16  1  0
 13 14  1  6
 15 14  1  0
 16 23  1  0
 16 17  2  0
 18 19  1  0
 19 20  1  0
 20 21  1  1
 22 20  1  0
 22 24  1  0
 22 23  1  6
 24 25  2  0
 24 26  1  0
M  END
$$$$
