RCI.pdb
     RDKit          3D

 26 25  0  0  1  0  0  0  0  0999 V2000
    8.6090  -12.5578   16.3947 N   0  0  0  0  0  0  0  0  0  0  0  0
    8.6025  -13.1258   17.6928 C   0  0  0  0  0  0  0  0  0  0  0  0
    9.5998  -12.9753   18.5125 N   0  0  0  0  0  0  0  0  0  0  0  0
    7.4879  -13.8901   18.1470 N   0  0  0  0  0  0  0  0  0  0  0  0
    7.2365  -15.2104   17.6021 C   0  0  0  0  0  0  0  0  0  0  0  0
    7.9919  -16.2276   18.4430 C   0  0  0  0  0  0  0  0  0  0  0  0
    7.2630  -16.5361   19.7286 C   0  0  0  0  0  0  0  0  0  0  0  0
    8.0712  -17.6051   20.4413 C   0  0  2  0  0  0  0  0  0  0  0  0
    7.7856  -18.8998   19.8122 N   0  0  0  0  0  0  0  0  0  0  0  0
    7.7167  -17.6863   21.8724 C   0  0  0  0  0  0  0  0  0  0  0  0
    6.5757  -18.0822   22.2623 O   0  0  0  0  0  0  0  0  0  0  0  0
    9.5719  -13.4081   19.4605 N   0  0  0  0  0  0  0  0  0  0  0  0
    8.6434  -17.3233   22.8582 C   0  0  2  0  0  0  0  0  0  0  0  0
    8.3151  -17.3351   24.3034 C   0  0  0  0  0  0  0  0  0  0  0  0
    8.9469  -18.5678   24.9250 S   0  0  0  0  0  0  0  0  0  0  0  0
   10.7333  -18.6128   24.8070 C   0  0  0  0  0  0  0  0  0  0  0  0
    8.9039  -16.1327   24.9383 O   0  0  0  0  0  0  0  0  0  0  0  0
    9.9588  -15.5986   24.4554 C   0  0  0  0  0  0  0  0  0  0  0  0
    5.6748  -12.4197   26.7492 C   0  0  0  0  0  0  0  0  0  0  0  0
    6.8410  -13.1691   26.1856 C   0  0  2  0  0  0  0  0  0  0  0  0
    7.8882  -13.4808   27.2296 C   0  0  0  0  0  0  0  0  0  0  0  0
    8.3633  -12.2733   27.9640 C   0  0  2  0  0  0  0  0  0  0  0  0
    9.0107  -14.3343   26.6885 N   0  0  0  0  0  0  0  0  0  0  0  0
    8.3565  -15.5105   26.0848 C   0  0  0  0  0  0  0  0  0  0  0  0
    9.9657  -14.7712   27.7409 O   0  0  0  0  0  0  0  0  0  0  0  0
   10.8590  -14.0130   28.2108 O   0  0  0  0  0  0  0  0  0  0  0  0
  2  3  2  0
  2  1  1  0
  4  2  1  0
  5  4  1  0
  6  5  1  0
  7  6  1  0
  8 10  1  0
  8  7  1  0
  8  9  1  6
 10 11  2  0
 12 13  1  0
 12 10  1  0
 13 16  1  0
 13 14  1  6
 15 14  1  0
 16 23  1  0
 16 17  2  0
 18 19  1  0
 19 20  1  0
 20 21  1  1
 22 20  1  0
 22 24  1  0
 22 23  1  6
 24 25  2  0
 24 26  1  0
M  END
$$$$
