RCI.pdb
     RDKit          3D

 26 25  0  0  1  0  0  0  0  0999 V2000
    7.8544  -15.3776   15.9173 N   0  0  0  0  0  0  0  0  0  0  0  0
    7.9718  -13.9674   15.9894 C   0  0  0  0  0  0  0  0  0  0  0  0
    8.0599  -13.2308   14.9222 N   0  0  0  0  0  0  0  0  0  0  0  0
    7.9973  -13.3029   17.2506 N   0  0  0  0  0  0  0  0  0  0  0  0
    7.7254  -14.0392   18.4701 C   0  0  0  0  0  0  0  0  0  0  0  0
    8.5708  -15.3032   18.4653 C   0  0  0  0  0  0  0  0  0  0  0  0
    9.8024  -15.1506   19.3251 C   0  0  0  0  0  0  0  0  0  0  0  0
    9.6489  -16.1219   20.4813 C   0  0  2  0  0  0  0  0  0  0  0  0
    8.4482  -16.9335   20.2498 N   0  0  0  0  0  0  0  0  0  0  0  0
    9.4988  -15.4119   21.7673 C   0  0  0  0  0  0  0  0  0  0  0  0
   10.3515  -14.5635   22.1719 O   0  0  0  0  0  0  0  0  0  0  0  0
    8.0630  -12.1911   14.9989 N   0  0  0  0  0  0  0  0  0  0  0  0
    8.3937  -15.6571   22.5925 C   0  0  1  0  0  0  0  0  0  0  0  0
    8.1679  -14.9242   23.8606 C   0  0  0  0  0  0  0  0  0  0  0  0
    6.7231  -15.1304   24.2788 S   0  0  0  0  0  0  0  0  0  0  0  0
    6.2754  -14.2963   25.7991 C   0  0  0  0  0  0  0  0  0  0  0  0
    9.0477  -15.4952   24.9072 O   0  0  0  0  0  0  0  0  0  0  0  0
    9.4167  -16.7163   24.8449 C   0  0  0  0  0  0  0  0  0  0  0  0
   11.5853  -13.8085   30.3280 C   0  0  0  0  0  0  0  0  0  0  0  0
   11.4810  -14.8079   29.2192 C   0  0  2  0  0  0  0  0  0  0  0  0
   10.6155  -14.3208   28.0802 C   0  0  0  0  0  0  0  0  0  0  0  0
    9.3938  -13.5988   28.5377 C   0  0  2  0  0  0  0  0  0  0  0  0
   10.3287  -15.4024   27.0658 N   0  0  0  0  0  0  0  0  0  0  0  0
    9.5269  -14.7526   26.0118 C   0  0  0  0  0  0  0  0  0  0  0  0
    9.5763  -16.5496   27.6387 O   0  0  0  0  0  0  0  0  0  0  0  0
    8.3152  -16.6072   27.6415 O   0  0  0  0  0  0  0  0  0  0  0  0
  2  3  2  0
  2  1  1  0
  4  2  1  0
  5  4  1  0
  6  5  1  0
  7  6  1  0
  8 10  1  0
  8  7  1  0
  8  9  1  6
 10 11  2  0
 12 13  1  0
 12 10  1  0
 13 16  1  0
 13 14  1  1
 15 14  1  0
 16 23  1  0
 16 17  2  0
 18 19  1  0
 19 20  1  0
 20 21  1  6
 22 20  1  0
 22 24  1  0
 22 23  1  1
 24 25  2  0
 24 26  1  0
M  END
$$$$
