RCI.pdb
     RDKit          3D

 26 25  0  0  1  0  0  0  0  0999 V2000
   11.3301  -22.2685   18.6723 N   0  0  0  0  0  0  0  0  0  0  0  0
   12.5682  -22.2406   17.9838 C   0  0  0  0  0  0  0  0  0  0  0  0
   12.9782  -23.2453   17.2683 N   0  0  0  0  0  0  0  0  0  0  0  0
   13.4145  -21.0954   18.0546 N   0  0  0  0  0  0  0  0  0  0  0  0
   13.0783  -19.9915   18.9329 C   0  0  0  0  0  0  0  0  0  0  0  0
   11.7723  -19.3779   18.4530 C   0  0  0  0  0  0  0  0  0  0  0  0
   11.4801  -18.0741   19.1559 C   0  0  0  0  0  0  0  0  0  0  0  0
   10.4137  -18.3693   20.1948 C   0  0  2  0  0  0  0  0  0  0  0  0
    9.1711  -18.7212   19.4978 N   0  0  0  0  0  0  0  0  0  0  0  0
   10.1577  -17.1965   21.0546 C   0  0  0  0  0  0  0  0  0  0  0  0
   11.0992  -16.5370   21.5924 O   0  0  0  0  0  0  0  0  0  0  0  0
   13.8669  -23.1785   16.7275 N   0  0  0  0  0  0  0  0  0  0  0  0
    8.8475  -16.7697   21.3068 C   0  0  2  0  0  0  0  0  0  0  0  0
    8.5384  -15.6384   22.2128 C   0  0  0  0  0  0  0  0  0  0  0  0
    7.1884  -15.0671   21.8177 S   0  0  0  0  0  0  0  0  0  0  0  0
    5.8323  -16.2279   21.9618 C   0  0  0  0  0  0  0  0  0  0  0  0
    8.4465  -16.1478   23.6013 O   0  0  0  0  0  0  0  0  0  0  0  0
    8.2548  -17.3911   23.8214 C   0  0  0  0  0  0  0  0  0  0  0  0
    8.6416  -12.5749   28.0404 C   0  0  0  0  0  0  0  0  0  0  0  0
    8.1293  -13.6090   27.0879 C   0  0  2  0  0  0  0  0  0  0  0  0
    9.0198  -14.8282   27.0231 C   0  0  0  0  0  0  0  0  0  0  0  0
   10.4515  -14.4974   26.7702 C   0  0  1  0  0  0  0  0  0  0  0  0
    8.4781  -15.8938   26.0999 N   0  0  0  0  0  0  0  0  0  0  0  0
    8.5626  -15.3210   24.7432 C   0  0  0  0  0  0  0  0  0  0  0  0
    7.0712  -16.2651   26.4055 O   0  0  0  0  0  0  0  0  0  0  0  0
    6.0878  -15.8079   25.7594 O   0  0  0  0  0  0  0  0  0  0  0  0
  2  3  2  0
  2  1  1  0
  4  2  1  0
  5  4  1  0
  6  5  1  0
  7  6  1  0
  8 10  1  0
  8  7  1  0
  8  9  1  6
 10 11  2  0
 12 13  1  0
 12 10  1  0
 13 16  1  0
 13 14  1  6
 15 14  1  0
 16 23  1  0
 16 17  2  0
 18 19  1  0
 19 20  1  0
 20 21  1  1
 22 20  1  0
 22 24  1  0
 22 23  1  6
 24 25  2  0
 24 26  1  0
M  END
$$$$
