WIN.pdb
     RDKit          3D

 31 32  0  0  1  0  0  0  0  0999 V2000
    5.9219  -17.6982   24.4416 N   0  0  0  0  0  0  0  0  0  0  0  0
    6.5879  -16.4762   24.1349 C   0  0  1  0  0  0  0  0  0  0  0  0
    7.3509  -16.0705   25.3814 C   0  0  0  0  0  0  0  0  0  0  0  0
    6.7329  -14.9561   26.1204 C   0  0  0  0  0  0  0  0  0  0  0  0
    5.6523  -15.0027   26.9742 C   0  0  0  0  0  0  0  0  0  0  0  0
    5.4050  -13.7635   27.4637 N   0  0  0  0  0  0  0  0  0  0  0  0
    6.3122  -12.8884   26.9448 C   0  0  0  0  0  0  0  0  0  0  0  0
    6.4936  -11.5365   27.1211 C   0  0  0  0  0  0  0  0  0  0  0  0
    7.5062  -10.8667   26.4709 C   0  0  0  0  0  0  0  0  0  0  0  0
    8.3138  -11.6140   25.6461 C   0  0  0  0  0  0  0  0  0  0  0  0
    8.1501  -12.9549   25.4581 C   0  0  0  0  0  0  0  0  0  0  0  0
    7.1222  -13.6347   26.1201 C   0  0  0  0  0  0  0  0  0  0  0  0
    7.5941  -16.6162   23.0179 C   0  0  0  0  0  0  0  0  0  0  0  0
    8.1009  -17.7257   22.7384 O   0  0  0  0  0  0  0  0  0  0  0  0
    6.7941  -12.7734   19.4201 C   0  0  0  0  0  0  0  0  0  0  0  0
    7.1076  -14.2494   19.7056 C   0  0  0  0  0  0  0  0  0  0  0  0
    8.5278  -14.3676   20.1117 C   0  0  2  0  0  0  0  0  0  0  0  0
    9.3853  -14.5142   18.8737 C   0  0  0  0  0  0  0  0  0  0  0  0
    8.8309  -15.4266   21.1370 C   0  0  2  0  0  0  0  0  0  0  0  0
    7.9847  -15.4844   22.2557 N   0  0  0  0  0  0  0  0  0  0  0  0
   10.2840  -15.5228   21.3229 C   0  0  0  0  0  0  0  0  0  0  0  0
   10.7666  -14.5628   22.0386 O   0  0  0  0  0  0  0  0  0  0  0  0
   14.2356  -18.3143   23.3529 N   0  0  0  0  0  0  0  0  0  0  0  0
   12.8461  -18.4271   23.6476 C   0  0  0  0  0  0  0  0  0  0  0  0
   12.5109  -19.1463   24.6463 O   0  0  0  0  0  0  0  0  0  0  0  0
   11.8003  -17.7696   22.8732 C   0  0  0  0  0  0  0  0  0  0  0  0
   12.2906  -17.0108   21.6472 C   0  0  2  0  0  0  0  0  0  0  0  0
   11.1908  -16.4726   20.8492 N   0  0  0  0  0  0  0  0  0  0  0  0
   13.1504  -17.9233   20.8960 C   0  0  0  0  0  0  0  0  0  0  0  0
   14.5208  -17.9528   21.0194 O   0  0  0  0  0  0  0  0  0  0  0  0
   12.6586  -18.7735   20.0565 O   0  0  0  0  0  0  0  0  0  0  0  0
  2 13  1  0
  2  1  1  1
  2  3  1  0
  4  3  1  0
  4  5  2  0
  6  5  1  0
  7  6  1  0
  8  7  2  0
  9  8  1  0
 10  9  2  0
 10 11  1  0
 11 12  2  0
 12  7  1  0
 12  4  1  0
 13 14  2  0
 16 15  1  0
 17 16  1  0
 17 18  1  6
 19 17  1  0
 19 20  1  1
 20 13  1  0
 21 19  1  0
 22 21  2  0
 24 23  1  0
 24 26  1  0
 25 24  2  0
 27 26  1  1
 27 28  1  0
 28 21  1  0
 29 30  1  0
 29 27  1  0
 31 29  2  0
M  END
$$$$
