WIN.pdb
     RDKit          3D

 31 32  0  0  1  0  0  0  0  0999 V2000
    6.0011  -17.8194   24.3503 N   0  0  0  0  0  0  0  0  0  0  0  0
    6.5870  -16.5827   23.9525 C   0  0  1  0  0  0  0  0  0  0  0  0
    7.5032  -16.1510   25.0815 C   0  0  0  0  0  0  0  0  0  0  0  0
    6.8889  -15.1864   26.0100 C   0  0  0  0  0  0  0  0  0  0  0  0
    5.9265  -15.4274   26.9664 C   0  0  0  0  0  0  0  0  0  0  0  0
    5.6385  -14.2771   27.6224 N   0  0  0  0  0  0  0  0  0  0  0  0
    6.4013  -13.2687   27.1130 C   0  0  0  0  0  0  0  0  0  0  0  0
    6.4903  -11.9324   27.4258 C   0  0  0  0  0  0  0  0  0  0  0  0
    7.3585  -11.1031   26.7511 C   0  0  0  0  0  0  0  0  0  0  0  0
    8.1199  -11.6770   25.7602 C   0  0  0  0  0  0  0  0  0  0  0  0
    8.0460  -12.9995   25.4352 C   0  0  0  0  0  0  0  0  0  0  0  0
    7.1649  -13.8415   26.1220 C   0  0  0  0  0  0  0  0  0  0  0  0
    7.4335  -16.7035   22.7081 C   0  0  0  0  0  0  0  0  0  0  0  0
    7.6949  -17.8208   22.2088 O   0  0  0  0  0  0  0  0  0  0  0  0
    7.3593  -12.0916   20.3807 C   0  0  0  0  0  0  0  0  0  0  0  0
    7.3159  -13.5744   19.9835 C   0  0  0  0  0  0  0  0  0  0  0  0
    8.6687  -14.1551   20.1518 C   0  0  2  0  0  0  0  0  0  0  0  0
    9.3341  -14.2591   18.7969 C   0  0  0  0  0  0  0  0  0  0  0  0
    8.7361  -15.4506   20.9148 C   0  0  2  0  0  0  0  0  0  0  0  0
    7.9500  -15.5433   22.0742 N   0  0  0  0  0  0  0  0  0  0  0  0
   10.1240  -15.9287   20.9410 C   0  0  0  0  0  0  0  0  0  0  0  0
   10.8191  -15.4102   21.8973 O   0  0  0  0  0  0  0  0  0  0  0  0
   14.9704  -17.7831   20.8111 N   0  0  0  0  0  0  0  0  0  0  0  0
   14.4220  -16.5036   21.1154 C   0  0  0  0  0  0  0  0  0  0  0  0
   15.1868  -15.6524   21.6790 O   0  0  0  0  0  0  0  0  0  0  0  0
   13.0462  -16.1233   20.8187 C   0  0  0  0  0  0  0  0  0  0  0  0
   12.1679  -17.2507   20.2927 C   0  0  2  0  0  0  0  0  0  0  0  0
   10.7799  -16.8335   20.1045 N   0  0  0  0  0  0  0  0  0  0  0  0
   12.3086  -18.3704   21.2216 C   0  0  0  0  0  0  0  0  0  0  0  0
   13.4687  -19.0960   21.3688 O   0  0  0  0  0  0  0  0  0  0  0  0
   11.3285  -18.7475   21.9742 O   0  0  0  0  0  0  0  0  0  0  0  0
  2 13  1  0
  2  1  1  1
  2  3  1  0
  4  3  1  0
  4  5  2  0
  6  5  1  0
  7  6  1  0
  8  7  2  0
  9  8  1  0
 10  9  2  0
 10 11  1  0
 11 12  2  0
 12  7  1  0
 12  4  1  0
 13 14  2  0
 16 15  1  0
 17 16  1  0
 17 18  1  6
 19 17  1  0
 19 20  1  1
 20 13  1  0
 21 19  1  0
 22 21  2  0
 24 23  1  0
 24 26  1  0
 25 24  2  0
 27 26  1  1
 27 28  1  0
 28 21  1  0
 29 30  1  0
 29 27  1  0
 31 29  2  0
M  END
$$$$
