WIN.pdb
     RDKit          3D

 31 32  0  0  1  0  0  0  0  0999 V2000
    6.6643  -17.1690   25.5568 N   0  0  0  0  0  0  0  0  0  0  0  0
    7.1854  -16.0492   24.8458 C   0  0  1  0  0  0  0  0  0  0  0  0
    8.4078  -15.5778   25.6100 C   0  0  0  0  0  0  0  0  0  0  0  0
    8.0928  -14.7173   26.7633 C   0  0  0  0  0  0  0  0  0  0  0  0
    8.3662  -14.9513   28.0935 C   0  0  0  0  0  0  0  0  0  0  0  0
    7.9267  -13.9083   28.8389 N   0  0  0  0  0  0  0  0  0  0  0  0
    7.3623  -12.9782   28.0178 C   0  0  0  0  0  0  0  0  0  0  0  0
    6.7790  -11.7586   28.2706 C   0  0  0  0  0  0  0  0  0  0  0  0
    6.2732  -10.9892   27.2464 C   0  0  0  0  0  0  0  0  0  0  0  0
    6.3811  -11.5015   25.9748 C   0  0  0  0  0  0  0  0  0  0  0  0
    6.9557  -12.7083   25.7038 C   0  0  0  0  0  0  0  0  0  0  0  0
    7.4705  -13.4885   26.7446 C   0  0  0  0  0  0  0  0  0  0  0  0
    7.6359  -16.3954   23.4469 C   0  0  0  0  0  0  0  0  0  0  0  0
    7.8750  -17.5789   23.1181 O   0  0  0  0  0  0  0  0  0  0  0  0
    7.1064  -12.1349   19.8746 C   0  0  0  0  0  0  0  0  0  0  0  0
    6.9329  -13.5816   20.3595 C   0  0  0  0  0  0  0  0  0  0  0  0
    8.2454  -14.2668   20.3018 C   0  0  2  0  0  0  0  0  0  0  0  0
    8.5648  -14.6027   18.8615 C   0  0  0  0  0  0  0  0  0  0  0  0
    8.4038  -15.4582   21.2077 C   0  0  2  0  0  0  0  0  0  0  0  0
    7.7949  -15.3780   22.4700 N   0  0  0  0  0  0  0  0  0  0  0  0
    9.7730  -15.9762   21.0960 C   0  0  0  0  0  0  0  0  0  0  0  0
   10.5880  -15.4362   21.9391 O   0  0  0  0  0  0  0  0  0  0  0  0
   13.8211  -18.7900   22.6893 N   0  0  0  0  0  0  0  0  0  0  0  0
   12.6785  -19.3045   22.0110 C   0  0  0  0  0  0  0  0  0  0  0  0
   12.7180  -20.5200   21.6261 O   0  0  0  0  0  0  0  0  0  0  0  0
   11.4804  -18.5200   21.7375 C   0  0  0  0  0  0  0  0  0  0  0  0
   11.5530  -17.6518   20.4884 C   0  0  2  0  0  0  0  0  0  0  0  0
   10.3039  -16.9372   20.2339 N   0  0  0  0  0  0  0  0  0  0  0  0
   11.9493  -18.5242   19.3847 C   0  0  0  0  0  0  0  0  0  0  0  0
   13.2574  -18.7331   19.0114 O   0  0  0  0  0  0  0  0  0  0  0  0
   11.0719  -19.1633   18.6839 O   0  0  0  0  0  0  0  0  0  0  0  0
  2 13  1  0
  2  1  1  1
  2  3  1  0
  4  3  1  0
  4  5  2  0
  6  5  1  0
  7  6  1  0
  8  7  2  0
  9  8  1  0
 10  9  2  0
 10 11  1  0
 11 12  2  0
 12  7  1  0
 12  4  1  0
 13 14  2  0
 16 15  1  0
 17 16  1  0
 17 18  1  6
 19 17  1  0
 19 20  1  1
 20 13  1  0
 21 19  1  0
 22 21  2  0
 24 23  1  0
 24 26  1  0
 25 24  2  0
 27 26  1  1
 27 28  1  0
 28 21  1  0
 29 30  1  0
 29 27  1  0
 31 29  2  0
M  END
$$$$
