WIN.pdb
     RDKit          3D

 31 32  0  0  1  0  0  0  0  0999 V2000
   10.2342  -16.7087   20.9906 N   0  0  0  0  0  0  0  0  0  0  0  0
    9.3717  -15.9366   21.8218 C   0  0  1  0  0  0  0  0  0  0  0  0
    7.9656  -16.4581   21.5950 C   0  0  0  0  0  0  0  0  0  0  0  0
    7.1067  -15.5385   20.8291 C   0  0  0  0  0  0  0  0  0  0  0  0
    5.8238  -15.7580   20.3764 C   0  0  0  0  0  0  0  0  0  0  0  0
    5.3763  -14.6571   19.7250 N   0  0  0  0  0  0  0  0  0  0  0  0
    6.3493  -13.7027   19.7391 C   0  0  0  0  0  0  0  0  0  0  0  0
    6.3963  -12.4270   19.2273 C   0  0  0  0  0  0  0  0  0  0  0  0
    7.5191  -11.6440   19.3781 C   0  0  0  0  0  0  0  0  0  0  0  0
    8.5765  -12.2011   20.0581 C   0  0  0  0  0  0  0  0  0  0  0  0
    8.5494  -13.4638   20.5728 C   0  0  0  0  0  0  0  0  0  0  0  0
    7.4079  -14.2580   20.4205 C   0  0  0  0  0  0  0  0  0  0  0  0
    9.6760  -16.0901   23.2927 C   0  0  0  0  0  0  0  0  0  0  0  0
   10.6578  -16.7601   23.6842 O   0  0  0  0  0  0  0  0  0  0  0  0
    7.8400  -12.6473   28.1727 C   0  0  0  0  0  0  0  0  0  0  0  0
    8.6470  -13.8672   27.7048 C   0  0  0  0  0  0  0  0  0  0  0  0
    8.2915  -14.1657   26.2976 C   0  0  2  0  0  0  0  0  0  0  0  0
    6.8111  -14.4669   26.2150 C   0  0  0  0  0  0  0  0  0  0  0  0
    9.1214  -15.2237   25.6216 C   0  0  2  0  0  0  0  0  0  0  0  0
    8.8502  -15.4702   24.2665 N   0  0  0  0  0  0  0  0  0  0  0  0
    9.3109  -16.3540   26.5392 C   0  0  0  0  0  0  0  0  0  0  0  0
    8.2001  -16.9051   26.8983 O   0  0  0  0  0  0  0  0  0  0  0  0
   11.0913  -19.8990   25.3671 N   0  0  0  0  0  0  0  0  0  0  0  0
   11.9491  -19.1891   26.2563 C   0  0  0  0  0  0  0  0  0  0  0  0
   13.0249  -18.7012   25.7749 O   0  0  0  0  0  0  0  0  0  0  0  0
   11.6623  -18.9952   27.6725 C   0  0  0  0  0  0  0  0  0  0  0  0
   10.5082  -18.0469   27.9695 C   0  0  2  0  0  0  0  0  0  0  0  0
   10.4835  -16.8996   27.0646 N   0  0  0  0  0  0  0  0  0  0  0  0
   10.6205  -17.6652   29.3759 C   0  0  0  0  0  0  0  0  0  0  0  0
   10.5055  -18.5565   30.4182 O   0  0  0  0  0  0  0  0  0  0  0  0
   10.8411  -16.4409   29.7252 O   0  0  0  0  0  0  0  0  0  0  0  0
  2 13  1  0
  2  1  1  6
  2  3  1  0
  4  3  1  0
  4  5  2  0
  6  5  1  0
  7  6  1  0
  8  7  2  0
  9  8  1  0
 10  9  2  0
 10 11  1  0
 11 12  2  0
 12  7  1  0
 12  4  1  0
 13 14  2  0
 16 15  1  0
 17 16  1  0
 17 18  1  1
 19 17  1  0
 19 20  1  6
 20 13  1  0
 21 19  1  0
 22 21  2  0
 24 23  1  0
 24 26  1  0
 25 24  2  0
 27 26  1  6
 27 28  1  0
 28 21  1  0
 29 30  1  0
 29 27  1  0
 31 29  2  0
M  END
$$$$
