WIN.pdb
     RDKit          3D

 31 32  0  0  1  0  0  0  0  0999 V2000
    6.6633  -17.6296   24.5975 N   0  0  0  0  0  0  0  0  0  0  0  0
    7.0490  -16.3741   24.0444 C   0  0  1  0  0  0  0  0  0  0  0  0
    8.1541  -15.8289   24.9287 C   0  0  0  0  0  0  0  0  0  0  0  0
    7.6644  -15.1175   26.1220 C   0  0  0  0  0  0  0  0  0  0  0  0
    7.3767  -15.6440   27.3626 C   0  0  0  0  0  0  0  0  0  0  0  0
    6.9654  -14.6549   28.1927 N   0  0  0  0  0  0  0  0  0  0  0  0
    6.9765  -13.4709   27.5174 C   0  0  0  0  0  0  0  0  0  0  0  0
    6.6551  -12.1893   27.8993 C   0  0  0  0  0  0  0  0  0  0  0  0
    6.7530  -11.1402   27.0125 C   0  0  0  0  0  0  0  0  0  0  0  0
    7.1827  -11.4411   25.7414 C   0  0  0  0  0  0  0  0  0  0  0  0
    7.5058  -12.7049   25.3436 C   0  0  0  0  0  0  0  0  0  0  0  0
    7.4076  -13.7698   26.2454 C   0  0  0  0  0  0  0  0  0  0  0  0
    7.6085  -16.4912   22.6469 C   0  0  0  0  0  0  0  0  0  0  0  0
    7.8025  -17.6091   22.1188 O   0  0  0  0  0  0  0  0  0  0  0  0
    7.9045  -11.8382   21.2497 C   0  0  0  0  0  0  0  0  0  0  0  0
    7.3910  -12.9533   20.3271 C   0  0  0  0  0  0  0  0  0  0  0  0
    8.5175  -13.8567   19.9947 C   0  0  2  0  0  0  0  0  0  0  0  0
    8.6830  -13.9082   18.4917 C   0  0  0  0  0  0  0  0  0  0  0  0
    8.4572  -15.2318   20.6034 C   0  0  2  0  0  0  0  0  0  0  0  0
    7.9242  -15.3272   21.8986 N   0  0  0  0  0  0  0  0  0  0  0  0
    9.6836  -15.9665   20.2693 C   0  0  0  0  0  0  0  0  0  0  0  0
    9.9905  -15.8948   19.0174 O   0  0  0  0  0  0  0  0  0  0  0  0
   14.8343  -16.4681   20.4446 N   0  0  0  0  0  0  0  0  0  0  0  0
   13.9388  -15.4848   19.9333 C   0  0  0  0  0  0  0  0  0  0  0  0
   14.4358  -14.5389   19.2366 O   0  0  0  0  0  0  0  0  0  0  0  0
   12.4994  -15.5050   20.1645 C   0  0  0  0  0  0  0  0  0  0  0  0
   11.9928  -16.7060   20.9521 C   0  0  2  0  0  0  0  0  0  0  0  0
   10.5374  -16.7103   21.0856 N   0  0  0  0  0  0  0  0  0  0  0  0
   12.6862  -16.6961   22.2387 C   0  0  0  0  0  0  0  0  0  0  0  0
   12.0627  -16.4348   23.4374 O   0  0  0  0  0  0  0  0  0  0  0  0
   13.9523  -16.9399   22.3226 O   0  0  0  0  0  0  0  0  0  0  0  0
  2 13  1  0
  2  1  1  1
  2  3  1  0
  4  3  1  0
  4  5  2  0
  6  5  1  0
  7  6  1  0
  8  7  2  0
  9  8  1  0
 10  9  2  0
 10 11  1  0
 11 12  2  0
 12  7  1  0
 12  4  1  0
 13 14  2  0
 16 15  1  0
 17 16  1  0
 17 18  1  6
 19 17  1  0
 19 20  1  1
 20 13  1  0
 21 19  1  0
 22 21  2  0
 24 23  1  0
 24 26  1  0
 25 24  2  0
 27 26  1  6
 27 28  1  0
 28 21  1  0
 29 30  1  0
 29 27  1  0
 31 29  2  0
M  END
$$$$
