WIN.pdb
     RDKit          3D

 31 32  0  0  1  0  0  0  0  0999 V2000
    6.3955  -18.7731   25.1176 N   0  0  0  0  0  0  0  0  0  0  0  0
    6.6103  -17.3868   24.8667 C   0  0  1  0  0  0  0  0  0  0  0  0
    7.4781  -16.8683   25.9975 C   0  0  0  0  0  0  0  0  0  0  0  0
    7.1003  -15.5248   26.4690 C   0  0  0  0  0  0  0  0  0  0  0  0
    5.8411  -14.9670   26.5148 C   0  0  0  0  0  0  0  0  0  0  0  0
    5.9161  -13.7152   27.0284 N   0  0  0  0  0  0  0  0  0  0  0  0
    7.2154  -13.4315   27.3273 C   0  0  0  0  0  0  0  0  0  0  0  0
    7.8153  -12.3159   27.8632 C   0  0  0  0  0  0  0  0  0  0  0  0
    9.1757  -12.2753   28.0743 C   0  0  0  0  0  0  0  0  0  0  0  0
    9.8911  -13.3959   27.7231 C   0  0  0  0  0  0  0  0  0  0  0  0
    9.3149  -14.5114   27.1905 C   0  0  0  0  0  0  0  0  0  0  0  0
    7.9328  -14.5524   26.9778 C   0  0  0  0  0  0  0  0  0  0  0  0
    7.3512  -17.1279   23.5768 C   0  0  0  0  0  0  0  0  0  0  0  0
    8.2240  -17.9223   23.1609 O   0  0  0  0  0  0  0  0  0  0  0  0
    7.6479  -12.1817   19.7123 C   0  0  0  0  0  0  0  0  0  0  0  0
    7.8303  -13.6970   19.8822 C   0  0  0  0  0  0  0  0  0  0  0  0
    7.4877  -14.0675   21.2754 C   0  0  2  0  0  0  0  0  0  0  0  0
    8.1932  -13.1246   22.2253 C   0  0  0  0  0  0  0  0  0  0  0  0
    7.7088  -15.5099   21.6438 C   0  0  2  0  0  0  0  0  0  0  0  0
    7.0673  -15.9717   22.8040 N   0  0  0  0  0  0  0  0  0  0  0  0
    9.1132  -15.8641   21.4034 C   0  0  0  0  0  0  0  0  0  0  0  0
    9.4147  -15.9119   20.1490 O   0  0  0  0  0  0  0  0  0  0  0  0
   14.1732  -17.1632   21.0396 N   0  0  0  0  0  0  0  0  0  0  0  0
   13.5819  -15.9026   20.7369 C   0  0  0  0  0  0  0  0  0  0  0  0
   14.2905  -15.0565   20.0973 O   0  0  0  0  0  0  0  0  0  0  0  0
   12.2234  -15.5354   21.1178 C   0  0  0  0  0  0  0  0  0  0  0  0
   11.4698  -16.5962   21.9091 C   0  0  2  0  0  0  0  0  0  0  0  0
   10.1366  -16.1502   22.3086 N   0  0  0  0  0  0  0  0  0  0  0  0
   12.3151  -16.9632   23.0435 C   0  0  0  0  0  0  0  0  0  0  0  0
   11.9198  -16.8464   24.3566 O   0  0  0  0  0  0  0  0  0  0  0  0
   13.5073  -17.4303   22.8709 O   0  0  0  0  0  0  0  0  0  0  0  0
  2 13  1  0
  2  1  1  1
  2  3  1  0
  4  3  1  0
  4  5  2  0
  6  5  1  0
  7  6  1  0
  8  7  2  0
  9  8  1  0
 10  9  2  0
 10 11  1  0
 11 12  2  0
 12  7  1  0
 12  4  1  0
 13 14  2  0
 16 15  1  0
 17 16  1  0
 17 18  1  1
 19 17  1  0
 19 20  1  1
 20 13  1  0
 21 19  1  0
 22 21  2  0
 24 23  1  0
 24 26  1  0
 25 24  2  0
 27 26  1  1
 27 28  1  0
 28 21  1  0
 29 30  1  0
 29 27  1  0
 31 29  2  0
M  END
$$$$
