WIN.pdb
     RDKit          3D

 31 32  0  0  1  0  0  0  0  0999 V2000
    9.9743  -15.0996   21.1960 N   0  0  0  0  0  0  0  0  0  0  0  0
    8.8724  -14.9392   22.0854 C   0  0  1  0  0  0  0  0  0  0  0  0
    7.8174  -15.9415   21.6580 C   0  0  0  0  0  0  0  0  0  0  0  0
    7.1914  -15.6295   20.3615 C   0  0  0  0  0  0  0  0  0  0  0  0
    6.3007  -16.3988   19.6448 C   0  0  0  0  0  0  0  0  0  0  0  0
    5.9498  -15.7493   18.5084 N   0  0  0  0  0  0  0  0  0  0  0  0
    6.5981  -14.5512   18.4596 C   0  0  0  0  0  0  0  0  0  0  0  0
    6.5862  -13.5340   17.5341 C   0  0  0  0  0  0  0  0  0  0  0  0
    7.3446  -12.3993   17.7185 C   0  0  0  0  0  0  0  0  0  0  0  0
    8.1050  -12.3413   18.8628 C   0  0  0  0  0  0  0  0  0  0  0  0
    8.1304  -13.3391   19.7921 C   0  0  0  0  0  0  0  0  0  0  0  0
    7.3585  -14.4906   19.6048 C   0  0  0  0  0  0  0  0  0  0  0  0
    9.2242  -15.2423   23.5221 C   0  0  0  0  0  0  0  0  0  0  0  0
   10.2502  -15.8969   23.8132 O   0  0  0  0  0  0  0  0  0  0  0  0
    5.9327  -12.3310   26.9162 C   0  0  0  0  0  0  0  0  0  0  0  0
    7.2731  -12.7273   26.2803 C   0  0  0  0  0  0  0  0  0  0  0  0
    7.6986  -14.0339   26.8348 C   0  0  2  0  0  0  0  0  0  0  0  0
    8.2733  -13.8203   28.2181 C   0  0  0  0  0  0  0  0  0  0  0  0
    8.6147  -14.8496   25.9627 C   0  0  2  0  0  0  0  0  0  0  0  0
    8.3935  -14.7842   24.5780 N   0  0  0  0  0  0  0  0  0  0  0  0
    8.8585  -16.1514   26.5962 C   0  0  0  0  0  0  0  0  0  0  0  0
    7.7711  -16.7804   26.8936 O   0  0  0  0  0  0  0  0  0  0  0  0
   10.1762  -19.6639   24.7003 N   0  0  0  0  0  0  0  0  0  0  0  0
   11.1430  -18.9985   25.5083 C   0  0  0  0  0  0  0  0  0  0  0  0
   12.0652  -18.3499   24.9118 O   0  0  0  0  0  0  0  0  0  0  0  0
   11.1313  -19.0220   26.9660 C   0  0  0  0  0  0  0  0  0  0  0  0
   10.1393  -18.0662   27.6154 C   0  0  2  0  0  0  0  0  0  0  0  0
   10.0604  -16.7857   26.9153 N   0  0  0  0  0  0  0  0  0  0  0  0
   10.5323  -17.9300   29.0165 C   0  0  0  0  0  0  0  0  0  0  0  0
   10.9256  -16.7398   29.5845 O   0  0  0  0  0  0  0  0  0  0  0  0
   10.5299  -18.9438   29.8176 O   0  0  0  0  0  0  0  0  0  0  0  0
  2 13  1  0
  2  1  1  6
  2  3  1  0
  4  3  1  0
  4  5  2  0
  6  5  1  0
  7  6  1  0
  8  7  2  0
  9  8  1  0
 10  9  2  0
 10 11  1  0
 11 12  2  0
 12  7  1  0
 12  4  1  0
 13 14  2  0
 16 15  1  0
 17 16  1  0
 17 18  1  1
 19 17  1  0
 19 20  1  6
 20 13  1  0
 21 19  1  0
 22 21  2  0
 24 23  1  0
 24 26  1  0
 25 24  2  0
 27 26  1  6
 27 28  1  0
 28 21  1  0
 29 30  1  0
 29 27  1  0
 31 29  2  0
M  END
$$$$
