WIN.pdb
     RDKit          3D

 31 32  0  0  1  0  0  0  0  0999 V2000
    6.0858  -17.9112   25.1783 N   0  0  0  0  0  0  0  0  0  0  0  0
    6.6668  -16.6977   24.7083 C   0  0  1  0  0  0  0  0  0  0  0  0
    7.7974  -16.3580   25.6606 C   0  0  0  0  0  0  0  0  0  0  0  0
    7.4612  -15.3007   26.6296 C   0  0  0  0  0  0  0  0  0  0  0  0
    7.0595  -15.4495   27.9394 C   0  0  0  0  0  0  0  0  0  0  0  0
    6.8614  -14.2301   28.4962 N   0  0  0  0  0  0  0  0  0  0  0  0
    7.1283  -13.2666   27.5697 C   0  0  0  0  0  0  0  0  0  0  0  0
    7.0834  -11.8933   27.6291 C   0  0  0  0  0  0  0  0  0  0  0  0
    7.4080  -11.1256   26.5327 C   0  0  0  0  0  0  0  0  0  0  0  0
    7.7732  -11.7991   25.3908 C   0  0  0  0  0  0  0  0  0  0  0  0
    7.8237  -13.1597   25.3119 C   0  0  0  0  0  0  0  0  0  0  0  0
    7.4953  -13.9387   26.4265 C   0  0  0  0  0  0  0  0  0  0  0  0
    7.2652  -16.8252   23.3279 C   0  0  0  0  0  0  0  0  0  0  0  0
    7.2371  -17.9119   22.7080 O   0  0  0  0  0  0  0  0  0  0  0  0
    7.1380  -12.3999   19.9633 C   0  0  0  0  0  0  0  0  0  0  0  0
    7.0528  -13.8201   20.5415 C   0  0  0  0  0  0  0  0  0  0  0  0
    8.4251  -14.3569   20.6976 C   0  0  2  0  0  0  0  0  0  0  0  0
    9.0771  -14.4503   19.3354 C   0  0  0  0  0  0  0  0  0  0  0  0
    8.5422  -15.6439   21.4689 C   0  0  2  0  0  0  0  0  0  0  0  0
    7.8723  -15.7058   22.7010 N   0  0  0  0  0  0  0  0  0  0  0  0
    9.9165  -16.1500   21.3659 C   0  0  0  0  0  0  0  0  0  0  0  0
   10.2925  -16.3469   20.1467 O   0  0  0  0  0  0  0  0  0  0  0  0
   10.4359  -19.9559   23.2392 N   0  0  0  0  0  0  0  0  0  0  0  0
   11.5535  -19.0767   23.3300 C   0  0  0  0  0  0  0  0  0  0  0  0
   11.9847  -18.7885   24.4954 O   0  0  0  0  0  0  0  0  0  0  0  0
   12.2208  -18.4963   22.1710 C   0  0  0  0  0  0  0  0  0  0  0  0
   12.1798  -16.9755   22.1018 C   0  0  2  0  0  0  0  0  0  0  0  0
   10.8451  -16.4421   22.3664 N   0  0  0  0  0  0  0  0  0  0  0  0
   12.6998  -16.5937   20.7903 C   0  0  0  0  0  0  0  0  0  0  0  0
   13.9768  -16.8803   20.3648 O   0  0  0  0  0  0  0  0  0  0  0  0
   11.9705  -15.9524   19.9380 O   0  0  0  0  0  0  0  0  0  0  0  0
  2 13  1  0
  2  1  1  1
  2  3  1  0
  4  3  1  0
  4  5  2  0
  6  5  1  0
  7  6  1  0
  8  7  2  0
  9  8  1  0
 10  9  2  0
 10 11  1  0
 11 12  2  0
 12  7  1  0
 12  4  1  0
 13 14  2  0
 16 15  1  0
 17 16  1  0
 17 18  1  6
 19 17  1  0
 19 20  1  1
 20 13  1  0
 21 19  1  0
 22 21  2  0
 24 23  1  0
 24 26  1  0
 25 24  2  0
 27 26  1  6
 27 28  1  0
 28 21  1  0
 29 30  1  0
 29 27  1  0
 31 29  2  0
M  END
$$$$
