WIN.pdb
     RDKit          3D

 31 32  0  0  1  0  0  0  0  0999 V2000
   10.4418  -16.7361   21.5867 N   0  0  0  0  0  0  0  0  0  0  0  0
    9.4826  -15.8190   22.1061 C   0  0  1  0  0  0  0  0  0  0  0  0
    8.1166  -16.3442   21.7078 C   0  0  0  0  0  0  0  0  0  0  0  0
    7.6164  -15.7954   20.4356 C   0  0  0  0  0  0  0  0  0  0  0  0
    6.9657  -16.4654   19.4224 C   0  0  0  0  0  0  0  0  0  0  0  0
    6.6574  -15.5982   18.4277 N   0  0  0  0  0  0  0  0  0  0  0  0
    7.0960  -14.3532   18.7679 C   0  0  0  0  0  0  0  0  0  0  0  0
    7.0305  -13.1434   18.1170 C   0  0  0  0  0  0  0  0  0  0  0  0
    7.5579  -12.0044   18.6838 C   0  0  0  0  0  0  0  0  0  0  0  0
    8.1466  -12.1423   19.9189 C   0  0  0  0  0  0  0  0  0  0  0  0
    8.2215  -13.3327   20.5802 C   0  0  0  0  0  0  0  0  0  0  0  0
    7.6841  -14.4889   20.0043 C   0  0  0  0  0  0  0  0  0  0  0  0
    9.5073  -15.7289   23.6131 C   0  0  0  0  0  0  0  0  0  0  0  0
   10.2825  -16.4396   24.2915 O   0  0  0  0  0  0  0  0  0  0  0  0
    7.0826  -11.7816   27.6753 C   0  0  0  0  0  0  0  0  0  0  0  0
    7.4734  -13.2608   27.5427 C   0  0  0  0  0  0  0  0  0  0  0  0
    7.4559  -13.6342   26.1088 C   0  0  2  0  0  0  0  0  0  0  0  0
    6.0617  -14.0859   25.7327 C   0  0  0  0  0  0  0  0  0  0  0  0
    8.5055  -14.6217   25.6753 C   0  0  2  0  0  0  0  0  0  0  0  0
    8.6480  -14.8276   24.2940 N   0  0  0  0  0  0  0  0  0  0  0  0
    8.4913  -15.7767   26.5816 C   0  0  0  0  0  0  0  0  0  0  0  0
    8.6455  -15.4488   27.8207 O   0  0  0  0  0  0  0  0  0  0  0  0
    5.9544  -18.8204   25.4131 N   0  0  0  0  0  0  0  0  0  0  0  0
    7.2081  -19.4818   25.5575 C   0  0  0  0  0  0  0  0  0  0  0  0
    7.6940  -20.0574   24.5281 O   0  0  0  0  0  0  0  0  0  0  0  0
    7.9546  -19.5335   26.8088 C   0  0  0  0  0  0  0  0  0  0  0  0
    8.4539  -18.1865   27.3143 C   0  0  2  0  0  0  0  0  0  0  0  0
    8.3421  -17.1366   26.3039 N   0  0  0  0  0  0  0  0  0  0  0  0
    9.8238  -18.3874   27.7827 C   0  0  0  0  0  0  0  0  0  0  0  0
   10.9170  -17.7602   27.2299 O   0  0  0  0  0  0  0  0  0  0  0  0
   10.0888  -19.1826   28.7660 O   0  0  0  0  0  0  0  0  0  0  0  0
  2 13  1  0
  2  1  1  1
  2  3  1  0
  4  3  1  0
  4  5  2  0
  6  5  1  0
  7  6  1  0
  8  7  2  0
  9  8  1  0
 10  9  2  0
 10 11  1  0
 11 12  2  0
 12  7  1  0
 12  4  1  0
 13 14  2  0
 16 15  1  0
 17 16  1  0
 17 18  1  1
 19 17  1  0
 19 20  1  6
 20 13  1  0
 21 19  1  0
 22 21  2  0
 24 23  1  0
 24 26  1  0
 25 24  2  0
 27 26  1  6
 27 28  1  0
 28 21  1  0
 29 30  1  0
 29 27  1  0
 31 29  2  0
M  END
$$$$
