WIN.pdb
     RDKit          3D

 31 32  0  0  1  0  0  0  0  0999 V2000
    6.2404  -17.6798   24.0713 N   0  0  0  0  0  0  0  0  0  0  0  0
    6.7896  -16.4410   23.6299 C   0  0  1  0  0  0  0  0  0  0  0  0
    7.8643  -16.0594   24.6298 C   0  0  0  0  0  0  0  0  0  0  0  0
    7.3461  -15.3780   25.8286 C   0  0  0  0  0  0  0  0  0  0  0  0
    6.8149  -15.9500   26.9642 C   0  0  0  0  0  0  0  0  0  0  0  0
    6.4669  -14.9790   27.8431 N   0  0  0  0  0  0  0  0  0  0  0  0
    6.7620  -13.7619   27.3048 C   0  0  0  0  0  0  0  0  0  0  0  0
    6.6092  -12.4814   27.7828 C   0  0  0  0  0  0  0  0  0  0  0  0
    6.9947  -11.3938   27.0310 C   0  0  0  0  0  0  0  0  0  0  0  0
    7.5322  -11.6554   25.7926 C   0  0  0  0  0  0  0  0  0  0  0  0
    7.6918  -12.9175   25.3010 C   0  0  0  0  0  0  0  0  0  0  0  0
    7.3013  -14.0218   26.0659 C   0  0  0  0  0  0  0  0  0  0  0  0
    7.4499  -16.5370   22.2754 C   0  0  0  0  0  0  0  0  0  0  0  0
    7.5396  -17.6313   21.6750 O   0  0  0  0  0  0  0  0  0  0  0  0
    7.9891  -11.5273   20.4549 C   0  0  0  0  0  0  0  0  0  0  0  0
    7.4370  -12.9269   20.1471 C   0  0  0  0  0  0  0  0  0  0  0  0
    8.5674  -13.8247   19.8123 C   0  0  2  0  0  0  0  0  0  0  0  0
    8.7940  -13.7973   18.3166 C   0  0  0  0  0  0  0  0  0  0  0  0
    8.4685  -15.2296   20.3427 C   0  0  2  0  0  0  0  0  0  0  0  0
    7.9823  -15.3788   21.6511 N   0  0  0  0  0  0  0  0  0  0  0  0
    9.6467  -15.9950   19.9166 C   0  0  0  0  0  0  0  0  0  0  0  0
    9.8402  -15.9563   18.6408 O   0  0  0  0  0  0  0  0  0  0  0  0
   14.8211  -16.2229   19.9698 N   0  0  0  0  0  0  0  0  0  0  0  0
   13.8690  -15.2381   19.5776 C   0  0  0  0  0  0  0  0  0  0  0  0
   14.3092  -14.1852   19.0079 O   0  0  0  0  0  0  0  0  0  0  0  0
   12.4332  -15.3720   19.7929 C   0  0  0  0  0  0  0  0  0  0  0  0
   12.0072  -16.6496   20.5038 C   0  0  2  0  0  0  0  0  0  0  0  0
   10.5579  -16.7375   20.6697 N   0  0  0  0  0  0  0  0  0  0  0  0
   12.7329  -16.6949   21.7718 C   0  0  0  0  0  0  0  0  0  0  0  0
   12.1289  -16.5511   23.0000 O   0  0  0  0  0  0  0  0  0  0  0  0
   14.0112  -16.8786   21.8092 O   0  0  0  0  0  0  0  0  0  0  0  0
  2 13  1  0
  2  1  1  1
  2  3  1  0
  4  3  1  0
  4  5  2  0
  6  5  1  0
  7  6  1  0
  8  7  2  0
  9  8  1  0
 10  9  2  0
 10 11  1  0
 11 12  2  0
 12  7  1  0
 12  4  1  0
 13 14  2  0
 16 15  1  0
 17 16  1  0
 17 18  1  6
 19 17  1  0
 19 20  1  1
 20 13  1  0
 21 19  1  0
 22 21  2  0
 24 23  1  0
 24 26  1  0
 25 24  2  0
 27 26  1  1
 27 28  1  0
 28 21  1  0
 29 30  1  0
 29 27  1  0
 31 29  2  0
M  END
$$$$
