WIN.pdb
     RDKit          3D

 31 32  0  0  1  0  0  0  0  0999 V2000
    7.0259  -17.3624   25.9596 N   0  0  0  0  0  0  0  0  0  0  0  0
    7.1564  -16.2563   25.0705 C   0  0  1  0  0  0  0  0  0  0  0  0
    8.4537  -15.5579   25.4307 C   0  0  0  0  0  0  0  0  0  0  0  0
    8.3420  -14.6577   26.5914 C   0  0  0  0  0  0  0  0  0  0  0  0
    8.9342  -14.7938   27.8282 C   0  0  0  0  0  0  0  0  0  0  0  0
    8.5921  -13.7446   28.6147 N   0  0  0  0  0  0  0  0  0  0  0  0
    7.7765  -12.9073   27.9136 C   0  0  0  0  0  0  0  0  0  0  0  0
    7.1663  -11.7211   28.2486 C   0  0  0  0  0  0  0  0  0  0  0  0
    6.3742  -11.0512   27.3427 C   0  0  0  0  0  0  0  0  0  0  0  0
    6.2283  -11.6268   26.1024 C   0  0  0  0  0  0  0  0  0  0  0  0
    6.8248  -12.8018   25.7512 C   0  0  0  0  0  0  0  0  0  0  0  0
    7.6304  -13.4809   26.6715 C   0  0  0  0  0  0  0  0  0  0  0  0
    7.2566  -16.6713   23.6223 C   0  0  0  0  0  0  0  0  0  0  0  0
    7.2924  -17.8788   23.2958 O   0  0  0  0  0  0  0  0  0  0  0  0
    8.0077  -12.1077   20.8386 C   0  0  0  0  0  0  0  0  0  0  0  0
    7.1784  -13.3999   20.8646 C   0  0  0  0  0  0  0  0  0  0  0  0
    8.0617  -14.5428   20.5339 C   0  0  2  0  0  0  0  0  0  0  0  0
    8.0587  -14.7524   19.0355 C   0  0  0  0  0  0  0  0  0  0  0  0
    7.7907  -15.8196   21.2831 C   0  0  2  0  0  0  0  0  0  0  0  0
    7.3092  -15.6925   22.5957 N   0  0  0  0  0  0  0  0  0  0  0  0
    8.8537  -16.7896   20.9927 C   0  0  0  0  0  0  0  0  0  0  0  0
    8.7454  -17.3228   19.8220 O   0  0  0  0  0  0  0  0  0  0  0  0
   12.9682  -18.9470   18.9126 N   0  0  0  0  0  0  0  0  0  0  0  0
   13.0345  -17.7352   19.6594 C   0  0  0  0  0  0  0  0  0  0  0  0
   14.1833  -17.2067   19.8262 O   0  0  0  0  0  0  0  0  0  0  0  0
   11.8684  -17.0772   20.2362 C   0  0  0  0  0  0  0  0  0  0  0  0
   11.0940  -17.9132   21.2465 C   0  0  2  0  0  0  0  0  0  0  0  0
    9.9300  -17.2069   21.7777 N   0  0  0  0  0  0  0  0  0  0  0  0
   12.0421  -18.3161   22.2833 C   0  0  0  0  0  0  0  0  0  0  0  0
   13.2145  -18.9883   22.0230 O   0  0  0  0  0  0  0  0  0  0  0  0
   11.8266  -18.0552   23.5302 O   0  0  0  0  0  0  0  0  0  0  0  0
  2 13  1  0
  2  1  1  1
  2  3  1  0
  4  3  1  0
  4  5  2  0
  6  5  1  0
  7  6  1  0
  8  7  2  0
  9  8  1  0
 10  9  2  0
 10 11  1  0
 11 12  2  0
 12  7  1  0
 12  4  1  0
 13 14  2  0
 16 15  1  0
 17 16  1  0
 17 18  1  6
 19 17  1  0
 19 20  1  1
 20 13  1  0
 21 19  1  0
 22 21  2  0
 24 23  1  0
 24 26  1  0
 25 24  2  0
 27 26  1  6
 27 28  1  0
 28 21  1  0
 29 30  1  0
 29 27  1  0
 31 29  2  0
M  END
$$$$
