WIN.pdb
     RDKit          3D

 31 32  0  0  1  0  0  0  0  0999 V2000
    6.3189  -18.0963   24.7470 N   0  0  0  0  0  0  0  0  0  0  0  0
    6.6850  -16.8187   24.2324 C   0  0  1  0  0  0  0  0  0  0  0  0
    7.5006  -16.1316   25.3109 C   0  0  0  0  0  0  0  0  0  0  0  0
    6.8021  -15.0088   25.9601 C   0  0  0  0  0  0  0  0  0  0  0  0
    5.5486  -15.0092   26.5324 C   0  0  0  0  0  0  0  0  0  0  0  0
    5.2771  -13.7802   27.0348 N   0  0  0  0  0  0  0  0  0  0  0  0
    6.3395  -12.9580   26.8038 C   0  0  0  0  0  0  0  0  0  0  0  0
    6.5656  -11.6365   27.1104 C   0  0  0  0  0  0  0  0  0  0  0  0
    7.7474  -11.0207   26.7627 C   0  0  0  0  0  0  0  0  0  0  0  0
    8.6752  -11.7894   26.0999 C   0  0  0  0  0  0  0  0  0  0  0  0
    8.4697  -13.1008   25.7869 C   0  0  0  0  0  0  0  0  0  0  0  0
    7.2697  -13.7259   26.1419 C   0  0  0  0  0  0  0  0  0  0  0  0
    7.5523  -16.9050   22.9996 C   0  0  0  0  0  0  0  0  0  0  0  0
    8.0800  -17.9857   22.6535 O   0  0  0  0  0  0  0  0  0  0  0  0
    7.2769  -12.1931   20.2799 C   0  0  0  0  0  0  0  0  0  0  0  0
    7.1530  -13.7220   20.2057 C   0  0  0  0  0  0  0  0  0  0  0  0
    8.5052  -14.3180   20.3158 C   0  0  2  0  0  0  0  0  0  0  0  0
    9.1192  -14.4088   18.9359 C   0  0  0  0  0  0  0  0  0  0  0  0
    8.5876  -15.6249   21.0574 C   0  0  2  0  0  0  0  0  0  0  0  0
    7.7847  -15.7543   22.2017 N   0  0  0  0  0  0  0  0  0  0  0  0
    9.9848  -16.0741   21.0988 C   0  0  0  0  0  0  0  0  0  0  0  0
   10.5310  -16.1346   19.9307 O   0  0  0  0  0  0  0  0  0  0  0  0
   10.9479  -19.3643   24.4244 N   0  0  0  0  0  0  0  0  0  0  0  0
   11.8625  -18.3301   24.0719 C   0  0  0  0  0  0  0  0  0  0  0  0
   12.1793  -17.4885   24.9765 O   0  0  0  0  0  0  0  0  0  0  0  0
   12.4471  -18.1871   22.7440 C   0  0  0  0  0  0  0  0  0  0  0  0
   12.1777  -16.8509   22.0647 C   0  0  2  0  0  0  0  0  0  0  0  0
   10.7816  -16.4362   22.1863 N   0  0  0  0  0  0  0  0  0  0  0  0
   12.6181  -16.9809   20.6771 C   0  0  0  0  0  0  0  0  0  0  0  0
   13.9058  -17.3036   20.3142 O   0  0  0  0  0  0  0  0  0  0  0  0
   11.8021  -16.7973   19.6923 O   0  0  0  0  0  0  0  0  0  0  0  0
  2 13  1  0
  2  1  1  1
  2  3  1  0
  4  3  1  0
  4  5  2  0
  6  5  1  0
  7  6  1  0
  8  7  2  0
  9  8  1  0
 10  9  2  0
 10 11  1  0
 11 12  2  0
 12  7  1  0
 12  4  1  0
 13 14  2  0
 16 15  1  0
 17 16  1  0
 17 18  1  6
 19 17  1  0
 19 20  1  1
 20 13  1  0
 21 19  1  0
 22 21  2  0
 24 23  1  0
 24 26  1  0
 25 24  2  0
 27 26  1  6
 27 28  1  0
 28 21  1  0
 29 30  1  0
 29 27  1  0
 31 29  2  0
M  END
$$$$
