WIN.pdb
     RDKit          3D

 31 32  0  0  1  0  0  0  0  0999 V2000
    6.7894  -18.0572   25.0344 N   0  0  0  0  0  0  0  0  0  0  0  0
    7.1272  -16.7923   24.4714 C   0  0  1  0  0  0  0  0  0  0  0  0
    8.1013  -16.1344   25.4299 C   0  0  0  0  0  0  0  0  0  0  0  0
    7.4651  -15.2052   26.3795 C   0  0  0  0  0  0  0  0  0  0  0  0
    6.6424  -15.5121   27.4416 C   0  0  0  0  0  0  0  0  0  0  0  0
    6.2770  -14.3730   28.0784 N   0  0  0  0  0  0  0  0  0  0  0  0
    6.8495  -13.3067   27.4513 C   0  0  0  0  0  0  0  0  0  0  0  0
    6.7979  -11.9550   27.6997 C   0  0  0  0  0  0  0  0  0  0  0  0
    7.4807  -11.0618   26.9042 C   0  0  0  0  0  0  0  0  0  0  0  0
    8.2057  -11.5891   25.8615 C   0  0  0  0  0  0  0  0  0  0  0  0
    8.2693  -12.9258   25.5988 C   0  0  0  0  0  0  0  0  0  0  0  0
    7.5766  -13.8325   26.4082 C   0  0  0  0  0  0  0  0  0  0  0  0
    7.8202  -16.9069   23.1349 C   0  0  0  0  0  0  0  0  0  0  0  0
    8.2224  -18.0120   22.7068 O   0  0  0  0  0  0  0  0  0  0  0  0
    7.9488  -12.2216   19.4756 C   0  0  0  0  0  0  0  0  0  0  0  0
    8.6306  -13.2138   20.4290 C   0  0  0  0  0  0  0  0  0  0  0  0
    8.1129  -14.5748   20.1545 C   0  0  2  0  0  0  0  0  0  0  0  0
    6.6012  -14.5291   20.1109 C   0  0  0  0  0  0  0  0  0  0  0  0
    8.6188  -15.6643   21.0612 C   0  0  2  0  0  0  0  0  0  0  0  0
    8.0273  -15.7556   22.3310 N   0  0  0  0  0  0  0  0  0  0  0  0
   10.0778  -15.7659   20.9331 C   0  0  0  0  0  0  0  0  0  0  0  0
   10.4692  -15.9083   19.7112 O   0  0  0  0  0  0  0  0  0  0  0  0
   13.9794  -18.8652   23.6527 N   0  0  0  0  0  0  0  0  0  0  0  0
   12.9353  -18.9486   22.6867 C   0  0  0  0  0  0  0  0  0  0  0  0
   12.9725  -19.9188   21.8594 O   0  0  0  0  0  0  0  0  0  0  0  0
   11.8396  -17.9910   22.5970 C   0  0  0  0  0  0  0  0  0  0  0  0
   12.2015  -16.6603   21.9508 C   0  0  2  0  0  0  0  0  0  0  0  0
   11.0714  -15.7343   21.9132 N   0  0  0  0  0  0  0  0  0  0  0  0
   12.7398  -16.9615   20.6258 C   0  0  0  0  0  0  0  0  0  0  0  0
   14.0415  -16.7085   20.2575 O   0  0  0  0  0  0  0  0  0  0  0  0
   12.0057  -17.4964   19.7070 O   0  0  0  0  0  0  0  0  0  0  0  0
  2 13  1  0
  2  1  1  1
  2  3  1  0
  4  3  1  0
  4  5  2  0
  6  5  1  0
  7  6  1  0
  8  7  2  0
  9  8  1  0
 10  9  2  0
 10 11  1  0
 11 12  2  0
 12  7  1  0
 12  4  1  0
 13 14  2  0
 16 15  1  0
 17 16  1  0
 17 18  1  1
 19 17  1  0
 19 20  1  1
 20 13  1  0
 21 19  1  0
 22 21  2  0
 24 23  1  0
 24 26  1  0
 25 24  2  0
 27 26  1  6
 27 28  1  0
 28 21  1  0
 29 30  1  0
 29 27  1  0
 31 29  2  0
M  END
$$$$
