WIN.pdb
     RDKit          3D

 31 32  0  0  1  0  0  0  0  0999 V2000
    6.2686  -17.2272   25.5562 N   0  0  0  0  0  0  0  0  0  0  0  0
    6.9792  -16.1672   24.9218 C   0  0  1  0  0  0  0  0  0  0  0  0
    8.2384  -15.9379   25.7356 C   0  0  0  0  0  0  0  0  0  0  0  0
    8.1202  -14.8480   26.7195 C   0  0  0  0  0  0  0  0  0  0  0  0
    8.6623  -14.7876   27.9849 C   0  0  0  0  0  0  0  0  0  0  0  0
    8.3331  -13.6081   28.5655 N   0  0  0  0  0  0  0  0  0  0  0  0
    7.5758  -12.8787   27.6981 C   0  0  0  0  0  0  0  0  0  0  0  0
    7.0000  -11.6338   27.7995 C   0  0  0  0  0  0  0  0  0  0  0  0
    6.2670  -11.1053   26.7603 C   0  0  0  0  0  0  0  0  0  0  0  0
    6.1433  -11.8812   25.6317 C   0  0  0  0  0  0  0  0  0  0  0  0
    6.7063  -13.1175   25.5118 C   0  0  0  0  0  0  0  0  0  0  0  0
    7.4520  -13.6530   26.5674 C   0  0  0  0  0  0  0  0  0  0  0  0
    7.4093  -16.5040   23.5141 C   0  0  0  0  0  0  0  0  0  0  0  0
    7.3313  -17.6735   23.0757 O   0  0  0  0  0  0  0  0  0  0  0  0
    7.2487  -12.1507   20.5052 C   0  0  0  0  0  0  0  0  0  0  0  0
    6.9619  -13.6583   20.5619 C   0  0  0  0  0  0  0  0  0  0  0  0
    8.2439  -14.3940   20.4581 C   0  0  2  0  0  0  0  0  0  0  0  0
    8.5162  -14.7100   19.0037 C   0  0  0  0  0  0  0  0  0  0  0  0
    8.3747  -15.6107   21.3342 C   0  0  2  0  0  0  0  0  0  0  0  0
    7.9107  -15.4926   22.6538 N   0  0  0  0  0  0  0  0  0  0  0  0
    9.6661  -16.2599   21.0763 C   0  0  0  0  0  0  0  0  0  0  0  0
    9.8435  -16.5558   19.8323 O   0  0  0  0  0  0  0  0  0  0  0  0
   13.6294  -19.6684   21.0152 N   0  0  0  0  0  0  0  0  0  0  0  0
   12.2573  -19.9794   21.2405 C   0  0  0  0  0  0  0  0  0  0  0  0
   11.9032  -21.2001   21.1324 O   0  0  0  0  0  0  0  0  0  0  0  0
   11.2493  -18.9837   21.5840 C   0  0  0  0  0  0  0  0  0  0  0  0
   11.7566  -17.5487   21.6368 C   0  0  2  0  0  0  0  0  0  0  0  0
   10.6964  -16.5949   21.9566 N   0  0  0  0  0  0  0  0  0  0  0  0
   12.4040  -17.2773   20.3548 C   0  0  0  0  0  0  0  0  0  0  0  0
   13.7470  -17.0077   20.2223 O   0  0  0  0  0  0  0  0  0  0  0  0
   11.7346  -17.2777   19.2497 O   0  0  0  0  0  0  0  0  0  0  0  0
  2 13  1  0
  2  1  1  1
  2  3  1  0
  4  3  1  0
  4  5  2  0
  6  5  1  0
  7  6  1  0
  8  7  2  0
  9  8  1  0
 10  9  2  0
 10 11  1  0
 11 12  2  0
 12  7  1  0
 12  4  1  0
 13 14  2  0
 16 15  1  0
 17 16  1  0
 17 18  1  6
 19 17  1  0
 19 20  1  1
 20 13  1  0
 21 19  1  0
 22 21  2  0
 24 23  1  0
 24 26  1  0
 25 24  2  0
 27 26  1  6
 27 28  1  0
 28 21  1  0
 29 30  1  0
 29 27  1  0
 31 29  2  0
M  END
$$$$
