WIN.pdb
     RDKit          3D

 31 32  0  0  1  0  0  0  0  0999 V2000
    7.0806  -17.3410   25.2854 N   0  0  0  0  0  0  0  0  0  0  0  0
    7.3661  -16.1533   24.5513 C   0  0  1  0  0  0  0  0  0  0  0  0
    8.6004  -15.5371   25.1816 C   0  0  0  0  0  0  0  0  0  0  0  0
    8.3200  -14.7583   26.4002 C   0  0  0  0  0  0  0  0  0  0  0  0
    8.8510  -14.9362   27.6592 C   0  0  0  0  0  0  0  0  0  0  0  0
    8.3470  -14.0023   28.5021 N   0  0  0  0  0  0  0  0  0  0  0  0
    7.4836  -13.2006   27.8165 C   0  0  0  0  0  0  0  0  0  0  0  0
    6.7243  -12.1211   28.2031 C   0  0  0  0  0  0  0  0  0  0  0  0
    5.9152  -11.4649   27.3022 C   0  0  0  0  0  0  0  0  0  0  0  0
    5.9078  -11.9432   26.0130 C   0  0  0  0  0  0  0  0  0  0  0  0
    6.6533  -13.0119   25.6103 C   0  0  0  0  0  0  0  0  0  0  0  0
    7.4760  -13.6769   26.5257 C   0  0  0  0  0  0  0  0  0  0  0  0
    7.6877  -16.4188   23.1002 C   0  0  0  0  0  0  0  0  0  0  0  0
    7.9085  -17.5796   22.6879 O   0  0  0  0  0  0  0  0  0  0  0  0
    8.3993  -11.7623   19.4681 C   0  0  0  0  0  0  0  0  0  0  0  0
    8.9652  -12.9923   20.1929 C   0  0  0  0  0  0  0  0  0  0  0  0
    8.0169  -14.1198   20.0349 C   0  0  2  0  0  0  0  0  0  0  0  0
    6.6054  -13.6090   20.2250 C   0  0  0  0  0  0  0  0  0  0  0  0
    8.2959  -15.3347   20.8782 C   0  0  2  0  0  0  0  0  0  0  0  0
    7.7427  -15.3496   22.1684 N   0  0  0  0  0  0  0  0  0  0  0  0
    9.6896  -15.7532   20.6832 C   0  0  0  0  0  0  0  0  0  0  0  0
   10.0731  -15.6760   19.4529 O   0  0  0  0  0  0  0  0  0  0  0  0
   12.6754  -15.0064   19.3261 N   0  0  0  0  0  0  0  0  0  0  0  0
   13.4720  -15.2743   20.4768 C   0  0  0  0  0  0  0  0  0  0  0  0
   14.5629  -14.6255   20.6038 O   0  0  0  0  0  0  0  0  0  0  0  0
   13.1071  -16.2422   21.5042 C   0  0  0  0  0  0  0  0  0  0  0  0
   11.8084  -16.9943   21.2451 C   0  0  2  0  0  0  0  0  0  0  0  0
   10.6294  -16.2107   21.6084 N   0  0  0  0  0  0  0  0  0  0  0  0
   11.8982  -18.2623   21.9664 C   0  0  0  0  0  0  0  0  0  0  0  0
   11.0285  -18.6323   22.9668 O   0  0  0  0  0  0  0  0  0  0  0  0
   12.8201  -19.1263   21.6961 O   0  0  0  0  0  0  0  0  0  0  0  0
  2 13  1  0
  2  1  1  1
  2  3  1  0
  4  3  1  0
  4  5  2  0
  6  5  1  0
  7  6  1  0
  8  7  2  0
  9  8  1  0
 10  9  2  0
 10 11  1  0
 11 12  2  0
 12  7  1  0
 12  4  1  0
 13 14  2  0
 16 15  1  0
 17 16  1  0
 17 18  1  1
 19 17  1  0
 19 20  1  1
 20 13  1  0
 21 19  1  0
 22 21  2  0
 24 23  1  0
 24 26  1  0
 25 24  2  0
 27 26  1  1
 27 28  1  0
 28 21  1  0
 29 30  1  0
 29 27  1  0
 31 29  2  0
M  END
$$$$
