WIN.pdb
     RDKit          3D

 31 32  0  0  1  0  0  0  0  0999 V2000
    6.7628  -17.0643   25.7390 N   0  0  0  0  0  0  0  0  0  0  0  0
    7.2784  -15.9796   24.9718 C   0  0  1  0  0  0  0  0  0  0  0  0
    8.5015  -15.4673   25.7080 C   0  0  0  0  0  0  0  0  0  0  0  0
    8.1916  -14.5007   26.7754 C   0  0  0  0  0  0  0  0  0  0  0  0
    8.5173  -14.5823   28.1119 C   0  0  0  0  0  0  0  0  0  0  0  0
    8.0626  -13.4821   28.7594 N   0  0  0  0  0  0  0  0  0  0  0  0
    7.4361  -12.6646   27.8664 C   0  0  0  0  0  0  0  0  0  0  0  0
    6.8149  -11.4461   28.0110 C   0  0  0  0  0  0  0  0  0  0  0  0
    6.2466  -10.8080   26.9310 C   0  0  0  0  0  0  0  0  0  0  0  0
    6.3323  -11.4484   25.7171 C   0  0  0  0  0  0  0  0  0  0  0  0
    6.9438  -12.6564   25.5533 C   0  0  0  0  0  0  0  0  0  0  0  0
    7.5222  -13.3032   26.6506 C   0  0  0  0  0  0  0  0  0  0  0  0
    7.7259  -16.3934   23.5904 C   0  0  0  0  0  0  0  0  0  0  0  0
    7.9983  -17.5864   23.3284 O   0  0  0  0  0  0  0  0  0  0  0  0
    7.0749  -12.3363   19.9973 C   0  0  0  0  0  0  0  0  0  0  0  0
    6.9853  -13.8469   20.2588 C   0  0  0  0  0  0  0  0  0  0  0  0
    8.3572  -14.3975   20.3614 C   0  0  2  0  0  0  0  0  0  0  0  0
    8.8495  -14.7590   18.9772 C   0  0  0  0  0  0  0  0  0  0  0  0
    8.5390  -15.5277   21.3383 C   0  0  2  0  0  0  0  0  0  0  0  0
    7.8439  -15.4307   22.5542 N   0  0  0  0  0  0  0  0  0  0  0  0
    9.9456  -15.9482   21.3402 C   0  0  0  0  0  0  0  0  0  0  0  0
   10.5723  -15.6118   22.4176 O   0  0  0  0  0  0  0  0  0  0  0  0
   12.3688  -20.9948   21.7521 N   0  0  0  0  0  0  0  0  0  0  0  0
   12.5019  -19.5856   21.9157 C   0  0  0  0  0  0  0  0  0  0  0  0
   13.6229  -19.1431   22.3337 O   0  0  0  0  0  0  0  0  0  0  0  0
   11.4331  -18.6351   21.6330 C   0  0  0  0  0  0  0  0  0  0  0  0
   11.8125  -17.5066   20.6833 C   0  0  2  0  0  0  0  0  0  0  0  0
   10.6804  -16.6361   20.3729 N   0  0  0  0  0  0  0  0  0  0  0  0
   12.4009  -18.1263   19.4975 C   0  0  0  0  0  0  0  0  0  0  0  0
   13.6103  -17.7472   18.9612 O   0  0  0  0  0  0  0  0  0  0  0  0
   11.8038  -19.0880   18.8745 O   0  0  0  0  0  0  0  0  0  0  0  0
  2 13  1  0
  2  1  1  1
  2  3  1  0
  4  3  1  0
  4  5  2  0
  6  5  1  0
  7  6  1  0
  8  7  2  0
  9  8  1  0
 10  9  2  0
 10 11  1  0
 11 12  2  0
 12  7  1  0
 12  4  1  0
 13 14  2  0
 16 15  1  0
 17 16  1  0
 17 18  1  6
 19 17  1  0
 19 20  1  1
 20 13  1  0
 21 19  1  0
 22 21  2  0
 24 23  1  0
 24 26  1  0
 25 24  2  0
 27 26  1  1
 27 28  1  0
 28 21  1  0
 29 30  1  0
 29 27  1  0
 31 29  2  0
M  END
$$$$
