WIN.pdb
     RDKit          3D

 31 32  0  0  1  0  0  0  0  0999 V2000
    6.7759  -16.9016   25.2383 N   0  0  0  0  0  0  0  0  0  0  0  0
    7.3061  -15.8058   24.4973 C   0  0  1  0  0  0  0  0  0  0  0  0
    8.5911  -15.3925   25.1891 C   0  0  0  0  0  0  0  0  0  0  0  0
    8.3800  -14.5807   26.4000 C   0  0  0  0  0  0  0  0  0  0  0  0
    8.9287  -14.7671   27.6502 C   0  0  0  0  0  0  0  0  0  0  0  0
    8.4942  -13.7944   28.4878 N   0  0  0  0  0  0  0  0  0  0  0  0
    7.6598  -12.9582   27.8075 C   0  0  0  0  0  0  0  0  0  0  0  0
    6.9680  -11.8335   28.1920 C   0  0  0  0  0  0  0  0  0  0  0  0
    6.1753  -11.1490   27.2977 C   0  0  0  0  0  0  0  0  0  0  0  0
    6.1136  -11.6463   26.0172 C   0  0  0  0  0  0  0  0  0  0  0  0
    6.7917  -12.7597   25.6167 C   0  0  0  0  0  0  0  0  0  0  0  0
    7.5979  -13.4536   26.5253 C   0  0  0  0  0  0  0  0  0  0  0  0
    7.6586  -16.1700   23.0751 C   0  0  0  0  0  0  0  0  0  0  0  0
    7.9219  -17.3509   22.7555 O   0  0  0  0  0  0  0  0  0  0  0  0
    8.2739  -11.8373   19.0088 C   0  0  0  0  0  0  0  0  0  0  0  0
    8.8380  -12.9754   19.8719 C   0  0  0  0  0  0  0  0  0  0  0  0
    7.8962  -14.1187   19.8322 C   0  0  2  0  0  0  0  0  0  0  0  0
    6.4859  -13.6041   20.0209 C   0  0  0  0  0  0  0  0  0  0  0  0
    8.2100  -15.2596   20.7622 C   0  0  2  0  0  0  0  0  0  0  0  0
    7.6950  -15.1732   22.0653 N   0  0  0  0  0  0  0  0  0  0  0  0
    9.6009  -15.6841   20.5601 C   0  0  0  0  0  0  0  0  0  0  0  0
    9.7767  -16.3310   19.4569 O   0  0  0  0  0  0  0  0  0  0  0  0
   12.5983  -14.7375   18.6634 N   0  0  0  0  0  0  0  0  0  0  0  0
   13.3875  -14.4923   19.8242 C   0  0  0  0  0  0  0  0  0  0  0  0
   14.3367  -13.6460   19.7248 O   0  0  0  0  0  0  0  0  0  0  0  0
   13.1672  -15.1531   21.1050 C   0  0  0  0  0  0  0  0  0  0  0  0
   12.0120  -16.1453   21.1249 C   0  0  2  0  0  0  0  0  0  0  0  0
   10.7250  -15.4964   21.3663 N   0  0  0  0  0  0  0  0  0  0  0  0
   12.3384  -17.1604   22.1246 C   0  0  0  0  0  0  0  0  0  0  0  0
   12.7735  -18.4273   21.8090 O   0  0  0  0  0  0  0  0  0  0  0  0
   12.2353  -16.9168   23.3893 O   0  0  0  0  0  0  0  0  0  0  0  0
  2 13  1  0
  2  1  1  1
  2  3  1  0
  4  3  1  0
  4  5  2  0
  6  5  1  0
  7  6  1  0
  8  7  2  0
  9  8  1  0
 10  9  2  0
 10 11  1  0
 11 12  2  0
 12  7  1  0
 12  4  1  0
 13 14  2  0
 16 15  1  0
 17 16  1  0
 17 18  1  1
 19 17  1  0
 19 20  1  1
 20 13  1  0
 21 19  1  0
 22 21  2  0
 24 23  1  0
 24 26  1  0
 25 24  2  0
 27 26  1  1
 27 28  1  0
 28 21  1  0
 29 30  1  0
 29 27  1  0
 31 29  2  0
M  END
$$$$
