FNI.pdb
     RDKit          3D

 28 28  0  0  1  0  0  0  0  0999 V2000
   28.5628  -21.8083   -9.5714 N   0  0  0  0  0  0  0  0  0  0  0  0
   27.3167  -21.1579   -9.3298 C   0  0  1  0  0  0  0  0  0  0  0  0
   27.6055  -19.7588   -8.8466 C   0  0  0  0  0  0  0  0  0  0  0  0
   27.8046  -19.7981   -7.3840 C   0  0  0  0  0  0  0  0  0  0  0  0
   26.7608  -20.0582   -6.5286 C   0  0  0  0  0  0  0  0  0  0  0  0
   26.9174  -20.0991   -5.1623 C   0  0  0  0  0  0  0  0  0  0  0  0
   28.1605  -19.8716   -4.6320 C   0  0  0  0  0  0  0  0  0  0  0  0
   29.2551  -19.6026   -5.4508 C   0  0  0  0  0  0  0  0  0  0  0  0
   29.0433  -19.5726   -6.8321 C   0  0  0  0  0  0  0  0  0  0  0  0
   26.4085  -21.1604  -10.5226 C   0  0  0  0  0  0  0  0  0  0  0  0
   26.9377  -21.1960  -11.6508 O   0  0  0  0  0  0  0  0  0  0  0  0
   21.8226  -21.5508  -13.2953 N   0  0  0  0  0  0  0  0  0  0  0  0
   21.5629  -21.6013  -11.9111 C   0  0  0  0  0  0  0  0  0  0  0  0
   20.3549  -21.7968  -11.5605 O   0  0  0  0  0  0  0  0  0  0  0  0
   22.5749  -21.4476  -10.8475 C   0  0  0  0  0  0  0  0  0  0  0  0
   23.9623  -21.1202  -11.3353 C   0  0  2  0  0  0  0  0  0  0  0  0
   25.0212  -21.1251  -10.4164 N   0  0  0  0  0  0  0  0  0  0  0  0
   23.9146  -20.0119  -12.2742 C   0  0  0  0  0  0  0  0  0  0  0  0
   23.2638  -18.9369  -12.0407 O   0  0  0  0  0  0  0  0  0  0  0  0
   27.9737  -17.2519  -15.5100 C   0  0  0  0  0  0  0  0  0  0  0  0
   26.4877  -17.3744  -15.3447 C   0  0  0  0  0  0  0  0  0  0  0  0
   26.1949  -18.5922  -14.5148 C   0  0  2  0  0  0  0  0  0  0  0  0
   27.0274  -19.7906  -14.8704 C   0  0  0  0  0  0  0  0  0  0  0  0
   24.7242  -18.8920  -14.3763 C   0  0  2  0  0  0  0  0  0  0  0  0
   24.5950  -20.0601  -13.5120 N   0  0  0  0  0  0  0  0  0  0  0  0
   24.0095  -19.0595  -15.6511 C   0  0  0  0  0  0  0  0  0  0  0  0
   23.8026  -20.2229  -16.0799 O   0  0  0  0  0  0  0  0  0  0  0  0
   23.5331  -18.0281  -16.4412 O   0  0  0  0  0  0  0  0  0  0  0  0
  2  1  1  6
  2  3  1  0
  2 10  1  0
  4  9  2  0
  4  3  1  0
  5  4  1  0
  6  7  1  0
  6  5  2  0
  7  8  2  0
  8  9  1  0
 10 11  2  0
 13 12  1  0
 13 14  2  0
 15 13  1  0
 16 15  1  1
 17 10  1  0
 17 16  1  0
 18 19  2  0
 18 16  1  0
 21 22  1  0
 21 20  1  0
 22 24  1  0
 22 23  1  6
 24 26  1  0
 24 25  1  1
 25 18  1  0
 26 28  1  0
 27 26  2  0
M  END
$$$$
