FNI.pdb
     RDKit          3D

 28 28  0  0  1  0  0  0  0  0999 V2000
   21.0262  -20.1485  -13.9691 N   0  0  0  0  0  0  0  0  0  0  0  0
   22.3771  -19.7065  -13.8514 C   0  0  1  0  0  0  0  0  0  0  0  0
   22.3788  -18.1986  -13.8684 C   0  0  0  0  0  0  0  0  0  0  0  0
   22.0368  -17.7433  -15.2309 C   0  0  0  0  0  0  0  0  0  0  0  0
   20.8762  -17.0510  -15.4815 C   0  0  0  0  0  0  0  0  0  0  0  0
   20.5319  -16.6166  -16.7407 C   0  0  0  0  0  0  0  0  0  0  0  0
   21.3765  -16.8837  -17.7864 C   0  0  0  0  0  0  0  0  0  0  0  0
   22.5663  -17.5820  -17.5916 C   0  0  0  0  0  0  0  0  0  0  0  0
   22.8703  -18.0011  -16.2933 C   0  0  0  0  0  0  0  0  0  0  0  0
   23.0732  -20.2522  -12.6409 C   0  0  0  0  0  0  0  0  0  0  0  0
   22.4274  -20.2982  -11.5756 O   0  0  0  0  0  0  0  0  0  0  0  0
   23.9272  -24.2731  -12.4476 N   0  0  0  0  0  0  0  0  0  0  0  0
   25.0289  -23.5373  -12.9279 C   0  0  0  0  0  0  0  0  0  0  0  0
   25.3071  -23.6615  -14.1639 O   0  0  0  0  0  0  0  0  0  0  0  0
   25.8755  -22.6417  -12.1156 C   0  0  0  0  0  0  0  0  0  0  0  0
   25.2335  -21.3318  -11.7389 C   0  0  2  0  0  0  0  0  0  0  0  0
   24.3906  -20.7006  -12.6645 N   0  0  0  0  0  0  0  0  0  0  0  0
   26.1891  -20.4879  -11.0411 C   0  0  0  0  0  0  0  0  0  0  0  0
   26.8862  -19.5967  -11.6359 O   0  0  0  0  0  0  0  0  0  0  0  0
   27.7925  -18.9171   -5.3475 C   0  0  0  0  0  0  0  0  0  0  0  0
   28.2070  -18.9779   -6.7880 C   0  0  0  0  0  0  0  0  0  0  0  0
   27.2026  -19.8017   -7.5432 C   0  0  2  0  0  0  0  0  0  0  0  0
   26.7674  -21.0468   -6.8250 C   0  0  0  0  0  0  0  0  0  0  0  0
   27.5680  -20.0284   -8.9879 C   0  0  2  0  0  0  0  0  0  0  0  0
   26.4023  -20.6049   -9.6489 N   0  0  0  0  0  0  0  0  0  0  0  0
   28.7816  -20.8335   -9.1947 C   0  0  0  0  0  0  0  0  0  0  0  0
   28.6636  -22.0745   -9.3564 O   0  0  0  0  0  0  0  0  0  0  0  0
   30.0732  -20.3375   -9.2276 O   0  0  0  0  0  0  0  0  0  0  0  0
  2  1  1  1
  2  3  1  0
  2 10  1  0
  4  9  2  0
  4  3  1  0
  5  4  1  0
  6  7  1  0
  6  5  2  0
  7  8  2  0
  8  9  1  0
 10 11  2  0
 13 12  1  0
 13 14  2  0
 15 13  1  0
 16 15  1  6
 17 10  1  0
 17 16  1  0
 18 19  2  0
 18 16  1  0
 21 22  1  0
 21 20  1  0
 22 24  1  0
 22 23  1  1
 24 26  1  0
 24 25  1  6
 25 18  1  0
 26 28  1  0
 27 26  2  0
M  END
$$$$
