FNI.pdb
     RDKit          3D

 28 28  0  0  1  0  0  0  0  0999 V2000
   25.7106  -18.4057  -17.9009 N   0  0  0  0  0  0  0  0  0  0  0  0
   25.6672  -18.0568  -16.5186 C   0  0  1  0  0  0  0  0  0  0  0  0
   24.9352  -16.7446  -16.3904 C   0  0  0  0  0  0  0  0  0  0  0  0
   25.9187  -15.6468  -16.4797 C   0  0  0  0  0  0  0  0  0  0  0  0
   26.2014  -15.0378  -17.6790 C   0  0  0  0  0  0  0  0  0  0  0  0
   27.1140  -14.0144  -17.7914 C   0  0  0  0  0  0  0  0  0  0  0  0
   27.7676  -13.5847  -16.6661 C   0  0  0  0  0  0  0  0  0  0  0  0
   27.5216  -14.1653  -15.4237 C   0  0  0  0  0  0  0  0  0  0  0  0
   26.5852  -15.2011  -15.3630 C   0  0  0  0  0  0  0  0  0  0  0  0
   25.0566  -19.1232  -15.6597 C   0  0  0  0  0  0  0  0  0  0  0  0
   24.2057  -19.8689  -16.1832 O   0  0  0  0  0  0  0  0  0  0  0  0
   25.5598  -22.3256  -10.7642 N   0  0  0  0  0  0  0  0  0  0  0  0
   25.0714  -21.0169  -10.9507 C   0  0  0  0  0  0  0  0  0  0  0  0
   24.1098  -20.6510  -10.2011 O   0  0  0  0  0  0  0  0  0  0  0  0
   25.5854  -20.0474  -11.9380 C   0  0  0  0  0  0  0  0  0  0  0  0
   24.8638  -20.0467  -13.2606 C   0  0  2  0  0  0  0  0  0  0  0  0
   25.4001  -19.3062  -14.3235 N   0  0  0  0  0  0  0  0  0  0  0  0
   23.4296  -19.9445  -13.0486 C   0  0  0  0  0  0  0  0  0  0  0  0
   22.8973  -18.9985  -12.3736 O   0  0  0  0  0  0  0  0  0  0  0  0
   20.1434  -18.9541  -16.4963 C   0  0  0  0  0  0  0  0  0  0  0  0
   20.8490  -19.1696  -15.1901 C   0  0  0  0  0  0  0  0  0  0  0  0
   20.4148  -20.4907  -14.6211 C   0  0  2  0  0  0  0  0  0  0  0  0
   18.9261  -20.6875  -14.5964 C   0  0  0  0  0  0  0  0  0  0  0  0
   21.0974  -20.8461  -13.3250 C   0  0  2  0  0  0  0  0  0  0  0  0
   22.5321  -20.8953  -13.5851 N   0  0  0  0  0  0  0  0  0  0  0  0
   20.6034  -22.0770  -12.6888 C   0  0  0  0  0  0  0  0  0  0  0  0
   19.6327  -21.9991  -11.8940 O   0  0  0  0  0  0  0  0  0  0  0  0
   21.1229  -23.3438  -12.8896 O   0  0  0  0  0  0  0  0  0  0  0  0
  2  1  1  6
  2  3  1  0
  2 10  1  0
  4  9  2  0
  4  3  1  0
  5  4  1  0
  6  7  1  0
  6  5  2  0
  7  8  2  0
  8  9  1  0
 10 11  2  0
 13 12  1  0
 13 14  2  0
 15 13  1  0
 16 15  1  1
 17 10  1  0
 17 16  1  0
 18 19  2  0
 18 16  1  0
 21 22  1  0
 21 20  1  0
 22 24  1  0
 22 23  1  1
 24 26  1  0
 24 25  1  6
 25 18  1  0
 26 28  1  0
 27 26  2  0
M  END
$$$$
