FNI.pdb
     RDKit          3D

 28 28  0  0  1  0  0  0  0  0999 V2000
   24.7444  -17.8930  -15.6309 N   0  0  0  0  0  0  0  0  0  0  0  0
   25.7872  -18.3661  -14.7806 C   0  0  1  0  0  0  0  0  0  0  0  0
   26.5339  -17.1697  -14.2466 C   0  0  0  0  0  0  0  0  0  0  0  0
   27.3457  -16.5962  -15.3386 C   0  0  0  0  0  0  0  0  0  0  0  0
   27.1520  -15.3055  -15.7696 C   0  0  0  0  0  0  0  0  0  0  0  0
   27.8924  -14.7465  -16.7856 C   0  0  0  0  0  0  0  0  0  0  0  0
   28.8600  -15.5037  -17.3927 C   0  0  0  0  0  0  0  0  0  0  0  0
   29.1001  -16.8181  -16.9977 C   0  0  0  0  0  0  0  0  0  0  0  0
   28.3210  -17.3390  -15.9607 C   0  0  0  0  0  0  0  0  0  0  0  0
   25.2928  -19.2536  -13.6781 C   0  0  0  0  0  0  0  0  0  0  0  0
   24.2549  -18.9078  -13.0805 O   0  0  0  0  0  0  0  0  0  0  0  0
   23.4334  -23.6969  -13.4269 N   0  0  0  0  0  0  0  0  0  0  0  0
   24.7257  -23.1971  -13.6841 C   0  0  0  0  0  0  0  0  0  0  0  0
   25.0503  -23.0467  -14.9057 O   0  0  0  0  0  0  0  0  0  0  0  0
   25.7211  -22.8371  -12.6552 C   0  0  0  0  0  0  0  0  0  0  0  0
   25.7543  -21.3759  -12.2893 C   0  0  2  0  0  0  0  0  0  0  0  0
   25.9400  -20.4280  -13.3055 N   0  0  0  0  0  0  0  0  0  0  0  0
   26.5152  -21.1830  -11.0662 C   0  0  0  0  0  0  0  0  0  0  0  0
   27.7211  -21.5853  -10.9327 O   0  0  0  0  0  0  0  0  0  0  0  0
   28.6799  -19.1412   -6.2089 C   0  0  0  0  0  0  0  0  0  0  0  0
   27.7491  -20.2318   -6.6500 C   0  0  0  0  0  0  0  0  0  0  0  0
   27.2210  -19.8909   -8.0147 C   0  0  2  0  0  0  0  0  0  0  0  0
   26.7215  -18.4804   -8.1435 C   0  0  0  0  0  0  0  0  0  0  0  0
   26.2777  -20.9243   -8.5752 C   0  0  2  0  0  0  0  0  0  0  0  0
   25.9589  -20.5300   -9.9431 N   0  0  0  0  0  0  0  0  0  0  0  0
   25.0714  -21.1568   -7.7662 C   0  0  0  0  0  0  0  0  0  0  0  0
   23.9669  -20.7342   -8.1924 O   0  0  0  0  0  0  0  0  0  0  0  0
   25.0406  -21.8136   -6.5485 O   0  0  0  0  0  0  0  0  0  0  0  0
  2  1  1  1
  2  3  1  0
  2 10  1  0
  4  9  2  0
  4  3  1  0
  5  4  1  0
  6  7  1  0
  6  5  2  0
  7  8  2  0
  8  9  1  0
 10 11  2  0
 13 12  1  0
 13 14  2  0
 15 13  1  0
 16 15  1  6
 17 10  1  0
 17 16  1  0
 18 19  2  0
 18 16  1  0
 21 22  1  0
 21 20  1  0
 22 24  1  0
 22 23  1  1
 24 26  1  0
 24 25  1  6
 25 18  1  0
 26 28  1  0
 27 26  2  0
M  END
$$$$
