FNI.pdb
     RDKit          3D

 28 28  0  0  1  0  0  0  0  0999 V2000
   27.0303  -10.3289  -19.3663 N   0  0  0  0  0  0  0  0  0  0  0  0
   25.7156  -10.4266  -18.8221 C   0  0  1  0  0  0  0  0  0  0  0  0
   25.6035  -11.7483  -18.1047 C   0  0  0  0  0  0  0  0  0  0  0  0
   25.6284  -12.8315  -19.1080 C   0  0  0  0  0  0  0  0  0  0  0  0
   24.4712  -13.2930  -19.6885 C   0  0  0  0  0  0  0  0  0  0  0  0
   24.4649  -14.3017  -20.6241 C   0  0  0  0  0  0  0  0  0  0  0  0
   25.6566  -14.8696  -20.9923 C   0  0  0  0  0  0  0  0  0  0  0  0
   26.8607  -14.4424  -20.4367 C   0  0  0  0  0  0  0  0  0  0  0  0
   26.8130  -13.4144  -19.4909 C   0  0  0  0  0  0  0  0  0  0  0  0
   25.3589   -9.2753  -17.9306 C   0  0  0  0  0  0  0  0  0  0  0  0
   26.2726   -8.7654  -17.2530 O   0  0  0  0  0  0  0  0  0  0  0  0
   23.6815   -5.0723  -15.0030 N   0  0  0  0  0  0  0  0  0  0  0  0
   23.5336   -5.2911  -16.3872 C   0  0  0  0  0  0  0  0  0  0  0  0
   22.7591   -4.4987  -17.0140 O   0  0  0  0  0  0  0  0  0  0  0  0
   24.2025   -6.3574  -17.1583 C   0  0  0  0  0  0  0  0  0  0  0  0
   23.4830   -7.6812  -17.1650 C   0  0  2  0  0  0  0  0  0  0  0  0
   24.0674   -8.7654  -17.8347 N   0  0  0  0  0  0  0  0  0  0  0  0
   22.0586   -7.4761  -17.3681 C   0  0  0  0  0  0  0  0  0  0  0  0
   21.5465   -7.2853  -18.5236 O   0  0  0  0  0  0  0  0  0  0  0  0
   18.5642  -10.8615  -16.8577 C   0  0  0  0  0  0  0  0  0  0  0  0
   19.3027   -9.6116  -17.2359 C   0  0  0  0  0  0  0  0  0  0  0  0
   19.0132   -8.5528  -16.2098 C   0  0  2  0  0  0  0  0  0  0  0  0
   17.5555   -8.3990  -15.8828 C   0  0  0  0  0  0  0  0  0  0  0  0
   19.7198   -7.2471  -16.4703 C   0  0  2  0  0  0  0  0  0  0  0  0
   21.1485   -7.4784  -16.2868 N   0  0  0  0  0  0  0  0  0  0  0  0
   19.2307   -6.1144  -15.6693 C   0  0  0  0  0  0  0  0  0  0  0  0
   18.2546   -5.4481  -16.0974 O   0  0  0  0  0  0  0  0  0  0  0  0
   19.7605   -5.7048  -14.4583 O   0  0  0  0  0  0  0  0  0  0  0  0
  2  1  1  1
  2  3  1  0
  2 10  1  0
  4  9  2  0
  4  3  1  0
  5  4  1  0
  6  7  1  0
  6  5  2  0
  7  8  2  0
  8  9  1  0
 10 11  2  0
 13 12  1  0
 13 14  2  0
 15 13  1  0
 16 15  1  6
 17 10  1  0
 17 16  1  0
 18 19  2  0
 18 16  1  0
 21 22  1  0
 21 20  1  0
 22 24  1  0
 22 23  1  6
 24 26  1  0
 24 25  1  1
 25 18  1  0
 26 28  1  0
 27 26  2  0
M  END
$$$$
