FNI.pdb
     RDKit          3D

 28 28  0  0  1  0  0  0  0  0999 V2000
   29.0679  -20.4303  -14.5386 N   0  0  0  0  0  0  0  0  0  0  0  0
   27.8935  -20.6748  -13.7672 C   0  0  1  0  0  0  0  0  0  0  0  0
   28.0113  -19.9010  -12.4782 C   0  0  0  0  0  0  0  0  0  0  0  0
   29.0907  -20.4993  -11.6675 C   0  0  0  0  0  0  0  0  0  0  0  0
   30.3871  -20.0532  -11.7648 C   0  0  0  0  0  0  0  0  0  0  0  0
   31.4123  -20.5933  -11.0231 C   0  0  0  0  0  0  0  0  0  0  0  0
   31.1326  -21.6155  -10.1540 C   0  0  0  0  0  0  0  0  0  0  0  0
   29.8370  -22.1084  -10.0143 C   0  0  0  0  0  0  0  0  0  0  0  0
   28.8312  -21.5254  -10.7901 C   0  0  0  0  0  0  0  0  0  0  0  0
   26.6271  -20.3489  -14.5005 C   0  0  0  0  0  0  0  0  0  0  0  0
   26.4624  -19.1704  -14.8720 O   0  0  0  0  0  0  0  0  0  0  0  0
   24.8045  -24.9106  -15.9794 N   0  0  0  0  0  0  0  0  0  0  0  0
   24.6261  -23.5833  -16.4181 C   0  0  0  0  0  0  0  0  0  0  0  0
   25.2802  -23.2272  -17.4505 O   0  0  0  0  0  0  0  0  0  0  0  0
   23.7466  -22.5849  -15.7789 C   0  0  0  0  0  0  0  0  0  0  0  0
   24.4134  -21.2768  -15.4410 C   0  0  2  0  0  0  0  0  0  0  0  0
   25.6474  -21.2983  -14.7758 N   0  0  0  0  0  0  0  0  0  0  0  0
   23.4282  -20.3210  -14.9634 C   0  0  0  0  0  0  0  0  0  0  0  0
   23.0578  -20.2638  -13.7413 O   0  0  0  0  0  0  0  0  0  0  0  0
   23.8200  -16.2695  -14.6650 C   0  0  0  0  0  0  0  0  0  0  0  0
   23.4907  -16.6636  -16.0745 C   0  0  0  0  0  0  0  0  0  0  0  0
   22.0654  -17.1370  -16.1210 C   0  0  2  0  0  0  0  0  0  0  0  0
   21.0544  -16.0665  -15.8249 C   0  0  0  0  0  0  0  0  0  0  0  0
   21.8288  -18.4222  -15.3698 C   0  0  2  0  0  0  0  0  0  0  0  0
   22.8186  -19.3886  -15.8331 N   0  0  0  0  0  0  0  0  0  0  0  0
   20.4560  -18.9425  -15.4611 C   0  0  0  0  0  0  0  0  0  0  0  0
   20.1056  -19.5436  -16.5080 O   0  0  0  0  0  0  0  0  0  0  0  0
   19.4909  -18.8273  -14.4759 O   0  0  0  0  0  0  0  0  0  0  0  0
  2  1  1  6
  2  3  1  0
  2 10  1  0
  4  9  2  0
  4  3  1  0
  5  4  1  0
  6  7  1  0
  6  5  2  0
  7  8  2  0
  8  9  1  0
 10 11  2  0
 13 12  1  0
 13 14  2  0
 15 13  1  0
 16 15  1  1
 17 10  1  0
 17 16  1  0
 18 19  2  0
 18 16  1  0
 21 22  1  0
 21 20  1  0
 22 24  1  0
 22 23  1  1
 24 26  1  0
 24 25  1  6
 25 18  1  0
 26 28  1  0
 27 26  2  0
M  END
$$$$
