FNI.pdb
     RDKit          3D

 28 28  0  0  1  0  0  0  0  0999 V2000
   24.0370  -13.4127  -18.4136 N   0  0  0  0  0  0  0  0  0  0  0  0
   23.9964  -12.5593  -17.2715 C   0  0  1  0  0  0  0  0  0  0  0  0
   25.4119  -12.1655  -16.9317 C   0  0  0  0  0  0  0  0  0  0  0  0
   26.1525  -13.3767  -16.5258 C   0  0  0  0  0  0  0  0  0  0  0  0
   27.0941  -13.9467  -17.3491 C   0  0  0  0  0  0  0  0  0  0  0  0
   27.7973  -15.0756  -16.9972 C   0  0  0  0  0  0  0  0  0  0  0  0
   27.5509  -15.6559  -15.7803 C   0  0  0  0  0  0  0  0  0  0  0  0
   26.6073  -15.1220  -14.9052 C   0  0  0  0  0  0  0  0  0  0  0  0
   25.9202  -13.9740  -15.3097 C   0  0  0  0  0  0  0  0  0  0  0  0
   23.1137  -11.3623  -17.4602 C   0  0  0  0  0  0  0  0  0  0  0  0
   23.3908  -10.5820  -18.3921 O   0  0  0  0  0  0  0  0  0  0  0  0
   19.3527  -12.3042  -17.5057 N   0  0  0  0  0  0  0  0  0  0  0  0
   18.9626  -11.4852  -16.4273 C   0  0  0  0  0  0  0  0  0  0  0  0
   17.8420  -11.7476  -15.8833 O   0  0  0  0  0  0  0  0  0  0  0  0
   19.7470  -10.3585  -15.8849 C   0  0  0  0  0  0  0  0  0  0  0  0
   21.0446  -10.0870  -16.6007 C   0  0  2  0  0  0  0  0  0  0  0  0
   22.0162  -11.0968  -16.6465 N   0  0  0  0  0  0  0  0  0  0  0  0
   21.5100   -8.7430  -16.3017 C   0  0  0  0  0  0  0  0  0  0  0  0
   22.1890   -8.4645  -15.2551 O   0  0  0  0  0  0  0  0  0  0  0  0
   23.0225   -5.7791  -20.3964 C   0  0  0  0  0  0  0  0  0  0  0  0
   22.8795   -6.4765  -19.0759 C   0  0  0  0  0  0  0  0  0  0  0  0
   22.0149   -5.6360  -18.1793 C   0  0  2  0  0  0  0  0  0  0  0  0
   22.4767   -4.2136  -18.0408 C   0  0  0  0  0  0  0  0  0  0  0  0
   21.6792   -6.2976  -16.8672 C   0  0  2  0  0  0  0  0  0  0  0  0
   21.2366   -7.6560  -17.1625 N   0  0  0  0  0  0  0  0  0  0  0  0
   20.7102   -5.5627  -16.0397 C   0  0  0  0  0  0  0  0  0  0  0  0
   19.4849   -5.6827  -16.2932 O   0  0  0  0  0  0  0  0  0  0  0  0
   21.0322   -4.7302  -14.9821 O   0  0  0  0  0  0  0  0  0  0  0  0
  2  1  1  6
  2  3  1  0
  2 10  1  0
  4  9  2  0
  4  3  1  0
  5  4  1  0
  6  7  1  0
  6  5  2  0
  7  8  2  0
  8  9  1  0
 10 11  2  0
 13 12  1  0
 13 14  2  0
 15 13  1  0
 16 15  1  1
 17 10  1  0
 17 16  1  0
 18 19  2  0
 18 16  1  0
 21 22  1  0
 21 20  1  0
 22 24  1  0
 22 23  1  1
 24 26  1  0
 24 25  1  6
 25 18  1  0
 26 28  1  0
 27 26  2  0
M  END
$$$$
