FNI.pdb
     RDKit          3D

 28 28  0  0  1  0  0  0  0  0999 V2000
   28.4353  -21.4166   -9.4627 N   0  0  0  0  0  0  0  0  0  0  0  0
   27.0858  -20.9602   -9.3929 C   0  0  1  0  0  0  0  0  0  0  0  0
   27.0777  -19.6328   -8.6773 C   0  0  0  0  0  0  0  0  0  0  0  0
   27.6062  -19.8309   -7.3128 C   0  0  0  0  0  0  0  0  0  0  0  0
   26.9441  -20.6144   -6.3980 C   0  0  0  0  0  0  0  0  0  0  0  0
   27.4126  -20.8147   -5.1200 C   0  0  0  0  0  0  0  0  0  0  0  0
   28.5833  -20.2105   -4.7424 C   0  0  0  0  0  0  0  0  0  0  0  0
   29.2967  -19.4050   -5.6275 C   0  0  0  0  0  0  0  0  0  0  0  0
   28.7785  -19.2337   -6.9143 C   0  0  0  0  0  0  0  0  0  0  0  0
   26.4211  -20.8758  -10.7340 C   0  0  0  0  0  0  0  0  0  0  0  0
   27.0944  -20.4322  -11.6848 O   0  0  0  0  0  0  0  0  0  0  0  0
   25.4537  -24.6998  -13.0835 N   0  0  0  0  0  0  0  0  0  0  0  0
   25.0220  -23.3823  -13.3358 C   0  0  0  0  0  0  0  0  0  0  0  0
   25.6387  -22.7407  -14.2461 O   0  0  0  0  0  0  0  0  0  0  0  0
   23.9196  -22.6969  -12.6331 C   0  0  0  0  0  0  0  0  0  0  0  0
   24.2692  -21.3418  -12.0750 C   0  0  2  0  0  0  0  0  0  0  0  0
   25.1034  -21.2679  -10.9505 N   0  0  0  0  0  0  0  0  0  0  0  0
   23.0985  -20.4807  -12.0800 C   0  0  0  0  0  0  0  0  0  0  0  0
   22.4379  -20.2076  -11.0203 O   0  0  0  0  0  0  0  0  0  0  0  0
   20.6155  -16.2353  -15.7063 C   0  0  0  0  0  0  0  0  0  0  0  0
   20.3748  -17.1517  -14.5432 C   0  0  0  0  0  0  0  0  0  0  0  0
   21.5337  -18.1015  -14.4314 C   0  0  2  0  0  0  0  0  0  0  0  0
   21.9533  -18.7122  -15.7378 C   0  0  0  0  0  0  0  0  0  0  0  0
   21.3937  -19.0991  -13.3102 C   0  0  2  0  0  0  0  0  0  0  0  0
   22.6201  -19.8881  -13.2705 N   0  0  0  0  0  0  0  0  0  0  0  0
   20.1904  -19.9420  -13.3855 C   0  0  0  0  0  0  0  0  0  0  0  0
   19.1012  -19.4802  -12.9605 O   0  0  0  0  0  0  0  0  0  0  0  0
   20.1470  -21.2286  -13.8932 O   0  0  0  0  0  0  0  0  0  0  0  0
  2  1  1  6
  2  3  1  0
  2 10  1  0
  4  9  2  0
  4  3  1  0
  5  4  1  0
  6  7  1  0
  6  5  2  0
  7  8  2  0
  8  9  1  0
 10 11  2  0
 13 12  1  0
 13 14  2  0
 15 13  1  0
 16 15  1  1
 17 10  1  0
 17 16  1  0
 18 19  2  0
 18 16  1  0
 21 22  1  0
 21 20  1  0
 22 24  1  0
 22 23  1  6
 24 26  1  0
 24 25  1  6
 25 18  1  0
 26 28  1  0
 27 26  2  0
M  END
$$$$
