FNI.pdb
     RDKit          3D

 28 28  0  0  1  0  0  0  0  0999 V2000
   28.1404  -21.5670   -8.9666 N   0  0  0  0  0  0  0  0  0  0  0  0
   26.9821  -20.8311   -8.5780 C   0  0  1  0  0  0  0  0  0  0  0  0
   27.4290  -19.4692   -8.1094 C   0  0  0  0  0  0  0  0  0  0  0  0
   27.9634  -19.5955   -6.7387 C   0  0  0  0  0  0  0  0  0  0  0  0
   29.2453  -20.0357   -6.5104 C   0  0  0  0  0  0  0  0  0  0  0  0
   29.7681  -20.1646   -5.2443 C   0  0  0  0  0  0  0  0  0  0  0  0
   28.9826  -19.8428   -4.1685 C   0  0  0  0  0  0  0  0  0  0  0  0
   27.6755  -19.3918   -4.3397 C   0  0  0  0  0  0  0  0  0  0  0  0
   27.1918  -19.2780   -5.6461 C   0  0  0  0  0  0  0  0  0  0  0  0
   25.9508  -20.7381   -9.6622 C   0  0  0  0  0  0  0  0  0  0  0  0
   26.3307  -20.3657  -10.7896 O   0  0  0  0  0  0  0  0  0  0  0  0
   20.3947  -22.0955   -8.5113 N   0  0  0  0  0  0  0  0  0  0  0  0
   21.8014  -22.0796   -8.5945 C   0  0  0  0  0  0  0  0  0  0  0  0
   22.4325  -21.6714   -7.5671 O   0  0  0  0  0  0  0  0  0  0  0  0
   22.5909  -22.4972   -9.7698 C   0  0  0  0  0  0  0  0  0  0  0  0
   23.5562  -21.4616  -10.2852 C   0  0  2  0  0  0  0  0  0  0  0  0
   24.6093  -21.0470   -9.4577 N   0  0  0  0  0  0  0  0  0  0  0  0
   22.8388  -20.4216  -11.0035 C   0  0  0  0  0  0  0  0  0  0  0  0
   22.5805  -19.2801  -10.4895 O   0  0  0  0  0  0  0  0  0  0  0  0
   23.2898  -17.6703  -16.0355 C   0  0  0  0  0  0  0  0  0  0  0  0
   22.2701  -17.9491  -14.9711 C   0  0  0  0  0  0  0  0  0  0  0  0
   22.6892  -19.1771  -14.2134 C   0  0  2  0  0  0  0  0  0  0  0  0
   23.0809  -20.3330  -15.0887 C   0  0  0  0  0  0  0  0  0  0  0  0
   21.7483  -19.5506  -13.0965 C   0  0  2  0  0  0  0  0  0  0  0  0
   22.3830  -20.6153  -12.3272 N   0  0  0  0  0  0  0  0  0  0  0  0
   20.3905  -19.9109  -13.5328 C   0  0  0  0  0  0  0  0  0  0  0  0
   20.1593  -21.0996  -13.8700 O   0  0  0  0  0  0  0  0  0  0  0  0
   19.3183  -19.0393  -13.6085 O   0  0  0  0  0  0  0  0  0  0  0  0
  2  1  1  6
  2  3  1  0
  2 10  1  0
  4  9  2  0
  4  3  1  0
  5  4  1  0
  6  7  1  0
  6  5  2  0
  7  8  2  0
  8  9  1  0
 10 11  2  0
 13 12  1  0
 13 14  2  0
 15 13  1  0
 16 15  1  1
 17 10  1  0
 17 16  1  0
 18 19  2  0
 18 16  1  0
 21 22  1  0
 21 20  1  0
 22 24  1  0
 22 23  1  6
 24 26  1  0
 24 25  1  6
 25 18  1  0
 26 28  1  0
 27 26  2  0
M  END
$$$$
