FNI.pdb
     RDKit          3D

 28 28  0  0  1  0  0  0  0  0999 V2000
   23.4040  -17.7377  -17.8410 N   0  0  0  0  0  0  0  0  0  0  0  0
   24.5730  -18.2013  -17.1682 C   0  0  1  0  0  0  0  0  0  0  0  0
   25.2485  -17.0127  -16.5318 C   0  0  0  0  0  0  0  0  0  0  0  0
   25.9392  -16.2439  -17.5864 C   0  0  0  0  0  0  0  0  0  0  0  0
   25.3792  -15.1107  -18.1262 C   0  0  0  0  0  0  0  0  0  0  0  0
   25.9994  -14.3765  -19.1106 C   0  0  0  0  0  0  0  0  0  0  0  0
   27.2220  -14.7892  -19.5723 C   0  0  0  0  0  0  0  0  0  0  0  0
   27.8373  -15.9305  -19.0624 C   0  0  0  0  0  0  0  0  0  0  0  0
   27.1659  -16.6410  -18.0633 C   0  0  0  0  0  0  0  0  0  0  0  0
   24.2895  -19.2832  -16.1699 C   0  0  0  0  0  0  0  0  0  0  0  0
   23.2167  -19.2188  -15.5381 O   0  0  0  0  0  0  0  0  0  0  0  0
   24.3039  -24.6595  -14.5156 N   0  0  0  0  0  0  0  0  0  0  0  0
   25.4887  -23.9190  -14.6999 C   0  0  0  0  0  0  0  0  0  0  0  0
   26.4996  -24.2731  -14.0121 O   0  0  0  0  0  0  0  0  0  0  0  0
   25.6456  -22.7765  -15.6213 C   0  0  0  0  0  0  0  0  0  0  0  0
   25.1508  -21.4579  -15.0860 C   0  0  2  0  0  0  0  0  0  0  0  0
   25.1657  -20.3372  -15.9282 N   0  0  0  0  0  0  0  0  0  0  0  0
   25.6219  -21.2612  -13.7252 C   0  0  0  0  0  0  0  0  0  0  0  0
   26.8503  -21.0465  -13.4443 O   0  0  0  0  0  0  0  0  0  0  0  0
   26.5604  -18.7427   -9.0698 C   0  0  0  0  0  0  0  0  0  0  0  0
   26.4663  -20.1435   -9.5985 C   0  0  0  0  0  0  0  0  0  0  0  0
   25.3233  -20.2146  -10.5712 C   0  0  2  0  0  0  0  0  0  0  0  0
   24.0252  -19.6869  -10.0307 C   0  0  0  0  0  0  0  0  0  0  0  0
   25.1977  -21.5483  -11.2623 C   0  0  2  0  0  0  0  0  0  0  0  0
   24.7377  -21.2945  -12.6232 N   0  0  0  0  0  0  0  0  0  0  0  0
   24.3515  -22.5257  -10.5606 C   0  0  0  0  0  0  0  0  0  0  0  0
   24.6830  -22.8931   -9.4051 O   0  0  0  0  0  0  0  0  0  0  0  0
   23.1957  -23.0921  -11.0690 O   0  0  0  0  0  0  0  0  0  0  0  0
  2  1  1  1
  2  3  1  0
  2 10  1  0
  4  9  2  0
  4  3  1  0
  5  4  1  0
  6  7  1  0
  6  5  2  0
  7  8  2  0
  8  9  1  0
 10 11  2  0
 13 12  1  0
 13 14  2  0
 15 13  1  0
 16 15  1  6
 17 10  1  0
 17 16  1  0
 18 19  2  0
 18 16  1  0
 21 22  1  0
 21 20  1  0
 22 24  1  0
 22 23  1  1
 24 26  1  0
 24 25  1  6
 25 18  1  0
 26 28  1  0
 27 26  2  0
M  END
$$$$
