FNI.pdb
     RDKit          3D

 28 28  0  0  1  0  0  0  0  0999 V2000
   28.5508  -19.8438  -15.3304 N   0  0  0  0  0  0  0  0  0  0  0  0
   27.3730  -20.4164  -14.7655 C   0  0  1  0  0  0  0  0  0  0  0  0
   27.1633  -19.8052  -13.4029 C   0  0  0  0  0  0  0  0  0  0  0  0
   28.2606  -20.2431  -12.5171 C   0  0  0  0  0  0  0  0  0  0  0  0
   28.1142  -21.3239  -11.6807 C   0  0  0  0  0  0  0  0  0  0  0  0
   29.1188  -21.7525  -10.8441 C   0  0  0  0  0  0  0  0  0  0  0  0
   30.3114  -21.0772  -10.8426 C   0  0  0  0  0  0  0  0  0  0  0  0
   30.5162  -19.9744  -11.6690 C   0  0  0  0  0  0  0  0  0  0  0  0
   29.4643  -19.5794  -12.5004 C   0  0  0  0  0  0  0  0  0  0  0  0
   26.1643  -20.2619  -15.6389 C   0  0  0  0  0  0  0  0  0  0  0  0
   25.8542  -19.1086  -15.9962 O   0  0  0  0  0  0  0  0  0  0  0  0
   21.5784  -21.5814  -18.7355 N   0  0  0  0  0  0  0  0  0  0  0  0
   22.2031  -22.4376  -17.8067 C   0  0  0  0  0  0  0  0  0  0  0  0
   21.4572  -23.2784  -17.2093 O   0  0  0  0  0  0  0  0  0  0  0  0
   23.6422  -22.4346  -17.4781 C   0  0  0  0  0  0  0  0  0  0  0  0
   24.0304  -21.5274  -16.3396 C   0  0  2  0  0  0  0  0  0  0  0  0
   25.3909  -21.3409  -16.0568 N   0  0  0  0  0  0  0  0  0  0  0  0
   23.1488  -21.7429  -15.2045 C   0  0  0  0  0  0  0  0  0  0  0  0
   23.3391  -22.6738  -14.3495 O   0  0  0  0  0  0  0  0  0  0  0  0
   22.2765  -20.5157  -10.4584 C   0  0  0  0  0  0  0  0  0  0  0  0
   21.2613  -19.9722  -11.4199 C   0  0  0  0  0  0  0  0  0  0  0  0
   21.8630  -19.9563  -12.7966 C   0  0  2  0  0  0  0  0  0  0  0  0
   21.9944  -18.5837  -13.3919 C   0  0  0  0  0  0  0  0  0  0  0  0
   21.2594  -20.9711  -13.7337 C   0  0  2  0  0  0  0  0  0  0  0  0
   22.0193  -20.9241  -14.9781 N   0  0  0  0  0  0  0  0  0  0  0  0
   19.8137  -20.8165  -13.9567 C   0  0  0  0  0  0  0  0  0  0  0  0
   19.0369  -20.9087  -12.9727 O   0  0  0  0  0  0  0  0  0  0  0  0
   19.2158  -20.5737  -15.1809 O   0  0  0  0  0  0  0  0  0  0  0  0
  2  1  1  6
  2  3  1  0
  2 10  1  0
  4  9  2  0
  4  3  1  0
  5  4  1  0
  6  7  1  0
  6  5  2  0
  7  8  2  0
  8  9  1  0
 10 11  2  0
 13 12  1  0
 13 14  2  0
 15 13  1  0
 16 15  1  6
 17 10  1  0
 17 16  1  0
 18 19  2  0
 18 16  1  0
 21 22  1  0
 21 20  1  0
 22 24  1  0
 22 23  1  6
 24 26  1  0
 24 25  1  6
 25 18  1  0
 26 28  1  0
 27 26  2  0
M  END
$$$$
