FNI.pdb
     RDKit          3D

 28 28  0  0  1  0  0  0  0  0999 V2000
   14.3156  -20.0806    3.0679 N   0  0  0  0  0  0  0  0  0  0  0  0
   15.5119  -19.7608    3.7756 C   0  0  1  0  0  0  0  0  0  0  0  0
   16.6678  -19.8697    2.8133 C   0  0  0  0  0  0  0  0  0  0  0  0
   16.8733  -21.2946    2.4846 C   0  0  0  0  0  0  0  0  0  0  0  0
   16.3557  -21.8437    1.3358 C   0  0  0  0  0  0  0  0  0  0  0  0
   16.5302  -23.1679    1.0058 C   0  0  0  0  0  0  0  0  0  0  0  0
   17.2467  -23.9719    1.8534 C   0  0  0  0  0  0  0  0  0  0  0  0
   17.7942  -23.4698    3.0321 C   0  0  0  0  0  0  0  0  0  0  0  0
   17.5887  -22.1179    3.3214 C   0  0  0  0  0  0  0  0  0  0  0  0
   15.4633  -18.4179    4.4403 C   0  0  0  0  0  0  0  0  0  0  0  0
   14.7044  -17.5587    3.9505 O   0  0  0  0  0  0  0  0  0  0  0  0
   13.2409  -16.6822    8.0854 N   0  0  0  0  0  0  0  0  0  0  0  0
   14.3086  -17.5908    7.9435 C   0  0  0  0  0  0  0  0  0  0  0  0
   14.0070  -18.8261    7.8837 O   0  0  0  0  0  0  0  0  0  0  0  0
   15.7357  -17.2230    7.8584 C   0  0  0  0  0  0  0  0  0  0  0  0
   16.2565  -17.0239    6.4587 C   0  0  2  0  0  0  0  0  0  0  0  0
   16.2217  -18.1028    5.5640 N   0  0  0  0  0  0  0  0  0  0  0  0
   17.4763  -16.2342    6.4857 C   0  0  0  0  0  0  0  0  0  0  0  0
   18.6214  -16.7413    6.7415 O   0  0  0  0  0  0  0  0  0  0  0  0
   18.0673  -12.6858    2.6975 C   0  0  0  0  0  0  0  0  0  0  0  0
   18.1430  -13.7364    3.7656 C   0  0  0  0  0  0  0  0  0  0  0  0
   18.5812  -13.0878    5.0481 C   0  0  2  0  0  0  0  0  0  0  0  0
   19.7699  -12.1817    4.9013 C   0  0  0  0  0  0  0  0  0  0  0  0
   18.6854  -14.0458    6.2071 C   0  0  2  0  0  0  0  0  0  0  0  0
   17.4651  -14.8451    6.2254 N   0  0  0  0  0  0  0  0  0  0  0  0
   18.9555  -13.4105    7.5060 C   0  0  0  0  0  0  0  0  0  0  0  0
   20.1498  -13.2254    7.8518 O   0  0  0  0  0  0  0  0  0  0  0  0
   17.9914  -12.9881    8.4045 O   0  0  0  0  0  0  0  0  0  0  0  0
  2  1  1  6
  2  3  1  0
  2 10  1  0
  4  9  2  0
  4  3  1  0
  5  4  1  0
  6  7  1  0
  6  5  2  0
  7  8  2  0
  8  9  1  0
 10 11  2  0
 13 12  1  0
 13 14  2  0
 15 13  1  0
 16 15  1  1
 17 10  1  0
 17 16  1  0
 18 19  2  0
 18 16  1  0
 21 22  1  0
 21 20  1  0
 22 24  1  0
 22 23  1  6
 24 26  1  0
 24 25  1  1
 25 18  1  0
 26 28  1  0
 27 26  2  0
M  END
$$$$
