FNI.pdb
     RDKit          3D

 28 28  0  0  1  0  0  0  0  0999 V2000
   27.9229  -19.5463  -14.2526 N   0  0  0  0  0  0  0  0  0  0  0  0
   26.8614  -20.3040  -13.6753 C   0  0  1  0  0  0  0  0  0  0  0  0
   27.1308  -21.7638  -13.9410 C   0  0  0  0  0  0  0  0  0  0  0  0
   26.3258  -22.1864  -15.1045 C   0  0  0  0  0  0  0  0  0  0  0  0
   26.9093  -22.4322  -16.3245 C   0  0  0  0  0  0  0  0  0  0  0  0
   26.1835  -22.8252  -17.4253 C   0  0  0  0  0  0  0  0  0  0  0  0
   24.8270  -22.9775  -17.3031 C   0  0  0  0  0  0  0  0  0  0  0  0
   24.1816  -22.7419  -16.0910 C   0  0  0  0  0  0  0  0  0  0  0  0
   24.9641  -22.3449  -15.0030 C   0  0  0  0  0  0  0  0  0  0  0  0
   26.6664  -20.0290  -12.2146 C   0  0  0  0  0  0  0  0  0  0  0  0
   27.5635  -19.3988  -11.6212 O   0  0  0  0  0  0  0  0  0  0  0  0
   23.1227  -19.1666   -7.7886 N   0  0  0  0  0  0  0  0  0  0  0  0
   23.2569  -20.3918   -8.4718 C   0  0  0  0  0  0  0  0  0  0  0  0
   23.0345  -21.4505   -7.8008 O   0  0  0  0  0  0  0  0  0  0  0  0
   23.6307  -20.5397   -9.8921 C   0  0  0  0  0  0  0  0  0  0  0  0
   25.0838  -20.2817  -10.1952 C   0  0  2  0  0  0  0  0  0  0  0  0
   25.5399  -20.4448  -11.5110 N   0  0  0  0  0  0  0  0  0  0  0  0
   25.9203  -20.8276   -9.1395 C   0  0  0  0  0  0  0  0  0  0  0  0
   26.3212  -22.0413   -9.1343 O   0  0  0  0  0  0  0  0  0  0  0  0
   29.9683  -18.8833   -5.0798 C   0  0  0  0  0  0  0  0  0  0  0  0
   29.0807  -20.0268   -5.4733 C   0  0  0  0  0  0  0  0  0  0  0  0
   28.0814  -19.5351   -6.4819 C   0  0  2  0  0  0  0  0  0  0  0  0
   27.4358  -18.2288   -6.1179 C   0  0  0  0  0  0  0  0  0  0  0  0
   27.1056  -20.5916   -6.9331 C   0  0  2  0  0  0  0  0  0  0  0  0
   26.3444  -20.0371   -8.0473 N   0  0  0  0  0  0  0  0  0  0  0  0
   26.2355  -21.1173   -5.8699 C   0  0  0  0  0  0  0  0  0  0  0  0
   26.7606  -21.7338   -4.9085 O   0  0  0  0  0  0  0  0  0  0  0  0
   24.8578  -20.9928   -5.8308 O   0  0  0  0  0  0  0  0  0  0  0  0
  2  1  1  1
  2  3  1  0
  2 10  1  0
  4  9  2  0
  4  3  1  0
  5  4  1  0
  6  7  1  0
  6  5  2  0
  7  8  2  0
  8  9  1  0
 10 11  2  0
 13 12  1  0
 13 14  2  0
 15 13  1  0
 16 15  1  6
 17 10  1  0
 17 16  1  0
 18 19  2  0
 18 16  1  0
 21 22  1  0
 21 20  1  0
 22 24  1  0
 22 23  1  1
 24 26  1  0
 24 25  1  6
 25 18  1  0
 26 28  1  0
 27 26  2  0
M  END
$$$$
