FNI.pdb
     RDKit          3D

 28 28  0  0  1  0  0  0  0  0999 V2000
   35.3633  -31.0204  -17.9651 N   0  0  0  0  0  0  0  0  0  0  0  0
   35.5540  -32.4080  -17.6959 C   0  0  1  0  0  0  0  0  0  0  0  0
   36.8719  -32.8244  -18.2992 C   0  0  0  0  0  0  0  0  0  0  0  0
   36.7574  -32.7593  -19.7699 C   0  0  0  0  0  0  0  0  0  0  0  0
   36.3616  -33.8518  -20.5039 C   0  0  0  0  0  0  0  0  0  0  0  0
   36.2481  -33.8197  -21.8747 C   0  0  0  0  0  0  0  0  0  0  0  0
   36.5408  -32.6553  -22.5354 C   0  0  0  0  0  0  0  0  0  0  0  0
   36.9472  -31.5165  -21.8433 C   0  0  0  0  0  0  0  0  0  0  0  0
   37.0464  -31.6010  -20.4517 C   0  0  0  0  0  0  0  0  0  0  0  0
   35.4776  -32.7420  -16.2364 C   0  0  0  0  0  0  0  0  0  0  0  0
   35.0270  -31.8701  -15.4677 O   0  0  0  0  0  0  0  0  0  0  0  0
   33.8833  -35.4285  -12.3024 N   0  0  0  0  0  0  0  0  0  0  0  0
   33.2404  -35.4434  -13.5563 C   0  0  0  0  0  0  0  0  0  0  0  0
   31.9840  -35.6483  -13.5547 O   0  0  0  0  0  0  0  0  0  0  0  0
   33.9058  -35.2402  -14.8582 C   0  0  0  0  0  0  0  0  0  0  0  0
   35.3616  -34.8616  -14.7736 C   0  0  2  0  0  0  0  0  0  0  0  0
   35.8845  -33.9684  -15.7194 N   0  0  0  0  0  0  0  0  0  0  0  0
   36.1661  -36.0313  -14.4623 C   0  0  0  0  0  0  0  0  0  0  0  0
   36.3968  -36.9568  -15.3132 O   0  0  0  0  0  0  0  0  0  0  0  0
   38.0638  -37.2763   -9.0965 C   0  0  0  0  0  0  0  0  0  0  0  0
   37.3036  -37.4152  -10.3823 C   0  0  0  0  0  0  0  0  0  0  0  0
   38.2252  -37.0892  -11.5234 C   0  0  2  0  0  0  0  0  0  0  0  0
   38.9059  -35.7562  -11.3994 C   0  0  0  0  0  0  0  0  0  0  0  0
   37.6207  -37.3401  -12.8813 C   0  0  2  0  0  0  0  0  0  0  0  0
   36.7472  -36.2123  -13.1867 N   0  0  0  0  0  0  0  0  0  0  0  0
   36.9312  -38.6324  -13.0166 C   0  0  0  0  0  0  0  0  0  0  0  0
   35.6814  -38.6674  -12.8866 O   0  0  0  0  0  0  0  0  0  0  0  0
   37.5479  -39.8430  -13.2797 O   0  0  0  0  0  0  0  0  0  0  0  0
  2  1  1  1
  2  3  1  0
  2 10  1  0
  4  9  2  0
  4  3  1  0
  5  4  1  0
  6  7  1  0
  6  5  2  0
  7  8  2  0
  8  9  1  0
 10 11  2  0
 13 12  1  0
 13 14  2  0
 15 13  1  0
 16 15  1  6
 17 10  1  0
 17 16  1  0
 18 19  2  0
 18 16  1  0
 21 22  1  0
 21 20  1  0
 22 24  1  0
 22 23  1  6
 24 26  1  0
 24 25  1  1
 25 18  1  0
 26 28  1  0
 27 26  2  0
M  END
$$$$
