FNI.pdb
     RDKit          3D

 28 28  0  0  1  0  0  0  0  0999 V2000
   25.9827  -18.8903  -15.3654 N   0  0  0  0  0  0  0  0  0  0  0  0
   26.6431  -18.7266  -14.1119 C   0  0  1  0  0  0  0  0  0  0  0  0
   27.2988  -17.3686  -14.1028 C   0  0  0  0  0  0  0  0  0  0  0  0
   28.2735  -17.3094  -15.2104 C   0  0  0  0  0  0  0  0  0  0  0  0
   28.1867  -16.3458  -16.1865 C   0  0  0  0  0  0  0  0  0  0  0  0
   29.0797  -16.2684  -17.2303 C   0  0  0  0  0  0  0  0  0  0  0  0
   30.0947  -17.1864  -17.3017 C   0  0  0  0  0  0  0  0  0  0  0  0
   30.2316  -18.1857  -16.3406 C   0  0  0  0  0  0  0  0  0  0  0  0
   29.2987  -18.2208  -15.3003 C   0  0  0  0  0  0  0  0  0  0  0  0
   25.7325  -18.9150  -12.9360 C   0  0  0  0  0  0  0  0  0  0  0  0
   24.6672  -18.2677  -12.9215 O   0  0  0  0  0  0  0  0  0  0  0  0
   25.3293  -22.4935  -12.4354 N   0  0  0  0  0  0  0  0  0  0  0  0
   24.2066  -22.1379  -11.6616 C   0  0  0  0  0  0  0  0  0  0  0  0
   23.1918  -22.9028  -11.7372 O   0  0  0  0  0  0  0  0  0  0  0  0
   24.1188  -20.9588  -10.7779 C   0  0  0  0  0  0  0  0  0  0  0  0
   25.3776  -20.1353  -10.6930 C   0  0  2  0  0  0  0  0  0  0  0  0
   26.0294  -19.7713  -11.8797 N   0  0  0  0  0  0  0  0  0  0  0  0
   26.2152  -20.6114   -9.6049 C   0  0  0  0  0  0  0  0  0  0  0  0
   27.1148  -21.5050   -9.7664 O   0  0  0  0  0  0  0  0  0  0  0  0
   29.3012  -18.0072   -6.5909 C   0  0  0  0  0  0  0  0  0  0  0  0
   28.5446  -19.0394   -7.3737 C   0  0  0  0  0  0  0  0  0  0  0  0
   27.5654  -19.7160   -6.4567 C   0  0  2  0  0  0  0  0  0  0  0  0
   28.1631  -20.1861   -5.1615 C   0  0  0  0  0  0  0  0  0  0  0  0
   26.7077  -20.7491   -7.1417 C   0  0  2  0  0  0  0  0  0  0  0  0
   26.0821  -20.1056   -8.2919 N   0  0  0  0  0  0  0  0  0  0  0  0
   25.7246  -21.4076   -6.2679 C   0  0  0  0  0  0  0  0  0  0  0  0
   26.1403  -22.1219   -5.3208 O   0  0  0  0  0  0  0  0  0  0  0  0
   24.3501  -21.3108   -6.3968 O   0  0  0  0  0  0  0  0  0  0  0  0
  2  1  1  6
  2  3  1  0
  2 10  1  0
  4  9  2  0
  4  3  1  0
  5  4  1  0
  6  7  1  0
  6  5  2  0
  7  8  2  0
  8  9  1  0
 10 11  2  0
 13 12  1  0
 13 14  2  0
 15 13  1  0
 16 15  1  6
 17 10  1  0
 17 16  1  0
 18 19  2  0
 18 16  1  0
 21 22  1  0
 21 20  1  0
 22 24  1  0
 22 23  1  1
 24 26  1  0
 24 25  1  6
 25 18  1  0
 26 28  1  0
 27 26  2  0
M  END
$$$$
