YHT.pdb
     RDKit          3D

 30 31  0  0  1  0  0  0  0  0999 V2000
   21.4848  -11.2796  -19.9511 O   0  0  0  0  0  0  0  0  0  0  0  0
   21.4554  -12.5693  -19.4748 C   0  0  0  0  0  0  0  0  0  0  0  0
   21.4511  -12.7778  -18.1156 C   0  0  0  0  0  0  0  0  0  0  0  0
   21.4222  -14.0456  -17.6292 C   0  0  0  0  0  0  0  0  0  0  0  0
   21.3972  -15.1201  -18.4893 C   0  0  0  0  0  0  0  0  0  0  0  0
   21.3690  -16.5189  -17.9889 C   0  0  0  0  0  0  0  0  0  0  0  0
   22.7565  -17.1013  -17.8766 C   0  0  2  0  0  0  0  0  0  0  0  0
   23.1835  -17.3321  -19.2688 N   0  0  0  0  0  0  0  0  0  0  0  0
   22.8254  -18.3620  -17.1392 C   0  0  0  0  0  0  0  0  0  0  0  0
   22.5247  -19.4255  -17.7395 O   0  0  0  0  0  0  0  0  0  0  0  0
   21.4012  -14.9247  -19.8452 C   0  0  0  0  0  0  0  0  0  0  0  0
   21.4304  -13.6440  -20.3498 C   0  0  0  0  0  0  0  0  0  0  0  0
   23.2102  -18.4984  -15.7837 N   0  0  0  0  0  0  0  0  0  0  0  0
   23.2178  -19.7547  -15.0602 C   0  0  1  0  0  0  0  0  0  0  0  0
   24.4524  -19.8701  -14.1934 C   0  0  0  0  0  0  0  0  0  0  0  0
   25.6693  -20.1253  -15.0008 C   0  0  0  0  0  0  0  0  0  0  0  0
   25.7287  -20.2806  -16.3843 C   0  0  0  0  0  0  0  0  0  0  0  0
   26.9846  -20.4972  -16.7775 N   0  0  0  0  0  0  0  0  0  0  0  0
   27.7389  -20.4833  -15.6583 C   0  0  0  0  0  0  0  0  0  0  0  0
   26.9438  -20.2595  -14.5941 N   0  0  0  0  0  0  0  0  0  0  0  0
   21.9661  -19.9303  -14.3573 C   0  0  0  0  0  0  0  0  0  0  0  0
   21.7008  -19.0920  -13.4255 O   0  0  0  0  0  0  0  0  0  0  0  0
   18.6337  -19.3349  -15.4177 C   0  0  0  0  0  0  0  0  0  0  0  0
   18.5415  -20.6637  -14.7413 C   0  0  1  0  0  0  0  0  0  0  0  0
   18.4738  -21.6413  -15.7383 O   0  0  0  0  0  0  0  0  0  0  0  0
   19.7229  -20.9537  -13.8392 C   0  0  2  0  0  0  0  0  0  0  0  0
   20.9715  -20.9140  -14.5560 N   0  0  0  0  0  0  0  0  0  0  0  0
   19.5237  -22.1396  -13.0041 C   0  0  0  0  0  0  0  0  0  0  0  0
   20.2239  -23.1821  -13.0848 O   0  0  0  0  0  0  0  0  0  0  0  0
   18.5198  -22.1827  -12.0462 O   0  0  0  0  0  0  0  0  0  0  0  0
  2  1  1  0
  3  2  2  0
  4  3  1  0
  5 11  1  0
  5  4  2  0
  6  5  1  0
  7  9  1  0
  7  6  1  0
  7  8  1  6
  9 10  2  0
 11 12  2  0
 12  2  1  0
 13 14  1  0
 13  9  1  0
 14 15  1  1
 15 16  1  0
 16 17  2  0
 17 18  1  0
 19 18  1  0
 20 16  1  0
 20 19  2  0
 21 14  1  0
 22 21  2  0
 24 23  1  6
 24 26  1  0
 25 24  1  0
 26 28  1  0
 26 27  1  6
 27 21  1  0
 28 30  1  0
 29 28  2  0
M  END
$$$$
