YHT.pdb
     RDKit          3D

 30 31  0  0  1  0  0  0  0  0999 V2000
   32.0122  -15.1980  -19.4133 O   0  0  0  0  0  0  0  0  0  0  0  0
   30.9590  -15.8269  -18.7916 C   0  0  0  0  0  0  0  0  0  0  0  0
   31.1630  -16.4121  -17.5641 C   0  0  0  0  0  0  0  0  0  0  0  0
   30.1331  -17.0372  -16.9370 C   0  0  0  0  0  0  0  0  0  0  0  0
   28.8889  -17.0870  -17.5238 C   0  0  0  0  0  0  0  0  0  0  0  0
   27.7428  -17.7661  -16.8654 C   0  0  0  0  0  0  0  0  0  0  0  0
   28.0822  -19.1832  -16.4731 C   0  0  2  0  0  0  0  0  0  0  0  0
   28.1380  -19.9249  -17.7462 N   0  0  0  0  0  0  0  0  0  0  0  0
   27.1033  -19.8176  -15.5917 C   0  0  0  0  0  0  0  0  0  0  0  0
   26.2128  -20.5415  -16.1063 O   0  0  0  0  0  0  0  0  0  0  0  0
   28.6737  -16.5076  -18.7464 C   0  0  0  0  0  0  0  0  0  0  0  0
   29.7102  -15.8712  -19.3915 C   0  0  0  0  0  0  0  0  0  0  0  0
   27.0668  -19.6912  -14.1822 N   0  0  0  0  0  0  0  0  0  0  0  0
   26.0441  -20.2756  -13.3368 C   0  0  1  0  0  0  0  0  0  0  0  0
   26.4146  -20.1472  -11.8756 C   0  0  0  0  0  0  0  0  0  0  0  0
   25.3647  -20.7068  -10.9909 C   0  0  0  0  0  0  0  0  0  0  0  0
   24.1884  -21.3349  -11.3951 C   0  0  0  0  0  0  0  0  0  0  0  0
   23.4733  -21.7157  -10.3356 N   0  0  0  0  0  0  0  0  0  0  0  0
   24.1784  -21.3386   -9.2482 C   0  0  0  0  0  0  0  0  0  0  0  0
   25.3136  -20.7331   -9.6477 N   0  0  0  0  0  0  0  0  0  0  0  0
   24.7472  -19.7368  -13.6820 C   0  0  0  0  0  0  0  0  0  0  0  0
   24.6360  -18.4606  -13.7054 O   0  0  0  0  0  0  0  0  0  0  0  0
   22.8858  -19.4315  -16.7139 C   0  0  0  0  0  0  0  0  0  0  0  0
   21.8919  -19.9798  -15.7428 C   0  0  1  0  0  0  0  0  0  0  0  0
   21.7562  -21.3466  -16.0035 O   0  0  0  0  0  0  0  0  0  0  0  0
   22.3048  -19.7873  -14.2984 C   0  0  2  0  0  0  0  0  0  0  0  0
   23.5598  -20.4307  -14.0058 N   0  0  0  0  0  0  0  0  0  0  0  0
   21.2240  -20.0761  -13.3541 C   0  0  0  0  0  0  0  0  0  0  0  0
   21.3129  -20.9123  -12.4179 O   0  0  0  0  0  0  0  0  0  0  0  0
   20.0016  -19.4235  -13.4407 O   0  0  0  0  0  0  0  0  0  0  0  0
  2  1  1  0
  3  2  2  0
  4  3  1  0
  5 11  1  0
  5  4  2  0
  6  5  1  0
  7  9  1  0
  7  6  1  0
  7  8  1  6
  9 10  2  0
 11 12  2  0
 12  2  1  0
 13 14  1  0
 13  9  1  0
 14 15  1  1
 15 16  1  0
 16 17  2  0
 17 18  1  0
 19 18  1  0
 20 16  1  0
 20 19  2  0
 21 14  1  0
 22 21  2  0
 24 23  1  6
 24 26  1  0
 25 24  1  0
 26 28  1  0
 26 27  1  1
 27 21  1  0
 28 30  1  0
 29 28  2  0
M  END
$$$$
