YHT.pdb
     RDKit          3D

 30 31  0  0  1  0  0  0  0  0999 V2000
   21.8757  -14.1744  -19.5517 O   0  0  0  0  0  0  0  0  0  0  0  0
   21.0678  -13.3247  -18.8330 C   0  0  0  0  0  0  0  0  0  0  0  0
   21.5488  -12.7739  -17.6686 C   0  0  0  0  0  0  0  0  0  0  0  0
   20.7634  -11.9327  -16.9472 C   0  0  0  0  0  0  0  0  0  0  0  0
   19.4908  -11.6302  -17.3761 C   0  0  0  0  0  0  0  0  0  0  0  0
   18.6056  -10.7167  -16.6079 C   0  0  0  0  0  0  0  0  0  0  0  0
   18.0796  -11.3706  -15.3538 C   0  0  2  0  0  0  0  0  0  0  0  0
   17.2032  -12.4555  -15.8321 N   0  0  0  0  0  0  0  0  0  0  0  0
   17.3101  -10.4812  -14.4852 C   0  0  0  0  0  0  0  0  0  0  0  0
   16.1005  -10.2731  -14.7596 O   0  0  0  0  0  0  0  0  0  0  0  0
   19.0008  -12.1730  -18.5346 C   0  0  0  0  0  0  0  0  0  0  0  0
   19.7879  -13.0269  -19.2741 C   0  0  0  0  0  0  0  0  0  0  0  0
   17.8118   -9.8209  -13.3378 N   0  0  0  0  0  0  0  0  0  0  0  0
   17.0507   -8.8794  -12.5402 C   0  0  1  0  0  0  0  0  0  0  0  0
   17.2383   -9.1489  -11.0633 C   0  0  0  0  0  0  0  0  0  0  0  0
   16.4352   -8.2232  -10.2290 C   0  0  0  0  0  0  0  0  0  0  0  0
   15.7261   -7.1094  -10.6744 C   0  0  0  0  0  0  0  0  0  0  0  0
   15.1165   -6.5040   -9.6543 N   0  0  0  0  0  0  0  0  0  0  0  0
   15.4259   -7.2179   -8.5513 C   0  0  0  0  0  0  0  0  0  0  0  0
   16.2182   -8.2494   -8.9024 N   0  0  0  0  0  0  0  0  0  0  0  0
   17.3494   -7.5254  -12.9511 C   0  0  0  0  0  0  0  0  0  0  0  0
   18.5541   -7.1212  -12.7874 O   0  0  0  0  0  0  0  0  0  0  0  0
   17.3945   -5.8447  -16.3429 C   0  0  0  0  0  0  0  0  0  0  0  0
   16.5818   -5.0070  -15.4104 C   0  0  1  0  0  0  0  0  0  0  0  0
   15.2354   -5.3064  -15.6382 O   0  0  0  0  0  0  0  0  0  0  0  0
   16.9072   -5.2560  -13.9524 C   0  0  2  0  0  0  0  0  0  0  0  0
   16.4852   -6.5639  -13.5211 N   0  0  0  0  0  0  0  0  0  0  0  0
   16.4977   -4.1529  -13.0813 C   0  0  0  0  0  0  0  0  0  0  0  0
   15.6436   -4.2614  -12.1635 O   0  0  0  0  0  0  0  0  0  0  0  0
   17.0454   -2.8850  -13.2231 O   0  0  0  0  0  0  0  0  0  0  0  0
  2  1  1  0
  3  2  2  0
  4  3  1  0
  5 11  1  0
  5  4  2  0
  6  5  1  0
  7  9  1  0
  7  6  1  0
  7  8  1  6
  9 10  2  0
 11 12  2  0
 12  2  1  0
 13 14  1  0
 13  9  1  0
 14 15  1  1
 15 16  1  0
 16 17  2  0
 17 18  1  0
 19 18  1  0
 20 16  1  0
 20 19  2  0
 21 14  1  0
 22 21  2  0
 24 23  1  6
 24 26  1  0
 25 24  1  0
 26 28  1  0
 26 27  1  1
 27 21  1  0
 28 30  1  0
 29 28  2  0
M  END
$$$$
