YHT.pdb
     RDKit          3D

 30 31  0  0  1  0  0  0  0  0999 V2000
   29.3725  -20.2107   -4.1335 O   0  0  0  0  0  0  0  0  0  0  0  0
   28.6563  -20.0640   -5.2983 C   0  0  0  0  0  0  0  0  0  0  0  0
   29.0425  -19.1016   -6.2013 C   0  0  0  0  0  0  0  0  0  0  0  0
   28.3456  -18.9442   -7.3565 C   0  0  0  0  0  0  0  0  0  0  0  0
   27.2569  -19.7422   -7.6261 C   0  0  0  0  0  0  0  0  0  0  0  0
   26.4716  -19.5925   -8.8788 C   0  0  0  0  0  0  0  0  0  0  0  0
   26.6838  -20.7569   -9.8149 C   0  0  2  0  0  0  0  0  0  0  0  0
   28.0986  -20.6641  -10.2192 N   0  0  0  0  0  0  0  0  0  0  0  0
   25.8417  -20.7334  -11.0098 C   0  0  0  0  0  0  0  0  0  0  0  0
   26.0613  -19.8537  -11.8816 O   0  0  0  0  0  0  0  0  0  0  0  0
   26.8627  -20.7042   -6.7340 C   0  0  0  0  0  0  0  0  0  0  0  0
   27.5615  -20.8730   -5.5598 C   0  0  0  0  0  0  0  0  0  0  0  0
   24.7811  -21.6305  -11.2826 N   0  0  0  0  0  0  0  0  0  0  0  0
   24.0311  -21.6541  -12.5231 C   0  0  1  0  0  0  0  0  0  0  0  0
   24.1906  -22.9854  -13.2242 C   0  0  0  0  0  0  0  0  0  0  0  0
   25.3687  -22.9952  -14.1241 C   0  0  0  0  0  0  0  0  0  0  0  0
   26.1466  -21.8964  -14.4833 C   0  0  0  0  0  0  0  0  0  0  0  0
   27.1266  -22.2665  -15.3088 N   0  0  0  0  0  0  0  0  0  0  0  0
   26.9888  -23.5974  -15.4866 C   0  0  0  0  0  0  0  0  0  0  0  0
   25.9313  -24.0298  -14.7728 N   0  0  0  0  0  0  0  0  0  0  0  0
   22.6614  -21.2570  -12.2827 C   0  0  0  0  0  0  0  0  0  0  0  0
   22.1171  -21.6745  -11.2006 O   0  0  0  0  0  0  0  0  0  0  0  0
   20.7811  -17.7987  -12.1827 C   0  0  0  0  0  0  0  0  0  0  0  0
   20.0483  -18.7635  -13.0568 C   0  0  1  0  0  0  0  0  0  0  0  0
   20.3443  -18.4399  -14.3842 O   0  0  0  0  0  0  0  0  0  0  0  0
   20.4305  -20.2062  -12.7992 C   0  0  2  0  0  0  0  0  0  0  0  0
   21.8196  -20.4558  -13.0863 N   0  0  0  0  0  0  0  0  0  0  0  0
   19.4922  -21.1588  -13.3955 C   0  0  0  0  0  0  0  0  0  0  0  0
   19.8056  -21.9902  -14.2866 O   0  0  0  0  0  0  0  0  0  0  0  0
   18.1622  -21.2000  -12.9994 O   0  0  0  0  0  0  0  0  0  0  0  0
  2  1  1  0
  3  2  2  0
  4  3  1  0
  5 11  1  0
  5  4  2  0
  6  5  1  0
  7  9  1  0
  7  6  1  0
  7  8  1  6
  9 10  2  0
 11 12  2  0
 12  2  1  0
 13 14  1  0
 13  9  1  0
 14 15  1  1
 15 16  1  0
 16 17  2  0
 17 18  1  0
 19 18  1  0
 20 16  1  0
 20 19  2  0
 21 14  1  0
 22 21  2  0
 24 23  1  1
 24 26  1  0
 25 24  1  0
 26 28  1  0
 26 27  1  6
 27 21  1  0
 28 30  1  0
 29 28  2  0
M  END
$$$$
