YHT.pdb
     RDKit          3D

 30 31  0  0  1  0  0  0  0  0999 V2000
   43.0332  -17.3284   -9.2127 O   0  0  0  0  0  0  0  0  0  0  0  0
   42.7020  -16.0050   -9.0384 C   0  0  0  0  0  0  0  0  0  0  0  0
   42.1098  -15.3242  -10.0760 C   0  0  0  0  0  0  0  0  0  0  0  0
   41.7766  -14.0167   -9.9198 C   0  0  0  0  0  0  0  0  0  0  0  0
   42.0288  -13.3721   -8.7299 C   0  0  0  0  0  0  0  0  0  0  0  0
   41.6797  -11.9418   -8.5288 C   0  0  0  0  0  0  0  0  0  0  0  0
   42.7296  -11.0232   -9.1039 C   0  0  2  0  0  0  0  0  0  0  0  0
   43.7132  -10.8473   -8.0196 N   0  0  0  0  0  0  0  0  0  0  0  0
   42.2278   -9.7121   -9.5126 C   0  0  0  0  0  0  0  0  0  0  0  0
   42.1809   -8.7935   -8.6549 O   0  0  0  0  0  0  0  0  0  0  0  0
   42.6184  -14.0401   -7.6893 C   0  0  0  0  0  0  0  0  0  0  0  0
   42.9605  -15.3657   -7.8360 C   0  0  0  0  0  0  0  0  0  0  0  0
   41.7831   -9.3741  -10.8134 N   0  0  0  0  0  0  0  0  0  0  0  0
   41.3091   -8.0590  -11.1976 C   0  0  1  0  0  0  0  0  0  0  0  0
   41.4373   -7.8549  -12.6912 C   0  0  0  0  0  0  0  0  0  0  0  0
   40.9644   -6.5122  -13.1053 C   0  0  0  0  0  0  0  0  0  0  0  0
   40.5024   -5.5006  -12.2657 C   0  0  0  0  0  0  0  0  0  0  0  0
   40.1582   -4.4247  -12.9746 N   0  0  0  0  0  0  0  0  0  0  0  0
   40.3941   -4.7323  -14.2674 C   0  0  0  0  0  0  0  0  0  0  0  0
   40.8783   -5.9873  -14.3401 N   0  0  0  0  0  0  0  0  0  0  0  0
   39.9822   -7.8352  -10.6678 C   0  0  0  0  0  0  0  0  0  0  0  0
   39.0543   -8.6190  -11.0755 O   0  0  0  0  0  0  0  0  0  0  0  0
   38.3055   -8.3087   -7.4673 C   0  0  0  0  0  0  0  0  0  0  0  0
   37.9660   -6.9131   -7.8782 C   0  0  1  0  0  0  0  0  0  0  0  0
   38.7793   -6.0465   -7.1421 O   0  0  0  0  0  0  0  0  0  0  0  0
   38.1797   -6.6610   -9.3562 C   0  0  2  0  0  0  0  0  0  0  0  0
   39.5531   -6.8562   -9.7438 N   0  0  0  0  0  0  0  0  0  0  0  0
   37.5780   -5.4068   -9.8125 C   0  0  0  0  0  0  0  0  0  0  0  0
   38.2211   -4.4810  -10.3718 O   0  0  0  0  0  0  0  0  0  0  0  0
   36.2216   -5.1600   -9.6488 O   0  0  0  0  0  0  0  0  0  0  0  0
  2  1  1  0
  3  2  2  0
  4  3  1  0
  5 11  1  0
  5  4  2  0
  6  5  1  0
  7  9  1  0
  7  6  1  0
  7  8  1  1
  9 10  2  0
 11 12  2  0
 12  2  1  0
 13 14  1  0
 13  9  1  0
 14 15  1  6
 15 16  1  0
 16 17  2  0
 17 18  1  0
 19 18  1  0
 20 16  1  0
 20 19  2  0
 21 14  1  0
 22 21  2  0
 24 23  1  6
 24 26  1  0
 25 24  1  0
 26 28  1  0
 26 27  1  1
 27 21  1  0
 28 30  1  0
 29 28  2  0
M  END
$$$$
