YHT.pdb
     RDKit          3D

 30 31  0  0  1  0  0  0  0  0999 V2000
   24.6937  -14.6076  -19.7029 O   0  0  0  0  0  0  0  0  0  0  0  0
   24.0865  -15.6019  -18.9722 C   0  0  0  0  0  0  0  0  0  0  0  0
   23.9841  -16.8606  -19.5162 C   0  0  0  0  0  0  0  0  0  0  0  0
   23.3872  -17.8537  -18.8074 C   0  0  0  0  0  0  0  0  0  0  0  0
   22.8856  -17.6056  -17.5497 C   0  0  0  0  0  0  0  0  0  0  0  0
   22.2239  -18.6693  -16.7504 C   0  0  0  0  0  0  0  0  0  0  0  0
   23.1698  -19.2888  -15.7511 C   0  0  2  0  0  0  0  0  0  0  0  0
   24.1108  -20.0823  -16.5628 N   0  0  0  0  0  0  0  0  0  0  0  0
   22.5269  -20.1633  -14.7715 C   0  0  0  0  0  0  0  0  0  0  0  0
   22.2383  -21.3384  -15.1143 O   0  0  0  0  0  0  0  0  0  0  0  0
   22.9818  -16.3556  -16.9975 C   0  0  0  0  0  0  0  0  0  0  0  0
   23.5849  -15.3411  -17.7066 C   0  0  0  0  0  0  0  0  0  0  0  0
   22.1951  -19.8017  -13.4437 N   0  0  0  0  0  0  0  0  0  0  0  0
   21.5480  -20.6864  -12.4946 C   0  0  1  0  0  0  0  0  0  0  0  0
   21.7603  -20.2036  -11.0765 C   0  0  0  0  0  0  0  0  0  0  0  0
   21.0573  -21.0615  -10.0927 C   0  0  0  0  0  0  0  0  0  0  0  0
   20.2435  -22.1556  -10.3790 C   0  0  0  0  0  0  0  0  0  0  0  0
   19.7734  -22.6965   -9.2542 N   0  0  0  0  0  0  0  0  0  0  0  0
   20.2772  -21.9602   -8.2413 C   0  0  0  0  0  0  0  0  0  0  0  0
   21.0477  -20.9795   -8.7507 N   0  0  0  0  0  0  0  0  0  0  0  0
   20.1645  -20.8858  -12.8655 C   0  0  0  0  0  0  0  0  0  0  0  0
   19.4431  -19.8360  -13.0034 O   0  0  0  0  0  0  0  0  0  0  0  0
   18.5645  -23.3662  -15.6030 C   0  0  0  0  0  0  0  0  0  0  0  0
   17.7834  -23.3727  -14.3295 C   0  0  1  0  0  0  0  0  0  0  0  0
   18.1047  -24.5474  -13.6430 O   0  0  0  0  0  0  0  0  0  0  0  0
   18.0823  -22.1812  -13.4438 C   0  0  2  0  0  0  0  0  0  0  0  0
   19.4796  -22.0983  -13.1044 N   0  0  0  0  0  0  0  0  0  0  0  0
   17.1606  -22.0677  -12.3121 C   0  0  0  0  0  0  0  0  0  0  0  0
   17.5262  -22.0293  -11.1085 O   0  0  0  0  0  0  0  0  0  0  0  0
   15.7882  -21.9941  -12.5085 O   0  0  0  0  0  0  0  0  0  0  0  0
  2  1  1  0
  3  2  2  0
  4  3  1  0
  5 11  1  0
  5  4  2  0
  6  5  1  0
  7  9  1  0
  7  6  1  0
  7  8  1  6
  9 10  2  0
 11 12  2  0
 12  2  1  0
 13 14  1  0
 13  9  1  0
 14 15  1  1
 15 16  1  0
 16 17  2  0
 17 18  1  0
 19 18  1  0
 20 16  1  0
 20 19  2  0
 21 14  1  0
 22 21  2  0
 24 23  1  6
 24 26  1  0
 25 24  1  0
 26 28  1  0
 26 27  1  1
 27 21  1  0
 28 30  1  0
 29 28  2  0
M  END
$$$$
