YHT.pdb
     RDKit          3D

 30 31  0  0  1  0  0  0  0  0999 V2000
   20.6430  -21.3589  -14.0475 O   0  0  0  0  0  0  0  0  0  0  0  0
   21.0745  -20.1082  -14.4228 C   0  0  0  0  0  0  0  0  0  0  0  0
   22.4032  -19.9247  -14.7255 C   0  0  0  0  0  0  0  0  0  0  0  0
   22.8452  -18.6955  -15.0980 C   0  0  0  0  0  0  0  0  0  0  0  0
   21.9703  -17.6354  -15.1733 C   0  0  0  0  0  0  0  0  0  0  0  0
   22.4231  -16.2779  -15.5739 C   0  0  0  0  0  0  0  0  0  0  0  0
   21.8424  -15.8638  -16.9037 C   0  0  2  0  0  0  0  0  0  0  0  0
   22.4711  -16.7642  -17.8876 N   0  0  0  0  0  0  0  0  0  0  0  0
   22.1177  -14.4777  -17.2785 C   0  0  0  0  0  0  0  0  0  0  0  0
   23.2655  -14.1874  -17.7029 O   0  0  0  0  0  0  0  0  0  0  0  0
   20.6445  -17.8061  -14.8741 C   0  0  0  0  0  0  0  0  0  0  0  0
   20.1850  -19.0475  -14.4954 C   0  0  0  0  0  0  0  0  0  0  0  0
   21.1902  -13.4105  -17.2087 N   0  0  0  0  0  0  0  0  0  0  0  0
   21.4580  -12.0648  -17.6772 C   0  0  1  0  0  0  0  0  0  0  0  0
   20.5277  -11.6938  -18.8112 C   0  0  0  0  0  0  0  0  0  0  0  0
   20.8726  -12.4106  -20.0623 C   0  0  0  0  0  0  0  0  0  0  0  0
   20.3492  -13.6288  -20.4910 C   0  0  0  0  0  0  0  0  0  0  0  0
   20.8820  -13.9810  -21.6619 N   0  0  0  0  0  0  0  0  0  0  0  0
   21.7467  -12.9994  -21.9944 C   0  0  0  0  0  0  0  0  0  0  0  0
   21.7371  -12.0587  -21.0301 N   0  0  0  0  0  0  0  0  0  0  0  0
   21.4538  -11.1415  -16.5641 C   0  0  0  0  0  0  0  0  0  0  0  0
   20.4753  -11.2280  -15.7416 O   0  0  0  0  0  0  0  0  0  0  0  0
   23.5464  -10.8311  -13.6174 C   0  0  0  0  0  0  0  0  0  0  0  0
   23.4313   -9.4360  -14.1392 C   0  0  1  0  0  0  0  0  0  0  0  0
   24.6314   -9.1266  -14.7859 O   0  0  0  0  0  0  0  0  0  0  0  0
   22.2826   -9.2583  -15.1100 C   0  0  2  0  0  0  0  0  0  0  0  0
   22.3951  -10.1372  -16.2456 N   0  0  0  0  0  0  0  0  0  0  0  0
   22.0237   -7.8544  -15.4347 C   0  0  0  0  0  0  0  0  0  0  0  0
   22.1653   -7.3606  -16.5835 O   0  0  0  0  0  0  0  0  0  0  0  0
   21.5940   -6.9604  -14.4632 O   0  0  0  0  0  0  0  0  0  0  0  0
  2  1  1  0
  3  2  2  0
  4  3  1  0
  5 11  1  0
  5  4  2  0
  6  5  1  0
  7  9  1  0
  7  6  1  0
  7  8  1  6
  9 10  2  0
 11 12  2  0
 12  2  1  0
 13 14  1  0
 13  9  1  0
 14 15  1  6
 15 16  1  0
 16 17  2  0
 17 18  1  0
 19 18  1  0
 20 16  1  0
 20 19  2  0
 21 14  1  0
 22 21  2  0
 24 23  1  6
 24 26  1  0
 25 24  1  0
 26 28  1  0
 26 27  1  6
 27 21  1  0
 28 30  1  0
 29 28  2  0
M  END
$$$$
