YHT.pdb
     RDKit          3D

 30 31  0  0  1  0  0  0  0  0999 V2000
   21.3601  -11.3853  -24.2555 O   0  0  0  0  0  0  0  0  0  0  0  0
   20.9779  -10.4990  -23.2758 C   0  0  0  0  0  0  0  0  0  0  0  0
   21.9442   -9.7722  -22.6210 C   0  0  0  0  0  0  0  0  0  0  0  0
   21.5830   -8.8927  -21.6510 C   0  0  0  0  0  0  0  0  0  0  0  0
   20.2568   -8.7265  -21.3217 C   0  0  0  0  0  0  0  0  0  0  0  0
   19.8296   -7.7753  -20.2629 C   0  0  0  0  0  0  0  0  0  0  0  0
   20.0739   -8.3296  -18.8808 C   0  0  2  0  0  0  0  0  0  0  0  0
   19.0562   -9.3828  -18.7105 N   0  0  0  0  0  0  0  0  0  0  0  0
   19.9351   -7.3508  -17.8036 C   0  0  0  0  0  0  0  0  0  0  0  0
   18.8258   -7.2555  -17.2186 O   0  0  0  0  0  0  0  0  0  0  0  0
   19.2854   -9.4451  -21.9671 C   0  0  0  0  0  0  0  0  0  0  0  0
   19.6396  -10.3395  -22.9521 C   0  0  0  0  0  0  0  0  0  0  0  0
   20.9572   -6.4843  -17.3472 N   0  0  0  0  0  0  0  0  0  0  0  0
   20.8014   -5.5419  -16.2565 C   0  0  1  0  0  0  0  0  0  0  0  0
   21.5370   -6.0184  -15.0232 C   0  0  0  0  0  0  0  0  0  0  0  0
   20.9126   -7.2325  -14.4454 C   0  0  0  0  0  0  0  0  0  0  0  0
   19.9190   -7.2692  -13.4691 C   0  0  0  0  0  0  0  0  0  0  0  0
   19.5899   -8.5297  -13.1833 N   0  0  0  0  0  0  0  0  0  0  0  0
   20.3634   -9.3096  -13.9676 C   0  0  0  0  0  0  0  0  0  0  0  0
   21.1560   -8.5252  -14.7237 N   0  0  0  0  0  0  0  0  0  0  0  0
   21.1560   -4.2106  -16.6962 C   0  0  0  0  0  0  0  0  0  0  0  0
   22.3537   -4.0378  -17.1172 O   0  0  0  0  0  0  0  0  0  0  0  0
   19.1973   -2.0817  -19.2777 C   0  0  0  0  0  0  0  0  0  0  0  0
   19.6563   -1.1917  -18.1691 C   0  0  1  0  0  0  0  0  0  0  0  0
   18.5525   -0.9317  -17.3516 O   0  0  0  0  0  0  0  0  0  0  0  0
   20.7607   -1.8054  -17.3340 C   0  0  2  0  0  0  0  0  0  0  0  0
   20.3535   -3.0482  -16.7305 N   0  0  0  0  0  0  0  0  0  0  0  0
   21.3832   -0.8460  -16.4200 C   0  0  0  0  0  0  0  0  0  0  0  0
   21.4268   -0.9913  -15.1708 O   0  0  0  0  0  0  0  0  0  0  0  0
   21.9792    0.3147  -16.8945 O   0  0  0  0  0  0  0  0  0  0  0  0
  2  1  1  0
  3  2  2  0
  4  3  1  0
  5 11  1  0
  5  4  2  0
  6  5  1  0
  7  9  1  0
  7  6  1  0
  7  8  1  1
  9 10  2  0
 11 12  2  0
 12  2  1  0
 13 14  1  0
 13  9  1  0
 14 15  1  1
 15 16  1  0
 16 17  2  0
 17 18  1  0
 19 18  1  0
 20 16  1  0
 20 19  2  0
 21 14  1  0
 22 21  2  0
 24 23  1  6
 24 26  1  0
 25 24  1  0
 26 28  1  0
 26 27  1  1
 27 21  1  0
 28 30  1  0
 29 28  2  0
M  END
$$$$
