YHT.pdb
     RDKit          3D

 30 31  0  0  1  0  0  0  0  0999 V2000
   23.9624  -21.0182   -8.6986 O   0  0  0  0  0  0  0  0  0  0  0  0
   24.7176  -20.8289   -9.8322 C   0  0  0  0  0  0  0  0  0  0  0  0
   25.9673  -21.3981   -9.9031 C   0  0  0  0  0  0  0  0  0  0  0  0
   26.7256  -21.2206  -11.0159 C   0  0  0  0  0  0  0  0  0  0  0  0
   26.2492  -20.4750  -12.0704 C   0  0  0  0  0  0  0  0  0  0  0  0
   27.0554  -20.2592  -13.2999 C   0  0  0  0  0  0  0  0  0  0  0  0
   26.6219  -21.1717  -14.4208 C   0  0  2  0  0  0  0  0  0  0  0  0
   27.5585  -20.8874  -15.5235 N   0  0  0  0  0  0  0  0  0  0  0  0
   25.2535  -20.9505  -14.8857 C   0  0  0  0  0  0  0  0  0  0  0  0
   25.0327  -19.9889  -15.6657 O   0  0  0  0  0  0  0  0  0  0  0  0
   25.0057  -19.9031  -12.0112 C   0  0  0  0  0  0  0  0  0  0  0  0
   24.2281  -20.0763  -10.8883 C   0  0  0  0  0  0  0  0  0  0  0  0
   24.1311  -21.7378  -14.5331 N   0  0  0  0  0  0  0  0  0  0  0  0
   22.8008  -21.5529  -15.0792 C   0  0  1  0  0  0  0  0  0  0  0  0
   22.5363  -22.5355  -16.1988 C   0  0  0  0  0  0  0  0  0  0  0  0
   23.2315  -22.1451  -17.4487 C   0  0  0  0  0  0  0  0  0  0  0  0
   24.2859  -22.8229  -18.0573 C   0  0  0  0  0  0  0  0  0  0  0  0
   24.6691  -22.1919  -19.1680 N   0  0  0  0  0  0  0  0  0  0  0  0
   23.8702  -21.1100  -19.2829 C   0  0  0  0  0  0  0  0  0  0  0  0
   23.0086  -21.0869  -18.2475 N   0  0  0  0  0  0  0  0  0  0  0  0
   21.8210  -21.5691  -14.0156 C   0  0  0  0  0  0  0  0  0  0  0  0
   21.9436  -22.4837  -13.1269 O   0  0  0  0  0  0  0  0  0  0  0  0
   20.8980  -18.7422  -11.5985 C   0  0  0  0  0  0  0  0  0  0  0  0
   19.6318  -19.3938  -12.0504 C   0  0  1  0  0  0  0  0  0  0  0  0
   19.0398  -18.5543  -12.9986 O   0  0  0  0  0  0  0  0  0  0  0  0
   19.8540  -20.7600  -12.6649 C   0  0  2  0  0  0  0  0  0  0  0  0
   20.7251  -20.7012  -13.8104 N   0  0  0  0  0  0  0  0  0  0  0  0
   18.6083  -21.5015  -12.8694 C   0  0  0  0  0  0  0  0  0  0  0  0
   18.1989  -21.8919  -13.9936 O   0  0  0  0  0  0  0  0  0  0  0  0
   17.7823  -21.8259  -11.8017 O   0  0  0  0  0  0  0  0  0  0  0  0
  2  1  1  0
  3  2  2  0
  4  3  1  0
  5 11  1  0
  5  4  2  0
  6  5  1  0
  7  9  1  0
  7  6  1  0
  7  8  1  6
  9 10  2  0
 11 12  2  0
 12  2  1  0
 13 14  1  0
 13  9  1  0
 14 15  1  6
 15 16  1  0
 16 17  2  0
 17 18  1  0
 19 18  1  0
 20 16  1  0
 20 19  2  0
 21 14  1  0
 22 21  2  0
 24 23  1  6
 24 26  1  0
 25 24  1  0
 26 28  1  0
 26 27  1  6
 27 21  1  0
 28 30  1  0
 29 28  2  0
M  END
$$$$
