YHT.pdb
     RDKit          3D

 30 31  0  0  1  0  0  0  0  0999 V2000
   17.2436   -9.6603  -15.8054 O   0  0  0  0  0  0  0  0  0  0  0  0
   17.8500  -10.8908  -15.9022 C   0  0  0  0  0  0  0  0  0  0  0  0
   19.1984  -10.9906  -15.6524 C   0  0  0  0  0  0  0  0  0  0  0  0
   19.8123  -12.1988  -15.7437 C   0  0  0  0  0  0  0  0  0  0  0  0
   19.0916  -13.3210  -16.0847 C   0  0  0  0  0  0  0  0  0  0  0  0
   19.7342  -14.6562  -16.1966 C   0  0  0  0  0  0  0  0  0  0  0  0
   20.6399  -14.7423  -17.4004 C   0  0  2  0  0  0  0  0  0  0  0  0
   19.7270  -14.8196  -18.5556 N   0  0  0  0  0  0  0  0  0  0  0  0
   21.5241  -15.9067  -17.4099 C   0  0  0  0  0  0  0  0  0  0  0  0
   21.0781  -16.9952  -17.8549 O   0  0  0  0  0  0  0  0  0  0  0  0
   17.7477  -13.2338  -16.3359 C   0  0  0  0  0  0  0  0  0  0  0  0
   17.1147  -12.0144  -16.2463 C   0  0  0  0  0  0  0  0  0  0  0  0
   22.8653  -15.9207  -16.9571 N   0  0  0  0  0  0  0  0  0  0  0  0
   23.7326  -17.0812  -17.0113 C   0  0  1  0  0  0  0  0  0  0  0  0
   25.1878  -16.6675  -17.0000 C   0  0  0  0  0  0  0  0  0  0  0  0
   26.0933  -17.8401  -17.0550 C   0  0  0  0  0  0  0  0  0  0  0  0
   25.7150  -19.1811  -17.0383 C   0  0  0  0  0  0  0  0  0  0  0  0
   26.7878  -19.9709  -17.1015 N   0  0  0  0  0  0  0  0  0  0  0  0
   27.8583  -19.1508  -17.1590 C   0  0  0  0  0  0  0  0  0  0  0  0
   27.4353  -17.8721  -17.1307 N   0  0  0  0  0  0  0  0  0  0  0  0
   23.3637  -18.0253  -15.9797 C   0  0  0  0  0  0  0  0  0  0  0  0
   23.4049  -17.6081  -14.7691 O   0  0  0  0  0  0  0  0  0  0  0  0
   20.1721  -19.4022  -15.0817 C   0  0  0  0  0  0  0  0  0  0  0  0
   21.0845  -20.5850  -15.1025 C   0  0  1  0  0  0  0  0  0  0  0  0
   20.8561  -21.2737  -16.2974 O   0  0  0  0  0  0  0  0  0  0  0  0
   22.5485  -20.2067  -15.0181 C   0  0  2  0  0  0  0  0  0  0  0  0
   22.9539  -19.3703  -16.1184 N   0  0  0  0  0  0  0  0  0  0  0  0
   23.4189  -21.3547  -14.7572 C   0  0  0  0  0  0  0  0  0  0  0  0
   23.3251  -22.0917  -13.7415 O   0  0  0  0  0  0  0  0  0  0  0  0
   24.4285  -21.7060  -15.6430 O   0  0  0  0  0  0  0  0  0  0  0  0
  2  1  1  0
  3  2  2  0
  4  3  1  0
  5 11  1  0
  5  4  2  0
  6  5  1  0
  7  9  1  0
  7  6  1  0
  7  8  1  6
  9 10  2  0
 11 12  2  0
 12  2  1  0
 13 14  1  0
 13  9  1  0
 14 15  1  1
 15 16  1  0
 16 17  2  0
 17 18  1  0
 19 18  1  0
 20 16  1  0
 20 19  2  0
 21 14  1  0
 22 21  2  0
 24 23  1  6
 24 26  1  0
 25 24  1  0
 26 28  1  0
 26 27  1  6
 27 21  1  0
 28 30  1  0
 29 28  2  0
M  END
$$$$
