GSN.pdb
     RDKit          3D

 19 18  0  0  1  0  0  0  0  0999 V2000
    6.2720  -25.3891   23.5991 N   0  0  0  0  0  0  0  0  0  0  0  0
    6.2989  -24.4299   24.6615 C   0  0  0  0  0  0  0  0  0  0  0  0
    7.5619  -23.6504   24.6969 C   0  0  0  0  0  0  0  0  0  0  0  0
    8.5154  -23.9750   23.9461 O   0  0  0  0  0  0  0  0  0  0  0  0
    7.7719  -19.7918   26.1482 O   0  0  0  0  0  0  0  0  0  0  0  0
    8.7052  -20.3244   25.2883 C   0  0  0  0  0  0  0  0  0  0  0  0
    8.9631  -21.8010   25.5598 C   0  0  2  0  0  0  0  0  0  0  0  0
    7.7344  -22.5359   25.5599 N   0  0  0  0  0  0  0  0  0  0  0  0
    9.6780  -21.8888   26.8593 C   0  0  0  0  0  0  0  0  0  0  0  0
    9.0259  -22.2440   27.8747 O   0  0  0  0  0  0  0  0  0  0  0  0
   12.5409  -24.0164   27.3153 N   0  0  0  0  0  0  0  0  0  0  0  0
   13.5562  -23.0615   27.6098 C   0  0  0  0  0  0  0  0  0  0  0  0
   14.7417  -23.3723   27.3957 O   0  0  0  0  0  0  0  0  0  0  0  0
   13.2108  -21.7433   28.1529 C   0  0  0  0  0  0  0  0  0  0  0  0
   11.7481  -21.5527   28.2936 C   0  0  2  0  0  0  0  0  0  0  0  0
   11.0449  -21.5966   27.0182 N   0  0  0  0  0  0  0  0  0  0  0  0
   11.3244  -20.4224   29.1118 C   0  0  0  0  0  0  0  0  0  0  0  0
   10.6152  -19.4579   28.7758 O   0  0  0  0  0  0  0  0  0  0  0  0
   11.7631  -20.4047   30.4495 O   0  0  0  0  0  0  0  0  0  0  0  0
  1  2  1  0
  3  4  2  0
  3  2  1  0
  7  6  1  1
  6  5  1  0
  7  8  1  0
  8  3  1  0
  9  7  1  0
 10  9  2  0
 11 12  1  0
 12 13  2  0
 14 12  1  0
 15 14  1  6
 15 17  1  0
 15 16  1  0
 16  9  1  0
 17 19  1  0
 18 17  2  0
M  END
$$$$
