GSN.pdb
     RDKit          3D

 19 18  0  0  1  0  0  0  0  0999 V2000
    7.7580  -14.1395   17.7293 N   0  0  0  0  0  0  0  0  0  0  0  0
    7.5620  -14.9970   18.8588 C   0  0  0  0  0  0  0  0  0  0  0  0
    8.2153  -14.4823   20.0885 C   0  0  0  0  0  0  0  0  0  0  0  0
    8.2144  -13.2483   20.3243 O   0  0  0  0  0  0  0  0  0  0  0  0
    7.3319  -15.2289   23.5666 O   0  0  0  0  0  0  0  0  0  0  0  0
    8.1772  -14.2547   23.0863 C   0  0  0  0  0  0  0  0  0  0  0  0
    9.3255  -14.8374   22.2724 C   0  0  2  0  0  0  0  0  0  0  0  0
    8.8499  -15.3449   21.0210 N   0  0  0  0  0  0  0  0  0  0  0  0
    9.9639  -15.8885   23.1063 C   0  0  0  0  0  0  0  0  0  0  0  0
    9.4659  -17.0436   23.0924 O   0  0  0  0  0  0  0  0  0  0  0  0
   14.4238  -14.7957   22.7706 N   0  0  0  0  0  0  0  0  0  0  0  0
   13.8474  -16.0626   23.0741 C   0  0  0  0  0  0  0  0  0  0  0  0
   13.7473  -16.9018   22.1612 O   0  0  0  0  0  0  0  0  0  0  0  0
   13.3829  -16.3690   24.4314 C   0  0  0  0  0  0  0  0  0  0  0  0
   11.9412  -16.7081   24.4752 C   0  0  2  0  0  0  0  0  0  0  0  0
   11.0954  -15.6641   23.9115 N   0  0  0  0  0  0  0  0  0  0  0  0
   11.4341  -17.1897   25.7548 C   0  0  0  0  0  0  0  0  0  0  0  0
   11.8590  -18.1374   26.4385 O   0  0  0  0  0  0  0  0  0  0  0  0
   10.3275  -16.5095   26.2979 O   0  0  0  0  0  0  0  0  0  0  0  0
  1  2  1  0
  3  4  2  0
  3  2  1  0
  7  6  1  1
  6  5  1  0
  7  8  1  0
  8  3  1  0
  9  7  1  0
 10  9  2  0
 11 12  1  0
 12 13  2  0
 14 12  1  0
 15 14  1  1
 15 17  1  0
 15 16  1  0
 16  9  1  0
 17 19  1  0
 18 17  2  0
M  END
$$$$
