GSN.pdb
     RDKit          3D

 19 18  0  0  1  0  0  0  0  0999 V2000
    6.5322  -24.6933   28.9212 N   0  0  0  0  0  0  0  0  0  0  0  0
    6.8487  -25.5847   29.9958 C   0  0  0  0  0  0  0  0  0  0  0  0
    7.8958  -25.0439   30.8985 C   0  0  0  0  0  0  0  0  0  0  0  0
    8.7316  -24.2161   30.4574 O   0  0  0  0  0  0  0  0  0  0  0  0
    8.1378  -26.1794   34.9410 O   0  0  0  0  0  0  0  0  0  0  0  0
    8.5410  -24.9166   34.5709 C   0  0  0  0  0  0  0  0  0  0  0  0
    8.9833  -24.8560   33.1144 C   0  0  2  0  0  0  0  0  0  0  0  0
    7.9891  -25.4330   32.2611 N   0  0  0  0  0  0  0  0  0  0  0  0
   10.2885  -25.5603   33.0237 C   0  0  0  0  0  0  0  0  0  0  0  0
   10.2898  -26.8178   33.0563 O   0  0  0  0  0  0  0  0  0  0  0  0
   13.9576  -24.1113   29.4889 N   0  0  0  0  0  0  0  0  0  0  0  0
   13.5776  -25.0712   30.4705 C   0  0  0  0  0  0  0  0  0  0  0  0
   13.0910  -26.1499   30.0869 O   0  0  0  0  0  0  0  0  0  0  0  0
   13.7562  -24.7928   31.8997 C   0  0  0  0  0  0  0  0  0  0  0  0
   12.8143  -25.5585   32.7494 C   0  0  2  0  0  0  0  0  0  0  0  0
   11.5242  -24.8990   32.9031 N   0  0  0  0  0  0  0  0  0  0  0  0
   13.3405  -26.0322   34.0243 C   0  0  0  0  0  0  0  0  0  0  0  0
   13.9274  -27.1029   34.2594 O   0  0  0  0  0  0  0  0  0  0  0  0
   13.1720  -25.1858   35.1366 O   0  0  0  0  0  0  0  0  0  0  0  0
  1  2  1  0
  3  4  2  0
  3  2  1  0
  7  6  1  1
  6  5  1  0
  7  8  1  0
  8  3  1  0
  9  7  1  0
 10  9  2  0
 11 12  1  0
 12 13  2  0
 14 12  1  0
 15 14  1  1
 15 17  1  0
 15 16  1  0
 16  9  1  0
 17 19  1  0
 18 17  2  0
M  END
$$$$
