GSN.pdb
     RDKit          3D

 19 18  0  0  1  0  0  0  0  0999 V2000
    5.8050  -17.8687   20.5369 N   0  0  0  0  0  0  0  0  0  0  0  0
    5.4314  -17.0626   21.6594 C   0  0  0  0  0  0  0  0  0  0  0  0
    6.5869  -16.7151   22.5243 C   0  0  0  0  0  0  0  0  0  0  0  0
    7.7039  -17.2510   22.3164 O   0  0  0  0  0  0  0  0  0  0  0  0
    6.0131  -14.3023   25.8168 O   0  0  0  0  0  0  0  0  0  0  0  0
    7.3154  -14.3651   25.3759 C   0  0  0  0  0  0  0  0  0  0  0  0
    7.5678  -15.5814   24.4943 C   0  0  2  0  0  0  0  0  0  0  0  0
    6.4747  -15.7865   23.5928 N   0  0  0  0  0  0  0  0  0  0  0  0
    7.7838  -16.7403   25.3987 C   0  0  0  0  0  0  0  0  0  0  0  0
    6.7749  -17.3036   25.8959 O   0  0  0  0  0  0  0  0  0  0  0  0
    9.9029  -19.8989   23.3965 N   0  0  0  0  0  0  0  0  0  0  0  0
   10.3078  -19.6670   24.7425 C   0  0  0  0  0  0  0  0  0  0  0  0
   11.5126  -19.4571   24.9708 O   0  0  0  0  0  0  0  0  0  0  0  0
    9.3264  -19.6759   25.8327 C   0  0  0  0  0  0  0  0  0  0  0  0
    9.3003  -18.3990   26.5838 C   0  0  2  0  0  0  0  0  0  0  0  0
    9.0549  -17.2437   25.7305 N   0  0  0  0  0  0  0  0  0  0  0  0
   10.4097  -18.1727   27.5029 C   0  0  0  0  0  0  0  0  0  0  0  0
   10.7749  -18.8880   28.4522 O   0  0  0  0  0  0  0  0  0  0  0  0
   11.1719  -17.0055   27.3058 O   0  0  0  0  0  0  0  0  0  0  0  0
  1  2  1  0
  3  4  2  0
  3  2  1  0
  7  6  1  1
  6  5  1  0
  7  8  1  0
  8  3  1  0
  9  7  1  0
 10  9  2  0
 11 12  1  0
 12 13  2  0
 14 12  1  0
 15 14  1  6
 15 17  1  0
 15 16  1  0
 16  9  1  0
 17 19  1  0
 18 17  2  0
M  END
$$$$
