GSN.pdb
     RDKit          3D

 19 18  0  0  1  0  0  0  0  0999 V2000
    7.2021  -16.9359   17.7128 N   0  0  0  0  0  0  0  0  0  0  0  0
    6.6631  -16.5294   18.9751 C   0  0  0  0  0  0  0  0  0  0  0  0
    7.6852  -15.9244   19.8658 C   0  0  0  0  0  0  0  0  0  0  0  0
    8.8946  -15.9392   19.5260 O   0  0  0  0  0  0  0  0  0  0  0  0
    6.8161  -14.5940   23.7746 O   0  0  0  0  0  0  0  0  0  0  0  0
    7.7144  -13.8735   23.0208 C   0  0  0  0  0  0  0  0  0  0  0  0
    8.3493  -14.7144   21.9207 C   0  0  2  0  0  0  0  0  0  0  0  0
    7.3417  -15.3212   21.1047 N   0  0  0  0  0  0  0  0  0  0  0  0
    9.2228  -15.7164   22.5846 C   0  0  0  0  0  0  0  0  0  0  0  0
    8.7699  -16.8766   22.7614 O   0  0  0  0  0  0  0  0  0  0  0  0
   13.7558  -15.0677   21.4076 N   0  0  0  0  0  0  0  0  0  0  0  0
   13.1119  -16.1811   22.0200 C   0  0  0  0  0  0  0  0  0  0  0  0
   12.8004  -17.1513   21.3064 O   0  0  0  0  0  0  0  0  0  0  0  0
   12.8234  -16.1822   23.4583 C   0  0  0  0  0  0  0  0  0  0  0  0
   11.3832  -16.3748   23.7484 C   0  0  2  0  0  0  0  0  0  0  0  0
   10.5293  -15.4402   23.0271 N   0  0  0  0  0  0  0  0  0  0  0  0
   11.0199  -16.4701   25.1575 C   0  0  0  0  0  0  0  0  0  0  0  0
   10.1480  -15.8274   25.7680 O   0  0  0  0  0  0  0  0  0  0  0  0
   11.7340  -17.3994   25.9377 O   0  0  0  0  0  0  0  0  0  0  0  0
  1  2  1  0
  3  4  2  0
  3  2  1  0
  7  6  1  1
  6  5  1  0
  7  8  1  0
  8  3  1  0
  9  7  1  0
 10  9  2  0
 11 12  1  0
 12 13  2  0
 14 12  1  0
 15 14  1  1
 15 17  1  0
 15 16  1  0
 16  9  1  0
 17 19  1  0
 18 17  2  0
M  END
$$$$
