GSN.pdb
     RDKit          3D

 19 18  0  0  1  0  0  0  0  0999 V2000
   10.2073  -16.8688   15.7468 N   0  0  0  0  0  0  0  0  0  0  0  0
   10.0205  -17.0796   17.1503 C   0  0  0  0  0  0  0  0  0  0  0  0
   10.7381  -16.0792   17.9799 C   0  0  0  0  0  0  0  0  0  0  0  0
   11.5057  -15.2500   17.4305 O   0  0  0  0  0  0  0  0  0  0  0  0
   10.5124  -16.0619   22.2112 O   0  0  0  0  0  0  0  0  0  0  0  0
   10.7316  -14.8847   21.5327 C   0  0  0  0  0  0  0  0  0  0  0  0
   11.3722  -15.1151   20.1700 C   0  0  2  0  0  0  0  0  0  0  0  0
   10.5870  -16.0239   19.3908 N   0  0  0  0  0  0  0  0  0  0  0  0
   12.7492  -15.6176   20.4129 C   0  0  0  0  0  0  0  0  0  0  0  0
   12.9053  -16.8479   20.6240 O   0  0  0  0  0  0  0  0  0  0  0  0
   15.6991  -12.9495   18.0682 N   0  0  0  0  0  0  0  0  0  0  0  0
   16.0149  -14.2353   18.5939 C   0  0  0  0  0  0  0  0  0  0  0  0
   16.0624  -15.2003   17.8102 O   0  0  0  0  0  0  0  0  0  0  0  0
   16.2774  -14.4160   20.0258 C   0  0  0  0  0  0  0  0  0  0  0  0
   15.2474  -15.2475   20.6914 C   0  0  2  0  0  0  0  0  0  0  0  0
   13.8896  -14.7939   20.4201 N   0  0  0  0  0  0  0  0  0  0  0  0
   15.4593  -15.5186   22.1085 C   0  0  0  0  0  0  0  0  0  0  0  0
   14.6824  -15.2988   23.0542 O   0  0  0  0  0  0  0  0  0  0  0  0
   16.6896  -16.1009   22.4684 O   0  0  0  0  0  0  0  0  0  0  0  0
  1  2  1  0
  3  4  2  0
  3  2  1  0
  7  6  1  1
  6  5  1  0
  7  8  1  0
  8  3  1  0
  9  7  1  0
 10  9  2  0
 11 12  1  0
 12 13  2  0
 14 12  1  0
 15 14  1  1
 15 17  1  0
 15 16  1  0
 16  9  1  0
 17 19  1  0
 18 17  2  0
M  END
$$$$
