GSN.pdb
     RDKit          3D

 19 18  0  0  1  0  0  0  0  0999 V2000
    8.1382  -12.5836   17.1466 N   0  0  0  0  0  0  0  0  0  0  0  0
    7.6197  -13.8218   17.6439 C   0  0  0  0  0  0  0  0  0  0  0  0
    7.7810  -13.9610   19.1131 C   0  0  0  0  0  0  0  0  0  0  0  0
    8.5662  -13.1975   19.7285 O   0  0  0  0  0  0  0  0  0  0  0  0
    5.7644  -16.9293   21.4412 O   0  0  0  0  0  0  0  0  0  0  0  0
    5.9873  -15.6557   21.9129 C   0  0  0  0  0  0  0  0  0  0  0  0
    7.2158  -15.0135   21.2812 C   0  0  2  0  0  0  0  0  0  0  0  0
    7.0707  -14.9387   19.8589 N   0  0  0  0  0  0  0  0  0  0  0  0
    8.3924  -15.8233   21.6908 C   0  0  0  0  0  0  0  0  0  0  0  0
    8.8823  -16.6262   20.8555 O   0  0  0  0  0  0  0  0  0  0  0  0
   13.3113  -16.8718   24.0303 N   0  0  0  0  0  0  0  0  0  0  0  0
   12.1136  -16.7388   24.7900 C   0  0  0  0  0  0  0  0  0  0  0  0
   12.0161  -17.3703   25.8575 O   0  0  0  0  0  0  0  0  0  0  0  0
   11.0216  -15.8775   24.3234 C   0  0  0  0  0  0  0  0  0  0  0  0
   10.0788  -16.5899   23.4296 C   0  0  2  0  0  0  0  0  0  0  0  0
    8.9901  -15.7422   22.9617 N   0  0  0  0  0  0  0  0  0  0  0  0
    9.5988  -17.8829   23.9033 C   0  0  0  0  0  0  0  0  0  0  0  0
    8.5377  -18.1329   24.5013 O   0  0  0  0  0  0  0  0  0  0  0  0
   10.4260  -18.9964   23.6624 O   0  0  0  0  0  0  0  0  0  0  0  0
  1  2  1  0
  3  4  2  0
  3  2  1  0
  7  6  1  1
  6  5  1  0
  7  8  1  0
  8  3  1  0
  9  7  1  0
 10  9  2  0
 11 12  1  0
 12 13  2  0
 14 12  1  0
 15 14  1  1
 15 17  1  0
 15 16  1  0
 16  9  1  0
 17 19  1  0
 18 17  2  0
M  END
$$$$
