GSN.pdb
     RDKit          3D

 19 18  0  0  1  0  0  0  0  0999 V2000
    4.8166  -20.1450   21.2305 N   0  0  0  0  0  0  0  0  0  0  0  0
    4.6412  -19.1164   22.2106 C   0  0  0  0  0  0  0  0  0  0  0  0
    5.9123  -18.7397   22.8787 C   0  0  0  0  0  0  0  0  0  0  0  0
    6.9540  -19.4060   22.6564 O   0  0  0  0  0  0  0  0  0  0  0  0
    6.1826  -15.4745   25.5569 O   0  0  0  0  0  0  0  0  0  0  0  0
    7.3065  -15.9406   24.9136 C   0  0  0  0  0  0  0  0  0  0  0  0
    7.1859  -17.4109   24.5341 C   0  0  2  0  0  0  0  0  0  0  0  0
    5.9956  -17.6390   23.7720 N   0  0  0  0  0  0  0  0  0  0  0  0
    7.2104  -18.1925   25.7975 C   0  0  0  0  0  0  0  0  0  0  0  0
    6.1504  -18.7604   26.1668 O   0  0  0  0  0  0  0  0  0  0  0  0
    9.8520  -22.9073   26.4816 N   0  0  0  0  0  0  0  0  0  0  0  0
    8.9117  -22.0155   27.0730 C   0  0  0  0  0  0  0  0  0  0  0  0
    8.4168  -22.3205   28.1729 O   0  0  0  0  0  0  0  0  0  0  0  0
    8.5363  -20.7674   26.3998 C   0  0  0  0  0  0  0  0  0  0  0  0
    8.7810  -19.5726   27.2411 C   0  0  2  0  0  0  0  0  0  0  0  0
    8.3538  -18.3334   26.6048 N   0  0  0  0  0  0  0  0  0  0  0  0
   10.1148  -19.4575   27.8194 C   0  0  0  0  0  0  0  0  0  0  0  0
   10.5029  -19.8531   28.9325 O   0  0  0  0  0  0  0  0  0  0  0  0
   11.0965  -18.8230   27.0346 O   0  0  0  0  0  0  0  0  0  0  0  0
  1  2  1  0
  3  4  2  0
  3  2  1  0
  7  6  1  1
  6  5  1  0
  7  8  1  0
  8  3  1  0
  9  7  1  0
 10  9  2  0
 11 12  1  0
 12 13  2  0
 14 12  1  0
 15 14  1  6
 15 17  1  0
 15 16  1  0
 16  9  1  0
 17 19  1  0
 18 17  2  0
M  END
$$$$
