GSN.pdb
     RDKit          3D

 19 18  0  0  1  0  0  0  0  0999 V2000
   -3.2163  -19.8253   17.0804 N   0  0  0  0  0  0  0  0  0  0  0  0
   -2.0911  -19.4749   17.8930 C   0  0  0  0  0  0  0  0  0  0  0  0
   -0.9900  -20.4667   17.8042 C   0  0  0  0  0  0  0  0  0  0  0  0
   -1.0184  -21.3506   16.9120 O   0  0  0  0  0  0  0  0  0  0  0  0
    2.7402  -19.7119   17.8932 O   0  0  0  0  0  0  0  0  0  0  0  0
    2.1963  -20.9292   17.5518 C   0  0  0  0  0  0  0  0  0  0  0  0
    1.1683  -21.4073   18.5693 C   0  0  2  0  0  0  0  0  0  0  0  0
    0.1095  -20.4530   18.7029 N   0  0  0  0  0  0  0  0  0  0  0  0
    1.8911  -21.6371   19.8470 C   0  0  0  0  0  0  0  0  0  0  0  0
    1.9890  -20.6789   20.6561 O   0  0  0  0  0  0  0  0  0  0  0  0
    0.6553  -25.6375   21.8536 N   0  0  0  0  0  0  0  0  0  0  0  0
    1.4590  -24.5956   22.3994 C   0  0  0  0  0  0  0  0  0  0  0  0
    0.9360  -23.8037   23.2038 O   0  0  0  0  0  0  0  0  0  0  0  0
    2.8698  -24.4606   22.0208 C   0  0  0  0  0  0  0  0  0  0  0  0
    3.1796  -23.1288   21.4501 C   0  0  2  0  0  0  0  0  0  0  0  0
    2.4726  -22.8675   20.2031 N   0  0  0  0  0  0  0  0  0  0  0  0
    4.5934  -22.7832   21.3587 C   0  0  0  0  0  0  0  0  0  0  0  0
    5.3331  -22.3436   22.2563 O   0  0  0  0  0  0  0  0  0  0  0  0
    5.2132  -22.9630   20.1075 O   0  0  0  0  0  0  0  0  0  0  0  0
  1  2  1  0
  3  4  2  0
  3  2  1  0
  7  6  1  6
  6  5  1  0
  7  8  1  0
  8  3  1  0
  9  7  1  0
 10  9  2  0
 11 12  1  0
 12 13  2  0
 14 12  1  0
 15 14  1  6
 15 17  1  0
 15 16  1  0
 16  9  1  0
 17 19  1  0
 18 17  2  0
M  END
$$$$
