GSN.pdb
     RDKit          3D

 19 18  0  0  1  0  0  0  0  0999 V2000
    7.8193  -17.6524   16.7723 N   0  0  0  0  0  0  0  0  0  0  0  0
    7.1268  -17.3918   17.9978 C   0  0  0  0  0  0  0  0  0  0  0  0
    7.9213  -16.5633   18.9392 C   0  0  0  0  0  0  0  0  0  0  0  0
    9.1220  -16.3019   18.6780 O   0  0  0  0  0  0  0  0  0  0  0  0
    6.5002  -15.3529   22.7532 O   0  0  0  0  0  0  0  0  0  0  0  0
    7.2566  -14.4853   21.9987 C   0  0  0  0  0  0  0  0  0  0  0  0
    8.1490  -15.2147   21.0026 C   0  0  2  0  0  0  0  0  0  0  0  0
    7.3666  -16.0481   20.1407 N   0  0  0  0  0  0  0  0  0  0  0  0
    9.1442  -15.9872   21.7904 C   0  0  0  0  0  0  0  0  0  0  0  0
    8.9128  -17.2035   22.0127 O   0  0  0  0  0  0  0  0  0  0  0  0
   14.8153  -15.7381   24.2530 N   0  0  0  0  0  0  0  0  0  0  0  0
   13.7352  -16.3738   23.5758 C   0  0  0  0  0  0  0  0  0  0  0  0
   13.6888  -17.6170   23.5707 O   0  0  0  0  0  0  0  0  0  0  0  0
   12.7029  -15.5800   22.9004 C   0  0  0  0  0  0  0  0  0  0  0  0
   11.3520  -16.1740   23.0338 C   0  0  2  0  0  0  0  0  0  0  0  0
   10.3321  -15.4340   22.3023 N   0  0  0  0  0  0  0  0  0  0  0  0
   10.9245  -16.4972   24.3900 C   0  0  0  0  0  0  0  0  0  0  0  0
   11.2177  -17.4984   25.0665 O   0  0  0  0  0  0  0  0  0  0  0  0
   10.0748  -15.5729   25.0271 O   0  0  0  0  0  0  0  0  0  0  0  0
  1  2  1  0
  3  4  2  0
  3  2  1  0
  7  6  1  1
  6  5  1  0
  7  8  1  0
  8  3  1  0
  9  7  1  0
 10  9  2  0
 11 12  1  0
 12 13  2  0
 14 12  1  0
 15 14  1  1
 15 17  1  0
 15 16  1  0
 16  9  1  0
 17 19  1  0
 18 17  2  0
M  END
$$$$
