GSN.pdb
     RDKit          3D

 19 18  0  0  1  0  0  0  0  0999 V2000
    8.0524  -14.5511   13.6259 N   0  0  0  0  0  0  0  0  0  0  0  0
    7.4815  -14.7237   14.9273 C   0  0  0  0  0  0  0  0  0  0  0  0
    8.3037  -14.1080   15.9991 C   0  0  0  0  0  0  0  0  0  0  0  0
    9.4584  -13.6891   15.7354 O   0  0  0  0  0  0  0  0  0  0  0  0
    7.2524  -14.2774   20.1118 O   0  0  0  0  0  0  0  0  0  0  0  0
    7.8737  -13.1532   19.6173 C   0  0  0  0  0  0  0  0  0  0  0  0
    8.6752  -13.4452   18.3552 C   0  0  2  0  0  0  0  0  0  0  0  0
    7.8268  -13.9730   17.3299 N   0  0  0  0  0  0  0  0  0  0  0  0
    9.7614  -14.3854   18.7341 C   0  0  0  0  0  0  0  0  0  0  0  0
    9.6121  -15.6058   18.4680 O   0  0  0  0  0  0  0  0  0  0  0  0
   15.1635  -15.6122   18.5552 N   0  0  0  0  0  0  0  0  0  0  0  0
   14.5467  -15.0084   19.6885 C   0  0  0  0  0  0  0  0  0  0  0  0
   15.0123  -15.2519   20.8162 O   0  0  0  0  0  0  0  0  0  0  0  0
   13.3899  -14.1207   19.5282 C   0  0  0  0  0  0  0  0  0  0  0  0
   12.1011  -14.8471   19.6105 C   0  0  2  0  0  0  0  0  0  0  0  0
   10.9489  -13.9871   19.3746 N   0  0  0  0  0  0  0  0  0  0  0  0
   11.9173  -15.6967   20.7815 C   0  0  0  0  0  0  0  0  0  0  0  0
   12.4150  -16.8148   21.0013 O   0  0  0  0  0  0  0  0  0  0  0  0
   11.0758  -15.2063   21.7982 O   0  0  0  0  0  0  0  0  0  0  0  0
  1  2  1  0
  3  4  2  0
  3  2  1  0
  7  6  1  1
  6  5  1  0
  7  8  1  0
  8  3  1  0
  9  7  1  0
 10  9  2  0
 11 12  1  0
 12 13  2  0
 14 12  1  0
 15 14  1  1
 15 17  1  0
 15 16  1  0
 16  9  1  0
 17 19  1  0
 18 17  2  0
M  END
$$$$
