GSN.pdb
     RDKit          3D

 19 18  0  0  1  0  0  0  0  0999 V2000
   10.5633  -19.1966   19.9603 N   0  0  0  0  0  0  0  0  0  0  0  0
    9.4136  -18.8437   20.7368 C   0  0  0  0  0  0  0  0  0  0  0  0
    9.4286  -17.4234   21.1687 C   0  0  0  0  0  0  0  0  0  0  0  0
   10.4815  -16.9272   21.6413 O   0  0  0  0  0  0  0  0  0  0  0  0
    5.9360  -15.0337   21.2969 O   0  0  0  0  0  0  0  0  0  0  0  0
    7.1377  -14.4511   20.9642 C   0  0  0  0  0  0  0  0  0  0  0  0
    8.3273  -15.2324   21.5074 C   0  0  2  0  0  0  0  0  0  0  0  0
    8.2809  -16.5934   21.0659 N   0  0  0  0  0  0  0  0  0  0  0  0
    8.2898  -15.1135   22.9881 C   0  0  0  0  0  0  0  0  0  0  0  0
    7.7327  -16.0304   23.6449 O   0  0  0  0  0  0  0  0  0  0  0  0
    5.6615  -12.2498   27.0556 N   0  0  0  0  0  0  0  0  0  0  0  0
    6.9485  -12.7120   26.6563 C   0  0  0  0  0  0  0  0  0  0  0  0
    7.8497  -12.7678   27.5122 O   0  0  0  0  0  0  0  0  0  0  0  0
    7.2039  -13.1123   25.2683 C   0  0  0  0  0  0  0  0  0  0  0  0
    8.5496  -13.7052   25.0867 C   0  0  2  0  0  0  0  0  0  0  0  0
    8.8429  -14.0320   23.6974 N   0  0  0  0  0  0  0  0  0  0  0  0
    8.8965  -14.7969   25.9891 C   0  0  0  0  0  0  0  0  0  0  0  0
    8.5209  -14.9690   27.1619 O   0  0  0  0  0  0  0  0  0  0  0  0
    9.7625  -15.7871   25.4873 O   0  0  0  0  0  0  0  0  0  0  0  0
  1  2  1  0
  3  4  2  0
  3  2  1  0
  7  6  1  6
  6  5  1  0
  7  8  1  0
  8  3  1  0
  9  7  1  0
 10  9  2  0
 11 12  1  0
 12 13  2  0
 14 12  1  0
 15 14  1  6
 15 17  1  0
 15 16  1  0
 16  9  1  0
 17 19  1  0
 18 17  2  0
M  END
$$$$
