GSN.pdb
     RDKit          3D

 19 18  0  0  1  0  0  0  0  0999 V2000
    8.2779  -17.4626   17.2904 N   0  0  0  0  0  0  0  0  0  0  0  0
    7.7163  -17.4724   18.6072 C   0  0  0  0  0  0  0  0  0  0  0  0
    8.3919  -16.5206   19.5246 C   0  0  0  0  0  0  0  0  0  0  0  0
    9.6016  -16.2338   19.3440 O   0  0  0  0  0  0  0  0  0  0  0  0
    6.4885  -15.1480   23.0012 O   0  0  0  0  0  0  0  0  0  0  0  0
    7.4716  -14.3514   22.4596 C   0  0  0  0  0  0  0  0  0  0  0  0
    8.4324  -15.1397   21.5787 C   0  0  2  0  0  0  0  0  0  0  0  0
    7.7121  -15.9140   20.6138 N   0  0  0  0  0  0  0  0  0  0  0  0
    9.2611  -15.9821   22.4795 C   0  0  0  0  0  0  0  0  0  0  0  0
    8.9272  -17.1836   22.6450 O   0  0  0  0  0  0  0  0  0  0  0  0
   12.9269  -17.2266   22.1880 N   0  0  0  0  0  0  0  0  0  0  0  0
   13.4438  -16.3348   23.1713 C   0  0  0  0  0  0  0  0  0  0  0  0
   14.6441  -16.0141   23.1075 O   0  0  0  0  0  0  0  0  0  0  0  0
   12.5802  -15.8082   24.2337 C   0  0  0  0  0  0  0  0  0  0  0  0
   11.1815  -16.2824   24.1158 C   0  0  2  0  0  0  0  0  0  0  0  0
   10.3996  -15.5110   23.1585 N   0  0  0  0  0  0  0  0  0  0  0  0
   10.4646  -16.4838   25.3697 C   0  0  0  0  0  0  0  0  0  0  0  0
   10.4675  -17.4904   26.0996 O   0  0  0  0  0  0  0  0  0  0  0  0
    9.6659  -15.4174   25.8248 O   0  0  0  0  0  0  0  0  0  0  0  0
  1  2  1  0
  3  4  2  0
  3  2  1  0
  7  6  1  1
  6  5  1  0
  7  8  1  0
  8  3  1  0
  9  7  1  0
 10  9  2  0
 11 12  1  0
 12 13  2  0
 14 12  1  0
 15 14  1  1
 15 17  1  0
 15 16  1  0
 16  9  1  0
 17 19  1  0
 18 17  2  0
M  END
$$$$
