QYT.pdb
     RDKit          3D

 29 29  0  0  1  0  0  0  0  0999 V2000
    8.0859  -22.2322   21.3379 N   0  0  0  0  0  0  0  0  0  0  0  0
    8.9769  -22.0580   20.2500 C   0  0  0  0  0  0  0  0  0  0  0  0
    9.0097  -22.9323   19.3595 O   0  0  0  0  0  0  0  0  0  0  0  0
    9.8507  -20.8692   20.1683 C   0  0  0  0  0  0  0  0  0  0  0  0
    9.6443  -19.8722   21.2636 C   0  0  0  0  0  0  0  0  0  0  0  0
    9.4677  -18.4587   20.8314 C   0  0  2  0  0  0  0  0  0  0  0  0
   10.4828  -18.0822   19.8395 N   0  0  0  0  0  0  0  0  0  0  0  0
    9.4598  -17.4668   21.9344 C   0  0  0  0  0  0  0  0  0  0  0  0
   10.5550  -17.0018   22.3297 O   0  0  0  0  0  0  0  0  0  0  0  0
    8.1509  -12.1138   18.6332 O   0  0  0  0  0  0  0  0  0  0  0  0
    7.9440  -12.8224   19.8297 C   0  0  0  0  0  0  0  0  0  0  0  0
    8.6353  -12.4537   20.9421 C   0  0  0  0  0  0  0  0  0  0  0  0
    8.4263  -13.1591   22.1241 C   0  0  0  0  0  0  0  0  0  0  0  0
    7.5486  -14.2138   22.2115 C   0  0  0  0  0  0  0  0  0  0  0  0
    7.3545  -14.9310   23.4723 C   0  0  0  0  0  0  0  0  0  0  0  0
    8.2546  -16.0945   23.6923 C   0  0  2  0  0  0  0  0  0  0  0  0
    8.2718  -17.0132   22.5701 N   0  0  0  0  0  0  0  0  0  0  0  0
    8.0723  -16.8220   24.9530 C   0  0  0  0  0  0  0  0  0  0  0  0
    7.0618  -17.5902   25.1226 O   0  0  0  0  0  0  0  0  0  0  0  0
    6.8624  -14.5607   21.0587 C   0  0  0  0  0  0  0  0  0  0  0  0
    7.0601  -13.8675   19.8741 C   0  0  0  0  0  0  0  0  0  0  0  0
    8.4549  -19.6163   25.7093 C   0  0  0  0  0  0  0  0  0  0  0  0
    9.4237  -19.0310   26.7147 C   0  0  1  0  0  0  0  0  0  0  0  0
   10.6627  -18.9203   26.1342 O   0  0  0  0  0  0  0  0  0  0  0  0
    8.8904  -17.6652   27.1928 C   0  0  2  0  0  0  0  0  0  0  0  0
    8.9506  -16.7604   26.0653 N   0  0  0  0  0  0  0  0  0  0  0  0
    9.8801  -17.2071   28.1988 C   0  0  0  0  0  0  0  0  0  0  0  0
   10.6841  -16.2653   27.9722 O   0  0  0  0  0  0  0  0  0  0  0  0
    9.9835  -17.7890   29.4583 O   0  0  0  0  0  0  0  0  0  0  0  0
  1  2  1  0
  2  3  2  0
  2  4  1  0
  4  5  1  0
  6  5  1  0
  6  7  1  6
  8  9  2  0
  8  6  1  0
 10 11  1  0
 11 21  2  0
 12 11  1  0
 12 13  2  0
 13 14  1  0
 14 15  1  0
 16 15  1  6
 16 17  1  0
 17  8  1  0
 18 16  1  0
 18 26  1  0
 19 18  2  0
 20 14  2  0
 21 20  1  0
 23 22  1  6
 23 25  1  0
 24 23  1  0
 25 26  1  6
 25 27  1  0
 27 29  1  0
 28 27  2  0
M  END
$$$$
