QYT.pdb
     RDKit          3D

 29 29  0  0  1  0  0  0  0  0999 V2000
    6.2311  -19.7018   20.7615 N   0  0  0  0  0  0  0  0  0  0  0  0
    7.5031  -19.7493   20.1389 C   0  0  0  0  0  0  0  0  0  0  0  0
    8.1880  -20.7861   20.2590 O   0  0  0  0  0  0  0  0  0  0  0  0
    8.0118  -18.5983   19.3645 C   0  0  0  0  0  0  0  0  0  0  0  0
    7.0714  -17.4381   19.2891 C   0  0  0  0  0  0  0  0  0  0  0  0
    7.6954  -16.0890   19.3710 C   0  0  2  0  0  0  0  0  0  0  0  0
    8.8009  -15.9628   18.4131 N   0  0  0  0  0  0  0  0  0  0  0  0
    8.1642  -15.7012   20.7239 C   0  0  0  0  0  0  0  0  0  0  0  0
    9.3832  -15.8191   20.9922 O   0  0  0  0  0  0  0  0  0  0  0  0
    8.2020  -12.5149   29.0593 O   0  0  0  0  0  0  0  0  0  0  0  0
    7.8357  -12.9009   27.7580 C   0  0  0  0  0  0  0  0  0  0  0  0
    7.9492  -11.9983   26.7462 C   0  0  0  0  0  0  0  0  0  0  0  0
    7.5850  -12.3862   25.4597 C   0  0  0  0  0  0  0  0  0  0  0  0
    7.1150  -13.6457   25.1713 C   0  0  0  0  0  0  0  0  0  0  0  0
    6.7428  -14.0175   23.8057 C   0  0  0  0  0  0  0  0  0  0  0  0
    7.7448  -14.8326   23.0682 C   0  0  2  0  0  0  0  0  0  0  0  0
    7.3016  -15.2006   21.7371 N   0  0  0  0  0  0  0  0  0  0  0  0
    8.2742  -16.0019   23.7783 C   0  0  0  0  0  0  0  0  0  0  0  0
    7.5194  -17.0027   24.0406 O   0  0  0  0  0  0  0  0  0  0  0  0
    7.0129  -14.5379   26.2266 C   0  0  0  0  0  0  0  0  0  0  0  0
    7.3719  -14.1660   27.5134 C   0  0  0  0  0  0  0  0  0  0  0  0
   11.2106  -18.2680   22.9465 C   0  0  0  0  0  0  0  0  0  0  0  0
   11.4519  -17.6983   24.3282 C   0  0  1  0  0  0  0  0  0  0  0  0
   12.3036  -16.6263   24.2308 O   0  0  0  0  0  0  0  0  0  0  0  0
   10.0990  -17.3008   24.9530 C   0  0  2  0  0  0  0  0  0  0  0  0
    9.6118  -16.1474   24.2278 N   0  0  0  0  0  0  0  0  0  0  0  0
   10.4355  -16.8648   26.3307 C   0  0  0  0  0  0  0  0  0  0  0  0
   10.3373  -15.6655   26.7004 O   0  0  0  0  0  0  0  0  0  0  0  0
   10.8816  -17.7537   27.3036 O   0  0  0  0  0  0  0  0  0  0  0  0
  1  2  1  0
  2  3  2  0
  2  4  1  0
  4  5  1  0
  6  5  1  0
  6  7  1  6
  8  9  2  0
  8  6  1  0
 10 11  1  0
 11 21  2  0
 12 11  1  0
 12 13  2  0
 13 14  1  0
 14 15  1  0
 16 15  1  1
 16 17  1  0
 17  8  1  0
 18 16  1  0
 18 26  1  0
 19 18  2  0
 20 14  2  0
 21 20  1  0
 23 22  1  6
 23 25  1  0
 24 23  1  0
 25 26  1  6
 25 27  1  0
 27 29  1  0
 28 27  2  0
M  END
$$$$
