QYT.pdb
     RDKit          3D

 29 29  0  0  1  0  0  0  0  0999 V2000
    9.3528  -13.2839   16.8348 N   0  0  0  0  0  0  0  0  0  0  0  0
    8.4677  -14.3902   16.8532 C   0  0  0  0  0  0  0  0  0  0  0  0
    7.6286  -14.4985   15.9352 O   0  0  0  0  0  0  0  0  0  0  0  0
    8.5325  -15.3954   17.9343 C   0  0  0  0  0  0  0  0  0  0  0  0
    9.5393  -15.0963   18.9987 C   0  0  0  0  0  0  0  0  0  0  0  0
    9.5976  -16.0637   20.1287 C   0  0  2  0  0  0  0  0  0  0  0  0
    8.5351  -17.0705   20.0134 N   0  0  0  0  0  0  0  0  0  0  0  0
    9.5539  -15.4484   21.4778 C   0  0  0  0  0  0  0  0  0  0  0  0
   10.6048  -14.9463   21.9417 O   0  0  0  0  0  0  0  0  0  0  0  0
    6.6652  -10.8082   28.4125 O   0  0  0  0  0  0  0  0  0  0  0  0
    6.7941  -11.5330   27.2147 C   0  0  0  0  0  0  0  0  0  0  0  0
    6.0189  -12.6348   27.0244 C   0  0  0  0  0  0  0  0  0  0  0  0
    6.1509  -13.3485   25.8363 C   0  0  0  0  0  0  0  0  0  0  0  0
    7.0340  -12.9836   24.8476 C   0  0  0  0  0  0  0  0  0  0  0  0
    7.1440  -13.7584   23.6110 C   0  0  0  0  0  0  0  0  0  0  0  0
    8.2929  -14.7010   23.5460 C   0  0  2  0  0  0  0  0  0  0  0  0
    8.3788  -15.3972   22.2766 N   0  0  0  0  0  0  0  0  0  0  0  0
    8.4175  -15.6444   24.6623 C   0  0  0  0  0  0  0  0  0  0  0  0
    8.5226  -15.2204   25.8661 O   0  0  0  0  0  0  0  0  0  0  0  0
    7.8066  -11.8564   25.0765 C   0  0  0  0  0  0  0  0  0  0  0  0
    7.6864  -11.1354   26.2548 C   0  0  0  0  0  0  0  0  0  0  0  0
    6.5264  -19.2577   25.0324 C   0  0  0  0  0  0  0  0  0  0  0  0
    8.0289  -19.3381   25.2002 C   0  0  1  0  0  0  0  0  0  0  0  0
    8.5940  -19.7327   24.0131 O   0  0  0  0  0  0  0  0  0  0  0  0
    8.5593  -17.9646   25.6591 C   0  0  2  0  0  0  0  0  0  0  0  0
    8.4326  -17.0576   24.5389 N   0  0  0  0  0  0  0  0  0  0  0  0
   10.0056  -18.1844   25.9068 C   0  0  0  0  0  0  0  0  0  0  0  0
   10.4255  -18.9049   26.8497 O   0  0  0  0  0  0  0  0  0  0  0  0
   10.9917  -17.6080   25.1124 O   0  0  0  0  0  0  0  0  0  0  0  0
  1  2  1  0
  2  3  2  0
  2  4  1  0
  4  5  1  0
  6  5  1  0
  6  7  1  6
  8  9  2  0
  8  6  1  0
 10 11  1  0
 11 21  2  0
 12 11  1  0
 12 13  2  0
 13 14  1  0
 14 15  1  0
 16 15  1  1
 16 17  1  0
 17  8  1  0
 18 16  1  0
 18 26  1  0
 19 18  2  0
 20 14  2  0
 21 20  1  0
 23 22  1  6
 23 25  1  0
 24 23  1  0
 25 26  1  6
 25 27  1  0
 27 29  1  0
 28 27  2  0
M  END
$$$$
