QYT.pdb
     RDKit          3D

 29 29  0  0  1  0  0  0  0  0999 V2000
    5.8240  -19.9198   19.7886 N   0  0  0  0  0  0  0  0  0  0  0  0
    6.3312  -19.6242   18.4990 C   0  0  0  0  0  0  0  0  0  0  0  0
    5.7847  -20.1507   17.5077 O   0  0  0  0  0  0  0  0  0  0  0  0
    7.4824  -18.7140   18.3271 C   0  0  0  0  0  0  0  0  0  0  0  0
    7.9457  -18.0563   19.5877 C   0  0  0  0  0  0  0  0  0  0  0  0
    8.3340  -16.6241   19.4691 C   0  0  2  0  0  0  0  0  0  0  0  0
    9.4123  -16.4519   18.4875 N   0  0  0  0  0  0  0  0  0  0  0  0
    8.7178  -15.9754   20.7467 C   0  0  0  0  0  0  0  0  0  0  0  0
    9.8620  -16.1945   21.2099 O   0  0  0  0  0  0  0  0  0  0  0  0
    7.4625  -12.1657   28.7363 O   0  0  0  0  0  0  0  0  0  0  0  0
    7.4188  -12.5059   27.3729 C   0  0  0  0  0  0  0  0  0  0  0  0
    6.2983  -13.0970   26.8766 C   0  0  0  0  0  0  0  0  0  0  0  0
    6.2609  -13.4317   25.5257 C   0  0  0  0  0  0  0  0  0  0  0  0
    7.3119  -13.1882   24.6733 C   0  0  0  0  0  0  0  0  0  0  0  0
    7.2354  -13.5533   23.2582 C   0  0  0  0  0  0  0  0  0  0  0  0
    8.0991  -14.6907   22.8427 C   0  0  2  0  0  0  0  0  0  0  0  0
    7.8539  -15.1146   21.4775 N   0  0  0  0  0  0  0  0  0  0  0  0
    8.1233  -15.8462   23.7460 C   0  0  0  0  0  0  0  0  0  0  0  0
    7.0726  -16.5560   23.9256 O   0  0  0  0  0  0  0  0  0  0  0  0
    8.4361  -12.5851   25.2140 C   0  0  0  0  0  0  0  0  0  0  0  0
    8.4881  -12.2460   26.5576 C   0  0  0  0  0  0  0  0  0  0  0  0
    9.5409  -19.1161   23.5943 C   0  0  0  0  0  0  0  0  0  0  0  0
   10.1930  -18.4791   24.8030 C   0  0  1  0  0  0  0  0  0  0  0  0
   11.3990  -17.9390   24.4316 O   0  0  0  0  0  0  0  0  0  0  0  0
    9.2426  -17.4134   25.3857 C   0  0  2  0  0  0  0  0  0  0  0  0
    9.2549  -16.2842   24.4810 N   0  0  0  0  0  0  0  0  0  0  0  0
    9.8863  -16.9893   26.6534 C   0  0  0  0  0  0  0  0  0  0  0  0
   10.3825  -15.8425   26.8061 O   0  0  0  0  0  0  0  0  0  0  0  0
    9.9830  -17.8322   27.7561 O   0  0  0  0  0  0  0  0  0  0  0  0
  1  2  1  0
  2  3  2  0
  2  4  1  0
  4  5  1  0
  6  5  1  0
  6  7  1  6
  8  9  2  0
  8  6  1  0
 10 11  1  0
 11 21  2  0
 12 11  1  0
 12 13  2  0
 13 14  1  0
 14 15  1  0
 16 15  1  1
 16 17  1  0
 17  8  1  0
 18 16  1  0
 18 26  1  0
 19 18  2  0
 20 14  2  0
 21 20  1  0
 23 22  1  6
 23 25  1  0
 24 23  1  0
 25 26  1  6
 25 27  1  0
 27 29  1  0
 28 27  2  0
M  END
$$$$
