QYT.pdb
     RDKit          3D

 29 29  0  0  1  0  0  0  0  0999 V2000
    9.4632  -22.6914   22.8882 N   0  0  0  0  0  0  0  0  0  0  0  0
   10.1459  -23.1415   24.0453 C   0  0  0  0  0  0  0  0  0  0  0  0
   10.6945  -24.2626   24.0164 O   0  0  0  0  0  0  0  0  0  0  0  0
   10.2086  -22.3056   25.2622 C   0  0  0  0  0  0  0  0  0  0  0  0
    9.4474  -21.0216   25.1716 C   0  0  0  0  0  0  0  0  0  0  0  0
   10.0184  -19.8727   25.9266 C   0  0  2  0  0  0  0  0  0  0  0  0
    9.5384  -19.8656   27.3142 N   0  0  0  0  0  0  0  0  0  0  0  0
    9.7796  -18.5438   25.3122 C   0  0  0  0  0  0  0  0  0  0  0  0
    8.6274  -18.2733   24.8984 O   0  0  0  0  0  0  0  0  0  0  0  0
    9.8616  -14.5625   30.5274 O   0  0  0  0  0  0  0  0  0  0  0  0
   10.1860  -14.6983   29.1662 C   0  0  0  0  0  0  0  0  0  0  0  0
   11.1996  -15.5334   28.8103 C   0  0  0  0  0  0  0  0  0  0  0  0
   11.5162  -15.6639   27.4609 C   0  0  0  0  0  0  0  0  0  0  0  0
   10.8449  -14.9820   26.4736 C   0  0  0  0  0  0  0  0  0  0  0  0
   11.2058  -15.1457   25.0648 C   0  0  0  0  0  0  0  0  0  0  0  0
   10.6310  -16.3408   24.3912 C   0  0  2  0  0  0  0  0  0  0  0  0
   10.7917  -17.5559   25.1666 N   0  0  0  0  0  0  0  0  0  0  0  0
   11.0422  -16.5575   22.9999 C   0  0  0  0  0  0  0  0  0  0  0  0
   12.2679  -16.7901   22.7106 O   0  0  0  0  0  0  0  0  0  0  0  0
    9.8189  -14.1409   26.8736 C   0  0  0  0  0  0  0  0  0  0  0  0
    9.4920  -14.0006   28.2138 C   0  0  0  0  0  0  0  0  0  0  0  0
    9.5629  -19.0867   20.4169 C   0  0  0  0  0  0  0  0  0  0  0  0
    9.4884  -17.6767   19.8707 C   0  0  1  0  0  0  0  0  0  0  0  0
    8.2381  -17.1651   20.1138 O   0  0  0  0  0  0  0  0  0  0  0  0
   10.5942  -16.8235   20.5249 C   0  0  2  0  0  0  0  0  0  0  0  0
   10.1728  -16.5368   21.8791 N   0  0  0  0  0  0  0  0  0  0  0  0
   10.5844  -15.5494   19.7647 C   0  0  0  0  0  0  0  0  0  0  0  0
   10.1460  -14.4759   20.2549 O   0  0  0  0  0  0  0  0  0  0  0  0
   11.0593  -15.4585   18.4601 O   0  0  0  0  0  0  0  0  0  0  0  0
  1  2  1  0
  2  3  2  0
  2  4  1  0
  4  5  1  0
  6  5  1  0
  6  7  1  1
  8  9  2  0
  8  6  1  0
 10 11  1  0
 11 21  2  0
 12 11  1  0
 12 13  2  0
 13 14  1  0
 14 15  1  0
 16 15  1  1
 16 17  1  0
 17  8  1  0
 18 16  1  0
 18 26  1  0
 19 18  2  0
 20 14  2  0
 21 20  1  0
 23 22  1  1
 23 25  1  0
 24 23  1  0
 25 26  1  1
 25 27  1  0
 27 29  1  0
 28 27  2  0
M  END
$$$$
