QYT.pdb
     RDKit          3D

 29 29  0  0  1  0  0  0  0  0999 V2000
   14.5310  -19.0832   21.5561 N   0  0  0  0  0  0  0  0  0  0  0  0
   13.5331  -19.8873   20.9517 C   0  0  0  0  0  0  0  0  0  0  0  0
   13.8052  -21.0761   20.6847 O   0  0  0  0  0  0  0  0  0  0  0  0
   12.1983  -19.3343   20.6417 C   0  0  0  0  0  0  0  0  0  0  0  0
   12.0328  -17.8877   20.9826 C   0  0  0  0  0  0  0  0  0  0  0  0
   10.6552  -17.3408   20.8446 C   0  0  2  0  0  0  0  0  0  0  0  0
   10.4277  -16.8270   19.4880 N   0  0  0  0  0  0  0  0  0  0  0  0
   10.2972  -16.2977   21.8367 C   0  0  0  0  0  0  0  0  0  0  0  0
   11.1394  -15.4070   22.1000 O   0  0  0  0  0  0  0  0  0  0  0  0
    7.7397  -13.0658   17.4126 O   0  0  0  0  0  0  0  0  0  0  0  0
    7.6926  -13.3829   18.7814 C   0  0  0  0  0  0  0  0  0  0  0  0
    6.9299  -14.4334   19.1887 C   0  0  0  0  0  0  0  0  0  0  0  0
    6.8871  -14.7427   20.5455 C   0  0  0  0  0  0  0  0  0  0  0  0
    7.5854  -14.0282   21.4901 C   0  0  0  0  0  0  0  0  0  0  0  0
    7.5165  -14.3840   22.9079 C   0  0  0  0  0  0  0  0  0  0  0  0
    8.6522  -15.1964   23.4202 C   0  0  2  0  0  0  0  0  0  0  0  0
    9.0448  -16.2536   22.5082 N   0  0  0  0  0  0  0  0  0  0  0  0
    8.5097  -15.7171   24.7842 C   0  0  0  0  0  0  0  0  0  0  0  0
    8.0009  -14.9922   25.7093 O   0  0  0  0  0  0  0  0  0  0  0  0
    8.3512  -12.9654   21.0383 C   0  0  0  0  0  0  0  0  0  0  0  0
    8.4037  -12.6453   19.6902 C   0  0  0  0  0  0  0  0  0  0  0  0
    6.3591  -18.2409   26.1791 C   0  0  0  0  0  0  0  0  0  0  0  0
    7.7638  -18.7285   26.4638 C   0  0  1  0  0  0  0  0  0  0  0  0
    8.1456  -19.6027   25.4767 O   0  0  0  0  0  0  0  0  0  0  0  0
    8.7108  -17.5145   26.5522 C   0  0  2  0  0  0  0  0  0  0  0  0
    8.8972  -17.0145   25.2073 N   0  0  0  0  0  0  0  0  0  0  0  0
   10.0033  -18.0794   27.0122 C   0  0  0  0  0  0  0  0  0  0  0  0
   11.0443  -18.0423   26.3052 O   0  0  0  0  0  0  0  0  0  0  0  0
   10.1486  -18.6871   28.2553 O   0  0  0  0  0  0  0  0  0  0  0  0
  1  2  1  0
  2  3  2  0
  2  4  1  0
  4  5  1  0
  6  5  1  0
  6  7  1  6
  8  9  2  0
  8  6  1  0
 10 11  1  0
 11 21  2  0
 12 11  1  0
 12 13  2  0
 13 14  1  0
 14 15  1  0
 16 15  1  6
 16 17  1  0
 17  8  1  0
 18 16  1  0
 18 26  1  0
 19 18  2  0
 20 14  2  0
 21 20  1  0
 23 22  1  6
 23 25  1  0
 24 23  1  0
 25 26  1  6
 25 27  1  0
 27 29  1  0
 28 27  2  0
M  END
$$$$
