QYT.pdb
     RDKit          3D

 29 29  0  0  1  0  0  0  0  0999 V2000
    8.1547  -17.8834   18.6167 N   0  0  0  0  0  0  0  0  0  0  0  0
    7.6754  -17.2511   17.4427 C   0  0  0  0  0  0  0  0  0  0  0  0
    7.0554  -17.9386   16.6052 O   0  0  0  0  0  0  0  0  0  0  0  0
    7.9033  -15.8097   17.2106 C   0  0  0  0  0  0  0  0  0  0  0  0
    8.6768  -15.1231   18.2907 C   0  0  0  0  0  0  0  0  0  0  0  0
    7.9775  -14.0047   18.9807 C   0  0  2  0  0  0  0  0  0  0  0  0
    8.1752  -12.7392   18.2629 N   0  0  0  0  0  0  0  0  0  0  0  0
    8.3428  -13.8281   20.4076 C   0  0  0  0  0  0  0  0  0  0  0  0
    9.5254  -13.5220   20.6898 O   0  0  0  0  0  0  0  0  0  0  0  0
    7.8995  -13.2677   29.2696 O   0  0  0  0  0  0  0  0  0  0  0  0
    7.6608  -13.2179   27.8851 C   0  0  0  0  0  0  0  0  0  0  0  0
    8.5800  -12.6211   27.0788 C   0  0  0  0  0  0  0  0  0  0  0  0
    8.3382  -12.5747   25.7085 C   0  0  0  0  0  0  0  0  0  0  0  0
    7.2068  -13.1085   25.1379 C   0  0  0  0  0  0  0  0  0  0  0  0
    6.9876  -13.0415   23.6925 C   0  0  0  0  0  0  0  0  0  0  0  0
    7.7959  -13.9876   22.8777 C   0  0  2  0  0  0  0  0  0  0  0  0
    7.4197  -13.9880   21.4770 N   0  0  0  0  0  0  0  0  0  0  0  0
    7.8913  -15.3598   23.3876 C   0  0  0  0  0  0  0  0  0  0  0  0
    6.8706  -16.1331   23.3740 O   0  0  0  0  0  0  0  0  0  0  0  0
    6.2933  -13.7081   25.9899 C   0  0  0  0  0  0  0  0  0  0  0  0
    6.5203  -13.7619   27.3568 C   0  0  0  0  0  0  0  0  0  0  0  0
    9.5293  -18.3718   22.2479 C   0  0  0  0  0  0  0  0  0  0  0  0
   10.1351  -18.0863   23.6056 C   0  0  1  0  0  0  0  0  0  0  0  0
   11.3083  -17.3936   23.4385 O   0  0  0  0  0  0  0  0  0  0  0  0
    9.1189  -17.2963   24.4552 C   0  0  2  0  0  0  0  0  0  0  0  0
    9.0642  -15.9523   23.9222 N   0  0  0  0  0  0  0  0  0  0  0  0
    9.7312  -17.2273   25.8049 C   0  0  0  0  0  0  0  0  0  0  0  0
   10.2415  -16.1702   26.2597 O   0  0  0  0  0  0  0  0  0  0  0  0
    9.7811  -18.3271   26.6556 O   0  0  0  0  0  0  0  0  0  0  0  0
  1  2  1  0
  2  3  2  0
  2  4  1  0
  4  5  1  0
  6  5  1  0
  6  7  1  6
  8  9  2  0
  8  6  1  0
 10 11  1  0
 11 21  2  0
 12 11  1  0
 12 13  2  0
 13 14  1  0
 14 15  1  0
 16 15  1  1
 16 17  1  0
 17  8  1  0
 18 16  1  0
 18 26  1  0
 19 18  2  0
 20 14  2  0
 21 20  1  0
 23 22  1  6
 23 25  1  0
 24 23  1  0
 25 26  1  6
 25 27  1  0
 27 29  1  0
 28 27  2  0
M  END
$$$$
