QYT.pdb
     RDKit          3D

 29 29  0  0  1  0  0  0  0  0999 V2000
    8.2786  -17.0609   17.4170 N   0  0  0  0  0  0  0  0  0  0  0  0
    7.3696  -16.0647   16.9820 C   0  0  0  0  0  0  0  0  0  0  0  0
    6.7726  -16.2336   15.8987 O   0  0  0  0  0  0  0  0  0  0  0  0
    7.1316  -14.8505   17.7897 C   0  0  0  0  0  0  0  0  0  0  0  0
    7.8650  -14.8195   19.0925 C   0  0  0  0  0  0  0  0  0  0  0  0
    7.5569  -13.6684   19.9848 C   0  0  2  0  0  0  0  0  0  0  0  0
    7.8224  -12.3931   19.3073 N   0  0  0  0  0  0  0  0  0  0  0  0
    8.2560  -13.6904   21.2930 C   0  0  0  0  0  0  0  0  0  0  0  0
    9.4922  -13.4830   21.3152 O   0  0  0  0  0  0  0  0  0  0  0  0
   10.0916  -14.8441   29.9153 O   0  0  0  0  0  0  0  0  0  0  0  0
    9.4509  -14.6054   28.6868 C   0  0  0  0  0  0  0  0  0  0  0  0
    9.5592  -13.3756   28.1150 C   0  0  0  0  0  0  0  0  0  0  0  0
    8.9226  -13.1451   26.8984 C   0  0  0  0  0  0  0  0  0  0  0  0
    8.1888  -14.1116   26.2520 C   0  0  0  0  0  0  0  0  0  0  0  0
    7.5343  -13.8324   24.9732 C   0  0  0  0  0  0  0  0  0  0  0  0
    8.2847  -14.2613   23.7627 C   0  0  2  0  0  0  0  0  0  0  0  0
    7.5964  -13.9350   22.5285 N   0  0  0  0  0  0  0  0  0  0  0  0
    8.7414  -15.6552   23.7467 C   0  0  0  0  0  0  0  0  0  0  0  0
    7.9007  -16.6160   23.6454 O   0  0  0  0  0  0  0  0  0  0  0  0
    8.1007  -15.3516   26.8642 C   0  0  0  0  0  0  0  0  0  0  0  0
    8.7292  -15.5961   28.0758 C   0  0  0  0  0  0  0  0  0  0  0  0
   10.5255  -17.8744   21.5135 C   0  0  0  0  0  0  0  0  0  0  0  0
   11.3946  -17.7848   22.7499 C   0  0  1  0  0  0  0  0  0  0  0  0
   12.3645  -16.8342   22.5506 O   0  0  0  0  0  0  0  0  0  0  0  0
   10.5074  -17.4524   23.9668 C   0  0  2  0  0  0  0  0  0  0  0  0
   10.0946  -16.0719   23.8349 N   0  0  0  0  0  0  0  0  0  0  0  0
   11.4196  -17.5464   25.1332 C   0  0  0  0  0  0  0  0  0  0  0  0
   11.7515  -16.5392   25.8115 O   0  0  0  0  0  0  0  0  0  0  0  0
   11.9675  -18.7544   25.5529 O   0  0  0  0  0  0  0  0  0  0  0  0
  1  2  1  0
  2  3  2  0
  2  4  1  0
  4  5  1  0
  6  5  1  0
  6  7  1  6
  8  9  2  0
  8  6  1  0
 10 11  1  0
 11 21  2  0
 12 11  1  0
 12 13  2  0
 13 14  1  0
 14 15  1  0
 16 15  1  1
 16 17  1  0
 17  8  1  0
 18 16  1  0
 18 26  1  0
 19 18  2  0
 20 14  2  0
 21 20  1  0
 23 22  1  6
 23 25  1  0
 24 23  1  0
 25 26  1  6
 25 27  1  0
 27 29  1  0
 28 27  2  0
M  END
$$$$
