QYT.pdb
     RDKit          3D

 29 29  0  0  1  0  0  0  0  0999 V2000
    9.6951  -18.5371   29.2354 N   0  0  0  0  0  0  0  0  0  0  0  0
    9.5217  -19.7690   28.5570 C   0  0  0  0  0  0  0  0  0  0  0  0
   10.1414  -20.7706   28.9709 O   0  0  0  0  0  0  0  0  0  0  0  0
    8.6287  -19.8698   27.3842 C   0  0  0  0  0  0  0  0  0  0  0  0
    7.9008  -18.6071   27.0494 C   0  0  0  0  0  0  0  0  0  0  0  0
    7.7242  -18.3235   25.5988 C   0  0  2  0  0  0  0  0  0  0  0  0
    8.9879  -18.4984   24.8719 N   0  0  0  0  0  0  0  0  0  0  0  0
    7.1548  -16.9890   25.2902 C   0  0  0  0  0  0  0  0  0  0  0  0
    6.0282  -16.6960   25.7560 O   0  0  0  0  0  0  0  0  0  0  0  0
    9.8425  -14.6343   30.1136 O   0  0  0  0  0  0  0  0  0  0  0  0
    9.4108  -14.3874   28.7986 C   0  0  0  0  0  0  0  0  0  0  0  0
    8.3026  -13.6231   28.6012 C   0  0  0  0  0  0  0  0  0  0  0  0
    7.8799  -13.3820   27.2968 C   0  0  0  0  0  0  0  0  0  0  0  0
    8.5385  -13.8859   26.2000 C   0  0  0  0  0  0  0  0  0  0  0  0
    8.0647  -13.6100   24.8432 C   0  0  0  0  0  0  0  0  0  0  0  0
    7.2860  -14.7031   24.2021 C   0  0  2  0  0  0  0  0  0  0  0  0
    7.8209  -16.0199   24.4912 N   0  0  0  0  0  0  0  0  0  0  0  0
    7.0270  -14.5544   22.7660 C   0  0  0  0  0  0  0  0  0  0  0  0
    6.1328  -13.7398   22.3453 O   0  0  0  0  0  0  0  0  0  0  0  0
    9.6627  -14.6596   26.4397 C   0  0  0  0  0  0  0  0  0  0  0  0
   10.0958  -14.9085   27.7333 C   0  0  0  0  0  0  0  0  0  0  0  0
    8.0611  -12.7398   20.1991 C   0  0  0  0  0  0  0  0  0  0  0  0
    8.3958  -14.1367   19.7209 C   0  0  1  0  0  0  0  0  0  0  0  0
    9.6880  -14.4361   20.0744 O   0  0  0  0  0  0  0  0  0  0  0  0
    7.3890  -15.1332   20.3306 C   0  0  2  0  0  0  0  0  0  0  0  0
    7.7044  -15.2581   21.7372 N   0  0  0  0  0  0  0  0  0  0  0  0
    7.6998  -16.4283   19.6766 C   0  0  0  0  0  0  0  0  0  0  0  0
    8.1238  -17.4233   20.3206 O   0  0  0  0  0  0  0  0  0  0  0  0
    7.5425  -16.6267   18.3086 O   0  0  0  0  0  0  0  0  0  0  0  0
  1  2  1  0
  2  3  2  0
  2  4  1  0
  4  5  1  0
  6  5  1  0
  6  7  1  6
  8  9  2  0
  8  6  1  0
 10 11  1  0
 11 21  2  0
 12 11  1  0
 12 13  2  0
 13 14  1  0
 14 15  1  0
 16 15  1  6
 16 17  1  0
 17  8  1  0
 18 16  1  0
 18 26  1  0
 19 18  2  0
 20 14  2  0
 21 20  1  0
 23 22  1  1
 23 25  1  0
 24 23  1  0
 25 26  1  1
 25 27  1  0
 27 29  1  0
 28 27  2  0
M  END
$$$$
