QYT.pdb
     RDKit          3D

 29 29  0  0  1  0  0  0  0  0999 V2000
   10.5599  -20.2131   22.4065 N   0  0  0  0  0  0  0  0  0  0  0  0
    9.8800  -20.8011   21.3112 C   0  0  0  0  0  0  0  0  0  0  0  0
    9.1539  -21.7943   21.5231 O   0  0  0  0  0  0  0  0  0  0  0  0
   10.0253  -20.2542   19.9463 C   0  0  0  0  0  0  0  0  0  0  0  0
   10.9683  -19.0986   19.8391 C   0  0  0  0  0  0  0  0  0  0  0  0
   10.3604  -17.7975   19.4471 C   0  0  2  0  0  0  0  0  0  0  0  0
   10.9300  -17.3110   18.1843 N   0  0  0  0  0  0  0  0  0  0  0  0
   10.4520  -16.7325   20.4757 C   0  0  0  0  0  0  0  0  0  0  0  0
   11.4741  -16.0067   20.4972 O   0  0  0  0  0  0  0  0  0  0  0  0
    7.0351  -12.5255   17.2199 O   0  0  0  0  0  0  0  0  0  0  0  0
    7.3601  -13.0107   18.4988 C   0  0  0  0  0  0  0  0  0  0  0  0
    6.7674  -14.1529   18.9406 C   0  0  0  0  0  0  0  0  0  0  0  0
    7.0931  -14.6286   20.2079 C   0  0  0  0  0  0  0  0  0  0  0  0
    7.9903  -13.9892   21.0306 C   0  0  0  0  0  0  0  0  0  0  0  0
    8.3084  -14.5202   22.3567 C   0  0  0  0  0  0  0  0  0  0  0  0
    9.4920  -15.4189   22.4196 C   0  0  2  0  0  0  0  0  0  0  0  0
    9.4386  -16.4896   21.4428 N   0  0  0  0  0  0  0  0  0  0  0  0
    9.8325  -15.9456   23.7456 C   0  0  0  0  0  0  0  0  0  0  0  0
    9.0713  -15.7229   24.7512 O   0  0  0  0  0  0  0  0  0  0  0  0
    8.5738  -12.8292   20.5471 C   0  0  0  0  0  0  0  0  0  0  0  0
    8.2594  -12.3432   19.2871 C   0  0  0  0  0  0  0  0  0  0  0  0
    9.8776  -19.3048   25.1888 C   0  0  0  0  0  0  0  0  0  0  0  0
   11.3006  -18.7903   25.2370 C   0  0  1  0  0  0  0  0  0  0  0  0
   11.9671  -19.2033   24.1103 O   0  0  0  0  0  0  0  0  0  0  0  0
   11.2772  -17.2531   25.3582 C   0  0  2  0  0  0  0  0  0  0  0  0
   10.9816  -16.7217   24.0453 N   0  0  0  0  0  0  0  0  0  0  0  0
   12.6733  -16.8820   25.6968 C   0  0  0  0  0  0  0  0  0  0  0  0
   13.4242  -16.2762   24.8882 O   0  0  0  0  0  0  0  0  0  0  0  0
   13.2431  -17.1796   26.9307 O   0  0  0  0  0  0  0  0  0  0  0  0
  1  2  1  0
  2  3  2  0
  2  4  1  0
  4  5  1  0
  6  5  1  0
  6  7  1  6
  8  9  2  0
  8  6  1  0
 10 11  1  0
 11 21  2  0
 12 11  1  0
 12 13  2  0
 13 14  1  0
 14 15  1  0
 16 15  1  1
 16 17  1  0
 17  8  1  0
 18 16  1  0
 18 26  1  0
 19 18  2  0
 20 14  2  0
 21 20  1  0
 23 22  1  6
 23 25  1  0
 24 23  1  0
 25 26  1  6
 25 27  1  0
 27 29  1  0
 28 27  2  0
M  END
$$$$
