QYT.pdb
     RDKit          3D

 29 29  0  0  1  0  0  0  0  0999 V2000
    5.1940  -18.0844   19.4147 N   0  0  0  0  0  0  0  0  0  0  0  0
    6.3339  -18.3861   18.6288 C   0  0  0  0  0  0  0  0  0  0  0  0
    6.1715  -18.9935   17.5503 O   0  0  0  0  0  0  0  0  0  0  0  0
    7.6871  -17.9929   19.0733 C   0  0  0  0  0  0  0  0  0  0  0  0
    7.7218  -17.2529   20.3723 C   0  0  0  0  0  0  0  0  0  0  0  0
    8.6307  -16.0751   20.4255 C   0  0  2  0  0  0  0  0  0  0  0  0
    9.6084  -16.1164   19.3308 N   0  0  0  0  0  0  0  0  0  0  0  0
    9.3385  -15.8928   21.7163 C   0  0  0  0  0  0  0  0  0  0  0  0
   10.5073  -16.3328   21.8261 O   0  0  0  0  0  0  0  0  0  0  0  0
   10.5285  -14.2940   30.4390 O   0  0  0  0  0  0  0  0  0  0  0  0
   10.0881  -14.2945   29.1039 C   0  0  0  0  0  0  0  0  0  0  0  0
    9.1122  -13.4226   28.7314 C   0  0  0  0  0  0  0  0  0  0  0  0
    8.6801  -13.4278   27.4080 C   0  0  0  0  0  0  0  0  0  0  0  0
    9.2009  -14.2794   26.4624 C   0  0  0  0  0  0  0  0  0  0  0  0
    8.7218  -14.2549   25.0798 C   0  0  0  0  0  0  0  0  0  0  0  0
    9.3398  -15.2564   24.1701 C   0  0  2  0  0  0  0  0  0  0  0  0
    8.7600  -15.2429   22.8408 N   0  0  0  0  0  0  0  0  0  0  0  0
    9.4248  -16.6281   24.6829 C   0  0  0  0  0  0  0  0  0  0  0  0
    8.3899  -17.3822   24.7034 O   0  0  0  0  0  0  0  0  0  0  0  0
   10.1927  -15.1530   26.8782 C   0  0  0  0  0  0  0  0  0  0  0  0
   10.6334  -15.1596   28.1930 C   0  0  0  0  0  0  0  0  0  0  0  0
   10.0815  -19.6196   23.4900 C   0  0  0  0  0  0  0  0  0  0  0  0
   11.1669  -19.4906   24.5375 C   0  0  1  0  0  0  0  0  0  0  0  0
   12.2971  -18.9749   23.9537 O   0  0  0  0  0  0  0  0  0  0  0  0
   10.6558  -18.5968   25.6857 C   0  0  2  0  0  0  0  0  0  0  0  0
   10.6019  -17.2405   25.1847 N   0  0  0  0  0  0  0  0  0  0  0  0
   11.7228  -18.6610   26.7147 C   0  0  0  0  0  0  0  0  0  0  0  0
   12.4764  -17.6842   26.9654 O   0  0  0  0  0  0  0  0  0  0  0  0
   11.9596  -19.8055   27.4696 O   0  0  0  0  0  0  0  0  0  0  0  0
  1  2  1  0
  2  3  2  0
  2  4  1  0
  4  5  1  0
  6  5  1  0
  6  7  1  6
  8  9  2  0
  8  6  1  0
 10 11  1  0
 11 21  2  0
 12 11  1  0
 12 13  2  0
 13 14  1  0
 14 15  1  0
 16 15  1  1
 16 17  1  0
 17  8  1  0
 18 16  1  0
 18 26  1  0
 19 18  2  0
 20 14  2  0
 21 20  1  0
 23 22  1  6
 23 25  1  0
 24 23  1  0
 25 26  1  6
 25 27  1  0
 27 29  1  0
 28 27  2  0
M  END
$$$$
