ECP.pdb
     RDKit          3D

 23 23  0  0  1  0  0  0  0  0999 V2000
   10.5933  -16.0251   20.0980 N   0  0  0  0  0  0  0  0  0  0  0  0
   10.3017  -16.9285   21.1582 C   0  0  1  0  0  0  0  0  0  0  0  0
   11.3844  -17.8633   21.5478 C   0  0  0  0  0  0  0  0  0  0  0  0
   12.7118  -17.3009   21.8752 C   0  0  0  0  0  0  0  0  0  0  0  0
   13.7980  -18.2024   22.1891 C   0  0  0  0  0  0  0  0  0  0  0  0
   13.6957  -19.4394   22.2404 O   0  0  0  0  0  0  0  0  0  0  0  0
    9.9042  -16.1819   22.4057 C   0  0  0  0  0  0  0  0  0  0  0  0
   10.4668  -15.0539   22.6175 O   0  0  0  0  0  0  0  0  0  0  0  0
   15.0864  -17.7012   22.4652 O   0  0  0  0  0  0  0  0  0  0  0  0
    8.9599  -16.6495   23.3413 N   0  0  0  0  0  0  0  0  0  0  0  0
    8.6055  -15.9157   24.5162 C   0  0  1  0  0  0  0  0  0  0  0  0
    7.1676  -16.1776   24.9446 C   0  0  0  0  0  0  0  0  0  0  0  0
    7.0026  -17.8114   25.7131 S   0  0  0  0  0  0  0  0  0  0  0  0
    9.5308  -15.9702   25.6421 C   0  0  0  0  0  0  0  0  0  0  0  0
   10.5632  -16.7327   25.4781 O   0  0  0  0  0  0  0  0  0  0  0  0
    9.4589  -15.3077   26.8895 N   0  0  0  0  0  0  0  0  0  0  0  0
    8.4464  -14.4764   27.4935 C   0  0  0  0  0  0  0  0  0  0  0  0
    9.3062  -13.2938   27.9411 C   0  0  0  0  0  0  0  0  0  0  0  0
   10.6100  -13.9267   28.3696 C   0  0  0  0  0  0  0  0  0  0  0  0
   10.5243  -15.3469   27.9078 C   0  0  1  0  0  0  0  0  0  0  0  0
   10.1673  -16.2391   29.0229 C   0  0  0  0  0  0  0  0  0  0  0  0
   11.0615  -16.5396   30.0533 O   0  0  0  0  0  0  0  0  0  0  0  0
    9.0412  -16.7732   29.1017 O   0  0  0  0  0  0  0  0  0  0  0  0
  2  1  1  6
  2  7  1  0
  3  4  1  0
  3  2  1  0
  4  5  1  0
  5  6  2  0
  7  8  2  0
  9  5  1  0
 10  7  1  0
 10 11  1  0
 11 14  1  0
 12 13  1  0
 11 12  1  1
 14 16  1  0
 15 14  2  0
 16 17  1  0
 16 20  1  0
 17 18  1  0
 18 19  1  0
 20 19  1  0
 20 21  1  1
 21 22  1  0
 23 21  2  0
M  END
$$$$
