ECP.pdb
     RDKit          3D

 23 23  0  0  1  0  0  0  0  0999 V2000
    9.3736  -15.6795   18.8491 N   0  0  0  0  0  0  0  0  0  0  0  0
    9.9206  -15.7354   20.1617 C   0  0  1  0  0  0  0  0  0  0  0  0
   11.1520  -14.9448   20.3997 C   0  0  0  0  0  0  0  0  0  0  0  0
   12.4043  -15.3852   19.7491 C   0  0  0  0  0  0  0  0  0  0  0  0
   13.6241  -14.6523   20.0062 C   0  0  0  0  0  0  0  0  0  0  0  0
   14.3435  -14.8086   21.0068 O   0  0  0  0  0  0  0  0  0  0  0  0
    8.9103  -15.2820   21.1841 C   0  0  0  0  0  0  0  0  0  0  0  0
    8.2863  -14.1918   20.9474 O   0  0  0  0  0  0  0  0  0  0  0  0
   14.0798  -13.6793   19.0934 O   0  0  0  0  0  0  0  0  0  0  0  0
    8.6172  -15.9813   22.3719 N   0  0  0  0  0  0  0  0  0  0  0  0
    7.7680  -15.4512   23.3928 C   0  0  1  0  0  0  0  0  0  0  0  0
    6.5817  -16.3613   23.6824 C   0  0  0  0  0  0  0  0  0  0  0  0
    7.0037  -17.6068   24.9305 S   0  0  0  0  0  0  0  0  0  0  0  0
    8.4079  -14.9798   24.6156 C   0  0  0  0  0  0  0  0  0  0  0  0
    9.6830  -15.1857   24.6919 O   0  0  0  0  0  0  0  0  0  0  0  0
    7.8312  -14.3297   25.7314 N   0  0  0  0  0  0  0  0  0  0  0  0
    6.4720  -13.9681   26.0523 C   0  0  0  0  0  0  0  0  0  0  0  0
    6.6738  -12.5059   26.4518 C   0  0  0  0  0  0  0  0  0  0  0  0
    8.0106  -12.4971   27.1568 C   0  0  0  0  0  0  0  0  0  0  0  0
    8.5992  -13.8467   26.8934 C   0  0  1  0  0  0  0  0  0  0  0  0
    8.4230  -14.7306   28.0572 C   0  0  0  0  0  0  0  0  0  0  0  0
    9.2047  -14.6119   29.2090 O   0  0  0  0  0  0  0  0  0  0  0  0
    7.5612  -15.6344   28.0707 O   0  0  0  0  0  0  0  0  0  0  0  0
  2  1  1  6
  2  7  1  0
  3  4  1  0
  3  2  1  0
  4  5  1  0
  5  6  2  0
  7  8  2  0
  9  5  1  0
 10  7  1  0
 10 11  1  0
 11 14  1  0
 12 13  1  0
 11 12  1  1
 14 16  1  0
 15 14  2  0
 16 17  1  0
 16 20  1  0
 17 18  1  0
 18 19  1  0
 20 19  1  0
 20 21  1  1
 21 22  1  0
 23 21  2  0
M  END
$$$$
