ECP.pdb
     RDKit          3D

 23 23  0  0  1  0  0  0  0  0999 V2000
   10.0830  -15.4069   20.4302 N   0  0  0  0  0  0  0  0  0  0  0  0
    9.2421  -16.1041   21.3424 C   0  0  1  0  0  0  0  0  0  0  0  0
    9.5868  -17.5210   21.6095 C   0  0  0  0  0  0  0  0  0  0  0  0
   11.0145  -17.9045   21.6228 C   0  0  0  0  0  0  0  0  0  0  0  0
   11.4994  -18.7684   22.6762 C   0  0  0  0  0  0  0  0  0  0  0  0
   12.4332  -18.4868   23.4456 O   0  0  0  0  0  0  0  0  0  0  0  0
    9.2056  -15.4078   22.6786 C   0  0  0  0  0  0  0  0  0  0  0  0
   10.2754  -14.8240   23.0642 O   0  0  0  0  0  0  0  0  0  0  0  0
   10.9109  -20.0309   22.8937 O   0  0  0  0  0  0  0  0  0  0  0  0
    8.0745  -15.3637   23.5178 N   0  0  0  0  0  0  0  0  0  0  0  0
    8.0877  -14.7360   24.8024 C   0  0  1  0  0  0  0  0  0  0  0  0
    6.6839  -14.4197   25.3013 C   0  0  0  0  0  0  0  0  0  0  0  0
    6.7171  -13.8349   27.0171 S   0  0  0  0  0  0  0  0  0  0  0  0
    8.9112  -15.3505   25.8375 C   0  0  0  0  0  0  0  0  0  0  0  0
    9.3836  -16.5206   25.5516 O   0  0  0  0  0  0  0  0  0  0  0  0
    9.2658  -14.8485   27.1112 N   0  0  0  0  0  0  0  0  0  0  0  0
    8.8010  -13.7168   27.8756 C   0  0  0  0  0  0  0  0  0  0  0  0
   10.1407  -13.0875   28.2595 C   0  0  0  0  0  0  0  0  0  0  0  0
   11.0520  -14.2711   28.4891 C   0  0  0  0  0  0  0  0  0  0  0  0
   10.2902  -15.4540   27.9814 C   0  0  1  0  0  0  0  0  0  0  0  0
    9.6769  -16.1981   29.0936 C   0  0  0  0  0  0  0  0  0  0  0  0
    8.4521  -16.8577   28.9639 O   0  0  0  0  0  0  0  0  0  0  0  0
   10.2252  -16.2758   30.2129 O   0  0  0  0  0  0  0  0  0  0  0  0
  2  1  1  6
  2  7  1  0
  3  4  1  0
  3  2  1  0
  4  5  1  0
  5  6  2  0
  7  8  2  0
  9  5  1  0
 10  7  1  0
 10 11  1  0
 11 14  1  0
 12 13  1  0
 11 12  1  1
 14 16  1  0
 15 14  2  0
 16 17  1  0
 16 20  1  0
 17 18  1  0
 18 19  1  0
 20 19  1  0
 20 21  1  1
 21 22  1  0
 23 21  2  0
M  END
$$$$
