ECP.pdb
     RDKit          3D

 23 23  0  0  1  0  0  0  0  0999 V2000
    9.6002  -15.0511   20.4149 N   0  0  0  0  0  0  0  0  0  0  0  0
    8.7458  -15.6849   21.3603 C   0  0  1  0  0  0  0  0  0  0  0  0
    8.9763  -17.1303   21.5958 C   0  0  0  0  0  0  0  0  0  0  0  0
   10.3673  -17.6304   21.5766 C   0  0  0  0  0  0  0  0  0  0  0  0
   10.6081  -19.0428   21.7724 C   0  0  0  0  0  0  0  0  0  0  0  0
   10.9883  -19.5523   22.8398 O   0  0  0  0  0  0  0  0  0  0  0  0
    8.8352  -15.0074   22.7036 C   0  0  0  0  0  0  0  0  0  0  0  0
    9.9913  -14.6216   23.0891 O   0  0  0  0  0  0  0  0  0  0  0  0
   10.4152  -19.9547   20.7148 O   0  0  0  0  0  0  0  0  0  0  0  0
    7.7320  -14.7775   23.5495 N   0  0  0  0  0  0  0  0  0  0  0  0
    7.8704  -14.2956   24.8886 C   0  0  1  0  0  0  0  0  0  0  0  0
    6.5306  -13.9088   25.5008 C   0  0  0  0  0  0  0  0  0  0  0  0
    6.7252  -13.4025   27.2308 S   0  0  0  0  0  0  0  0  0  0  0  0
    8.6817  -15.0901   25.8037 C   0  0  0  0  0  0  0  0  0  0  0  0
    8.9724  -16.2836   25.3973 O   0  0  0  0  0  0  0  0  0  0  0  0
    9.1951  -14.7408   27.0743 N   0  0  0  0  0  0  0  0  0  0  0  0
    8.8675  -13.6838   27.9998 C   0  0  0  0  0  0  0  0  0  0  0  0
   10.2679  -13.1441   28.2929 C   0  0  0  0  0  0  0  0  0  0  0  0
   11.1450  -14.3749   28.2937 C   0  0  0  0  0  0  0  0  0  0  0  0
   10.2803  -15.4703   27.7553 C   0  0  1  0  0  0  0  0  0  0  0  0
    9.7592  -16.3097   28.8465 C   0  0  0  0  0  0  0  0  0  0  0  0
   10.5803  -17.1615   29.5894 O   0  0  0  0  0  0  0  0  0  0  0  0
    8.5509  -16.3006   29.1622 O   0  0  0  0  0  0  0  0  0  0  0  0
  2  1  1  6
  2  7  1  0
  3  4  1  0
  3  2  1  0
  4  5  1  0
  5  6  2  0
  7  8  2  0
  9  5  1  0
 10  7  1  0
 10 11  1  0
 11 14  1  0
 12 13  1  0
 11 12  1  1
 14 16  1  0
 15 14  2  0
 16 17  1  0
 16 20  1  0
 17 18  1  0
 18 19  1  0
 20 19  1  0
 20 21  1  1
 21 22  1  0
 23 21  2  0
M  END
$$$$
