ECP.pdb
     RDKit          3D

 23 23  0  0  1  0  0  0  0  0999 V2000
    9.3695  -14.9041   20.2404 N   0  0  0  0  0  0  0  0  0  0  0  0
    8.4830  -15.4351   21.2188 C   0  0  1  0  0  0  0  0  0  0  0  0
    8.5141  -16.9047   21.4119 C   0  0  0  0  0  0  0  0  0  0  0  0
    9.8257  -17.5865   21.3930 C   0  0  0  0  0  0  0  0  0  0  0  0
    9.8755  -19.0179   21.5916 C   0  0  0  0  0  0  0  0  0  0  0  0
   10.1847  -19.8415   20.7144 O   0  0  0  0  0  0  0  0  0  0  0  0
    8.7395  -14.8153   22.5685 C   0  0  0  0  0  0  0  0  0  0  0  0
    9.9587  -14.6426   22.9115 O   0  0  0  0  0  0  0  0  0  0  0  0
    9.5618  -19.5773   22.8471 O   0  0  0  0  0  0  0  0  0  0  0  0
    7.7258  -14.4202   23.4640 N   0  0  0  0  0  0  0  0  0  0  0  0
    7.9977  -13.9902   24.8002 C   0  0  1  0  0  0  0  0  0  0  0  0
    6.7801  -13.3536   25.4574 C   0  0  0  0  0  0  0  0  0  0  0  0
    6.3834  -14.1705   27.0266 S   0  0  0  0  0  0  0  0  0  0  0  0
    8.6638  -14.9393   25.6847 C   0  0  0  0  0  0  0  0  0  0  0  0
    8.7823  -16.1422   25.2229 O   0  0  0  0  0  0  0  0  0  0  0  0
    9.1980  -14.7312   26.9775 N   0  0  0  0  0  0  0  0  0  0  0  0
    8.8919  -13.7774   28.0156 C   0  0  0  0  0  0  0  0  0  0  0  0
   10.3005  -13.2809   28.3436 C   0  0  0  0  0  0  0  0  0  0  0  0
   11.1679  -14.5101   28.1996 C   0  0  0  0  0  0  0  0  0  0  0  0
   10.2871  -15.5362   27.5602 C   0  0  1  0  0  0  0  0  0  0  0  0
    9.7751  -16.4844   28.5630 C   0  0  0  0  0  0  0  0  0  0  0  0
   10.6071  -17.3893   29.2268 O   0  0  0  0  0  0  0  0  0  0  0  0
    8.5654  -16.5256   28.8702 O   0  0  0  0  0  0  0  0  0  0  0  0
  2  1  1  6
  2  7  1  0
  3  4  1  0
  3  2  1  0
  4  5  1  0
  5  6  2  0
  7  8  2  0
  9  5  1  0
 10  7  1  0
 10 11  1  0
 11 14  1  0
 12 13  1  0
 11 12  1  1
 14 16  1  0
 15 14  2  0
 16 17  1  0
 16 20  1  0
 17 18  1  0
 18 19  1  0
 20 19  1  0
 20 21  1  1
 21 22  1  0
 23 21  2  0
M  END
$$$$
