ECP.pdb
     RDKit          3D

 23 23  0  0  1  0  0  0  0  0999 V2000
   10.5571  -18.4313   21.2959 N   0  0  0  0  0  0  0  0  0  0  0  0
   10.8610  -17.0431   21.3724 C   0  0  1  0  0  0  0  0  0  0  0  0
   10.5314  -16.2269   20.1795 C   0  0  0  0  0  0  0  0  0  0  0  0
   11.3874  -16.3589   18.9815 C   0  0  0  0  0  0  0  0  0  0  0  0
   11.4690  -17.6395   18.3148 C   0  0  0  0  0  0  0  0  0  0  0  0
   10.4986  -18.3831   18.0942 O   0  0  0  0  0  0  0  0  0  0  0  0
   10.1589  -16.4034   22.5426 C   0  0  0  0  0  0  0  0  0  0  0  0
   10.4485  -15.1865   22.8055 O   0  0  0  0  0  0  0  0  0  0  0  0
   12.7096  -18.1318   17.8607 O   0  0  0  0  0  0  0  0  0  0  0  0
    9.2133  -17.0610   23.3545 N   0  0  0  0  0  0  0  0  0  0  0  0
    8.6757  -16.4778   24.5442 C   0  0  1  0  0  0  0  0  0  0  0  0
    7.3335  -17.0877   24.9264 C   0  0  0  0  0  0  0  0  0  0  0  0
    7.0173  -16.9088   26.7027 S   0  0  0  0  0  0  0  0  0  0  0  0
    9.5686  -16.3567   25.6909 C   0  0  0  0  0  0  0  0  0  0  0  0
   10.5976  -17.1410   25.6807 O   0  0  0  0  0  0  0  0  0  0  0  0
    9.4683  -15.5032   26.8141 N   0  0  0  0  0  0  0  0  0  0  0  0
    8.4190  -14.6319   27.2842 C   0  0  0  0  0  0  0  0  0  0  0  0
    9.2232  -13.3537   27.5243 C   0  0  0  0  0  0  0  0  0  0  0  0
   10.5563  -13.8473   28.0375 C   0  0  0  0  0  0  0  0  0  0  0  0
   10.5365  -15.3262   27.8146 C   0  0  1  0  0  0  0  0  0  0  0  0
   10.2243  -16.0396   29.0638 C   0  0  0  0  0  0  0  0  0  0  0  0
   11.1173  -16.0899   30.1370 O   0  0  0  0  0  0  0  0  0  0  0  0
    9.1398  -16.6375   29.2250 O   0  0  0  0  0  0  0  0  0  0  0  0
  2  1  1  6
  2  7  1  0
  3  4  1  0
  3  2  1  0
  4  5  1  0
  5  6  2  0
  7  8  2  0
  9  5  1  0
 10  7  1  0
 10 11  1  0
 11 14  1  0
 12 13  1  0
 11 12  1  1
 14 16  1  0
 15 14  2  0
 16 17  1  0
 16 20  1  0
 17 18  1  0
 18 19  1  0
 20 19  1  0
 20 21  1  1
 21 22  1  0
 23 21  2  0
M  END
$$$$
