ECP.pdb
     RDKit          3D

 23 23  0  0  1  0  0  0  0  0999 V2000
    9.0846  -14.6989   20.3262 N   0  0  0  0  0  0  0  0  0  0  0  0
    8.4633  -15.4846   21.3371 C   0  0  1  0  0  0  0  0  0  0  0  0
    8.9262  -16.8874   21.4626 C   0  0  0  0  0  0  0  0  0  0  0  0
   10.3782  -17.1554   21.3912 C   0  0  0  0  0  0  0  0  0  0  0  0
   10.8483  -18.5163   21.5263 C   0  0  0  0  0  0  0  0  0  0  0  0
   12.0444  -18.8515   21.5388 O   0  0  0  0  0  0  0  0  0  0  0  0
    8.6351  -14.8488   22.6927 C   0  0  0  0  0  0  0  0  0  0  0  0
    9.7933  -14.3925   22.9831 O   0  0  0  0  0  0  0  0  0  0  0  0
    9.9322  -19.5799   21.6565 O   0  0  0  0  0  0  0  0  0  0  0  0
    7.6057  -14.7296   23.6476 N   0  0  0  0  0  0  0  0  0  0  0  0
    7.8382  -14.2784   24.9843 C   0  0  1  0  0  0  0  0  0  0  0  0
    6.5435  -13.9234   25.7036 C   0  0  0  0  0  0  0  0  0  0  0  0
    6.8515  -13.5319   27.4469 S   0  0  0  0  0  0  0  0  0  0  0  0
    8.7238  -15.0844   25.8167 C   0  0  0  0  0  0  0  0  0  0  0  0
    9.0420  -16.2417   25.3333 O   0  0  0  0  0  0  0  0  0  0  0  0
    9.2837  -14.7804   27.0793 N   0  0  0  0  0  0  0  0  0  0  0  0
    8.9958  -13.7530   28.0502 C   0  0  0  0  0  0  0  0  0  0  0  0
   10.4091  -13.2311   28.3114 C   0  0  0  0  0  0  0  0  0  0  0  0
   11.2774  -14.4661   28.2407 C   0  0  0  0  0  0  0  0  0  0  0  0
   10.3871  -15.5381   27.6972 C   0  0  1  0  0  0  0  0  0  0  0  0
    9.8989  -16.4105   28.7777 C   0  0  0  0  0  0  0  0  0  0  0  0
    8.5372  -16.6213   29.0083 O   0  0  0  0  0  0  0  0  0  0  0  0
   10.6832  -17.0076   29.5445 O   0  0  0  0  0  0  0  0  0  0  0  0
  2  1  1  6
  2  7  1  0
  3  4  1  0
  3  2  1  0
  4  5  1  0
  5  6  2  0
  7  8  2  0
  9  5  1  0
 10  7  1  0
 10 11  1  0
 11 14  1  0
 12 13  1  0
 11 12  1  1
 14 16  1  0
 15 14  2  0
 16 17  1  0
 16 20  1  0
 17 18  1  0
 18 19  1  0
 20 19  1  0
 20 21  1  1
 21 22  1  0
 23 21  2  0
M  END
$$$$
