ECP.pdb
     RDKit          3D

 23 23  0  0  1  0  0  0  0  0999 V2000
    9.0246  -15.4304   20.2104 N   0  0  0  0  0  0  0  0  0  0  0  0
    9.0041  -16.2662   21.3621 C   0  0  1  0  0  0  0  0  0  0  0  0
   10.1349  -17.2130   21.5127 C   0  0  0  0  0  0  0  0  0  0  0  0
   10.4831  -18.0772   20.3650 C   0  0  0  0  0  0  0  0  0  0  0  0
   11.8756  -18.3594   20.0959 C   0  0  0  0  0  0  0  0  0  0  0  0
   12.4870  -19.3565   20.5146 O   0  0  0  0  0  0  0  0  0  0  0  0
    8.9585  -15.4417   22.6230 C   0  0  0  0  0  0  0  0  0  0  0  0
    9.9652  -14.6939   22.8706 O   0  0  0  0  0  0  0  0  0  0  0  0
   12.6450  -17.4780   19.3093 O   0  0  0  0  0  0  0  0  0  0  0  0
    7.8836  -15.4474   23.5342 N   0  0  0  0  0  0  0  0  0  0  0  0
    7.9444  -14.7985   24.8069 C   0  0  1  0  0  0  0  0  0  0  0  0
    6.5635  -14.6069   25.4200 C   0  0  0  0  0  0  0  0  0  0  0  0
    6.6846  -14.0211   27.1315 S   0  0  0  0  0  0  0  0  0  0  0  0
    8.9062  -15.3143   25.7742 C   0  0  0  0  0  0  0  0  0  0  0  0
    9.5216  -16.3974   25.4245 O   0  0  0  0  0  0  0  0  0  0  0  0
    9.2611  -14.7984   27.0423 N   0  0  0  0  0  0  0  0  0  0  0  0
    8.6848  -13.7666   27.8697 C   0  0  0  0  0  0  0  0  0  0  0  0
    9.9404  -12.9581   28.1986 C   0  0  0  0  0  0  0  0  0  0  0  0
   11.0254  -14.0011   28.3363 C   0  0  0  0  0  0  0  0  0  0  0  0
   10.4132  -15.2695   27.8324 C   0  0  1  0  0  0  0  0  0  0  0  0
    9.9824  -16.1232   28.9514 C   0  0  0  0  0  0  0  0  0  0  0  0
    8.6430  -16.4625   29.1580 O   0  0  0  0  0  0  0  0  0  0  0  0
   10.7984  -16.5879   29.7747 O   0  0  0  0  0  0  0  0  0  0  0  0
  2  1  1  6
  2  7  1  0
  3  4  1  0
  3  2  1  0
  4  5  1  0
  5  6  2  0
  7  8  2  0
  9  5  1  0
 10  7  1  0
 10 11  1  0
 11 14  1  0
 12 13  1  0
 11 12  1  1
 14 16  1  0
 15 14  2  0
 16 17  1  0
 16 20  1  0
 17 18  1  0
 18 19  1  0
 20 19  1  0
 20 21  1  1
 21 22  1  0
 23 21  2  0
M  END
$$$$
