ECP.pdb
     RDKit          3D

 23 23  0  0  1  0  0  0  0  0999 V2000
    9.6871  -15.4661   20.6553 N   0  0  0  0  0  0  0  0  0  0  0  0
    8.6610  -15.7512   21.5993 C   0  0  1  0  0  0  0  0  0  0  0  0
    8.5072  -17.1699   22.0011 C   0  0  0  0  0  0  0  0  0  0  0  0
    9.2915  -18.1925   21.2768 C   0  0  0  0  0  0  0  0  0  0  0  0
    9.1448  -19.5824   21.6477 C   0  0  0  0  0  0  0  0  0  0  0  0
    9.9659  -20.2220   22.3261 O   0  0  0  0  0  0  0  0  0  0  0  0
    8.8630  -14.9614   22.8669 C   0  0  0  0  0  0  0  0  0  0  0  0
   10.0577  -14.8610   23.3103 O   0  0  0  0  0  0  0  0  0  0  0  0
    8.0119  -20.3158   21.2402 O   0  0  0  0  0  0  0  0  0  0  0  0
    7.8241  -14.3348   23.5836 N   0  0  0  0  0  0  0  0  0  0  0  0
    7.9504  -13.9540   24.9560 C   0  0  1  0  0  0  0  0  0  0  0  0
    6.6564  -13.3749   25.5125 C   0  0  0  0  0  0  0  0  0  0  0  0
    6.7892  -13.0748   27.2956 S   0  0  0  0  0  0  0  0  0  0  0  0
    8.5524  -14.9225   25.8650 C   0  0  0  0  0  0  0  0  0  0  0  0
    8.4740  -16.1592   25.4928 O   0  0  0  0  0  0  0  0  0  0  0  0
    9.2095  -14.7013   27.0977 N   0  0  0  0  0  0  0  0  0  0  0  0
    9.1024  -13.6539   28.0839 C   0  0  0  0  0  0  0  0  0  0  0  0
   10.5815  -13.3151   28.2730 C   0  0  0  0  0  0  0  0  0  0  0  0
   11.2833  -14.6484   28.1555 C   0  0  0  0  0  0  0  0  0  0  0  0
   10.2392  -15.5962   27.6567 C   0  0  1  0  0  0  0  0  0  0  0  0
    9.7010  -16.4094   28.7594 C   0  0  0  0  0  0  0  0  0  0  0  0
    8.3571  -16.3569   29.1378 O   0  0  0  0  0  0  0  0  0  0  0  0
   10.4241  -17.1898   29.4133 O   0  0  0  0  0  0  0  0  0  0  0  0
  2  1  1  6
  2  7  1  0
  3  4  1  0
  3  2  1  0
  4  5  1  0
  5  6  2  0
  7  8  2  0
  9  5  1  0
 10  7  1  0
 10 11  1  0
 11 14  1  0
 12 13  1  0
 11 12  1  1
 14 16  1  0
 15 14  2  0
 16 17  1  0
 16 20  1  0
 17 18  1  0
 18 19  1  0
 20 19  1  0
 20 21  1  1
 21 22  1  0
 23 21  2  0
M  END
$$$$
