ECP.pdb
     RDKit          3D

 23 23  0  0  1  0  0  0  0  0999 V2000
    8.4992  -14.7415   20.1945 N   0  0  0  0  0  0  0  0  0  0  0  0
    7.9070  -15.3649   21.3286 C   0  0  1  0  0  0  0  0  0  0  0  0
    8.1433  -16.8204   21.4822 C   0  0  0  0  0  0  0  0  0  0  0  0
    9.4946  -17.3454   21.1930 C   0  0  0  0  0  0  0  0  0  0  0  0
    9.7465  -18.7606   21.3512 C   0  0  0  0  0  0  0  0  0  0  0  0
    9.2800  -19.6467   20.6161 O   0  0  0  0  0  0  0  0  0  0  0  0
    8.3743  -14.7130   22.6046 C   0  0  0  0  0  0  0  0  0  0  0  0
    9.6068  -14.3817   22.6758 O   0  0  0  0  0  0  0  0  0  0  0  0
   10.5712  -19.2280   22.3947 O   0  0  0  0  0  0  0  0  0  0  0  0
    7.5417  -14.4509   23.7108 N   0  0  0  0  0  0  0  0  0  0  0  0
    8.0478  -14.0105   24.9735 C   0  0  1  0  0  0  0  0  0  0  0  0
    6.9641  -13.3795   25.8378 C   0  0  0  0  0  0  0  0  0  0  0  0
    5.7320  -14.6103   26.3419 S   0  0  0  0  0  0  0  0  0  0  0  0
    8.8718  -14.9489   25.7267 C   0  0  0  0  0  0  0  0  0  0  0  0
    9.1970  -16.0326   25.0991 O   0  0  0  0  0  0  0  0  0  0  0  0
    9.3653  -14.8425   27.0478 N   0  0  0  0  0  0  0  0  0  0  0  0
    8.9835  -14.0149   28.1660 C   0  0  0  0  0  0  0  0  0  0  0  0
   10.3545  -13.4786   28.5796 C   0  0  0  0  0  0  0  0  0  0  0  0
   11.2925  -14.6389   28.3389 C   0  0  0  0  0  0  0  0  0  0  0  0
   10.4849  -15.6418   27.5779 C   0  0  1  0  0  0  0  0  0  0  0  0
   10.0053  -16.7116   28.4681 C   0  0  0  0  0  0  0  0  0  0  0  0
   10.8648  -17.6664   29.0170 O   0  0  0  0  0  0  0  0  0  0  0  0
    8.8000  -16.8174   28.7772 O   0  0  0  0  0  0  0  0  0  0  0  0
  2  1  1  6
  2  7  1  0
  3  4  1  0
  3  2  1  0
  4  5  1  0
  5  6  2  0
  7  8  2  0
  9  5  1  0
 10  7  1  0
 10 11  1  0
 11 14  1  0
 12 13  1  0
 11 12  1  1
 14 16  1  0
 15 14  2  0
 16 17  1  0
 16 20  1  0
 17 18  1  0
 18 19  1  0
 20 19  1  0
 20 21  1  1
 21 22  1  0
 23 21  2  0
M  END
$$$$
