GMH.pdb
     RDKit          3D

 23 23  0  0  1  0  0  0  0  0999 V2000
    5.2062  -19.2896   21.4906 N   0  0  0  0  0  0  0  0  0  0  0  0
    5.2899  -19.0605   22.9253 C   0  0  0  0  0  0  0  0  0  0  0  0
    6.1940  -17.9008   23.1435 C   0  0  0  0  0  0  0  0  0  0  0  0
    7.1968  -17.6852   22.3949 O   0  0  0  0  0  0  0  0  0  0  0  0
    7.9043  -11.1528   26.7348 C   0  0  0  0  0  0  0  0  0  0  0  0
    6.7361  -12.5524   26.6802 S   0  0  0  0  0  0  0  0  0  0  0  0
    7.4558  -13.8301   25.6219 C   0  0  0  0  0  0  0  0  0  0  0  0
    6.4401  -14.9575   25.5283 C   0  0  0  0  0  0  0  0  0  0  0  0
    7.0036  -15.9957   24.5664 C   0  0  2  0  0  0  0  0  0  0  0  0
    5.9958  -16.9665   24.1956 N   0  0  0  0  0  0  0  0  0  0  0  0
    8.1436  -16.6356   25.2673 C   0  0  0  0  0  0  0  0  0  0  0  0
    7.9194  -17.5230   26.1249 O   0  0  0  0  0  0  0  0  0  0  0  0
    9.4661  -16.2666   24.9888 N   0  0  0  0  0  0  0  0  0  0  0  0
   10.6413  -17.0107   25.4125 C   0  0  1  0  0  0  0  0  0  0  0  0
   11.8306  -16.3171   24.7568 C   0  0  0  0  0  0  0  0  0  0  0  0
   11.8325  -16.4520   23.2908 C   0  0  0  0  0  0  0  0  0  0  0  0
   11.1326  -17.3822   22.5448 C   0  0  0  0  0  0  0  0  0  0  0  0
   11.4015  -17.1727   21.2397 N   0  0  0  0  0  0  0  0  0  0  0  0
   12.2445  -16.1460   21.1317 C   0  0  0  0  0  0  0  0  0  0  0  0
   12.5061  -15.7085   22.3763 N   0  0  0  0  0  0  0  0  0  0  0  0
   10.7177  -16.8746   26.9016 C   0  0  0  0  0  0  0  0  0  0  0  0
   11.3153  -17.8332   27.7064 O   0  0  0  0  0  0  0  0  0  0  0  0
   10.2293  -15.8576   27.4937 O   0  0  0  0  0  0  0  0  0  0  0  0
  2  3  1  0
  2  1  1  0
  3 10  1  0
  4  3  2  0
  6  5  1  0
  7  8  1  0
  7  6  1  0
  9  8  1  1
  9 11  1  0
 10  9  1  0
 11 13  1  0
 11 12  2  0
 13 14  1  0
 14 21  1  0
 14 15  1  6
 16 15  1  0
 16 17  2  0
 18 17  1  0
 19 18  1  0
 20 19  2  0
 20 16  1  0
 21 22  1  0
 23 21  2  0
M  END
$$$$
