GMH.pdb
     RDKit          3D

 23 23  0  0  1  0  0  0  0  0999 V2000
    7.7794  -15.4786   19.8210 N   0  0  0  0  0  0  0  0  0  0  0  0
    7.3352  -16.1386   21.0397 C   0  0  0  0  0  0  0  0  0  0  0  0
    7.9867  -15.4520   22.1860 C   0  0  0  0  0  0  0  0  0  0  0  0
    9.2115  -15.1183   22.1566 O   0  0  0  0  0  0  0  0  0  0  0  0
    7.2364  -11.2985   27.5735 C   0  0  0  0  0  0  0  0  0  0  0  0
    5.8642  -12.1785   26.7555 S   0  0  0  0  0  0  0  0  0  0  0  0
    6.5276  -12.9804   25.2765 C   0  0  0  0  0  0  0  0  0  0  0  0
    6.9955  -14.3662   25.6910 C   0  0  0  0  0  0  0  0  0  0  0  0
    7.9692  -14.8529   24.6253 C   0  0  2  0  0  0  0  0  0  0  0  0
    7.2861  -15.1276   23.3790 N   0  0  0  0  0  0  0  0  0  0  0  0
    8.6105  -16.0723   25.1746 C   0  0  0  0  0  0  0  0  0  0  0  0
    8.0573  -17.1860   25.0107 O   0  0  0  0  0  0  0  0  0  0  0  0
    9.8230  -16.0028   25.8731 N   0  0  0  0  0  0  0  0  0  0  0  0
   10.6391  -17.1509   26.2340 C   0  0  1  0  0  0  0  0  0  0  0  0
   12.0133  -16.8908   25.6262 C   0  0  0  0  0  0  0  0  0  0  0  0
   12.0849  -17.2540   24.2013 C   0  0  0  0  0  0  0  0  0  0  0  0
   11.1257  -17.9308   23.4710 C   0  0  0  0  0  0  0  0  0  0  0  0
   11.5695  -18.0656   22.2044 N   0  0  0  0  0  0  0  0  0  0  0  0
   12.7724  -17.5001   22.1056 C   0  0  0  0  0  0  0  0  0  0  0  0
   13.0852  -17.0075   23.3174 N   0  0  0  0  0  0  0  0  0  0  0  0
   10.7260  -17.1589   27.7287 C   0  0  0  0  0  0  0  0  0  0  0  0
   11.0155  -18.3072   28.4507 O   0  0  0  0  0  0  0  0  0  0  0  0
   10.5343  -16.0950   28.4030 O   0  0  0  0  0  0  0  0  0  0  0  0
  2  3  1  0
  2  1  1  0
  3 10  1  0
  4  3  2  0
  6  5  1  0
  7  8  1  0
  7  6  1  0
  9  8  1  1
  9 11  1  0
 10  9  1  0
 11 13  1  0
 11 12  2  0
 13 14  1  0
 14 21  1  0
 14 15  1  6
 16 15  1  0
 16 17  2  0
 18 17  1  0
 19 18  1  0
 20 19  2  0
 20 16  1  0
 21 22  1  0
 23 21  2  0
M  END
$$$$
