GMH.pdb
     RDKit          3D

 23 23  0  0  1  0  0  0  0  0999 V2000
    6.4997  -20.2846   23.8486 N   0  0  0  0  0  0  0  0  0  0  0  0
    6.4062  -19.4295   25.0225 C   0  0  0  0  0  0  0  0  0  0  0  0
    6.8838  -18.0768   24.6327 C   0  0  0  0  0  0  0  0  0  0  0  0
    7.6495  -17.9003   23.6351 O   0  0  0  0  0  0  0  0  0  0  0  0
    6.7569  -10.2674   25.6254 C   0  0  0  0  0  0  0  0  0  0  0  0
    5.9683  -11.8544   26.0566 S   0  0  0  0  0  0  0  0  0  0  0  0
    6.9390  -13.1770   25.2957 C   0  0  0  0  0  0  0  0  0  0  0  0
    6.3470  -14.4949   25.7687 C   0  0  0  0  0  0  0  0  0  0  0  0
    7.1032  -15.6113   25.0596 C   0  0  2  0  0  0  0  0  0  0  0  0
    6.5172  -16.9036   25.3457 N   0  0  0  0  0  0  0  0  0  0  0  0
    8.5051  -15.5317   25.5373 C   0  0  0  0  0  0  0  0  0  0  0  0
    8.7307  -15.2810   26.7454 O   0  0  0  0  0  0  0  0  0  0  0  0
    9.5820  -15.7315   24.6637 N   0  0  0  0  0  0  0  0  0  0  0  0
   10.9828  -15.6921   25.0516 C   0  0  1  0  0  0  0  0  0  0  0  0
   11.1323  -16.7161   26.1717 C   0  0  0  0  0  0  0  0  0  0  0  0
   10.9783  -16.1238   27.5106 C   0  0  0  0  0  0  0  0  0  0  0  0
   10.6419  -14.8148   27.8023 C   0  0  0  0  0  0  0  0  0  0  0  0
   10.6026  -14.6725   29.1430 N   0  0  0  0  0  0  0  0  0  0  0  0
   10.9013  -15.8411   29.7104 C   0  0  0  0  0  0  0  0  0  0  0  0
   11.1292  -16.7218   28.7198 N   0  0  0  0  0  0  0  0  0  0  0  0
   11.7695  -16.1179   23.8510 C   0  0  0  0  0  0  0  0  0  0  0  0
   13.1437  -15.9505   23.7646 O   0  0  0  0  0  0  0  0  0  0  0  0
   11.1972  -16.6579   22.8489 O   0  0  0  0  0  0  0  0  0  0  0  0
  2  3  1  0
  2  1  1  0
  3 10  1  0
  4  3  2  0
  6  5  1  0
  7  8  1  0
  7  6  1  0
  9  8  1  1
  9 11  1  0
 10  9  1  0
 11 13  1  0
 11 12  2  0
 13 14  1  0
 14 21  1  0
 14 15  1  1
 16 15  1  0
 16 17  2  0
 18 17  1  0
 19 18  1  0
 20 19  2  0
 20 16  1  0
 21 22  1  0
 23 21  2  0
M  END
$$$$
