GMH.pdb
     RDKit          3D

 23 23  0  0  1  0  0  0  0  0999 V2000
    8.0039  -15.5911   19.2183 N   0  0  0  0  0  0  0  0  0  0  0  0
    7.0619  -15.6844   20.3238 C   0  0  0  0  0  0  0  0  0  0  0  0
    7.7666  -15.2374   21.5540 C   0  0  0  0  0  0  0  0  0  0  0  0
    9.0340  -15.2257   21.6312 O   0  0  0  0  0  0  0  0  0  0  0  0
    7.2188  -10.4963   26.9271 C   0  0  0  0  0  0  0  0  0  0  0  0
    6.6153  -12.2090   27.0965 S   0  0  0  0  0  0  0  0  0  0  0  0
    7.6723  -13.2689   26.0815 C   0  0  0  0  0  0  0  0  0  0  0  0
    6.8222  -13.7734   24.9265 C   0  0  0  0  0  0  0  0  0  0  0  0
    7.7581  -14.4669   23.9448 C   0  0  2  0  0  0  0  0  0  0  0  0
    7.0726  -14.7980   22.7135 N   0  0  0  0  0  0  0  0  0  0  0  0
    8.2563  -15.6823   24.6339 C   0  0  0  0  0  0  0  0  0  0  0  0
    7.4583  -16.6151   24.8910 O   0  0  0  0  0  0  0  0  0  0  0  0
    9.6021  -15.8071   25.0030 N   0  0  0  0  0  0  0  0  0  0  0  0
   10.2106  -17.0220   25.5207 C   0  0  1  0  0  0  0  0  0  0  0  0
   11.7060  -16.8826   25.2558 C   0  0  0  0  0  0  0  0  0  0  0  0
   12.0616  -17.1302   23.8489 C   0  0  0  0  0  0  0  0  0  0  0  0
   11.2079  -17.5319   22.8382 C   0  0  0  0  0  0  0  0  0  0  0  0
   11.9196  -17.6464   21.6981 N   0  0  0  0  0  0  0  0  0  0  0  0
   13.1906  -17.3327   21.9489 C   0  0  0  0  0  0  0  0  0  0  0  0
   13.2768  -17.0194   23.2540 N   0  0  0  0  0  0  0  0  0  0  0  0
    9.9440  -17.0377   26.9939 C   0  0  0  0  0  0  0  0  0  0  0  0
   10.0767  -18.1852   27.7615 O   0  0  0  0  0  0  0  0  0  0  0  0
    9.5799  -15.9814   27.6063 O   0  0  0  0  0  0  0  0  0  0  0  0
  2  3  1  0
  2  1  1  0
  3 10  1  0
  4  3  2  0
  6  5  1  0
  7  8  1  0
  7  6  1  0
  9  8  1  1
  9 11  1  0
 10  9  1  0
 11 13  1  0
 11 12  2  0
 13 14  1  0
 14 21  1  0
 14 15  1  1
 16 15  1  0
 16 17  2  0
 18 17  1  0
 19 18  1  0
 20 19  2  0
 20 16  1  0
 21 22  1  0
 23 21  2  0
M  END
$$$$
