GMH.pdb
     RDKit          3D

 23 23  0  0  1  0  0  0  0  0999 V2000
    5.1208  -18.5501   20.9281 N   0  0  0  0  0  0  0  0  0  0  0  0
    5.2309  -18.6201   22.3776 C   0  0  0  0  0  0  0  0  0  0  0  0
    6.1209  -17.5126   22.8150 C   0  0  0  0  0  0  0  0  0  0  0  0
    7.1351  -17.1625   22.1357 O   0  0  0  0  0  0  0  0  0  0  0  0
    7.6539  -11.3557   27.3767 C   0  0  0  0  0  0  0  0  0  0  0  0
    6.4812  -12.7165   27.0617 S   0  0  0  0  0  0  0  0  0  0  0  0
    7.2855  -13.8901   25.9453 C   0  0  0  0  0  0  0  0  0  0  0  0
    6.2671  -14.9724   25.6251 C   0  0  0  0  0  0  0  0  0  0  0  0
    6.8792  -15.8678   24.5553 C   0  0  2  0  0  0  0  0  0  0  0  0
    5.8959  -16.7806   24.0119 N   0  0  0  0  0  0  0  0  0  0  0  0
    7.9935  -16.5952   25.2104 C   0  0  0  0  0  0  0  0  0  0  0  0
    7.7350  -17.4976   26.0424 O   0  0  0  0  0  0  0  0  0  0  0  0
    9.3296  -16.2926   24.9169 N   0  0  0  0  0  0  0  0  0  0  0  0
   10.4765  -17.0362   25.4130 C   0  0  1  0  0  0  0  0  0  0  0  0
   11.6962  -16.4160   24.7397 C   0  0  0  0  0  0  0  0  0  0  0  0
   11.7787  -16.7336   23.3046 C   0  0  0  0  0  0  0  0  0  0  0  0
   10.8522  -17.4385   22.5588 C   0  0  0  0  0  0  0  0  0  0  0  0
   11.2954  -17.5132   21.2870 N   0  0  0  0  0  0  0  0  0  0  0  0
   12.4664  -16.8826   21.1998 C   0  0  0  0  0  0  0  0  0  0  0  0
   12.7598  -16.4094   22.4241 N   0  0  0  0  0  0  0  0  0  0  0  0
   10.5267  -16.8054   26.8915 C   0  0  0  0  0  0  0  0  0  0  0  0
   11.0919  -17.7196   27.7682 O   0  0  0  0  0  0  0  0  0  0  0  0
   10.0448  -15.7446   27.4070 O   0  0  0  0  0  0  0  0  0  0  0  0
  2  3  1  0
  2  1  1  0
  3 10  1  0
  4  3  2  0
  6  5  1  0
  7  8  1  0
  7  6  1  0
  9  8  1  1
  9 11  1  0
 10  9  1  0
 11 13  1  0
 11 12  2  0
 13 14  1  0
 14 21  1  0
 14 15  1  6
 16 15  1  0
 16 17  2  0
 18 17  1  0
 19 18  1  0
 20 19  2  0
 20 16  1  0
 21 22  1  0
 23 21  2  0
M  END
$$$$
