GMH.pdb
     RDKit          3D

 23 23  0  0  1  0  0  0  0  0999 V2000
    8.1443  -16.0649   19.6812 N   0  0  0  0  0  0  0  0  0  0  0  0
    7.2750  -16.1503   20.8453 C   0  0  0  0  0  0  0  0  0  0  0  0
    8.0419  -15.6509   22.0168 C   0  0  0  0  0  0  0  0  0  0  0  0
    9.3105  -15.5943   22.0102 O   0  0  0  0  0  0  0  0  0  0  0  0
    7.0091  -10.2610   26.3174 C   0  0  0  0  0  0  0  0  0  0  0  0
    7.0623  -12.0372   26.7282 S   0  0  0  0  0  0  0  0  0  0  0  0
    7.0740  -12.9622   25.1743 C   0  0  0  0  0  0  0  0  0  0  0  0
    7.2496  -14.4301   25.5290 C   0  0  0  0  0  0  0  0  0  0  0  0
    8.1320  -15.0530   24.4548 C   0  0  2  0  0  0  0  0  0  0  0  0
    7.4097  -15.2085   23.2100 N   0  0  0  0  0  0  0  0  0  0  0  0
    8.5788  -16.3615   24.9917 C   0  0  0  0  0  0  0  0  0  0  0  0
    7.7503  -17.2966   25.1034 O   0  0  0  0  0  0  0  0  0  0  0  0
    9.9094  -16.5719   25.3765 N   0  0  0  0  0  0  0  0  0  0  0  0
   10.4699  -17.8596   25.7533 C   0  0  1  0  0  0  0  0  0  0  0  0
   11.9508  -17.7883   25.3961 C   0  0  0  0  0  0  0  0  0  0  0  0
   12.1888  -17.8071   23.9435 C   0  0  0  0  0  0  0  0  0  0  0  0
   11.2873  -18.1759   22.9622 C   0  0  0  0  0  0  0  0  0  0  0  0
   11.8896  -18.0547   21.7614 N   0  0  0  0  0  0  0  0  0  0  0  0
   13.1373  -17.6235   21.9455 C   0  0  0  0  0  0  0  0  0  0  0  0
   13.3189  -17.4731   23.2696 N   0  0  0  0  0  0  0  0  0  0  0  0
   10.2991  -17.9813   27.2357 C   0  0  0  0  0  0  0  0  0  0  0  0
    9.7132  -16.9841   28.0012 O   0  0  0  0  0  0  0  0  0  0  0  0
   10.6916  -19.0212   27.8585 O   0  0  0  0  0  0  0  0  0  0  0  0
  2  3  1  0
  2  1  1  0
  3 10  1  0
  4  3  2  0
  6  5  1  0
  7  8  1  0
  7  6  1  0
  9  8  1  1
  9 11  1  0
 10  9  1  0
 11 13  1  0
 11 12  2  0
 13 14  1  0
 14 21  1  0
 14 15  1  1
 16 15  1  0
 16 17  2  0
 18 17  1  0
 19 18  1  0
 20 19  2  0
 20 16  1  0
 21 22  1  0
 23 21  2  0
M  END
$$$$
