GMH.pdb
     RDKit          3D

 23 23  0  0  1  0  0  0  0  0999 V2000
    7.5490  -14.6372   19.6717 N   0  0  0  0  0  0  0  0  0  0  0  0
    6.9851  -15.4161   20.7641 C   0  0  0  0  0  0  0  0  0  0  0  0
    7.7274  -15.0584   22.0014 C   0  0  0  0  0  0  0  0  0  0  0  0
    8.9947  -14.9808   22.0216 O   0  0  0  0  0  0  0  0  0  0  0  0
    7.8076  -11.3840   27.5155 C   0  0  0  0  0  0  0  0  0  0  0  0
    6.2815  -11.5504   26.5308 S   0  0  0  0  0  0  0  0  0  0  0  0
    6.6760  -12.5323   25.0643 C   0  0  0  0  0  0  0  0  0  0  0  0
    6.9352  -13.9545   25.5348 C   0  0  0  0  0  0  0  0  0  0  0  0
    7.7956  -14.6320   24.4758 C   0  0  2  0  0  0  0  0  0  0  0  0
    7.0716  -14.7825   23.2314 N   0  0  0  0  0  0  0  0  0  0  0  0
    8.1888  -15.9466   25.0390 C   0  0  0  0  0  0  0  0  0  0  0  0
    7.3049  -16.8049   25.2742 O   0  0  0  0  0  0  0  0  0  0  0  0
    9.5295  -16.2471   25.3132 N   0  0  0  0  0  0  0  0  0  0  0  0
   10.0068  -17.5253   25.8156 C   0  0  1  0  0  0  0  0  0  0  0  0
   11.2925  -17.8185   25.0498 C   0  0  0  0  0  0  0  0  0  0  0  0
   11.0576  -18.0840   23.6209 C   0  0  0  0  0  0  0  0  0  0  0  0
   10.1851  -19.0130   23.0848 C   0  0  0  0  0  0  0  0  0  0  0  0
   10.2630  -18.9456   21.7399 N   0  0  0  0  0  0  0  0  0  0  0  0
   11.1512  -18.0100   21.4049 C   0  0  0  0  0  0  0  0  0  0  0  0
   11.6334  -17.4870   22.5463 N   0  0  0  0  0  0  0  0  0  0  0  0
   10.3028  -17.3278   27.2699 C   0  0  0  0  0  0  0  0  0  0  0  0
   10.1164  -16.1107   27.9082 O   0  0  0  0  0  0  0  0  0  0  0  0
   10.7436  -18.2851   27.9860 O   0  0  0  0  0  0  0  0  0  0  0  0
  2  3  1  0
  2  1  1  0
  3 10  1  0
  4  3  2  0
  6  5  1  0
  7  8  1  0
  7  6  1  0
  9  8  1  1
  9 11  1  0
 10  9  1  0
 11 13  1  0
 11 12  2  0
 13 14  1  0
 14 21  1  0
 14 15  1  6
 16 15  1  0
 16 17  2  0
 18 17  1  0
 19 18  1  0
 20 19  2  0
 20 16  1  0
 21 22  1  0
 23 21  2  0
M  END
$$$$
