GMH.pdb
     RDKit          3D

 23 23  0  0  1  0  0  0  0  0999 V2000
    5.5004  -19.2949   21.3292 N   0  0  0  0  0  0  0  0  0  0  0  0
    4.9994  -18.5917   22.5007 C   0  0  0  0  0  0  0  0  0  0  0  0
    6.0739  -17.6780   22.9705 C   0  0  0  0  0  0  0  0  0  0  0  0
    7.1648  -17.5466   22.3340 O   0  0  0  0  0  0  0  0  0  0  0  0
    6.9478  -11.2508   25.9639 C   0  0  0  0  0  0  0  0  0  0  0  0
    7.0458  -12.7629   26.9790 S   0  0  0  0  0  0  0  0  0  0  0  0
    7.6851  -14.0903   25.9303 C   0  0  0  0  0  0  0  0  0  0  0  0
    6.5136  -14.9996   25.5959 C   0  0  0  0  0  0  0  0  0  0  0  0
    7.0320  -16.0777   24.6528 C   0  0  2  0  0  0  0  0  0  0  0  0
    5.9503  -16.8994   24.1526 N   0  0  0  0  0  0  0  0  0  0  0  0
    8.0072  -16.8779   25.4330 C   0  0  0  0  0  0  0  0  0  0  0  0
    7.6013  -17.5834   26.3874 O   0  0  0  0  0  0  0  0  0  0  0  0
    9.3735  -16.8600   25.1234 N   0  0  0  0  0  0  0  0  0  0  0  0
   10.3563  -17.7909   25.6544 C   0  0  1  0  0  0  0  0  0  0  0  0
   10.7202  -18.7151   24.4972 C   0  0  0  0  0  0  0  0  0  0  0  0
    9.7717  -19.8295   24.3371 C   0  0  0  0  0  0  0  0  0  0  0  0
    9.1565  -20.5439   25.3485 C   0  0  0  0  0  0  0  0  0  0  0  0
    8.3622  -21.4793   24.7886 N   0  0  0  0  0  0  0  0  0  0  0  0
    8.4514  -21.3840   23.4621 C   0  0  0  0  0  0  0  0  0  0  0  0
    9.3066  -20.3828   23.1880 N   0  0  0  0  0  0  0  0  0  0  0  0
   11.5435  -16.9728   26.0579 C   0  0  0  0  0  0  0  0  0  0  0  0
   12.3355  -17.2991   27.1488 O   0  0  0  0  0  0  0  0  0  0  0  0
   11.8753  -15.9306   25.4043 O   0  0  0  0  0  0  0  0  0  0  0  0
  2  3  1  0
  2  1  1  0
  3 10  1  0
  4  3  2  0
  6  5  1  0
  7  8  1  0
  7  6  1  0
  9  8  1  1
  9 11  1  0
 10  9  1  0
 11 13  1  0
 11 12  2  0
 13 14  1  0
 14 21  1  0
 14 15  1  6
 16 15  1  0
 16 17  2  0
 18 17  1  0
 19 18  1  0
 20 19  2  0
 20 16  1  0
 21 22  1  0
 23 21  2  0
M  END
$$$$
