GMH.pdb
     RDKit          3D

 23 23  0  0  1  0  0  0  0  0999 V2000
    7.8212  -16.9370   19.9047 N   0  0  0  0  0  0  0  0  0  0  0  0
    6.7424  -16.4521   20.7527 C   0  0  0  0  0  0  0  0  0  0  0  0
    7.3535  -15.9305   22.0034 C   0  0  0  0  0  0  0  0  0  0  0  0
    8.4851  -16.3353   22.4136 O   0  0  0  0  0  0  0  0  0  0  0  0
    7.3017  -10.7710   27.9316 C   0  0  0  0  0  0  0  0  0  0  0  0
    6.3581  -11.4226   26.5133 S   0  0  0  0  0  0  0  0  0  0  0  0
    7.2344  -12.8763   25.8893 C   0  0  0  0  0  0  0  0  0  0  0  0
    6.4758  -13.3647   24.6658 C   0  0  0  0  0  0  0  0  0  0  0  0
    7.2446  -14.5521   24.1005 C   0  0  2  0  0  0  0  0  0  0  0  0
    6.7157  -14.9531   22.8141 N   0  0  0  0  0  0  0  0  0  0  0  0
    7.1237  -15.6397   25.1016 C   0  0  0  0  0  0  0  0  0  0  0  0
    5.9889  -16.0935   25.3838 O   0  0  0  0  0  0  0  0  0  0  0  0
    8.2539  -16.1695   25.7379 N   0  0  0  0  0  0  0  0  0  0  0  0
    8.2488  -17.3445   26.5944 C   0  0  1  0  0  0  0  0  0  0  0  0
    7.7307  -18.4875   25.7279 C   0  0  0  0  0  0  0  0  0  0  0  0
    7.7688  -19.7881   26.4166 C   0  0  0  0  0  0  0  0  0  0  0  0
    8.1004  -20.0140   27.7397 C   0  0  0  0  0  0  0  0  0  0  0  0
    8.0144  -21.3383   27.9815 N   0  0  0  0  0  0  0  0  0  0  0  0
    7.6412  -21.9584   26.8623 C   0  0  0  0  0  0  0  0  0  0  0  0
    7.4920  -21.0178   25.9126 N   0  0  0  0  0  0  0  0  0  0  0  0
    9.6727  -17.5936   26.9845 C   0  0  0  0  0  0  0  0  0  0  0  0
   10.7146  -16.7872   26.5509 O   0  0  0  0  0  0  0  0  0  0  0  0
    9.9849  -18.5703   27.7407 O   0  0  0  0  0  0  0  0  0  0  0  0
  2  3  1  0
  2  1  1  0
  3 10  1  0
  4  3  2  0
  6  5  1  0
  7  8  1  0
  7  6  1  0
  9  8  1  1
  9 11  1  0
 10  9  1  0
 11 13  1  0
 11 12  2  0
 13 14  1  0
 14 21  1  0
 14 15  1  6
 16 15  1  0
 16 17  2  0
 18 17  1  0
 19 18  1  0
 20 19  2  0
 20 16  1  0
 21 22  1  0
 23 21  2  0
M  END
$$$$
