GMH.pdb
     RDKit          3D

 23 23  0  0  1  0  0  0  0  0999 V2000
    4.2808  -18.8662   20.7771 N   0  0  0  0  0  0  0  0  0  0  0  0
    4.7604  -18.7771   22.1482 C   0  0  0  0  0  0  0  0  0  0  0  0
    6.0848  -18.1025   22.1183 C   0  0  0  0  0  0  0  0  0  0  0  0
    7.1706  -18.7608   22.1321 O   0  0  0  0  0  0  0  0  0  0  0  0
    8.2706  -11.9106   20.2608 C   0  0  0  0  0  0  0  0  0  0  0  0
    6.7364  -12.7735   19.7829 S   0  0  0  0  0  0  0  0  0  0  0  0
    6.9257  -14.5178   20.2212 C   0  0  0  0  0  0  0  0  0  0  0  0
    7.3815  -14.5678   21.6706 C   0  0  0  0  0  0  0  0  0  0  0  0
    7.5119  -16.0364   22.0538 C   0  0  2  0  0  0  0  0  0  0  0  0
    6.2197  -16.6886   22.0729 N   0  0  0  0  0  0  0  0  0  0  0  0
    8.1538  -16.0613   23.3908 C   0  0  0  0  0  0  0  0  0  0  0  0
    7.4728  -15.7810   24.4061 O   0  0  0  0  0  0  0  0  0  0  0  0
    9.5070  -16.3922   23.5401 N   0  0  0  0  0  0  0  0  0  0  0  0
   10.1968  -16.5066   24.8150 C   0  0  1  0  0  0  0  0  0  0  0  0
   10.2398  -17.9978   25.1313 C   0  0  0  0  0  0  0  0  0  0  0  0
    9.0061  -18.4806   25.7733 C   0  0  0  0  0  0  0  0  0  0  0  0
    7.9913  -17.7053   26.3030 C   0  0  0  0  0  0  0  0  0  0  0  0
    7.0406  -18.5251   26.7965 N   0  0  0  0  0  0  0  0  0  0  0  0
    7.4152  -19.7890   26.5993 C   0  0  0  0  0  0  0  0  0  0  0  0
    8.6079  -19.7621   25.9783 N   0  0  0  0  0  0  0  0  0  0  0  0
   11.5823  -15.9821   24.5983 C   0  0  0  0  0  0  0  0  0  0  0  0
   12.4693  -15.7705   25.6434 O   0  0  0  0  0  0  0  0  0  0  0  0
   12.0043  -15.7065   23.4281 O   0  0  0  0  0  0  0  0  0  0  0  0
  2  3  1  0
  2  1  1  0
  3 10  1  0
  4  3  2  0
  6  5  1  0
  7  8  1  0
  7  6  1  0
  9  8  1  1
  9 11  1  0
 10  9  1  0
 11 13  1  0
 11 12  2  0
 13 14  1  0
 14 21  1  0
 14 15  1  6
 16 15  1  0
 16 17  2  0
 18 17  1  0
 19 18  1  0
 20 19  2  0
 20 16  1  0
 21 22  1  0
 23 21  2  0
M  END
$$$$
