YDY.pdb
     RDKit          3D

 33 34  0  0  1  0  0  0  0  0999 V2000
   19.0776   -9.0507  -23.9760 O   0  0  0  0  0  0  0  0  0  0  0  0
   19.9356   -8.0935  -23.4471 C   0  0  0  0  0  0  0  0  0  0  0  0
   19.4057   -6.8910  -23.0279 C   0  0  0  0  0  0  0  0  0  0  0  0
   20.2407   -5.9467  -22.5080 C   0  0  0  0  0  0  0  0  0  0  0  0
   21.6207   -6.1367  -22.3765 C   0  0  0  0  0  0  0  0  0  0  0  0
   22.4894   -5.0796  -21.8045 C   0  0  0  0  0  0  0  0  0  0  0  0
   22.5587   -5.2581  -20.3028 C   0  0  2  0  0  0  0  0  0  0  0  0
   22.8080   -6.6597  -20.0344 N   0  0  0  0  0  0  0  0  0  0  0  0
   21.3270   -4.8535  -19.6249 C   0  0  0  0  0  0  0  0  0  0  0  0
   20.5031   -5.7138  -19.2433 O   0  0  0  0  0  0  0  0  0  0  0  0
   22.1107   -7.3525  -22.8073 C   0  0  0  0  0  0  0  0  0  0  0  0
   21.2918   -8.3327  -23.3397 C   0  0  0  0  0  0  0  0  0  0  0  0
   20.9822   -3.4954  -19.3561 N   0  0  0  0  0  0  0  0  0  0  0  0
   19.8080   -3.1176  -18.6332 C   0  0  1  0  0  0  0  0  0  0  0  0
   19.7647   -3.6230  -17.2223 C   0  0  0  0  0  0  0  0  0  0  0  0
   18.5724   -3.2164  -16.4763 C   0  0  0  0  0  0  0  0  0  0  0  0
   17.7164   -2.4738  -16.9953 O   0  0  0  0  0  0  0  0  0  0  0  0
   19.6020   -1.6498  -18.6957 C   0  0  0  0  0  0  0  0  0  0  0  0
   20.5596   -0.8987  -18.3865 O   0  0  0  0  0  0  0  0  0  0  0  0
   18.3652   -3.6415  -15.1864 O   0  0  0  0  0  0  0  0  0  0  0  0
   17.9800   -0.3221  -25.5828 O   0  0  0  0  0  0  0  0  0  0  0  0
   18.2781   -0.0215  -24.2502 C   0  0  0  0  0  0  0  0  0  0  0  0
   17.6274    0.9624  -23.5503 C   0  0  0  0  0  0  0  0  0  0  0  0
   17.8776    1.3012  -22.2413 C   0  0  0  0  0  0  0  0  0  0  0  0
   18.8740    0.5898  -21.5630 C   0  0  0  0  0  0  0  0  0  0  0  0
   19.1894    0.9307  -20.1585 C   0  0  0  0  0  0  0  0  0  0  0  0
   18.1798    0.3560  -19.2002 C   0  0  2  0  0  0  0  0  0  0  0  0
   18.3556   -1.1026  -19.0947 N   0  0  0  0  0  0  0  0  0  0  0  0
   16.7841    0.6139  -19.6155 C   0  0  0  0  0  0  0  0  0  0  0  0
   16.4089    1.7925  -19.8132 O   0  0  0  0  0  0  0  0  0  0  0  0
   19.5502   -0.4158  -22.2540 C   0  0  0  0  0  0  0  0  0  0  0  0
   19.2675   -0.7229  -23.5663 C   0  0  0  0  0  0  0  0  0  0  0  0
   15.8516   -0.3964  -19.8013 O   0  0  0  0  0  0  0  0  0  0  0  0
  2  1  1  0
  3  2  2  0
  4  3  1  0
  5 11  1  0
  5  4  2  0
  6  5  1  0
  7  9  1  0
  7  6  1  0
  7  8  1  6
  9 10  2  0
 11 12  2  0
 12  2  1  0
 13 14  1  0
 13  9  1  0
 14 15  1  1
 15 16  1  0
 16 20  1  0
 17 16  2  0
 18 14  1  0
 19 18  2  0
 22 23  2  0
 22 21  1  0
 24 23  1  0
 25 24  2  0
 27 26  1  6
 26 25  1  0
 27 28  1  0
 28 18  1  0
 29 27  1  0
 29 33  1  0
 30 29  2  0
 31 25  1  0
 31 32  2  0
 32 22  1  0
M  END
$$$$
