YDY.pdb
     RDKit          3D

 33 34  0  0  1  0  0  0  0  0999 V2000
   22.8802  -19.3050  -25.6176 O   0  0  0  0  0  0  0  0  0  0  0  0
   22.2919  -19.4451  -24.3660 C   0  0  0  0  0  0  0  0  0  0  0  0
   22.2976  -20.6885  -23.7689 C   0  0  0  0  0  0  0  0  0  0  0  0
   21.7226  -20.8342  -22.5412 C   0  0  0  0  0  0  0  0  0  0  0  0
   21.1213  -19.7771  -21.8492 C   0  0  0  0  0  0  0  0  0  0  0  0
   20.5082  -19.9842  -20.5149 C   0  0  0  0  0  0  0  0  0  0  0  0
   21.2682  -19.1675  -19.4914 C   0  0  2  0  0  0  0  0  0  0  0  0
   22.5956  -19.7350  -19.3692 N   0  0  0  0  0  0  0  0  0  0  0  0
   20.6267  -19.1647  -18.1766 C   0  0  0  0  0  0  0  0  0  0  0  0
   20.3166  -20.2420  -17.6218 O   0  0  0  0  0  0  0  0  0  0  0  0
   21.1368  -18.5505  -22.4806 C   0  0  0  0  0  0  0  0  0  0  0  0
   21.7114  -18.3673  -23.7260 C   0  0  0  0  0  0  0  0  0  0  0  0
   20.3162  -17.9760  -17.4512 N   0  0  0  0  0  0  0  0  0  0  0  0
   19.6172  -17.9840  -16.2041 C   0  0  1  0  0  0  0  0  0  0  0  0
   19.8950  -16.7942  -15.3352 C   0  0  0  0  0  0  0  0  0  0  0  0
   19.1543  -16.7881  -14.0724 C   0  0  0  0  0  0  0  0  0  0  0  0
   18.3742  -17.7167  -13.7847 O   0  0  0  0  0  0  0  0  0  0  0  0
   18.1621  -18.1779  -16.4185 C   0  0  0  0  0  0  0  0  0  0  0  0
   17.6027  -17.5313  -17.3382 O   0  0  0  0  0  0  0  0  0  0  0  0
   19.2985  -15.7605  -13.1720 O   0  0  0  0  0  0  0  0  0  0  0  0
   15.3911  -20.2262   -9.5196 O   0  0  0  0  0  0  0  0  0  0  0  0
   15.4291  -20.3045  -10.9151 C   0  0  0  0  0  0  0  0  0  0  0  0
   14.3450  -20.0111  -11.7024 C   0  0  0  0  0  0  0  0  0  0  0  0
   14.3242  -20.0702  -13.0760 C   0  0  0  0  0  0  0  0  0  0  0  0
   15.4989  -20.4599  -13.7295 C   0  0  0  0  0  0  0  0  0  0  0  0
   15.5186  -20.5540  -15.2057 C   0  0  0  0  0  0  0  0  0  0  0  0
   15.9759  -19.2694  -15.8448 C   0  0  2  0  0  0  0  0  0  0  0  0
   17.4159  -19.0707  -15.6073 N   0  0  0  0  0  0  0  0  0  0  0  0
   15.2639  -18.0837  -15.3211 C   0  0  0  0  0  0  0  0  0  0  0  0
   14.0203  -18.0067  -15.4491 O   0  0  0  0  0  0  0  0  0  0  0  0
   16.6152  -20.7637  -12.9500 C   0  0  0  0  0  0  0  0  0  0  0  0
   16.5925  -20.6912  -11.5750 C   0  0  0  0  0  0  0  0  0  0  0  0
   15.9100  -17.0338  -14.6846 O   0  0  0  0  0  0  0  0  0  0  0  0
  2  1  1  0
  3  2  2  0
  4  3  1  0
  5 11  1  0
  5  4  2  0
  6  5  1  0
  7  9  1  0
  7  6  1  0
  7  8  1  1
  9 10  2  0
 11 12  2  0
 12  2  1  0
 13 14  1  0
 13  9  1  0
 14 15  1  6
 15 16  1  0
 16 20  1  0
 17 16  2  0
 18 14  1  0
 19 18  2  0
 22 23  2  0
 22 21  1  0
 24 23  1  0
 25 24  2  0
 27 26  1  1
 26 25  1  0
 27 28  1  0
 28 18  1  0
 29 27  1  0
 29 33  1  0
 30 29  2  0
 31 25  1  0
 31 32  2  0
 32 22  1  0
M  END
$$$$
