YDY.pdb
     RDKit          3D

 33 34  0  0  1  0  0  0  0  0999 V2000
   22.7971  -10.5671  -26.5758 O   0  0  0  0  0  0  0  0  0  0  0  0
   22.4582  -11.6608  -25.7877 C   0  0  0  0  0  0  0  0  0  0  0  0
   23.4137  -12.6277  -25.5537 C   0  0  0  0  0  0  0  0  0  0  0  0
   23.0892  -13.7036  -24.7816 C   0  0  0  0  0  0  0  0  0  0  0  0
   21.8246  -13.8791  -24.2089 C   0  0  0  0  0  0  0  0  0  0  0  0
   21.5181  -15.0669  -23.3756 C   0  0  0  0  0  0  0  0  0  0  0  0
   21.2421  -14.6156  -21.9572 C   0  0  2  0  0  0  0  0  0  0  0  0
   22.4726  -14.0741  -21.4173 N   0  0  0  0  0  0  0  0  0  0  0  0
   20.7796  -15.7030  -21.0947 C   0  0  0  0  0  0  0  0  0  0  0  0
   19.7490  -16.3483  -21.3881 O   0  0  0  0  0  0  0  0  0  0  0  0
   20.8979  -12.8900  -24.4670 C   0  0  0  0  0  0  0  0  0  0  0  0
   21.1936  -11.7852  -25.2460 C   0  0  0  0  0  0  0  0  0  0  0  0
   21.4438  -16.0977  -19.8953 N   0  0  0  0  0  0  0  0  0  0  0  0
   20.9953  -17.1798  -19.0757 C   0  0  1  0  0  0  0  0  0  0  0  0
   21.9833  -17.6141  -18.0349 C   0  0  0  0  0  0  0  0  0  0  0  0
   22.5161  -18.9622  -18.2397 C   0  0  0  0  0  0  0  0  0  0  0  0
   23.4852  -19.1578  -18.9987 O   0  0  0  0  0  0  0  0  0  0  0  0
   19.6712  -16.8745  -18.4804 C   0  0  0  0  0  0  0  0  0  0  0  0
   19.4578  -15.7089  -18.0649 O   0  0  0  0  0  0  0  0  0  0  0  0
   21.9632  -20.0464  -17.6022 O   0  0  0  0  0  0  0  0  0  0  0  0
   14.6452  -19.0919  -23.4654 O   0  0  0  0  0  0  0  0  0  0  0  0
   15.1313  -18.4667  -22.3132 C   0  0  0  0  0  0  0  0  0  0  0  0
   16.2885  -17.7303  -22.3032 C   0  0  0  0  0  0  0  0  0  0  0  0
   16.8135  -17.0946  -21.2028 C   0  0  0  0  0  0  0  0  0  0  0  0
   16.1173  -17.2031  -19.9935 C   0  0  0  0  0  0  0  0  0  0  0  0
   16.6530  -16.5497  -18.7792 C   0  0  0  0  0  0  0  0  0  0  0  0
   17.3297  -17.5346  -17.8628 C   0  0  2  0  0  0  0  0  0  0  0  0
   18.6669  -17.8712  -18.3805 N   0  0  0  0  0  0  0  0  0  0  0  0
   16.5713  -18.7958  -17.7168 C   0  0  0  0  0  0  0  0  0  0  0  0
   15.3739  -18.7548  -17.3513 O   0  0  0  0  0  0  0  0  0  0  0  0
   14.9374  -17.9472  -19.9785 C   0  0  0  0  0  0  0  0  0  0  0  0
   14.4466  -18.5684  -21.1052 C   0  0  0  0  0  0  0  0  0  0  0  0
   17.1237  -20.0436  -17.9671 O   0  0  0  0  0  0  0  0  0  0  0  0
  2  1  1  0
  3  2  2  0
  4  3  1  0
  5 11  1  0
  5  4  2  0
  6  5  1  0
  7  9  1  0
  7  6  1  0
  7  8  1  1
  9 10  2  0
 11 12  2  0
 12  2  1  0
 13 14  1  0
 13  9  1  0
 14 15  1  1
 15 16  1  0
 16 20  1  0
 17 16  2  0
 18 14  1  0
 19 18  2  0
 22 23  2  0
 22 21  1  0
 24 23  1  0
 25 24  2  0
 27 26  1  6
 26 25  1  0
 27 28  1  0
 28 18  1  0
 29 27  1  0
 29 33  1  0
 30 29  2  0
 31 25  1  0
 31 32  2  0
 32 22  1  0
M  END
$$$$
