YDY.pdb
     RDKit          3D

 33 34  0  0  1  0  0  0  0  0999 V2000
   17.0156  -13.9370  -17.3054 O   0  0  0  0  0  0  0  0  0  0  0  0
   18.0476  -14.7798  -16.9092 C   0  0  0  0  0  0  0  0  0  0  0  0
   17.7849  -15.7443  -15.9589 C   0  0  0  0  0  0  0  0  0  0  0  0
   18.7918  -16.5749  -15.5649 C   0  0  0  0  0  0  0  0  0  0  0  0
   20.0905  -16.4984  -16.0800 C   0  0  0  0  0  0  0  0  0  0  0  0
   21.1537  -17.4245  -15.6203 C   0  0  0  0  0  0  0  0  0  0  0  0
   21.5872  -18.2925  -16.7825 C   0  0  2  0  0  0  0  0  0  0  0  0
   20.4564  -19.1110  -17.1699 N   0  0  0  0  0  0  0  0  0  0  0  0
   22.7159  -19.1625  -16.4519 C   0  0  0  0  0  0  0  0  0  0  0  0
   22.5262  -20.2460  -15.8565 O   0  0  0  0  0  0  0  0  0  0  0  0
   20.3118  -15.5206  -17.0279 C   0  0  0  0  0  0  0  0  0  0  0  0
   19.3130  -14.6612  -17.4504 C   0  0  0  0  0  0  0  0  0  0  0  0
   24.0718  -18.8541  -16.7714 N   0  0  0  0  0  0  0  0  0  0  0  0
   25.1686  -19.6984  -16.4135 C   0  0  1  0  0  0  0  0  0  0  0  0
   26.4195  -19.4498  -17.2018 C   0  0  0  0  0  0  0  0  0  0  0  0
   27.5006  -20.3973  -16.9251 C   0  0  0  0  0  0  0  0  0  0  0  0
   27.3296  -21.3504  -16.1402 O   0  0  0  0  0  0  0  0  0  0  0  0
   25.4212  -19.6408  -14.9528 C   0  0  0  0  0  0  0  0  0  0  0  0
   25.4956  -18.5140  -14.4036 O   0  0  0  0  0  0  0  0  0  0  0  0
   28.7307  -20.2618  -17.5217 O   0  0  0  0  0  0  0  0  0  0  0  0
   26.1143  -19.6938   -6.4514 O   0  0  0  0  0  0  0  0  0  0  0  0
   25.8231  -19.7416   -7.8181 C   0  0  0  0  0  0  0  0  0  0  0  0
   25.0108  -20.7000   -8.3685 C   0  0  0  0  0  0  0  0  0  0  0  0
   24.6899  -20.7961   -9.7020 C   0  0  0  0  0  0  0  0  0  0  0  0
   25.2315  -19.8438  -10.5730 C   0  0  0  0  0  0  0  0  0  0  0  0
   24.9274  -19.9174  -12.0189 C   0  0  0  0  0  0  0  0  0  0  0  0
   25.9333  -20.7555  -12.7629 C   0  0  2  0  0  0  0  0  0  0  0  0
   25.5757  -20.8267  -14.1900 N   0  0  0  0  0  0  0  0  0  0  0  0
   26.0181  -22.1395  -12.2490 C   0  0  0  0  0  0  0  0  0  0  0  0
   26.6470  -22.3647  -11.1894 O   0  0  0  0  0  0  0  0  0  0  0  0
   26.0611  -18.8588  -10.0368 C   0  0  0  0  0  0  0  0  0  0  0  0
   26.3567  -18.7992   -8.6931 C   0  0  0  0  0  0  0  0  0  0  0  0
   25.4287  -23.2208  -12.8878 O   0  0  0  0  0  0  0  0  0  0  0  0
  2  1  1  0
  3  2  2  0
  4  3  1  0
  5 11  1  0
  5  4  2  0
  6  5  1  0
  7  9  1  0
  7  6  1  0
  7  8  1  1
  9 10  2  0
 11 12  2  0
 12  2  1  0
 13 14  1  0
 13  9  1  0
 14 15  1  6
 15 16  1  0
 16 20  1  0
 17 16  2  0
 18 14  1  0
 19 18  2  0
 22 23  2  0
 22 21  1  0
 24 23  1  0
 25 24  2  0
 27 26  1  1
 26 25  1  0
 27 28  1  0
 28 18  1  0
 29 27  1  0
 29 33  1  0
 30 29  2  0
 31 25  1  0
 31 32  2  0
 32 22  1  0
M  END
$$$$
