YDY.pdb
     RDKit          3D

 33 34  0  0  1  0  0  0  0  0999 V2000
   18.5375  -26.4093  -17.0582 O   0  0  0  0  0  0  0  0  0  0  0  0
   19.7523  -26.1082  -16.4534 C   0  0  0  0  0  0  0  0  0  0  0  0
   19.8438  -24.9638  -15.6889 C   0  0  0  0  0  0  0  0  0  0  0  0
   21.0320  -24.6613  -15.0923 C   0  0  0  0  0  0  0  0  0  0  0  0
   22.1742  -25.4599  -15.2170 C   0  0  0  0  0  0  0  0  0  0  0  0
   23.4454  -25.0898  -14.5489 C   0  0  0  0  0  0  0  0  0  0  0  0
   24.1626  -24.0571  -15.3921 C   0  0  2  0  0  0  0  0  0  0  0  0
   24.7447  -24.7405  -16.5291 N   0  0  0  0  0  0  0  0  0  0  0  0
   25.2206  -23.3608  -14.6600 C   0  0  0  0  0  0  0  0  0  0  0  0
   26.3600  -23.8674  -14.5610 O   0  0  0  0  0  0  0  0  0  0  0  0
   22.0408  -26.5951  -15.9897 C   0  0  0  0  0  0  0  0  0  0  0  0
   20.8502  -26.9319  -16.6092 C   0  0  0  0  0  0  0  0  0  0  0  0
   25.0417  -22.0959  -14.0249 N   0  0  0  0  0  0  0  0  0  0  0  0
   26.0752  -21.4422  -13.2843 C   0  0  1  0  0  0  0  0  0  0  0  0
   26.4416  -20.0850  -13.8054 C   0  0  0  0  0  0  0  0  0  0  0  0
   25.3762  -19.0884  -13.6833 C   0  0  0  0  0  0  0  0  0  0  0  0
   24.3535  -19.3253  -13.0112 O   0  0  0  0  0  0  0  0  0  0  0  0
   25.7416  -21.4024  -11.8393 C   0  0  0  0  0  0  0  0  0  0  0  0
   24.7178  -20.7701  -11.4801 O   0  0  0  0  0  0  0  0  0  0  0  0
   25.4744  -17.8673  -14.3052 O   0  0  0  0  0  0  0  0  0  0  0  0
   28.3148  -18.8981   -3.9286 O   0  0  0  0  0  0  0  0  0  0  0  0
   28.1875  -19.3228   -5.2546 C   0  0  0  0  0  0  0  0  0  0  0  0
   27.5238  -18.5904   -6.2056 C   0  0  0  0  0  0  0  0  0  0  0  0
   27.3673  -18.9572   -7.5216 C   0  0  0  0  0  0  0  0  0  0  0  0
   27.9271  -20.1732   -7.9302 C   0  0  0  0  0  0  0  0  0  0  0  0
   27.7696  -20.6168   -9.3326 C   0  0  0  0  0  0  0  0  0  0  0  0
   26.6182  -21.5739   -9.4937 C   0  0  2  0  0  0  0  0  0  0  0  0
   26.5555  -22.0609  -10.8823 N   0  0  0  0  0  0  0  0  0  0  0  0
   25.3125  -20.9589   -9.1713 C   0  0  0  0  0  0  0  0  0  0  0  0
   24.5905  -21.4757   -8.2879 O   0  0  0  0  0  0  0  0  0  0  0  0
   28.6070  -20.9362   -6.9808 C   0  0  0  0  0  0  0  0  0  0  0  0
   28.7404  -20.5307   -5.6715 C   0  0  0  0  0  0  0  0  0  0  0  0
   24.8356  -19.8208   -9.8055 O   0  0  0  0  0  0  0  0  0  0  0  0
  2  1  1  0
  3  2  2  0
  4  3  1  0
  5 11  1  0
  5  4  2  0
  6  5  1  0
  7  9  1  0
  7  6  1  0
  7  8  1  6
  9 10  2  0
 11 12  2  0
 12  2  1  0
 13 14  1  0
 13  9  1  0
 14 15  1  6
 15 16  1  0
 16 20  1  0
 17 16  2  0
 18 14  1  0
 19 18  2  0
 22 23  2  0
 22 21  1  0
 24 23  1  0
 25 24  2  0
 27 26  1  6
 26 25  1  0
 27 28  1  0
 28 18  1  0
 29 27  1  0
 29 33  1  0
 30 29  2  0
 31 25  1  0
 31 32  2  0
 32 22  1  0
M  END
$$$$
