YDY.pdb
     RDKit          3D

 33 34  0  0  1  0  0  0  0  0999 V2000
   19.2028  -17.2932  -20.6010 O   0  0  0  0  0  0  0  0  0  0  0  0
   19.9352  -16.2189  -20.1093 C   0  0  0  0  0  0  0  0  0  0  0  0
   19.3723  -15.4295  -19.1282 C   0  0  0  0  0  0  0  0  0  0  0  0
   20.0842  -14.3738  -18.6406 C   0  0  0  0  0  0  0  0  0  0  0  0
   21.3688  -14.0469  -19.0887 C   0  0  0  0  0  0  0  0  0  0  0  0
   22.1048  -12.8880  -18.5279 C   0  0  0  0  0  0  0  0  0  0  0  0
   22.2457  -11.8283  -19.5999 C   0  0  2  0  0  0  0  0  0  0  0  0
   23.4168  -12.1501  -20.3896 N   0  0  0  0  0  0  0  0  0  0  0  0
   22.3951  -10.4806  -19.0507 C   0  0  0  0  0  0  0  0  0  0  0  0
   23.3170   -9.7343  -19.4480 O   0  0  0  0  0  0  0  0  0  0  0  0
   21.8957  -14.8608  -20.0702 C   0  0  0  0  0  0  0  0  0  0  0  0
   21.2009  -15.9401  -20.5872 C   0  0  0  0  0  0  0  0  0  0  0  0
   21.5324   -9.9325  -18.0553 N   0  0  0  0  0  0  0  0  0  0  0  0
   21.6267   -8.5803  -17.6007 C   0  0  1  0  0  0  0  0  0  0  0  0
   21.5814   -7.5580  -18.6966 C   0  0  0  0  0  0  0  0  0  0  0  0
   21.6357   -6.1726  -18.2264 C   0  0  0  0  0  0  0  0  0  0  0  0
   20.8596   -5.3115  -18.6844 O   0  0  0  0  0  0  0  0  0  0  0  0
   20.6124   -8.3060  -16.5535 C   0  0  0  0  0  0  0  0  0  0  0  0
   19.4091   -8.5612  -16.8063 O   0  0  0  0  0  0  0  0  0  0  0  0
   22.5421   -5.7848  -17.2695 O   0  0  0  0  0  0  0  0  0  0  0  0
   16.7117   -6.8626   -8.7870 O   0  0  0  0  0  0  0  0  0  0  0  0
   17.6465   -7.1192   -9.7945 C   0  0  0  0  0  0  0  0  0  0  0  0
   18.5224   -6.1675  -10.2512 C   0  0  0  0  0  0  0  0  0  0  0  0
   19.4609   -6.3623  -11.2369 C   0  0  0  0  0  0  0  0  0  0  0  0
   19.5342   -7.6299  -11.8257 C   0  0  0  0  0  0  0  0  0  0  0  0
   20.5174   -7.8813  -12.9021 C   0  0  0  0  0  0  0  0  0  0  0  0
   19.9717   -7.5186  -14.2580 C   0  0  2  0  0  0  0  0  0  0  0  0
   20.9869   -7.7687  -15.2954 N   0  0  0  0  0  0  0  0  0  0  0  0
   19.5696   -6.0986  -14.3526 C   0  0  0  0  0  0  0  0  0  0  0  0
   20.4065   -5.2461  -14.7290 O   0  0  0  0  0  0  0  0  0  0  0  0
   18.6535   -8.6148  -11.3782 C   0  0  0  0  0  0  0  0  0  0  0  0
   17.7277   -8.3766  -10.3869 C   0  0  0  0  0  0  0  0  0  0  0  0
   18.2935   -5.6518  -14.0417 O   0  0  0  0  0  0  0  0  0  0  0  0
  2  1  1  0
  3  2  2  0
  4  3  1  0
  5 11  1  0
  5  4  2  0
  6  5  1  0
  7  9  1  0
  7  6  1  0
  7  8  1  1
  9 10  2  0
 11 12  2  0
 12  2  1  0
 13 14  1  0
 13  9  1  0
 14 15  1  6
 15 16  1  0
 16 20  1  0
 17 16  2  0
 18 14  1  0
 19 18  2  0
 22 23  2  0
 22 21  1  0
 24 23  1  0
 25 24  2  0
 27 26  1  1
 26 25  1  0
 27 28  1  0
 28 18  1  0
 29 27  1  0
 29 33  1  0
 30 29  2  0
 31 25  1  0
 31 32  2  0
 32 22  1  0
M  END
$$$$
