YDY.pdb
     RDKit          3D

 33 34  0  0  1  0  0  0  0  0999 V2000
   19.1448    1.5929  -15.7443 O   0  0  0  0  0  0  0  0  0  0  0  0
   18.7460    0.3160  -15.3667 C   0  0  0  0  0  0  0  0  0  0  0  0
   17.5498    0.1688  -14.6960 C   0  0  0  0  0  0  0  0  0  0  0  0
   17.1515   -1.0805  -14.3222 C   0  0  0  0  0  0  0  0  0  0  0  0
   17.9012   -2.2320  -14.5866 C   0  0  0  0  0  0  0  0  0  0  0  0
   17.4267   -3.5707  -14.1600 C   0  0  0  0  0  0  0  0  0  0  0  0
   16.9690   -4.3427  -15.3793 C   0  0  2  0  0  0  0  0  0  0  0  0
   15.7512   -3.7250  -15.8632 N   0  0  0  0  0  0  0  0  0  0  0  0
   16.7084   -5.7536  -15.0938 C   0  0  0  0  0  0  0  0  0  0  0  0
   15.5495   -6.1414  -14.8267 O   0  0  0  0  0  0  0  0  0  0  0  0
   19.0908   -2.0418  -15.2591 C   0  0  0  0  0  0  0  0  0  0  0  0
   19.5249   -0.7883  -15.6530 C   0  0  0  0  0  0  0  0  0  0  0  0
   17.7190   -6.7607  -15.0976 N   0  0  0  0  0  0  0  0  0  0  0  0
   17.4457   -8.1404  -14.8417 C   0  0  1  0  0  0  0  0  0  0  0  0
   18.4480   -9.0863  -15.4324 C   0  0  0  0  0  0  0  0  0  0  0  0
   18.1480  -10.5000  -15.1990 C   0  0  0  0  0  0  0  0  0  0  0  0
   19.0156  -11.2708  -14.7444 O   0  0  0  0  0  0  0  0  0  0  0  0
   17.2578   -8.3783  -13.3895 C   0  0  0  0  0  0  0  0  0  0  0  0
   17.8461   -7.6205  -12.5792 O   0  0  0  0  0  0  0  0  0  0  0  0
   16.9042  -11.0147  -15.4743 O   0  0  0  0  0  0  0  0  0  0  0  0
   12.5687   -7.5461   -6.3491 O   0  0  0  0  0  0  0  0  0  0  0  0
   13.1981   -7.6670   -7.5917 C   0  0  0  0  0  0  0  0  0  0  0  0
   14.5311   -7.4010   -7.7750 C   0  0  0  0  0  0  0  0  0  0  0  0
   15.2022   -7.5024   -8.9708 C   0  0  0  0  0  0  0  0  0  0  0  0
   14.4736   -7.9088  -10.0946 C   0  0  0  0  0  0  0  0  0  0  0  0
   15.1499   -8.0160  -11.4059 C   0  0  0  0  0  0  0  0  0  0  0  0
   15.8058   -9.3587  -11.5921 C   0  0  2  0  0  0  0  0  0  0  0  0
   16.4346   -9.4346  -12.9219 N   0  0  0  0  0  0  0  0  0  0  0  0
   14.8518  -10.4830  -11.4788 C   0  0  0  0  0  0  0  0  0  0  0  0
   14.3929  -10.7895  -10.3543 O   0  0  0  0  0  0  0  0  0  0  0  0
   13.1158   -8.1850   -9.9334 C   0  0  0  0  0  0  0  0  0  0  0  0
   12.4826   -8.0704   -8.7159 C   0  0  0  0  0  0  0  0  0  0  0  0
   14.4302  -11.2298  -12.5694 O   0  0  0  0  0  0  0  0  0  0  0  0
  2  1  1  0
  3  2  2  0
  4  3  1  0
  5 11  1  0
  5  4  2  0
  6  5  1  0
  7  9  1  0
  7  6  1  0
  7  8  1  1
  9 10  2  0
 11 12  2  0
 12  2  1  0
 13 14  1  0
 13  9  1  0
 14 15  1  1
 15 16  1  0
 16 20  1  0
 17 16  2  0
 18 14  1  0
 19 18  2  0
 22 23  2  0
 22 21  1  0
 24 23  1  0
 25 24  2  0
 27 26  1  6
 26 25  1  0
 27 28  1  0
 28 18  1  0
 29 27  1  0
 29 33  1  0
 30 29  2  0
 31 25  1  0
 31 32  2  0
 32 22  1  0
M  END
$$$$
