YDY.pdb
     RDKit          3D

 33 34  0  0  1  0  0  0  0  0999 V2000
   21.2691   -9.4671  -26.5263 O   0  0  0  0  0  0  0  0  0  0  0  0
   20.7618   -9.1405  -25.2741 C   0  0  0  0  0  0  0  0  0  0  0  0
   21.6296   -8.6645  -24.3134 C   0  0  0  0  0  0  0  0  0  0  0  0
   21.1398   -8.3419  -23.0825 C   0  0  0  0  0  0  0  0  0  0  0  0
   19.7890   -8.4702  -22.7405 C   0  0  0  0  0  0  0  0  0  0  0  0
   19.3026   -8.1063  -21.3876 C   0  0  0  0  0  0  0  0  0  0  0  0
   19.3441   -9.3339  -20.5026 C   0  0  2  0  0  0  0  0  0  0  0  0
   18.3915  -10.2909  -21.0275 N   0  0  0  0  0  0  0  0  0  0  0  0
   19.0090   -9.0413  -19.1089 C   0  0  0  0  0  0  0  0  0  0  0  0
   17.8318   -9.1602  -18.7031 O   0  0  0  0  0  0  0  0  0  0  0  0
   18.9545   -8.9496  -23.7291 C   0  0  0  0  0  0  0  0  0  0  0  0
   19.4181   -9.2864  -24.9886 C   0  0  0  0  0  0  0  0  0  0  0  0
   19.9640   -8.6132  -18.1393 N   0  0  0  0  0  0  0  0  0  0  0  0
   19.6082   -8.2432  -16.8050 C   0  0  1  0  0  0  0  0  0  0  0  0
   18.7984   -9.2731  -16.0760 C   0  0  0  0  0  0  0  0  0  0  0  0
   18.5717   -8.9668  -14.6624 C   0  0  0  0  0  0  0  0  0  0  0  0
   18.4573   -7.7878  -14.2744 O   0  0  0  0  0  0  0  0  0  0  0  0
   20.8099   -7.8438  -16.0322 C   0  0  0  0  0  0  0  0  0  0  0  0
   21.6939   -8.7086  -15.8136 O   0  0  0  0  0  0  0  0  0  0  0  0
   18.4791   -9.9687  -13.7269 O   0  0  0  0  0  0  0  0  0  0  0  0
   20.3531   -0.2284  -16.6526 O   0  0  0  0  0  0  0  0  0  0  0  0
   20.9980   -1.4468  -16.4192 C   0  0  0  0  0  0  0  0  0  0  0  0
   22.3612   -1.5860  -16.4799 C   0  0  0  0  0  0  0  0  0  0  0  0
   23.0487   -2.7563  -16.2602 C   0  0  0  0  0  0  0  0  0  0  0  0
   22.3050   -3.9006  -15.9495 C   0  0  0  0  0  0  0  0  0  0  0  0
   23.0005   -5.1861  -15.7215 C   0  0  0  0  0  0  0  0  0  0  0  0
   22.1948   -6.1148  -14.8521 C   0  0  2  0  0  0  0  0  0  0  0  0
   20.9620   -6.5187  -15.5497 N   0  0  0  0  0  0  0  0  0  0  0  0
   21.8047   -5.5003  -13.5648 C   0  0  0  0  0  0  0  0  0  0  0  0
   20.5933   -5.2894  -13.3260 O   0  0  0  0  0  0  0  0  0  0  0  0
   20.9165   -3.7842  -15.8822 C   0  0  0  0  0  0  0  0  0  0  0  0
   20.2677   -2.5910  -16.1095 C   0  0  0  0  0  0  0  0  0  0  0  0
   22.7236   -5.1384  -12.5904 O   0  0  0  0  0  0  0  0  0  0  0  0
  2  1  1  0
  3  2  2  0
  4  3  1  0
  5 11  1  0
  5  4  2  0
  6  5  1  0
  7  9  1  0
  7  6  1  0
  7  8  1  6
  9 10  2  0
 11 12  2  0
 12  2  1  0
 13 14  1  0
 13  9  1  0
 14 15  1  1
 15 16  1  0
 16 20  1  0
 17 16  2  0
 18 14  1  0
 19 18  2  0
 22 23  2  0
 22 21  1  0
 24 23  1  0
 25 24  2  0
 27 26  1  6
 26 25  1  0
 27 28  1  0
 28 18  1  0
 29 27  1  0
 29 33  1  0
 30 29  2  0
 31 25  1  0
 31 32  2  0
 32 22  1  0
M  END
$$$$
