YDY.pdb
     RDKit          3D

 33 34  0  0  1  0  0  0  0  0999 V2000
   29.2828  -14.0009  -15.2871 O   0  0  0  0  0  0  0  0  0  0  0  0
   28.6274  -12.8530  -15.7172 C   0  0  0  0  0  0  0  0  0  0  0  0
   29.1634  -12.1418  -16.7705 C   0  0  0  0  0  0  0  0  0  0  0  0
   28.5266  -11.0147  -17.1984 C   0  0  0  0  0  0  0  0  0  0  0  0
   27.3458  -10.5378  -16.6184 C   0  0  0  0  0  0  0  0  0  0  0  0
   26.6888   -9.3060  -17.1185 C   0  0  0  0  0  0  0  0  0  0  0  0
   25.4476   -9.6905  -17.8955 C   0  0  2  0  0  0  0  0  0  0  0  0
   25.8139  -10.7402  -18.8242 N   0  0  0  0  0  0  0  0  0  0  0  0
   24.8747   -8.5704  -18.6420 C   0  0  0  0  0  0  0  0  0  0  0  0
   24.9672   -8.5279  -19.8887 O   0  0  0  0  0  0  0  0  0  0  0  0
   26.8426  -11.2777  -15.5682 C   0  0  0  0  0  0  0  0  0  0  0  0
   27.4632  -12.4259  -15.1087 C   0  0  0  0  0  0  0  0  0  0  0  0
   24.1909   -7.4788  -18.0286 N   0  0  0  0  0  0  0  0  0  0  0  0
   23.6072   -6.4070  -18.7732 C   0  0  1  0  0  0  0  0  0  0  0  0
   22.6584   -6.8486  -19.8468 C   0  0  0  0  0  0  0  0  0  0  0  0
   22.0779   -5.7510  -20.6223 C   0  0  0  0  0  0  0  0  0  0  0  0
   22.7899   -4.8167  -21.0391 O   0  0  0  0  0  0  0  0  0  0  0  0
   22.9825   -5.4148  -17.8643 C   0  0  0  0  0  0  0  0  0  0  0  0
   22.0885   -5.8080  -17.0749 O   0  0  0  0  0  0  0  0  0  0  0  0
   20.7351   -5.7210  -20.9112 O   0  0  0  0  0  0  0  0  0  0  0  0
   21.3011    1.3091  -12.5363 O   0  0  0  0  0  0  0  0  0  0  0  0
   21.8577    0.3158  -13.3477 C   0  0  0  0  0  0  0  0  0  0  0  0
   21.4156   -0.9826  -13.3366 C   0  0  0  0  0  0  0  0  0  0  0  0
   21.9236   -1.9992  -14.1106 C   0  0  0  0  0  0  0  0  0  0  0  0
   22.9756   -1.6922  -14.9812 C   0  0  0  0  0  0  0  0  0  0  0  0
   23.5651   -2.7576  -15.8213 C   0  0  0  0  0  0  0  0  0  0  0  0
   22.7083   -3.0669  -17.0204 C   0  0  2  0  0  0  0  0  0  0  0  0
   23.3814   -4.0537  -17.8822 N   0  0  0  0  0  0  0  0  0  0  0  0
   22.4201   -1.8717  -17.8423 C   0  0  0  0  0  0  0  0  0  0  0  0
   23.1945   -1.5677  -18.7786 O   0  0  0  0  0  0  0  0  0  0  0  0
   23.4429   -0.3781  -15.0103 C   0  0  0  0  0  0  0  0  0  0  0  0
   22.9045    0.6105  -14.2172 C   0  0  0  0  0  0  0  0  0  0  0  0
   21.3193   -1.0547  -17.6287 O   0  0  0  0  0  0  0  0  0  0  0  0
  2  1  1  0
  3  2  2  0
  4  3  1  0
  5 11  1  0
  5  4  2  0
  6  5  1  0
  7  9  1  0
  7  6  1  0
  7  8  1  6
  9 10  2  0
 11 12  2  0
 12  2  1  0
 13 14  1  0
 13  9  1  0
 14 15  1  6
 15 16  1  0
 16 20  1  0
 17 16  2  0
 18 14  1  0
 19 18  2  0
 22 23  2  0
 22 21  1  0
 24 23  1  0
 25 24  2  0
 27 26  1  1
 26 25  1  0
 27 28  1  0
 28 18  1  0
 29 27  1  0
 29 33  1  0
 30 29  2  0
 31 25  1  0
 31 32  2  0
 32 22  1  0
M  END
$$$$
