YDY.pdb
     RDKit          3D

 33 34  0  0  1  0  0  0  0  0999 V2000
   37.2068  -33.7014  -12.2218 O   0  0  0  0  0  0  0  0  0  0  0  0
   36.2968  -34.2934  -11.3537 C   0  0  0  0  0  0  0  0  0  0  0  0
   35.2733  -33.5224  -10.8432 C   0  0  0  0  0  0  0  0  0  0  0  0
   34.3765  -34.0956   -9.9910 C   0  0  0  0  0  0  0  0  0  0  0  0
   34.4416  -35.4387   -9.6041 C   0  0  0  0  0  0  0  0  0  0  0  0
   33.4425  -36.0181   -8.6739 C   0  0  0  0  0  0  0  0  0  0  0  0
   33.7758  -35.5864   -7.2616 C   0  0  2  0  0  0  0  0  0  0  0  0
   35.0069  -36.2453   -6.8759 N   0  0  0  0  0  0  0  0  0  0  0  0
   32.7282  -35.9302   -6.3001 C   0  0  0  0  0  0  0  0  0  0  0  0
   31.5239  -35.7464   -6.5841 O   0  0  0  0  0  0  0  0  0  0  0  0
   35.4797  -36.1750  -10.1367 C   0  0  0  0  0  0  0  0  0  0  0  0
   36.4071  -35.6251  -11.0041 C   0  0  0  0  0  0  0  0  0  0  0  0
   32.9890  -36.4818   -5.0104 N   0  0  0  0  0  0  0  0  0  0  0  0
   31.9542  -36.8285   -4.0869 C   0  0  1  0  0  0  0  0  0  0  0  0
   32.4260  -37.6147   -2.9006 C   0  0  0  0  0  0  0  0  0  0  0  0
   32.7094  -39.0219   -3.1884 C   0  0  0  0  0  0  0  0  0  0  0  0
   32.1894  -39.5911   -4.1677 O   0  0  0  0  0  0  0  0  0  0  0  0
   31.1902  -35.6246   -3.6774 C   0  0  0  0  0  0  0  0  0  0  0  0
   31.8260  -34.6348   -3.2381 O   0  0  0  0  0  0  0  0  0  0  0  0
   33.5547  -39.7518   -2.3882 O   0  0  0  0  0  0  0  0  0  0  0  0
   25.6796  -32.3932   -8.6497 O   0  0  0  0  0  0  0  0  0  0  0  0
   26.6174  -32.6045   -7.6345 C   0  0  0  0  0  0  0  0  0  0  0  0
   27.8543  -33.1479   -7.8712 C   0  0  0  0  0  0  0  0  0  0  0  0
   28.8148  -33.3782   -6.9146 C   0  0  0  0  0  0  0  0  0  0  0  0
   28.5134  -33.0332   -5.5921 C   0  0  0  0  0  0  0  0  0  0  0  0
   29.5097  -33.2782   -4.5264 C   0  0  0  0  0  0  0  0  0  0  0  0
   29.0445  -34.3283   -3.5524 C   0  0  2  0  0  0  0  0  0  0  0  0
   29.7758  -35.5868   -3.7777 N   0  0  0  0  0  0  0  0  0  0  0  0
   27.5992  -34.6186   -3.6698 C   0  0  0  0  0  0  0  0  0  0  0  0
   27.2263  -35.6537   -4.2685 O   0  0  0  0  0  0  0  0  0  0  0  0
   27.2612  -32.4789   -5.3262 C   0  0  0  0  0  0  0  0  0  0  0  0
   26.3276  -32.2650   -6.3156 C   0  0  0  0  0  0  0  0  0  0  0  0
   26.6168  -33.7922   -3.1438 O   0  0  0  0  0  0  0  0  0  0  0  0
  2  1  1  0
  3  2  2  0
  4  3  1  0
  5 11  1  0
  5  4  2  0
  6  5  1  0
  7  9  1  0
  7  6  1  0
  7  8  1  1
  9 10  2  0
 11 12  2  0
 12  2  1  0
 13 14  1  0
 13  9  1  0
 14 15  1  1
 15 16  1  0
 16 20  1  0
 17 16  2  0
 18 14  1  0
 19 18  2  0
 22 23  2  0
 22 21  1  0
 24 23  1  0
 25 24  2  0
 27 26  1  6
 26 25  1  0
 27 28  1  0
 28 18  1  0
 29 27  1  0
 29 33  1  0
 30 29  2  0
 31 25  1  0
 31 32  2  0
 32 22  1  0
M  END
$$$$
