YDY.pdb
     RDKit          3D

 33 34  0  0  1  0  0  0  0  0999 V2000
   18.8664  -13.3998  -24.7738 O   0  0  0  0  0  0  0  0  0  0  0  0
   18.6715  -12.5567  -23.6859 C   0  0  0  0  0  0  0  0  0  0  0  0
   17.6015  -12.7953  -22.8488 C   0  0  0  0  0  0  0  0  0  0  0  0
   17.4035  -11.9729  -21.7794 C   0  0  0  0  0  0  0  0  0  0  0  0
   18.2378  -10.8889  -21.4848 C   0  0  0  0  0  0  0  0  0  0  0  0
   17.9821  -10.0216  -20.3094 C   0  0  0  0  0  0  0  0  0  0  0  0
   18.8853  -10.4526  -19.1733 C   0  0  2  0  0  0  0  0  0  0  0  0
   18.4106  -11.7338  -18.6918 N   0  0  0  0  0  0  0  0  0  0  0  0
   18.8969   -9.4995  -18.0636 C   0  0  0  0  0  0  0  0  0  0  0  0
   17.8836   -9.3530  -17.3449 O   0  0  0  0  0  0  0  0  0  0  0  0
   19.2960  -10.6847  -22.3462 C   0  0  0  0  0  0  0  0  0  0  0  0
   19.5262  -11.4997  -23.4405 C   0  0  0  0  0  0  0  0  0  0  0  0
   20.0239   -8.6920  -17.7267 N   0  0  0  0  0  0  0  0  0  0  0  0
   19.9862   -7.6847  -16.7129 C   0  0  1  0  0  0  0  0  0  0  0  0
   21.1303   -7.7419  -15.7456 C   0  0  0  0  0  0  0  0  0  0  0  0
   21.1298   -6.6664  -14.7524 C   0  0  0  0  0  0  0  0  0  0  0  0
   21.3203   -5.4825  -15.0925 O   0  0  0  0  0  0  0  0  0  0  0  0
   19.8460   -6.3368  -17.3164 C   0  0  0  0  0  0  0  0  0  0  0  0
   20.5040   -6.0756  -18.3536 O   0  0  0  0  0  0  0  0  0  0  0  0
   20.9199   -6.9324  -13.4210 O   0  0  0  0  0  0  0  0  0  0  0  0
   12.5769   -4.6205  -15.9814 O   0  0  0  0  0  0  0  0  0  0  0  0
   13.8328   -4.4995  -16.5838 C   0  0  0  0  0  0  0  0  0  0  0  0
   14.5384   -5.5806  -17.0473 C   0  0  0  0  0  0  0  0  0  0  0  0
   15.7744   -5.5221  -17.6469 C   0  0  0  0  0  0  0  0  0  0  0  0
   16.3657   -4.2628  -17.7997 C   0  0  0  0  0  0  0  0  0  0  0  0
   17.7023   -4.1526  -18.4241 C   0  0  0  0  0  0  0  0  0  0  0  0
   18.7975   -4.0577  -17.3949 C   0  0  2  0  0  0  0  0  0  0  0  0
   18.9909   -5.3628  -16.7401 N   0  0  0  0  0  0  0  0  0  0  0  0
   18.5082   -3.0619  -16.3405 C   0  0  0  0  0  0  0  0  0  0  0  0
   18.3908   -3.4405  -15.1523 O   0  0  0  0  0  0  0  0  0  0  0  0
   15.6674   -3.1478  -17.3358 C   0  0  0  0  0  0  0  0  0  0  0  0
   14.4300   -3.2516  -16.7406 C   0  0  0  0  0  0  0  0  0  0  0  0
   18.3571   -1.7075  -16.6005 O   0  0  0  0  0  0  0  0  0  0  0  0
  2  1  1  0
  3  2  2  0
  4  3  1  0
  5 11  1  0
  5  4  2  0
  6  5  1  0
  7  9  1  0
  7  6  1  0
  7  8  1  1
  9 10  2  0
 11 12  2  0
 12  2  1  0
 13 14  1  0
 13  9  1  0
 14 15  1  6
 15 16  1  0
 16 20  1  0
 17 16  2  0
 18 14  1  0
 19 18  2  0
 22 23  2  0
 22 21  1  0
 24 23  1  0
 25 24  2  0
 27 26  1  6
 26 25  1  0
 27 28  1  0
 28 18  1  0
 29 27  1  0
 29 33  1  0
 30 29  2  0
 31 25  1  0
 31 32  2  0
 32 22  1  0
M  END
$$$$
