YDY.pdb
     RDKit          3D

 33 34  0  0  1  0  0  0  0  0999 V2000
   28.6177  -18.2934   -3.5177 O   0  0  0  0  0  0  0  0  0  0  0  0
   28.2549  -18.7376   -4.7839 C   0  0  0  0  0  0  0  0  0  0  0  0
   28.6441  -20.0009   -5.1774 C   0  0  0  0  0  0  0  0  0  0  0  0
   28.2921  -20.4440   -6.4179 C   0  0  0  0  0  0  0  0  0  0  0  0
   27.5492  -19.6756   -7.3209 C   0  0  0  0  0  0  0  0  0  0  0  0
   27.1899  -20.2007   -8.6605 C   0  0  0  0  0  0  0  0  0  0  0  0
   25.6911  -20.4046   -8.7239 C   0  0  2  0  0  0  0  0  0  0  0  0
   25.3444  -21.4403   -7.7722 N   0  0  0  0  0  0  0  0  0  0  0  0
   25.2274  -20.8025  -10.0532 C   0  0  0  0  0  0  0  0  0  0  0  0
   25.4520  -21.9557  -10.4825 O   0  0  0  0  0  0  0  0  0  0  0  0
   27.1797  -18.4184   -6.8890 C   0  0  0  0  0  0  0  0  0  0  0  0
   27.5199  -17.9374   -5.6370 C   0  0  0  0  0  0  0  0  0  0  0  0
   24.5091  -19.9375  -10.9315 N   0  0  0  0  0  0  0  0  0  0  0  0
   24.0840  -20.3317  -12.2384 C   0  0  1  0  0  0  0  0  0  0  0  0
   22.8430  -19.6396  -12.7167 C   0  0  0  0  0  0  0  0  0  0  0  0
   21.6165  -20.0789  -12.0490 C   0  0  0  0  0  0  0  0  0  0  0  0
   20.8797  -19.2615  -11.4636 O   0  0  0  0  0  0  0  0  0  0  0  0
   25.1943  -20.2014  -13.2136 C   0  0  0  0  0  0  0  0  0  0  0  0
   25.9100  -19.1705  -13.1695 O   0  0  0  0  0  0  0  0  0  0  0  0
   21.2451  -21.4016  -12.0493 O   0  0  0  0  0  0  0  0  0  0  0  0
   24.1743  -26.8210  -16.6866 O   0  0  0  0  0  0  0  0  0  0  0  0
   24.9715  -25.7543  -16.2603 C   0  0  0  0  0  0  0  0  0  0  0  0
   24.8533  -25.1941  -15.0139 C   0  0  0  0  0  0  0  0  0  0  0  0
   25.6081  -24.1465  -14.5414 C   0  0  0  0  0  0  0  0  0  0  0  0
   26.5759  -23.6035  -15.3944 C   0  0  0  0  0  0  0  0  0  0  0  0
   27.4003  -22.4643  -14.9350 C   0  0  0  0  0  0  0  0  0  0  0  0
   26.6526  -21.1598  -15.0178 C   0  0  2  0  0  0  0  0  0  0  0  0
   25.4460  -21.2138  -14.1748 N   0  0  0  0  0  0  0  0  0  0  0  0
   26.2269  -20.8298  -16.3951 C   0  0  0  0  0  0  0  0  0  0  0  0
   27.0947  -20.6277  -17.2754 O   0  0  0  0  0  0  0  0  0  0  0  0
   26.7149  -24.1564  -16.6676 C   0  0  0  0  0  0  0  0  0  0  0  0
   25.9370  -25.2068  -17.1010 C   0  0  0  0  0  0  0  0  0  0  0  0
   24.8953  -20.7301  -16.7715 O   0  0  0  0  0  0  0  0  0  0  0  0
  2  1  1  0
  3  2  2  0
  4  3  1  0
  5 11  1  0
  5  4  2  0
  6  5  1  0
  7  9  1  0
  7  6  1  0
  7  8  1  1
  9 10  2  0
 11 12  2  0
 12  2  1  0
 13 14  1  0
 13  9  1  0
 14 15  1  6
 15 16  1  0
 16 20  1  0
 17 16  2  0
 18 14  1  0
 19 18  2  0
 22 23  2  0
 22 21  1  0
 24 23  1  0
 25 24  2  0
 27 26  1  6
 26 25  1  0
 27 28  1  0
 28 18  1  0
 29 27  1  0
 29 33  1  0
 30 29  2  0
 31 25  1  0
 31 32  2  0
 32 22  1  0
M  END
$$$$
