YDY.pdb
     RDKit          3D

 33 34  0  0  1  0  0  0  0  0999 V2000
   15.5606  -25.2768    0.5882 O   0  0  0  0  0  0  0  0  0  0  0  0
   15.7168  -24.0474    1.2176 C   0  0  0  0  0  0  0  0  0  0  0  0
   16.3551  -24.0073    2.4397 C   0  0  0  0  0  0  0  0  0  0  0  0
   16.5123  -22.8052    3.0636 C   0  0  0  0  0  0  0  0  0  0  0  0
   16.0550  -21.5985    2.5226 C   0  0  0  0  0  0  0  0  0  0  0  0
   16.2492  -20.3145    3.2389 C   0  0  0  0  0  0  0  0  0  0  0  0
   15.1114  -20.1199    4.2183 C   0  0  2  0  0  0  0  0  0  0  0  0
   13.8954  -19.9330    3.4533 N   0  0  0  0  0  0  0  0  0  0  0  0
   15.3070  -18.9647    5.0944 C   0  0  0  0  0  0  0  0  0  0  0  0
   14.3983  -18.1167    5.2354 O   0  0  0  0  0  0  0  0  0  0  0  0
   15.4223  -21.6818    1.2994 C   0  0  0  0  0  0  0  0  0  0  0  0
   15.2459  -22.8848    0.6389 C   0  0  0  0  0  0  0  0  0  0  0  0
   16.5058  -18.7242    5.8296 N   0  0  0  0  0  0  0  0  0  0  0  0
   16.6323  -17.6758    6.7934 C   0  0  1  0  0  0  0  0  0  0  0  0
   15.5750  -17.6863    7.8564 C   0  0  0  0  0  0  0  0  0  0  0  0
   15.7101  -16.6165    8.8467 C   0  0  0  0  0  0  0  0  0  0  0  0
   15.7210  -16.8726   10.0665 O   0  0  0  0  0  0  0  0  0  0  0  0
   17.9960  -17.6605    7.3773 C   0  0  0  0  0  0  0  0  0  0  0  0
   18.1435  -18.0557    8.5601 O   0  0  0  0  0  0  0  0  0  0  0  0
   15.8282  -15.3038    8.4590 O   0  0  0  0  0  0  0  0  0  0  0  0
   21.5992   -9.8809    7.9267 O   0  0  0  0  0  0  0  0  0  0  0  0
   21.0048  -11.0866    7.5422 C   0  0  0  0  0  0  0  0  0  0  0  0
   19.7446  -11.1520    7.0047 C   0  0  0  0  0  0  0  0  0  0  0  0
   19.1108  -12.3064    6.6092 C   0  0  0  0  0  0  0  0  0  0  0  0
   19.8004  -13.5144    6.7645 C   0  0  0  0  0  0  0  0  0  0  0  0
   19.1518  -14.7836    6.3684 C   0  0  0  0  0  0  0  0  0  0  0  0
   19.8189  -15.9769    6.9998 C   0  0  2  0  0  0  0  0  0  0  0  0
   19.1098  -17.2115    6.6224 N   0  0  0  0  0  0  0  0  0  0  0  0
   19.8445  -15.9042    8.4766 C   0  0  0  0  0  0  0  0  0  0  0  0
   18.7749  -15.7209    9.1021 O   0  0  0  0  0  0  0  0  0  0  0  0
   21.0839  -13.4737    7.3093 C   0  0  0  0  0  0  0  0  0  0  0  0
   21.6819  -12.2939    7.6925 C   0  0  0  0  0  0  0  0  0  0  0  0
   21.0093  -16.0301    9.2198 O   0  0  0  0  0  0  0  0  0  0  0  0
  2  1  1  0
  3  2  2  0
  4  3  1  0
  5 11  1  0
  5  4  2  0
  6  5  1  0
  7  9  1  0
  7  6  1  0
  7  8  1  6
  9 10  2  0
 11 12  2  0
 12  2  1  0
 13 14  1  0
 13  9  1  0
 14 15  1  1
 15 16  1  0
 16 20  1  0
 17 16  2  0
 18 14  1  0
 19 18  2  0
 22 23  2  0
 22 21  1  0
 24 23  1  0
 25 24  2  0
 27 26  1  6
 26 25  1  0
 27 28  1  0
 28 18  1  0
 29 27  1  0
 29 33  1  0
 30 29  2  0
 31 25  1  0
 31 32  2  0
 32 22  1  0
M  END
$$$$
