YDY.pdb
     RDKit          3D

 33 34  0  0  1  0  0  0  0  0999 V2000
    9.6277  -13.7365  -18.4859 O   0  0  0  0  0  0  0  0  0  0  0  0
   10.5836  -14.6024  -17.9674 C   0  0  0  0  0  0  0  0  0  0  0  0
   11.7907  -14.0810  -17.5511 C   0  0  0  0  0  0  0  0  0  0  0  0
   12.7336  -14.9237  -17.0414 C   0  0  0  0  0  0  0  0  0  0  0  0
   12.5376  -16.3036  -16.9177 C   0  0  0  0  0  0  0  0  0  0  0  0
   13.5935  -17.1810  -16.3567 C   0  0  0  0  0  0  0  0  0  0  0  0
   14.3753  -17.8008  -17.4953 C   0  0  2  0  0  0  0  0  0  0  0  0
   13.5093  -18.7528  -18.1606 N   0  0  0  0  0  0  0  0  0  0  0  0
   15.5855  -18.4888  -17.0455 C   0  0  0  0  0  0  0  0  0  0  0  0
   15.5185  -19.6487  -16.5821 O   0  0  0  0  0  0  0  0  0  0  0  0
   11.3174  -16.7850  -17.3453 C   0  0  0  0  0  0  0  0  0  0  0  0
   10.3384  -15.9581  -17.8674 C   0  0  0  0  0  0  0  0  0  0  0  0
   16.8890  -17.9113  -17.0983 N   0  0  0  0  0  0  0  0  0  0  0  0
   18.0570  -18.5771  -16.6119 C   0  0  1  0  0  0  0  0  0  0  0  0
   19.3053  -17.7483  -16.6659 C   0  0  0  0  0  0  0  0  0  0  0  0
   20.5416  -18.5300  -16.7266 C   0  0  0  0  0  0  0  0  0  0  0  0
   20.7242  -19.4972  -15.9619 O   0  0  0  0  0  0  0  0  0  0  0  0
   17.8220  -19.1256  -15.2538 C   0  0  0  0  0  0  0  0  0  0  0  0
   17.4645  -18.3364  -14.3447 O   0  0  0  0  0  0  0  0  0  0  0  0
   21.5322  -18.2193  -17.6264 O   0  0  0  0  0  0  0  0  0  0  0  0
   14.1013  -23.2155   -8.7233 O   0  0  0  0  0  0  0  0  0  0  0  0
   14.6003  -22.6107   -9.8808 C   0  0  0  0  0  0  0  0  0  0  0  0
   15.0053  -21.3007   -9.9155 C   0  0  0  0  0  0  0  0  0  0  0  0
   15.5032  -20.6544  -11.0223 C   0  0  0  0  0  0  0  0  0  0  0  0
   15.6078  -21.3849  -12.2115 C   0  0  0  0  0  0  0  0  0  0  0  0
   16.1223  -20.7264  -13.4322 C   0  0  0  0  0  0  0  0  0  0  0  0
   17.5635  -21.0753  -13.6944 C   0  0  2  0  0  0  0  0  0  0  0  0
   17.9953  -20.5071  -14.9828 N   0  0  0  0  0  0  0  0  0  0  0  0
   17.8003  -22.5343  -13.7423 C   0  0  0  0  0  0  0  0  0  0  0  0
   18.1469  -23.1358  -12.6997 O   0  0  0  0  0  0  0  0  0  0  0  0
   15.2019  -22.7195  -12.2014 C   0  0  0  0  0  0  0  0  0  0  0  0
   14.7085  -23.3284  -11.0690 C   0  0  0  0  0  0  0  0  0  0  0  0
   17.6568  -23.2861  -14.8994 O   0  0  0  0  0  0  0  0  0  0  0  0
  2  1  1  0
  3  2  2  0
  4  3  1  0
  5 11  1  0
  5  4  2  0
  6  5  1  0
  7  9  1  0
  7  6  1  0
  7  8  1  1
  9 10  2  0
 11 12  2  0
 12  2  1  0
 13 14  1  0
 13  9  1  0
 14 15  1  1
 15 16  1  0
 16 20  1  0
 17 16  2  0
 18 14  1  0
 19 18  2  0
 22 23  2  0
 22 21  1  0
 24 23  1  0
 25 24  2  0
 27 26  1  6
 26 25  1  0
 27 28  1  0
 28 18  1  0
 29 27  1  0
 29 33  1  0
 30 29  2  0
 31 25  1  0
 31 32  2  0
 32 22  1  0
M  END
$$$$
