WTE.pdb
     RDKit          3D

 31 32  0  0  1  0  0  0  0  0999 V2000
   26.7019  -22.4980  -10.2255 N   0  0  0  0  0  0  0  0  0  0  0  0
   26.4868  -21.0742  -10.1384 C   0  0  1  0  0  0  0  0  0  0  0  0
   27.5280  -20.2334   -9.6478 C   0  0  0  0  0  0  0  0  0  0  0  0
   28.3610  -20.4148   -8.5160 C   0  0  0  0  0  0  0  0  0  0  0  0
   29.5869  -21.0949   -8.6568 C   0  0  0  0  0  0  0  0  0  0  0  0
   30.1780  -21.1314   -7.4615 N   0  0  0  0  0  0  0  0  0  0  0  0
   29.4323  -20.5203   -6.5194 C   0  0  0  0  0  0  0  0  0  0  0  0
   29.5709  -20.2870   -5.1797 C   0  0  0  0  0  0  0  0  0  0  0  0
   28.6074  -19.6177   -4.4734 C   0  0  0  0  0  0  0  0  0  0  0  0
   27.4969  -19.1886   -5.1548 C   0  0  0  0  0  0  0  0  0  0  0  0
   27.3234  -19.4026   -6.4904 C   0  0  0  0  0  0  0  0  0  0  0  0
   28.2906  -20.0755   -7.2053 C   0  0  0  0  0  0  0  0  0  0  0  0
   25.6468  -20.5526  -11.2844 C   0  0  0  0  0  0  0  0  0  0  0  0
   25.1617  -19.3855  -11.2255 O   0  0  0  0  0  0  0  0  0  0  0  0
   26.7052  -20.0075  -14.5937 C   0  0  0  0  0  0  0  0  0  0  0  0
   25.5124  -20.8919  -14.7253 C   0  0  1  0  0  0  0  0  0  0  0  0
   26.0171  -22.2166  -14.8044 O   0  0  0  0  0  0  0  0  0  0  0  0
   24.5547  -20.8171  -13.5314 C   0  0  2  0  0  0  0  0  0  0  0  0
   25.3876  -21.3195  -12.4114 N   0  0  0  0  0  0  0  0  0  0  0  0
   23.3965  -21.7220  -13.7174 C   0  0  0  0  0  0  0  0  0  0  0  0
   23.2200  -22.7134  -12.9488 O   0  0  0  0  0  0  0  0  0  0  0  0
   22.4775  -21.4951  -14.7448 N   0  0  0  0  0  0  0  0  0  0  0  0
   21.0258  -21.7062  -14.5948 C   0  0  1  0  0  0  0  0  0  0  0  0
   20.4727  -20.8328  -13.5162 C   0  0  0  0  0  0  0  0  0  0  0  0
   19.2589  -20.0497  -13.9118 C   0  0  0  0  0  0  0  0  0  0  0  0
   18.2853  -19.9041  -12.8082 C   0  0  0  0  0  0  0  0  0  0  0  0
   18.0989  -20.7596  -11.9058 O   0  0  0  0  0  0  0  0  0  0  0  0
   20.3505  -21.3988  -15.8789 C   0  0  0  0  0  0  0  0  0  0  0  0
   20.6965  -20.5089  -16.6857 O   0  0  0  0  0  0  0  0  0  0  0  0
   17.5065  -18.7512  -12.7364 O   0  0  0  0  0  0  0  0  0  0  0  0
   19.2218  -22.1439  -16.2631 O   0  0  0  0  0  0  0  0  0  0  0  0
  2  1  1  6
  3  2  1  0
  4  3  1  0
  4  5  2  0
  6  5  1  0
  7  6  1  0
  8  7  2  0
  9  8  1  0
 10  9  2  0
 10 11  1  0
 11 12  2  0
 12  7  1  0
 12  4  1  0
 13  2  1  0
 13 19  1  0
 14 13  2  0
 16 15  1  1
 17 16  1  0
 18 19  1  1
 18 16  1  0
 20 18  1  0
 21 20  2  0
 22 20  1  0
 23 28  1  0
 23 22  1  0
 23 24  1  1
 25 26  1  0
 25 24  1  0
 26 27  2  0
 28 31  1  0
 29 28  2  0
 30 26  1  0
M  END
$$$$
