WTE.pdb
     RDKit          3D

 31 32  0  0  1  0  0  0  0  0999 V2000
   25.9014  -22.6745  -13.7806 N   0  0  0  0  0  0  0  0  0  0  0  0
   25.4502  -21.6096  -12.9182 C   0  0  1  0  0  0  0  0  0  0  0  0
   26.1118  -20.3476  -12.9524 C   0  0  0  0  0  0  0  0  0  0  0  0
   27.4827  -20.0543  -12.7465 C   0  0  0  0  0  0  0  0  0  0  0  0
   28.1283  -19.1243  -13.5852 C   0  0  0  0  0  0  0  0  0  0  0  0
   29.3982  -19.0236  -13.1891 N   0  0  0  0  0  0  0  0  0  0  0  0
   29.6553  -19.8252  -12.1362 C   0  0  0  0  0  0  0  0  0  0  0  0
   30.7578  -20.0940  -11.3741 C   0  0  0  0  0  0  0  0  0  0  0  0
   30.7032  -20.9897  -10.3397 C   0  0  0  0  0  0  0  0  0  0  0  0
   29.5046  -21.6096  -10.0929 C   0  0  0  0  0  0  0  0  0  0  0  0
   28.3839  -21.3673  -10.8312 C   0  0  0  0  0  0  0  0  0  0  0  0
   28.4341  -20.4664  -11.8730 C   0  0  0  0  0  0  0  0  0  0  0  0
   23.9456  -21.6074  -12.7531 C   0  0  0  0  0  0  0  0  0  0  0  0
   23.2327  -22.3455  -13.4932 O   0  0  0  0  0  0  0  0  0  0  0  0
   22.5656  -20.8243   -9.0679 C   0  0  0  0  0  0  0  0  0  0  0  0
   21.7372  -20.2293  -10.1551 C   0  0  1  0  0  0  0  0  0  0  0  0
   22.2105  -18.9011  -10.3223 O   0  0  0  0  0  0  0  0  0  0  0  0
   21.8692  -20.9551  -11.4982 C   0  0  2  0  0  0  0  0  0  0  0  0
   23.3136  -20.8144  -11.8059 N   0  0  0  0  0  0  0  0  0  0  0  0
   21.0810  -20.2759  -12.5528 C   0  0  0  0  0  0  0  0  0  0  0  0
   21.5491  -19.2697  -13.1637 O   0  0  0  0  0  0  0  0  0  0  0  0
   19.8065  -20.7363  -12.8924 N   0  0  0  0  0  0  0  0  0  0  0  0
   18.9926  -20.1463  -13.9714 C   0  0  1  0  0  0  0  0  0  0  0  0
   18.2597  -21.2094  -14.7230 C   0  0  0  0  0  0  0  0  0  0  0  0
   19.1306  -22.3013  -15.2636 C   0  0  0  0  0  0  0  0  0  0  0  0
   18.3800  -23.2873  -16.0706 C   0  0  0  0  0  0  0  0  0  0  0  0
   17.1346  -23.2664  -16.2423 O   0  0  0  0  0  0  0  0  0  0  0  0
   18.0207  -19.1913  -13.3860 C   0  0  0  0  0  0  0  0  0  0  0  0
   17.8260  -19.0116  -12.1643 O   0  0  0  0  0  0  0  0  0  0  0  0
   19.0722  -24.3221  -16.6959 O   0  0  0  0  0  0  0  0  0  0  0  0
   17.2291  -18.4003  -14.2371 O   0  0  0  0  0  0  0  0  0  0  0  0
  2  1  1  6
  3  2  1  0
  4  3  1  0
  4  5  2  0
  6  5  1  0
  7  6  1  0
  8  7  2  0
  9  8  1  0
 10  9  2  0
 10 11  1  0
 11 12  2  0
 12  7  1  0
 12  4  1  0
 13  2  1  0
 13 19  1  0
 14 13  2  0
 16 15  1  1
 17 16  1  0
 18 19  1  6
 18 16  1  0
 20 18  1  0
 21 20  2  0
 22 20  1  0
 23 28  1  0
 23 22  1  0
 23 24  1  1
 25 26  1  0
 25 24  1  0
 26 27  2  0
 28 31  1  0
 29 28  2  0
 30 26  1  0
M  END
$$$$
