WTE.pdb
     RDKit          3D

 31 32  0  0  1  0  0  0  0  0999 V2000
   28.4507  -21.6044   -9.7187 N   0  0  0  0  0  0  0  0  0  0  0  0
   27.0437  -21.3018   -9.6196 C   0  0  1  0  0  0  0  0  0  0  0  0
   26.5481  -20.6269   -8.4661 C   0  0  0  0  0  0  0  0  0  0  0  0
   27.2665  -20.1030   -7.3628 C   0  0  0  0  0  0  0  0  0  0  0  0
   27.4269  -18.7090   -7.2363 C   0  0  0  0  0  0  0  0  0  0  0  0
   28.1296  -18.4736   -6.1272 N   0  0  0  0  0  0  0  0  0  0  0  0
   28.4562  -19.6177   -5.4935 C   0  0  0  0  0  0  0  0  0  0  0  0
   29.1473  -19.9277   -4.3557 C   0  0  0  0  0  0  0  0  0  0  0  0
   29.3180  -21.2282   -3.9622 C   0  0  0  0  0  0  0  0  0  0  0  0
   28.7724  -22.2112   -4.7482 C   0  0  0  0  0  0  0  0  0  0  0  0
   28.0769  -21.9408   -5.8896 C   0  0  0  0  0  0  0  0  0  0  0  0
   27.9023  -20.6334   -6.2893 C   0  0  0  0  0  0  0  0  0  0  0  0
   26.4433  -20.9326  -10.9591 C   0  0  0  0  0  0  0  0  0  0  0  0
   27.1334  -20.2835  -11.7977 O   0  0  0  0  0  0  0  0  0  0  0  0
   25.5545  -22.9667  -13.5927 C   0  0  0  0  0  0  0  0  0  0  0  0
   24.3001  -22.2184  -13.2950 C   0  0  1  0  0  0  0  0  0  0  0  0
   23.5488  -23.0497  -12.4229 O   0  0  0  0  0  0  0  0  0  0  0  0
   24.5342  -20.8775  -12.5913 C   0  0  2  0  0  0  0  0  0  0  0  0
   25.1464  -21.2861  -11.3033 N   0  0  0  0  0  0  0  0  0  0  0  0
   23.2530  -20.1848  -12.3203 C   0  0  0  0  0  0  0  0  0  0  0  0
   22.6884  -20.2870  -11.1909 O   0  0  0  0  0  0  0  0  0  0  0  0
   22.6463  -19.4048  -13.3077 N   0  0  0  0  0  0  0  0  0  0  0  0
   21.3712  -18.6917  -13.1074 C   0  0  1  0  0  0  0  0  0  0  0  0
   21.0500  -17.8391  -14.2915 C   0  0  0  0  0  0  0  0  0  0  0  0
   19.7554  -17.0933  -14.1878 C   0  0  0  0  0  0  0  0  0  0  0  0
   19.4608  -16.2853  -15.3908 C   0  0  0  0  0  0  0  0  0  0  0  0
   18.4470  -15.5540  -15.5266 O   0  0  0  0  0  0  0  0  0  0  0  0
   20.2851  -19.6793  -12.8965 C   0  0  0  0  0  0  0  0  0  0  0  0
   20.2285  -20.8166  -13.4123 O   0  0  0  0  0  0  0  0  0  0  0  0
   20.3484  -16.3157  -16.4642 O   0  0  0  0  0  0  0  0  0  0  0  0
   19.2072  -19.3537  -12.0547 O   0  0  0  0  0  0  0  0  0  0  0  0
  2  1  1  6
  3  2  1  0
  4  3  1  0
  4  5  2  0
  6  5  1  0
  7  6  1  0
  8  7  2  0
  9  8  1  0
 10  9  2  0
 10 11  1  0
 11 12  2  0
 12  7  1  0
 12  4  1  0
 13  2  1  0
 13 19  1  0
 14 13  2  0
 16 15  1  1
 17 16  1  0
 18 19  1  1
 18 16  1  0
 20 18  1  0
 21 20  2  0
 22 20  1  0
 23 28  1  0
 23 22  1  0
 23 24  1  6
 25 26  1  0
 25 24  1  0
 26 27  2  0
 28 31  1  0
 29 28  2  0
 30 26  1  0
M  END
$$$$
