WTE.pdb
     RDKit          3D

 31 32  0  0  1  0  0  0  0  0999 V2000
   21.5589  -20.7470  -15.3761 N   0  0  0  0  0  0  0  0  0  0  0  0
   21.7668  -21.7729  -14.3834 C   0  0  1  0  0  0  0  0  0  0  0  0
   23.0716  -21.9816  -13.8490 C   0  0  0  0  0  0  0  0  0  0  0  0
   24.2990  -22.1530  -14.5361 C   0  0  0  0  0  0  0  0  0  0  0  0
   25.1937  -21.0697  -14.6418 C   0  0  0  0  0  0  0  0  0  0  0  0
   26.2629  -21.4828  -15.3241 N   0  0  0  0  0  0  0  0  0  0  0  0
   26.1511  -22.7761  -15.6879 C   0  0  0  0  0  0  0  0  0  0  0  0
   26.9364  -23.6558  -16.3791 C   0  0  0  0  0  0  0  0  0  0  0  0
   26.5336  -24.9466  -16.5955 C   0  0  0  0  0  0  0  0  0  0  0  0
   25.3146  -25.3285  -16.0956 C   0  0  0  0  0  0  0  0  0  0  0  0
   24.5039  -24.4796  -15.4016 C   0  0  0  0  0  0  0  0  0  0  0  0
   24.9053  -23.1798  -15.1811 C   0  0  0  0  0  0  0  0  0  0  0  0
   20.5936  -21.8958  -13.4350 C   0  0  0  0  0  0  0  0  0  0  0  0
   20.1480  -20.8649  -12.8523 O   0  0  0  0  0  0  0  0  0  0  0  0
   17.2756  -22.6746  -14.3046 C   0  0  0  0  0  0  0  0  0  0  0  0
   17.7082  -23.7147  -13.3283 C   0  0  1  0  0  0  0  0  0  0  0  0
   18.2770  -24.7612  -14.1013 O   0  0  0  0  0  0  0  0  0  0  0  0
   18.7677  -23.2256  -12.3352 C   0  0  2  0  0  0  0  0  0  0  0  0
   19.9822  -23.1150  -13.1799 N   0  0  0  0  0  0  0  0  0  0  0  0
   19.0073  -24.2286  -11.2716 C   0  0  0  0  0  0  0  0  0  0  0  0
   19.7671  -25.2211  -11.4774 O   0  0  0  0  0  0  0  0  0  0  0  0
   18.3989  -24.0948  -10.0211 N   0  0  0  0  0  0  0  0  0  0  0  0
   18.6332  -25.0262   -8.9021 C   0  0  1  0  0  0  0  0  0  0  0  0
   18.0527  -24.4878   -7.6351 C   0  0  0  0  0  0  0  0  0  0  0  0
   18.2496  -25.3665   -6.4385 C   0  0  0  0  0  0  0  0  0  0  0  0
   17.8519  -24.7112   -5.1738 C   0  0  0  0  0  0  0  0  0  0  0  0
   17.2823  -23.5926   -5.1000 O   0  0  0  0  0  0  0  0  0  0  0  0
   18.0125  -26.3360   -9.2163 C   0  0  0  0  0  0  0  0  0  0  0  0
   16.9477  -26.5008   -9.8502 O   0  0  0  0  0  0  0  0  0  0  0  0
   18.1129  -25.3521   -3.9646 O   0  0  0  0  0  0  0  0  0  0  0  0
   18.6373  -27.5193   -8.7851 O   0  0  0  0  0  0  0  0  0  0  0  0
  2  1  1  1
  3  2  1  0
  4  3  1  0
  4  5  2  0
  6  5  1  0
  7  6  1  0
  8  7  2  0
  9  8  1  0
 10  9  2  0
 10 11  1  0
 11 12  2  0
 12  7  1  0
 12  4  1  0
 13  2  1  0
 13 19  1  0
 14 13  2  0
 16 15  1  6
 17 16  1  0
 18 19  1  6
 18 16  1  0
 20 18  1  0
 21 20  2  0
 22 20  1  0
 23 28  1  0
 23 22  1  0
 23 24  1  1
 25 26  1  0
 25 24  1  0
 26 27  2  0
 28 31  1  0
 29 28  2  0
 30 26  1  0
M  END
$$$$
