WTE.pdb
     RDKit          3D

 31 32  0  0  1  0  0  0  0  0999 V2000
   28.6062  -20.6244  -10.6665 N   0  0  0  0  0  0  0  0  0  0  0  0
   27.1969  -20.8832  -10.4985 C   0  0  1  0  0  0  0  0  0  0  0  0
   26.5849  -20.6540   -9.2317 C   0  0  0  0  0  0  0  0  0  0  0  0
   27.1511  -20.1037   -8.0551 C   0  0  0  0  0  0  0  0  0  0  0  0
   26.3885  -19.2228   -7.2629 C   0  0  0  0  0  0  0  0  0  0  0  0
   27.1369  -18.8501   -6.2234 N   0  0  0  0  0  0  0  0  0  0  0  0
   28.3575  -19.4211   -6.2596 C   0  0  0  0  0  0  0  0  0  0  0  0
   29.4688  -19.3750   -5.4650 C   0  0  0  0  0  0  0  0  0  0  0  0
   30.5942  -20.0894   -5.7784 C   0  0  0  0  0  0  0  0  0  0  0  0
   30.5703  -20.8537   -6.9172 C   0  0  0  0  0  0  0  0  0  0  0  0
   29.4808  -20.9248   -7.7342 C   0  0  0  0  0  0  0  0  0  0  0  0
   28.3458  -20.2078   -7.4226 C   0  0  0  0  0  0  0  0  0  0  0  0
   26.4000  -20.5291  -11.7356 C   0  0  0  0  0  0  0  0  0  0  0  0
   26.6593  -19.4621  -12.3641 O   0  0  0  0  0  0  0  0  0  0  0  0
   26.2889  -22.1890  -14.8235 C   0  0  0  0  0  0  0  0  0  0  0  0
   24.8698  -22.1348  -14.3702 C   0  0  1  0  0  0  0  0  0  0  0  0
   24.6319  -23.3577  -13.6891 O   0  0  0  0  0  0  0  0  0  0  0  0
   24.5754  -20.9845  -13.4015 C   0  0  2  0  0  0  0  0  0  0  0  0
   25.3827  -21.3448  -12.2103 N   0  0  0  0  0  0  0  0  0  0  0  0
   23.1429  -20.9557  -13.0251 C   0  0  0  0  0  0  0  0  0  0  0  0
   22.7158  -21.6440  -12.0511 O   0  0  0  0  0  0  0  0  0  0  0  0
   22.2381  -20.1660  -13.7388 N   0  0  0  0  0  0  0  0  0  0  0  0
   20.8189  -20.0208  -13.3654 C   0  0  1  0  0  0  0  0  0  0  0  0
   20.2032  -18.8555  -14.0690 C   0  0  0  0  0  0  0  0  0  0  0  0
   18.7920  -18.5597  -13.6641 C   0  0  0  0  0  0  0  0  0  0  0  0
   18.2275  -17.3869  -14.3662 C   0  0  0  0  0  0  0  0  0  0  0  0
   18.8786  -16.3525  -14.6613 O   0  0  0  0  0  0  0  0  0  0  0  0
   20.0885  -21.2608  -13.7239 C   0  0  0  0  0  0  0  0  0  0  0  0
   19.0894  -21.7133  -13.1241 O   0  0  0  0  0  0  0  0  0  0  0  0
   16.8853  -17.3990  -14.7392 O   0  0  0  0  0  0  0  0  0  0  0  0
   20.5195  -22.0250  -14.8224 O   0  0  0  0  0  0  0  0  0  0  0  0
  2  1  1  1
  3  2  1  0
  4  3  1  0
  4  5  2  0
  6  5  1  0
  7  6  1  0
  8  7  2  0
  9  8  1  0
 10  9  2  0
 10 11  1  0
 11 12  2  0
 12  7  1  0
 12  4  1  0
 13  2  1  0
 13 19  1  0
 14 13  2  0
 16 15  1  1
 17 16  1  0
 18 19  1  1
 18 16  1  0
 20 18  1  0
 21 20  2  0
 22 20  1  0
 23 28  1  0
 23 22  1  0
 23 24  1  6
 25 26  1  0
 25 24  1  0
 26 27  2  0
 28 31  1  0
 29 28  2  0
 30 26  1  0
M  END
$$$$
