WTE.pdb
     RDKit          3D

 31 32  0  0  1  0  0  0  0  0999 V2000
   26.1010  -22.1262   -8.5893 N   0  0  0  0  0  0  0  0  0  0  0  0
   26.6257  -20.8586   -9.0354 C   0  0  1  0  0  0  0  0  0  0  0  0
   27.9640  -20.4952   -8.7059 C   0  0  0  0  0  0  0  0  0  0  0  0
   28.6361  -20.6022   -7.4630 C   0  0  0  0  0  0  0  0  0  0  0  0
   29.6228  -21.5928   -7.2892 C   0  0  0  0  0  0  0  0  0  0  0  0
   30.1009  -21.4855   -6.0484 N   0  0  0  0  0  0  0  0  0  0  0  0
   29.5022  -20.4864   -5.3697 C   0  0  0  0  0  0  0  0  0  0  0  0
   29.6156  -19.9730   -4.1080 C   0  0  0  0  0  0  0  0  0  0  0  0
   28.8404  -18.9210   -3.6986 C   0  0  0  0  0  0  0  0  0  0  0  0
   27.9450  -18.3986   -4.5969 C   0  0  0  0  0  0  0  0  0  0  0  0
   27.8036  -18.8838   -5.8634 C   0  0  0  0  0  0  0  0  0  0  0  0
   28.5818  -19.9423   -6.2799 C   0  0  0  0  0  0  0  0  0  0  0  0
   26.1157  -20.4813  -10.4096 C   0  0  0  0  0  0  0  0  0  0  0  0
   26.9319  -20.1017  -11.2987 O   0  0  0  0  0  0  0  0  0  0  0  0
   26.2783  -21.6345  -12.8117 C   0  0  0  0  0  0  0  0  0  0  0  0
   24.8007  -21.4587  -12.9010 C   0  0  1  0  0  0  0  0  0  0  0  0
   24.2345  -22.6396  -12.3525 O   0  0  0  0  0  0  0  0  0  0  0  0
   24.2728  -20.2618  -12.1029 C   0  0  2  0  0  0  0  0  0  0  0  0
   24.7673  -20.5385  -10.7320 N   0  0  0  0  0  0  0  0  0  0  0  0
   22.7916  -20.2401  -12.0883 C   0  0  0  0  0  0  0  0  0  0  0  0
   22.1453  -20.8060  -11.1573 O   0  0  0  0  0  0  0  0  0  0  0  0
   22.0822  -19.5923  -13.1026 N   0  0  0  0  0  0  0  0  0  0  0  0
   20.6119  -19.4794  -13.1183 C   0  0  1  0  0  0  0  0  0  0  0  0
   20.1519  -18.7269  -14.3243 C   0  0  0  0  0  0  0  0  0  0  0  0
   21.1975  -18.5477  -15.3814 C   0  0  0  0  0  0  0  0  0  0  0  0
   20.6777  -17.8822  -16.5955 C   0  0  0  0  0  0  0  0  0  0  0  0
   19.4785  -17.5433  -16.7635 O   0  0  0  0  0  0  0  0  0  0  0  0
   20.0160  -20.8374  -13.1223 C   0  0  0  0  0  0  0  0  0  0  0  0
   20.5973  -21.8837  -13.4830 O   0  0  0  0  0  0  0  0  0  0  0  0
   21.5520  -17.5983  -17.6423 O   0  0  0  0  0  0  0  0  0  0  0  0
   18.6884  -21.0120  -12.6937 O   0  0  0  0  0  0  0  0  0  0  0  0
  2  1  1  6
  3  2  1  0
  4  3  1  0
  4  5  2  0
  6  5  1  0
  7  6  1  0
  8  7  2  0
  9  8  1  0
 10  9  2  0
 10 11  1  0
 11 12  2  0
 12  7  1  0
 12  4  1  0
 13  2  1  0
 13 19  1  0
 14 13  2  0
 16 15  1  1
 17 16  1  0
 18 19  1  1
 18 16  1  0
 20 18  1  0
 21 20  2  0
 22 20  1  0
 23 28  1  0
 23 22  1  0
 23 24  1  6
 25 26  1  0
 25 24  1  0
 26 27  2  0
 28 31  1  0
 29 28  2  0
 30 26  1  0
M  END
$$$$
