WTE.pdb
     RDKit          3D

 31 32  0  0  1  0  0  0  0  0999 V2000
   28.4721  -20.2986  -15.3623 N   0  0  0  0  0  0  0  0  0  0  0  0
   27.2319  -19.7083  -14.9211 C   0  0  1  0  0  0  0  0  0  0  0  0
   26.5606  -18.7711  -15.7594 C   0  0  0  0  0  0  0  0  0  0  0  0
   27.0829  -17.6296  -16.4166 C   0  0  0  0  0  0  0  0  0  0  0  0
   27.5306  -17.7380  -17.7481 C   0  0  0  0  0  0  0  0  0  0  0  0
   27.9687  -16.5388  -18.1349 N   0  0  0  0  0  0  0  0  0  0  0  0
   27.8471  -15.6244  -17.1518 C   0  0  0  0  0  0  0  0  0  0  0  0
   28.1384  -14.2946  -17.0289 C   0  0  0  0  0  0  0  0  0  0  0  0
   27.8937  -13.6203  -15.8625 C   0  0  0  0  0  0  0  0  0  0  0  0
   27.3461  -14.3237  -14.8198 C   0  0  0  0  0  0  0  0  0  0  0  0
   27.0422  -15.6503  -14.9049 C   0  0  0  0  0  0  0  0  0  0  0  0
   27.2865  -16.3329  -16.0770 C   0  0  0  0  0  0  0  0  0  0  0  0
   26.3797  -20.6862  -14.1411 C   0  0  0  0  0  0  0  0  0  0  0  0
   26.3821  -21.9111  -14.4579 O   0  0  0  0  0  0  0  0  0  0  0  0
   26.5707  -21.7152  -10.8958 C   0  0  0  0  0  0  0  0  0  0  0  0
   25.1490  -21.2763  -10.9868 C   0  0  1  0  0  0  0  0  0  0  0  0
   25.1077  -19.9724  -10.4263 O   0  0  0  0  0  0  0  0  0  0  0  0
   24.6194  -21.1952  -12.4224 C   0  0  2  0  0  0  0  0  0  0  0  0
   25.5867  -20.2807  -13.0771 N   0  0  0  0  0  0  0  0  0  0  0  0
   23.2712  -20.5824  -12.4612 C   0  0  0  0  0  0  0  0  0  0  0  0
   23.1291  -19.3452  -12.6933 O   0  0  0  0  0  0  0  0  0  0  0  0
   22.1320  -21.3613  -12.2435 N   0  0  0  0  0  0  0  0  0  0  0  0
   20.7589  -20.8301  -12.3276 C   0  0  1  0  0  0  0  0  0  0  0  0
   20.4164  -20.4694  -13.7364 C   0  0  0  0  0  0  0  0  0  0  0  0
   19.4017  -21.3647  -14.3781 C   0  0  0  0  0  0  0  0  0  0  0  0
   18.5221  -20.6477  -15.3263 C   0  0  0  0  0  0  0  0  0  0  0  0
   18.5647  -20.7797  -16.5761 O   0  0  0  0  0  0  0  0  0  0  0  0
   19.8066  -21.8525  -11.8305 C   0  0  0  0  0  0  0  0  0  0  0  0
   18.6252  -21.6359  -11.4839 O   0  0  0  0  0  0  0  0  0  0  0  0
   17.5710  -19.7580  -14.8316 O   0  0  0  0  0  0  0  0  0  0  0  0
   20.2224  -23.1912  -11.7219 O   0  0  0  0  0  0  0  0  0  0  0  0
  2  1  1  6
  3  2  1  0
  4  3  1  0
  4  5  2  0
  6  5  1  0
  7  6  1  0
  8  7  2  0
  9  8  1  0
 10  9  2  0
 10 11  1  0
 11 12  2  0
 12  7  1  0
 12  4  1  0
 13  2  1  0
 13 19  1  0
 14 13  2  0
 16 15  1  6
 17 16  1  0
 18 19  1  6
 18 16  1  0
 20 18  1  0
 21 20  2  0
 22 20  1  0
 23 28  1  0
 23 22  1  0
 23 24  1  6
 25 26  1  0
 25 24  1  0
 26 27  2  0
 28 31  1  0
 29 28  2  0
 30 26  1  0
M  END
$$$$
