WTE.pdb
     RDKit          3D

 31 32  0  0  1  0  0  0  0  0999 V2000
   21.5081  -21.9308  -15.7916 N   0  0  0  0  0  0  0  0  0  0  0  0
   21.7667  -22.7164  -14.6096 C   0  0  1  0  0  0  0  0  0  0  0  0
   23.0796  -22.7435  -14.0554 C   0  0  0  0  0  0  0  0  0  0  0  0
   24.3272  -22.8189  -14.7230 C   0  0  0  0  0  0  0  0  0  0  0  0
   24.9988  -21.6322  -15.0776 C   0  0  0  0  0  0  0  0  0  0  0  0
   26.1376  -21.9686  -15.6855 N   0  0  0  0  0  0  0  0  0  0  0  0
   26.2815  -23.3065  -15.7662 C   0  0  0  0  0  0  0  0  0  0  0  0
   27.2313  -24.1462  -16.2772 C   0  0  0  0  0  0  0  0  0  0  0  0
   27.0870  -25.5061  -16.2067 C   0  0  0  0  0  0  0  0  0  0  0  0
   25.9566  -25.9991  -15.6059 C   0  0  0  0  0  0  0  0  0  0  0  0
   24.9878  -25.1932  -15.0849 C   0  0  0  0  0  0  0  0  0  0  0  0
   25.1290  -23.8239  -15.1533 C   0  0  0  0  0  0  0  0  0  0  0  0
   20.5998  -22.6985  -13.6457 C   0  0  0  0  0  0  0  0  0  0  0  0
   20.2369  -21.6059  -13.1209 O   0  0  0  0  0  0  0  0  0  0  0  0
   17.1599  -24.0143  -14.2580 C   0  0  0  0  0  0  0  0  0  0  0  0
   17.7132  -24.6725  -13.0403 C   0  0  1  0  0  0  0  0  0  0  0  0
   18.3028  -25.8844  -13.4870 O   0  0  0  0  0  0  0  0  0  0  0  0
   18.7941  -23.8493  -12.3317 C   0  0  2  0  0  0  0  0  0  0  0  0
   19.9056  -23.8533  -13.3141 N   0  0  0  0  0  0  0  0  0  0  0  0
   19.2447  -24.5162  -11.0879 C   0  0  0  0  0  0  0  0  0  0  0  0
   20.3987  -25.0331  -11.0125 O   0  0  0  0  0  0  0  0  0  0  0  0
   18.4028  -24.5845   -9.9752 N   0  0  0  0  0  0  0  0  0  0  0  0
   18.7478  -25.3150   -8.7415 C   0  0  1  0  0  0  0  0  0  0  0  0
   18.9465  -24.3675   -7.6035 C   0  0  0  0  0  0  0  0  0  0  0  0
   19.3357  -25.0195   -6.3126 C   0  0  0  0  0  0  0  0  0  0  0  0
   18.2513  -24.9944   -5.3075 C   0  0  0  0  0  0  0  0  0  0  0  0
   17.2266  -24.2696   -5.3835 O   0  0  0  0  0  0  0  0  0  0  0  0
   17.6573  -26.2649   -8.4131 C   0  0  0  0  0  0  0  0  0  0  0  0
   17.7833  -27.3079   -7.7356 O   0  0  0  0  0  0  0  0  0  0  0  0
   18.3425  -25.8191   -4.1883 O   0  0  0  0  0  0  0  0  0  0  0  0
   16.3558  -26.0136   -8.8818 O   0  0  0  0  0  0  0  0  0  0  0  0
  2  1  1  1
  3  2  1  0
  4  3  1  0
  4  5  2  0
  6  5  1  0
  7  6  1  0
  8  7  2  0
  9  8  1  0
 10  9  2  0
 10 11  1  0
 11 12  2  0
 12  7  1  0
 12  4  1  0
 13  2  1  0
 13 19  1  0
 14 13  2  0
 16 15  1  6
 17 16  1  0
 18 19  1  6
 18 16  1  0
 20 18  1  0
 21 20  2  0
 22 20  1  0
 23 28  1  0
 23 22  1  0
 23 24  1  1
 25 26  1  0
 25 24  1  0
 26 27  2  0
 28 31  1  0
 29 28  2  0
 30 26  1  0
M  END
$$$$
