WTE.pdb
     RDKit          3D

 31 32  0  0  1  0  0  0  0  0999 V2000
   26.8634  -22.4123   -9.5386 N   0  0  0  0  0  0  0  0  0  0  0  0
   26.6330  -20.9885   -9.5112 C   0  0  1  0  0  0  0  0  0  0  0  0
   27.5655  -20.1368   -8.8503 C   0  0  0  0  0  0  0  0  0  0  0  0
   28.4443  -20.4380   -7.7803 C   0  0  0  0  0  0  0  0  0  0  0  0
   29.5678  -21.2560   -8.0126 C   0  0  0  0  0  0  0  0  0  0  0  0
   30.2285  -21.3858   -6.8610 N   0  0  0  0  0  0  0  0  0  0  0  0
   29.6258  -20.7090   -5.8631 C   0  0  0  0  0  0  0  0  0  0  0  0
   29.8803  -20.5200   -4.5335 C   0  0  0  0  0  0  0  0  0  0  0  0
   29.0532  -19.7549   -3.7552 C   0  0  0  0  0  0  0  0  0  0  0  0
   27.9592  -19.1836   -4.3541 C   0  0  0  0  0  0  0  0  0  0  0  0
   27.6728  -19.3494   -5.6770 C   0  0  0  0  0  0  0  0  0  0  0  0
   28.5026  -20.1183   -6.4641 C   0  0  0  0  0  0  0  0  0  0  0  0
   26.0146  -20.4853  -10.7978 C   0  0  0  0  0  0  0  0  0  0  0  0
   26.6066  -19.5919  -11.4702 O   0  0  0  0  0  0  0  0  0  0  0  0
   25.9202  -21.7817  -13.8037 C   0  0  0  0  0  0  0  0  0  0  0  0
   24.4695  -21.5856  -13.5225 C   0  0  1  0  0  0  0  0  0  0  0  0
   24.0125  -22.8087  -12.9647 O   0  0  0  0  0  0  0  0  0  0  0  0
   24.1823  -20.4660  -12.5164 C   0  0  2  0  0  0  0  0  0  0  0  0
   24.8064  -20.9766  -11.2712 N   0  0  0  0  0  0  0  0  0  0  0  0
   22.7260  -20.3045  -12.2973 C   0  0  0  0  0  0  0  0  0  0  0  0
   22.1467  -20.8949  -11.3378 O   0  0  0  0  0  0  0  0  0  0  0  0
   21.9669  -19.4955  -13.1462 N   0  0  0  0  0  0  0  0  0  0  0  0
   20.5568  -19.1490  -12.8887 C   0  0  1  0  0  0  0  0  0  0  0  0
   20.0140  -18.2913  -13.9850 C   0  0  0  0  0  0  0  0  0  0  0  0
   19.3015  -19.0425  -15.0671 C   0  0  0  0  0  0  0  0  0  0  0  0
   18.7934  -18.1598  -16.1392 C   0  0  0  0  0  0  0  0  0  0  0  0
   19.5220  -17.5114  -16.9328 O   0  0  0  0  0  0  0  0  0  0  0  0
   19.7566  -20.3936  -12.7885 C   0  0  0  0  0  0  0  0  0  0  0  0
   19.9855  -21.4551  -13.4078 O   0  0  0  0  0  0  0  0  0  0  0  0
   17.4178  -18.0161  -16.3067 O   0  0  0  0  0  0  0  0  0  0  0  0
   18.6369  -20.4302  -11.9390 O   0  0  0  0  0  0  0  0  0  0  0  0
  2  1  1  6
  3  2  1  0
  4  3  1  0
  4  5  2  0
  6  5  1  0
  7  6  1  0
  8  7  2  0
  9  8  1  0
 10  9  2  0
 10 11  1  0
 11 12  2  0
 12  7  1  0
 12  4  1  0
 13  2  1  0
 13 19  1  0
 14 13  2  0
 16 15  1  1
 17 16  1  0
 18 19  1  1
 18 16  1  0
 20 18  1  0
 21 20  2  0
 22 20  1  0
 23 28  1  0
 23 22  1  0
 23 24  1  6
 25 26  1  0
 25 24  1  0
 26 27  2  0
 28 31  1  0
 29 28  2  0
 30 26  1  0
M  END
$$$$
