WTE.pdb
     RDKit          3D

 31 32  0  0  1  0  0  0  0  0999 V2000
   27.8151  -21.3790   -9.4108 N   0  0  0  0  0  0  0  0  0  0  0  0
   26.5479  -20.7674   -9.0921 C   0  0  1  0  0  0  0  0  0  0  0  0
   26.4770  -19.7949   -8.0524 C   0  0  0  0  0  0  0  0  0  0  0  0
   27.4586  -19.4431   -7.0929 C   0  0  0  0  0  0  0  0  0  0  0  0
   28.0906  -18.1865   -7.1734 C   0  0  0  0  0  0  0  0  0  0  0  0
   28.9616  -18.0975   -6.1669 N   0  0  0  0  0  0  0  0  0  0  0  0
   28.9612  -19.2126   -5.4093 C   0  0  0  0  0  0  0  0  0  0  0  0
   29.6422  -19.6250   -4.2983 C   0  0  0  0  0  0  0  0  0  0  0  0
   29.4145  -20.8562   -3.7437 C   0  0  0  0  0  0  0  0  0  0  0  0
   28.4795  -21.6634   -4.3404 C   0  0  0  0  0  0  0  0  0  0  0  0
   27.7806  -21.2867   -5.4491 C   0  0  0  0  0  0  0  0  0  0  0  0
   28.0063  -20.0484   -6.0105 C   0  0  0  0  0  0  0  0  0  0  0  0
   25.6984  -20.5390  -10.3238 C   0  0  0  0  0  0  0  0  0  0  0  0
   24.6419  -19.8482  -10.2373 O   0  0  0  0  0  0  0  0  0  0  0  0
   27.3393  -19.5458  -13.5724 C   0  0  0  0  0  0  0  0  0  0  0  0
   26.3583  -20.6323  -13.8542 C   0  0  1  0  0  0  0  0  0  0  0  0
   27.1082  -21.8378  -13.8752 O   0  0  0  0  0  0  0  0  0  0  0  0
   25.2662  -20.7688  -12.7880 C   0  0  2  0  0  0  0  0  0  0  0  0
   26.0430  -21.0671  -11.5598 N   0  0  0  0  0  0  0  0  0  0  0  0
   24.3700  -21.9108  -13.0835 C   0  0  0  0  0  0  0  0  0  0  0  0
   24.7047  -23.0928  -12.7746 O   0  0  0  0  0  0  0  0  0  0  0  0
   23.1378  -21.7018  -13.7078 N   0  0  0  0  0  0  0  0  0  0  0  0
   22.1144  -22.7534  -13.8533 C   0  0  1  0  0  0  0  0  0  0  0  0
   20.7507  -22.1530  -13.9637 C   0  0  0  0  0  0  0  0  0  0  0  0
   20.5489  -21.2859  -15.1680 C   0  0  0  0  0  0  0  0  0  0  0  0
   19.1712  -20.7583  -15.2708 C   0  0  0  0  0  0  0  0  0  0  0  0
   18.2351  -21.0541  -14.4850 O   0  0  0  0  0  0  0  0  0  0  0  0
   22.4044  -23.5551  -15.0667 C   0  0  0  0  0  0  0  0  0  0  0  0
   23.1706  -23.2159  -15.9944 O   0  0  0  0  0  0  0  0  0  0  0  0
   18.8579  -19.8708  -16.2979 O   0  0  0  0  0  0  0  0  0  0  0  0
   21.7888  -24.8083  -15.2320 O   0  0  0  0  0  0  0  0  0  0  0  0
  2  1  1  6
  3  2  1  0
  4  3  1  0
  4  5  2  0
  6  5  1  0
  7  6  1  0
  8  7  2  0
  9  8  1  0
 10  9  2  0
 10 11  1  0
 11 12  2  0
 12  7  1  0
 12  4  1  0
 13  2  1  0
 13 19  1  0
 14 13  2  0
 16 15  1  1
 17 16  1  0
 18 19  1  1
 18 16  1  0
 20 18  1  0
 21 20  2  0
 22 20  1  0
 23 28  1  0
 23 22  1  0
 23 24  1  6
 25 26  1  0
 25 24  1  0
 26 27  2  0
 28 31  1  0
 29 28  2  0
 30 26  1  0
M  END
$$$$
