WTE.pdb
     RDKit          3D

 31 32  0  0  1  0  0  0  0  0999 V2000
   14.3305  -15.3491    4.6699 N   0  0  0  0  0  0  0  0  0  0  0  0
   15.5405  -16.1283    4.5705 C   0  0  1  0  0  0  0  0  0  0  0  0
   16.7656  -15.5927    5.0645 C   0  0  0  0  0  0  0  0  0  0  0  0
   17.5276  -14.5061    4.5679 C   0  0  0  0  0  0  0  0  0  0  0  0
   17.4629  -13.2573    5.2171 C   0  0  0  0  0  0  0  0  0  0  0  0
   18.2630  -12.4118    4.5656 N   0  0  0  0  0  0  0  0  0  0  0  0
   18.8658  -13.0064    3.5167 C   0  0  0  0  0  0  0  0  0  0  0  0
   19.7487  -12.6024    2.5545 C   0  0  0  0  0  0  0  0  0  0  0  0
   20.1895  -13.4676    1.5889 C   0  0  0  0  0  0  0  0  0  0  0  0
   19.7155  -14.7545    1.6184 C   0  0  0  0  0  0  0  0  0  0  0  0
   18.8345  -15.1939    2.5620 C   0  0  0  0  0  0  0  0  0  0  0  0
   18.3884  -14.3267    3.5359 C   0  0  0  0  0  0  0  0  0  0  0  0
   15.2871  -17.6057    4.7801 C   0  0  0  0  0  0  0  0  0  0  0  0
   14.4536  -17.9808    5.6550 O   0  0  0  0  0  0  0  0  0  0  0  0
   14.6605  -20.2504    1.9672 C   0  0  0  0  0  0  0  0  0  0  0  0
   15.8177  -20.6005    2.8392 C   0  0  1  0  0  0  0  0  0  0  0  0
   16.9611  -20.0385    2.2125 O   0  0  0  0  0  0  0  0  0  0  0  0
   15.7190  -20.0244    4.2557 C   0  0  2  0  0  0  0  0  0  0  0  0
   15.9450  -18.5748    4.0362 N   0  0  0  0  0  0  0  0  0  0  0  0
   16.7941  -20.5559    5.1253 C   0  0  0  0  0  0  0  0  0  0  0  0
   17.9353  -20.0067    5.1525 O   0  0  0  0  0  0  0  0  0  0  0  0
   16.5657  -21.6731    5.9325 N   0  0  0  0  0  0  0  0  0  0  0  0
   17.5935  -22.2623    6.8105 C   0  0  1  0  0  0  0  0  0  0  0  0
   16.9725  -23.1893    7.8040 C   0  0  0  0  0  0  0  0  0  0  0  0
   17.9264  -23.7459    8.8156 C   0  0  0  0  0  0  0  0  0  0  0  0
   17.2770  -24.6734    9.7670 C   0  0  0  0  0  0  0  0  0  0  0  0
   17.2216  -24.4945   11.0104 O   0  0  0  0  0  0  0  0  0  0  0  0
   18.5767  -23.0045    5.9848 C   0  0  0  0  0  0  0  0  0  0  0  0
   19.7599  -23.2460    6.3077 O   0  0  0  0  0  0  0  0  0  0  0  0
   16.6766  -25.8337    9.2828 O   0  0  0  0  0  0  0  0  0  0  0  0
   18.1917  -23.4963    4.7252 O   0  0  0  0  0  0  0  0  0  0  0  0
  2  1  1  1
  3  2  1  0
  4  3  1  0
  4  5  2  0
  6  5  1  0
  7  6  1  0
  8  7  2  0
  9  8  1  0
 10  9  2  0
 10 11  1  0
 11 12  2  0
 12  7  1  0
 12  4  1  0
 13  2  1  0
 13 19  1  0
 14 13  2  0
 16 15  1  6
 17 16  1  0
 18 19  1  6
 18 16  1  0
 20 18  1  0
 21 20  2  0
 22 20  1  0
 23 28  1  0
 23 22  1  0
 23 24  1  1
 25 26  1  0
 25 24  1  0
 26 27  2  0
 28 31  1  0
 29 28  2  0
 30 26  1  0
M  END
$$$$
