WTE.pdb
     RDKit          3D

 31 32  0  0  1  0  0  0  0  0999 V2000
   27.7808  -22.6233  -11.7854 N   0  0  0  0  0  0  0  0  0  0  0  0
   26.8746  -21.5588  -11.4292 C   0  0  1  0  0  0  0  0  0  0  0  0
   27.3481  -20.4613  -10.6527 C   0  0  0  0  0  0  0  0  0  0  0  0
   28.1542  -20.4761   -9.4875 C   0  0  0  0  0  0  0  0  0  0  0  0
   29.4824  -20.9395   -9.5669 C   0  0  0  0  0  0  0  0  0  0  0  0
   30.0233  -20.8518   -8.3506 N   0  0  0  0  0  0  0  0  0  0  0  0
   29.1477  -20.3590   -7.4517 C   0  0  0  0  0  0  0  0  0  0  0  0
   29.1914  -20.0799   -6.1143 C   0  0  0  0  0  0  0  0  0  0  0  0
   28.1010  -19.5715   -5.4604 C   0  0  0  0  0  0  0  0  0  0  0  0
   26.9617  -19.3513   -6.1919 C   0  0  0  0  0  0  0  0  0  0  0  0
   26.8802  -19.6173   -7.5269 C   0  0  0  0  0  0  0  0  0  0  0  0
   27.9753  -20.1288   -8.1893 C   0  0  0  0  0  0  0  0  0  0  0  0
   25.8831  -21.2597  -12.5331 C   0  0  0  0  0  0  0  0  0  0  0  0
   26.3026  -20.9207  -13.6775 O   0  0  0  0  0  0  0  0  0  0  0  0
   24.2191  -23.2729  -14.4270 C   0  0  0  0  0  0  0  0  0  0  0  0
   23.1073  -22.4568  -13.8613 C   0  0  1  0  0  0  0  0  0  0  0  0
   22.6454  -23.1657  -12.7210 O   0  0  0  0  0  0  0  0  0  0  0  0
   23.5376  -21.0570  -13.4102 C   0  0  2  0  0  0  0  0  0  0  0  0
   24.5131  -21.3462  -12.3306 N   0  0  0  0  0  0  0  0  0  0  0  0
   22.3956  -20.3035  -12.8420 C   0  0  0  0  0  0  0  0  0  0  0  0
   22.0650  -20.4481  -11.6277 O   0  0  0  0  0  0  0  0  0  0  0  0
   21.6643  -19.4183  -13.6377 N   0  0  0  0  0  0  0  0  0  0  0  0
   20.4926  -18.6680  -13.1489 C   0  0  1  0  0  0  0  0  0  0  0  0
   19.9335  -17.7984  -14.2274 C   0  0  0  0  0  0  0  0  0  0  0  0
   19.3108  -18.5443  -15.3671 C   0  0  0  0  0  0  0  0  0  0  0  0
   19.2255  -17.7367  -16.6030 C   0  0  0  0  0  0  0  0  0  0  0  0
   19.6592  -16.5620  -16.7172 O   0  0  0  0  0  0  0  0  0  0  0  0
   19.4544  -19.6234  -12.6922 C   0  0  0  0  0  0  0  0  0  0  0  0
   19.3145  -20.7950  -13.1051 O   0  0  0  0  0  0  0  0  0  0  0  0
   18.6290  -18.2874  -17.7352 O   0  0  0  0  0  0  0  0  0  0  0  0
   18.5268  -19.2227  -11.7145 O   0  0  0  0  0  0  0  0  0  0  0  0
  2  1  1  6
  3  2  1  0
  4  3  1  0
  4  5  2  0
  6  5  1  0
  7  6  1  0
  8  7  2  0
  9  8  1  0
 10  9  2  0
 10 11  1  0
 11 12  2  0
 12  7  1  0
 12  4  1  0
 13  2  1  0
 13 19  1  0
 14 13  2  0
 16 15  1  1
 17 16  1  0
 18 19  1  1
 18 16  1  0
 20 18  1  0
 21 20  2  0
 22 20  1  0
 23 28  1  0
 23 22  1  0
 23 24  1  6
 25 26  1  0
 25 24  1  0
 26 27  2  0
 28 31  1  0
 29 28  2  0
 30 26  1  0
M  END
$$$$
