WTE.pdb
     RDKit          3D

 31 32  0  0  1  0  0  0  0  0999 V2000
   28.1416  -20.9131  -10.0179 N   0  0  0  0  0  0  0  0  0  0  0  0
   26.7584  -20.9119   -9.6081 C   0  0  1  0  0  0  0  0  0  0  0  0
   26.3972  -20.3470   -8.3502 C   0  0  0  0  0  0  0  0  0  0  0  0
   27.2290  -19.7561   -7.3669 C   0  0  0  0  0  0  0  0  0  0  0  0
   27.5189  -18.3791   -7.4378 C   0  0  0  0  0  0  0  0  0  0  0  0
   28.3101  -18.0707   -6.4090 N   0  0  0  0  0  0  0  0  0  0  0  0
   28.5755  -19.1495   -5.6453 C   0  0  0  0  0  0  0  0  0  0  0  0
   29.3091  -19.3745   -4.5141 C   0  0  0  0  0  0  0  0  0  0  0  0
   29.3902  -20.6236   -3.9588 C   0  0  0  0  0  0  0  0  0  0  0  0
   28.7106  -21.6432   -4.5756 C   0  0  0  0  0  0  0  0  0  0  0  0
   27.9689  -21.4572   -5.7047 C   0  0  0  0  0  0  0  0  0  0  0  0
   27.8841  -20.2018   -6.2669 C   0  0  0  0  0  0  0  0  0  0  0  0
   25.8180  -20.6872  -10.7726 C   0  0  0  0  0  0  0  0  0  0  0  0
   25.3673  -19.5270  -10.9996 O   0  0  0  0  0  0  0  0  0  0  0  0
   24.5905  -22.5390  -15.1566 C   0  0  0  0  0  0  0  0  0  0  0  0
   25.2648  -22.5037  -13.8276 C   0  0  1  0  0  0  0  0  0  0  0  0
   26.6107  -22.1310  -14.0839 O   0  0  0  0  0  0  0  0  0  0  0  0
   24.6633  -21.4809  -12.8579 C   0  0  2  0  0  0  0  0  0  0  0  0
   25.4289  -21.7226  -11.6105 N   0  0  0  0  0  0  0  0  0  0  0  0
   23.2299  -21.7594  -12.6081 C   0  0  0  0  0  0  0  0  0  0  0  0
   22.8772  -22.7403  -11.8883 O   0  0  0  0  0  0  0  0  0  0  0  0
   22.2419  -20.9419  -13.1623 N   0  0  0  0  0  0  0  0  0  0  0  0
   20.7978  -21.1940  -13.0023 C   0  0  1  0  0  0  0  0  0  0  0  0
   20.0048  -19.9849  -13.3786 C   0  0  0  0  0  0  0  0  0  0  0  0
   18.5237  -20.1381  -13.2174 C   0  0  0  0  0  0  0  0  0  0  0  0
   17.7685  -18.9677  -13.7144 C   0  0  0  0  0  0  0  0  0  0  0  0
   17.9085  -18.4633  -14.8577 O   0  0  0  0  0  0  0  0  0  0  0  0
   20.4013  -22.3359  -13.8615 C   0  0  0  0  0  0  0  0  0  0  0  0
   20.8610  -22.5830  -14.9974 O   0  0  0  0  0  0  0  0  0  0  0  0
   16.8307  -18.3604  -12.8823 O   0  0  0  0  0  0  0  0  0  0  0  0
   19.4301  -23.2430  -13.4026 O   0  0  0  0  0  0  0  0  0  0  0  0
  2  1  1  6
  3  2  1  0
  4  3  1  0
  4  5  2  0
  6  5  1  0
  7  6  1  0
  8  7  2  0
  9  8  1  0
 10  9  2  0
 10 11  1  0
 11 12  2  0
 12  7  1  0
 12  4  1  0
 13  2  1  0
 13 19  1  0
 14 13  2  0
 16 15  1  6
 17 16  1  0
 18 19  1  1
 18 16  1  0
 20 18  1  0
 21 20  2  0
 22 20  1  0
 23 28  1  0
 23 22  1  0
 23 24  1  6
 25 26  1  0
 25 24  1  0
 26 27  2  0
 28 31  1  0
 29 28  2  0
 30 26  1  0
M  END
$$$$
