WTE.pdb
     RDKit          3D

 31 32  0  0  1  0  0  0  0  0999 V2000
   15.4609  -15.6420    5.3854 N   0  0  0  0  0  0  0  0  0  0  0  0
   16.6488  -16.3175    5.8480 C   0  0  1  0  0  0  0  0  0  0  0  0
   17.7129  -15.5597    6.4181 C   0  0  0  0  0  0  0  0  0  0  0  0
   18.3102  -14.3655    5.9437 C   0  0  0  0  0  0  0  0  0  0  0  0
   17.6398  -13.5888    4.9781 C   0  0  0  0  0  0  0  0  0  0  0  0
   18.3998  -12.5278    4.7020 N   0  0  0  0  0  0  0  0  0  0  0  0
   19.5421  -12.5349    5.4177 C   0  0  0  0  0  0  0  0  0  0  0  0
   20.6290  -11.7111    5.5095 C   0  0  0  0  0  0  0  0  0  0  0  0
   21.6669  -11.9986    6.3553 C   0  0  0  0  0  0  0  0  0  0  0  0
   21.5804  -13.1419    7.1084 C   0  0  0  0  0  0  0  0  0  0  0  0
   20.5127  -13.9877    7.0440 C   0  0  0  0  0  0  0  0  0  0  0  0
   19.4658  -13.7023    6.1944 C   0  0  0  0  0  0  0  0  0  0  0  0
   16.3359  -17.6622    6.4683 C   0  0  0  0  0  0  0  0  0  0  0  0
   15.7202  -17.7151    7.5724 O   0  0  0  0  0  0  0  0  0  0  0  0
   14.3318  -20.4135    5.1759 C   0  0  0  0  0  0  0  0  0  0  0  0
   15.7032  -20.9415    5.4259 C   0  0  1  0  0  0  0  0  0  0  0  0
   16.4029  -20.8041    4.1980 O   0  0  0  0  0  0  0  0  0  0  0  0
   16.4741  -20.1704    6.5026 C   0  0  2  0  0  0  0  0  0  0  0  0
   16.7052  -18.8534    5.8601 N   0  0  0  0  0  0  0  0  0  0  0  0
   17.7814  -20.8079    6.7843 C   0  0  0  0  0  0  0  0  0  0  0  0
   18.8288  -20.4307    6.1798 O   0  0  0  0  0  0  0  0  0  0  0  0
   17.8805  -21.8365    7.7243 N   0  0  0  0  0  0  0  0  0  0  0  0
   19.1560  -22.4798    8.0902 C   0  0  1  0  0  0  0  0  0  0  0  0
   19.1841  -22.8083    9.5474 C   0  0  0  0  0  0  0  0  0  0  0  0
   20.4039  -23.5543    9.9931 C   0  0  0  0  0  0  0  0  0  0  0  0
   20.3794  -23.8850   11.4342 C   0  0  0  0  0  0  0  0  0  0  0  0
   19.4442  -23.5823   12.2184 O   0  0  0  0  0  0  0  0  0  0  0  0
   19.3238  -23.7217    7.2972 C   0  0  0  0  0  0  0  0  0  0  0  0
   18.4004  -24.3665    6.7547 O   0  0  0  0  0  0  0  0  0  0  0  0
   21.4516  -24.5790   11.9908 O   0  0  0  0  0  0  0  0  0  0  0  0
   20.6108  -24.2571    7.1134 O   0  0  0  0  0  0  0  0  0  0  0  0
  2  1  1  1
  3  2  1  0
  4  3  1  0
  4  5  2  0
  6  5  1  0
  7  6  1  0
  8  7  2  0
  9  8  1  0
 10  9  2  0
 10 11  1  0
 11 12  2  0
 12  7  1  0
 12  4  1  0
 13  2  1  0
 13 19  1  0
 14 13  2  0
 16 15  1  6
 17 16  1  0
 18 19  1  6
 18 16  1  0
 20 18  1  0
 21 20  2  0
 22 20  1  0
 23 28  1  0
 23 22  1  0
 23 24  1  1
 25 26  1  0
 25 24  1  0
 26 27  2  0
 28 31  1  0
 29 28  2  0
 30 26  1  0
M  END
$$$$
