WTE.pdb
     RDKit          3D

 31 32  0  0  1  0  0  0  0  0999 V2000
   22.9069  -10.3961  -17.6694 N   0  0  0  0  0  0  0  0  0  0  0  0
   22.6625   -9.2369  -16.8462 C   0  0  1  0  0  0  0  0  0  0  0  0
   23.7617   -8.4519  -16.3911 C   0  0  0  0  0  0  0  0  0  0  0  0
   25.1454   -8.7563  -16.4174 C   0  0  0  0  0  0  0  0  0  0  0  0
   26.0245   -7.9332  -17.1488 C   0  0  0  0  0  0  0  0  0  0  0  0
   27.2574   -8.4247  -17.0146 N   0  0  0  0  0  0  0  0  0  0  0  0
   27.2711   -9.5277  -16.2398 C   0  0  0  0  0  0  0  0  0  0  0  0
   28.2388  -10.3883  -15.8025 C   0  0  0  0  0  0  0  0  0  0  0  0
   27.9296  -11.4545  -15.0007 C   0  0  0  0  0  0  0  0  0  0  0  0
   26.6152  -11.6312  -14.6503 C   0  0  0  0  0  0  0  0  0  0  0  0
   25.6225  -10.7941  -15.0668 C   0  0  0  0  0  0  0  0  0  0  0  0
   25.9291   -9.7196  -15.8736 C   0  0  0  0  0  0  0  0  0  0  0  0
   21.3996   -8.5065  -17.2492 C   0  0  0  0  0  0  0  0  0  0  0  0
   21.1943   -8.2349  -18.4678 O   0  0  0  0  0  0  0  0  0  0  0  0
   18.0432   -9.6501  -17.0904 C   0  0  0  0  0  0  0  0  0  0  0  0
   18.1098   -8.4126  -16.2621 C   0  0  1  0  0  0  0  0  0  0  0  0
   18.4197   -8.8422  -14.9447 O   0  0  0  0  0  0  0  0  0  0  0  0
   19.1953   -7.4283  -16.7102 C   0  0  2  0  0  0  0  0  0  0  0  0
   20.4473   -8.1201  -16.3169 N   0  0  0  0  0  0  0  0  0  0  0  0
   19.0959   -6.1489  -15.9698 C   0  0  0  0  0  0  0  0  0  0  0  0
   19.6680   -6.0038  -14.8490 O   0  0  0  0  0  0  0  0  0  0  0  0
   18.3692   -5.0790  -16.4978 N   0  0  0  0  0  0  0  0  0  0  0  0
   18.2919   -3.7551  -15.8530 C   0  0  1  0  0  0  0  0  0  0  0  0
   17.8121   -2.7225  -16.8204 C   0  0  0  0  0  0  0  0  0  0  0  0
   17.6551   -1.3513  -16.2389 C   0  0  0  0  0  0  0  0  0  0  0  0
   17.1031   -0.3780  -17.2058 C   0  0  0  0  0  0  0  0  0  0  0  0
   17.1593   -0.5058  -18.4555 O   0  0  0  0  0  0  0  0  0  0  0  0
   17.3628   -3.8253  -14.6992 C   0  0  0  0  0  0  0  0  0  0  0  0
   16.2897   -4.4659  -14.6698 O   0  0  0  0  0  0  0  0  0  0  0  0
   16.4718    0.7693  -16.7303 O   0  0  0  0  0  0  0  0  0  0  0  0
   17.6723   -3.1288  -13.5178 O   0  0  0  0  0  0  0  0  0  0  0  0
  2  1  1  6
  3  2  1  0
  4  3  1  0
  4  5  2  0
  6  5  1  0
  7  6  1  0
  8  7  2  0
  9  8  1  0
 10  9  2  0
 10 11  1  0
 11 12  2  0
 12  7  1  0
 12  4  1  0
 13  2  1  0
 13 19  1  0
 14 13  2  0
 16 15  1  6
 17 16  1  0
 18 19  1  1
 18 16  1  0
 20 18  1  0
 21 20  2  0
 22 20  1  0
 23 28  1  0
 23 22  1  0
 23 24  1  6
 25 26  1  0
 25 24  1  0
 26 27  2  0
 28 31  1  0
 29 28  2  0
 30 26  1  0
M  END
$$$$
