WTE.pdb
     RDKit          3D

 31 32  0  0  1  0  0  0  0  0999 V2000
   28.1465  -20.1010  -10.4848 N   0  0  0  0  0  0  0  0  0  0  0  0
   26.8165  -20.4501  -10.0484 C   0  0  1  0  0  0  0  0  0  0  0  0
   26.3634  -20.0286   -8.7644 C   0  0  0  0  0  0  0  0  0  0  0  0
   27.1247  -19.6694   -7.6245 C   0  0  0  0  0  0  0  0  0  0  0  0
   27.6155  -18.3544   -7.5024 C   0  0  0  0  0  0  0  0  0  0  0  0
   28.2903  -18.2708   -6.3547 N   0  0  0  0  0  0  0  0  0  0  0  0
   28.2888  -19.4441   -5.6908 C   0  0  0  0  0  0  0  0  0  0  0  0
   28.8164  -19.8856   -4.5096 C   0  0  0  0  0  0  0  0  0  0  0  0
   28.6393  -21.1781   -4.0934 C   0  0  0  0  0  0  0  0  0  0  0  0
   27.9143  -22.0166   -4.9014 C   0  0  0  0  0  0  0  0  0  0  0  0
   27.3729  -21.6126   -6.0860 C   0  0  0  0  0  0  0  0  0  0  0  0
   27.5483  -20.3126   -6.5087 C   0  0  0  0  0  0  0  0  0  0  0  0
   25.8180  -20.4272  -11.1857 C   0  0  0  0  0  0  0  0  0  0  0  0
   25.6781  -19.3761  -11.8760 O   0  0  0  0  0  0  0  0  0  0  0  0
   24.1327  -24.0378  -12.6930 C   0  0  0  0  0  0  0  0  0  0  0  0
   24.4086  -22.7607  -13.4107 C   0  0  1  0  0  0  0  0  0  0  0  0
   23.5954  -22.7848  -14.5743 O   0  0  0  0  0  0  0  0  0  0  0  0
   24.0483  -21.5093  -12.6031 C   0  0  2  0  0  0  0  0  0  0  0  0
   25.0417  -21.5331  -11.5016 N   0  0  0  0  0  0  0  0  0  0  0  0
   22.6866  -21.6166  -12.0296 C   0  0  0  0  0  0  0  0  0  0  0  0
   22.5196  -21.9270  -10.8128 O   0  0  0  0  0  0  0  0  0  0  0  0
   21.5623  -21.3750  -12.8228 N   0  0  0  0  0  0  0  0  0  0  0  0
   20.1793  -21.4814  -12.3222 C   0  0  1  0  0  0  0  0  0  0  0  0
   19.4188  -20.2253  -12.5977 C   0  0  0  0  0  0  0  0  0  0  0  0
   19.7496  -19.5721  -13.9041 C   0  0  0  0  0  0  0  0  0  0  0  0
   18.9090  -18.3877  -14.1824 C   0  0  0  0  0  0  0  0  0  0  0  0
   17.9816  -17.9817  -13.4366 O   0  0  0  0  0  0  0  0  0  0  0  0
   19.5056  -22.6256  -12.9828 C   0  0  0  0  0  0  0  0  0  0  0  0
   19.8735  -23.1681  -14.0472 O   0  0  0  0  0  0  0  0  0  0  0  0
   19.1357  -17.6506  -15.3427 O   0  0  0  0  0  0  0  0  0  0  0  0
   18.3522  -23.1799  -12.4004 O   0  0  0  0  0  0  0  0  0  0  0  0
  2  1  1  6
  3  2  1  0
  4  3  1  0
  4  5  2  0
  6  5  1  0
  7  6  1  0
  8  7  2  0
  9  8  1  0
 10  9  2  0
 10 11  1  0
 11 12  2  0
 12  7  1  0
 12  4  1  0
 13  2  1  0
 13 19  1  0
 14 13  2  0
 16 15  1  1
 17 16  1  0
 18 19  1  1
 18 16  1  0
 20 18  1  0
 21 20  2  0
 22 20  1  0
 23 28  1  0
 23 22  1  0
 23 24  1  6
 25 26  1  0
 25 24  1  0
 26 27  2  0
 28 31  1  0
 29 28  2  0
 30 26  1  0
M  END
$$$$
