PKT.pdb
     RDKit          3D

 24 24  0  0  1  0  0  0  0  0999 V2000
   27.9425  -20.3103  -10.6415 N   0  0  0  0  0  0  0  0  0  0  0  0
   29.0259  -20.6939   -9.7557 C   0  0  0  0  0  0  0  0  0  0  0  0
   30.2458  -20.8792  -10.6009 C   0  0  0  0  0  0  0  0  0  0  0  0
   29.8002  -20.6348  -12.0046 C   0  0  0  0  0  0  0  0  0  0  0  0
   28.5661  -19.7847  -11.8345 C   0  0  1  0  0  0  0  0  0  0  0  0
   27.7026  -19.9943  -13.0150 C   0  0  0  0  0  0  0  0  0  0  0  0
   28.1432  -19.7224  -14.1478 O   0  0  0  0  0  0  0  0  0  0  0  0
   26.3927  -20.4936  -12.8962 N   0  0  0  0  0  0  0  0  0  0  0  0
   25.6501  -20.8219  -14.1091 C   0  0  1  0  0  0  0  0  0  0  0  0
   25.4327  -22.3180  -14.1603 C   0  0  0  0  0  0  0  0  0  0  0  0
   24.6664  -22.7227  -15.3800 C   0  0  0  0  0  0  0  0  0  0  0  0
   24.5877  -24.2707  -15.4140 C   0  0  0  0  0  0  0  0  0  0  0  0
   23.8255  -24.7156  -16.6393 C   0  0  0  0  0  0  0  0  0  0  0  0
   23.7861  -26.1499  -16.6851 N   0  0  0  0  0  0  0  0  0  0  0  0
   24.4323  -20.0120  -14.0797 C   0  0  0  0  0  0  0  0  0  0  0  0
   23.7721  -19.9093  -13.0218 O   0  0  0  0  0  0  0  0  0  0  0  0
   24.1102  -16.4517  -15.7162 C   0  0  0  0  0  0  0  0  0  0  0  0
   23.0659  -17.3941  -16.2399 C   0  0  1  0  0  0  0  0  0  0  0  0
   23.5682  -18.0098  -17.3986 O   0  0  0  0  0  0  0  0  0  0  0  0
   22.7747  -18.5254  -15.2554 C   0  0  2  0  0  0  0  0  0  0  0  0
   23.9802  -19.3325  -15.2206 N   0  0  0  0  0  0  0  0  0  0  0  0
   21.5688  -19.2642  -15.6041 C   0  0  0  0  0  0  0  0  0  0  0  0
   20.2969  -18.7618  -15.3843 O   0  0  0  0  0  0  0  0  0  0  0  0
   21.6598  -20.4017  -16.1248 O   0  0  0  0  0  0  0  0  0  0  0  0
  1  2  1  0
  2  3  1  0
  4  3  1  0
  5  1  1  0
  5  4  1  0
  5  6  1  6
  7  6  2  0
  8  6  1  0
  9  8  1  0
  9 10  1  1
 10 11  1  0
 11 12  1  0
 12 13  1  0
 13 14  1  0
 15 21  1  0
 15  9  1  0
 16 15  2  0
 18 20  1  0
 18 17  1  1
 19 18  1  0
 20 22  1  0
 20 21  1  6
 22 23  1  0
 24 22  2  0
M  END
$$$$
