PKT.pdb
     RDKit          3D

 24 24  0  0  1  0  0  0  0  0999 V2000
   26.0796  -20.9857  -12.0706 N   0  0  0  0  0  0  0  0  0  0  0  0
   27.4465  -21.1165  -11.6017 C   0  0  0  0  0  0  0  0  0  0  0  0
   28.3380  -20.5880  -12.6801 C   0  0  0  0  0  0  0  0  0  0  0  0
   27.4270  -20.1994  -13.7971 C   0  0  0  0  0  0  0  0  0  0  0  0
   26.1048  -19.9779  -13.1060 C   0  0  1  0  0  0  0  0  0  0  0  0
   25.0305  -20.2115  -14.0932 C   0  0  0  0  0  0  0  0  0  0  0  0
   24.9725  -19.4959  -15.1109 O   0  0  0  0  0  0  0  0  0  0  0  0
   24.0678  -21.2220  -13.9162 N   0  0  0  0  0  0  0  0  0  0  0  0
   23.1942  -21.5676  -15.0332 C   0  0  1  0  0  0  0  0  0  0  0  0
   23.2195  -23.0673  -15.2288 C   0  0  0  0  0  0  0  0  0  0  0  0
   24.4698  -23.5126  -15.9196 C   0  0  0  0  0  0  0  0  0  0  0  0
   24.3107  -25.0075  -16.2982 C   0  0  0  0  0  0  0  0  0  0  0  0
   25.4768  -25.4440  -17.1526 C   0  0  0  0  0  0  0  0  0  0  0  0
   25.4245  -26.8655  -17.3457 N   0  0  0  0  0  0  0  0  0  0  0  0
   21.8830  -20.9977  -14.7236 C   0  0  0  0  0  0  0  0  0  0  0  0
   21.4199  -21.0817  -13.5643 O   0  0  0  0  0  0  0  0  0  0  0  0
   21.0617  -17.5511  -15.0980 C   0  0  0  0  0  0  0  0  0  0  0  0
   19.9997  -18.2613  -15.8860 C   0  0  1  0  0  0  0  0  0  0  0  0
   20.4045  -18.3075  -17.2305 O   0  0  0  0  0  0  0  0  0  0  0  0
   19.8398  -19.7151  -15.4449 C   0  0  2  0  0  0  0  0  0  0  0  0
   21.1212  -20.3448  -15.7041 N   0  0  0  0  0  0  0  0  0  0  0  0
   18.7097  -20.3675  -16.0922 C   0  0  0  0  0  0  0  0  0  0  0  0
   18.8675  -21.3172  -17.0881 O   0  0  0  0  0  0  0  0  0  0  0  0
   17.5385  -20.0746  -15.7519 O   0  0  0  0  0  0  0  0  0  0  0  0
  1  2  1  0
  2  3  1  0
  4  3  1  0
  5  1  1  0
  5  4  1  0
  5  6  1  6
  7  6  2  0
  8  6  1  0
  9  8  1  0
  9 10  1  1
 10 11  1  0
 11 12  1  0
 12 13  1  0
 13 14  1  0
 15 21  1  0
 15  9  1  0
 16 15  2  0
 18 20  1  0
 18 17  1  1
 19 18  1  0
 20 22  1  0
 20 21  1  6
 22 23  1  0
 24 22  2  0
M  END
$$$$
