PKT.pdb
     RDKit          3D

 24 24  0  0  1  0  0  0  0  0999 V2000
   27.5169  -19.1539  -13.8706 N   0  0  0  0  0  0  0  0  0  0  0  0
   28.9477  -18.9368  -13.7640 C   0  0  0  0  0  0  0  0  0  0  0  0
   29.5808  -20.2678  -13.5098 C   0  0  0  0  0  0  0  0  0  0  0  0
   28.4499  -21.2389  -13.4267 C   0  0  0  0  0  0  0  0  0  0  0  0
   27.3457  -20.5525  -14.1911 C   0  0  1  0  0  0  0  0  0  0  0  0
   26.0551  -21.0556  -13.6768 C   0  0  0  0  0  0  0  0  0  0  0  0
   25.6139  -22.1420  -14.0968 O   0  0  0  0  0  0  0  0  0  0  0  0
   25.3077  -20.3406  -12.7232 N   0  0  0  0  0  0  0  0  0  0  0  0
   24.0119  -20.8658  -12.3042 C   0  0  1  0  0  0  0  0  0  0  0  0
   23.9064  -20.7652  -10.7986 C   0  0  0  0  0  0  0  0  0  0  0  0
   22.5851  -21.2630  -10.3037 C   0  0  0  0  0  0  0  0  0  0  0  0
   22.5512  -21.1032   -8.7619 C   0  0  0  0  0  0  0  0  0  0  0  0
   21.1676  -21.4204   -8.2468 C   0  0  0  0  0  0  0  0  0  0  0  0
   21.1385  -21.2605   -6.8205 N   0  0  0  0  0  0  0  0  0  0  0  0
   23.0018  -20.1200  -13.0547 C   0  0  0  0  0  0  0  0  0  0  0  0
   22.8940  -18.8826  -12.9036 O   0  0  0  0  0  0  0  0  0  0  0  0
   22.6390  -20.0524  -16.7274 C   0  0  0  0  0  0  0  0  0  0  0  0
   21.3272  -20.5279  -16.1740 C   0  0  1  0  0  0  0  0  0  0  0  0
   21.3451  -21.9323  -16.1415 O   0  0  0  0  0  0  0  0  0  0  0  0
   21.1216  -20.0766  -14.7290 C   0  0  2  0  0  0  0  0  0  0  0  0
   22.1411  -20.7626  -13.9571 N   0  0  0  0  0  0  0  0  0  0  0  0
   19.7606  -20.3104  -14.2658 C   0  0  0  0  0  0  0  0  0  0  0  0
   18.6723  -19.6172  -14.7692 O   0  0  0  0  0  0  0  0  0  0  0  0
   19.5402  -21.1677  -13.3771 O   0  0  0  0  0  0  0  0  0  0  0  0
  1  2  1  0
  2  3  1  0
  4  3  1  0
  5  1  1  0
  5  4  1  0
  5  6  1  1
  7  6  2  0
  8  6  1  0
  9  8  1  0
  9 10  1  1
 10 11  1  0
 11 12  1  0
 12 13  1  0
 13 14  1  0
 15 21  1  0
 15  9  1  0
 16 15  2  0
 18 20  1  0
 18 17  1  1
 19 18  1  0
 20 22  1  0
 20 21  1  1
 22 23  1  0
 24 22  2  0
M  END
$$$$
