PKT.pdb
     RDKit          3D

 24 24  0  0  1  0  0  0  0  0999 V2000
   27.9249  -20.8652   -7.2336 N   0  0  0  0  0  0  0  0  0  0  0  0
   28.8680  -20.3711   -6.2479 C   0  0  0  0  0  0  0  0  0  0  0  0
   28.6261  -18.9026   -6.0993 C   0  0  0  0  0  0  0  0  0  0  0  0
   27.5442  -18.5751   -7.0744 C   0  0  0  0  0  0  0  0  0  0  0  0
   26.8516  -19.8987   -7.2825 C   0  0  1  0  0  0  0  0  0  0  0  0
   26.2229  -19.8783   -8.6195 C   0  0  0  0  0  0  0  0  0  0  0  0
   25.4924  -18.9200   -8.9343 O   0  0  0  0  0  0  0  0  0  0  0  0
   26.4263  -20.9135   -9.5502 N   0  0  0  0  0  0  0  0  0  0  0  0
   25.8767  -20.7712  -10.8949 C   0  0  1  0  0  0  0  0  0  0  0  0
   26.7184  -21.5810  -11.8561 C   0  0  0  0  0  0  0  0  0  0  0  0
   27.6724  -20.7158  -12.6177 C   0  0  0  0  0  0  0  0  0  0  0  0
   27.2931  -20.7780  -14.1196 C   0  0  0  0  0  0  0  0  0  0  0  0
   28.2204  -19.8920  -14.9168 C   0  0  0  0  0  0  0  0  0  0  0  0
   27.8258  -19.9031  -16.2969 N   0  0  0  0  0  0  0  0  0  0  0  0
   24.4700  -21.1634  -10.8097 C   0  0  0  0  0  0  0  0  0  0  0  0
   24.1075  -22.0236   -9.9766 O   0  0  0  0  0  0  0  0  0  0  0  0
   21.3765  -19.0197  -10.2747 C   0  0  0  0  0  0  0  0  0  0  0  0
   21.3073  -19.6826  -11.6196 C   0  0  1  0  0  0  0  0  0  0  0  0
   21.9126  -18.8339  -12.5616 O   0  0  0  0  0  0  0  0  0  0  0  0
   22.1045  -20.9852  -11.6541 C   0  0  2  0  0  0  0  0  0  0  0  0
   23.5005  -20.5889  -11.6451 N   0  0  0  0  0  0  0  0  0  0  0  0
   21.7295  -21.8327  -12.7778 C   0  0  0  0  0  0  0  0  0  0  0  0
   20.5033  -22.4725  -12.8524 O   0  0  0  0  0  0  0  0  0  0  0  0
   22.5312  -22.0053  -13.7270 O   0  0  0  0  0  0  0  0  0  0  0  0
  1  2  1  0
  2  3  1  0
  4  3  1  0
  5  1  1  0
  5  4  1  0
  5  6  1  6
  7  6  2  0
  8  6  1  0
  9  8  1  0
  9 10  1  6
 10 11  1  0
 11 12  1  0
 12 13  1  0
 13 14  1  0
 15 21  1  0
 15  9  1  0
 16 15  2  0
 18 20  1  0
 18 17  1  1
 19 18  1  0
 20 22  1  0
 20 21  1  6
 22 23  1  0
 24 22  2  0
M  END
$$$$
