PKT.pdb
     RDKit          3D

 24 24  0  0  1  0  0  0  0  0999 V2000
   27.1441  -23.5426  -18.4802 N   0  0  0  0  0  0  0  0  0  0  0  0
   26.8648  -22.1706  -18.0996 C   0  0  0  0  0  0  0  0  0  0  0  0
   26.2832  -22.2018  -16.7219 C   0  0  0  0  0  0  0  0  0  0  0  0
   26.1976  -23.6468  -16.3570 C   0  0  0  0  0  0  0  0  0  0  0  0
   27.2299  -24.2919  -17.2475 C   0  0  1  0  0  0  0  0  0  0  0  0
   26.8331  -25.6994  -17.4590 C   0  0  0  0  0  0  0  0  0  0  0  0
   26.1999  -26.0056  -18.4869 O   0  0  0  0  0  0  0  0  0  0  0  0
   27.1508  -26.7069  -16.5300 N   0  0  0  0  0  0  0  0  0  0  0  0
   26.8444  -28.0948  -16.8621 C   0  0  1  0  0  0  0  0  0  0  0  0
   27.9744  -28.9754  -16.3766 C   0  0  0  0  0  0  0  0  0  0  0  0
   27.7305  -30.4153  -16.7019 C   0  0  0  0  0  0  0  0  0  0  0  0
   28.9397  -31.2410  -16.1923 C   0  0  0  0  0  0  0  0  0  0  0  0
   28.8018  -32.6766  -16.6399 C   0  0  0  0  0  0  0  0  0  0  0  0
   29.9212  -33.4377  -16.1621 N   0  0  0  0  0  0  0  0  0  0  0  0
   25.5332  -28.3791  -16.2791 C   0  0  0  0  0  0  0  0  0  0  0  0
   25.2863  -28.0483  -15.0978 O   0  0  0  0  0  0  0  0  0  0  0  0
   22.3156  -27.1533  -17.4933 C   0  0  0  0  0  0  0  0  0  0  0  0
   22.2351  -28.6520  -17.5137 C   0  0  1  0  0  0  0  0  0  0  0  0
   22.6470  -29.0989  -18.7804 O   0  0  0  0  0  0  0  0  0  0  0  0
   23.1963  -29.2876  -16.5107 C   0  0  2  0  0  0  0  0  0  0  0  0
   24.5277  -29.0169  -17.0206 N   0  0  0  0  0  0  0  0  0  0  0  0
   22.9135  -30.6998  -16.2934 C   0  0  0  0  0  0  0  0  0  0  0  0
   21.8333  -31.1373  -15.5449 O   0  0  0  0  0  0  0  0  0  0  0  0
   23.6629  -31.5727  -16.7933 O   0  0  0  0  0  0  0  0  0  0  0  0
  1  2  1  0
  2  3  1  0
  4  3  1  0
  5  1  1  0
  5  4  1  0
  5  6  1  6
  7  6  2  0
  8  6  1  0
  9  8  1  0
  9 10  1  1
 10 11  1  0
 11 12  1  0
 12 13  1  0
 13 14  1  0
 15 21  1  0
 15  9  1  0
 16 15  2  0
 18 20  1  0
 18 17  1  6
 19 18  1  0
 20 22  1  0
 20 21  1  6
 22 23  1  0
 24 22  2  0
M  END
$$$$
