PKT.pdb
     RDKit          3D

 24 24  0  0  1  0  0  0  0  0999 V2000
   29.6806  -20.2244  -11.3570 N   0  0  0  0  0  0  0  0  0  0  0  0
   31.0150  -20.6672  -10.9980 C   0  0  0  0  0  0  0  0  0  0  0  0
   31.2379  -21.9886  -11.6623 C   0  0  0  0  0  0  0  0  0  0  0  0
   29.9610  -22.3005  -12.3700 C   0  0  0  0  0  0  0  0  0  0  0  0
   29.3285  -20.9445  -12.5595 C   0  0  1  0  0  0  0  0  0  0  0  0
   27.8658  -21.1330  -12.6500 C   0  0  0  0  0  0  0  0  0  0  0  0
   27.3980  -21.8365  -13.5652 O   0  0  0  0  0  0  0  0  0  0  0  0
   26.9833  -20.5389  -11.7295 N   0  0  0  0  0  0  0  0  0  0  0  0
   25.5570  -20.8323  -11.8294 C   0  0  1  0  0  0  0  0  0  0  0  0
   24.9219  -20.6437  -10.4695 C   0  0  0  0  0  0  0  0  0  0  0  0
   23.4458  -20.8841  -10.5119 C   0  0  0  0  0  0  0  0  0  0  0  0
   22.9781  -21.2924   -9.0912 C   0  0  0  0  0  0  0  0  0  0  0  0
   21.4733  -21.4147   -9.0653 C   0  0  0  0  0  0  0  0  0  0  0  0
   21.0372  -21.6880   -7.7253 N   0  0  0  0  0  0  0  0  0  0  0  0
   25.0321  -19.9737  -12.8910 C   0  0  0  0  0  0  0  0  0  0  0  0
   25.1937  -18.7343  -12.8336 O   0  0  0  0  0  0  0  0  0  0  0  0
   25.8902  -19.7493  -16.3267 C   0  0  0  0  0  0  0  0  0  0  0  0
   24.4355  -20.1192  -16.3305 C   0  0  1  0  0  0  0  0  0  0  0  0
   24.3364  -21.5193  -16.3924 O   0  0  0  0  0  0  0  0  0  0  0  0
   23.7394  -19.7055  -15.0351 C   0  0  2  0  0  0  0  0  0  0  0  0
   24.3469  -20.5100  -13.9914 N   0  0  0  0  0  0  0  0  0  0  0  0
   22.2909  -19.8312  -15.1221 C   0  0  0  0  0  0  0  0  0  0  0  0
   21.5212  -19.0288  -15.9481 O   0  0  0  0  0  0  0  0  0  0  0  0
   21.6945  -20.6920  -14.4318 O   0  0  0  0  0  0  0  0  0  0  0  0
  1  2  1  0
  2  3  1  0
  4  3  1  0
  5  1  1  0
  5  4  1  0
  5  6  1  1
  7  6  2  0
  8  6  1  0
  9  8  1  0
  9 10  1  1
 10 11  1  0
 11 12  1  0
 12 13  1  0
 13 14  1  0
 15 21  1  0
 15  9  1  0
 16 15  2  0
 18 20  1  0
 18 17  1  1
 19 18  1  0
 20 22  1  0
 20 21  1  1
 22 23  1  0
 24 22  2  0
M  END
$$$$
