PKT.pdb
     RDKit          3D

 24 24  0  0  1  0  0  0  0  0999 V2000
   16.6047  -11.0985  -16.4701 N   0  0  0  0  0  0  0  0  0  0  0  0
   15.8165  -12.2903  -16.2175 C   0  0  0  0  0  0  0  0  0  0  0  0
   16.2937  -12.8722  -14.9249 C   0  0  0  0  0  0  0  0  0  0  0  0
   17.4154  -11.9929  -14.4808 C   0  0  0  0  0  0  0  0  0  0  0  0
   17.1385  -10.6912  -15.1904 C   0  0  1  0  0  0  0  0  0  0  0  0
   18.4237   -9.9819  -15.3586 C   0  0  0  0  0  0  0  0  0  0  0  0
   19.3649  -10.2349  -14.5831 O   0  0  0  0  0  0  0  0  0  0  0  0
   18.6158   -9.0259  -16.3726 N   0  0  0  0  0  0  0  0  0  0  0  0
   19.9020   -8.3419  -16.4628 C   0  0  1  0  0  0  0  0  0  0  0  0
   20.1372   -7.9288  -17.8989 C   0  0  0  0  0  0  0  0  0  0  0  0
   20.2732   -9.1161  -18.7992 C   0  0  0  0  0  0  0  0  0  0  0  0
   20.5424   -8.6070  -20.2387 C   0  0  0  0  0  0  0  0  0  0  0  0
   20.6577   -9.7810  -21.1814 C   0  0  0  0  0  0  0  0  0  0  0  0
   20.8859   -9.3039  -22.5160 N   0  0  0  0  0  0  0  0  0  0  0  0
   19.8558   -7.2462  -15.4948 C   0  0  0  0  0  0  0  0  0  0  0  0
   18.8303   -6.5357  -15.3993 O   0  0  0  0  0  0  0  0  0  0  0  0
   20.1091   -7.5098  -11.9956 C   0  0  0  0  0  0  0  0  0  0  0  0
   21.1955   -6.5313  -12.3350 C   0  0  1  0  0  0  0  0  0  0  0  0
   22.4065   -7.2355  -12.4411 O   0  0  0  0  0  0  0  0  0  0  0  0
   20.9683   -5.8782  -13.6973 C   0  0  2  0  0  0  0  0  0  0  0  0
   20.9439   -6.9691  -14.6539 N   0  0  0  0  0  0  0  0  0  0  0  0
   21.9567   -4.8485  -13.9878 C   0  0  0  0  0  0  0  0  0  0  0  0
   22.0457   -3.6738  -13.2593 O   0  0  0  0  0  0  0  0  0  0  0  0
   22.7697   -5.0087  -14.9294 O   0  0  0  0  0  0  0  0  0  0  0  0
  1  2  1  0
  2  3  1  0
  4  3  1  0
  5  1  1  0
  5  4  1  0
  5  6  1  6
  7  6  2  0
  8  6  1  0
  9  8  1  0
  9 10  1  6
 10 11  1  0
 11 12  1  0
 12 13  1  0
 13 14  1  0
 15 21  1  0
 15  9  1  0
 16 15  2  0
 18 20  1  0
 18 17  1  6
 19 18  1  0
 20 22  1  0
 20 21  1  6
 22 23  1  0
 24 22  2  0
M  END
$$$$
