PKT.pdb
     RDKit          3D

 24 24  0  0  1  0  0  0  0  0999 V2000
   19.6089  -13.6143  -16.0135 N   0  0  0  0  0  0  0  0  0  0  0  0
   19.3195  -15.0231  -16.2058 C   0  0  0  0  0  0  0  0  0  0  0  0
   18.5476  -15.1476  -17.4808 C   0  0  0  0  0  0  0  0  0  0  0  0
   18.3680  -13.7512  -17.9772 C   0  0  0  0  0  0  0  0  0  0  0  0
   19.4965  -12.9997  -17.3165 C   0  0  1  0  0  0  0  0  0  0  0  0
   19.0918  -11.5837  -17.1967 C   0  0  0  0  0  0  0  0  0  0  0  0
   19.1378  -10.8500  -18.2021 O   0  0  0  0  0  0  0  0  0  0  0  0
   18.6546  -11.0383  -15.9758 N   0  0  0  0  0  0  0  0  0  0  0  0
   18.2380   -9.6400  -15.9367 C   0  0  1  0  0  0  0  0  0  0  0  0
   16.8746   -9.5532  -15.2873 C   0  0  0  0  0  0  0  0  0  0  0  0
   15.8570  -10.3595  -16.0310 C   0  0  0  0  0  0  0  0  0  0  0  0
   14.9493  -11.0722  -14.9957 C   0  0  0  0  0  0  0  0  0  0  0  0
   13.9305  -11.9255  -15.7128 C   0  0  0  0  0  0  0  0  0  0  0  0
   13.1472  -12.6476  -14.7507 N   0  0  0  0  0  0  0  0  0  0  0  0
   19.3056   -8.9099  -15.2532 C   0  0  0  0  0  0  0  0  0  0  0  0
   19.6894   -9.2747  -14.1195 O   0  0  0  0  0  0  0  0  0  0  0  0
   22.5768   -8.5201  -16.6254 C   0  0  0  0  0  0  0  0  0  0  0  0
   22.1509   -7.1173  -16.3031 C   0  0  1  0  0  0  0  0  0  0  0  0
   21.6020   -6.5453  -17.4630 O   0  0  0  0  0  0  0  0  0  0  0  0
   21.0415   -7.0860  -15.2535 C   0  0  2  0  0  0  0  0  0  0  0  0
   19.9243   -7.7987  -15.8449 N   0  0  0  0  0  0  0  0  0  0  0  0
   20.7270   -5.7306  -14.8225 C   0  0  0  0  0  0  0  0  0  0  0  0
   21.5703   -4.9926  -14.0085 O   0  0  0  0  0  0  0  0  0  0  0  0
   19.6568   -5.1892  -15.1897 O   0  0  0  0  0  0  0  0  0  0  0  0
  1  2  1  0
  2  3  1  0
  4  3  1  0
  5  1  1  0
  5  4  1  0
  5  6  1  1
  7  6  2  0
  8  6  1  0
  9  8  1  0
  9 10  1  1
 10 11  1  0
 11 12  1  0
 12 13  1  0
 13 14  1  0
 15 21  1  0
 15  9  1  0
 16 15  2  0
 18 20  1  0
 18 17  1  6
 19 18  1  0
 20 22  1  0
 20 21  1  6
 22 23  1  0
 24 22  2  0
M  END
$$$$
