PKT.pdb
     RDKit          3D

 24 24  0  0  1  0  0  0  0  0999 V2000
   25.0188  -12.5703  -15.7659 N   0  0  0  0  0  0  0  0  0  0  0  0
   25.5445  -13.9134  -15.9250 C   0  0  0  0  0  0  0  0  0  0  0  0
   25.3829  -14.2856  -17.3646 C   0  0  0  0  0  0  0  0  0  0  0  0
   24.7004  -13.1219  -18.0040 C   0  0  0  0  0  0  0  0  0  0  0  0
   25.0326  -11.9750  -17.0826 C   0  0  1  0  0  0  0  0  0  0  0  0
   23.9646  -10.9623  -17.2129 C   0  0  0  0  0  0  0  0  0  0  0  0
   23.8517  -10.3301  -18.2800 O   0  0  0  0  0  0  0  0  0  0  0  0
   23.0685  -10.6906  -16.1630 N   0  0  0  0  0  0  0  0  0  0  0  0
   21.9586   -9.7734  -16.4024 C   0  0  1  0  0  0  0  0  0  0  0  0
   20.6589  -10.4921  -16.1154 C   0  0  0  0  0  0  0  0  0  0  0  0
   19.4785   -9.5904  -16.2952 C   0  0  0  0  0  0  0  0  0  0  0  0
   18.1975  -10.3891  -15.9419 C   0  0  0  0  0  0  0  0  0  0  0  0
   16.9800   -9.5234  -16.1620 C   0  0  0  0  0  0  0  0  0  0  0  0
   15.8151  -10.1984  -15.6639 N   0  0  0  0  0  0  0  0  0  0  0  0
   22.2156   -8.5907  -15.5808 C   0  0  0  0  0  0  0  0  0  0  0  0
   22.6133   -8.7199  -14.4015 O   0  0  0  0  0  0  0  0  0  0  0  0
   22.5241   -3.6204  -15.6827 C   0  0  0  0  0  0  0  0  0  0  0  0
   22.2192   -4.9421  -16.3256 C   0  0  1  0  0  0  0  0  0  0  0  0
   23.2324   -5.2239  -17.2572 O   0  0  0  0  0  0  0  0  0  0  0  0
   22.2474   -6.0870  -15.3147 C   0  0  2  0  0  0  0  0  0  0  0  0
   22.0313   -7.2958  -16.0879 N   0  0  0  0  0  0  0  0  0  0  0  0
   21.2943   -5.8905  -14.2309 C   0  0  0  0  0  0  0  0  0  0  0  0
   21.6782   -5.4755  -12.9665 O   0  0  0  0  0  0  0  0  0  0  0  0
   20.0728   -6.0989  -14.4258 O   0  0  0  0  0  0  0  0  0  0  0  0
  1  2  1  0
  2  3  1  0
  4  3  1  0
  5  1  1  0
  5  4  1  0
  5  6  1  1
  7  6  2  0
  8  6  1  0
  9  8  1  0
  9 10  1  1
 10 11  1  0
 11 12  1  0
 12 13  1  0
 13 14  1  0
 15 21  1  0
 15  9  1  0
 16 15  2  0
 18 20  1  0
 18 17  1  1
 19 18  1  0
 20 22  1  0
 20 21  1  6
 22 23  1  0
 24 22  2  0
M  END
$$$$
