PKT.pdb
     RDKit          3D

 24 24  0  0  1  0  0  0  0  0999 V2000
   19.7514  -14.2415  -16.0054 N   0  0  0  0  0  0  0  0  0  0  0  0
   19.6066  -15.6457  -16.3412 C   0  0  0  0  0  0  0  0  0  0  0  0
   18.7518  -15.7232  -17.5660 C   0  0  0  0  0  0  0  0  0  0  0  0
   18.3771  -14.3131  -17.8817 C   0  0  0  0  0  0  0  0  0  0  0  0
   19.4648  -13.5072  -17.2166 C   0  0  1  0  0  0  0  0  0  0  0  0
   18.9155  -12.1717  -16.9041 C   0  0  0  0  0  0  0  0  0  0  0  0
   18.5744  -11.4200  -17.8369 O   0  0  0  0  0  0  0  0  0  0  0  0
   18.7662  -11.7228  -15.5792 N   0  0  0  0  0  0  0  0  0  0  0  0
   18.1715  -10.4112  -15.3415 C   0  0  1  0  0  0  0  0  0  0  0  0
   16.9599  -10.5770  -14.4511 C   0  0  0  0  0  0  0  0  0  0  0  0
   15.7780  -11.0830  -15.2165 C   0  0  0  0  0  0  0  0  0  0  0  0
   14.5706  -11.1675  -14.2476 C   0  0  0  0  0  0  0  0  0  0  0  0
   13.3592  -11.6840  -14.9864 C   0  0  0  0  0  0  0  0  0  0  0  0
   12.2928  -11.9184  -14.0544 N   0  0  0  0  0  0  0  0  0  0  0  0
   19.2364   -9.5669  -14.8002 C   0  0  0  0  0  0  0  0  0  0  0  0
   19.7474   -9.8354  -13.6901 O   0  0  0  0  0  0  0  0  0  0  0  0
   22.5035   -8.9368  -16.2543 C   0  0  0  0  0  0  0  0  0  0  0  0
   21.8363   -7.5980  -16.1301 C   0  0  1  0  0  0  0  0  0  0  0  0
   21.1502   -7.3341  -17.3274 O   0  0  0  0  0  0  0  0  0  0  0  0
   20.7780   -7.5891  -15.0285 C   0  0  2  0  0  0  0  0  0  0  0  0
   19.7118   -8.4508  -15.5046 N   0  0  0  0  0  0  0  0  0  0  0  0
   20.3498   -6.2400  -14.6848 C   0  0  0  0  0  0  0  0  0  0  0  0
   21.1549   -5.3585  -13.9824 O   0  0  0  0  0  0  0  0  0  0  0  0
   19.2121   -5.8378  -15.0272 O   0  0  0  0  0  0  0  0  0  0  0  0
  1  2  1  0
  2  3  1  0
  4  3  1  0
  5  1  1  0
  5  4  1  0
  5  6  1  1
  7  6  2  0
  8  6  1  0
  9  8  1  0
  9 10  1  1
 10 11  1  0
 11 12  1  0
 12 13  1  0
 13 14  1  0
 15 21  1  0
 15  9  1  0
 16 15  2  0
 18 20  1  0
 18 17  1  6
 19 18  1  0
 20 22  1  0
 20 21  1  6
 22 23  1  0
 24 22  2  0
M  END
$$$$
