PKT.pdb
     RDKit          3D

 24 24  0  0  1  0  0  0  0  0999 V2000
   24.3338  -11.9773  -15.4975 N   0  0  0  0  0  0  0  0  0  0  0  0
   24.9176  -13.2023  -16.0113 C   0  0  0  0  0  0  0  0  0  0  0  0
   24.8872  -13.1162  -17.5042 C   0  0  0  0  0  0  0  0  0  0  0  0
   24.2188  -11.8183  -17.8161 C   0  0  0  0  0  0  0  0  0  0  0  0
   24.4342  -11.0066  -16.5633 C   0  0  1  0  0  0  0  0  0  0  0  0
   23.3455  -10.0118  -16.4726 C   0  0  0  0  0  0  0  0  0  0  0  0
   23.3120   -9.0697  -17.2867 O   0  0  0  0  0  0  0  0  0  0  0  0
   22.3422  -10.0981  -15.4902 N   0  0  0  0  0  0  0  0  0  0  0  0
   21.2257   -9.1592  -15.5376 C   0  0  1  0  0  0  0  0  0  0  0  0
   19.9887   -9.8416  -14.9970 C   0  0  0  0  0  0  0  0  0  0  0  0
   19.2775  -10.6177  -16.0603 C   0  0  0  0  0  0  0  0  0  0  0  0
   17.9983  -11.2350  -15.4391 C   0  0  0  0  0  0  0  0  0  0  0  0
   17.2850  -12.0758  -16.4708 C   0  0  0  0  0  0  0  0  0  0  0  0
   16.0900  -12.6271  -15.8975 N   0  0  0  0  0  0  0  0  0  0  0  0
   21.6560   -7.9687  -14.8046 C   0  0  0  0  0  0  0  0  0  0  0  0
   22.0970   -8.0747  -13.6384 O   0  0  0  0  0  0  0  0  0  0  0  0
   24.1847   -5.6237  -16.0083 C   0  0  0  0  0  0  0  0  0  0  0  0
   22.9728   -4.7900  -15.7093 C   0  0  1  0  0  0  0  0  0  0  0  0
   22.2372   -4.6389  -16.8966 O   0  0  0  0  0  0  0  0  0  0  0  0
   22.0364   -5.4810  -14.7197 C   0  0  2  0  0  0  0  0  0  0  0  0
   21.5921   -6.6925  -15.3836 N   0  0  0  0  0  0  0  0  0  0  0  0
   20.9564   -4.6083  -14.2796 C   0  0  0  0  0  0  0  0  0  0  0  0
   19.6408   -4.7950  -14.6705 O   0  0  0  0  0  0  0  0  0  0  0  0
   21.2023   -3.6434  -13.5170 O   0  0  0  0  0  0  0  0  0  0  0  0
  1  2  1  0
  2  3  1  0
  4  3  1  0
  5  1  1  0
  5  4  1  0
  5  6  1  1
  7  6  2  0
  8  6  1  0
  9  8  1  0
  9 10  1  1
 10 11  1  0
 11 12  1  0
 12 13  1  0
 13 14  1  0
 15 21  1  0
 15  9  1  0
 16 15  2  0
 18 20  1  0
 18 17  1  6
 19 18  1  0
 20 22  1  0
 20 21  1  6
 22 23  1  0
 24 22  2  0
M  END
$$$$
