PKT.pdb
     RDKit          3D

 24 24  0  0  1  0  0  0  0  0999 V2000
   25.7019  -12.1674  -15.7050 N   0  0  0  0  0  0  0  0  0  0  0  0
   26.4485  -13.3739  -16.0089 C   0  0  0  0  0  0  0  0  0  0  0  0
   26.4035  -13.5619  -17.4920 C   0  0  0  0  0  0  0  0  0  0  0  0
   25.5612  -12.4440  -18.0111 C   0  0  0  0  0  0  0  0  0  0  0  0
   25.6648  -11.3991  -16.9284 C   0  0  1  0  0  0  0  0  0  0  0  0
   24.4491  -10.5614  -16.9864 C   0  0  0  0  0  0  0  0  0  0  0  0
   24.2686   -9.8173  -17.9688 O   0  0  0  0  0  0  0  0  0  0  0  0
   23.4863  -10.5798  -15.9608 N   0  0  0  0  0  0  0  0  0  0  0  0
   22.2998   -9.7399  -16.0917 C   0  0  1  0  0  0  0  0  0  0  0  0
   21.0712  -10.5851  -15.8382 C   0  0  0  0  0  0  0  0  0  0  0  0
   19.8198   -9.7660  -15.8801 C   0  0  0  0  0  0  0  0  0  0  0  0
   18.6095  -10.7163  -15.6917 C   0  0  0  0  0  0  0  0  0  0  0  0
   17.3237   -9.9317  -15.7983 C   0  0  0  0  0  0  0  0  0  0  0  0
   16.2089  -10.8360  -15.8039 N   0  0  0  0  0  0  0  0  0  0  0  0
   22.4870   -8.6150  -15.1755 C   0  0  0  0  0  0  0  0  0  0  0  0
   22.8155   -8.8221  -13.9861 O   0  0  0  0  0  0  0  0  0  0  0  0
   22.1733   -4.5834  -16.6965 C   0  0  0  0  0  0  0  0  0  0  0  0
   23.1565   -5.0737  -15.6737 C   0  0  1  0  0  0  0  0  0  0  0  0
   23.5021   -3.9958  -14.8415 O   0  0  0  0  0  0  0  0  0  0  0  0
   22.5451   -6.1326  -14.7579 C   0  0  2  0  0  0  0  0  0  0  0  0
   22.3111   -7.2900  -15.6014 N   0  0  0  0  0  0  0  0  0  0  0  0
   21.3595   -5.6461  -14.0656 C   0  0  0  0  0  0  0  0  0  0  0  0
   20.0823   -6.0810  -14.3789 O   0  0  0  0  0  0  0  0  0  0  0  0
   21.4739   -4.8003  -13.1465 O   0  0  0  0  0  0  0  0  0  0  0  0
  1  2  1  0
  2  3  1  0
  4  3  1  0
  5  1  1  0
  5  4  1  0
  5  6  1  1
  7  6  2  0
  8  6  1  0
  9  8  1  0
  9 10  1  1
 10 11  1  0
 11 12  1  0
 12 13  1  0
 13 14  1  0
 15 21  1  0
 15  9  1  0
 16 15  2  0
 18 20  1  0
 18 17  1  6
 19 18  1  0
 20 22  1  0
 20 21  1  6
 22 23  1  0
 24 22  2  0
M  END
$$$$
