ADF.pdb
     RDKit          3D

 25 25  0  0  1  0  0  0  0  0999 V2000
   28.6200  -17.8767  -23.8948 C   0  0  0  0  0  0  0  0  0  0  0  0
   28.4122  -16.4530  -24.3049 C   0  0  2  0  0  0  0  0  0  0  0  0
   29.4977  -15.9000  -25.0617 N   0  0  0  0  0  0  0  0  0  0  0  0
   28.0913  -15.5758  -23.1345 C   0  0  0  0  0  0  0  0  0  0  0  0
   28.6788  -15.7222  -22.0358 O   0  0  0  0  0  0  0  0  0  0  0  0
   27.1008  -14.5325  -23.2192 N   0  0  0  0  0  0  0  0  0  0  0  0
   26.8022  -13.6626  -22.1228 C   0  0  1  0  0  0  0  0  0  0  0  0
   26.5835  -12.2233  -22.4997 C   0  0  0  0  0  0  0  0  0  0  0  0
   26.3974  -11.3451  -21.3267 C   0  0  0  0  0  0  0  0  0  0  0  0
   27.2491  -11.3751  -20.4096 O   0  0  0  0  0  0  0  0  0  0  0  0
   25.6939  -14.1731  -21.2710 C   0  0  0  0  0  0  0  0  0  0  0  0
   24.6658  -14.7056  -21.7121 O   0  0  0  0  0  0  0  0  0  0  0  0
   25.3223  -10.4886  -21.1962 O   0  0  0  0  0  0  0  0  0  0  0  0
   25.8360  -14.0344  -19.8629 N   0  0  0  0  0  0  0  0  0  0  0  0
   24.8793  -14.6102  -18.9356 C   0  0  1  0  0  0  0  0  0  0  0  0
   25.6886  -15.3996  -17.9266 C   0  0  0  0  0  0  0  0  0  0  0  0
   26.7319  -14.5524  -17.2910 C   0  0  0  0  0  0  0  0  0  0  0  0
   27.8802  -14.2834  -17.9681 C   0  0  0  0  0  0  0  0  0  0  0  0
   28.8948  -13.5005  -17.4425 C   0  0  0  0  0  0  0  0  0  0  0  0
   28.7385  -12.9699  -16.1808 C   0  0  0  0  0  0  0  0  0  0  0  0
   27.5801  -13.2438  -15.5029 C   0  0  0  0  0  0  0  0  0  0  0  0
   26.5666  -14.0214  -16.0189 C   0  0  0  0  0  0  0  0  0  0  0  0
   24.1678  -13.5312  -18.1762 C   0  0  0  0  0  0  0  0  0  0  0  0
   23.1246  -13.8300  -17.3224 O   0  0  0  0  0  0  0  0  0  0  0  0
   24.5532  -12.3468  -18.3433 O   0  0  0  0  0  0  0  0  0  0  0  0
  2  1  1  1
  2  3  1  0
  4  5  2  0
  4  2  1  0
  6  4  1  0
  7  8  1  6
  7  6  1  0
  8  9  1  0
  9 10  2  0
  9 13  1  0
 11  7  1  0
 12 11  2  0
 14 11  1  0
 15 16  1  1
 15 14  1  0
 16 17  1  0
 17 22  2  0
 18 19  2  0
 18 17  1  0
 19 20  1  0
 20 21  2  0
 22 21  1  0
 23 15  1  0
 23 24  1  0
 25 23  2  0
M  END
$$$$
