ADF.pdb
     RDKit          3D

 25 25  0  0  1  0  0  0  0  0999 V2000
   19.9694   -8.9810  -21.7538 C   0  0  0  0  0  0  0  0  0  0  0  0
   21.3650   -9.1338  -21.2369 C   0  0  2  0  0  0  0  0  0  0  0  0
   22.3047   -9.5871  -22.2209 N   0  0  0  0  0  0  0  0  0  0  0  0
   21.4181  -10.0078  -20.0223 C   0  0  0  0  0  0  0  0  0  0  0  0
   20.3682  -10.4473  -19.4948 O   0  0  0  0  0  0  0  0  0  0  0  0
   22.6691  -10.3796  -19.4110 N   0  0  0  0  0  0  0  0  0  0  0  0
   22.7524  -11.3238  -18.3388 C   0  0  1  0  0  0  0  0  0  0  0  0
   23.8076  -12.3817  -18.5092 C   0  0  0  0  0  0  0  0  0  0  0  0
   23.6465  -13.1568  -19.7561 C   0  0  0  0  0  0  0  0  0  0  0  0
   22.4998  -13.5345  -20.0878 O   0  0  0  0  0  0  0  0  0  0  0  0
   22.8519  -10.6703  -17.0056 C   0  0  0  0  0  0  0  0  0  0  0  0
   22.7099  -11.2639  -15.9273 O   0  0  0  0  0  0  0  0  0  0  0  0
   24.7080  -13.4842  -20.5762 O   0  0  0  0  0  0  0  0  0  0  0  0
   23.1273   -9.2753  -16.9814 N   0  0  0  0  0  0  0  0  0  0  0  0
   23.2180   -8.5335  -15.7373 C   0  0  1  0  0  0  0  0  0  0  0  0
   24.5396   -7.7934  -15.7799 C   0  0  0  0  0  0  0  0  0  0  0  0
   25.6814   -8.7363  -15.9113 C   0  0  0  0  0  0  0  0  0  0  0  0
   25.8559   -9.7108  -14.9788 C   0  0  0  0  0  0  0  0  0  0  0  0
   26.8936  -10.6265  -15.0363 C   0  0  0  0  0  0  0  0  0  0  0  0
   27.7893  -10.5507  -16.0802 C   0  0  0  0  0  0  0  0  0  0  0  0
   27.6093   -9.5674  -17.0168 C   0  0  0  0  0  0  0  0  0  0  0  0
   26.5797   -8.6532  -16.9666 C   0  0  0  0  0  0  0  0  0  0  0  0
   22.1388   -7.4956  -15.6637 C   0  0  0  0  0  0  0  0  0  0  0  0
   21.9967   -6.6931  -14.5491 O   0  0  0  0  0  0  0  0  0  0  0  0
   21.3689   -7.3813  -16.6504 O   0  0  0  0  0  0  0  0  0  0  0  0
  2  1  1  6
  2  3  1  0
  4  5  2  0
  4  2  1  0
  6  4  1  0
  7  8  1  6
  7  6  1  0
  8  9  1  0
  9 10  2  0
  9 13  1  0
 11  7  1  0
 12 11  2  0
 14 11  1  0
 15 16  1  6
 15 14  1  0
 16 17  1  0
 17 22  2  0
 18 19  2  0
 18 17  1  0
 19 20  1  0
 20 21  2  0
 22 21  1  0
 23 15  1  0
 23 24  1  0
 25 23  2  0
M  END
$$$$
