ADF.pdb
     RDKit          3D

 25 25  0  0  1  0  0  0  0  0999 V2000
   26.3049  -20.4530  -19.7171 C   0  0  0  0  0  0  0  0  0  0  0  0
   25.1545  -21.3508  -19.3878 C   0  0  2  0  0  0  0  0  0  0  0  0
   24.2020  -21.4915  -20.4507 N   0  0  0  0  0  0  0  0  0  0  0  0
   24.4680  -20.9379  -18.1227 C   0  0  0  0  0  0  0  0  0  0  0  0
   25.0963  -20.8659  -17.0394 O   0  0  0  0  0  0  0  0  0  0  0  0
   23.0656  -20.6073  -18.0953 N   0  0  0  0  0  0  0  0  0  0  0  0
   22.4074  -20.1380  -16.9144 C   0  0  1  0  0  0  0  0  0  0  0  0
   21.6374  -18.8578  -17.0867 C   0  0  0  0  0  0  0  0  0  0  0  0
   22.4869  -17.7324  -17.5265 C   0  0  0  0  0  0  0  0  0  0  0  0
   23.5099  -17.4528  -16.8610 O   0  0  0  0  0  0  0  0  0  0  0  0
   21.5743  -21.1874  -16.2667 C   0  0  0  0  0  0  0  0  0  0  0  0
   20.9991  -22.0967  -16.8810 O   0  0  0  0  0  0  0  0  0  0  0  0
   22.2028  -16.9723  -18.6436 O   0  0  0  0  0  0  0  0  0  0  0  0
   21.4374  -21.1312  -14.8524 N   0  0  0  0  0  0  0  0  0  0  0  0
   20.6102  -22.0758  -14.1244 C   0  0  1  0  0  0  0  0  0  0  0  0
   21.3748  -22.4258  -12.8638 C   0  0  0  0  0  0  0  0  0  0  0  0
   20.6120  -23.3820  -12.0187 C   0  0  0  0  0  0  0  0  0  0  0  0
   20.6390  -24.7086  -12.3171 C   0  0  0  0  0  0  0  0  0  0  0  0
   19.9567  -25.6583  -11.5748 C   0  0  0  0  0  0  0  0  0  0  0  0
   19.2180  -25.2463  -10.4874 C   0  0  0  0  0  0  0  0  0  0  0  0
   19.1939  -23.9091  -10.1910 C   0  0  0  0  0  0  0  0  0  0  0  0
   19.8700  -22.9586  -10.9243 C   0  0  0  0  0  0  0  0  0  0  0  0
   19.3288  -21.4289  -13.6921 C   0  0  0  0  0  0  0  0  0  0  0  0
   19.2922  -20.1006  -13.3169 O   0  0  0  0  0  0  0  0  0  0  0  0
   18.2903  -22.1365  -13.6833 O   0  0  0  0  0  0  0  0  0  0  0  0
  2  1  1  6
  2  3  1  0
  4  5  2  0
  4  2  1  0
  6  4  1  0
  7  8  1  6
  7  6  1  0
  8  9  1  0
  9 10  2  0
  9 13  1  0
 11  7  1  0
 12 11  2  0
 14 11  1  0
 15 16  1  1
 15 14  1  0
 16 17  1  0
 17 22  2  0
 18 19  2  0
 18 17  1  0
 19 20  1  0
 20 21  2  0
 22 21  1  0
 23 15  1  0
 23 24  1  0
 25 23  2  0
M  END
$$$$
