ADF.pdb
     RDKit          3D

 25 25  0  0  1  0  0  0  0  0999 V2000
   16.9187  -12.9235  -16.5860 C   0  0  0  0  0  0  0  0  0  0  0  0
   16.6124  -11.4704  -16.7677 C   0  0  2  0  0  0  0  0  0  0  0  0
   15.5770  -11.2082  -17.7247 N   0  0  0  0  0  0  0  0  0  0  0  0
   17.8397  -10.6778  -17.0958 C   0  0  0  0  0  0  0  0  0  0  0  0
   18.6095  -11.0303  -18.0214 O   0  0  0  0  0  0  0  0  0  0  0  0
   18.1871   -9.4838  -16.3675 N   0  0  0  0  0  0  0  0  0  0  0  0
   19.1767   -8.5593  -16.8303 C   0  0  1  0  0  0  0  0  0  0  0  0
   19.0474   -8.1667  -18.2762 C   0  0  0  0  0  0  0  0  0  0  0  0
   20.1052   -7.2331  -18.7137 C   0  0  0  0  0  0  0  0  0  0  0  0
   19.8337   -6.0145  -18.8060 O   0  0  0  0  0  0  0  0  0  0  0  0
   19.2983   -7.3629  -15.9537 C   0  0  0  0  0  0  0  0  0  0  0  0
   18.3635   -6.5918  -15.6950 O   0  0  0  0  0  0  0  0  0  0  0  0
   21.3853   -7.6458  -19.0260 O   0  0  0  0  0  0  0  0  0  0  0  0
   20.5738   -7.0986  -15.3833 N   0  0  0  0  0  0  0  0  0  0  0  0
   20.7778   -6.0286  -14.4242 C   0  0  1  0  0  0  0  0  0  0  0  0
   21.8288   -6.5248  -13.4519 C   0  0  0  0  0  0  0  0  0  0  0  0
   22.8406   -7.3712  -14.1375 C   0  0  0  0  0  0  0  0  0  0  0  0
   22.8990   -8.7015  -13.8613 C   0  0  0  0  0  0  0  0  0  0  0  0
   23.8117   -9.5528  -14.4620 C   0  0  0  0  0  0  0  0  0  0  0  0
   24.6999   -9.0344  -15.3787 C   0  0  0  0  0  0  0  0  0  0  0  0
   24.6371   -7.6939  -15.6534 C   0  0  0  0  0  0  0  0  0  0  0  0
   23.7322   -6.8409  -15.0602 C   0  0  0  0  0  0  0  0  0  0  0  0
   21.3459   -4.8172  -15.1002 C   0  0  0  0  0  0  0  0  0  0  0  0
   21.6692   -4.8361  -16.4425 O   0  0  0  0  0  0  0  0  0  0  0  0
   21.5172   -3.7852  -14.4040 O   0  0  0  0  0  0  0  0  0  0  0  0
  2  1  1  6
  2  3  1  0
  4  5  2  0
  4  2  1  0
  6  4  1  0
  7  8  1  6
  7  6  1  0
  8  9  1  0
  9 10  2  0
  9 13  1  0
 11  7  1  0
 12 11  2  0
 14 11  1  0
 15 16  1  1
 15 14  1  0
 16 17  1  0
 17 22  2  0
 18 19  2  0
 18 17  1  0
 19 20  1  0
 20 21  2  0
 22 21  1  0
 23 15  1  0
 23 24  1  0
 25 23  2  0
M  END
$$$$
