ADF.pdb
     RDKit          3D

 25 25  0  0  1  0  0  0  0  0999 V2000
   29.5265  -22.0421  -16.5375 C   0  0  0  0  0  0  0  0  0  0  0  0
   28.1738  -22.5087  -16.9744 C   0  0  2  0  0  0  0  0  0  0  0  0
   28.0370  -22.6511  -18.3949 N   0  0  0  0  0  0  0  0  0  0  0  0
   27.0810  -21.6426  -16.4287 C   0  0  0  0  0  0  0  0  0  0  0  0
   26.5560  -20.7445  -17.1298 O   0  0  0  0  0  0  0  0  0  0  0  0
   26.5883  -21.8023  -15.0839 N   0  0  0  0  0  0  0  0  0  0  0  0
   25.3899  -21.1709  -14.6221 C   0  0  1  0  0  0  0  0  0  0  0  0
   24.1849  -21.3870  -15.4955 C   0  0  0  0  0  0  0  0  0  0  0  0
   22.9804  -20.6960  -14.9921 C   0  0  0  0  0  0  0  0  0  0  0  0
   23.0764  -19.5001  -14.6342 O   0  0  0  0  0  0  0  0  0  0  0  0
   25.0892  -21.4829  -13.1985 C   0  0  0  0  0  0  0  0  0  0  0  0
   24.8948  -22.6265  -12.7628 O   0  0  0  0  0  0  0  0  0  0  0  0
   21.7482  -21.3119  -14.8992 O   0  0  0  0  0  0  0  0  0  0  0  0
   25.0231  -20.3903  -12.2907 N   0  0  0  0  0  0  0  0  0  0  0  0
   24.7813  -20.5853  -10.8730 C   0  0  1  0  0  0  0  0  0  0  0  0
   25.4200  -19.4061  -10.1674 C   0  0  0  0  0  0  0  0  0  0  0  0
   26.5662  -19.8383   -9.3249 C   0  0  0  0  0  0  0  0  0  0  0  0
   26.3768  -20.0522   -7.9953 C   0  0  0  0  0  0  0  0  0  0  0  0
   27.3950  -20.4583   -7.1486 C   0  0  0  0  0  0  0  0  0  0  0  0
   28.6545  -20.6551   -7.6711 C   0  0  0  0  0  0  0  0  0  0  0  0
   28.8401  -20.4383   -9.0108 C   0  0  0  0  0  0  0  0  0  0  0  0
   27.8324  -20.0345   -9.8593 C   0  0  0  0  0  0  0  0  0  0  0  0
   23.3128  -20.5279  -10.5770 C   0  0  0  0  0  0  0  0  0  0  0  0
   22.7799  -21.1837   -9.4850 O   0  0  0  0  0  0  0  0  0  0  0  0
   22.5847  -19.8629  -11.3560 O   0  0  0  0  0  0  0  0  0  0  0  0
  2  1  1  6
  2  3  1  0
  4  5  2  0
  4  2  1  0
  6  4  1  0
  7  8  1  6
  7  6  1  0
  8  9  1  0
  9 10  2  0
  9 13  1  0
 11  7  1  0
 12 11  2  0
 14 11  1  0
 15 16  1  1
 15 14  1  0
 16 17  1  0
 17 22  2  0
 18 19  2  0
 18 17  1  0
 19 20  1  0
 20 21  2  0
 22 21  1  0
 23 15  1  0
 23 24  1  0
 25 23  2  0
M  END
$$$$
