ADF.pdb
     RDKit          3D

 25 25  0  0  1  0  0  0  0  0999 V2000
   15.7907  -20.5361    0.5620 C   0  0  0  0  0  0  0  0  0  0  0  0
   16.0809  -20.7390    2.0156 C   0  0  2  0  0  0  0  0  0  0  0  0
   15.2671  -21.7426    2.6379 N   0  0  0  0  0  0  0  0  0  0  0  0
   16.0068  -19.4561    2.7842 C   0  0  0  0  0  0  0  0  0  0  0  0
   16.7439  -18.4837    2.4929 O   0  0  0  0  0  0  0  0  0  0  0  0
   15.0917  -19.2840    3.8841 N   0  0  0  0  0  0  0  0  0  0  0  0
   14.9522  -18.0434    4.5838 C   0  0  1  0  0  0  0  0  0  0  0  0
   13.6056  -17.8223    5.2155 C   0  0  0  0  0  0  0  0  0  0  0  0
   12.5391  -17.5802    4.2226 C   0  0  0  0  0  0  0  0  0  0  0  0
   11.8962  -18.5579    3.7775 O   0  0  0  0  0  0  0  0  0  0  0  0
   16.0521  -17.8076    5.5580 C   0  0  0  0  0  0  0  0  0  0  0  0
   16.8046  -18.6941    5.9859 O   0  0  0  0  0  0  0  0  0  0  0  0
   12.2175  -16.3188    3.7623 O   0  0  0  0  0  0  0  0  0  0  0  0
   16.2405  -16.4759    6.0199 N   0  0  0  0  0  0  0  0  0  0  0  0
   17.2992  -16.1300    6.9504 C   0  0  1  0  0  0  0  0  0  0  0  0
   18.5875  -16.1469    6.1529 C   0  0  0  0  0  0  0  0  0  0  0  0
   18.6153  -15.0494    5.1503 C   0  0  0  0  0  0  0  0  0  0  0  0
   18.7685  -13.7643    5.5683 C   0  0  0  0  0  0  0  0  0  0  0  0
   18.8066  -12.6909    4.6937 C   0  0  0  0  0  0  0  0  0  0  0  0
   18.6845  -12.9303    3.3426 C   0  0  0  0  0  0  0  0  0  0  0  0
   18.5303  -14.2263    2.9267 C   0  0  0  0  0  0  0  0  0  0  0  0
   18.4916  -15.2992    3.7903 C   0  0  0  0  0  0  0  0  0  0  0  0
   17.1179  -14.7308    7.4572 C   0  0  0  0  0  0  0  0  0  0  0  0
   16.1481  -13.9018    6.9292 O   0  0  0  0  0  0  0  0  0  0  0  0
   17.8780  -14.3392    8.3781 O   0  0  0  0  0  0  0  0  0  0  0  0
  2  1  1  6
  2  3  1  0
  4  5  2  0
  4  2  1  0
  6  4  1  0
  7  8  1  1
  7  6  1  0
  8  9  1  0
  9 10  2  0
  9 13  1  0
 11  7  1  0
 12 11  2  0
 14 11  1  0
 15 16  1  6
 15 14  1  0
 16 17  1  0
 17 22  2  0
 18 19  2  0
 18 17  1  0
 19 20  1  0
 20 21  2  0
 22 21  1  0
 23 15  1  0
 23 24  1  0
 25 23  2  0
M  END
$$$$
