ADF.pdb
     RDKit          3D

 25 25  0  0  1  0  0  0  0  0999 V2000
   17.6246  -13.5266  -20.4197 C   0  0  0  0  0  0  0  0  0  0  0  0
   18.3362  -13.0525  -19.1921 C   0  0  2  0  0  0  0  0  0  0  0  0
   17.8859  -13.6740  -17.9806 N   0  0  0  0  0  0  0  0  0  0  0  0
   18.2922  -11.5615  -19.0617 C   0  0  0  0  0  0  0  0  0  0  0  0
   18.7539  -10.8193  -19.9615 O   0  0  0  0  0  0  0  0  0  0  0  0
   17.7212  -10.9190  -17.9050 N   0  0  0  0  0  0  0  0  0  0  0  0
   17.6783   -9.4963  -17.7562 C   0  0  1  0  0  0  0  0  0  0  0  0
   16.3411   -8.8710  -18.0433 C   0  0  0  0  0  0  0  0  0  0  0  0
   16.3405   -7.4061  -17.8542 C   0  0  0  0  0  0  0  0  0  0  0  0
   16.8650   -6.6844  -18.7325 O   0  0  0  0  0  0  0  0  0  0  0  0
   18.2190   -9.0400  -16.4471 C   0  0  0  0  0  0  0  0  0  0  0  0
   17.8876   -9.5175  -15.3528 O   0  0  0  0  0  0  0  0  0  0  0  0
   15.7844   -6.7944  -16.7483 O   0  0  0  0  0  0  0  0  0  0  0  0
   19.1758   -7.9882  -16.4669 N   0  0  0  0  0  0  0  0  0  0  0  0
   19.7386   -7.4409  -15.2462 C   0  0  1  0  0  0  0  0  0  0  0  0
   21.1645   -7.9484  -15.1714 C   0  0  0  0  0  0  0  0  0  0  0  0
   21.8152   -7.5418  -13.8981 C   0  0  0  0  0  0  0  0  0  0  0  0
   21.9116   -8.4376  -12.8794 C   0  0  0  0  0  0  0  0  0  0  0  0
   22.5063   -8.1326  -11.6662 C   0  0  0  0  0  0  0  0  0  0  0  0
   23.0234   -6.8695  -11.4790 C   0  0  0  0  0  0  0  0  0  0  0  0
   22.9238   -5.9708  -12.5080 C   0  0  0  0  0  0  0  0  0  0  0  0
   22.3339   -6.2667  -13.7174 C   0  0  0  0  0  0  0  0  0  0  0  0
   19.8111   -5.9456  -15.3246 C   0  0  0  0  0  0  0  0  0  0  0  0
   19.8917   -5.1752  -14.1816 O   0  0  0  0  0  0  0  0  0  0  0  0
   19.7962   -5.4182  -16.4652 O   0  0  0  0  0  0  0  0  0  0  0  0
  2  1  1  6
  2  3  1  0
  4  5  2  0
  4  2  1  0
  6  4  1  0
  7  8  1  1
  7  6  1  0
  8  9  1  0
  9 10  2  0
  9 13  1  0
 11  7  1  0
 12 11  2  0
 14 11  1  0
 15 16  1  6
 15 14  1  0
 16 17  1  0
 17 22  2  0
 18 19  2  0
 18 17  1  0
 19 20  1  0
 20 21  2  0
 22 21  1  0
 23 15  1  0
 23 24  1  0
 25 23  2  0
M  END
$$$$
