ADF.pdb
     RDKit          3D

 25 25  0  0  1  0  0  0  0  0999 V2000
   17.4590  -12.6989  -18.4817 C   0  0  0  0  0  0  0  0  0  0  0  0
   18.7093  -11.9556  -18.1314 C   0  0  2  0  0  0  0  0  0  0  0  0
   19.4890  -12.5791  -17.1018 N   0  0  0  0  0  0  0  0  0  0  0  0
   18.4302  -10.5265  -17.7821 C   0  0  0  0  0  0  0  0  0  0  0  0
   17.7134   -9.8082  -18.5195 O   0  0  0  0  0  0  0  0  0  0  0  0
   18.9690   -9.9189  -16.5916 N   0  0  0  0  0  0  0  0  0  0  0  0
   18.7481   -8.5443  -16.2604 C   0  0  1  0  0  0  0  0  0  0  0  0
   17.3029   -8.1324  -16.2034 C   0  0  0  0  0  0  0  0  0  0  0  0
   17.1220   -6.7342  -15.7629 C   0  0  0  0  0  0  0  0  0  0  0  0
   16.6747   -6.5169  -14.6140 O   0  0  0  0  0  0  0  0  0  0  0  0
   19.4788   -8.1254  -15.0335 C   0  0  0  0  0  0  0  0  0  0  0  0
   19.2138   -8.5313  -13.8931 O   0  0  0  0  0  0  0  0  0  0  0  0
   17.4260   -5.6518  -16.5644 O   0  0  0  0  0  0  0  0  0  0  0  0
   20.5464   -7.1999  -15.1936 N   0  0  0  0  0  0  0  0  0  0  0  0
   21.4323   -6.8545  -14.0971 C   0  0  1  0  0  0  0  0  0  0  0  0
   22.7621   -7.5139  -14.4021 C   0  0  0  0  0  0  0  0  0  0  0  0
   23.2700   -7.1097  -15.7397 C   0  0  0  0  0  0  0  0  0  0  0  0
   24.0333   -5.9902  -15.8559 C   0  0  0  0  0  0  0  0  0  0  0  0
   24.5439   -5.5530  -17.0670 C   0  0  0  0  0  0  0  0  0  0  0  0
   24.2693   -6.2798  -18.2046 C   0  0  0  0  0  0  0  0  0  0  0  0
   23.5000   -7.4066  -18.0823 C   0  0  0  0  0  0  0  0  0  0  0  0
   22.9887   -7.8478  -16.8814 C   0  0  0  0  0  0  0  0  0  0  0  0
   21.6760   -5.3758  -14.0633 C   0  0  0  0  0  0  0  0  0  0  0  0
   21.1392   -4.5429  -15.0250 O   0  0  0  0  0  0  0  0  0  0  0  0
   22.3847   -4.9209  -13.1305 O   0  0  0  0  0  0  0  0  0  0  0  0
  2  1  1  1
  2  3  1  0
  4  5  2  0
  4  2  1  0
  6  4  1  0
  7  8  1  1
  7  6  1  0
  8  9  1  0
  9 10  2  0
  9 13  1  0
 11  7  1  0
 12 11  2  0
 14 11  1  0
 15 16  1  6
 15 14  1  0
 16 17  1  0
 17 22  2  0
 18 19  2  0
 18 17  1  0
 19 20  1  0
 20 21  2  0
 22 21  1  0
 23 15  1  0
 23 24  1  0
 25 23  2  0
M  END
$$$$
