ADF.pdb
     RDKit          3D

 25 25  0  0  1  0  0  0  0  0999 V2000
   23.3946  -18.5467  -17.1961 C   0  0  0  0  0  0  0  0  0  0  0  0
   23.6026  -18.6735  -15.7200 C   0  0  2  0  0  0  0  0  0  0  0  0
   24.2379  -17.5358  -15.1210 N   0  0  0  0  0  0  0  0  0  0  0  0
   24.3376  -19.9289  -15.3653 C   0  0  0  0  0  0  0  0  0  0  0  0
   23.8756  -21.0560  -15.6652 O   0  0  0  0  0  0  0  0  0  0  0  0
   25.5990  -19.8970  -14.6693 N   0  0  0  0  0  0  0  0  0  0  0  0
   26.3423  -21.0818  -14.3663 C   0  0  1  0  0  0  0  0  0  0  0  0
   27.7936  -21.0345  -14.7575 C   0  0  0  0  0  0  0  0  0  0  0  0
   28.0046  -20.4876  -16.1132 C   0  0  0  0  0  0  0  0  0  0  0  0
   27.5672  -21.1273  -17.0965 O   0  0  0  0  0  0  0  0  0  0  0  0
   26.1770  -21.5168  -12.9528 C   0  0  0  0  0  0  0  0  0  0  0  0
   26.6382  -22.5697  -12.4903 O   0  0  0  0  0  0  0  0  0  0  0  0
   28.6646  -19.2973  -16.3457 O   0  0  0  0  0  0  0  0  0  0  0  0
   25.4403  -20.6610  -12.0885 N   0  0  0  0  0  0  0  0  0  0  0  0
   25.2158  -20.9902  -10.6929 C   0  0  1  0  0  0  0  0  0  0  0  0
   25.7190  -19.8066   -9.8915 C   0  0  0  0  0  0  0  0  0  0  0  0
   27.0254  -20.1071   -9.2487 C   0  0  0  0  0  0  0  0  0  0  0  0
   28.0154  -20.6837   -9.9815 C   0  0  0  0  0  0  0  0  0  0  0  0
   29.2585  -20.9901   -9.4529 C   0  0  0  0  0  0  0  0  0  0  0  0
   29.5070  -20.7004   -8.1292 C   0  0  0  0  0  0  0  0  0  0  0  0
   28.5066  -20.1198   -7.3953 C   0  0  0  0  0  0  0  0  0  0  0  0
   27.2679  -19.8119   -7.9140 C   0  0  0  0  0  0  0  0  0  0  0  0
   23.7488  -21.1160  -10.4113 C   0  0  0  0  0  0  0  0  0  0  0  0
   23.2947  -21.6232   -9.2101 O   0  0  0  0  0  0  0  0  0  0  0  0
   22.9477  -20.7441  -11.3053 O   0  0  0  0  0  0  0  0  0  0  0  0
  2  1  1  6
  2  3  1  0
  4  5  2  0
  4  2  1  0
  6  4  1  0
  7  8  1  1
  7  6  1  0
  8  9  1  0
  9 10  2  0
  9 13  1  0
 11  7  1  0
 12 11  2  0
 14 11  1  0
 15 16  1  1
 15 14  1  0
 16 17  1  0
 17 22  2  0
 18 19  2  0
 18 17  1  0
 19 20  1  0
 20 21  2  0
 22 21  1  0
 23 15  1  0
 23 24  1  0
 25 23  2  0
M  END
$$$$
