ADF.pdb
     RDKit          3D

 25 25  0  0  1  0  0  0  0  0999 V2000
   21.0140  -18.9721  -21.5494 C   0  0  0  0  0  0  0  0  0  0  0  0
   21.1843  -18.3437  -20.2024 C   0  0  2  0  0  0  0  0  0  0  0  0
   21.7963  -17.0472  -20.2371 N   0  0  0  0  0  0  0  0  0  0  0  0
   21.9179  -19.2424  -19.2556 C   0  0  0  0  0  0  0  0  0  0  0  0
   21.4654  -20.3730  -18.9547 O   0  0  0  0  0  0  0  0  0  0  0  0
   23.1670  -18.8501  -18.6535 N   0  0  0  0  0  0  0  0  0  0  0  0
   23.8249  -19.6409  -17.6586 C   0  0  1  0  0  0  0  0  0  0  0  0
   25.3262  -19.6460  -17.7467 C   0  0  0  0  0  0  0  0  0  0  0  0
   25.9514  -20.6160  -16.8247 C   0  0  0  0  0  0  0  0  0  0  0  0
   25.2145  -21.3034  -16.0818 O   0  0  0  0  0  0  0  0  0  0  0  0
   23.3650  -19.3256  -16.2789 C   0  0  0  0  0  0  0  0  0  0  0  0
   23.9530  -18.5531  -15.5089 O   0  0  0  0  0  0  0  0  0  0  0  0
   27.3176  -20.7999  -16.7457 O   0  0  0  0  0  0  0  0  0  0  0  0
   22.1741  -19.9580  -15.8274 N   0  0  0  0  0  0  0  0  0  0  0  0
   21.5455  -19.5995  -14.5693 C   0  0  1  0  0  0  0  0  0  0  0  0
   21.0708  -18.1688  -14.7245 C   0  0  0  0  0  0  0  0  0  0  0  0
   19.8959  -18.0861  -15.6318 C   0  0  0  0  0  0  0  0  0  0  0  0
   18.6642  -18.4247  -15.1650 C   0  0  0  0  0  0  0  0  0  0  0  0
   17.5239  -18.3702  -15.9494 C   0  0  0  0  0  0  0  0  0  0  0  0
   17.6375  -17.9562  -17.2584 C   0  0  0  0  0  0  0  0  0  0  0  0
   18.8802  -17.6164  -17.7239 C   0  0  0  0  0  0  0  0  0  0  0  0
   20.0188  -17.6679  -16.9499 C   0  0  0  0  0  0  0  0  0  0  0  0
   20.3273  -20.4401  -14.3314 C   0  0  0  0  0  0  0  0  0  0  0  0
   19.6438  -20.3812  -13.1332 O   0  0  0  0  0  0  0  0  0  0  0  0
   19.9502  -21.1992  -15.2593 O   0  0  0  0  0  0  0  0  0  0  0  0
  2  1  1  6
  2  3  1  0
  4  5  2  0
  4  2  1  0
  6  4  1  0
  7  8  1  1
  7  6  1  0
  8  9  1  0
  9 10  2  0
  9 13  1  0
 11  7  1  0
 12 11  2  0
 14 11  1  0
 15 16  1  6
 15 14  1  0
 16 17  1  0
 17 22  2  0
 18 19  2  0
 18 17  1  0
 19 20  1  0
 20 21  2  0
 22 21  1  0
 23 15  1  0
 23 24  1  0
 25 23  2  0
M  END
$$$$
