ADF.pdb
     RDKit          3D

 25 25  0  0  1  0  0  0  0  0999 V2000
   20.9471    7.0068   -5.4751 C   0  0  0  0  0  0  0  0  0  0  0  0
   22.0840    6.9467   -6.4456 C   0  0  2  0  0  0  0  0  0  0  0  0
   21.7176    7.2715   -7.7936 N   0  0  0  0  0  0  0  0  0  0  0  0
   22.7883    5.6260   -6.3998 C   0  0  0  0  0  0  0  0  0  0  0  0
   22.1546    4.5612   -6.2043 O   0  0  0  0  0  0  0  0  0  0  0  0
   24.2146    5.5219   -6.5772 N   0  0  0  0  0  0  0  0  0  0  0  0
   24.9026    4.2670   -6.5699 C   0  0  1  0  0  0  0  0  0  0  0  0
   26.1155    4.2063   -7.4568 C   0  0  0  0  0  0  0  0  0  0  0  0
   26.7044    2.8537   -7.5313 C   0  0  0  0  0  0  0  0  0  0  0  0
   25.9427    1.8610   -7.4876 O   0  0  0  0  0  0  0  0  0  0  0  0
   25.2138    3.7916   -5.1945 C   0  0  0  0  0  0  0  0  0  0  0  0
   25.5968    4.5273   -4.2740 O   0  0  0  0  0  0  0  0  0  0  0  0
   28.0625    2.6341   -7.6483 O   0  0  0  0  0  0  0  0  0  0  0  0
   25.0581    2.4025   -4.9333 N   0  0  0  0  0  0  0  0  0  0  0  0
   25.2831    1.8407   -3.6142 C   0  0  1  0  0  0  0  0  0  0  0  0
   24.5479    0.5159   -3.5860 C   0  0  0  0  0  0  0  0  0  0  0  0
   24.6094   -0.1060   -2.2370 C   0  0  0  0  0  0  0  0  0  0  0  0
   23.7468    0.3060   -1.2697 C   0  0  0  0  0  0  0  0  0  0  0  0
   23.7424   -0.2282    0.0083 C   0  0  0  0  0  0  0  0  0  0  0  0
   24.6484   -1.2190    0.3170 C   0  0  0  0  0  0  0  0  0  0  0  0
   25.5152   -1.6305   -0.6607 C   0  0  0  0  0  0  0  0  0  0  0  0
   25.5256   -1.1041   -1.9339 C   0  0  0  0  0  0  0  0  0  0  0  0
   26.7373    1.5372   -3.4126 C   0  0  0  0  0  0  0  0  0  0  0  0
   27.2912    1.5114   -2.1480 O   0  0  0  0  0  0  0  0  0  0  0  0
   27.4337    1.3072   -4.4330 O   0  0  0  0  0  0  0  0  0  0  0  0
  2  1  1  1
  2  3  1  0
  4  5  2  0
  4  2  1  0
  6  4  1  0
  7  8  1  6
  7  6  1  0
  8  9  1  0
  9 10  2  0
  9 13  1  0
 11  7  1  0
 12 11  2  0
 14 11  1  0
 15 16  1  6
 15 14  1  0
 16 17  1  0
 17 22  2  0
 18 19  2  0
 18 17  1  0
 19 20  1  0
 20 21  2  0
 22 21  1  0
 23 15  1  0
 23 24  1  0
 25 23  2  0
M  END
$$$$
