ADF.pdb
     RDKit          3D

 25 25  0  0  1  0  0  0  0  0999 V2000
   27.7637  -17.8471  -15.7531 C   0  0  0  0  0  0  0  0  0  0  0  0
   28.0933  -18.9518  -14.7996 C   0  0  2  0  0  0  0  0  0  0  0  0
   28.2067  -20.2409  -15.4177 N   0  0  0  0  0  0  0  0  0  0  0  0
   27.1320  -19.0052  -13.6528 C   0  0  0  0  0  0  0  0  0  0  0  0
   26.8333  -17.9701  -13.0100 O   0  0  0  0  0  0  0  0  0  0  0  0
   26.5124  -20.2394  -13.2409 N   0  0  0  0  0  0  0  0  0  0  0  0
   25.5603  -20.3054  -12.1745 C   0  0  1  0  0  0  0  0  0  0  0  0
   24.2735  -21.0034  -12.5188 C   0  0  0  0  0  0  0  0  0  0  0  0
   23.2533  -20.8816  -11.4576 C   0  0  0  0  0  0  0  0  0  0  0  0
   23.1713  -21.7837  -10.5934 O   0  0  0  0  0  0  0  0  0  0  0  0
   26.1457  -20.8401  -10.9152 C   0  0  0  0  0  0  0  0  0  0  0  0
   26.7516  -21.9177  -10.8322 O   0  0  0  0  0  0  0  0  0  0  0  0
   22.3831  -19.8128  -11.3752 O   0  0  0  0  0  0  0  0  0  0  0  0
   25.9926  -20.0551   -9.7394 N   0  0  0  0  0  0  0  0  0  0  0  0
   26.5703  -20.4557   -8.4697 C   0  0  1  0  0  0  0  0  0  0  0  0
   27.2327  -19.2194   -7.8960 C   0  0  0  0  0  0  0  0  0  0  0  0
   27.9078  -19.5193   -6.6058 C   0  0  0  0  0  0  0  0  0  0  0  0
   27.2302  -19.3464   -5.4394 C   0  0  0  0  0  0  0  0  0  0  0  0
   27.7915  -19.6075   -4.2003 C   0  0  0  0  0  0  0  0  0  0  0  0
   29.0909  -20.0614   -4.1421 C   0  0  0  0  0  0  0  0  0  0  0  0
   29.7692  -20.2338   -5.3197 C   0  0  0  0  0  0  0  0  0  0  0  0
   29.2178  -19.9765   -6.5558 C   0  0  0  0  0  0  0  0  0  0  0  0
   25.4952  -20.8614   -7.5071 C   0  0  0  0  0  0  0  0  0  0  0  0
   25.7518  -21.7579   -6.4887 O   0  0  0  0  0  0  0  0  0  0  0  0
   24.3538  -20.3579   -7.6588 O   0  0  0  0  0  0  0  0  0  0  0  0
  2  1  1  6
  2  3  1  0
  4  5  2  0
  4  2  1  0
  6  4  1  0
  7  8  1  6
  7  6  1  0
  8  9  1  0
  9 10  2  0
  9 13  1  0
 11  7  1  0
 12 11  2  0
 14 11  1  0
 15 16  1  1
 15 14  1  0
 16 17  1  0
 17 22  2  0
 18 19  2  0
 18 17  1  0
 19 20  1  0
 20 21  2  0
 22 21  1  0
 23 15  1  0
 23 24  1  0
 25 23  2  0
M  END
$$$$
