AYD.pdb
     RDKit          3D

 26 26  0  0  1  0  0  0  0  0999 V2000
    9.7263  -20.0288   19.4022 C   0  0  0  0  0  0  0  0  0  0  0  0
    9.4340  -18.5814   19.1012 C   0  0  2  0  0  0  0  0  0  0  0  0
    9.8848  -18.1754   17.8111 N   0  0  0  0  0  0  0  0  0  0  0  0
    9.9103  -17.6656   20.1456 C   0  0  0  0  0  0  0  0  0  0  0  0
   11.0339  -17.0902   19.9208 O   0  0  0  0  0  0  0  0  0  0  0  0
    6.9460  -11.9864   18.4808 O   0  0  0  0  0  0  0  0  0  0  0  0
    7.3653  -12.8354   19.5063 C   0  0  0  0  0  0  0  0  0  0  0  0
    8.6391  -12.7803   20.0285 C   0  0  0  0  0  0  0  0  0  0  0  0
    9.0519  -13.6191   21.0410 C   0  0  0  0  0  0  0  0  0  0  0  0
    8.1917  -14.5752   21.5927 C   0  0  0  0  0  0  0  0  0  0  0  0
    8.6338  -15.4952   22.6530 C   0  0  0  0  0  0  0  0  0  0  0  0
    9.7401  -16.4300   22.3312 C   0  0  2  0  0  0  0  0  0  0  0  0
    9.2125  -17.3967   21.3474 N   0  0  0  0  0  0  0  0  0  0  0  0
   10.2580  -17.2291   23.4538 C   0  0  0  0  0  0  0  0  0  0  0  0
    9.6486  -18.2964   23.8312 O   0  0  0  0  0  0  0  0  0  0  0  0
    6.9242  -14.6128   21.0561 C   0  0  0  0  0  0  0  0  0  0  0  0
    6.5113  -13.7741   20.0437 C   0  0  0  0  0  0  0  0  0  0  0  0
   11.4267  -16.9498   24.2166 N   0  0  0  0  0  0  0  0  0  0  0  0
   11.9407  -17.8717   25.2092 C   0  0  1  0  0  0  0  0  0  0  0  0
   13.4399  -17.7137   25.3851 C   0  0  0  0  0  0  0  0  0  0  0  0
   14.1787  -17.6425   24.1263 C   0  0  0  0  0  0  0  0  0  0  0  0
   14.0104  -18.4735   23.2087 O   0  0  0  0  0  0  0  0  0  0  0  0
   11.2345  -17.8444   26.4928 C   0  0  0  0  0  0  0  0  0  0  0  0
   10.3551  -16.9777   26.6991 O   0  0  0  0  0  0  0  0  0  0  0  0
   15.0951  -16.6254   23.9378 O   0  0  0  0  0  0  0  0  0  0  0  0
   11.4759  -18.7336   27.5253 O   0  0  0  0  0  0  0  0  0  0  0  0
  2  1  1  1
  2  3  1  0
  4  2  1  0
  5  4  2  0
  6  7  1  0
  7  8  2  0
  8  9  1  0
 10 11  1  0
 10  9  2  0
 12 11  1  1
 12 13  1  0
 13  4  1  0
 14 12  1  0
 14 15  2  0
 16 10  1  0
 17 16  2  0
 17  7  1  0
 18 14  1  0
 19 18  1  0
 19 20  1  1
 20 21  1  0
 21 22  2  0
 21 25  1  0
 23 19  1  0
 24 23  2  0
 26 23  1  0
M  END
$$$$
