AYD.pdb
     RDKit          3D

 26 26  0  0  1  0  0  0  0  0999 V2000
    8.5416  -18.4114   19.0781 C   0  0  0  0  0  0  0  0  0  0  0  0
    8.6508  -16.9185   18.9045 C   0  0  2  0  0  0  0  0  0  0  0  0
    9.6007  -16.5381   17.9117 N   0  0  0  0  0  0  0  0  0  0  0  0
    8.8828  -16.2046   20.1664 C   0  0  0  0  0  0  0  0  0  0  0  0
   10.1033  -15.9185   20.4358 O   0  0  0  0  0  0  0  0  0  0  0  0
    6.9850  -12.2135   28.0238 O   0  0  0  0  0  0  0  0  0  0  0  0
    6.9548  -12.7793   26.7482 C   0  0  0  0  0  0  0  0  0  0  0  0
    6.4963  -14.0593   26.5250 C   0  0  0  0  0  0  0  0  0  0  0  0
    6.4669  -14.6168   25.2650 C   0  0  0  0  0  0  0  0  0  0  0  0
    6.9044  -13.9055   24.1421 C   0  0  0  0  0  0  0  0  0  0  0  0
    6.9049  -14.5043   22.7976 C   0  0  0  0  0  0  0  0  0  0  0  0
    8.1741  -15.1016   22.3144 C   0  0  2  0  0  0  0  0  0  0  0  0
    7.8588  -15.8298   21.0691 N   0  0  0  0  0  0  0  0  0  0  0  0
    8.8103  -16.0802   23.2115 C   0  0  0  0  0  0  0  0  0  0  0  0
    8.3912  -17.2948   23.2550 O   0  0  0  0  0  0  0  0  0  0  0  0
    7.3582  -12.6290   24.3881 C   0  0  0  0  0  0  0  0  0  0  0  0
    7.3876  -12.0714   25.6479 C   0  0  0  0  0  0  0  0  0  0  0  0
    9.9044  -15.8316   24.0873 N   0  0  0  0  0  0  0  0  0  0  0  0
   10.3976  -16.8323   25.0117 C   0  0  1  0  0  0  0  0  0  0  0  0
   11.9107  -16.9355   24.9578 C   0  0  0  0  0  0  0  0  0  0  0  0
   12.4306  -17.3226   23.6481 C   0  0  0  0  0  0  0  0  0  0  0  0
   13.1802  -16.5763   22.9832 O   0  0  0  0  0  0  0  0  0  0  0  0
    9.9087  -16.6891   26.3857 C   0  0  0  0  0  0  0  0  0  0  0  0
    9.4776  -17.6917   26.9988 O   0  0  0  0  0  0  0  0  0  0  0  0
   12.0862  -18.5531   23.1216 O   0  0  0  0  0  0  0  0  0  0  0  0
    9.8882  -15.4900   27.0763 O   0  0  0  0  0  0  0  0  0  0  0  0
  2  1  1  1
  2  3  1  0
  4  2  1  0
  5  4  2  0
  6  7  1  0
  7  8  2  0
  8  9  1  0
 10 11  1  0
 10  9  2  0
 12 11  1  1
 12 13  1  0
 13  4  1  0
 14 12  1  0
 14 15  2  0
 16 10  1  0
 17 16  2  0
 17  7  1  0
 18 14  1  0
 19 18  1  0
 19 20  1  1
 20 21  1  0
 21 22  2  0
 21 25  1  0
 23 19  1  0
 24 23  2  0
 26 23  1  0
M  END
$$$$
