AYD.pdb
     RDKit          3D

 26 26  0  0  1  0  0  0  0  0999 V2000
   11.2312  -21.5390   23.3991 C   0  0  0  0  0  0  0  0  0  0  0  0
   11.3515  -21.2443   24.8721 C   0  0  2  0  0  0  0  0  0  0  0  0
   10.0961  -20.9836   25.4954 N   0  0  0  0  0  0  0  0  0  0  0  0
   12.3263  -20.1883   25.1732 C   0  0  0  0  0  0  0  0  0  0  0  0
   12.0011  -19.0017   24.8124 O   0  0  0  0  0  0  0  0  0  0  0  0
   10.8634  -17.2461   30.9775 O   0  0  0  0  0  0  0  0  0  0  0  0
   11.8371  -17.7435   30.1099 C   0  0  0  0  0  0  0  0  0  0  0  0
   12.3850  -18.9982   30.2653 C   0  0  0  0  0  0  0  0  0  0  0  0
   13.3464  -19.4882   29.4081 C   0  0  0  0  0  0  0  0  0  0  0  0
   13.8170  -18.7304   28.3299 C   0  0  0  0  0  0  0  0  0  0  0  0
   14.8653  -19.2342   27.4279 C   0  0  0  0  0  0  0  0  0  0  0  0
   14.5436  -19.3153   25.9818 C   0  0  2  0  0  0  0  0  0  0  0  0
   13.5655  -20.4098   25.8206 N   0  0  0  0  0  0  0  0  0  0  0  0
   15.6678  -19.6352   25.0868 C   0  0  0  0  0  0  0  0  0  0  0  0
   16.5585  -20.4931   25.4384 O   0  0  0  0  0  0  0  0  0  0  0  0
   13.2561  -17.4804   28.1935 C   0  0  0  0  0  0  0  0  0  0  0  0
   12.2948  -16.9903   29.0506 C   0  0  0  0  0  0  0  0  0  0  0  0
   15.9007  -19.0800   23.7972 N   0  0  0  0  0  0  0  0  0  0  0  0
   17.0609  -19.4297   23.0028 C   0  0  1  0  0  0  0  0  0  0  0  0
   16.9107  -18.9567   21.5686 C   0  0  0  0  0  0  0  0  0  0  0  0
   17.9561  -19.4458   20.6722 C   0  0  0  0  0  0  0  0  0  0  0  0
   18.8991  -20.1585   21.0769 O   0  0  0  0  0  0  0  0  0  0  0  0
   18.3437  -19.0208   23.5811 C   0  0  0  0  0  0  0  0  0  0  0  0
   19.3283  -19.7909   23.5143 O   0  0  0  0  0  0  0  0  0  0  0  0
   17.9063  -19.1131   19.3318 O   0  0  0  0  0  0  0  0  0  0  0  0
   18.5527  -17.8086   24.2151 O   0  0  0  0  0  0  0  0  0  0  0  0
  2  1  1  6
  2  3  1  0
  4  2  1  0
  5  4  2  0
  6  7  1  0
  7  8  2  0
  8  9  1  0
 10 11  1  0
 10  9  2  0
 12 11  1  1
 12 13  1  0
 13  4  1  0
 14 12  1  0
 14 15  2  0
 16 10  1  0
 17 16  2  0
 17  7  1  0
 18 14  1  0
 19 18  1  0
 19 20  1  6
 20 21  1  0
 21 22  2  0
 21 25  1  0
 23 19  1  0
 24 23  2  0
 26 23  1  0
M  END
$$$$
