AYD.pdb
     RDKit          3D

 26 26  0  0  1  0  0  0  0  0999 V2000
    7.9176  -18.0593   19.2004 C   0  0  0  0  0  0  0  0  0  0  0  0
    8.6155  -16.7272   19.1038 C   0  0  2  0  0  0  0  0  0  0  0  0
    9.7989  -16.7711   18.3099 N   0  0  0  0  0  0  0  0  0  0  0  0
    8.8731  -16.1127   20.4122 C   0  0  0  0  0  0  0  0  0  0  0  0
   10.0599  -16.2530   20.8768 O   0  0  0  0  0  0  0  0  0  0  0  0
    6.9057  -11.9080   28.1801 O   0  0  0  0  0  0  0  0  0  0  0  0
    6.9709  -12.3944   26.8734 C   0  0  0  0  0  0  0  0  0  0  0  0
    7.7489  -11.7958   25.9066 C   0  0  0  0  0  0  0  0  0  0  0  0
    7.8124  -12.2770   24.6168 C   0  0  0  0  0  0  0  0  0  0  0  0
    7.0847  -13.4054   24.2225 C   0  0  0  0  0  0  0  0  0  0  0  0
    7.1232  -13.9076   22.8395 C   0  0  0  0  0  0  0  0  0  0  0  0
    8.2497  -14.7976   22.4652 C   0  0  2  0  0  0  0  0  0  0  0  0
    7.9072  -15.3972   21.1599 N   0  0  0  0  0  0  0  0  0  0  0  0
    8.5142  -15.9232   23.3764 C   0  0  0  0  0  0  0  0  0  0  0  0
    7.8091  -16.9962   23.3102 O   0  0  0  0  0  0  0  0  0  0  0  0
    6.3144  -13.9875   25.2041 C   0  0  0  0  0  0  0  0  0  0  0  0
    6.2508  -13.5064   26.4938 C   0  0  0  0  0  0  0  0  0  0  0  0
    9.5213  -15.9736   24.3808 N   0  0  0  0  0  0  0  0  0  0  0  0
    9.7599  -17.1600   25.1776 C   0  0  1  0  0  0  0  0  0  0  0  0
   10.7297  -18.1021   24.4881 C   0  0  0  0  0  0  0  0  0  0  0  0
   11.0519  -19.2944   25.2690 C   0  0  0  0  0  0  0  0  0  0  0  0
   10.4742  -19.5613   26.3441 O   0  0  0  0  0  0  0  0  0  0  0  0
   10.1485  -16.8963   26.5656 C   0  0  0  0  0  0  0  0  0  0  0  0
   10.7505  -15.8365   26.8510 O   0  0  0  0  0  0  0  0  0  0  0  0
   12.0266  -20.1597   24.8093 O   0  0  0  0  0  0  0  0  0  0  0  0
    9.8910  -17.7595   27.6161 O   0  0  0  0  0  0  0  0  0  0  0  0
  2  1  1  1
  2  3  1  0
  4  2  1  0
  5  4  2  0
  6  7  1  0
  7  8  2  0
  8  9  1  0
 10 11  1  0
 10  9  2  0
 12 11  1  1
 12 13  1  0
 13  4  1  0
 14 12  1  0
 14 15  2  0
 16 10  1  0
 17 16  2  0
 17  7  1  0
 18 14  1  0
 19 18  1  0
 19 20  1  6
 20 21  1  0
 21 22  2  0
 21 25  1  0
 23 19  1  0
 24 23  2  0
 26 23  1  0
M  END
$$$$
