AYD.pdb
     RDKit          3D

 26 26  0  0  1  0  0  0  0  0999 V2000
    9.6252  -16.2916   18.0195 C   0  0  0  0  0  0  0  0  0  0  0  0
    9.4037  -17.1346   19.2489 C   0  0  2  0  0  0  0  0  0  0  0  0
    8.1820  -17.8685   19.2121 N   0  0  0  0  0  0  0  0  0  0  0  0
    9.5344  -16.3780   20.5005 C   0  0  0  0  0  0  0  0  0  0  0  0
   10.7118  -15.9567   20.7840 O   0  0  0  0  0  0  0  0  0  0  0  0
    6.7496  -11.7408   27.7548 O   0  0  0  0  0  0  0  0  0  0  0  0
    6.9070  -12.4362   26.5548 C   0  0  0  0  0  0  0  0  0  0  0  0
    7.5446  -11.8834   25.4657 C   0  0  0  0  0  0  0  0  0  0  0  0
    7.6993  -12.5711   24.2814 C   0  0  0  0  0  0  0  0  0  0  0  0
    7.2131  -13.8740   24.1255 C   0  0  0  0  0  0  0  0  0  0  0  0
    7.3472  -14.6040   22.8545 C   0  0  0  0  0  0  0  0  0  0  0  0
    8.6531  -15.2477   22.5689 C   0  0  2  0  0  0  0  0  0  0  0  0
    8.4598  -16.1008   21.3792 N   0  0  0  0  0  0  0  0  0  0  0  0
    9.1837  -16.1281   23.6227 C   0  0  0  0  0  0  0  0  0  0  0  0
    8.6496  -17.2763   23.8443 O   0  0  0  0  0  0  0  0  0  0  0  0
    6.5797  -14.4066   25.2259 C   0  0  0  0  0  0  0  0  0  0  0  0
    6.4249  -13.7191   26.4101 C   0  0  0  0  0  0  0  0  0  0  0  0
   10.2880  -15.8480   24.4759 N   0  0  0  0  0  0  0  0  0  0  0  0
   10.7605  -16.7953   25.4651 C   0  0  1  0  0  0  0  0  0  0  0  0
   12.2763  -16.8694   25.4784 C   0  0  0  0  0  0  0  0  0  0  0  0
   12.8693  -17.0854   24.1605 C   0  0  0  0  0  0  0  0  0  0  0  0
   13.6262  -16.2471   23.6264 O   0  0  0  0  0  0  0  0  0  0  0  0
   10.2116  -16.6002   26.8097 C   0  0  0  0  0  0  0  0  0  0  0  0
    9.5697  -15.5582   27.0729 O   0  0  0  0  0  0  0  0  0  0  0  0
   12.5881  -18.2530   23.4766 O   0  0  0  0  0  0  0  0  0  0  0  0
   10.3551  -17.5113   27.8413 O   0  0  0  0  0  0  0  0  0  0  0  0
  2  1  1  6
  2  3  1  0
  4  2  1  0
  5  4  2  0
  6  7  1  0
  7  8  2  0
  8  9  1  0
 10 11  1  0
 10  9  2  0
 12 11  1  1
 12 13  1  0
 13  4  1  0
 14 12  1  0
 14 15  2  0
 16 10  1  0
 17 16  2  0
 17  7  1  0
 18 14  1  0
 19 18  1  0
 19 20  1  1
 20 21  1  0
 21 22  2  0
 21 25  1  0
 23 19  1  0
 24 23  2  0
 26 23  1  0
M  END
$$$$
