AYD.pdb
     RDKit          3D

 26 26  0  0  1  0  0  0  0  0999 V2000
    9.3838  -19.0046   19.6798 C   0  0  0  0  0  0  0  0  0  0  0  0
    9.1804  -17.5617   19.2958 C   0  0  2  0  0  0  0  0  0  0  0  0
   10.0218  -17.1434   18.2236 N   0  0  0  0  0  0  0  0  0  0  0  0
    9.2716  -16.6411   20.4361 C   0  0  0  0  0  0  0  0  0  0  0  0
   10.3829  -16.0150   20.5673 O   0  0  0  0  0  0  0  0  0  0  0  0
    6.5090  -11.9807   27.6846 O   0  0  0  0  0  0  0  0  0  0  0  0
    6.6572  -12.7030   26.4994 C   0  0  0  0  0  0  0  0  0  0  0  0
    6.9869  -12.0956   25.3075 C   0  0  0  0  0  0  0  0  0  0  0  0
    7.1329  -12.8100   24.1380 C   0  0  0  0  0  0  0  0  0  0  0  0
    6.9524  -14.1972   24.1030 C   0  0  0  0  0  0  0  0  0  0  0  0
    7.0764  -14.9633   22.8525 C   0  0  0  0  0  0  0  0  0  0  0  0
    8.4139  -15.5086   22.5132 C   0  0  2  0  0  0  0  0  0  0  0  0
    8.2274  -16.4192   21.3657 N   0  0  0  0  0  0  0  0  0  0  0  0
    9.0734  -16.3022   23.5631 C   0  0  0  0  0  0  0  0  0  0  0  0
    8.6744  -17.4955   23.8271 O   0  0  0  0  0  0  0  0  0  0  0  0
    6.6235  -14.7832   25.3048 C   0  0  0  0  0  0  0  0  0  0  0  0
    6.4775  -14.0691   26.4743 C   0  0  0  0  0  0  0  0  0  0  0  0
   10.1706  -15.8856   24.3683 N   0  0  0  0  0  0  0  0  0  0  0  0
   10.7452  -16.7353   25.3916 C   0  0  1  0  0  0  0  0  0  0  0  0
   12.2585  -16.6230   25.4164 C   0  0  0  0  0  0  0  0  0  0  0  0
   12.8837  -16.7668   24.1035 C   0  0  0  0  0  0  0  0  0  0  0  0
   12.5914  -17.7005   23.3265 O   0  0  0  0  0  0  0  0  0  0  0  0
   10.1631  -16.5650   26.7255 C   0  0  0  0  0  0  0  0  0  0  0  0
   10.5138  -17.3239   27.6573 O   0  0  0  0  0  0  0  0  0  0  0  0
   13.8302  -15.8435   23.7015 O   0  0  0  0  0  0  0  0  0  0  0  0
    9.2255  -15.5971   27.0404 O   0  0  0  0  0  0  0  0  0  0  0  0
  2  1  1  1
  2  3  1  0
  4  2  1  0
  5  4  2  0
  6  7  1  0
  7  8  2  0
  8  9  1  0
 10 11  1  0
 10  9  2  0
 12 11  1  1
 12 13  1  0
 13  4  1  0
 14 12  1  0
 14 15  2  0
 16 10  1  0
 17 16  2  0
 17  7  1  0
 18 14  1  0
 19 18  1  0
 19 20  1  1
 20 21  1  0
 21 22  2  0
 21 25  1  0
 23 19  1  0
 24 23  2  0
 26 23  1  0
M  END
$$$$
