AYD.pdb
     RDKit          3D

 26 26  0  0  1  0  0  0  0  0999 V2000
    7.5142  -13.5546   19.9283 C   0  0  0  0  0  0  0  0  0  0  0  0
    8.1781  -14.8125   20.4262 C   0  0  2  0  0  0  0  0  0  0  0  0
    7.3318  -15.9577   20.3565 N   0  0  0  0  0  0  0  0  0  0  0  0
    8.7680  -14.6654   21.7628 C   0  0  0  0  0  0  0  0  0  0  0  0
    9.7219  -13.8150   21.8671 O   0  0  0  0  0  0  0  0  0  0  0  0
    6.1379  -10.2122   27.3755 O   0  0  0  0  0  0  0  0  0  0  0  0
    6.5757  -11.4309   26.8547 C   0  0  0  0  0  0  0  0  0  0  0  0
    7.8437  -11.5954   26.3416 C   0  0  0  0  0  0  0  0  0  0  0  0
    8.2748  -12.7994   25.8277 C   0  0  0  0  0  0  0  0  0  0  0  0
    7.4400  -13.9222   25.8015 C   0  0  0  0  0  0  0  0  0  0  0  0
    7.8821  -15.2030   25.2267 C   0  0  0  0  0  0  0  0  0  0  0  0
    8.9723  -15.1624   24.2212 C   0  0  2  0  0  0  0  0  0  0  0  0
    8.3485  -15.3924   22.9026 N   0  0  0  0  0  0  0  0  0  0  0  0
   10.0203  -16.1864   24.3629 C   0  0  0  0  0  0  0  0  0  0  0  0
   10.5728  -16.4016   25.5037 O   0  0  0  0  0  0  0  0  0  0  0  0
    6.1778  -13.7353   26.3190 C   0  0  0  0  0  0  0  0  0  0  0  0
    5.7467  -12.5316   26.8329 C   0  0  0  0  0  0  0  0  0  0  0  0
   10.5245  -17.0230   23.3277 N   0  0  0  0  0  0  0  0  0  0  0  0
   11.5343  -18.0329   23.5726 C   0  0  1  0  0  0  0  0  0  0  0  0
   11.3974  -19.1957   22.6070 C   0  0  0  0  0  0  0  0  0  0  0  0
   10.0455  -19.7452   22.5310 C   0  0  0  0  0  0  0  0  0  0  0  0
    9.3614  -19.9715   23.5517 O   0  0  0  0  0  0  0  0  0  0  0  0
   12.9076  -17.5245   23.6238 C   0  0  0  0  0  0  0  0  0  0  0  0
   13.1347  -16.3222   23.3591 O   0  0  0  0  0  0  0  0  0  0  0  0
    9.4993  -20.0261   21.2930 O   0  0  0  0  0  0  0  0  0  0  0  0
   14.0055  -18.2998   23.9534 O   0  0  0  0  0  0  0  0  0  0  0  0
  2  1  1  1
  2  3  1  0
  4  2  1  0
  5  4  2  0
  6  7  1  0
  7  8  2  0
  8  9  1  0
 10 11  1  0
 10  9  2  0
 12 11  1  1
 12 13  1  0
 13  4  1  0
 14 12  1  0
 14 15  2  0
 16 10  1  0
 17 16  2  0
 17  7  1  0
 18 14  1  0
 19 18  1  0
 19 20  1  6
 20 21  1  0
 21 22  2  0
 21 25  1  0
 23 19  1  0
 24 23  2  0
 26 23  1  0
M  END
$$$$
