AYD.pdb
     RDKit          3D

 26 26  0  0  1  0  0  0  0  0999 V2000
    9.4887  -18.7483   19.9964 C   0  0  0  0  0  0  0  0  0  0  0  0
    9.3587  -17.2872   19.6510 C   0  0  2  0  0  0  0  0  0  0  0  0
   10.2509  -16.8743   18.6185 N   0  0  0  0  0  0  0  0  0  0  0  0
    9.4522  -16.4054   20.8214 C   0  0  0  0  0  0  0  0  0  0  0  0
   10.6182  -15.9427   21.0865 O   0  0  0  0  0  0  0  0  0  0  0  0
    6.6445  -11.8182   28.1027 O   0  0  0  0  0  0  0  0  0  0  0  0
    6.8041  -12.4876   26.8884 C   0  0  0  0  0  0  0  0  0  0  0  0
    7.4591  -11.9182   25.8183 C   0  0  0  0  0  0  0  0  0  0  0  0
    7.6159  -12.5803   24.6198 C   0  0  0  0  0  0  0  0  0  0  0  0
    7.1142  -13.8727   24.4291 C   0  0  0  0  0  0  0  0  0  0  0  0
    7.2507  -14.5747   23.1428 C   0  0  0  0  0  0  0  0  0  0  0  0
    8.5472  -15.2378   22.8586 C   0  0  2  0  0  0  0  0  0  0  0  0
    8.3544  -16.0536   21.6429 N   0  0  0  0  0  0  0  0  0  0  0  0
    9.0432  -16.1579   23.8951 C   0  0  0  0  0  0  0  0  0  0  0  0
    8.4896  -17.3052   24.0688 O   0  0  0  0  0  0  0  0  0  0  0  0
    6.4637  -14.4222   25.5110 C   0  0  0  0  0  0  0  0  0  0  0  0
    6.3067  -13.7603   26.7095 C   0  0  0  0  0  0  0  0  0  0  0  0
   10.1320  -15.9197   24.7803 N   0  0  0  0  0  0  0  0  0  0  0  0
   10.5079  -16.8620   25.8147 C   0  0  1  0  0  0  0  0  0  0  0  0
   11.9994  -17.1416   25.7910 C   0  0  0  0  0  0  0  0  0  0  0  0
   12.5111  -17.5097   24.4726 C   0  0  0  0  0  0  0  0  0  0  0  0
   12.0413  -18.4661   23.8203 O   0  0  0  0  0  0  0  0  0  0  0  0
   10.0390  -16.5138   27.1586 C   0  0  0  0  0  0  0  0  0  0  0  0
    9.4864  -15.4081   27.3561 O   0  0  0  0  0  0  0  0  0  0  0  0
   13.5485  -16.7804   23.9232 O   0  0  0  0  0  0  0  0  0  0  0  0
   10.1661  -17.3432   28.2590 O   0  0  0  0  0  0  0  0  0  0  0  0
  2  1  1  1
  2  3  1  0
  4  2  1  0
  5  4  2  0
  6  7  1  0
  7  8  2  0
  8  9  1  0
 10 11  1  0
 10  9  2  0
 12 11  1  1
 12 13  1  0
 13  4  1  0
 14 12  1  0
 14 15  2  0
 16 10  1  0
 17 16  2  0
 17  7  1  0
 18 14  1  0
 19 18  1  0
 19 20  1  1
 20 21  1  0
 21 22  2  0
 21 25  1  0
 23 19  1  0
 24 23  2  0
 26 23  1  0
M  END
$$$$
