AYD.pdb
     RDKit          3D

 26 26  0  0  1  0  0  0  0  0999 V2000
    8.6536  -18.2792   19.2956 C   0  0  0  0  0  0  0  0  0  0  0  0
    9.1220  -16.8488   19.2208 C   0  0  2  0  0  0  0  0  0  0  0  0
   10.3221  -16.6912   18.4673 N   0  0  0  0  0  0  0  0  0  0  0  0
    9.2295  -16.2055   20.5364 C   0  0  0  0  0  0  0  0  0  0  0  0
   10.4039  -16.1649   21.0494 O   0  0  0  0  0  0  0  0  0  0  0  0
    6.7560  -11.7248   27.9500 O   0  0  0  0  0  0  0  0  0  0  0  0
    6.8581  -12.3027   26.6836 C   0  0  0  0  0  0  0  0  0  0  0  0
    6.2712  -13.5118   26.3804 C   0  0  0  0  0  0  0  0  0  0  0  0
    6.3727  -14.0814   25.1295 C   0  0  0  0  0  0  0  0  0  0  0  0
    7.0819  -13.4554   24.0983 C   0  0  0  0  0  0  0  0  0  0  0  0
    7.2208  -14.0713   22.7687 C   0  0  0  0  0  0  0  0  0  0  0  0
    8.3221  -15.0469   22.5776 C   0  0  2  0  0  0  0  0  0  0  0  0
    8.1363  -15.6472   21.2413 N   0  0  0  0  0  0  0  0  0  0  0  0
    8.3631  -16.1695   23.5290 C   0  0  0  0  0  0  0  0  0  0  0  0
    7.8613  -17.3106   23.2143 O   0  0  0  0  0  0  0  0  0  0  0  0
    7.6600  -12.2487   24.4231 C   0  0  0  0  0  0  0  0  0  0  0  0
    7.5586  -11.6791   25.6738 C   0  0  0  0  0  0  0  0  0  0  0  0
    8.9305  -16.1459   24.8341 N   0  0  0  0  0  0  0  0  0  0  0  0
    9.8821  -17.1426   25.2816 C   0  0  1  0  0  0  0  0  0  0  0  0
   11.0270  -17.2940   24.2969 C   0  0  0  0  0  0  0  0  0  0  0  0
   12.0292  -18.2773   24.7020 C   0  0  0  0  0  0  0  0  0  0  0  0
   13.1462  -17.9422   25.1502 O   0  0  0  0  0  0  0  0  0  0  0  0
   10.3628  -16.9566   26.6533 C   0  0  0  0  0  0  0  0  0  0  0  0
   10.3729  -17.9266   27.4444 O   0  0  0  0  0  0  0  0  0  0  0  0
   11.7388  -19.6237   24.5884 O   0  0  0  0  0  0  0  0  0  0  0  0
   10.8204  -15.7502   27.1535 O   0  0  0  0  0  0  0  0  0  0  0  0
  2  1  1  1
  2  3  1  0
  4  2  1  0
  5  4  2  0
  6  7  1  0
  7  8  2  0
  8  9  1  0
 10 11  1  0
 10  9  2  0
 12 11  1  1
 12 13  1  0
 13  4  1  0
 14 12  1  0
 14 15  2  0
 16 10  1  0
 17 16  2  0
 17  7  1  0
 18 14  1  0
 19 18  1  0
 19 20  1  6
 20 21  1  0
 21 22  2  0
 21 25  1  0
 23 19  1  0
 24 23  2  0
 26 23  1  0
M  END
$$$$
