AYD.pdb
     RDKit          3D

 26 26  0  0  1  0  0  0  0  0999 V2000
    8.3791  -15.9182   18.2531 C   0  0  0  0  0  0  0  0  0  0  0  0
    7.8829  -14.5319   18.5742 C   0  0  2  0  0  0  0  0  0  0  0  0
    8.2535  -13.5637   17.5955 N   0  0  0  0  0  0  0  0  0  0  0  0
    8.2419  -14.0878   19.9270 C   0  0  0  0  0  0  0  0  0  0  0  0
    9.2578  -13.3102   20.0137 O   0  0  0  0  0  0  0  0  0  0  0  0
    7.1527  -12.0197   28.6012 O   0  0  0  0  0  0  0  0  0  0  0  0
    7.0263  -12.4823   27.2904 C   0  0  0  0  0  0  0  0  0  0  0  0
    7.1785  -13.8124   26.9648 C   0  0  0  0  0  0  0  0  0  0  0  0
    7.0534  -14.2679   25.6701 C   0  0  0  0  0  0  0  0  0  0  0  0
    6.7636  -13.3959   24.6147 C   0  0  0  0  0  0  0  0  0  0  0  0
    6.6585  -13.8694   23.2252 C   0  0  0  0  0  0  0  0  0  0  0  0
    7.8993  -13.8867   22.4119 C   0  0  2  0  0  0  0  0  0  0  0  0
    7.5442  -14.4638   21.0998 N   0  0  0  0  0  0  0  0  0  0  0  0
    9.0035  -14.7076   22.9353 C   0  0  0  0  0  0  0  0  0  0  0  0
    9.6106  -14.3716   24.0176 O   0  0  0  0  0  0  0  0  0  0  0  0
    6.6157  -12.0719   24.9626 C   0  0  0  0  0  0  0  0  0  0  0  0
    6.7407  -11.6163   26.2571 C   0  0  0  0  0  0  0  0  0  0  0  0
    9.5092  -15.9053   22.3561 N   0  0  0  0  0  0  0  0  0  0  0  0
   10.5585  -16.6839   22.9823 C   0  0  1  0  0  0  0  0  0  0  0  0
   10.0367  -18.0239   23.4673 C   0  0  0  0  0  0  0  0  0  0  0  0
   10.7808  -18.5738   24.5984 C   0  0  0  0  0  0  0  0  0  0  0  0
   11.7968  -18.0133   25.0616 O   0  0  0  0  0  0  0  0  0  0  0  0
   11.7743  -16.8302   22.1776 C   0  0  0  0  0  0  0  0  0  0  0  0
   11.7083  -17.3546   21.0428 O   0  0  0  0  0  0  0  0  0  0  0  0
   10.3524  -19.7522   25.1798 O   0  0  0  0  0  0  0  0  0  0  0  0
   13.0285  -16.4186   22.5929 O   0  0  0  0  0  0  0  0  0  0  0  0
  2  1  1  6
  2  3  1  0
  4  2  1  0
  5  4  2  0
  6  7  1  0
  7  8  2  0
  8  9  1  0
 10 11  1  0
 10  9  2  0
 12 11  1  1
 12 13  1  0
 13  4  1  0
 14 12  1  0
 14 15  2  0
 16 10  1  0
 17 16  2  0
 17  7  1  0
 18 14  1  0
 19 18  1  0
 19 20  1  6
 20 21  1  0
 21 22  2  0
 21 25  1  0
 23 19  1  0
 24 23  2  0
 26 23  1  0
M  END
$$$$
