KPS.pdb
     RDKit          3D

 23 23  0  0  1  0  0  0  0  0999 V2000
   10.1922  -15.6749   15.8837 N   0  0  0  0  0  0  0  0  0  0  0  0
    9.1441  -15.3524   16.7466 C   0  0  1  0  0  0  0  0  0  0  0  0
    7.9849  -16.3011   16.7709 C   0  0  0  0  0  0  0  0  0  0  0  0
    8.3435  -17.7381   16.8644 C   0  0  0  0  0  0  0  0  0  0  0  0
    7.1473  -18.6628   16.8604 C   0  0  0  0  0  0  0  0  0  0  0  0
    7.5657  -20.1149   16.9440 C   0  0  0  0  0  0  0  0  0  0  0  0
    6.4594  -21.0259   16.9231 N   0  0  0  0  0  0  0  0  0  0  0  0
    9.6135  -15.1441   18.1370 C   0  0  0  0  0  0  0  0  0  0  0  0
   10.5131  -15.9843   18.5203 O   0  0  0  0  0  0  0  0  0  0  0  0
    9.1986  -14.1631   19.0489 N   0  0  0  0  0  0  0  0  0  0  0  0
    8.9747  -12.7191   18.7623 C   0  0  0  0  0  0  0  0  0  0  0  0
    7.6363  -12.4959   19.4791 C   0  0  0  0  0  0  0  0  0  0  0  0
    7.4403  -13.7183   20.3914 C   0  0  0  0  0  0  0  0  0  0  0  0
    8.8878  -14.1891   20.4485 C   0  0  1  0  0  0  0  0  0  0  0  0
    9.1509  -15.3376   21.2572 C   0  0  0  0  0  0  0  0  0  0  0  0
    8.4274  -16.3469   21.2783 O   0  0  0  0  0  0  0  0  0  0  0  0
   12.8692  -15.7987   23.0542 O   0  0  0  0  0  0  0  0  0  0  0  0
   12.0933  -16.8991   22.6922 C   0  0  0  0  0  0  0  0  0  0  0  0
   10.6045  -16.6055   22.8809 C   0  0  2  0  0  0  0  0  0  0  0  0
   10.3022  -15.4320   22.1403 N   0  0  0  0  0  0  0  0  0  0  0  0
   10.4073  -16.4363   24.3498 C   0  0  0  0  0  0  0  0  0  0  0  0
   10.7399  -17.5211   25.1509 O   0  0  0  0  0  0  0  0  0  0  0  0
    9.9721  -15.3982   24.8665 O   0  0  0  0  0  0  0  0  0  0  0  0
  2  1  1  6
  2  8  1  0
  3  2  1  0
  4  3  1  0
  5  4  1  0
  6  5  1  0
  7  6  1  0
  8 10  1  0
  8  9  2  0
 10 11  1  0
 12 11  1  0
 13 14  1  0
 13 12  1  0
 14 10  1  0
 14 15  1  6
 16 15  2  0
 17 18  1  0
 19 18  1  1
 19 21  1  0
 19 20  1  0
 20 15  1  0
 21 22  1  0
 23 21  2  0
M  END
$$$$
