KPS.pdb
     RDKit          3D

 23 23  0  0  1  0  0  0  0  0999 V2000
   10.0520  -15.7995   15.7761 N   0  0  0  0  0  0  0  0  0  0  0  0
    9.0615  -15.2565   16.5953 C   0  0  1  0  0  0  0  0  0  0  0  0
    7.7339  -15.9505   16.5852 C   0  0  0  0  0  0  0  0  0  0  0  0
    7.5868  -17.0231   15.5703 C   0  0  0  0  0  0  0  0  0  0  0  0
    7.5044  -18.4115   16.1634 C   0  0  0  0  0  0  0  0  0  0  0  0
    7.1987  -19.4511   15.1067 C   0  0  0  0  0  0  0  0  0  0  0  0
    7.2693  -20.7959   15.5972 N   0  0  0  0  0  0  0  0  0  0  0  0
    9.5144  -15.1232   18.0004 C   0  0  0  0  0  0  0  0  0  0  0  0
   10.3162  -16.0563   18.3858 O   0  0  0  0  0  0  0  0  0  0  0  0
    9.1764  -14.1236   18.9237 N   0  0  0  0  0  0  0  0  0  0  0  0
    9.0799  -12.6616   18.6575 C   0  0  0  0  0  0  0  0  0  0  0  0
    7.7587  -12.3348   19.3664 C   0  0  0  0  0  0  0  0  0  0  0  0
    7.4498  -13.5490   20.2582 C   0  0  0  0  0  0  0  0  0  0  0  0
    8.8511  -14.1432   20.3201 C   0  0  1  0  0  0  0  0  0  0  0  0
    9.0069  -15.3217   21.1133 C   0  0  0  0  0  0  0  0  0  0  0  0
    8.2190  -16.2815   21.0851 O   0  0  0  0  0  0  0  0  0  0  0  0
   12.6505  -16.5393   22.4409 O   0  0  0  0  0  0  0  0  0  0  0  0
   11.5475  -17.3853   22.3331 C   0  0  0  0  0  0  0  0  0  0  0  0
   10.2736  -16.6879   22.8120 C   0  0  2  0  0  0  0  0  0  0  0  0
   10.1139  -15.5084   22.0374 N   0  0  0  0  0  0  0  0  0  0  0  0
   10.4839  -16.4103   24.2625 C   0  0  0  0  0  0  0  0  0  0  0  0
   10.4852  -15.0755   24.6464 O   0  0  0  0  0  0  0  0  0  0  0  0
   10.6521  -17.2966   25.1112 O   0  0  0  0  0  0  0  0  0  0  0  0
  2  1  1  6
  2  8  1  0
  3  2  1  0
  4  3  1  0
  5  4  1  0
  6  5  1  0
  7  6  1  0
  8 10  1  0
  8  9  2  0
 10 11  1  0
 12 11  1  0
 13 14  1  0
 13 12  1  0
 14 10  1  0
 14 15  1  6
 16 15  2  0
 17 18  1  0
 19 18  1  6
 19 21  1  0
 19 20  1  0
 20 15  1  0
 21 22  1  0
 23 21  2  0
M  END
$$$$
