KPS.pdb
     RDKit          3D

 23 23  0  0  1  0  0  0  0  0999 V2000
    9.8459  -15.4559   15.4950 N   0  0  0  0  0  0  0  0  0  0  0  0
    8.8696  -15.3228   16.4830 C   0  0  1  0  0  0  0  0  0  0  0  0
    7.8330  -16.4026   16.5455 C   0  0  0  0  0  0  0  0  0  0  0  0
    8.1962  -17.5835   17.3677 C   0  0  0  0  0  0  0  0  0  0  0  0
    7.1421  -18.6673   17.3706 C   0  0  0  0  0  0  0  0  0  0  0  0
    7.6187  -19.9056   18.0988 C   0  0  0  0  0  0  0  0  0  0  0  0
    6.6573  -20.9685   18.0993 N   0  0  0  0  0  0  0  0  0  0  0  0
    9.4628  -15.1586   17.8314 C   0  0  0  0  0  0  0  0  0  0  0  0
   10.3844  -16.0163   18.1090 O   0  0  0  0  0  0  0  0  0  0  0  0
    9.1404  -14.2016   18.8042 N   0  0  0  0  0  0  0  0  0  0  0  0
    8.8286  -12.7644   18.5700 C   0  0  0  0  0  0  0  0  0  0  0  0
    7.5923  -12.5971   19.4635 C   0  0  0  0  0  0  0  0  0  0  0  0
    7.5650  -13.8338   20.3773 C   0  0  0  0  0  0  0  0  0  0  0  0
    9.0228  -14.2512   20.2324 C   0  0  1  0  0  0  0  0  0  0  0  0
    9.4333  -15.3962   20.9825 C   0  0  0  0  0  0  0  0  0  0  0  0
    8.8471  -16.4906   20.9473 O   0  0  0  0  0  0  0  0  0  0  0  0
   13.2338  -16.1058   21.9915 O   0  0  0  0  0  0  0  0  0  0  0  0
   12.4061  -16.3075   23.0952 C   0  0  0  0  0  0  0  0  0  0  0  0
   10.9531  -16.5048   22.6612 C   0  0  2  0  0  0  0  0  0  0  0  0
   10.5876  -15.3859   21.8668 N   0  0  0  0  0  0  0  0  0  0  0  0
   10.1635  -16.6086   23.9226 C   0  0  0  0  0  0  0  0  0  0  0  0
   10.4074  -17.7199   24.7193 O   0  0  0  0  0  0  0  0  0  0  0  0
    9.3250  -15.7683   24.2759 O   0  0  0  0  0  0  0  0  0  0  0  0
  2  1  1  6
  2  8  1  0
  3  2  1  0
  4  3  1  0
  5  4  1  0
  6  5  1  0
  7  6  1  0
  8 10  1  0
  8  9  2  0
 10 11  1  0
 12 11  1  0
 13 14  1  0
 13 12  1  0
 14 10  1  0
 14 15  1  6
 16 15  2  0
 17 18  1  0
 19 18  1  1
 19 21  1  0
 19 20  1  0
 20 15  1  0
 21 22  1  0
 23 21  2  0
M  END
$$$$
