KPS.pdb
     RDKit          3D

 23 23  0  0  1  0  0  0  0  0999 V2000
    8.5239  -14.5585   20.2520 N   0  0  0  0  0  0  0  0  0  0  0  0
    7.5942  -14.5290   21.2922 C   0  0  1  0  0  0  0  0  0  0  0  0
    6.4025  -15.4251   21.1465 C   0  0  0  0  0  0  0  0  0  0  0  0
    6.6894  -16.7799   20.6133 C   0  0  0  0  0  0  0  0  0  0  0  0
    5.4623  -17.6543   20.4881 C   0  0  0  0  0  0  0  0  0  0  0  0
    5.7683  -18.9414   19.7527 C   0  0  0  0  0  0  0  0  0  0  0  0
    4.6161  -19.7714   19.5588 N   0  0  0  0  0  0  0  0  0  0  0  0
    8.2245  -14.7909   22.6079 C   0  0  0  0  0  0  0  0  0  0  0  0
    9.0306  -15.7970   22.6144 O   0  0  0  0  0  0  0  0  0  0  0  0
    8.0446  -14.0846   23.8057 N   0  0  0  0  0  0  0  0  0  0  0  0
    7.8287  -12.6183   23.9505 C   0  0  0  0  0  0  0  0  0  0  0  0
    6.6736  -12.6040   24.9607 C   0  0  0  0  0  0  0  0  0  0  0  0
    6.6145  -14.0232   25.5502 C   0  0  0  0  0  0  0  0  0  0  0  0
    8.0225  -14.4757   25.1850 C   0  0  1  0  0  0  0  0  0  0  0  0
    8.3947  -15.7914   25.6007 C   0  0  0  0  0  0  0  0  0  0  0  0
    7.6063  -16.7501   25.6443 O   0  0  0  0  0  0  0  0  0  0  0  0
   12.3499  -16.8854   25.7348 O   0  0  0  0  0  0  0  0  0  0  0  0
   11.3486  -17.8502   25.6324 C   0  0  0  0  0  0  0  0  0  0  0  0
   10.1105  -17.4415   26.4315 C   0  0  2  0  0  0  0  0  0  0  0  0
    9.7455  -16.1333   26.0165 N   0  0  0  0  0  0  0  0  0  0  0  0
   10.5134  -17.5081   27.8662 C   0  0  0  0  0  0  0  0  0  0  0  0
   10.8495  -18.7619   28.3602 O   0  0  0  0  0  0  0  0  0  0  0  0
   10.5583  -16.5193   28.6108 O   0  0  0  0  0  0  0  0  0  0  0  0
  2  1  1  6
  2  8  1  0
  3  2  1  0
  4  3  1  0
  5  4  1  0
  6  5  1  0
  7  6  1  0
  8 10  1  0
  8  9  2  0
 10 11  1  0
 12 11  1  0
 13 14  1  0
 13 12  1  0
 14 10  1  0
 14 15  1  6
 16 15  2  0
 17 18  1  0
 19 18  1  6
 19 21  1  0
 19 20  1  0
 20 15  1  0
 21 22  1  0
 23 21  2  0
M  END
$$$$
