KPS.pdb
     RDKit          3D

 23 23  0  0  1  0  0  0  0  0999 V2000
    8.5260  -14.0609   20.4324 N   0  0  0  0  0  0  0  0  0  0  0  0
    7.5918  -14.1337   21.4664 C   0  0  1  0  0  0  0  0  0  0  0  0
    6.4188  -15.0382   21.2424 C   0  0  0  0  0  0  0  0  0  0  0  0
    6.6027  -16.0656   20.1874 C   0  0  0  0  0  0  0  0  0  0  0  0
    7.0399  -17.4109   20.7211 C   0  0  0  0  0  0  0  0  0  0  0  0
    6.9678  -18.4830   19.6551 C   0  0  0  0  0  0  0  0  0  0  0  0
    7.5322  -19.7336   20.0695 N   0  0  0  0  0  0  0  0  0  0  0  0
    8.2221  -14.4887   22.7601 C   0  0  0  0  0  0  0  0  0  0  0  0
    9.0569  -15.4684   22.6877 O   0  0  0  0  0  0  0  0  0  0  0  0
    8.0153  -13.8921   24.0121 N   0  0  0  0  0  0  0  0  0  0  0  0
    7.8035  -12.4433   24.2836 C   0  0  0  0  0  0  0  0  0  0  0  0
    6.6230  -12.5116   25.2617 C   0  0  0  0  0  0  0  0  0  0  0  0
    6.5413  -13.9778   25.7186 C   0  0  0  0  0  0  0  0  0  0  0  0
    7.9558  -14.4061   25.3493 C   0  0  1  0  0  0  0  0  0  0  0  0
    8.3103  -15.7568   25.6535 C   0  0  0  0  0  0  0  0  0  0  0  0
    7.5217  -16.7127   25.5696 O   0  0  0  0  0  0  0  0  0  0  0  0
   12.2539  -16.9270   25.8494 O   0  0  0  0  0  0  0  0  0  0  0  0
   11.2321  -17.8503   25.6317 C   0  0  0  0  0  0  0  0  0  0  0  0
    9.9802  -17.4796   26.4280 C   0  0  2  0  0  0  0  0  0  0  0  0
    9.6413  -16.1414   26.0947 N   0  0  0  0  0  0  0  0  0  0  0  0
   10.3477  -17.6490   27.8637 C   0  0  0  0  0  0  0  0  0  0  0  0
   10.5590  -18.9497   28.3024 O   0  0  0  0  0  0  0  0  0  0  0  0
   10.4680  -16.7038   28.6552 O   0  0  0  0  0  0  0  0  0  0  0  0
  2  1  1  6
  2  8  1  0
  3  2  1  0
  4  3  1  0
  5  4  1  0
  6  5  1  0
  7  6  1  0
  8 10  1  0
  8  9  2  0
 10 11  1  0
 12 11  1  0
 13 14  1  0
 13 12  1  0
 14 10  1  0
 14 15  1  6
 16 15  2  0
 17 18  1  0
 19 18  1  6
 19 21  1  0
 19 20  1  0
 20 15  1  0
 21 22  1  0
 23 21  2  0
M  END
$$$$
