KPS.pdb
     RDKit          3D

 23 23  0  0  1  0  0  0  0  0999 V2000
    9.8262  -15.4596   15.2529 N   0  0  0  0  0  0  0  0  0  0  0  0
    8.8643  -15.2209   16.2352 C   0  0  1  0  0  0  0  0  0  0  0  0
    7.7434  -16.2108   16.3249 C   0  0  0  0  0  0  0  0  0  0  0  0
    8.1392  -17.6326   16.1694 C   0  0  0  0  0  0  0  0  0  0  0  0
    6.9826  -18.5997   16.2837 C   0  0  0  0  0  0  0  0  0  0  0  0
    7.4207  -20.0250   16.0238 C   0  0  0  0  0  0  0  0  0  0  0  0
    6.3455  -20.9702   16.0925 N   0  0  0  0  0  0  0  0  0  0  0  0
    9.4694  -15.0690   17.5797 C   0  0  0  0  0  0  0  0  0  0  0  0
   10.4156  -15.9085   17.8290 O   0  0  0  0  0  0  0  0  0  0  0  0
    9.1349  -14.1404   18.5756 N   0  0  0  0  0  0  0  0  0  0  0  0
    8.8555  -12.6904   18.3829 C   0  0  0  0  0  0  0  0  0  0  0  0
    7.5962  -12.5312   19.2451 C   0  0  0  0  0  0  0  0  0  0  0  0
    7.5197  -13.7979   20.1138 C   0  0  0  0  0  0  0  0  0  0  0  0
    8.9737  -14.2370   19.9971 C   0  0  1  0  0  0  0  0  0  0  0  0
    9.3415  -15.4147   20.7184 C   0  0  0  0  0  0  0  0  0  0  0  0
    8.6893  -16.4714   20.6927 O   0  0  0  0  0  0  0  0  0  0  0  0
   13.1207  -15.7841   22.4602 O   0  0  0  0  0  0  0  0  0  0  0  0
   12.3737  -16.8955   22.0719 C   0  0  0  0  0  0  0  0  0  0  0  0
   10.8792  -16.6530   22.2865 C   0  0  2  0  0  0  0  0  0  0  0  0
   10.5259  -15.4857   21.5589 N   0  0  0  0  0  0  0  0  0  0  0  0
   10.7004  -16.4998   23.7595 C   0  0  0  0  0  0  0  0  0  0  0  0
   10.2374  -15.2685   24.2051 O   0  0  0  0  0  0  0  0  0  0  0  0
   10.9414  -17.4002   24.5751 O   0  0  0  0  0  0  0  0  0  0  0  0
  2  1  1  6
  2  8  1  0
  3  2  1  0
  4  3  1  0
  5  4  1  0
  6  5  1  0
  7  6  1  0
  8 10  1  0
  8  9  2  0
 10 11  1  0
 12 11  1  0
 13 14  1  0
 13 12  1  0
 14 10  1  0
 14 15  1  6
 16 15  2  0
 17 18  1  0
 19 18  1  1
 19 21  1  0
 19 20  1  0
 20 15  1  0
 21 22  1  0
 23 21  2  0
M  END
$$$$
