KPS.pdb
     RDKit          3D

 23 23  0  0  1  0  0  0  0  0999 V2000
    8.1377  -17.1248   18.0651 N   0  0  0  0  0  0  0  0  0  0  0  0
    8.0943  -17.5899   19.3800 C   0  0  1  0  0  0  0  0  0  0  0  0
    8.2090  -19.0719   19.5668 C   0  0  0  0  0  0  0  0  0  0  0  0
    6.9209  -19.7944   19.7116 C   0  0  0  0  0  0  0  0  0  0  0  0
    7.0804  -21.2862   19.8985 C   0  0  0  0  0  0  0  0  0  0  0  0
    5.7422  -21.9935   19.8999 C   0  0  0  0  0  0  0  0  0  0  0  0
    5.8549  -23.4200   19.9805 N   0  0  0  0  0  0  0  0  0  0  0  0
    9.1045  -16.9258   20.2376 C   0  0  0  0  0  0  0  0  0  0  0  0
   10.2708  -17.4737   20.1978 O   0  0  0  0  0  0  0  0  0  0  0  0
    8.9333  -15.8024   21.0590 N   0  0  0  0  0  0  0  0  0  0  0  0
    8.2132  -14.5464   20.7105 C   0  0  0  0  0  0  0  0  0  0  0  0
    7.3875  -14.3341   21.9865 C   0  0  0  0  0  0  0  0  0  0  0  0
    8.0013  -15.2676   23.0433 C   0  0  0  0  0  0  0  0  0  0  0  0
    9.3605  -15.4821   22.3897 C   0  0  1  0  0  0  0  0  0  0  0  0
   10.2852  -16.3061   23.1026 C   0  0  0  0  0  0  0  0  0  0  0  0
    9.9680  -17.3588   23.6804 O   0  0  0  0  0  0  0  0  0  0  0  0
   14.1694  -14.9718   23.7595 O   0  0  0  0  0  0  0  0  0  0  0  0
   14.0255  -16.3451   23.5667 C   0  0  0  0  0  0  0  0  0  0  0  0
   12.6134  -16.8045   23.9321 C   0  0  2  0  0  0  0  0  0  0  0  0
   11.6985  -15.9847   23.2196 N   0  0  0  0  0  0  0  0  0  0  0  0
   12.5066  -16.6496   25.4119 C   0  0  0  0  0  0  0  0  0  0  0  0
   13.3412  -17.4486   26.1827 O   0  0  0  0  0  0  0  0  0  0  0  0
   11.7268  -15.8605   25.9626 O   0  0  0  0  0  0  0  0  0  0  0  0
  2  1  1  6
  2  8  1  0
  3  2  1  0
  4  3  1  0
  5  4  1  0
  6  5  1  0
  7  6  1  0
  8 10  1  0
  8  9  2  0
 10 11  1  0
 12 11  1  0
 13 14  1  0
 13 12  1  0
 14 10  1  0
 14 15  1  1
 16 15  2  0
 17 18  1  0
 19 18  1  6
 19 21  1  0
 19 20  1  0
 20 15  1  0
 21 22  1  0
 23 21  2  0
M  END
$$$$
