KPS.pdb
     RDKit          3D

 23 23  0  0  1  0  0  0  0  0999 V2000
    8.4634  -16.4915   17.0104 N   0  0  0  0  0  0  0  0  0  0  0  0
    7.9284  -16.9396   18.2187 C   0  0  1  0  0  0  0  0  0  0  0  0
    7.7089  -18.4163   18.3435 C   0  0  0  0  0  0  0  0  0  0  0  0
    6.3405  -18.8844   18.0108 C   0  0  0  0  0  0  0  0  0  0  0  0
    6.0624  -20.3045   18.4490 C   0  0  0  0  0  0  0  0  0  0  0  0
    4.6610  -20.7380   18.0761 C   0  0  0  0  0  0  0  0  0  0  0  0
    4.3927  -22.1125   18.3807 N   0  0  0  0  0  0  0  0  0  0  0  0
    8.7232  -16.4800   19.3823 C   0  0  0  0  0  0  0  0  0  0  0  0
    9.7971  -17.1627   19.5891 O   0  0  0  0  0  0  0  0  0  0  0  0
    8.4420  -15.4169   20.2523 N   0  0  0  0  0  0  0  0  0  0  0  0
    7.9531  -14.0623   19.8736 C   0  0  0  0  0  0  0  0  0  0  0  0
    6.8429  -13.8645   20.9144 C   0  0  0  0  0  0  0  0  0  0  0  0
    7.0718  -14.9469   21.9826 C   0  0  0  0  0  0  0  0  0  0  0  0
    8.5306  -15.2597   21.6748 C   0  0  1  0  0  0  0  0  0  0  0  0
    9.1585  -16.2404   22.5032 C   0  0  0  0  0  0  0  0  0  0  0  0
    8.5919  -17.2709   22.9029 O   0  0  0  0  0  0  0  0  0  0  0  0
   13.1341  -15.7386   23.5517 O   0  0  0  0  0  0  0  0  0  0  0  0
   12.6691  -17.0493   23.4538 C   0  0  0  0  0  0  0  0  0  0  0  0
   11.1692  -17.1214   23.7432 C   0  0  2  0  0  0  0  0  0  0  0  0
   10.5336  -16.1212   22.9607 N   0  0  0  0  0  0  0  0  0  0  0  0
   11.0277  -16.8930   25.2104 C   0  0  0  0  0  0  0  0  0  0  0  0
   11.5951  -17.8464   26.0459 O   0  0  0  0  0  0  0  0  0  0  0  0
   10.4419  -15.9163   25.6973 O   0  0  0  0  0  0  0  0  0  0  0  0
  2  1  1  6
  2  8  1  0
  3  2  1  0
  4  3  1  0
  5  4  1  0
  6  5  1  0
  7  6  1  0
  8 10  1  0
  8  9  2  0
 10 11  1  0
 12 11  1  0
 13 14  1  0
 13 12  1  0
 14 10  1  0
 14 15  1  1
 16 15  2  0
 17 18  1  0
 19 18  1  6
 19 21  1  0
 19 20  1  0
 20 15  1  0
 21 22  1  0
 23 21  2  0
M  END
$$$$
