KPS.pdb
     RDKit          3D

 23 23  0  0  1  0  0  0  0  0999 V2000
    5.7064  -19.3530   21.6946 N   0  0  0  0  0  0  0  0  0  0  0  0
    6.1492  -18.3902   22.6025 C   0  0  1  0  0  0  0  0  0  0  0  0
    6.1846  -18.7992   24.0433 C   0  0  0  0  0  0  0  0  0  0  0  0
    7.5140  -19.2209   24.5503 C   0  0  0  0  0  0  0  0  0  0  0  0
    7.5216  -19.5579   26.0242 C   0  0  0  0  0  0  0  0  0  0  0  0
    8.8902  -20.0113   26.4847 C   0  0  0  0  0  0  0  0  0  0  0  0
    8.9502  -20.2985   27.8876 N   0  0  0  0  0  0  0  0  0  0  0  0
    7.4780  -17.8476   22.2325 C   0  0  0  0  0  0  0  0  0  0  0  0
    8.3815  -18.7485   22.0475 O   0  0  0  0  0  0  0  0  0  0  0  0
    7.8448  -16.5045   22.0666 N   0  0  0  0  0  0  0  0  0  0  0  0
    7.0176  -15.4241   21.4616 C   0  0  0  0  0  0  0  0  0  0  0  0
    7.2427  -14.2969   22.4783 C   0  0  0  0  0  0  0  0  0  0  0  0
    8.4473  -14.7336   23.3287 C   0  0  0  0  0  0  0  0  0  0  0  0
    9.0340  -15.7642   22.3727 C   0  0  1  0  0  0  0  0  0  0  0  0
   10.2360  -16.4112   22.7957 C   0  0  0  0  0  0  0  0  0  0  0  0
   10.3595  -16.9928   23.8862 O   0  0  0  0  0  0  0  0  0  0  0  0
   14.7572  -17.8022   21.4820 O   0  0  0  0  0  0  0  0  0  0  0  0
   13.6006  -17.0748   21.2045 C   0  0  0  0  0  0  0  0  0  0  0  0
   12.5824  -17.2118   22.3372 C   0  0  2  0  0  0  0  0  0  0  0  0
   11.4393  -16.4486   21.9801 N   0  0  0  0  0  0  0  0  0  0  0  0
   13.2661  -16.7023   23.5611 C   0  0  0  0  0  0  0  0  0  0  0  0
   14.2301  -17.5283   24.1245 O   0  0  0  0  0  0  0  0  0  0  0  0
   13.0152  -15.6051   24.0783 O   0  0  0  0  0  0  0  0  0  0  0  0
  2  1  1  6
  2  8  1  0
  3  2  1  0
  4  3  1  0
  5  4  1  0
  6  5  1  0
  7  6  1  0
  8 10  1  0
  8  9  2  0
 10 11  1  0
 12 11  1  0
 13 14  1  0
 13 12  1  0
 14 10  1  0
 14 15  1  1
 16 15  2  0
 17 18  1  0
 19 18  1  6
 19 21  1  0
 19 20  1  0
 20 15  1  0
 21 22  1  0
 23 21  2  0
M  END
$$$$
