KPS.pdb
     RDKit          3D

 23 23  0  0  1  0  0  0  0  0999 V2000
   11.0707  -15.5548   16.0973 N   0  0  0  0  0  0  0  0  0  0  0  0
    9.9453  -14.9919   16.7005 C   0  0  1  0  0  0  0  0  0  0  0  0
    8.6242  -15.6051   16.3496 C   0  0  0  0  0  0  0  0  0  0  0  0
    8.3437  -15.7187   14.8968 C   0  0  0  0  0  0  0  0  0  0  0  0
    7.4407  -16.8785   14.5427 C   0  0  0  0  0  0  0  0  0  0  0  0
    7.0820  -16.8762   13.0723 C   0  0  0  0  0  0  0  0  0  0  0  0
    6.1166  -17.8761   12.7225 N   0  0  0  0  0  0  0  0  0  0  0  0
   10.0694  -14.9493   18.1768 C   0  0  0  0  0  0  0  0  0  0  0  0
   10.7515  -15.9226   18.6761 O   0  0  0  0  0  0  0  0  0  0  0  0
    9.5427  -13.9949   19.0588 N   0  0  0  0  0  0  0  0  0  0  0  0
    9.4531  -12.5260   18.8309 C   0  0  0  0  0  0  0  0  0  0  0  0
    8.0175  -12.2570   19.3016 C   0  0  0  0  0  0  0  0  0  0  0  0
    7.5893  -13.5122   20.0802 C   0  0  0  0  0  0  0  0  0  0  0  0
    8.9735  -14.0771   20.3723 C   0  0  1  0  0  0  0  0  0  0  0  0
    9.0190  -15.2824   21.1388 C   0  0  0  0  0  0  0  0  0  0  0  0
    8.2069  -16.2133   21.0094 O   0  0  0  0  0  0  0  0  0  0  0  0
   12.3823  -16.1760   23.3959 O   0  0  0  0  0  0  0  0  0  0  0  0
   11.5627  -17.1919   22.9058 C   0  0  0  0  0  0  0  0  0  0  0  0
   10.0988  -16.7505   22.8810 C   0  0  2  0  0  0  0  0  0  0  0  0
   10.0307  -15.5334   22.1525 N   0  0  0  0  0  0  0  0  0  0  0  0
    9.6963  -16.5998   24.3094 C   0  0  0  0  0  0  0  0  0  0  0  0
    9.7457  -17.7451   25.0937 O   0  0  0  0  0  0  0  0  0  0  0  0
    9.3311  -15.5262   24.8076 O   0  0  0  0  0  0  0  0  0  0  0  0
  2  1  1  6
  2  8  1  0
  3  2  1  0
  4  3  1  0
  5  4  1  0
  6  5  1  0
  7  6  1  0
  8 10  1  0
  8  9  2  0
 10 11  1  0
 12 11  1  0
 13 14  1  0
 13 12  1  0
 14 10  1  0
 14 15  1  6
 16 15  2  0
 17 18  1  0
 19 18  1  1
 19 21  1  0
 19 20  1  0
 20 15  1  0
 21 22  1  0
 23 21  2  0
M  END
$$$$
