KPS.pdb
     RDKit          3D

 23 23  0  0  1  0  0  0  0  0999 V2000
   12.8987  -14.3352   17.5260 N   0  0  0  0  0  0  0  0  0  0  0  0
   11.5278  -14.5938   17.4989 C   0  0  1  0  0  0  0  0  0  0  0  0
   11.0868  -15.7660   16.6769 C   0  0  0  0  0  0  0  0  0  0  0  0
    9.6329  -16.0602   16.7208 C   0  0  0  0  0  0  0  0  0  0  0  0
    9.1643  -16.9681   15.6062 C   0  0  0  0  0  0  0  0  0  0  0  0
    7.6963  -17.3091   15.7458 C   0  0  0  0  0  0  0  0  0  0  0  0
    7.2102  -18.1610   14.7008 N   0  0  0  0  0  0  0  0  0  0  0  0
   10.9619  -14.7326   18.8618 C   0  0  0  0  0  0  0  0  0  0  0  0
   11.3986  -15.7571   19.5113 O   0  0  0  0  0  0  0  0  0  0  0  0
   10.0345  -13.8963   19.4993 N   0  0  0  0  0  0  0  0  0  0  0  0
    9.8016  -12.4516   19.2231 C   0  0  0  0  0  0  0  0  0  0  0  0
    8.2679  -12.4174   19.1867 C   0  0  0  0  0  0  0  0  0  0  0  0
    7.8040  -13.7461   19.8068 C   0  0  0  0  0  0  0  0  0  0  0  0
    9.0834  -14.1036   20.5522 C   0  0  1  0  0  0  0  0  0  0  0  0
    9.0572  -15.3111   21.3163 C   0  0  0  0  0  0  0  0  0  0  0  0
    8.3822  -16.3074   21.0091 O   0  0  0  0  0  0  0  0  0  0  0  0
   12.2636  -16.4116   23.4651 O   0  0  0  0  0  0  0  0  0  0  0  0
   11.2848  -17.3028   23.0275 C   0  0  0  0  0  0  0  0  0  0  0  0
    9.8847  -16.7233   23.2340 C   0  0  2  0  0  0  0  0  0  0  0  0
    9.8261  -15.4869   22.5379 N   0  0  0  0  0  0  0  0  0  0  0  0
    9.7220  -16.5716   24.7090 C   0  0  0  0  0  0  0  0  0  0  0  0
    9.7161  -17.7415   25.4576 O   0  0  0  0  0  0  0  0  0  0  0  0
    9.5958  -15.4768   25.2743 O   0  0  0  0  0  0  0  0  0  0  0  0
  2  1  1  1
  2  8  1  0
  3  2  1  0
  4  3  1  0
  5  4  1  0
  6  5  1  0
  7  6  1  0
  8 10  1  0
  8  9  2  0
 10 11  1  0
 12 11  1  0
 13 14  1  0
 13 12  1  0
 14 10  1  0
 14 15  1  6
 16 15  2  0
 17 18  1  0
 19 18  1  1
 19 21  1  0
 19 20  1  0
 20 15  1  0
 21 22  1  0
 23 21  2  0
M  END
$$$$
