KPS.pdb
     RDKit          3D

 23 23  0  0  1  0  0  0  0  0999 V2000
    8.5509  -14.8737   21.2879 N   0  0  0  0  0  0  0  0  0  0  0  0
    7.6281  -14.8385   22.3340 C   0  0  1  0  0  0  0  0  0  0  0  0
    6.6955  -16.0062   22.4396 C   0  0  0  0  0  0  0  0  0  0  0  0
    6.8069  -17.0073   21.3498 C   0  0  0  0  0  0  0  0  0  0  0  0
    5.8745  -18.1864   21.5122 C   0  0  0  0  0  0  0  0  0  0  0  0
    5.8987  -19.0871   20.2961 C   0  0  0  0  0  0  0  0  0  0  0  0
    5.0541  -20.2377   20.4258 N   0  0  0  0  0  0  0  0  0  0  0  0
    8.2850  -14.6381   23.6475 C   0  0  0  0  0  0  0  0  0  0  0  0
    9.2497  -15.4599   23.8845 O   0  0  0  0  0  0  0  0  0  0  0  0
    7.9805  -13.6816   24.6265 N   0  0  0  0  0  0  0  0  0  0  0  0
    7.6263  -12.2536   24.3960 C   0  0  0  0  0  0  0  0  0  0  0  0
    6.4239  -12.1081   25.3383 C   0  0  0  0  0  0  0  0  0  0  0  0
    6.4623  -13.3383   26.2603 C   0  0  0  0  0  0  0  0  0  0  0  0
    7.9223  -13.7233   26.0586 C   0  0  1  0  0  0  0  0  0  0  0  0
    8.3894  -14.8531   26.7987 C   0  0  0  0  0  0  0  0  0  0  0  0
    7.6790  -15.8299   27.0882 O   0  0  0  0  0  0  0  0  0  0  0  0
   12.4020  -15.5301   27.2275 O   0  0  0  0  0  0  0  0  0  0  0  0
   11.5010  -16.5762   27.4219 C   0  0  0  0  0  0  0  0  0  0  0  0
   10.2041  -16.0713   28.0556 C   0  0  2  0  0  0  0  0  0  0  0  0
    9.7544  -14.9648   27.2873 N   0  0  0  0  0  0  0  0  0  0  0  0
   10.5539  -15.7048   29.4586 C   0  0  0  0  0  0  0  0  0  0  0  0
   11.0109  -16.7319   30.2743 O   0  0  0  0  0  0  0  0  0  0  0  0
   10.4557  -14.5556   29.9102 O   0  0  0  0  0  0  0  0  0  0  0  0
  2  1  1  6
  2  8  1  0
  3  2  1  0
  4  3  1  0
  5  4  1  0
  6  5  1  0
  7  6  1  0
  8 10  1  0
  8  9  2  0
 10 11  1  0
 12 11  1  0
 13 14  1  0
 13 12  1  0
 14 10  1  0
 14 15  1  6
 16 15  2  0
 17 18  1  0
 19 18  1  6
 19 21  1  0
 19 20  1  0
 20 15  1  0
 21 22  1  0
 23 21  2  0
M  END
$$$$
