SKN.pdb
     RDKit          3D

 24 23  0  0  1  0  0  0  0  0999 V2000
   13.9652  -18.6134   16.4072 O   0  0  0  0  0  0  0  0  0  0  0  0
   12.6845  -18.1192   16.1541 C   0  0  0  0  0  0  0  0  0  0  0  0
   12.7348  -16.6371   15.9808 C   0  0  2  0  0  0  0  0  0  0  0  0
   13.8573  -16.2956   15.1214 N   0  0  0  0  0  0  0  0  0  0  0  0
   12.8499  -15.9292   17.2884 C   0  0  0  0  0  0  0  0  0  0  0  0
   13.9334  -15.5005   17.7327 O   0  0  0  0  0  0  0  0  0  0  0  0
   11.6882  -15.7264   18.0728 N   0  0  0  0  0  0  0  0  0  0  0  0
   11.7487  -14.9203   19.3374 C   0  0  1  0  0  0  0  0  0  0  0  0
   10.3123  -14.6282   19.6309 C   0  0  0  0  0  0  0  0  0  0  0  0
    9.6581  -13.5884   18.7778 C   0  0  0  0  0  0  0  0  0  0  0  0
    8.1833  -13.5240   19.2405 C   0  0  0  0  0  0  0  0  0  0  0  0
    7.4683  -12.4719   18.3904 C   0  0  0  0  0  0  0  0  0  0  0  0
    6.0947  -12.4287   18.7896 N   0  0  0  0  0  0  0  0  0  0  0  0
   12.3956  -15.7354   20.3539 C   0  0  0  0  0  0  0  0  0  0  0  0
   12.3687  -17.0142   20.2757 O   0  0  0  0  0  0  0  0  0  0  0  0
   16.5865  -17.4389   23.3795 N   0  0  0  0  0  0  0  0  0  0  0  0
   15.8776  -16.2774   23.7320 C   0  0  0  0  0  0  0  0  0  0  0  0
   15.8743  -15.8895   24.9519 O   0  0  0  0  0  0  0  0  0  0  0  0
   15.1408  -15.4888   22.7472 C   0  0  0  0  0  0  0  0  0  0  0  0
   13.7991  -16.0718   22.3888 C   0  0  2  0  0  0  0  0  0  0  0  0
   13.0880  -15.2039   21.4649 N   0  0  0  0  0  0  0  0  0  0  0  0
   12.9937  -16.2796   23.5976 C   0  0  0  0  0  0  0  0  0  0  0  0
   13.3242  -17.0716   24.5460 O   0  0  0  0  0  0  0  0  0  0  0  0
   11.7865  -15.5643   23.7212 O   0  0  0  0  0  0  0  0  0  0  0  0
  1  2  1  0
  2  3  1  0
  3  5  1  0
  3  4  1  6
  5  6  2  0
  7  8  1  0
  7  5  1  0
  8 14  1  0
  8  9  1  1
 10  9  1  0
 10 11  1  0
 11 12  1  0
 13 12  1  0
 14 21  1  0
 14 15  2  0
 16 17  1  0
 17 19  1  0
 18 17  2  0
 20 19  1  1
 20 22  1  0
 21 20  1  0
 22 23  2  0
 22 24  1  0
M  END
$$$$
