SKN.pdb
     RDKit          3D

 24 23  0  0  1  0  0  0  0  0999 V2000
    7.4535  -11.1693   27.9857 O   0  0  0  0  0  0  0  0  0  0  0  0
    7.4827  -12.4025   27.3324 C   0  0  0  0  0  0  0  0  0  0  0  0
    6.3573  -12.4887   26.3551 C   0  0  2  0  0  0  0  0  0  0  0  0
    5.0979  -12.5320   27.0811 N   0  0  0  0  0  0  0  0  0  0  0  0
    6.4839  -13.6801   25.4668 C   0  0  0  0  0  0  0  0  0  0  0  0
    5.9700  -14.7836   25.7377 O   0  0  0  0  0  0  0  0  0  0  0  0
    7.2162  -13.5713   24.2595 N   0  0  0  0  0  0  0  0  0  0  0  0
    7.3911  -14.7599   23.3598 C   0  0  1  0  0  0  0  0  0  0  0  0
    7.6111  -14.1463   22.0145 C   0  0  0  0  0  0  0  0  0  0  0  0
    7.9103  -15.0911   20.8943 C   0  0  0  0  0  0  0  0  0  0  0  0
    8.0365  -14.2183   19.6232 C   0  0  0  0  0  0  0  0  0  0  0  0
    8.3833  -15.1394   18.4518 C   0  0  0  0  0  0  0  0  0  0  0  0
    8.5584  -14.3335   17.2823 N   0  0  0  0  0  0  0  0  0  0  0  0
    8.5318  -15.5210   23.8450 C   0  0  0  0  0  0  0  0  0  0  0  0
    9.6069  -14.9231   24.2040 O   0  0  0  0  0  0  0  0  0  0  0  0
    7.4240  -19.0349   26.9093 N   0  0  0  0  0  0  0  0  0  0  0  0
    8.7128  -18.5997   26.5553 C   0  0  0  0  0  0  0  0  0  0  0  0
    9.4124  -17.9494   27.4076 O   0  0  0  0  0  0  0  0  0  0  0  0
    9.2885  -18.8677   25.2395 C   0  0  0  0  0  0  0  0  0  0  0  0
    9.7039  -17.6243   24.4978 C   0  0  2  0  0  0  0  0  0  0  0  0
    8.5447  -16.9288   23.9639 N   0  0  0  0  0  0  0  0  0  0  0  0
   10.6267  -17.9641   23.4088 C   0  0  0  0  0  0  0  0  0  0  0  0
   10.3885  -17.7293   22.1743 O   0  0  0  0  0  0  0  0  0  0  0  0
   11.8467  -18.5842   23.7426 O   0  0  0  0  0  0  0  0  0  0  0  0
  1  2  1  0
  2  3  1  0
  3  5  1  0
  3  4  1  1
  5  6  2  0
  7  8  1  0
  7  5  1  0
  8 14  1  0
  8  9  1  6
 10  9  1  0
 10 11  1  0
 11 12  1  0
 13 12  1  0
 14 21  1  0
 14 15  2  0
 16 17  1  0
 17 19  1  0
 18 17  2  0
 20 19  1  6
 20 22  1  0
 21 20  1  0
 22 23  2  0
 22 24  1  0
M  END
$$$$
