SKN.pdb
     RDKit          3D

 24 23  0  0  1  0  0  0  0  0999 V2000
   13.1202  -19.6233   15.0002 O   0  0  0  0  0  0  0  0  0  0  0  0
   13.0115  -18.6170   15.9615 C   0  0  0  0  0  0  0  0  0  0  0  0
   11.6210  -18.0735   15.9760 C   0  0  2  0  0  0  0  0  0  0  0  0
   11.4774  -17.1029   14.9025 N   0  0  0  0  0  0  0  0  0  0  0  0
   11.2833  -17.4486   17.2874 C   0  0  0  0  0  0  0  0  0  0  0  0
   11.5503  -16.2613   17.5598 O   0  0  0  0  0  0  0  0  0  0  0  0
   10.6312  -18.2228   18.2780 N   0  0  0  0  0  0  0  0  0  0  0  0
   10.2304  -17.6102   19.5883 C   0  0  1  0  0  0  0  0  0  0  0  0
    9.0245  -18.3996   19.9851 C   0  0  0  0  0  0  0  0  0  0  0  0
    7.7867  -18.1732   19.1765 C   0  0  0  0  0  0  0  0  0  0  0  0
    6.7316  -19.1616   19.7271 C   0  0  0  0  0  0  0  0  0  0  0  0
    5.4466  -18.9783   18.9174 C   0  0  0  0  0  0  0  0  0  0  0  0
    4.4943  -19.9512   19.3585 N   0  0  0  0  0  0  0  0  0  0  0  0
   11.3484  -17.7552   20.5075 C   0  0  0  0  0  0  0  0  0  0  0  0
   12.0416  -18.8329   20.5229 O   0  0  0  0  0  0  0  0  0  0  0  0
   15.2805  -16.8861   23.8160 N   0  0  0  0  0  0  0  0  0  0  0  0
   15.0238  -15.7855   22.9802 C   0  0  0  0  0  0  0  0  0  0  0  0
   15.8849  -14.8416   22.9023 O   0  0  0  0  0  0  0  0  0  0  0  0
   13.8004  -15.6808   22.1884 C   0  0  0  0  0  0  0  0  0  0  0  0
   12.9447  -16.9195   22.2330 C   0  0  2  0  0  0  0  0  0  0  0  0
   11.7520  -16.7540   21.4191 N   0  0  0  0  0  0  0  0  0  0  0  0
   12.5653  -17.2280   23.6164 C   0  0  0  0  0  0  0  0  0  0  0  0
   13.3919  -17.6168   24.5116 O   0  0  0  0  0  0  0  0  0  0  0  0
   11.2117  -17.0867   23.9801 O   0  0  0  0  0  0  0  0  0  0  0  0
  1  2  1  0
  2  3  1  0
  3  5  1  0
  3  4  1  6
  5  6  2  0
  7  8  1  0
  7  5  1  0
  8 14  1  0
  8  9  1  1
 10  9  1  0
 10 11  1  0
 11 12  1  0
 13 12  1  0
 14 21  1  0
 14 15  2  0
 16 17  1  0
 17 19  1  0
 18 17  2  0
 20 19  1  1
 20 22  1  0
 21 20  1  0
 22 23  2  0
 22 24  1  0
M  END
$$$$
