SKN.pdb
     RDKit          3D

 24 23  0  0  1  0  0  0  0  0999 V2000
   11.2454  -20.8661   18.0568 O   0  0  0  0  0  0  0  0  0  0  0  0
   11.0050  -19.9390   19.0723 C   0  0  0  0  0  0  0  0  0  0  0  0
   10.8527  -18.5727   18.4900 C   0  0  2  0  0  0  0  0  0  0  0  0
   11.7966  -18.4134   17.3951 N   0  0  0  0  0  0  0  0  0  0  0  0
   11.0616  -17.5074   19.5127 C   0  0  0  0  0  0  0  0  0  0  0  0
   12.1852  -17.0368   19.7796 O   0  0  0  0  0  0  0  0  0  0  0  0
    9.9465  -16.9967   20.2210 N   0  0  0  0  0  0  0  0  0  0  0  0
   10.1252  -15.9414   21.2732 C   0  0  1  0  0  0  0  0  0  0  0  0
    8.8488  -15.1661   21.2062 C   0  0  0  0  0  0  0  0  0  0  0  0
    8.6660  -14.2898   20.0080 C   0  0  0  0  0  0  0  0  0  0  0  0
    7.2411  -13.6988   20.1260 C   0  0  0  0  0  0  0  0  0  0  0  0
    7.0022  -12.7992   18.9118 C   0  0  0  0  0  0  0  0  0  0  0  0
    5.6701  -12.2822   18.9901 N   0  0  0  0  0  0  0  0  0  0  0  0
   10.3309  -16.6135   22.5468 C   0  0  0  0  0  0  0  0  0  0  0  0
    9.6082  -17.6197   22.8749 O   0  0  0  0  0  0  0  0  0  0  0  0
   14.8904  -16.3787   23.7357 N   0  0  0  0  0  0  0  0  0  0  0  0
   13.8855  -17.2654   24.1594 C   0  0  0  0  0  0  0  0  0  0  0  0
   13.8096  -18.4283   23.6295 O   0  0  0  0  0  0  0  0  0  0  0  0
   12.9182  -16.9056   25.1935 C   0  0  0  0  0  0  0  0  0  0  0  0
   11.4868  -16.9678   24.7291 C   0  0  2  0  0  0  0  0  0  0  0  0
   11.3131  -16.2317   23.4879 N   0  0  0  0  0  0  0  0  0  0  0  0
   10.5922  -16.4270   25.7587 C   0  0  0  0  0  0  0  0  0  0  0  0
   10.5436  -16.8631   26.9601 O   0  0  0  0  0  0  0  0  0  0  0  0
    9.7379  -15.3647   25.4036 O   0  0  0  0  0  0  0  0  0  0  0  0
  1  2  1  0
  2  3  1  0
  3  5  1  0
  3  4  1  6
  5  6  2  0
  7  8  1  0
  7  5  1  0
  8 14  1  0
  8  9  1  1
 10  9  1  0
 10 11  1  0
 11 12  1  0
 13 12  1  0
 14 21  1  0
 14 15  2  0
 16 17  1  0
 17 19  1  0
 18 17  2  0
 20 19  1  1
 20 22  1  0
 21 20  1  0
 22 23  2  0
 22 24  1  0
M  END
$$$$
