SKN.pdb
     RDKit          3D

 24 23  0  0  1  0  0  0  0  0999 V2000
   14.2010  -20.0793   22.7979 O   0  0  0  0  0  0  0  0  0  0  0  0
   13.0577  -20.1844   23.5917 C   0  0  0  0  0  0  0  0  0  0  0  0
   11.9140  -19.4853   22.9340 C   0  0  2  0  0  0  0  0  0  0  0  0
   12.4298  -18.5690   21.9294 N   0  0  0  0  0  0  0  0  0  0  0  0
   11.0713  -18.7505   23.9210 C   0  0  0  0  0  0  0  0  0  0  0  0
   11.2812  -17.5628   24.2383 O   0  0  0  0  0  0  0  0  0  0  0  0
    9.9813  -19.4150   24.5343 N   0  0  0  0  0  0  0  0  0  0  0  0
    9.0430  -18.6725   25.4404 C   0  0  1  0  0  0  0  0  0  0  0  0
    7.7005  -19.2139   25.0671 C   0  0  0  0  0  0  0  0  0  0  0  0
    7.4422  -19.4001   23.6057 C   0  0  0  0  0  0  0  0  0  0  0  0
    6.0539  -20.0747   23.5011 C   0  0  0  0  0  0  0  0  0  0  0  0
    5.7431  -20.2856   22.0180 C   0  0  0  0  0  0  0  0  0  0  0  0
    4.4742  -20.9389   21.9128 N   0  0  0  0  0  0  0  0  0  0  0  0
    9.4262  -18.9640   26.8130 C   0  0  0  0  0  0  0  0  0  0  0  0
    8.7363  -18.5069   27.7915 O   0  0  0  0  0  0  0  0  0  0  0  0
   10.4550  -20.3556   31.6283 N   0  0  0  0  0  0  0  0  0  0  0  0
   10.5480  -21.2935   30.5855 C   0  0  0  0  0  0  0  0  0  0  0  0
   11.0237  -22.4570   30.8277 O   0  0  0  0  0  0  0  0  0  0  0  0
   10.1148  -20.9864   29.2244 C   0  0  0  0  0  0  0  0  0  0  0  0
   10.9358  -19.9144   28.5571 C   0  0  2  0  0  0  0  0  0  0  0  0
   10.5438  -19.7527   27.1669 N   0  0  0  0  0  0  0  0  0  0  0  0
   12.3639  -20.2410   28.6376 C   0  0  0  0  0  0  0  0  0  0  0  0
   12.9756  -20.4955   29.7317 O   0  0  0  0  0  0  0  0  0  0  0  0
   13.1044  -20.2777   27.4397 O   0  0  0  0  0  0  0  0  0  0  0  0
  1  2  1  0
  2  3  1  0
  3  5  1  0
  3  4  1  6
  5  6  2  0
  7  8  1  0
  7  5  1  0
  8 14  1  0
  8  9  1  1
 10  9  1  0
 10 11  1  0
 11 12  1  0
 13 12  1  0
 14 21  1  0
 14 15  2  0
 16 17  1  0
 17 19  1  0
 18 17  2  0
 20 19  1  6
 20 22  1  0
 21 20  1  0
 22 23  2  0
 22 24  1  0
M  END
$$$$
