SKN.pdb
     RDKit          3D

 24 23  0  0  1  0  0  0  0  0999 V2000
   10.8387  -18.8237   18.0788 O   0  0  0  0  0  0  0  0  0  0  0  0
    9.7802  -19.4361   17.4058 C   0  0  0  0  0  0  0  0  0  0  0  0
    8.5102  -18.6983   17.6741 C   0  0  2  0  0  0  0  0  0  0  0  0
    8.6281  -17.3435   17.1586 N   0  0  0  0  0  0  0  0  0  0  0  0
    8.1805  -18.6719   19.1283 C   0  0  0  0  0  0  0  0  0  0  0  0
    8.2143  -17.6288   19.8109 O   0  0  0  0  0  0  0  0  0  0  0  0
    7.8111  -19.8747   19.7784 N   0  0  0  0  0  0  0  0  0  0  0  0
    7.5907  -19.9069   21.2628 C   0  0  1  0  0  0  0  0  0  0  0  0
    6.6252  -21.0336   21.4450 C   0  0  0  0  0  0  0  0  0  0  0  0
    6.3335  -21.4368   22.8555 C   0  0  0  0  0  0  0  0  0  0  0  0
    5.2426  -22.5304   22.7689 C   0  0  0  0  0  0  0  0  0  0  0  0
    4.9897  -23.0565   24.1830 C   0  0  0  0  0  0  0  0  0  0  0  0
    4.1555  -24.2155   24.0893 N   0  0  0  0  0  0  0  0  0  0  0  0
    8.8786  -20.1363   21.8988 C   0  0  0  0  0  0  0  0  0  0  0  0
    9.8165  -20.7404   21.2682 O   0  0  0  0  0  0  0  0  0  0  0  0
   13.2260  -18.7507   24.2039 N   0  0  0  0  0  0  0  0  0  0  0  0
   12.5903  -18.1314   23.1139 C   0  0  0  0  0  0  0  0  0  0  0  0
   13.2413  -17.2893   22.4027 O   0  0  0  0  0  0  0  0  0  0  0  0
   11.2025  -18.4188   22.7589 C   0  0  0  0  0  0  0  0  0  0  0  0
   10.5692  -19.4850   23.6138 C   0  0  2  0  0  0  0  0  0  0  0  0
    9.1924  -19.7202   23.2120 N   0  0  0  0  0  0  0  0  0  0  0  0
   10.6168  -19.0995   25.0288 C   0  0  0  0  0  0  0  0  0  0  0  0
    9.6065  -18.6673   25.6833 O   0  0  0  0  0  0  0  0  0  0  0  0
   11.8467  -19.2130   25.7061 O   0  0  0  0  0  0  0  0  0  0  0  0
  1  2  1  0
  2  3  1  0
  3  5  1  0
  3  4  1  1
  5  6  2  0
  7  8  1  0
  7  5  1  0
  8 14  1  0
  8  9  1  6
 10  9  1  0
 10 11  1  0
 11 12  1  0
 13 12  1  0
 14 21  1  0
 14 15  2  0
 16 17  1  0
 17 19  1  0
 18 17  2  0
 20 19  1  6
 20 22  1  0
 21 20  1  0
 22 23  2  0
 22 24  1  0
M  END
$$$$
