SKN.pdb
     RDKit          3D

 24 23  0  0  1  0  0  0  0  0999 V2000
   10.9868  -17.4421   13.5390 O   0  0  0  0  0  0  0  0  0  0  0  0
   10.4072  -17.2879   14.7995 C   0  0  0  0  0  0  0  0  0  0  0  0
    8.9810  -17.7281   14.7624 C   0  0  2  0  0  0  0  0  0  0  0  0
    8.2467  -16.8867   13.8308 N   0  0  0  0  0  0  0  0  0  0  0  0
    8.3498  -17.6785   16.1127 C   0  0  0  0  0  0  0  0  0  0  0  0
    7.7821  -16.6610   16.5573 O   0  0  0  0  0  0  0  0  0  0  0  0
    8.3876  -18.8278   16.9394 N   0  0  0  0  0  0  0  0  0  0  0  0
    7.8011  -18.7976   18.3208 C   0  0  1  0  0  0  0  0  0  0  0  0
    7.2326  -20.1704   18.4855 C   0  0  0  0  0  0  0  0  0  0  0  0
    6.6596  -20.4953   19.8284 C   0  0  0  0  0  0  0  0  0  0  0  0
    6.0117  -21.8931   19.6880 C   0  0  0  0  0  0  0  0  0  0  0  0
    5.2653  -22.1991   20.9880 C   0  0  0  0  0  0  0  0  0  0  0  0
    4.5698  -23.4393   20.8263 N   0  0  0  0  0  0  0  0  0  0  0  0
    8.8759  -18.4978   19.2539 C   0  0  0  0  0  0  0  0  0  0  0  0
   10.0708  -18.8971   19.0191 O   0  0  0  0  0  0  0  0  0  0  0  0
   10.7471  -14.7221   23.7449 N   0  0  0  0  0  0  0  0  0  0  0  0
   10.8082  -15.8162   22.8647 C   0  0  0  0  0  0  0  0  0  0  0  0
   11.8427  -16.5702   22.8707 O   0  0  0  0  0  0  0  0  0  0  0  0
    9.7231  -16.1281   21.9375 C   0  0  0  0  0  0  0  0  0  0  0  0
    9.8154  -17.5088   21.3427 C   0  0  2  0  0  0  0  0  0  0  0  0
    8.6991  -17.7620   20.4470 N   0  0  0  0  0  0  0  0  0  0  0  0
    9.8421  -18.5211   22.4046 C   0  0  0  0  0  0  0  0  0  0  0  0
    8.8402  -18.7977   23.1499 O   0  0  0  0  0  0  0  0  0  0  0  0
   11.0410  -19.2304   22.6146 O   0  0  0  0  0  0  0  0  0  0  0  0
  1  2  1  0
  2  3  1  0
  3  5  1  0
  3  4  1  6
  5  6  2  0
  7  8  1  0
  7  5  1  0
  8 14  1  0
  8  9  1  1
 10  9  1  0
 10 11  1  0
 11 12  1  0
 13 12  1  0
 14 21  1  0
 14 15  2  0
 16 17  1  0
 17 19  1  0
 18 17  2  0
 20 19  1  1
 20 22  1  0
 21 20  1  0
 22 23  2  0
 22 24  1  0
M  END
$$$$
