SKN.pdb
     RDKit          3D

 24 23  0  0  1  0  0  0  0  0999 V2000
    7.1425  -15.9958   16.5306 O   0  0  0  0  0  0  0  0  0  0  0  0
    8.2235  -15.2684   17.0314 C   0  0  0  0  0  0  0  0  0  0  0  0
    7.7314  -14.0755   17.7825 C   0  0  2  0  0  0  0  0  0  0  0  0
    7.8400  -12.8997   16.9336 N   0  0  0  0  0  0  0  0  0  0  0  0
    8.4865  -13.8690   19.0519 C   0  0  0  0  0  0  0  0  0  0  0  0
    9.6513  -13.4244   19.0816 O   0  0  0  0  0  0  0  0  0  0  0  0
    7.8693  -14.1865   20.2864 N   0  0  0  0  0  0  0  0  0  0  0  0
    8.5786  -13.9341   21.5849 C   0  0  1  0  0  0  0  0  0  0  0  0
    7.4608  -13.7183   22.5538 C   0  0  0  0  0  0  0  0  0  0  0  0
    7.8433  -13.6079   23.9955 C   0  0  0  0  0  0  0  0  0  0  0  0
    6.5275  -13.3477   24.7665 C   0  0  0  0  0  0  0  0  0  0  0  0
    6.8791  -13.1353   26.2402 C   0  0  0  0  0  0  0  0  0  0  0  0
    5.6901  -12.7459   26.9348 N   0  0  0  0  0  0  0  0  0  0  0  0
    9.3892  -15.1044   21.8838 C   0  0  0  0  0  0  0  0  0  0  0  0
    8.9313  -16.2829   21.6742 O   0  0  0  0  0  0  0  0  0  0  0  0
   13.6560  -14.5701   20.4030 N   0  0  0  0  0  0  0  0  0  0  0  0
   13.0836  -15.7755   20.8446 C   0  0  0  0  0  0  0  0  0  0  0  0
   12.7074  -16.6448   19.9835 O   0  0  0  0  0  0  0  0  0  0  0  0
   12.9038  -16.0755   22.2631 C   0  0  0  0  0  0  0  0  0  0  0  0
   11.4628  -16.2504   22.6652 C   0  0  2  0  0  0  0  0  0  0  0  0
   10.7018  -15.0403   22.4025 N   0  0  0  0  0  0  0  0  0  0  0  0
   11.3685  -16.5998   24.0871 C   0  0  0  0  0  0  0  0  0  0  0  0
   10.6637  -15.9511   24.9345 O   0  0  0  0  0  0  0  0  0  0  0  0
   12.0961  -17.7156   24.5455 O   0  0  0  0  0  0  0  0  0  0  0  0
  1  2  1  0
  2  3  1  0
  3  5  1  0
  3  4  1  6
  5  6  2  0
  7  8  1  0
  7  5  1  0
  8 14  1  0
  8  9  1  1
 10  9  1  0
 10 11  1  0
 11 12  1  0
 13 12  1  0
 14 21  1  0
 14 15  2  0
 16 17  1  0
 17 19  1  0
 18 17  2  0
 20 19  1  1
 20 22  1  0
 21 20  1  0
 22 23  2  0
 22 24  1  0
M  END
$$$$
