SKN.pdb
     RDKit          3D

 24 23  0  0  1  0  0  0  0  0999 V2000
    5.8217  -20.6948   25.4250 O   0  0  0  0  0  0  0  0  0  0  0  0
    6.8225  -20.1087   24.6483 C   0  0  0  0  0  0  0  0  0  0  0  0
    6.2880  -19.7748   23.2948 C   0  0  2  0  0  0  0  0  0  0  0  0
    5.8701  -20.9999   22.6319 N   0  0  0  0  0  0  0  0  0  0  0  0
    7.2944  -19.0536   22.4633 C   0  0  0  0  0  0  0  0  0  0  0  0
    8.1610  -19.6431   21.7876 O   0  0  0  0  0  0  0  0  0  0  0  0
    7.2798  -17.6379   22.4282 N   0  0  0  0  0  0  0  0  0  0  0  0
    8.3136  -16.8802   21.6471 C   0  0  1  0  0  0  0  0  0  0  0  0
    7.6005  -15.6263   21.2544 C   0  0  0  0  0  0  0  0  0  0  0  0
    8.3919  -14.6307   20.4673 C   0  0  0  0  0  0  0  0  0  0  0  0
    7.4398  -14.1032   19.3680 C   0  0  0  0  0  0  0  0  0  0  0  0
    8.2346  -13.1487   18.4747 C   0  0  0  0  0  0  0  0  0  0  0  0
    7.3571  -12.6435   17.4633 N   0  0  0  0  0  0  0  0  0  0  0  0
    9.4528  -16.6513   22.5221 C   0  0  0  0  0  0  0  0  0  0  0  0
    9.2899  -16.1135   23.6739 O   0  0  0  0  0  0  0  0  0  0  0  0
   11.8866  -20.3095   23.1598 N   0  0  0  0  0  0  0  0  0  0  0  0
   12.0870  -19.1050   23.8561 C   0  0  0  0  0  0  0  0  0  0  0  0
   11.6751  -19.0016   25.0637 O   0  0  0  0  0  0  0  0  0  0  0  0
   12.7565  -17.9583   23.2468 C   0  0  0  0  0  0  0  0  0  0  0  0
   11.8745  -16.7446   23.1142 C   0  0  2  0  0  0  0  0  0  0  0  0
   10.7816  -16.9978   22.1900 N   0  0  0  0  0  0  0  0  0  0  0  0
   12.6581  -15.5919   22.6559 C   0  0  0  0  0  0  0  0  0  0  0  0
   12.4449  -14.9789   21.5538 O   0  0  0  0  0  0  0  0  0  0  0  0
   13.7057  -15.1330   23.4783 O   0  0  0  0  0  0  0  0  0  0  0  0
  1  2  1  0
  2  3  1  0
  3  5  1  0
  3  4  1  6
  5  6  2  0
  7  8  1  0
  7  5  1  0
  8 14  1  0
  8  9  1  1
 10  9  1  0
 10 11  1  0
 11 12  1  0
 13 12  1  0
 14 21  1  0
 14 15  2  0
 16 17  1  0
 17 19  1  0
 18 17  2  0
 20 19  1  6
 20 22  1  0
 21 20  1  0
 22 23  2  0
 22 24  1  0
M  END
$$$$
