SKN.pdb
     RDKit          3D

 24 23  0  0  1  0  0  0  0  0999 V2000
   10.7514  -21.1716   11.8997 O   0  0  0  0  0  0  0  0  0  0  0  0
    9.7582  -20.8209   12.8156 C   0  0  0  0  0  0  0  0  0  0  0  0
    9.4323  -19.3698   12.6839 C   0  0  2  0  0  0  0  0  0  0  0  0
    9.3030  -19.0364   11.2742 N   0  0  0  0  0  0  0  0  0  0  0  0
   10.4662  -18.5084   13.3268 C   0  0  0  0  0  0  0  0  0  0  0  0
   11.4785  -18.1013   12.7229 O   0  0  0  0  0  0  0  0  0  0  0  0
   10.3075  -18.1268   14.6814 N   0  0  0  0  0  0  0  0  0  0  0  0
   11.2628  -17.1629   15.3228 C   0  0  1  0  0  0  0  0  0  0  0  0
   10.4127  -16.4465   16.3223 C   0  0  0  0  0  0  0  0  0  0  0  0
    9.6274  -15.2803   15.8120 C   0  0  0  0  0  0  0  0  0  0  0  0
    8.7757  -14.7856   17.0049 C   0  0  0  0  0  0  0  0  0  0  0  0
    7.8893  -13.6416   16.5086 C   0  0  0  0  0  0  0  0  0  0  0  0
    7.0682  -13.2044   17.5961 N   0  0  0  0  0  0  0  0  0  0  0  0
   12.3389  -17.9361   15.9229 C   0  0  0  0  0  0  0  0  0  0  0  0
   12.1553  -19.1619   16.2483 O   0  0  0  0  0  0  0  0  0  0  0  0
   18.4638  -18.4449   16.2465 N   0  0  0  0  0  0  0  0  0  0  0  0
   17.1275  -18.7126   16.5909 C   0  0  0  0  0  0  0  0  0  0  0  0
   16.8575  -19.7352   17.3120 O   0  0  0  0  0  0  0  0  0  0  0  0
   16.0270  -17.8568   16.1539 C   0  0  0  0  0  0  0  0  0  0  0  0
   14.6859  -18.2728   16.6989 C   0  0  2  0  0  0  0  0  0  0  0  0
   13.6293  -17.4208   16.1790 N   0  0  0  0  0  0  0  0  0  0  0  0
   14.6924  -18.2204   18.1652 C   0  0  0  0  0  0  0  0  0  0  0  0
   14.2455  -17.2331   18.8444 O   0  0  0  0  0  0  0  0  0  0  0  0
   15.2208  -19.3223   18.8658 O   0  0  0  0  0  0  0  0  0  0  0  0
  1  2  1  0
  2  3  1  0
  3  5  1  0
  3  4  1  6
  5  6  2  0
  7  8  1  0
  7  5  1  0
  8 14  1  0
  8  9  1  1
 10  9  1  0
 10 11  1  0
 11 12  1  0
 13 12  1  0
 14 21  1  0
 14 15  2  0
 16 17  1  0
 17 19  1  0
 18 17  2  0
 20 19  1  6
 20 22  1  0
 21 20  1  0
 22 23  2  0
 22 24  1  0
M  END
$$$$
