SKN.pdb
     RDKit          3D

 24 23  0  0  1  0  0  0  0  0999 V2000
    7.6778  -18.6679   17.6175 O   0  0  0  0  0  0  0  0  0  0  0  0
    8.4441  -17.5202   17.8270 C   0  0  0  0  0  0  0  0  0  0  0  0
    9.2866  -17.6853   19.0485 C   0  0  2  0  0  0  0  0  0  0  0  0
   10.0820  -18.8958   18.9187 N   0  0  0  0  0  0  0  0  0  0  0  0
    8.4605  -17.7392   20.2890 C   0  0  0  0  0  0  0  0  0  0  0  0
    7.6992  -16.8143   20.6356 O   0  0  0  0  0  0  0  0  0  0  0  0
    8.5315  -18.8829   21.1213 N   0  0  0  0  0  0  0  0  0  0  0  0
    7.6107  -19.0331   22.2971 C   0  0  1  0  0  0  0  0  0  0  0  0
    6.8549  -20.2851   21.9871 C   0  0  0  0  0  0  0  0  0  0  0  0
    5.9260  -20.7805   23.0495 C   0  0  0  0  0  0  0  0  0  0  0  0
    5.2305  -22.0297   22.4584 C   0  0  0  0  0  0  0  0  0  0  0  0
    4.2172  -22.5357   23.4869 C   0  0  0  0  0  0  0  0  0  0  0  0
    3.5563  -23.6817   22.9412 N   0  0  0  0  0  0  0  0  0  0  0  0
    8.4307  -19.1307   23.4946 C   0  0  0  0  0  0  0  0  0  0  0  0
    8.5231  -18.1394   24.3016 O   0  0  0  0  0  0  0  0  0  0  0  0
   11.0495  -20.7067   27.6521 N   0  0  0  0  0  0  0  0  0  0  0  0
    9.7034  -20.3108   27.5680 C   0  0  0  0  0  0  0  0  0  0  0  0
    9.0514  -20.0692   28.6429 O   0  0  0  0  0  0  0  0  0  0  0  0
    9.0169  -20.1610   26.2871 C   0  0  0  0  0  0  0  0  0  0  0  0
    9.9204  -20.3331   25.0943 C   0  0  2  0  0  0  0  0  0  0  0  0
    9.1587  -20.2859   23.8573 N   0  0  0  0  0  0  0  0  0  0  0  0
   10.6474  -21.6044   25.1840 C   0  0  0  0  0  0  0  0  0  0  0  0
   10.2153  -22.7073   24.7015 O   0  0  0  0  0  0  0  0  0  0  0  0
   11.8946  -21.6103   25.8388 O   0  0  0  0  0  0  0  0  0  0  0  0
  1  2  1  0
  2  3  1  0
  3  5  1  0
  3  4  1  6
  5  6  2  0
  7  8  1  0
  7  5  1  0
  8 14  1  0
  8  9  1  6
 10  9  1  0
 10 11  1  0
 11 12  1  0
 13 12  1  0
 14 21  1  0
 14 15  2  0
 16 17  1  0
 17 19  1  0
 18 17  2  0
 20 19  1  1
 20 22  1  0
 21 20  1  0
 22 23  2  0
 22 24  1  0
M  END
$$$$
