VQK.pdb
     RDKit          3D

 26 25  0  0  1  0  0  0  0  0999 V2000
   21.9215  -14.6123  -19.3865 C   0  0  0  0  0  0  0  0  0  0  0  0
   20.8904  -13.5301  -19.3503 C   0  0  1  0  0  0  0  0  0  0  0  0
   19.5313  -14.1108  -18.9616 C   0  0  0  0  0  0  0  0  0  0  0  0
   21.2987  -12.4656  -18.3708 C   0  0  2  0  0  0  0  0  0  0  0  0
   21.5426  -13.0448  -17.0904 N   0  0  0  0  0  0  0  0  0  0  0  0
   20.2984  -11.3727  -18.2826 C   0  0  0  0  0  0  0  0  0  0  0  0
   20.0054  -10.6855  -19.2887 O   0  0  0  0  0  0  0  0  0  0  0  0
   16.0019  -10.6192  -13.7769 N   0  0  0  0  0  0  0  0  0  0  0  0
   15.7151  -11.3292  -14.9691 C   0  0  0  0  0  0  0  0  0  0  0  0
   14.7046  -12.0592  -15.0121 O   0  0  0  0  0  0  0  0  0  0  0  0
   16.6076  -11.2176  -16.1826 C   0  0  0  0  0  0  0  0  0  0  0  0
   17.7343  -10.2897  -15.8678 C   0  0  0  0  0  0  0  0  0  0  0  0
   18.6762   -9.9942  -16.9869 C   0  0  2  0  0  0  0  0  0  0  0  0
   19.6671  -11.0967  -17.0640 N   0  0  0  0  0  0  0  0  0  0  0  0
   19.3987   -8.7123  -16.8757 C   0  0  0  0  0  0  0  0  0  0  0  0
   20.5032   -8.6513  -16.2180 O   0  0  0  0  0  0  0  0  0  0  0  0
   18.9654   -7.5219  -17.4557 N   0  0  0  0  0  0  0  0  0  0  0  0
   19.7741   -6.2464  -17.2966 C   0  0  1  0  0  0  0  0  0  0  0  0
   19.5207   -5.6024  -18.6310 C   0  0  0  0  0  0  0  0  0  0  0  0
   20.0002   -4.2634  -18.8679 C   0  0  0  0  0  0  0  0  0  0  0  0
   19.6299   -3.5870  -20.1268 C   0  0  0  0  0  0  0  0  0  0  0  0
   20.3233   -2.1791  -20.0396 C   0  0  0  0  0  0  0  0  0  0  0  0
   19.7812   -1.4293  -21.1486 N   0  0  0  0  0  0  0  0  0  0  0  0
   19.1287   -5.6146  -16.1451 C   0  0  0  0  0  0  0  0  0  0  0  0
   19.8764   -4.8047  -15.2704 O   0  0  0  0  0  0  0  0  0  0  0  0
   17.9308   -5.7408  -15.8635 O   0  0  0  0  0  0  0  0  0  0  0  0
  2  1  1  1
  2  4  1  0
  3  2  1  0
  4  5  1  1
  4  6  1  0
  6 14  1  0
  6  7  2  0
  8  9  1  0
  9 10  2  0
 11  9  1  0
 11 12  1  0
 13 12  1  1
 13 15  1  0
 14 13  1  0
 15 16  2  0
 17 18  1  0
 17 15  1  0
 18 24  1  0
 18 19  1  6
 20 19  1  0
 21 20  1  0
 22 21  1  0
 23 22  1  0
 24 25  1  0
 26 24  2  0
M  END
$$$$
