VQK.pdb
     RDKit          3D

 26 25  0  0  1  0  0  0  0  0999 V2000
   29.3976  -16.7517  -19.5441 C   0  0  0  0  0  0  0  0  0  0  0  0
   28.3084  -16.5894  -18.5327 C   0  0  1  0  0  0  0  0  0  0  0  0
   26.9447  -16.8003  -19.1893 C   0  0  0  0  0  0  0  0  0  0  0  0
   28.5008  -17.5705  -17.4103 C   0  0  2  0  0  0  0  0  0  0  0  0
   28.7006  -18.8820  -17.9342 N   0  0  0  0  0  0  0  0  0  0  0  0
   27.3735  -17.5451  -16.4453 C   0  0  0  0  0  0  0  0  0  0  0  0
   27.0356  -16.4800  -15.8780 O   0  0  0  0  0  0  0  0  0  0  0  0
   21.9760  -19.6684  -16.9537 N   0  0  0  0  0  0  0  0  0  0  0  0
   21.9145  -19.4103  -15.5618 C   0  0  0  0  0  0  0  0  0  0  0  0
   20.8086  -19.4487  -14.9862 O   0  0  0  0  0  0  0  0  0  0  0  0
   23.1588  -19.0910  -14.7675 C   0  0  0  0  0  0  0  0  0  0  0  0
   24.3183  -19.0017  -15.7041 C   0  0  0  0  0  0  0  0  0  0  0  0
   25.6451  -18.7158  -15.0840 C   0  0  2  0  0  0  0  0  0  0  0  0
   26.6707  -18.7210  -16.1571 N   0  0  0  0  0  0  0  0  0  0  0  0
   26.0585  -19.6584  -14.0265 C   0  0  0  0  0  0  0  0  0  0  0  0
   26.4695  -20.8369  -14.3400 O   0  0  0  0  0  0  0  0  0  0  0  0
   26.0452  -19.3566  -12.6664 N   0  0  0  0  0  0  0  0  0  0  0  0
   26.5324  -20.3702  -11.6459 C   0  0  1  0  0  0  0  0  0  0  0  0
   26.6988  -19.4807  -10.4457 C   0  0  0  0  0  0  0  0  0  0  0  0
   26.9777  -20.0761   -9.1624 C   0  0  0  0  0  0  0  0  0  0  0  0
   27.1116  -19.1971   -7.9839 C   0  0  0  0  0  0  0  0  0  0  0  0
   27.5729  -20.1543   -6.8255 C   0  0  0  0  0  0  0  0  0  0  0  0
   28.0182  -19.2730   -5.7714 N   0  0  0  0  0  0  0  0  0  0  0  0
   25.4168  -21.3162  -11.5951 C   0  0  0  0  0  0  0  0  0  0  0  0
   25.6346  -22.6469  -11.1932 O   0  0  0  0  0  0  0  0  0  0  0  0
   24.2500  -21.0317  -11.8912 O   0  0  0  0  0  0  0  0  0  0  0  0
  2  1  1  6
  2  4  1  0
  3  2  1  0
  4  5  1  6
  4  6  1  0
  6 14  1  0
  6  7  2  0
  8  9  1  0
  9 10  2  0
 11  9  1  0
 11 12  1  0
 13 12  1  6
 13 15  1  0
 14 13  1  0
 15 16  2  0
 17 18  1  0
 17 15  1  0
 18 24  1  0
 18 19  1  1
 20 19  1  0
 21 20  1  0
 22 21  1  0
 23 22  1  0
 24 25  1  0
 26 24  2  0
M  END
$$$$
