VQK.pdb
     RDKit          3D

 26 25  0  0  1  0  0  0  0  0999 V2000
   27.9451  -19.2775  -17.9680 C   0  0  0  0  0  0  0  0  0  0  0  0
   27.3148  -20.2946  -17.0715 C   0  0  1  0  0  0  0  0  0  0  0  0
   28.1752  -20.5037  -15.8260 C   0  0  0  0  0  0  0  0  0  0  0  0
   25.9346  -19.8470  -16.6791 C   0  0  2  0  0  0  0  0  0  0  0  0
   25.9575  -18.4771  -16.2826 N   0  0  0  0  0  0  0  0  0  0  0  0
   25.3495  -20.7025  -15.6168 C   0  0  0  0  0  0  0  0  0  0  0  0
   25.2177  -21.9373  -15.7844 O   0  0  0  0  0  0  0  0  0  0  0  0
   25.9721  -19.9441   -9.6669 N   0  0  0  0  0  0  0  0  0  0  0  0
   24.9427  -20.9169   -9.6271 C   0  0  0  0  0  0  0  0  0  0  0  0
   24.6173  -21.4110   -8.5290 O   0  0  0  0  0  0  0  0  0  0  0  0
   24.2362  -21.3634  -10.8853 C   0  0  0  0  0  0  0  0  0  0  0  0
   24.8184  -20.6321  -12.0497 C   0  0  0  0  0  0  0  0  0  0  0  0
   24.2649  -20.9820  -13.3905 C   0  0  2  0  0  0  0  0  0  0  0  0
   24.9359  -20.1331  -14.4066 N   0  0  0  0  0  0  0  0  0  0  0  0
   22.8042  -20.8216  -13.5265 C   0  0  0  0  0  0  0  0  0  0  0  0
   22.2931  -19.6451  -13.6298 O   0  0  0  0  0  0  0  0  0  0  0  0
   21.9044  -21.8848  -13.5610 N   0  0  0  0  0  0  0  0  0  0  0  0
   20.4090  -21.6289  -13.6265 C   0  0  1  0  0  0  0  0  0  0  0  0
   19.8904  -23.0213  -13.3995 C   0  0  0  0  0  0  0  0  0  0  0  0
   18.4690  -23.2312  -13.2779 C   0  0  0  0  0  0  0  0  0  0  0  0
   17.9509  -24.6136  -13.2796 C   0  0  0  0  0  0  0  0  0  0  0  0
   16.3910  -24.4527  -13.1724 C   0  0  0  0  0  0  0  0  0  0  0  0
   15.8884  -25.7990  -13.0280 N   0  0  0  0  0  0  0  0  0  0  0  0
   20.2106  -20.6822  -12.5282 C   0  0  0  0  0  0  0  0  0  0  0  0
   19.2592  -19.6520  -12.6446 O   0  0  0  0  0  0  0  0  0  0  0  0
   20.8379  -20.7120  -11.4626 O   0  0  0  0  0  0  0  0  0  0  0  0
  2  1  1  6
  2  4  1  0
  3  2  1  0
  4  5  1  1
  4  6  1  0
  6 14  1  0
  6  7  2  0
  8  9  1  0
  9 10  2  0
 11  9  1  0
 11 12  1  0
 13 12  1  1
 13 15  1  0
 14 13  1  0
 15 16  2  0
 17 18  1  0
 17 15  1  0
 18 24  1  0
 18 19  1  1
 20 19  1  0
 21 20  1  0
 22 21  1  0
 23 22  1  0
 24 25  1  0
 26 24  2  0
M  END
$$$$
