VQK.pdb
     RDKit          3D

 26 25  0  0  1  0  0  0  0  0999 V2000
   28.4944  -18.3013  -16.7409 C   0  0  0  0  0  0  0  0  0  0  0  0
   27.2008  -18.7645  -16.1514 C   0  0  1  0  0  0  0  0  0  0  0  0
   26.1153  -18.7999  -17.2265 C   0  0  0  0  0  0  0  0  0  0  0  0
   27.3736  -20.1285  -15.5440 C   0  0  2  0  0  0  0  0  0  0  0  0
   27.8481  -21.0466  -16.5269 N   0  0  0  0  0  0  0  0  0  0  0  0
   26.1255  -20.6208  -14.9094 C   0  0  0  0  0  0  0  0  0  0  0  0
   25.3526  -21.3930  -15.5230 O   0  0  0  0  0  0  0  0  0  0  0  0
   25.2674  -20.6643   -8.8016 N   0  0  0  0  0  0  0  0  0  0  0  0
   24.0217  -21.2024   -9.2093 C   0  0  0  0  0  0  0  0  0  0  0  0
   23.2294  -21.6223   -8.3422 O   0  0  0  0  0  0  0  0  0  0  0  0
   23.6388  -21.2760  -10.6686 C   0  0  0  0  0  0  0  0  0  0  0  0
   24.7676  -20.7458  -11.4898 C   0  0  0  0  0  0  0  0  0  0  0  0
   24.5681  -20.7573  -12.9686 C   0  0  2  0  0  0  0  0  0  0  0  0
   25.7971  -20.2239  -13.6077 N   0  0  0  0  0  0  0  0  0  0  0  0
   23.4074  -19.9834  -13.4501 C   0  0  0  0  0  0  0  0  0  0  0  0
   23.4621  -18.6982  -13.4881 O   0  0  0  0  0  0  0  0  0  0  0  0
   22.2171  -20.5585  -13.8902 N   0  0  0  0  0  0  0  0  0  0  0  0
   21.0666  -19.6868  -14.3618 C   0  0  1  0  0  0  0  0  0  0  0  0
   20.6177  -20.4668  -15.5657 C   0  0  0  0  0  0  0  0  0  0  0  0
   19.4236  -20.0582  -16.2631 C   0  0  0  0  0  0  0  0  0  0  0  0
   19.0061  -20.8122  -17.4617 C   0  0  0  0  0  0  0  0  0  0  0  0
   17.6885  -20.1004  -17.9392 C   0  0  0  0  0  0  0  0  0  0  0  0
   17.2446  -20.8679  -19.0793 N   0  0  0  0  0  0  0  0  0  0  0  0
   20.1676  -19.7129  -13.2072 C   0  0  0  0  0  0  0  0  0  0  0  0
   19.2785  -18.6467  -12.9779 O   0  0  0  0  0  0  0  0  0  0  0  0
   20.1246  -20.6316  -12.3800 O   0  0  0  0  0  0  0  0  0  0  0  0
  2  1  1  6
  2  4  1  0
  3  2  1  0
  4  5  1  6
  4  6  1  0
  6 14  1  0
  6  7  2  0
  8  9  1  0
  9 10  2  0
 11  9  1  0
 11 12  1  0
 13 12  1  1
 13 15  1  0
 14 13  1  0
 15 16  2  0
 17 18  1  0
 17 15  1  0
 18 24  1  0
 18 19  1  6
 20 19  1  0
 21 20  1  0
 22 21  1  0
 23 22  1  0
 24 25  1  0
 26 24  2  0
M  END
$$$$
