VQK.pdb
     RDKit          3D

 26 25  0  0  1  0  0  0  0  0999 V2000
   28.5451  -16.0218  -19.2235 C   0  0  0  0  0  0  0  0  0  0  0  0
   27.0769  -16.2544  -19.0624 C   0  0  1  0  0  0  0  0  0  0  0  0
   26.3770  -16.1585  -20.4175 C   0  0  0  0  0  0  0  0  0  0  0  0
   26.8361  -17.6053  -18.4489 C   0  0  2  0  0  0  0  0  0  0  0  0
   27.5262  -18.6102  -19.1894 N   0  0  0  0  0  0  0  0  0  0  0  0
   25.3900  -17.9199  -18.3378 C   0  0  0  0  0  0  0  0  0  0  0  0
   24.7954  -18.5448  -19.2469 O   0  0  0  0  0  0  0  0  0  0  0  0
   22.3978  -19.7354  -13.5362 N   0  0  0  0  0  0  0  0  0  0  0  0
   21.2652  -19.3213  -14.2800 C   0  0  0  0  0  0  0  0  0  0  0  0
   20.1261  -19.5245  -13.8141 O   0  0  0  0  0  0  0  0  0  0  0  0
   21.4129  -18.6413  -15.6207 C   0  0  0  0  0  0  0  0  0  0  0  0
   22.8663  -18.4594  -15.9107 C   0  0  0  0  0  0  0  0  0  0  0  0
   23.2003  -17.7221  -17.1643 C   0  0  2  0  0  0  0  0  0  0  0  0
   24.6700  -17.5183  -17.2064 N   0  0  0  0  0  0  0  0  0  0  0  0
   22.5342  -16.4143  -17.3183 C   0  0  0  0  0  0  0  0  0  0  0  0
   22.9326  -15.4042  -16.6274 O   0  0  0  0  0  0  0  0  0  0  0  0
   21.4744  -16.1787  -18.1915 N   0  0  0  0  0  0  0  0  0  0  0  0
   20.8002  -14.8188  -18.2382 C   0  0  1  0  0  0  0  0  0  0  0  0
   20.4671  -14.7370  -19.7017 C   0  0  0  0  0  0  0  0  0  0  0  0
   19.8813  -13.5269  -20.2229 C   0  0  0  0  0  0  0  0  0  0  0  0
   19.6028  -13.4369  -21.6700 C   0  0  0  0  0  0  0  0  0  0  0  0
   19.1485  -11.9490  -21.8947 C   0  0  0  0  0  0  0  0  0  0  0  0
   18.7558  -11.8868  -23.2832 N   0  0  0  0  0  0  0  0  0  0  0  0
   19.6674  -15.0057  -17.3307 C   0  0  0  0  0  0  0  0  0  0  0  0
   19.1857  -16.2990  -17.0565 O   0  0  0  0  0  0  0  0  0  0  0  0
   19.0715  -14.0822  -16.7630 O   0  0  0  0  0  0  0  0  0  0  0  0
  2  1  1  6
  2  4  1  0
  3  2  1  0
  4  5  1  6
  4  6  1  0
  6 14  1  0
  6  7  2  0
  8  9  1  0
  9 10  2  0
 11  9  1  0
 11 12  1  0
 13 12  1  1
 13 15  1  0
 14 13  1  0
 15 16  2  0
 17 18  1  0
 17 15  1  0
 18 24  1  0
 18 19  1  6
 20 19  1  0
 21 20  1  0
 22 21  1  0
 23 22  1  0
 24 25  1  0
 26 24  2  0
M  END
$$$$
