VQK.pdb
     RDKit          3D

 26 25  0  0  1  0  0  0  0  0999 V2000
   34.2006  -28.7556  -20.1109 C   0  0  0  0  0  0  0  0  0  0  0  0
   33.2141  -28.5191  -19.0125 C   0  0  1  0  0  0  0  0  0  0  0  0
   33.0655  -27.0206  -18.7522 C   0  0  0  0  0  0  0  0  0  0  0  0
   31.8845  -29.1158  -19.3804 C   0  0  2  0  0  0  0  0  0  0  0  0
   31.4230  -28.5637  -20.6119 N   0  0  0  0  0  0  0  0  0  0  0  0
   30.8766  -28.9431  -18.3047 C   0  0  0  0  0  0  0  0  0  0  0  0
   31.1074  -29.3354  -17.1372 O   0  0  0  0  0  0  0  0  0  0  0  0
   27.3247  -24.2991  -17.2067 N   0  0  0  0  0  0  0  0  0  0  0  0
   26.7111  -25.2203  -16.3221 C   0  0  0  0  0  0  0  0  0  0  0  0
   25.8871  -24.8005  -15.4850 O   0  0  0  0  0  0  0  0  0  0  0  0
   27.0361  -26.6944  -16.3752 C   0  0  0  0  0  0  0  0  0  0  0  0
   28.1455  -26.9079  -17.3516 C   0  0  0  0  0  0  0  0  0  0  0  0
   28.5843  -28.3201  -17.5512 C   0  0  2  0  0  0  0  0  0  0  0  0
   29.6477  -28.3348  -18.5866 N   0  0  0  0  0  0  0  0  0  0  0  0
   27.5169  -29.2570  -17.9524 C   0  0  0  0  0  0  0  0  0  0  0  0
   27.1356  -29.3099  -19.1804 O   0  0  0  0  0  0  0  0  0  0  0  0
   26.8728  -30.1254  -17.0736 N   0  0  0  0  0  0  0  0  0  0  0  0
   25.8005  -31.0764  -17.5754 C   0  0  1  0  0  0  0  0  0  0  0  0
   26.6367  -32.2915  -17.8649 C   0  0  0  0  0  0  0  0  0  0  0  0
   26.3295  -33.0975  -19.0204 C   0  0  0  0  0  0  0  0  0  0  0  0
   27.1680  -34.2781  -19.3079 C   0  0  0  0  0  0  0  0  0  0  0  0
   26.6477  -34.8059  -20.6941 C   0  0  0  0  0  0  0  0  0  0  0  0
   27.5170  -35.9125  -21.0196 N   0  0  0  0  0  0  0  0  0  0  0  0
   24.9079  -31.1710  -16.4195 C   0  0  0  0  0  0  0  0  0  0  0  0
   23.7002  -31.8869  -16.5142 O   0  0  0  0  0  0  0  0  0  0  0  0
   25.1352  -30.6498  -15.3210 O   0  0  0  0  0  0  0  0  0  0  0  0
  2  1  1  6
  2  4  1  0
  3  2  1  0
  4  5  1  6
  4  6  1  0
  6 14  1  0
  6  7  2  0
  8  9  1  0
  9 10  2  0
 11  9  1  0
 11 12  1  0
 13 12  1  6
 13 15  1  0
 14 13  1  0
 15 16  2  0
 17 18  1  0
 17 15  1  0
 18 24  1  0
 18 19  1  1
 20 19  1  0
 21 20  1  0
 22 21  1  0
 23 22  1  0
 24 25  1  0
 26 24  2  0
M  END
$$$$
