VQK.pdb
     RDKit          3D

 26 25  0  0  1  0  0  0  0  0999 V2000
   28.8025  -26.9553  -16.0216 C   0  0  0  0  0  0  0  0  0  0  0  0
   28.4574  -26.5210  -17.4101 C   0  0  1  0  0  0  0  0  0  0  0  0
   27.8207  -27.6772  -18.1802 C   0  0  0  0  0  0  0  0  0  0  0  0
   27.5167  -25.3497  -17.3619 C   0  0  2  0  0  0  0  0  0  0  0  0
   28.1348  -24.2513  -16.6943 N   0  0  0  0  0  0  0  0  0  0  0  0
   26.2197  -25.6991  -16.7306 C   0  0  0  0  0  0  0  0  0  0  0  0
   26.1074  -25.7647  -15.4842 O   0  0  0  0  0  0  0  0  0  0  0  0
   23.8125  -23.6800  -13.8750 N   0  0  0  0  0  0  0  0  0  0  0  0
   22.9415  -24.1745  -14.8773 C   0  0  0  0  0  0  0  0  0  0  0  0
   21.9922  -24.9126  -14.5457 O   0  0  0  0  0  0  0  0  0  0  0  0
   23.1420  -23.8248  -16.3329 C   0  0  0  0  0  0  0  0  0  0  0  0
   22.8991  -25.0447  -17.1590 C   0  0  0  0  0  0  0  0  0  0  0  0
   23.7860  -26.2130  -16.8848 C   0  0  2  0  0  0  0  0  0  0  0  0
   25.0996  -25.9608  -17.5284 N   0  0  0  0  0  0  0  0  0  0  0  0
   23.2699  -27.5145  -17.3513 C   0  0  0  0  0  0  0  0  0  0  0  0
   23.3825  -27.8445  -18.5901 O   0  0  0  0  0  0  0  0  0  0  0  0
   22.6553  -28.4504  -16.5221 N   0  0  0  0  0  0  0  0  0  0  0  0
   22.4083  -29.8679  -17.0079 C   0  0  1  0  0  0  0  0  0  0  0  0
   22.7298  -30.6376  -15.7574 C   0  0  0  0  0  0  0  0  0  0  0  0
   22.4898  -32.0590  -15.7255 C   0  0  0  0  0  0  0  0  0  0  0  0
   22.7399  -32.7950  -14.4704 C   0  0  0  0  0  0  0  0  0  0  0  0
   21.3817  -33.5227  -14.1599 C   0  0  0  0  0  0  0  0  0  0  0  0
   21.6615  -34.3577  -13.0151 N   0  0  0  0  0  0  0  0  0  0  0  0
   20.9960  -29.8209  -17.3885 C   0  0  0  0  0  0  0  0  0  0  0  0
   20.2072  -28.7069  -17.0467 O   0  0  0  0  0  0  0  0  0  0  0  0
   20.4129  -30.7179  -18.0094 O   0  0  0  0  0  0  0  0  0  0  0  0
  2  1  1  1
  2  4  1  0
  3  2  1  0
  4  5  1  1
  4  6  1  0
  6 14  1  0
  6  7  2  0
  8  9  1  0
  9 10  2  0
 11  9  1  0
 11 12  1  0
 13 12  1  6
 13 15  1  0
 14 13  1  0
 15 16  2  0
 17 18  1  0
 17 15  1  0
 18 24  1  0
 18 19  1  1
 20 19  1  0
 21 20  1  0
 22 21  1  0
 23 22  1  0
 24 25  1  0
 26 24  2  0
M  END
$$$$
