VQK.pdb
     RDKit          3D

 26 25  0  0  1  0  0  0  0  0999 V2000
   27.5484  -15.7487  -16.3916 C   0  0  0  0  0  0  0  0  0  0  0  0
   26.2712  -15.2949  -17.0229 C   0  0  1  0  0  0  0  0  0  0  0  0
   25.1682  -16.3237  -16.7775 C   0  0  0  0  0  0  0  0  0  0  0  0
   25.8686  -13.9595  -16.4625 C   0  0  2  0  0  0  0  0  0  0  0  0
   25.7812  -14.0305  -15.0406 N   0  0  0  0  0  0  0  0  0  0  0  0
   24.6004  -13.4639  -17.0531 C   0  0  0  0  0  0  0  0  0  0  0  0
   24.5078  -13.2378  -18.2822 O   0  0  0  0  0  0  0  0  0  0  0  0
   19.1478  -14.8967  -14.8201 N   0  0  0  0  0  0  0  0  0  0  0  0
   18.7198  -13.9938  -15.8247 C   0  0  0  0  0  0  0  0  0  0  0  0
   17.4983  -13.8599  -16.0393 O   0  0  0  0  0  0  0  0  0  0  0  0
   19.7123  -13.1949  -16.6359 C   0  0  0  0  0  0  0  0  0  0  0  0
   21.0926  -13.5387  -16.1822 C   0  0  0  0  0  0  0  0  0  0  0  0
   22.2069  -12.8014  -16.8466 C   0  0  2  0  0  0  0  0  0  0  0  0
   23.4858  -13.2425  -16.2357 N   0  0  0  0  0  0  0  0  0  0  0  0
   22.1223  -11.3304  -16.7629 C   0  0  0  0  0  0  0  0  0  0  0  0
   22.5973  -10.7161  -15.7367 O   0  0  0  0  0  0  0  0  0  0  0  0
   21.5544  -10.5262  -17.7488 N   0  0  0  0  0  0  0  0  0  0  0  0
   21.4950   -9.0187  -17.5759 C   0  0  1  0  0  0  0  0  0  0  0  0
   21.3690   -8.5909  -19.0113 C   0  0  0  0  0  0  0  0  0  0  0  0
   21.2154   -7.1901  -19.3167 C   0  0  0  0  0  0  0  0  0  0  0  0
   21.2777   -6.7580  -20.7270 C   0  0  0  0  0  0  0  0  0  0  0  0
   21.1064   -5.1965  -20.6714 C   0  0  0  0  0  0  0  0  0  0  0  0
   21.3125   -4.7522  -22.0301 N   0  0  0  0  0  0  0  0  0  0  0  0
   20.2998   -8.8509  -16.7480 C   0  0  0  0  0  0  0  0  0  0  0  0
   20.2022   -7.7662  -15.8570 O   0  0  0  0  0  0  0  0  0  0  0  0
   19.3288   -9.6170  -16.7653 O   0  0  0  0  0  0  0  0  0  0  0  0
  2  1  1  1
  2  4  1  0
  3  2  1  0
  4  5  1  1
  4  6  1  0
  6 14  1  0
  6  7  2  0
  8  9  1  0
  9 10  2  0
 11  9  1  0
 11 12  1  0
 13 12  1  1
 13 15  1  0
 14 13  1  0
 15 16  2  0
 17 18  1  0
 17 15  1  0
 18 24  1  0
 18 19  1  6
 20 19  1  0
 21 20  1  0
 22 21  1  0
 23 22  1  0
 24 25  1  0
 26 24  2  0
M  END
$$$$
