VQK.pdb
     RDKit          3D

 26 25  0  0  1  0  0  0  0  0999 V2000
   31.3900  -14.8907  -18.9078 C   0  0  0  0  0  0  0  0  0  0  0  0
   32.8174  -14.4847  -18.7248 C   0  0  1  0  0  0  0  0  0  0  0  0
   33.7430  -15.4968  -19.3988 C   0  0  0  0  0  0  0  0  0  0  0  0
   33.0387  -13.1148  -19.3024 C   0  0  2  0  0  0  0  0  0  0  0  0
   34.4309  -12.8047  -19.3099 N   0  0  0  0  0  0  0  0  0  0  0  0
   32.2617  -12.0729  -18.5857 C   0  0  0  0  0  0  0  0  0  0  0  0
   31.0204  -12.1760  -18.4485 O   0  0  0  0  0  0  0  0  0  0  0  0
   34.8847   -7.3908  -15.3924 N   0  0  0  0  0  0  0  0  0  0  0  0
   33.5643   -6.8899  -15.5075 C   0  0  0  0  0  0  0  0  0  0  0  0
   33.3033   -5.7579  -15.0534 O   0  0  0  0  0  0  0  0  0  0  0  0
   32.4730   -7.6994  -16.1673 C   0  0  0  0  0  0  0  0  0  0  0  0
   33.0670   -8.9585  -16.7072 C   0  0  0  0  0  0  0  0  0  0  0  0
   32.1202   -9.9006  -17.3725 C   0  0  2  0  0  0  0  0  0  0  0  0
   32.9139  -10.9555  -18.0512 N   0  0  0  0  0  0  0  0  0  0  0  0
   31.2100   -9.2833  -18.3565 C   0  0  0  0  0  0  0  0  0  0  0  0
   31.6614   -8.9024  -19.4999 O   0  0  0  0  0  0  0  0  0  0  0  0
   29.8489   -9.0812  -18.1378 N   0  0  0  0  0  0  0  0  0  0  0  0
   28.9656   -8.5179  -19.2372 C   0  0  1  0  0  0  0  0  0  0  0  0
   27.9886   -9.6487  -19.3993 C   0  0  0  0  0  0  0  0  0  0  0  0
   26.8150   -9.4527  -20.2137 C   0  0  0  0  0  0  0  0  0  0  0  0
   25.8837  -10.5824  -20.4038 C   0  0  0  0  0  0  0  0  0  0  0  0
   24.8414  -10.0638  -21.4600 C   0  0  0  0  0  0  0  0  0  0  0  0
   23.9652  -11.1869  -21.6987 N   0  0  0  0  0  0  0  0  0  0  0  0
   28.4419   -7.3000  -18.6174 C   0  0  0  0  0  0  0  0  0  0  0  0
   27.8277   -6.3110  -19.4077 O   0  0  0  0  0  0  0  0  0  0  0  0
   28.4993   -7.0563  -17.4060 O   0  0  0  0  0  0  0  0  0  0  0  0
  2  1  1  6
  2  4  1  0
  3  2  1  0
  4  5  1  1
  4  6  1  0
  6 14  1  0
  6  7  2  0
  8  9  1  0
  9 10  2  0
 11  9  1  0
 11 12  1  0
 13 12  1  6
 13 15  1  0
 14 13  1  0
 15 16  2  0
 17 18  1  0
 17 15  1  0
 18 24  1  0
 18 19  1  1
 20 19  1  0
 21 20  1  0
 22 21  1  0
 23 22  1  0
 24 25  1  0
 26 24  2  0
M  END
$$$$
