VQK.pdb
     RDKit          3D

 26 25  0  0  1  0  0  0  0  0999 V2000
   16.7448  -13.6245  -16.5922 C   0  0  0  0  0  0  0  0  0  0  0  0
   16.9306  -12.1555  -16.7997 C   0  0  1  0  0  0  0  0  0  0  0  0
   15.5757  -11.4488  -16.8026 C   0  0  0  0  0  0  0  0  0  0  0  0
   17.8070  -11.5917  -15.7164 C   0  0  2  0  0  0  0  0  0  0  0  0
   17.1321  -11.6469  -14.4611 N   0  0  0  0  0  0  0  0  0  0  0  0
   18.2570  -10.2109  -16.0225 C   0  0  0  0  0  0  0  0  0  0  0  0
   18.9803   -9.9754  -17.0183 O   0  0  0  0  0  0  0  0  0  0  0  0
   15.1836   -5.0669  -14.7289 N   0  0  0  0  0  0  0  0  0  0  0  0
   15.2880   -5.5314  -16.0634 C   0  0  0  0  0  0  0  0  0  0  0  0
   14.4440   -5.1590  -16.9030 O   0  0  0  0  0  0  0  0  0  0  0  0
   16.3981   -6.4651  -16.4845 C   0  0  0  0  0  0  0  0  0  0  0  0
   17.1989   -6.8351  -15.2798 C   0  0  0  0  0  0  0  0  0  0  0  0
   18.3363   -7.7737  -15.5081 C   0  0  2  0  0  0  0  0  0  0  0  0
   17.8743   -9.1491  -15.1944 N   0  0  0  0  0  0  0  0  0  0  0  0
   19.5513   -7.4889  -14.7203 C   0  0  0  0  0  0  0  0  0  0  0  0
   19.5900   -7.7839  -13.4683 O   0  0  0  0  0  0  0  0  0  0  0  0
   20.7040   -6.9119  -15.2490 N   0  0  0  0  0  0  0  0  0  0  0  0
   21.9465   -6.7446  -14.3920 C   0  0  1  0  0  0  0  0  0  0  0  0
   22.9764   -7.3685  -15.2917 C   0  0  0  0  0  0  0  0  0  0  0  0
   23.4792   -8.6833  -14.9792 C   0  0  0  0  0  0  0  0  0  0  0  0
   24.4021   -9.3366  -15.9284 C   0  0  0  0  0  0  0  0  0  0  0  0
   24.6477  -10.7661  -15.3227 C   0  0  0  0  0  0  0  0  0  0  0  0
   25.5912  -11.3918  -16.2195 N   0  0  0  0  0  0  0  0  0  0  0  0
   22.0218   -5.2910  -14.2400 C   0  0  0  0  0  0  0  0  0  0  0  0
   22.8358   -4.7247  -13.2415 O   0  0  0  0  0  0  0  0  0  0  0  0
   21.4013   -4.4851  -14.9440 O   0  0  0  0  0  0  0  0  0  0  0  0
  2  1  1  1
  2  4  1  0
  3  2  1  0
  4  5  1  1
  4  6  1  0
  6 14  1  0
  6  7  2  0
  8  9  1  0
  9 10  2  0
 11  9  1  0
 11 12  1  0
 13 12  1  1
 13 15  1  0
 14 13  1  0
 15 16  2  0
 17 18  1  0
 17 15  1  0
 18 24  1  0
 18 19  1  6
 20 19  1  0
 21 20  1  0
 22 21  1  0
 23 22  1  0
 24 25  1  0
 26 24  2  0
M  END
$$$$
