VQK.pdb
     RDKit          3D

 26 25  0  0  1  0  0  0  0  0999 V2000
   21.2944  -13.6823  -19.4465 C   0  0  0  0  0  0  0  0  0  0  0  0
   22.0374  -12.8956  -18.4146 C   0  0  1  0  0  0  0  0  0  0  0  0
   23.4604  -12.6110  -18.8935 C   0  0  0  0  0  0  0  0  0  0  0  0
   21.3166  -11.6063  -18.1359 C   0  0  2  0  0  0  0  0  0  0  0  0
   20.8204  -11.0491  -19.3515 N   0  0  0  0  0  0  0  0  0  0  0  0
   22.1704  -10.6334  -17.4099 C   0  0  0  0  0  0  0  0  0  0  0  0
   22.6047  -10.8887  -16.2625 O   0  0  0  0  0  0  0  0  0  0  0  0
   26.5745   -7.4947  -19.8309 N   0  0  0  0  0  0  0  0  0  0  0  0
   26.6117   -6.9053  -18.5430 C   0  0  0  0  0  0  0  0  0  0  0  0
   27.5834   -6.1875  -18.2323 O   0  0  0  0  0  0  0  0  0  0  0  0
   25.5005   -7.1302  -17.5450 C   0  0  0  0  0  0  0  0  0  0  0  0
   24.5232   -8.0999  -18.1230 C   0  0  0  0  0  0  0  0  0  0  0  0
   23.3511   -8.4434  -17.2658 C   0  0  2  0  0  0  0  0  0  0  0  0
   22.5017   -9.4104  -18.0052 N   0  0  0  0  0  0  0  0  0  0  0  0
   22.5183   -7.2966  -16.8545 C   0  0  0  0  0  0  0  0  0  0  0  0
   21.9018   -6.5981  -17.7423 O   0  0  0  0  0  0  0  0  0  0  0  0
   22.3354   -6.9028  -15.5306 N   0  0  0  0  0  0  0  0  0  0  0  0
   21.4101   -5.7480  -15.1894 C   0  0  1  0  0  0  0  0  0  0  0  0
   20.0751   -6.4181  -15.3570 C   0  0  0  0  0  0  0  0  0  0  0  0
   18.8863   -5.7409  -14.9016 C   0  0  0  0  0  0  0  0  0  0  0  0
   17.5747   -6.3837  -15.1161 C   0  0  0  0  0  0  0  0  0  0  0  0
   16.5272   -5.3250  -14.6132 C   0  0  0  0  0  0  0  0  0  0  0  0
   15.2399   -5.9351  -14.8511 N   0  0  0  0  0  0  0  0  0  0  0  0
   21.8037   -5.4341  -13.8152 C   0  0  0  0  0  0  0  0  0  0  0  0
   21.5570   -4.1553  -13.2825 O   0  0  0  0  0  0  0  0  0  0  0  0
   22.3610   -6.2323  -13.0520 O   0  0  0  0  0  0  0  0  0  0  0  0
  2  1  1  6
  2  4  1  0
  3  2  1  0
  4  5  1  6
  4  6  1  0
  6 14  1  0
  6  7  2  0
  8  9  1  0
  9 10  2  0
 11  9  1  0
 11 12  1  0
 13 12  1  6
 13 15  1  0
 14 13  1  0
 15 16  2  0
 17 18  1  0
 17 15  1  0
 18 24  1  0
 18 19  1  1
 20 19  1  0
 21 20  1  0
 22 21  1  0
 23 22  1  0
 24 25  1  0
 26 24  2  0
M  END
$$$$
