VQK.pdb
     RDKit          3D

 26 25  0  0  1  0  0  0  0  0999 V2000
   25.7745  -20.4137   -8.3072 C   0  0  0  0  0  0  0  0  0  0  0  0
   25.9165  -20.0790   -9.7575 C   0  0  1  0  0  0  0  0  0  0  0  0
   27.2046  -20.6846  -10.3138 C   0  0  0  0  0  0  0  0  0  0  0  0
   24.7290  -20.5948  -10.5212 C   0  0  2  0  0  0  0  0  0  0  0  0
   24.6555  -22.0151  -10.4130 N   0  0  0  0  0  0  0  0  0  0  0  0
   24.7480  -20.1660  -11.9420 C   0  0  0  0  0  0  0  0  0  0  0  0
   24.7162  -18.9513  -12.2483 O   0  0  0  0  0  0  0  0  0  0  0  0
   28.3104  -22.5179  -16.0148 N   0  0  0  0  0  0  0  0  0  0  0  0
   27.5529  -21.7163  -16.9043 C   0  0  0  0  0  0  0  0  0  0  0  0
   27.9322  -21.5979  -18.0867 O   0  0  0  0  0  0  0  0  0  0  0  0
   26.3005  -21.0062  -16.4474 C   0  0  0  0  0  0  0  0  0  0  0  0
   26.0639  -21.3255  -15.0081 C   0  0  0  0  0  0  0  0  0  0  0  0
   24.8757  -20.6798  -14.3772 C   0  0  2  0  0  0  0  0  0  0  0  0
   24.8022  -21.1228  -12.9624 N   0  0  0  0  0  0  0  0  0  0  0  0
   23.5850  -20.9665  -15.0329 C   0  0  0  0  0  0  0  0  0  0  0  0
   23.1622  -22.1790  -15.1182 O   0  0  0  0  0  0  0  0  0  0  0  0
   22.7557  -19.9894  -15.5792 N   0  0  0  0  0  0  0  0  0  0  0  0
   21.3139  -20.3098  -15.9325 C   0  0  1  0  0  0  0  0  0  0  0  0
   20.7794  -18.9224  -16.1537 C   0  0  0  0  0  0  0  0  0  0  0  0
   19.4329  -18.7572  -16.6424 C   0  0  0  0  0  0  0  0  0  0  0  0
   18.9675  -17.4033  -17.0026 C   0  0  0  0  0  0  0  0  0  0  0  0
   17.5076  -17.6168  -17.5447 C   0  0  0  0  0  0  0  0  0  0  0  0
   17.0042  -16.2853  -17.7888 N   0  0  0  0  0  0  0  0  0  0  0  0
   21.4673  -21.1378  -17.1294 C   0  0  0  0  0  0  0  0  0  0  0  0
   22.5782  -20.9615  -17.9748 O   0  0  0  0  0  0  0  0  0  0  0  0
   20.6665  -22.0148  -17.4755 O   0  0  0  0  0  0  0  0  0  0  0  0
  2  1  1  1
  2  4  1  0
  3  2  1  0
  4  5  1  6
  4  6  1  0
  6 14  1  0
  6  7  2  0
  8  9  1  0
  9 10  2  0
 11  9  1  0
 11 12  1  0
 13 12  1  6
 13 15  1  0
 14 13  1  0
 15 16  2  0
 17 18  1  0
 17 15  1  0
 18 24  1  0
 18 19  1  6
 20 19  1  0
 21 20  1  0
 22 21  1  0
 23 22  1  0
 24 25  1  0
 26 24  2  0
M  END
$$$$
