LNA.pdb
     RDKit          3D

 22 21  0  0  1  0  0  0  0  0999 V2000
    9.7184  -13.0647   19.5625 C   0  0  0  0  0  0  0  0  0  0  0  0
    8.2147  -13.3022   19.4447 C   0  0  2  0  0  0  0  0  0  0  0  0
    7.4927  -11.9778   19.2884 C   0  0  0  0  0  0  0  0  0  0  0  0
    7.7159  -14.0318   20.6663 C   0  0  0  0  0  0  0  0  0  0  0  0
    8.3707  -15.3613   20.7554 C   0  0  2  0  0  0  0  0  0  0  0  0
    7.9658  -16.3161   19.7761 N   0  0  0  0  0  0  0  0  0  0  0  0
    8.2041  -16.0042   22.0913 C   0  0  0  0  0  0  0  0  0  0  0  0
    7.1870  -16.6647   22.4032 O   0  0  0  0  0  0  0  0  0  0  0  0
   10.0096  -18.3761   26.3789 N   0  0  0  0  0  0  0  0  0  0  0  0
   10.8979  -17.3426   26.0144 C   0  0  0  0  0  0  0  0  0  0  0  0
   11.7939  -17.0266   26.8397 O   0  0  0  0  0  0  0  0  0  0  0  0
   10.7181  -16.7079   24.7027 C   0  0  0  0  0  0  0  0  0  0  0  0
    9.2454  -16.5117   24.3418 C   0  0  2  0  0  0  0  0  0  0  0  0
    9.2202  -15.8715   23.0462 N   0  0  0  0  0  0  0  0  0  0  0  0
    8.7094  -15.5445   25.3189 C   0  0  0  0  0  0  0  0  0  0  0  0
    8.2220  -15.9799   26.3915 O   0  0  0  0  0  0  0  0  0  0  0  0
    6.5822  -13.5713   26.1800 C   0  0  0  0  0  0  0  0  0  0  0  0
    8.0711  -13.3146   26.1061 C   0  0  2  0  0  0  0  0  0  0  0  0
    8.7137  -14.1423   25.1135 N   0  0  0  0  0  0  0  0  0  0  0  0
    8.7344  -13.5445   27.4139 C   0  0  0  0  0  0  0  0  0  0  0  0
    8.4347  -12.9000   28.4494 O   0  0  0  0  0  0  0  0  0  0  0  0
    9.7292  -14.5037   27.5263 O   0  0  0  0  0  0  0  0  0  0  0  0
  2  1  1  1
  2  3  1  0
  4  2  1  0
  4  5  1  0
  5  7  1  0
  5  6  1  6
  7  8  2  0
  7 14  1  0
  9 10  1  0
 10 12  1  0
 10 11  2  0
 13 15  1  0
 13 12  1  1
 14 13  1  0
 15 16  2  0
 18 17  1  1
 19 18  1  0
 19 15  1  0
 20 22  1  0
 20 18  1  0
 21 20  2  0
M  END
$$$$
