LNA.pdb
     RDKit          3D

 22 21  0  0  1  0  0  0  0  0999 V2000
    8.0164  -12.2009   20.2181 C   0  0  0  0  0  0  0  0  0  0  0  0
    7.7355  -13.6790   19.9573 C   0  0  2  0  0  0  0  0  0  0  0  0
    6.5128  -13.8246   19.0720 C   0  0  0  0  0  0  0  0  0  0  0  0
    7.5253  -14.3972   21.2662 C   0  0  0  0  0  0  0  0  0  0  0  0
    8.6717  -14.1308   22.1711 C   0  0  2  0  0  0  0  0  0  0  0  0
    9.9323  -13.9403   21.5316 N   0  0  0  0  0  0  0  0  0  0  0  0
    8.8582  -15.1922   23.2029 C   0  0  0  0  0  0  0  0  0  0  0  0
    7.8988  -15.7420   23.7903 O   0  0  0  0  0  0  0  0  0  0  0  0
   10.5941  -18.8019   22.5220 N   0  0  0  0  0  0  0  0  0  0  0  0
   11.6813  -17.9233   22.7122 C   0  0  0  0  0  0  0  0  0  0  0  0
   12.4791  -17.7674   21.7515 O   0  0  0  0  0  0  0  0  0  0  0  0
   11.8084  -17.2529   24.0122 C   0  0  0  0  0  0  0  0  0  0  0  0
   10.4918  -16.6374   24.4871 C   0  0  2  0  0  0  0  0  0  0  0  0
   10.1555  -15.6004   23.5381 N   0  0  0  0  0  0  0  0  0  0  0  0
   10.7889  -15.9756   25.7722 C   0  0  0  0  0  0  0  0  0  0  0  0
   11.9767  -15.9590   26.1803 O   0  0  0  0  0  0  0  0  0  0  0  0
    9.3384  -13.6039   28.2297 C   0  0  0  0  0  0  0  0  0  0  0  0
   10.2265  -14.7586   27.8222 C   0  0  2  0  0  0  0  0  0  0  0  0
    9.8024  -15.3535   26.5772 N   0  0  0  0  0  0  0  0  0  0  0  0
   10.2646  -15.8169   28.8623 C   0  0  0  0  0  0  0  0  0  0  0  0
   10.6497  -15.5995   30.0378 O   0  0  0  0  0  0  0  0  0  0  0  0
    9.8644  -17.1075   28.5516 O   0  0  0  0  0  0  0  0  0  0  0  0
  2  1  1  1
  2  3  1  0
  4  2  1  0
  4  5  1  0
  5  7  1  0
  5  6  1  6
  7  8  2  0
  7 14  1  0
  9 10  1  0
 10 12  1  0
 10 11  2  0
 13 15  1  0
 13 12  1  6
 14 13  1  0
 15 16  2  0
 18 17  1  1
 19 18  1  0
 19 15  1  0
 20 22  1  0
 20 18  1  0
 21 20  2  0
M  END
$$$$
