LNA.pdb
     RDKit          3D

 22 21  0  0  1  0  0  0  0  0999 V2000
    7.6155  -11.6063   26.6986 C   0  0  0  0  0  0  0  0  0  0  0  0
    6.4532  -12.2995   25.9916 C   0  0  2  0  0  0  0  0  0  0  0  0
    5.1503  -11.9712   26.6948 C   0  0  0  0  0  0  0  0  0  0  0  0
    6.6810  -13.7899   25.9759 C   0  0  0  0  0  0  0  0  0  0  0  0
    7.9810  -14.0890   25.3242 C   0  0  2  0  0  0  0  0  0  0  0  0
    8.2603  -13.3517   24.1356 N   0  0  0  0  0  0  0  0  0  0  0  0
    8.1483  -15.5343   24.9944 C   0  0  0  0  0  0  0  0  0  0  0  0
    7.3420  -16.4137   25.3745 O   0  0  0  0  0  0  0  0  0  0  0  0
   10.1291  -18.9971   20.9200 N   0  0  0  0  0  0  0  0  0  0  0  0
   10.8138  -18.5092   22.0529 C   0  0  0  0  0  0  0  0  0  0  0  0
   11.7165  -19.2349   22.5451 O   0  0  0  0  0  0  0  0  0  0  0  0
   10.4290  -17.1937   22.5790 C   0  0  0  0  0  0  0  0  0  0  0  0
    9.5327  -17.2938   23.8136 C   0  0  2  0  0  0  0  0  0  0  0  0
    9.2489  -15.9386   24.2281 N   0  0  0  0  0  0  0  0  0  0  0  0
   10.3576  -17.9115   24.8699 C   0  0  0  0  0  0  0  0  0  0  0  0
   10.6720  -19.1223   24.7573 O   0  0  0  0  0  0  0  0  0  0  0  0
   12.6881  -17.0228   27.5852 C   0  0  0  0  0  0  0  0  0  0  0  0
   11.6530  -17.9236   26.9487 C   0  0  2  0  0  0  0  0  0  0  0  0
   10.8181  -17.2101   26.0119 N   0  0  0  0  0  0  0  0  0  0  0  0
   10.7814  -18.5640   27.9653 C   0  0  0  0  0  0  0  0  0  0  0  0
   11.2349  -19.2671   28.9020 O   0  0  0  0  0  0  0  0  0  0  0  0
    9.4065  -18.3962   27.9029 O   0  0  0  0  0  0  0  0  0  0  0  0
  2  1  1  1
  2  3  1  0
  4  2  1  0
  4  5  1  0
  5  7  1  0
  5  6  1  6
  7  8  2  0
  7 14  1  0
  9 10  1  0
 10 12  1  0
 10 11  2  0
 13 15  1  0
 13 12  1  6
 14 13  1  0
 15 16  2  0
 18 17  1  1
 19 18  1  0
 19 15  1  0
 20 22  1  0
 20 18  1  0
 21 20  2  0
M  END
$$$$
