LNA.pdb
     RDKit          3D

 22 21  0  0  1  0  0  0  0  0999 V2000
    9.2858  -12.2558   19.8788 C   0  0  0  0  0  0  0  0  0  0  0  0
    8.1431  -13.1714   19.4459 C   0  0  2  0  0  0  0  0  0  0  0  0
    6.9893  -12.3427   18.9150 C   0  0  0  0  0  0  0  0  0  0  0  0
    7.6927  -14.0124   20.6134 C   0  0  0  0  0  0  0  0  0  0  0  0
    8.8601  -14.7173   21.2003 C   0  0  2  0  0  0  0  0  0  0  0  0
    9.4427  -15.7324   20.3851 N   0  0  0  0  0  0  0  0  0  0  0  0
    8.5619  -15.3349   22.5252 C   0  0  0  0  0  0  0  0  0  0  0  0
    7.4804  -15.1528   23.1295 O   0  0  0  0  0  0  0  0  0  0  0  0
    8.6495  -19.0091   23.1304 N   0  0  0  0  0  0  0  0  0  0  0  0
    9.9194  -19.0868   23.7399 C   0  0  0  0  0  0  0  0  0  0  0  0
   10.5615  -20.1617   23.6129 O   0  0  0  0  0  0  0  0  0  0  0  0
   10.4043  -17.9139   24.4779 C   0  0  0  0  0  0  0  0  0  0  0  0
    9.4156  -16.7481   24.4437 C   0  0  2  0  0  0  0  0  0  0  0  0
    9.5229  -16.1550   23.1300 N   0  0  0  0  0  0  0  0  0  0  0  0
    9.9177  -15.7565   25.4144 C   0  0  0  0  0  0  0  0  0  0  0  0
   11.1230  -15.4090   25.3511 O   0  0  0  0  0  0  0  0  0  0  0  0
    8.7886  -13.0662   27.6360 C   0  0  0  0  0  0  0  0  0  0  0  0
    9.7260  -14.2049   27.3000 C   0  0  2  0  0  0  0  0  0  0  0  0
    9.1105  -15.1703   26.4209 N   0  0  0  0  0  0  0  0  0  0  0  0
   10.1955  -14.9088   28.5196 C   0  0  0  0  0  0  0  0  0  0  0  0
   10.7914  -14.3205   29.4557 O   0  0  0  0  0  0  0  0  0  0  0  0
    9.9812  -16.2716   28.6579 O   0  0  0  0  0  0  0  0  0  0  0  0
  2  1  1  1
  2  3  1  0
  4  2  1  0
  4  5  1  0
  5  7  1  0
  5  6  1  6
  7  8  2  0
  7 14  1  0
  9 10  1  0
 10 12  1  0
 10 11  2  0
 13 15  1  0
 13 12  1  6
 14 13  1  0
 15 16  2  0
 18 17  1  1
 19 18  1  0
 19 15  1  0
 20 22  1  0
 20 18  1  0
 21 20  2  0
M  END
$$$$
