LNA.pdb
     RDKit          3D

 22 21  0  0  1  0  0  0  0  0999 V2000
    7.6942  -12.3462   27.6798 C   0  0  0  0  0  0  0  0  0  0  0  0
    6.9829  -12.2348   26.3333 C   0  0  2  0  0  0  0  0  0  0  0  0
    5.8774  -11.2000   26.4165 C   0  0  0  0  0  0  0  0  0  0  0  0
    6.4182  -13.5768   25.9417 C   0  0  0  0  0  0  0  0  0  0  0  0
    7.5276  -14.5328   25.6974 C   0  0  2  0  0  0  0  0  0  0  0  0
    8.8436  -13.9974   25.8239 N   0  0  0  0  0  0  0  0  0  0  0  0
    7.4468  -15.1893   24.3602 C   0  0  0  0  0  0  0  0  0  0  0  0
    6.4188  -15.7791   23.9560 O   0  0  0  0  0  0  0  0  0  0  0  0
    6.6564  -14.3992   21.0265 N   0  0  0  0  0  0  0  0  0  0  0  0
    7.9592  -13.9771   20.6878 C   0  0  0  0  0  0  0  0  0  0  0  0
    8.0695  -12.9681   19.9438 O   0  0  0  0  0  0  0  0  0  0  0  0
    9.0935  -14.7399   21.2235 C   0  0  0  0  0  0  0  0  0  0  0  0
    8.6611  -15.8089   22.2275 C   0  0  2  0  0  0  0  0  0  0  0  0
    8.5602  -15.1521   23.5111 N   0  0  0  0  0  0  0  0  0  0  0  0
    9.7798  -16.7675   22.3126 C   0  0  0  0  0  0  0  0  0  0  0  0
   10.0780  -17.4367   21.2924 O   0  0  0  0  0  0  0  0  0  0  0  0
   12.9000  -17.6103   23.6985 C   0  0  0  0  0  0  0  0  0  0  0  0
   11.4753  -18.0778   23.4994 C   0  0  2  0  0  0  0  0  0  0  0  0
   10.5417  -16.9769   23.4891 N   0  0  0  0  0  0  0  0  0  0  0  0
   11.0599  -19.0393   24.5510 C   0  0  0  0  0  0  0  0  0  0  0  0
   10.0785  -18.8352   25.3078 O   0  0  0  0  0  0  0  0  0  0  0  0
   11.7658  -20.2195   24.7278 O   0  0  0  0  0  0  0  0  0  0  0  0
  2  1  1  1
  2  3  1  0
  4  2  1  0
  4  5  1  0
  5  7  1  0
  5  6  1  6
  7  8  2  0
  7 14  1  0
  9 10  1  0
 10 12  1  0
 10 11  2  0
 13 15  1  0
 13 12  1  6
 14 13  1  0
 15 16  2  0
 18 17  1  1
 19 18  1  0
 19 15  1  0
 20 22  1  0
 20 18  1  0
 21 20  2  0
M  END
$$$$
