LNA.pdb
     RDKit          3D

 22 21  0  0  1  0  0  0  0  0999 V2000
    9.2500  -13.0375   19.7295 C   0  0  0  0  0  0  0  0  0  0  0  0
    7.8119  -13.5276   19.8813 C   0  0  2  0  0  0  0  0  0  0  0  0
    6.8476  -12.3788   19.6569 C   0  0  0  0  0  0  0  0  0  0  0  0
    7.6160  -14.1174   21.2550 C   0  0  0  0  0  0  0  0  0  0  0  0
    8.5704  -15.2364   21.4582 C   0  0  2  0  0  0  0  0  0  0  0  0
    8.5372  -16.2639   20.4694 N   0  0  0  0  0  0  0  0  0  0  0  0
    8.4167  -15.8992   22.7860 C   0  0  0  0  0  0  0  0  0  0  0  0
    8.3417  -15.2576   23.8587 O   0  0  0  0  0  0  0  0  0  0  0  0
    5.7854  -17.3648   23.2658 N   0  0  0  0  0  0  0  0  0  0  0  0
    5.9935  -18.7565   23.3651 C   0  0  0  0  0  0  0  0  0  0  0  0
    5.0274  -19.5115   23.0815 O   0  0  0  0  0  0  0  0  0  0  0  0
    7.3171  -19.2285   23.7905 C   0  0  0  0  0  0  0  0  0  0  0  0
    8.2905  -18.0812   24.0623 C   0  0  2  0  0  0  0  0  0  0  0  0
    8.3523  -17.2969   22.8499 N   0  0  0  0  0  0  0  0  0  0  0  0
    9.6154  -18.7037   24.2495 C   0  0  0  0  0  0  0  0  0  0  0  0
    9.6757  -19.8472   24.7655 O   0  0  0  0  0  0  0  0  0  0  0  0
   13.2247  -18.2302   23.3688 C   0  0  0  0  0  0  0  0  0  0  0  0
   12.0625  -18.7745   24.1696 C   0  0  2  0  0  0  0  0  0  0  0  0
   10.8318  -18.0792   23.8770 N   0  0  0  0  0  0  0  0  0  0  0  0
   12.3149  -18.6935   25.6300 C   0  0  0  0  0  0  0  0  0  0  0  0
   13.2765  -19.2797   26.1860 O   0  0  0  0  0  0  0  0  0  0  0  0
   11.4708  -17.9471   26.4380 O   0  0  0  0  0  0  0  0  0  0  0  0
  2  1  1  1
  2  3  1  0
  4  2  1  0
  4  5  1  0
  5  7  1  0
  5  6  1  6
  7  8  2  0
  7 14  1  0
  9 10  1  0
 10 12  1  0
 10 11  2  0
 13 15  1  0
 13 12  1  6
 14 13  1  0
 15 16  2  0
 18 17  1  6
 19 18  1  0
 19 15  1  0
 20 22  1  0
 20 18  1  0
 21 20  2  0
M  END
$$$$
