LNA.pdb
     RDKit          3D

 22 21  0  0  1  0  0  0  0  0999 V2000
    9.5922  -13.1830   20.1801 C   0  0  0  0  0  0  0  0  0  0  0  0
    8.0807  -13.2652   19.9797 C   0  0  2  0  0  0  0  0  0  0  0  0
    7.4846  -11.8709   19.9632 C   0  0  0  0  0  0  0  0  0  0  0  0
    7.4636  -14.0876   21.0825 C   0  0  0  0  0  0  0  0  0  0  0  0
    8.1408  -15.4065   21.1599 C   0  0  2  0  0  0  0  0  0  0  0  0
    7.6775  -16.3938   20.2407 N   0  0  0  0  0  0  0  0  0  0  0  0
    8.0821  -16.0124   22.5221 C   0  0  0  0  0  0  0  0  0  0  0  0
    7.0031  -16.2645   23.1054 O   0  0  0  0  0  0  0  0  0  0  0  0
   11.8557  -19.3155   25.9818 N   0  0  0  0  0  0  0  0  0  0  0  0
   10.6410  -18.6397   25.7412 C   0  0  0  0  0  0  0  0  0  0  0  0
    9.7551  -18.6987   26.6331 O   0  0  0  0  0  0  0  0  0  0  0  0
   10.4926  -17.9164   24.4722 C   0  0  0  0  0  0  0  0  0  0  0  0
    9.3793  -16.8694   24.5194 C   0  0  2  0  0  0  0  0  0  0  0  0
    9.2762  -16.3169   23.1878 N   0  0  0  0  0  0  0  0  0  0  0  0
    9.8661  -15.7931   25.4038 C   0  0  0  0  0  0  0  0  0  0  0  0
   10.9981  -15.2967   25.1809 O   0  0  0  0  0  0  0  0  0  0  0  0
    8.7637  -13.0948   27.5381 C   0  0  0  0  0  0  0  0  0  0  0  0
    9.7226  -14.2383   27.2910 C   0  0  2  0  0  0  0  0  0  0  0  0
    9.1229  -15.2849   26.4982 N   0  0  0  0  0  0  0  0  0  0  0  0
   10.2121  -14.8298   28.5613 C   0  0  0  0  0  0  0  0  0  0  0  0
   10.7935  -14.1531   29.4453 O   0  0  0  0  0  0  0  0  0  0  0  0
   10.0339  -16.1823   28.8089 O   0  0  0  0  0  0  0  0  0  0  0  0
  2  1  1  1
  2  3  1  0
  4  2  1  0
  4  5  1  0
  5  7  1  0
  5  6  1  6
  7  8  2  0
  7 14  1  0
  9 10  1  0
 10 12  1  0
 10 11  2  0
 13 15  1  0
 13 12  1  6
 14 13  1  0
 15 16  2  0
 18 17  1  1
 19 18  1  0
 19 15  1  0
 20 22  1  0
 20 18  1  0
 21 20  2  0
M  END
$$$$
