LNA.pdb
     RDKit          3D

 22 21  0  0  1  0  0  0  0  0999 V2000
    9.1334  -11.7840   19.8174 C   0  0  0  0  0  0  0  0  0  0  0  0
    8.3637  -12.9101   19.1312 C   0  0  2  0  0  0  0  0  0  0  0  0
    6.9109  -12.5117   18.9564 C   0  0  0  0  0  0  0  0  0  0  0  0
    8.4679  -14.1721   19.9496 C   0  0  0  0  0  0  0  0  0  0  0  0
    9.8961  -14.4759   20.2182 C   0  0  2  0  0  0  0  0  0  0  0  0
   10.7262  -14.6113   19.0663 N   0  0  0  0  0  0  0  0  0  0  0  0
   10.0850  -15.7048   21.0429 C   0  0  0  0  0  0  0  0  0  0  0  0
    9.1904  -16.1640   21.7891 O   0  0  0  0  0  0  0  0  0  0  0  0
   14.6978  -19.8123   21.4982 N   0  0  0  0  0  0  0  0  0  0  0  0
   13.3500  -19.4168   21.6292 C   0  0  0  0  0  0  0  0  0  0  0  0
   12.5558  -20.2265   22.1746 O   0  0  0  0  0  0  0  0  0  0  0  0
   12.9661  -18.0933   21.1226 C   0  0  0  0  0  0  0  0  0  0  0  0
   11.6072  -17.6334   21.6512 C   0  0  2  0  0  0  0  0  0  0  0  0
   11.3092  -16.3832   20.9897 N   0  0  0  0  0  0  0  0  0  0  0  0
   11.8040  -17.3354   23.0831 C   0  0  0  0  0  0  0  0  0  0  0  0
   12.6686  -16.4840   23.4074 O   0  0  0  0  0  0  0  0  0  0  0  0
   10.0782  -17.3864   26.2876 C   0  0  0  0  0  0  0  0  0  0  0  0
   11.3444  -17.5599   25.4785 C   0  0  2  0  0  0  0  0  0  0  0  0
   11.0670  -17.9603   24.1197 N   0  0  0  0  0  0  0  0  0  0  0  0
   12.2545  -18.5609   26.0892 C   0  0  0  0  0  0  0  0  0  0  0  0
   12.5484  -19.6440   25.5253 O   0  0  0  0  0  0  0  0  0  0  0  0
   12.8179  -18.3166   27.3323 O   0  0  0  0  0  0  0  0  0  0  0  0
  2  1  1  1
  2  3  1  0
  4  2  1  0
  4  5  1  0
  5  7  1  0
  5  6  1  6
  7  8  2  0
  7 14  1  0
  9 10  1  0
 10 12  1  0
 10 11  2  0
 13 15  1  0
 13 12  1  6
 14 13  1  0
 15 16  2  0
 18 17  1  1
 19 18  1  0
 19 15  1  0
 20 22  1  0
 20 18  1  0
 21 20  2  0
M  END
$$$$
