LNA.pdb
     RDKit          3D

 22 21  0  0  1  0  0  0  0  0999 V2000
    9.7386  -12.7579   19.4633 C   0  0  0  0  0  0  0  0  0  0  0  0
    8.2829  -13.2178   19.4946 C   0  0  2  0  0  0  0  0  0  0  0  0
    7.3651  -12.0194   19.6406 C   0  0  0  0  0  0  0  0  0  0  0  0
    8.0763  -14.1803   20.6366 C   0  0  0  0  0  0  0  0  0  0  0  0
    9.0325  -15.3097   20.5164 C   0  0  2  0  0  0  0  0  0  0  0  0
    8.7763  -16.2256   19.4535 N   0  0  0  0  0  0  0  0  0  0  0  0
    9.1473  -16.1114   21.7693 C   0  0  0  0  0  0  0  0  0  0  0  0
    8.1521  -16.5813   22.3666 O   0  0  0  0  0  0  0  0  0  0  0  0
   12.7178  -18.9932   21.0979 N   0  0  0  0  0  0  0  0  0  0  0  0
   11.9065  -18.9994   22.2520 C   0  0  0  0  0  0  0  0  0  0  0  0
   11.1231  -19.9719   22.4080 O   0  0  0  0  0  0  0  0  0  0  0  0
   12.0301  -17.8761   23.1893 C   0  0  0  0  0  0  0  0  0  0  0  0
   10.6923  -17.1876   23.4609 C   0  0  2  0  0  0  0  0  0  0  0  0
   10.4154  -16.3564   22.3113 N   0  0  0  0  0  0  0  0  0  0  0  0
   10.9202  -16.2873   24.6078 C   0  0  0  0  0  0  0  0  0  0  0  0
   11.8309  -15.4261   24.5252 O   0  0  0  0  0  0  0  0  0  0  0  0
    9.5405  -14.3797   27.1372 C   0  0  0  0  0  0  0  0  0  0  0  0
   10.5575  -15.4716   26.8887 C   0  0  2  0  0  0  0  0  0  0  0  0
   10.1641  -16.3403   25.8051 N   0  0  0  0  0  0  0  0  0  0  0  0
   10.7826  -16.2996   28.0998 C   0  0  0  0  0  0  0  0  0  0  0  0
   11.1923  -15.8176   29.1849 O   0  0  0  0  0  0  0  0  0  0  0  0
   10.5387  -17.6639   28.0607 O   0  0  0  0  0  0  0  0  0  0  0  0
  2  1  1  1
  2  3  1  0
  4  2  1  0
  4  5  1  0
  5  7  1  0
  5  6  1  6
  7  8  2  0
  7 14  1  0
  9 10  1  0
 10 12  1  0
 10 11  2  0
 13 15  1  0
 13 12  1  6
 14 13  1  0
 15 16  2  0
 18 17  1  1
 19 18  1  0
 19 15  1  0
 20 22  1  0
 20 18  1  0
 21 20  2  0
M  END
$$$$
