LNA.pdb
     RDKit          3D

 22 21  0  0  1  0  0  0  0  0999 V2000
    6.5151  -12.2144   24.0510 C   0  0  0  0  0  0  0  0  0  0  0  0
    6.0004  -12.8977   25.3158 C   0  0  2  0  0  0  0  0  0  0  0  0
    5.7472  -11.8636   26.3958 C   0  0  0  0  0  0  0  0  0  0  0  0
    7.0046  -13.9176   25.7897 C   0  0  0  0  0  0  0  0  0  0  0  0
    6.9474  -15.1170   24.9167 C   0  0  2  0  0  0  0  0  0  0  0  0
    5.7271  -15.8544   24.9591 N   0  0  0  0  0  0  0  0  0  0  0  0
    8.0537  -16.0826   25.1804 C   0  0  0  0  0  0  0  0  0  0  0  0
    7.9495  -17.0255   25.9978 O   0  0  0  0  0  0  0  0  0  0  0  0
   10.9339  -15.8774   21.2319 N   0  0  0  0  0  0  0  0  0  0  0  0
   10.9381  -16.8136   22.2871 C   0  0  0  0  0  0  0  0  0  0  0  0
   10.5153  -17.9727   22.0390 O   0  0  0  0  0  0  0  0  0  0  0  0
   11.4329  -16.3749   23.5979 C   0  0  0  0  0  0  0  0  0  0  0  0
   10.4650  -16.7090   24.7333 C   0  0  2  0  0  0  0  0  0  0  0  0
    9.2651  -15.9403   24.4917 N   0  0  0  0  0  0  0  0  0  0  0  0
   11.0820  -16.1822   25.9660 C   0  0  0  0  0  0  0  0  0  0  0  0
   11.6914  -15.0852   25.9128 O   0  0  0  0  0  0  0  0  0  0  0  0
   10.7889  -14.7789   28.5053 C   0  0  0  0  0  0  0  0  0  0  0  0
   11.4648  -16.1267   28.3847 C   0  0  2  0  0  0  0  0  0  0  0  0
   11.0249  -16.8492   27.2150 N   0  0  0  0  0  0  0  0  0  0  0  0
   11.2232  -16.9722   29.5805 C   0  0  0  0  0  0  0  0  0  0  0  0
   11.5661  -16.6248   30.7378 O   0  0  0  0  0  0  0  0  0  0  0  0
   10.5950  -18.2007   29.4442 O   0  0  0  0  0  0  0  0  0  0  0  0
  2  1  1  6
  2  3  1  0
  4  2  1  0
  4  5  1  0
  5  7  1  0
  5  6  1  1
  7  8  2  0
  7 14  1  0
  9 10  1  0
 10 12  1  0
 10 11  2  0
 13 15  1  0
 13 12  1  6
 14 13  1  0
 15 16  2  0
 18 17  1  1
 19 18  1  0
 19 15  1  0
 20 22  1  0
 20 18  1  0
 21 20  2  0
M  END
$$$$
