MIQ.pdb
     RDKit          3D

 26 25  0  0  1  0  0  0  0  0999 V2000
    6.5379  -13.0220   18.1693 C   0  0  0  0  0  0  0  0  0  0  0  0
    7.1897  -14.6909   18.3066 S   0  0  0  0  0  0  0  0  0  0  0  0
    6.6256  -15.5750   19.7465 C   0  0  0  0  0  0  0  0  0  0  0  0
    7.4873  -15.4632   20.9619 C   0  0  0  0  0  0  0  0  0  0  0  0
    7.5555  -14.1101   21.5851 C   0  0  2  0  0  0  0  0  0  0  0  0
    8.2445  -13.1441   20.7655 N   0  0  0  0  0  0  0  0  0  0  0  0
    8.3684  -14.2826   22.8498 C   0  0  0  0  0  0  0  0  0  0  0  0
    9.5950  -14.2494   22.7362 O   0  0  0  0  0  0  0  0  0  0  0  0
    6.0322  -11.6806   26.7472 C   0  0  0  0  0  0  0  0  0  0  0  0
    7.1357  -12.2072   25.8071 C   0  0  0  0  0  0  0  0  0  0  0  0
    7.5505  -13.5787   26.2644 C   0  0  2  0  0  0  0  0  0  0  0  0
    8.0294  -13.4456   27.6815 C   0  0  0  0  0  0  0  0  0  0  0  0
    8.3173  -14.4133   25.3560 C   0  0  2  0  0  0  0  0  0  0  0  0
    7.6473  -14.4699   24.0777 N   0  0  0  0  0  0  0  0  0  0  0  0
    8.7367  -15.7662   25.7278 C   0  0  0  0  0  0  0  0  0  0  0  0
    7.8478  -16.6484   25.8636 O   0  0  0  0  0  0  0  0  0  0  0  0
   13.8004  -18.9178   24.2401 N   0  0  0  0  0  0  0  0  0  0  0  0
   12.7076  -18.4157   23.5080 C   0  0  0  0  0  0  0  0  0  0  0  0
   12.8288  -18.3763   22.2294 O   0  0  0  0  0  0  0  0  0  0  0  0
   11.4577  -17.9528   24.1543 C   0  0  0  0  0  0  0  0  0  0  0  0
   11.5126  -18.0718   25.6330 C   0  0  0  0  0  0  0  0  0  0  0  0
   10.3026  -17.5859   26.3399 C   0  0  2  0  0  0  0  0  0  0  0  0
   10.0578  -16.1746   25.9480 N   0  0  0  0  0  0  0  0  0  0  0  0
   10.2202  -17.6298   27.7819 C   0  0  0  0  0  0  0  0  0  0  0  0
    9.9469  -18.8063   28.4552 O   0  0  0  0  0  0  0  0  0  0  0  0
   10.3853  -16.5957   28.4698 O   0  0  0  0  0  0  0  0  0  0  0  0
  2  1  1  0
  3  2  1  0
  4  5  1  0
  4  3  1  0
  5  7  1  0
  5  6  1  6
  7  8  2  0
  7 14  1  0
 10  9  1  0
 11 12  1  1
 11 10  1  0
 13 11  1  0
 13 14  1  6
 15 13  1  0
 15 16  2  0
 17 18  1  0
 18 20  1  0
 18 19  2  0
 20 21  1  0
 22 21  1  1
 22 23  1  0
 23 15  1  0
 24 22  1  0
 25 24  1  0
 26 24  2  0
M  END
$$$$
