MIQ.pdb
     RDKit          3D

 26 25  0  0  1  0  0  0  0  0999 V2000
    5.9313  -20.7643   23.6490 C   0  0  0  0  0  0  0  0  0  0  0  0
    4.6118  -20.0576   22.6548 S   0  0  0  0  0  0  0  0  0  0  0  0
    4.9664  -18.4278   22.0295 C   0  0  0  0  0  0  0  0  0  0  0  0
    6.0330  -17.6688   22.7493 C   0  0  0  0  0  0  0  0  0  0  0  0
    6.1722  -16.2326   22.3727 C   0  0  2  0  0  0  0  0  0  0  0  0
    6.5557  -16.0437   20.9955 N   0  0  0  0  0  0  0  0  0  0  0  0
    7.2983  -15.6926   23.2272 C   0  0  0  0  0  0  0  0  0  0  0  0
    8.4383  -15.7693   22.7655 O   0  0  0  0  0  0  0  0  0  0  0  0
    5.8160  -11.7529   26.6437 C   0  0  0  0  0  0  0  0  0  0  0  0
    6.7325  -12.4406   25.6113 C   0  0  0  0  0  0  0  0  0  0  0  0
    7.3984  -13.6214   26.2626 C   0  0  2  0  0  0  0  0  0  0  0  0
    8.2378  -13.0897   27.3885 C   0  0  0  0  0  0  0  0  0  0  0  0
    7.9630  -14.6573   25.4152 C   0  0  2  0  0  0  0  0  0  0  0  0
    6.9492  -15.1351   24.5040 N   0  0  0  0  0  0  0  0  0  0  0  0
    8.6687  -15.8093   25.9801 C   0  0  0  0  0  0  0  0  0  0  0  0
    7.9846  -16.7246   26.5103 O   0  0  0  0  0  0  0  0  0  0  0  0
   11.5066  -19.9047   23.6766 N   0  0  0  0  0  0  0  0  0  0  0  0
   12.2977  -20.0075   24.8367 C   0  0  0  0  0  0  0  0  0  0  0  0
   12.9061  -21.1220   25.0328 O   0  0  0  0  0  0  0  0  0  0  0  0
   12.4472  -18.8949   25.8031 C   0  0  0  0  0  0  0  0  0  0  0  0
   11.6569  -17.7008   25.4116 C   0  0  0  0  0  0  0  0  0  0  0  0
   10.5949  -17.3171   26.3733 C   0  0  2  0  0  0  0  0  0  0  0  0
   10.0573  -15.9890   25.9828 N   0  0  0  0  0  0  0  0  0  0  0  0
   10.8699  -17.2462   27.7901 C   0  0  0  0  0  0  0  0  0  0  0  0
   11.0013  -18.3878   28.5593 O   0  0  0  0  0  0  0  0  0  0  0  0
   10.9890  -16.1420   28.3702 O   0  0  0  0  0  0  0  0  0  0  0  0
  2  1  1  0
  3  2  1  0
  4  5  1  0
  4  3  1  0
  5  7  1  0
  5  6  1  6
  7  8  2  0
  7 14  1  0
 10  9  1  0
 11 12  1  6
 11 10  1  0
 13 11  1  0
 13 14  1  1
 15 13  1  0
 15 16  2  0
 17 18  1  0
 18 20  1  0
 18 19  2  0
 20 21  1  0
 22 21  1  6
 22 23  1  0
 23 15  1  0
 24 22  1  0
 25 24  1  0
 26 24  2  0
M  END
$$$$
