MIQ.pdb
     RDKit          3D

 26 25  0  0  1  0  0  0  0  0999 V2000
   10.6244  -18.4129   29.0062 C   0  0  0  0  0  0  0  0  0  0  0  0
    9.7004  -19.9411   28.8080 S   0  0  0  0  0  0  0  0  0  0  0  0
    8.1603  -19.7508   27.9334 C   0  0  0  0  0  0  0  0  0  0  0  0
    7.9574  -18.4414   27.2433 C   0  0  0  0  0  0  0  0  0  0  0  0
    6.6769  -18.2963   26.4930 C   0  0  2  0  0  0  0  0  0  0  0  0
    6.2624  -19.5140   25.8410 N   0  0  0  0  0  0  0  0  0  0  0  0
    6.9521  -17.2800   25.4062 C   0  0  0  0  0  0  0  0  0  0  0  0
    6.9059  -17.6791   24.2412 O   0  0  0  0  0  0  0  0  0  0  0  0
    5.6999  -12.3285   26.7912 C   0  0  0  0  0  0  0  0  0  0  0  0
    5.7827  -13.4408   25.7260 C   0  0  0  0  0  0  0  0  0  0  0  0
    7.2206  -13.6242   25.3251 C   0  0  2  0  0  0  0  0  0  0  0  0
    7.6103  -12.4209   24.5154 C   0  0  0  0  0  0  0  0  0  0  0  0
    7.6536  -14.9317   24.8639 C   0  0  2  0  0  0  0  0  0  0  0  0
    7.2438  -15.9354   25.8182 N   0  0  0  0  0  0  0  0  0  0  0  0
    9.0435  -15.1872   24.4798 C   0  0  0  0  0  0  0  0  0  0  0  0
    9.9402  -15.0268   25.3499 O   0  0  0  0  0  0  0  0  0  0  0  0
   12.7704  -18.9146   25.2263 N   0  0  0  0  0  0  0  0  0  0  0  0
   11.5656  -19.1846   24.5497 C   0  0  0  0  0  0  0  0  0  0  0  0
   11.1383  -20.3961   24.5770 O   0  0  0  0  0  0  0  0  0  0  0  0
   10.7984  -18.1381   23.8352 C   0  0  0  0  0  0  0  0  0  0  0  0
   11.4301  -16.7998   23.9528 C   0  0  0  0  0  0  0  0  0  0  0  0
   10.9282  -15.7901   22.9892 C   0  0  2  0  0  0  0  0  0  0  0  0
    9.4723  -15.6019   23.2131 N   0  0  0  0  0  0  0  0  0  0  0  0
   11.1025  -15.9741   21.5665 C   0  0  0  0  0  0  0  0  0  0  0  0
   10.0203  -16.0421   20.7083 O   0  0  0  0  0  0  0  0  0  0  0  0
   12.2451  -16.0877   21.0653 O   0  0  0  0  0  0  0  0  0  0  0  0
  2  1  1  0
  3  2  1  0
  4  5  1  0
  4  3  1  0
  5  7  1  0
  5  6  1  6
  7  8  2  0
  7 14  1  0
 10  9  1  0
 11 12  1  6
 11 10  1  0
 13 11  1  0
 13 14  1  1
 15 13  1  0
 15 16  2  0
 17 18  1  0
 18 20  1  0
 18 19  2  0
 20 21  1  0
 22 21  1  1
 22 23  1  0
 23 15  1  0
 24 22  1  0
 25 24  1  0
 26 24  2  0
M  END
$$$$
