MIQ.pdb
     RDKit          3D

 26 25  0  0  1  0  0  0  0  0999 V2000
    6.7237  -20.9399   27.2868 C   0  0  0  0  0  0  0  0  0  0  0  0
    5.8121  -21.5109   25.8475 S   0  0  0  0  0  0  0  0  0  0  0  0
    5.2464  -20.2023   24.7795 C   0  0  0  0  0  0  0  0  0  0  0  0
    6.1143  -18.9879   24.7169 C   0  0  0  0  0  0  0  0  0  0  0  0
    5.5799  -17.8508   23.9135 C   0  0  2  0  0  0  0  0  0  0  0  0
    5.3875  -18.1819   22.5232 N   0  0  0  0  0  0  0  0  0  0  0  0
    6.6411  -16.7736   23.9725 C   0  0  0  0  0  0  0  0  0  0  0  0
    7.4288  -16.7107   23.0269 O   0  0  0  0  0  0  0  0  0  0  0  0
    5.5267  -12.1362   26.5735 C   0  0  0  0  0  0  0  0  0  0  0  0
    6.1293  -13.0525   25.4892 C   0  0  0  0  0  0  0  0  0  0  0  0
    7.2545  -13.8465   26.0938 C   0  0  2  0  0  0  0  0  0  0  0  0
    8.2589  -12.8607   26.6177 C   0  0  0  0  0  0  0  0  0  0  0  0
    7.7449  -15.0133   25.3810 C   0  0  2  0  0  0  0  0  0  0  0  0
    6.6449  -15.9130   25.1224 N   0  0  0  0  0  0  0  0  0  0  0  0
    8.8827  -15.7912   25.8757 C   0  0  0  0  0  0  0  0  0  0  0  0
    8.7000  -16.5494   26.8648 O   0  0  0  0  0  0  0  0  0  0  0  0
   13.3987  -17.5651   21.9583 N   0  0  0  0  0  0  0  0  0  0  0  0
   13.6219  -16.4292   22.7596 C   0  0  0  0  0  0  0  0  0  0  0  0
   14.5468  -15.6205   22.3833 O   0  0  0  0  0  0  0  0  0  0  0  0
   12.8367  -16.1480   23.9837 C   0  0  0  0  0  0  0  0  0  0  0  0
   11.7912  -17.1732   24.2282 C   0  0  0  0  0  0  0  0  0  0  0  0
   11.0175  -16.9842   25.4795 C   0  0  2  0  0  0  0  0  0  0  0  0
   10.1757  -15.7690   25.3389 N   0  0  0  0  0  0  0  0  0  0  0  0
   11.6883  -16.8713   26.7544 C   0  0  0  0  0  0  0  0  0  0  0  0
   11.6959  -15.6851   27.4651 O   0  0  0  0  0  0  0  0  0  0  0  0
   12.2951  -17.8474   27.2534 O   0  0  0  0  0  0  0  0  0  0  0  0
  2  1  1  0
  3  2  1  0
  4  5  1  0
  4  3  1  0
  5  7  1  0
  5  6  1  6
  7  8  2  0
  7 14  1  0
 10  9  1  0
 11 12  1  6
 11 10  1  0
 13 11  1  0
 13 14  1  1
 15 13  1  0
 15 16  2  0
 17 18  1  0
 18 20  1  0
 18 19  2  0
 20 21  1  0
 22 21  1  6
 22 23  1  0
 23 15  1  0
 24 22  1  0
 25 24  1  0
 26 24  2  0
M  END
$$$$
