MIQ.pdb
     RDKit          3D

 26 25  0  0  1  0  0  0  0  0999 V2000
    9.9407  -13.9661   29.0244 C   0  0  0  0  0  0  0  0  0  0  0  0
    9.6945  -15.3867   30.0969 S   0  0  0  0  0  0  0  0  0  0  0  0
   10.0702  -16.9499   29.3299 C   0  0  0  0  0  0  0  0  0  0  0  0
    9.6401  -17.1006   27.9072 C   0  0  0  0  0  0  0  0  0  0  0  0
    8.1927  -17.3908   27.6955 C   0  0  2  0  0  0  0  0  0  0  0  0
    7.8771  -18.7945   27.7940 N   0  0  0  0  0  0  0  0  0  0  0  0
    7.8935  -16.9651   26.2745 C   0  0  0  0  0  0  0  0  0  0  0  0
    7.5804  -17.8519   25.4782 O   0  0  0  0  0  0  0  0  0  0  0  0
    6.6036  -11.8300   26.2939 C   0  0  0  0  0  0  0  0  0  0  0  0
    6.2211  -13.1679   25.6288 C   0  0  0  0  0  0  0  0  0  0  0  0
    7.3665  -13.6291   24.7701 C   0  0  2  0  0  0  0  0  0  0  0  0
    7.3210  -12.8237   23.5034 C   0  0  0  0  0  0  0  0  0  0  0  0
    7.6314  -15.0536   24.6688 C   0  0  2  0  0  0  0  0  0  0  0  0
    7.9976  -15.5657   25.9688 N   0  0  0  0  0  0  0  0  0  0  0  0
    8.5602  -15.5914   23.6725 C   0  0  0  0  0  0  0  0  0  0  0  0
    8.1304  -15.7918   22.5055 O   0  0  0  0  0  0  0  0  0  0  0  0
   11.6294  -15.2281   19.0269 N   0  0  0  0  0  0  0  0  0  0  0  0
   12.3209  -14.5979   20.0789 C   0  0  0  0  0  0  0  0  0  0  0  0
   13.3816  -13.9413   19.7710 O   0  0  0  0  0  0  0  0  0  0  0  0
   11.8665  -14.6647   21.4872 C   0  0  0  0  0  0  0  0  0  0  0  0
   10.6516  -15.5030   21.6461 C   0  0  0  0  0  0  0  0  0  0  0  0
   10.7016  -16.4594   22.7787 C   0  0  2  0  0  0  0  0  0  0  0  0
    9.9048  -15.9065   23.9033 N   0  0  0  0  0  0  0  0  0  0  0  0
   11.9662  -16.8763   23.3400 C   0  0  0  0  0  0  0  0  0  0  0  0
   12.3249  -16.5508   24.6353 O   0  0  0  0  0  0  0  0  0  0  0  0
   12.7851  -17.5409   22.6637 O   0  0  0  0  0  0  0  0  0  0  0  0
  2  1  1  0
  3  2  1  0
  4  5  1  0
  4  3  1  0
  5  7  1  0
  5  6  1  6
  7  8  2  0
  7 14  1  0
 10  9  1  0
 11 12  1  6
 11 10  1  0
 13 11  1  0
 13 14  1  1
 15 13  1  0
 15 16  2  0
 17 18  1  0
 18 20  1  0
 18 19  2  0
 20 21  1  0
 22 21  1  6
 22 23  1  0
 23 15  1  0
 24 22  1  0
 25 24  1  0
 26 24  2  0
M  END
$$$$
