MIQ.pdb
     RDKit          3D

 26 25  0  0  1  0  0  0  0  0999 V2000
   10.7363  -14.9427   29.8207 C   0  0  0  0  0  0  0  0  0  0  0  0
   10.6867  -16.7189   30.0875 S   0  0  0  0  0  0  0  0  0  0  0  0
    9.2700  -17.5227   29.3665 C   0  0  0  0  0  0  0  0  0  0  0  0
    8.6945  -16.8691   28.1526 C   0  0  0  0  0  0  0  0  0  0  0  0
    7.4648  -17.5038   27.5969 C   0  0  2  0  0  0  0  0  0  0  0  0
    7.5776  -18.9354   27.4649 N   0  0  0  0  0  0  0  0  0  0  0  0
    7.3070  -16.9385   26.2021 C   0  0  0  0  0  0  0  0  0  0  0  0
    6.9547  -17.7204   25.3172 O   0  0  0  0  0  0  0  0  0  0  0  0
    6.2504  -11.6850   25.8397 C   0  0  0  0  0  0  0  0  0  0  0  0
    6.1186  -13.1158   25.2793 C   0  0  0  0  0  0  0  0  0  0  0  0
    7.4548  -13.5543   24.7461 C   0  0  2  0  0  0  0  0  0  0  0  0
    7.7316  -12.7338   23.5192 C   0  0  0  0  0  0  0  0  0  0  0  0
    7.7559  -14.9747   24.7045 C   0  0  2  0  0  0  0  0  0  0  0  0
    7.5792  -15.5399   26.0219 N   0  0  0  0  0  0  0  0  0  0  0  0
    9.0117  -15.4756   24.1420 C   0  0  0  0  0  0  0  0  0  0  0  0
   10.0619  -15.3502   24.8263 O   0  0  0  0  0  0  0  0  0  0  0  0
    9.0487  -19.8538   19.9712 N   0  0  0  0  0  0  0  0  0  0  0  0
    9.3475  -20.0536   21.3325 C   0  0  0  0  0  0  0  0  0  0  0  0
    9.4283  -21.2690   21.7413 O   0  0  0  0  0  0  0  0  0  0  0  0
    9.5711  -18.9324   22.2744 C   0  0  0  0  0  0  0  0  0  0  0  0
   10.3011  -17.8049   21.6423 C   0  0  0  0  0  0  0  0  0  0  0  0
   10.4882  -16.6201   22.5148 C   0  0  2  0  0  0  0  0  0  0  0  0
    9.1526  -16.0927   22.8931 N   0  0  0  0  0  0  0  0  0  0  0  0
   11.2635  -15.4860   22.0666 C   0  0  0  0  0  0  0  0  0  0  0  0
   12.6021  -15.3530   22.3870 O   0  0  0  0  0  0  0  0  0  0  0  0
   10.7415  -14.5786   21.3781 O   0  0  0  0  0  0  0  0  0  0  0  0
  2  1  1  0
  3  2  1  0
  4  5  1  0
  4  3  1  0
  5  7  1  0
  5  6  1  6
  7  8  2  0
  7 14  1  0
 10  9  1  0
 11 12  1  6
 11 10  1  0
 13 11  1  0
 13 14  1  1
 15 13  1  0
 15 16  2  0
 17 18  1  0
 18 20  1  0
 18 19  2  0
 20 21  1  0
 22 21  1  6
 22 23  1  0
 23 15  1  0
 24 22  1  0
 25 24  1  0
 26 24  2  0
M  END
$$$$
