MIQ.pdb
     RDKit          3D

 26 25  0  0  1  0  0  0  0  0999 V2000
    8.0955  -11.1651   19.4701 C   0  0  0  0  0  0  0  0  0  0  0  0
    7.5733  -12.6105   18.5390 S   0  0  0  0  0  0  0  0  0  0  0  0
    7.4437  -14.0953   19.5145 C   0  0  0  0  0  0  0  0  0  0  0  0
    7.9996  -14.0189   20.8991 C   0  0  0  0  0  0  0  0  0  0  0  0
    8.0171  -15.3004   21.6615 C   0  0  2  0  0  0  0  0  0  0  0  0
    6.6973  -15.7973   21.9627 N   0  0  0  0  0  0  0  0  0  0  0  0
    8.6857  -14.9824   22.9813 C   0  0  0  0  0  0  0  0  0  0  0  0
    9.8787  -14.6759   22.9454 O   0  0  0  0  0  0  0  0  0  0  0  0
    5.8221  -11.9204   26.1027 C   0  0  0  0  0  0  0  0  0  0  0  0
    6.9703  -12.5848   25.3162 C   0  0  0  0  0  0  0  0  0  0  0  0
    7.4782  -13.7637   26.1000 C   0  0  2  0  0  0  0  0  0  0  0  0
    7.8132  -13.2672   27.4771 C   0  0  0  0  0  0  0  0  0  0  0  0
    8.4028  -14.6812   25.4572 C   0  0  2  0  0  0  0  0  0  0  0  0
    7.8784  -15.0625   24.1665 N   0  0  0  0  0  0  0  0  0  0  0  0
    8.8906  -15.8813   26.1402 C   0  0  0  0  0  0  0  0  0  0  0  0
    8.0421  -16.7033   26.5774 O   0  0  0  0  0  0  0  0  0  0  0  0
   12.8720  -19.2946   23.3526 N   0  0  0  0  0  0  0  0  0  0  0  0
   13.0972  -19.7508   24.6653 C   0  0  0  0  0  0  0  0  0  0  0  0
   14.0489  -20.5972   24.8352 O   0  0  0  0  0  0  0  0  0  0  0  0
   12.2940  -19.2884   25.8209 C   0  0  0  0  0  0  0  0  0  0  0  0
   11.5058  -18.0706   25.5057 C   0  0  0  0  0  0  0  0  0  0  0  0
   10.5916  -17.6264   26.5860 C   0  0  2  0  0  0  0  0  0  0  0  0
   10.2365  -16.2034   26.3529 N   0  0  0  0  0  0  0  0  0  0  0  0
   10.9813  -17.7283   27.9737 C   0  0  0  0  0  0  0  0  0  0  0  0
   11.2499  -16.6048   28.7338 O   0  0  0  0  0  0  0  0  0  0  0  0
   11.0976  -18.8442   28.5314 O   0  0  0  0  0  0  0  0  0  0  0  0
  2  1  1  0
  3  2  1  0
  4  5  1  0
  4  3  1  0
  5  7  1  0
  5  6  1  1
  7  8  2  0
  7 14  1  0
 10  9  1  0
 11 12  1  1
 11 10  1  0
 13 11  1  0
 13 14  1  6
 15 13  1  0
 15 16  2  0
 17 18  1  0
 18 20  1  0
 18 19  2  0
 20 21  1  0
 22 21  1  6
 22 23  1  0
 23 15  1  0
 24 22  1  0
 25 24  1  0
 26 24  2  0
M  END
$$$$
