MIQ.pdb
     RDKit          3D

 26 25  0  0  1  0  0  0  0  0999 V2000
    6.0009  -21.5309   25.4742 C   0  0  0  0  0  0  0  0  0  0  0  0
    6.6666  -21.3642   23.8136 S   0  0  0  0  0  0  0  0  0  0  0  0
    6.2926  -19.8070   23.0337 C   0  0  0  0  0  0  0  0  0  0  0  0
    6.0038  -18.6668   23.9548 C   0  0  0  0  0  0  0  0  0  0  0  0
    5.7139  -17.3603   23.2969 C   0  0  2  0  0  0  0  0  0  0  0  0
    5.7265  -17.4371   21.8570 N   0  0  0  0  0  0  0  0  0  0  0  0
    6.8422  -16.4377   23.7041 C   0  0  0  0  0  0  0  0  0  0  0  0
    7.8070  -16.3619   22.9411 O   0  0  0  0  0  0  0  0  0  0  0  0
    5.5604  -11.9885   26.4268 C   0  0  0  0  0  0  0  0  0  0  0  0
    6.2940  -12.8944   25.4169 C   0  0  0  0  0  0  0  0  0  0  0  0
    7.2523  -13.7801   26.1649 C   0  0  2  0  0  0  0  0  0  0  0  0
    8.2096  -12.8802   26.8921 C   0  0  0  0  0  0  0  0  0  0  0  0
    7.7869  -14.9516   25.4929 C   0  0  2  0  0  0  0  0  0  0  0  0
    6.6986  -15.7260   24.9433 N   0  0  0  0  0  0  0  0  0  0  0  0
    8.7197  -15.8602   26.1628 C   0  0  0  0  0  0  0  0  0  0  0  0
    8.2473  -16.8636   26.7602 O   0  0  0  0  0  0  0  0  0  0  0  0
   13.5550  -17.0347   22.9134 N   0  0  0  0  0  0  0  0  0  0  0  0
   12.8680  -18.2053   23.2874 C   0  0  0  0  0  0  0  0  0  0  0  0
   13.0656  -19.2536   22.5710 O   0  0  0  0  0  0  0  0  0  0  0  0
   11.9569  -18.2591   24.4541 C   0  0  0  0  0  0  0  0  0  0  0  0
   11.9042  -16.9683   25.1855 C   0  0  0  0  0  0  0  0  0  0  0  0
   10.9464  -16.9354   26.3175 C   0  0  2  0  0  0  0  0  0  0  0  0
   10.1117  -15.7129   26.1985 N   0  0  0  0  0  0  0  0  0  0  0  0
   11.4139  -16.9794   27.6841 C   0  0  0  0  0  0  0  0  0  0  0  0
   12.1446  -18.0508   28.1642 O   0  0  0  0  0  0  0  0  0  0  0  0
   11.1624  -16.0475   28.4829 O   0  0  0  0  0  0  0  0  0  0  0  0
  2  1  1  0
  3  2  1  0
  4  5  1  0
  4  3  1  0
  5  7  1  0
  5  6  1  6
  7  8  2  0
  7 14  1  0
 10  9  1  0
 11 12  1  6
 11 10  1  0
 13 11  1  0
 13 14  1  1
 15 13  1  0
 15 16  2  0
 17 18  1  0
 18 20  1  0
 18 19  2  0
 20 21  1  0
 22 21  1  6
 22 23  1  0
 23 15  1  0
 24 22  1  0
 25 24  1  0
 26 24  2  0
M  END
$$$$
