MIQ.pdb
     RDKit          3D

 26 25  0  0  1  0  0  0  0  0999 V2000
    9.6688  -21.7758   20.5733 C   0  0  0  0  0  0  0  0  0  0  0  0
    9.8654  -21.8636   18.7894 S   0  0  0  0  0  0  0  0  0  0  0  0
    9.9865  -20.2749   17.9927 C   0  0  0  0  0  0  0  0  0  0  0  0
    8.8579  -19.3291   18.2446 C   0  0  0  0  0  0  0  0  0  0  0  0
    8.9616  -18.0030   17.5705 C   0  0  2  0  0  0  0  0  0  0  0  0
    9.8859  -18.0020   16.4636 N   0  0  0  0  0  0  0  0  0  0  0  0
    9.5140  -17.0558   18.6134 C   0  0  0  0  0  0  0  0  0  0  0  0
   10.7255  -16.8326   18.5820 O   0  0  0  0  0  0  0  0  0  0  0  0
    6.1085  -12.9827   20.1233 C   0  0  0  0  0  0  0  0  0  0  0  0
    7.3425  -13.7638   19.6276 C   0  0  0  0  0  0  0  0  0  0  0  0
    7.8846  -14.5880   20.7629 C   0  0  2  0  0  0  0  0  0  0  0  0
    7.9647  -13.6886   21.9628 C   0  0  0  0  0  0  0  0  0  0  0  0
    8.9961  -15.4861   20.5026 C   0  0  2  0  0  0  0  0  0  0  0  0
    8.5846  -16.4940   19.5533 N   0  0  0  0  0  0  0  0  0  0  0  0
    9.7272  -16.1365   21.5921 C   0  0  0  0  0  0  0  0  0  0  0  0
    9.3236  -17.2611   21.9912 O   0  0  0  0  0  0  0  0  0  0  0  0
   16.3819  -17.3358   24.4438 N   0  0  0  0  0  0  0  0  0  0  0  0
   15.3572  -16.6969   23.7199 C   0  0  0  0  0  0  0  0  0  0  0  0
   15.7157  -15.8555   22.8174 O   0  0  0  0  0  0  0  0  0  0  0  0
   13.9208  -16.9674   23.9602 C   0  0  0  0  0  0  0  0  0  0  0  0
   13.0490  -16.3039   22.9584 C   0  0  0  0  0  0  0  0  0  0  0  0
   11.5945  -16.4903   23.1814 C   0  0  2  0  0  0  0  0  0  0  0  0
   10.8531  -15.6135   22.2396 N   0  0  0  0  0  0  0  0  0  0  0  0
   11.0120  -16.2737   24.4859 C   0  0  0  0  0  0  0  0  0  0  0  0
   11.1732  -17.1880   25.5107 O   0  0  0  0  0  0  0  0  0  0  0  0
   10.3314  -15.2497   24.7272 O   0  0  0  0  0  0  0  0  0  0  0  0
  2  1  1  0
  3  2  1  0
  4  5  1  0
  4  3  1  0
  5  7  1  0
  5  6  1  6
  7  8  2  0
  7 14  1  0
 10  9  1  0
 11 12  1  1
 11 10  1  0
 13 11  1  0
 13 14  1  6
 15 13  1  0
 15 16  2  0
 17 18  1  0
 18 20  1  0
 18 19  2  0
 20 21  1  0
 22 21  1  1
 22 23  1  0
 23 15  1  0
 24 22  1  0
 25 24  1  0
 26 24  2  0
M  END
$$$$
