MIQ.pdb
     RDKit          3D

 26 25  0  0  1  0  0  0  0  0999 V2000
    7.8483  -19.1961   20.1483 C   0  0  0  0  0  0  0  0  0  0  0  0
    6.2376  -18.4954   19.7697 S   0  0  0  0  0  0  0  0  0  0  0  0
    6.1358  -16.7339   20.0144 C   0  0  0  0  0  0  0  0  0  0  0  0
    6.8341  -16.1999   21.2223 C   0  0  0  0  0  0  0  0  0  0  0  0
    6.7754  -14.7208   21.4033 C   0  0  2  0  0  0  0  0  0  0  0  0
    7.3930  -13.9938   20.3218 N   0  0  0  0  0  0  0  0  0  0  0  0
    7.5781  -14.4291   22.6524 C   0  0  0  0  0  0  0  0  0  0  0  0
    8.7853  -14.2278   22.5083 O   0  0  0  0  0  0  0  0  0  0  0  0
    7.1235  -11.0558   25.7838 C   0  0  0  0  0  0  0  0  0  0  0  0
    6.0988  -12.1942   25.6024 C   0  0  0  0  0  0  0  0  0  0  0  0
    6.7160  -13.4832   26.0710 C   0  0  2  0  0  0  0  0  0  0  0  0
    7.2118  -13.2527   27.4696 C   0  0  0  0  0  0  0  0  0  0  0  0
    7.5666  -14.2218   25.1540 C   0  0  2  0  0  0  0  0  0  0  0  0
    6.8708  -14.4097   23.9022 N   0  0  0  0  0  0  0  0  0  0  0  0
    8.1911  -15.4888   25.5400 C   0  0  0  0  0  0  0  0  0  0  0  0
    7.4479  -16.4140   25.9625 O   0  0  0  0  0  0  0  0  0  0  0  0
   12.5137  -18.3316   22.4701 N   0  0  0  0  0  0  0  0  0  0  0  0
   12.6789  -17.0568   23.0443 C   0  0  0  0  0  0  0  0  0  0  0  0
   13.5346  -16.2731   22.4924 O   0  0  0  0  0  0  0  0  0  0  0  0
   11.9096  -16.6077   24.2279 C   0  0  0  0  0  0  0  0  0  0  0  0
   10.8888  -17.6018   24.6446 C   0  0  0  0  0  0  0  0  0  0  0  0
   10.0082  -17.1593   25.7530 C   0  0  2  0  0  0  0  0  0  0  0  0
    9.5615  -15.7698   25.4795 N   0  0  0  0  0  0  0  0  0  0  0  0
   10.4744  -17.1769   27.1207 C   0  0  0  0  0  0  0  0  0  0  0  0
   10.4912  -16.0304   27.8938 O   0  0  0  0  0  0  0  0  0  0  0  0
   10.8888  -18.2352   27.6480 O   0  0  0  0  0  0  0  0  0  0  0  0
  2  1  1  0
  3  2  1  0
  4  5  1  0
  4  3  1  0
  5  7  1  0
  5  6  1  6
  7  8  2  0
  7 14  1  0
 10  9  1  0
 11 12  1  1
 11 10  1  0
 13 11  1  0
 13 14  1  6
 15 13  1  0
 15 16  2  0
 17 18  1  0
 18 20  1  0
 18 19  2  0
 20 21  1  0
 22 21  1  6
 22 23  1  0
 23 15  1  0
 24 22  1  0
 25 24  1  0
 26 24  2  0
M  END
$$$$
