MIQ.pdb
     RDKit          3D

 26 25  0  0  1  0  0  0  0  0999 V2000
    7.5755  -11.2172   26.5740 C   0  0  0  0  0  0  0  0  0  0  0  0
    6.6057  -12.2498   27.6794 S   0  0  0  0  0  0  0  0  0  0  0  0
    5.9974  -13.7464   26.9288 C   0  0  0  0  0  0  0  0  0  0  0  0
    6.8714  -14.3546   25.8809 C   0  0  0  0  0  0  0  0  0  0  0  0
    6.2597  -15.4605   25.0894 C   0  0  2  0  0  0  0  0  0  0  0  0
    5.9374  -16.6168   25.8886 N   0  0  0  0  0  0  0  0  0  0  0  0
    7.3182  -15.8865   24.0954 C   0  0  0  0  0  0  0  0  0  0  0  0
    7.6808  -17.0637   24.1331 O   0  0  0  0  0  0  0  0  0  0  0  0
    7.4012  -12.4063   19.9740 C   0  0  0  0  0  0  0  0  0  0  0  0
    7.3035  -13.8204   20.5819 C   0  0  0  0  0  0  0  0  0  0  0  0
    8.6611  -14.2285   21.0845 C   0  0  2  0  0  0  0  0  0  0  0  0
    9.5466  -14.3906   19.8825 C   0  0  0  0  0  0  0  0  0  0  0  0
    8.7430  -15.2260   22.1372 C   0  0  2  0  0  0  0  0  0  0  0  0
    7.8136  -14.8878   23.1899 N   0  0  0  0  0  0  0  0  0  0  0  0
   10.0236  -15.5985   22.7418 C   0  0  0  0  0  0  0  0  0  0  0  0
   10.6030  -14.7543   23.4756 O   0  0  0  0  0  0  0  0  0  0  0  0
   10.9317  -19.1908   26.7222 N   0  0  0  0  0  0  0  0  0  0  0  0
   10.4105  -19.3702   25.4268 C   0  0  0  0  0  0  0  0  0  0  0  0
    9.2086  -19.8155   25.3363 O   0  0  0  0  0  0  0  0  0  0  0  0
   11.1864  -19.0612   24.2033 C   0  0  0  0  0  0  0  0  0  0  0  0
   11.9831  -17.8164   24.3430 C   0  0  0  0  0  0  0  0  0  0  0  0
   12.0455  -16.9793   23.1201 C   0  0  2  0  0  0  0  0  0  0  0  0
   10.6718  -16.8286   22.5767 N   0  0  0  0  0  0  0  0  0  0  0  0
   12.8862  -17.3566   22.0071 C   0  0  0  0  0  0  0  0  0  0  0  0
   14.2532  -17.5074   22.1517 O   0  0  0  0  0  0  0  0  0  0  0  0
   12.4011  -17.5507   20.8683 O   0  0  0  0  0  0  0  0  0  0  0  0
  2  1  1  0
  3  2  1  0
  4  5  1  0
  4  3  1  0
  5  7  1  0
  5  6  1  1
  7  8  2  0
  7 14  1  0
 10  9  1  0
 11 12  1  6
 11 10  1  0
 13 11  1  0
 13 14  1  1
 15 13  1  0
 15 16  2  0
 17 18  1  0
 18 20  1  0
 18 19  2  0
 20 21  1  0
 22 21  1  1
 22 23  1  0
 23 15  1  0
 24 22  1  0
 25 24  1  0
 26 24  2  0
M  END
$$$$
