NRS.pdb
     RDKit          3D

 26 25  0  0  1  0  0  0  0  0999 V2000
   26.2017  -20.9123  -10.0398 N   0  0  0  0  0  0  0  0  0  0  0  0
   26.0682  -21.7623  -11.1645 C   0  0  0  0  0  0  0  0  0  0  0  0
   26.4536  -22.9580  -10.9866 O   0  0  0  0  0  0  0  0  0  0  0  0
   25.5400  -21.3904  -12.4756 C   0  0  0  0  0  0  0  0  0  0  0  0
   24.2585  -20.6470  -12.3432 C   0  0  2  0  0  0  0  0  0  0  0  0
   23.0879  -21.4713  -12.4293 N   0  0  0  0  0  0  0  0  0  0  0  0
   24.2163  -19.6374  -13.4646 C   0  0  0  0  0  0  0  0  0  0  0  0
   23.1419  -19.3788  -14.0601 O   0  0  0  0  0  0  0  0  0  0  0  0
   28.9243  -16.5544  -19.2334 N   0  0  0  0  0  0  0  0  0  0  0  0
   27.9883  -15.4361  -19.0713 C   0  0  0  0  0  0  0  0  0  0  0  0
   27.7959  -14.6377  -20.0287 N   0  0  0  0  0  0  0  0  0  0  0  0
   27.3113  -15.2679  -17.8509 N   0  0  0  0  0  0  0  0  0  0  0  0
   27.1051  -16.2390  -16.8448 C   0  0  0  0  0  0  0  0  0  0  0  0
   26.4125  -15.8314  -15.5832 C   0  0  0  0  0  0  0  0  0  0  0  0
   26.4287  -16.9850  -14.6032 C   0  0  0  0  0  0  0  0  0  0  0  0
   25.3738  -17.9853  -14.9101 C   0  0  2  0  0  0  0  0  0  0  0  0
   25.3886  -18.9746  -13.8528 N   0  0  0  0  0  0  0  0  0  0  0  0
   25.7224  -18.7408  -16.1825 C   0  0  0  0  0  0  0  0  0  0  0  0
   26.7257  -19.4986  -16.1951 O   0  0  0  0  0  0  0  0  0  0  0  0
   27.2466  -13.8179  -20.0681 O   0  0  0  0  0  0  0  0  0  0  0  0
   24.0680  -20.0131  -20.5650 C   0  0  0  0  0  0  0  0  0  0  0  0
   23.9051  -19.2306  -19.4414 C   0  0  1  0  0  0  0  0  0  0  0  0
   25.0786  -19.4021  -18.5030 N   0  0  0  0  0  0  0  0  0  0  0  0
   24.9046  -18.5680  -17.3174 C   0  0  0  0  0  0  0  0  0  0  0  0
   26.3643  -19.0878  -19.1539 O   0  0  0  0  0  0  0  0  0  0  0  0
   27.1962  -20.1140  -19.5446 O   0  0  0  0  0  0  0  0  0  0  0  0
  2  1  1  0
  3  2  2  0
  4  2  1  0
  5  4  1  0
  5  6  1  6
  7  5  1  0
  7  8  2  0
  9 10  1  0
 10 12  1  0
 11 10  2  0
 12 13  1  0
 13 14  1  0
 16 15  1  1
 15 14  1  0
 16 17  1  0
 17  7  1  0
 18 16  1  0
 19 18  2  0
 20 21  1  0
 22 21  1  1
 22 24  1  0
 22 23  1  0
 23 18  1  0
 24 25  1  0
 26 24  2  0
M  END
$$$$
