NRS.pdb
     RDKit          3D

 26 25  0  0  1  0  0  0  0  0999 V2000
   25.4650  -13.4139  -15.8651 N   0  0  0  0  0  0  0  0  0  0  0  0
   25.8178  -12.0571  -15.6656 C   0  0  0  0  0  0  0  0  0  0  0  0
   27.0008  -11.8621  -15.2504 O   0  0  0  0  0  0  0  0  0  0  0  0
   24.9599  -10.8952  -15.8901 C   0  0  0  0  0  0  0  0  0  0  0  0
   23.5801  -11.3136  -16.2556 C   0  0  2  0  0  0  0  0  0  0  0  0
   23.4978  -12.0785  -17.4660 N   0  0  0  0  0  0  0  0  0  0  0  0
   22.7687  -10.0527  -16.4302 C   0  0  0  0  0  0  0  0  0  0  0  0
   23.0537   -9.2208  -17.3260 O   0  0  0  0  0  0  0  0  0  0  0  0
   14.6157  -11.2216  -15.6646 N   0  0  0  0  0  0  0  0  0  0  0  0
   15.7058  -12.0794  -16.1429 C   0  0  0  0  0  0  0  0  0  0  0  0
   15.4857  -13.2995  -16.3751 N   0  0  0  0  0  0  0  0  0  0  0  0
   16.9848  -11.5314  -16.3421 N   0  0  0  0  0  0  0  0  0  0  0  0
   17.3580  -10.1712  -16.2493 C   0  0  0  0  0  0  0  0  0  0  0  0
   18.7478   -9.7787  -16.6386 C   0  0  0  0  0  0  0  0  0  0  0  0
   19.4240   -9.0915  -15.4716 C   0  0  0  0  0  0  0  0  0  0  0  0
   20.8074   -8.6656  -15.8075 C   0  0  2  0  0  0  0  0  0  0  0  0
   21.6800   -9.7994  -15.5847 N   0  0  0  0  0  0  0  0  0  0  0  0
   21.2751   -7.5922  -14.8379 C   0  0  0  0  0  0  0  0  0  0  0  0
   21.7708   -7.9318  -13.7333 O   0  0  0  0  0  0  0  0  0  0  0  0
   16.0898  -13.9946  -16.7319 O   0  0  0  0  0  0  0  0  0  0  0  0
   23.4355   -3.6890  -13.9629 C   0  0  0  0  0  0  0  0  0  0  0  0
   22.9955   -4.7222  -14.7631 C   0  0  1  0  0  0  0  0  0  0  0  0
   21.6148   -5.1693  -14.3375 N   0  0  0  0  0  0  0  0  0  0  0  0
   21.1384   -6.2394  -15.2090 C   0  0  0  0  0  0  0  0  0  0  0  0
   20.6454   -4.0577  -14.3312 O   0  0  0  0  0  0  0  0  0  0  0  0
   20.6503   -3.1585  -13.2876 O   0  0  0  0  0  0  0  0  0  0  0  0
  2  1  1  0
  3  2  2  0
  4  2  1  0
  5  4  1  0
  5  6  1  6
  7  5  1  0
  7  8  2  0
  9 10  1  0
 10 12  1  0
 11 10  2  0
 12 13  1  0
 13 14  1  0
 16 15  1  1
 15 14  1  0
 16 17  1  0
 17  7  1  0
 18 16  1  0
 19 18  2  0
 20 21  1  0
 22 21  1  1
 22 24  1  0
 22 23  1  0
 23 18  1  0
 24 25  1  0
 26 24  2  0
M  END
$$$$
