NRS.pdb
     RDKit          3D

 26 25  0  0  1  0  0  0  0  0999 V2000
   18.1011  -30.1286   -2.7142 N   0  0  0  0  0  0  0  0  0  0  0  0
   16.8326  -29.5012   -2.6633 C   0  0  0  0  0  0  0  0  0  0  0  0
   15.8472  -30.2867   -2.5159 O   0  0  0  0  0  0  0  0  0  0  0  0
   16.5690  -28.0671   -2.7640 C   0  0  0  0  0  0  0  0  0  0  0  0
   17.8373  -27.2982   -2.8765 C   0  0  2  0  0  0  0  0  0  0  0  0
   18.3826  -26.8744   -1.6196 N   0  0  0  0  0  0  0  0  0  0  0  0
   17.5381  -26.0730   -3.7059 C   0  0  0  0  0  0  0  0  0  0  0  0
   17.0750  -25.0329   -3.1768 O   0  0  0  0  0  0  0  0  0  0  0  0
   16.6898  -21.9935  -10.9322 N   0  0  0  0  0  0  0  0  0  0  0  0
   17.6388  -23.0789  -11.2048 C   0  0  0  0  0  0  0  0  0  0  0  0
   17.4194  -23.8772  -12.1563 N   0  0  0  0  0  0  0  0  0  0  0  0
   18.7863  -23.2158  -10.4046 N   0  0  0  0  0  0  0  0  0  0  0  0
   18.9647  -24.0845   -9.3040 C   0  0  0  0  0  0  0  0  0  0  0  0
   18.0557  -23.9465   -8.1242 C   0  0  0  0  0  0  0  0  0  0  0  0
   18.4034  -24.9988   -7.0932 C   0  0  0  0  0  0  0  0  0  0  0  0
   17.5153  -24.9220   -5.9044 C   0  0  2  0  0  0  0  0  0  0  0  0
   17.7779  -26.0878   -5.0866 N   0  0  0  0  0  0  0  0  0  0  0  0
   16.0603  -25.0390   -6.3289 C   0  0  0  0  0  0  0  0  0  0  0  0
   15.6252  -26.1435   -6.7437 O   0  0  0  0  0  0  0  0  0  0  0  0
   17.9858  -24.6009  -12.5183 O   0  0  0  0  0  0  0  0  0  0  0  0
   13.4389  -22.3614   -4.8682 C   0  0  0  0  0  0  0  0  0  0  0  0
   12.9792  -23.5529   -5.3881 C   0  0  1  0  0  0  0  0  0  0  0  0
   13.8171  -23.9698   -6.5761 N   0  0  0  0  0  0  0  0  0  0  0  0
   15.2370  -23.8981   -6.2440 C   0  0  0  0  0  0  0  0  0  0  0  0
   13.5387  -23.1503   -7.7704 O   0  0  0  0  0  0  0  0  0  0  0  0
   12.3168  -23.2571   -8.3975 O   0  0  0  0  0  0  0  0  0  0  0  0
  2  1  1  0
  3  2  2  0
  4  2  1  0
  5  4  1  0
  5  6  1  1
  7  5  1  0
  7  8  2  0
  9 10  1  0
 10 12  1  0
 11 10  2  0
 12 13  1  0
 13 14  1  0
 16 15  1  6
 15 14  1  0
 16 17  1  0
 17  7  1  0
 18 16  1  0
 19 18  2  0
 20 21  1  0
 22 21  1  1
 22 24  1  0
 22 23  1  0
 23 18  1  0
 24 25  1  0
 26 24  2  0
M  END
$$$$
