NRS.pdb
     RDKit          3D

 26 25  0  0  1  0  0  0  0  0999 V2000
   16.1293  -19.5958  -13.9213 N   0  0  0  0  0  0  0  0  0  0  0  0
   17.2354  -19.5989  -14.8056 C   0  0  0  0  0  0  0  0  0  0  0  0
   16.9801  -19.9804  -15.9884 O   0  0  0  0  0  0  0  0  0  0  0  0
   18.6070  -19.2120  -14.4811 C   0  0  0  0  0  0  0  0  0  0  0  0
   19.5811  -19.9136  -15.3593 C   0  0  2  0  0  0  0  0  0  0  0  0
   19.5927  -21.3394  -15.2049 N   0  0  0  0  0  0  0  0  0  0  0  0
   20.9507  -19.3834  -15.0107 C   0  0  0  0  0  0  0  0  0  0  0  0
   21.0937  -18.2342  -14.5260 O   0  0  0  0  0  0  0  0  0  0  0  0
   27.7931  -21.2637  -10.7574 N   0  0  0  0  0  0  0  0  0  0  0  0
   26.4992  -21.1322  -10.0779 C   0  0  0  0  0  0  0  0  0  0  0  0
   26.4374  -20.5594   -8.9559 N   0  0  0  0  0  0  0  0  0  0  0  0
   25.3397  -21.6426  -10.6868 N   0  0  0  0  0  0  0  0  0  0  0  0
   25.0523  -21.6993  -12.0697 C   0  0  0  0  0  0  0  0  0  0  0  0
   24.3939  -20.5221  -12.7162 C   0  0  0  0  0  0  0  0  0  0  0  0
   24.0911  -20.8450  -14.1637 C   0  0  0  0  0  0  0  0  0  0  0  0
   23.4042  -19.7194  -14.8487 C   0  0  2  0  0  0  0  0  0  0  0  0
   22.0843  -20.1785  -15.2277 N   0  0  0  0  0  0  0  0  0  0  0  0
   24.1127  -19.3888  -16.1525 C   0  0  0  0  0  0  0  0  0  0  0  0
   23.8048  -20.0153  -17.1984 O   0  0  0  0  0  0  0  0  0  0  0  0
   25.6619  -20.4133   -8.3621 O   0  0  0  0  0  0  0  0  0  0  0  0
   27.4426  -16.5462  -18.2647 C   0  0  0  0  0  0  0  0  0  0  0  0
   26.7343  -16.8560  -17.1230 C   0  0  1  0  0  0  0  0  0  0  0  0
   25.8308  -18.0440  -17.3673 N   0  0  0  0  0  0  0  0  0  0  0  0
   25.1000  -18.3829  -16.1497 C   0  0  0  0  0  0  0  0  0  0  0  0
   26.5759  -19.2218  -17.8501 O   0  0  0  0  0  0  0  0  0  0  0  0
   27.2573  -20.0102  -16.9491 O   0  0  0  0  0  0  0  0  0  0  0  0
  2  1  1  0
  3  2  2  0
  4  2  1  0
  5  4  1  0
  5  6  1  1
  7  5  1  0
  7  8  2  0
  9 10  1  0
 10 12  1  0
 11 10  2  0
 12 13  1  0
 13 14  1  0
 16 15  1  6
 15 14  1  0
 16 17  1  0
 17  7  1  0
 18 16  1  0
 19 18  2  0
 20 21  1  0
 22 21  1  6
 22 24  1  0
 22 23  1  0
 23 18  1  0
 24 25  1  0
 26 24  2  0
M  END
$$$$
