NRS.pdb
     RDKit          3D

 26 25  0  0  1  0  0  0  0  0999 V2000
   19.3410  -19.4285  -16.0052 N   0  0  0  0  0  0  0  0  0  0  0  0
   19.9521  -18.9160  -14.8351 C   0  0  0  0  0  0  0  0  0  0  0  0
   19.1622  -18.3603  -14.0123 O   0  0  0  0  0  0  0  0  0  0  0  0
   21.3747  -18.9702  -14.5041 C   0  0  0  0  0  0  0  0  0  0  0  0
   22.1449  -19.6624  -15.5718 C   0  0  2  0  0  0  0  0  0  0  0  0
   22.1894  -21.0894  -15.4350 N   0  0  0  0  0  0  0  0  0  0  0  0
   23.5568  -19.1317  -15.5118 C   0  0  0  0  0  0  0  0  0  0  0  0
   23.7903  -17.9040  -15.6305 O   0  0  0  0  0  0  0  0  0  0  0  0
   26.2390  -21.2610   -9.2010 N   0  0  0  0  0  0  0  0  0  0  0  0
   25.2694  -20.8497  -10.2226 C   0  0  0  0  0  0  0  0  0  0  0  0
   24.0340  -20.9353   -9.9828 N   0  0  0  0  0  0  0  0  0  0  0  0
   25.7273  -20.3597  -11.4579 N   0  0  0  0  0  0  0  0  0  0  0  0
   27.0615  -20.3220  -11.9232 C   0  0  0  0  0  0  0  0  0  0  0  0
   27.3536  -19.6243  -13.2136 C   0  0  0  0  0  0  0  0  0  0  0  0
   26.7547  -20.4112  -14.3597 C   0  0  0  0  0  0  0  0  0  0  0  0
   25.9950  -19.5382  -15.2917 C   0  0  2  0  0  0  0  0  0  0  0  0
   24.6281  -20.0149  -15.3209 N   0  0  0  0  0  0  0  0  0  0  0  0
   26.5173  -19.7054  -16.7096 C   0  0  0  0  0  0  0  0  0  0  0  0
   26.0197  -20.5914  -17.4502 O   0  0  0  0  0  0  0  0  0  0  0  0
   23.2613  -20.7189  -10.5587 O   0  0  0  0  0  0  0  0  0  0  0  0
   28.0530  -16.6686  -18.8883 C   0  0  0  0  0  0  0  0  0  0  0  0
   28.8919  -17.7629  -18.8734 C   0  0  2  0  0  0  0  0  0  0  0  0
   28.1280  -19.0095  -18.4866 N   0  0  0  0  0  0  0  0  0  0  0  0
   27.5506  -18.8562  -17.1544 C   0  0  0  0  0  0  0  0  0  0  0  0
   28.9723  -20.2180  -18.5320 O   0  0  0  0  0  0  0  0  0  0  0  0
   29.4976  -20.7236  -17.3632 O   0  0  0  0  0  0  0  0  0  0  0  0
  2  1  1  0
  3  2  2  0
  4  2  1  0
  5  4  1  0
  5  6  1  1
  7  5  1  0
  7  8  2  0
  9 10  1  0
 10 12  1  0
 11 10  2  0
 12 13  1  0
 13 14  1  0
 16 15  1  1
 15 14  1  0
 16 17  1  0
 17  7  1  0
 18 16  1  0
 19 18  2  0
 20 21  1  0
 22 21  1  6
 22 24  1  0
 22 23  1  0
 23 18  1  0
 24 25  1  0
 26 24  2  0
M  END
$$$$
