NRS.pdb
     RDKit          3D

 26 25  0  0  1  0  0  0  0  0999 V2000
   28.4061  -19.0328  -19.8631 N   0  0  0  0  0  0  0  0  0  0  0  0
   27.9642  -17.6971  -20.0241 C   0  0  0  0  0  0  0  0  0  0  0  0
   28.8778  -16.8521  -20.2712 O   0  0  0  0  0  0  0  0  0  0  0  0
   26.5850  -17.2221  -19.9317 C   0  0  0  0  0  0  0  0  0  0  0  0
   26.4906  -16.0256  -19.0532 C   0  0  2  0  0  0  0  0  0  0  0  0
   26.8613  -16.2660  -17.6888 N   0  0  0  0  0  0  0  0  0  0  0  0
   25.0526  -15.5676  -19.0849 C   0  0  0  0  0  0  0  0  0  0  0  0
   24.4841  -15.3008  -20.1718 O   0  0  0  0  0  0  0  0  0  0  0  0
   18.5187  -18.1742  -13.9380 N   0  0  0  0  0  0  0  0  0  0  0  0
   17.8985  -17.1478  -14.7834 C   0  0  0  0  0  0  0  0  0  0  0  0
   16.6539  -16.9528  -14.7191 N   0  0  0  0  0  0  0  0  0  0  0  0
   18.6987  -16.3882  -15.6542 N   0  0  0  0  0  0  0  0  0  0  0  0
   20.0860  -16.5296  -15.8856 C   0  0  0  0  0  0  0  0  0  0  0  0
   20.7512  -15.6053  -16.8553 C   0  0  0  0  0  0  0  0  0  0  0  0
   22.2185  -15.9604  -16.9659 C   0  0  0  0  0  0  0  0  0  0  0  0
   22.9391  -15.0489  -17.8921 C   0  0  2  0  0  0  0  0  0  0  0  0
   24.3344  -15.4359  -17.8886 N   0  0  0  0  0  0  0  0  0  0  0  0
   22.9075  -13.6262  -17.3571 C   0  0  0  0  0  0  0  0  0  0  0  0
   23.5895  -13.3332  -16.3421 O   0  0  0  0  0  0  0  0  0  0  0  0
   16.0859  -16.3205  -15.2220 O   0  0  0  0  0  0  0  0  0  0  0  0
   21.9208   -9.0416  -18.3576 C   0  0  0  0  0  0  0  0  0  0  0  0
   21.8744  -10.3597  -18.7598 C   0  0  2  0  0  0  0  0  0  0  0  0
   22.0791  -11.2807  -17.5779 N   0  0  0  0  0  0  0  0  0  0  0  0
   22.1094  -12.6719  -18.0197 C   0  0  0  0  0  0  0  0  0  0  0  0
   21.0399  -11.1041  -16.5462 O   0  0  0  0  0  0  0  0  0  0  0  0
   21.2470  -10.2082  -15.5204 O   0  0  0  0  0  0  0  0  0  0  0  0
  2  1  1  0
  3  2  2  0
  4  2  1  0
  5  4  1  0
  5  6  1  1
  7  5  1  0
  7  8  2  0
  9 10  1  0
 10 12  1  0
 11 10  2  0
 12 13  1  0
 13 14  1  0
 16 15  1  1
 15 14  1  0
 16 17  1  0
 17  7  1  0
 18 16  1  0
 19 18  2  0
 20 21  1  0
 22 21  1  6
 22 24  1  0
 22 23  1  0
 23 18  1  0
 24 25  1  0
 26 24  2  0
M  END
$$$$
