NRS.pdb
     RDKit          3D

 26 25  0  0  1  0  0  0  0  0999 V2000
   27.1708  -26.6021  -16.5762 N   0  0  0  0  0  0  0  0  0  0  0  0
   27.5451  -25.3325  -16.0732 C   0  0  0  0  0  0  0  0  0  0  0  0
   26.6823  -24.7690  -15.3331 O   0  0  0  0  0  0  0  0  0  0  0  0
   28.8043  -24.6351  -16.3273 C   0  0  0  0  0  0  0  0  0  0  0  0
   29.6561  -25.4008  -17.2763 C   0  0  2  0  0  0  0  0  0  0  0  0
   29.6046  -26.8229  -17.0982 N   0  0  0  0  0  0  0  0  0  0  0  0
   31.0781  -24.9427  -17.0607 C   0  0  0  0  0  0  0  0  0  0  0  0
   31.3796  -23.7254  -17.1173 O   0  0  0  0  0  0  0  0  0  0  0  0
   37.5522  -30.1794  -14.4780 N   0  0  0  0  0  0  0  0  0  0  0  0
   36.1203  -29.8783  -14.3679 C   0  0  0  0  0  0  0  0  0  0  0  0
   35.3341  -30.7428  -13.8931 N   0  0  0  0  0  0  0  0  0  0  0  0
   35.6391  -28.6266  -14.7891 N   0  0  0  0  0  0  0  0  0  0  0  0
   36.3744  -27.5903  -15.4085 C   0  0  0  0  0  0  0  0  0  0  0  0
   35.6560  -26.3433  -15.8159 C   0  0  0  0  0  0  0  0  0  0  0  0
   34.1975  -26.6604  -16.0680 C   0  0  0  0  0  0  0  0  0  0  0  0
   33.4478  -25.4694  -16.5449 C   0  0  2  0  0  0  0  0  0  0  0  0
   32.0824  -25.8829  -16.7929 N   0  0  0  0  0  0  0  0  0  0  0  0
   33.9886  -25.0143  -17.8909 C   0  0  0  0  0  0  0  0  0  0  0  0
   35.1748  -24.6052  -17.9731 O   0  0  0  0  0  0  0  0  0  0  0  0
   34.3469  -30.7549  -13.8691 O   0  0  0  0  0  0  0  0  0  0  0  0
   31.5510  -25.2438  -21.3670 C   0  0  0  0  0  0  0  0  0  0  0  0
   32.9059  -25.4970  -21.4032 C   0  0  1  0  0  0  0  0  0  0  0  0
   33.6224  -24.6943  -20.3404 N   0  0  0  0  0  0  0  0  0  0  0  0
   33.1383  -25.0653  -19.0139 C   0  0  0  0  0  0  0  0  0  0  0  0
   33.4713  -23.2411  -20.5419 O   0  0  0  0  0  0  0  0  0  0  0  0
   34.0535  -22.6434  -21.6380 O   0  0  0  0  0  0  0  0  0  0  0  0
  2  1  1  0
  3  2  2  0
  4  2  1  0
  5  4  1  0
  5  6  1  1
  7  5  1  0
  7  8  2  0
  9 10  1  0
 10 12  1  0
 11 10  2  0
 12 13  1  0
 13 14  1  0
 16 15  1  6
 15 14  1  0
 16 17  1  0
 17  7  1  0
 18 16  1  0
 19 18  2  0
 20 21  1  0
 22 21  1  1
 22 24  1  0
 22 23  1  0
 23 18  1  0
 24 25  1  0
 26 24  2  0
M  END
$$$$
