NRS.pdb
     RDKit          3D

 26 25  0  0  1  0  0  0  0  0999 V2000
   15.0034  -11.6264  -14.4906 N   0  0  0  0  0  0  0  0  0  0  0  0
   16.2493  -12.2979  -14.4470 C   0  0  0  0  0  0  0  0  0  0  0  0
   16.1854  -13.5389  -14.1908 O   0  0  0  0  0  0  0  0  0  0  0  0
   17.5654  -11.7004  -14.6649 C   0  0  0  0  0  0  0  0  0  0  0  0
   17.4486  -10.2490  -14.9685 C   0  0  2  0  0  0  0  0  0  0  0  0
   16.8898   -9.9600  -16.2573 N   0  0  0  0  0  0  0  0  0  0  0  0
   18.8427   -9.6729  -14.9113 C   0  0  0  0  0  0  0  0  0  0  0  0
   19.5447   -9.7835  -13.8765 O   0  0  0  0  0  0  0  0  0  0  0  0
   21.9407  -13.7269  -18.9336 N   0  0  0  0  0  0  0  0  0  0  0  0
   21.7102  -12.5581  -19.7900 C   0  0  0  0  0  0  0  0  0  0  0  0
   21.7693  -12.6801  -21.0440 N   0  0  0  0  0  0  0  0  0  0  0  0
   21.4210  -11.3135  -19.2040 N   0  0  0  0  0  0  0  0  0  0  0  0
   21.4783  -10.9786  -17.8320 C   0  0  0  0  0  0  0  0  0  0  0  0
   22.2333   -9.7544  -17.4215 C   0  0  0  0  0  0  0  0  0  0  0  0
   21.2845   -8.5772  -17.3482 C   0  0  0  0  0  0  0  0  0  0  0  0
   20.6960   -8.4257  -15.9923 C   0  0  2  0  0  0  0  0  0  0  0  0
   19.3688   -9.0038  -16.0248 N   0  0  0  0  0  0  0  0  0  0  0  0
   20.4935   -6.9537  -15.6704 C   0  0  0  0  0  0  0  0  0  0  0  0
   19.4655   -6.3654  -16.0924 O   0  0  0  0  0  0  0  0  0  0  0  0
   21.6771  -11.9968  -21.7512 O   0  0  0  0  0  0  0  0  0  0  0  0
   21.6627   -5.3854  -12.2676 C   0  0  0  0  0  0  0  0  0  0  0  0
   22.0814   -4.5623  -13.2916 C   0  0  2  0  0  0  0  0  0  0  0  0
   21.3267   -4.8757  -14.5641 N   0  0  0  0  0  0  0  0  0  0  0  0
   21.4709   -6.2884  -14.9031 C   0  0  0  0  0  0  0  0  0  0  0  0
   21.7695   -4.0399  -15.6959 O   0  0  0  0  0  0  0  0  0  0  0  0
   21.3829   -2.7192  -15.7566 O   0  0  0  0  0  0  0  0  0  0  0  0
  2  1  1  0
  3  2  2  0
  4  2  1  0
  5  4  1  0
  5  6  1  6
  7  5  1  0
  7  8  2  0
  9 10  1  0
 10 12  1  0
 11 10  2  0
 12 13  1  0
 13 14  1  0
 16 15  1  6
 15 14  1  0
 16 17  1  0
 17  7  1  0
 18 16  1  0
 19 18  2  0
 20 21  1  0
 22 21  1  1
 22 24  1  0
 22 23  1  0
 23 18  1  0
 24 25  1  0
 26 24  2  0
M  END
$$$$
