NRS.pdb
     RDKit          3D

 26 25  0  0  1  0  0  0  0  0999 V2000
   28.8948  -20.6288  -16.8578 N   0  0  0  0  0  0  0  0  0  0  0  0
   28.4621  -21.8496  -16.2855 C   0  0  0  0  0  0  0  0  0  0  0  0
   29.2822  -22.8127  -16.3837 O   0  0  0  0  0  0  0  0  0  0  0  0
   27.1873  -22.0885  -15.6114 C   0  0  0  0  0  0  0  0  0  0  0  0
   26.4133  -20.8261  -15.4711 C   0  0  2  0  0  0  0  0  0  0  0  0
   27.0439  -19.8373  -14.6456 N   0  0  0  0  0  0  0  0  0  0  0  0
   25.0852  -21.1896  -14.8525 C   0  0  0  0  0  0  0  0  0  0  0  0
   24.3542  -22.0718  -15.3656 O   0  0  0  0  0  0  0  0  0  0  0  0
   20.6401  -22.8964   -7.0776 N   0  0  0  0  0  0  0  0  0  0  0  0
   20.7822  -21.8743   -8.1207 C   0  0  0  0  0  0  0  0  0  0  0  0
   19.7536  -21.3967   -8.6727 N   0  0  0  0  0  0  0  0  0  0  0  0
   22.0645  -21.4339   -8.4918 N   0  0  0  0  0  0  0  0  0  0  0  0
   22.3864  -20.4313   -9.4347 C   0  0  0  0  0  0  0  0  0  0  0  0
   22.1973  -20.7246  -10.8892 C   0  0  0  0  0  0  0  0  0  0  0  0
   23.5158  -20.5567  -11.6135 C   0  0  0  0  0  0  0  0  0  0  0  0
   23.3984  -20.8860  -13.0577 C   0  0  2  0  0  0  0  0  0  0  0  0
   24.6543  -20.5381  -13.6889 N   0  0  0  0  0  0  0  0  0  0  0  0
   22.3514  -20.0003  -13.7137 C   0  0  0  0  0  0  0  0  0  0  0  0
   22.5058  -18.7525  -13.7058 O   0  0  0  0  0  0  0  0  0  0  0  0
   19.6765  -20.7585   -9.4225 O   0  0  0  0  0  0  0  0  0  0  0  0
   19.4314  -21.8183  -16.0116 C   0  0  0  0  0  0  0  0  0  0  0  0
   19.7971  -20.5174  -16.2862 C   0  0  1  0  0  0  0  0  0  0  0  0
   20.2320  -19.8121  -15.0211 N   0  0  0  0  0  0  0  0  0  0  0  0
   21.2315  -20.6088  -14.3155 C   0  0  0  0  0  0  0  0  0  0  0  0
   19.0967  -19.5226  -14.1251 O   0  0  0  0  0  0  0  0  0  0  0  0
   18.1101  -18.6545  -14.5381 O   0  0  0  0  0  0  0  0  0  0  0  0
  2  1  1  0
  3  2  2  0
  4  2  1  0
  5  4  1  0
  5  6  1  1
  7  5  1  0
  7  8  2  0
  9 10  1  0
 10 12  1  0
 11 10  2  0
 12 13  1  0
 13 14  1  0
 16 15  1  1
 15 14  1  0
 16 17  1  0
 17  7  1  0
 18 16  1  0
 19 18  2  0
 20 21  1  0
 22 21  1  6
 22 24  1  0
 22 23  1  0
 23 18  1  0
 24 25  1  0
 26 24  2  0
M  END
$$$$
