NRS.pdb
     RDKit          3D

 26 25  0  0  1  0  0  0  0  0999 V2000
   19.3287  -16.3196  -17.3381 N   0  0  0  0  0  0  0  0  0  0  0  0
   19.7329  -14.9796  -17.5527 C   0  0  0  0  0  0  0  0  0  0  0  0
   20.9841  -14.8054  -17.6716 O   0  0  0  0  0  0  0  0  0  0  0  0
   18.8571  -13.8131  -17.6456 C   0  0  0  0  0  0  0  0  0  0  0  0
   19.3285  -12.7197  -16.7542 C   0  0  2  0  0  0  0  0  0  0  0  0
   19.5112  -13.1120  -15.3869 N   0  0  0  0  0  0  0  0  0  0  0  0
   18.2857  -11.6295  -16.8040 C   0  0  0  0  0  0  0  0  0  0  0  0
   17.9121  -11.1434  -17.8995 O   0  0  0  0  0  0  0  0  0  0  0  0
   10.9045  -11.8079  -12.4535 N   0  0  0  0  0  0  0  0  0  0  0  0
   10.9921  -10.3832  -12.7935 C   0  0  0  0  0  0  0  0  0  0  0  0
   10.0338   -9.6130  -12.5118 N   0  0  0  0  0  0  0  0  0  0  0  0
   12.1461   -9.8896  -13.4263 N   0  0  0  0  0  0  0  0  0  0  0  0
   13.2732  -10.6293  -13.8508 C   0  0  0  0  0  0  0  0  0  0  0  0
   14.3680   -9.9169  -14.5798 C   0  0  0  0  0  0  0  0  0  0  0  0
   15.4773  -10.8942  -14.9046 C   0  0  0  0  0  0  0  0  0  0  0  0
   16.5927  -10.2402  -15.6368 C   0  0  2  0  0  0  0  0  0  0  0  0
   17.7210  -11.1474  -15.6153 N   0  0  0  0  0  0  0  0  0  0  0  0
   17.0520   -8.9978  -14.8908 C   0  0  0  0  0  0  0  0  0  0  0  0
   17.5081   -9.1114  -13.7246 O   0  0  0  0  0  0  0  0  0  0  0  0
    9.9455   -8.6383  -12.6448 O   0  0  0  0  0  0  0  0  0  0  0  0
   17.7536   -5.5420  -17.0105 C   0  0  0  0  0  0  0  0  0  0  0  0
   18.3427   -5.7588  -15.7827 C   0  0  1  0  0  0  0  0  0  0  0  0
   17.4070   -6.5259  -14.8755 N   0  0  0  0  0  0  0  0  0  0  0  0
   16.9524   -7.7473  -15.5335 C   0  0  0  0  0  0  0  0  0  0  0  0
   16.2456   -5.7176  -14.4594 O   0  0  0  0  0  0  0  0  0  0  0  0
   16.4403   -4.6051  -13.6706 O   0  0  0  0  0  0  0  0  0  0  0  0
  2  1  1  0
  3  2  2  0
  4  2  1  0
  5  4  1  0
  5  6  1  1
  7  5  1  0
  7  8  2  0
  9 10  1  0
 10 12  1  0
 11 10  2  0
 12 13  1  0
 13 14  1  0
 16 15  1  1
 15 14  1  0
 16 17  1  0
 17  7  1  0
 18 16  1  0
 19 18  2  0
 20 21  1  0
 22 21  1  1
 22 24  1  0
 22 23  1  0
 23 18  1  0
 24 25  1  0
 26 24  2  0
M  END
$$$$
