NRS.pdb
     RDKit          3D

 26 25  0  0  1  0  0  0  0  0999 V2000
   16.6494  -13.0523  -16.0909 N   0  0  0  0  0  0  0  0  0  0  0  0
   17.5786  -13.0308  -15.0226 C   0  0  0  0  0  0  0  0  0  0  0  0
   17.4561  -13.9726  -14.1812 O   0  0  0  0  0  0  0  0  0  0  0  0
   18.6362  -12.0441  -14.8119 C   0  0  0  0  0  0  0  0  0  0  0  0
   18.5843  -10.9772  -15.8470 C   0  0  2  0  0  0  0  0  0  0  0  0
   19.0214  -11.3963  -17.1471 N   0  0  0  0  0  0  0  0  0  0  0  0
   19.4853   -9.8615  -15.3758 C   0  0  0  0  0  0  0  0  0  0  0  0
   19.2991   -9.3071  -14.2650 O   0  0  0  0  0  0  0  0  0  0  0  0
   26.9574   -7.0250  -19.2760 N   0  0  0  0  0  0  0  0  0  0  0  0
   26.8216   -6.1629  -18.0965 C   0  0  0  0  0  0  0  0  0  0  0  0
   27.6419   -5.2228  -17.9111 N   0  0  0  0  0  0  0  0  0  0  0  0
   25.7750   -6.3906  -17.1862 N   0  0  0  0  0  0  0  0  0  0  0  0
   24.7747   -7.3863  -17.2625 C   0  0  0  0  0  0  0  0  0  0  0  0
   23.6130   -7.3120  -16.3232 C   0  0  0  0  0  0  0  0  0  0  0  0
   22.6614   -8.4548  -16.6057 C   0  0  0  0  0  0  0  0  0  0  0  0
   21.4584   -8.3999  -15.7353 C   0  0  2  0  0  0  0  0  0  0  0  0
   20.5472   -9.4322  -16.1834 N   0  0  0  0  0  0  0  0  0  0  0  0
   20.7219   -7.0861  -15.9417 C   0  0  0  0  0  0  0  0  0  0  0  0
   20.2875   -6.7950  -17.0853 O   0  0  0  0  0  0  0  0  0  0  0  0
   27.7072   -4.5780  -17.1660 O   0  0  0  0  0  0  0  0  0  0  0  0
   17.7925   -5.8522  -14.3601 C   0  0  0  0  0  0  0  0  0  0  0  0
   18.6886   -4.8433  -14.0764 C   0  0  2  0  0  0  0  0  0  0  0  0
   19.8912   -4.9323  -14.9890 N   0  0  0  0  0  0  0  0  0  0  0  0
   20.5467   -6.2280  -14.8373 C   0  0  0  0  0  0  0  0  0  0  0  0
   20.8600   -3.8476  -14.7430 O   0  0  0  0  0  0  0  0  0  0  0  0
   20.4484   -2.5362  -14.8345 O   0  0  0  0  0  0  0  0  0  0  0  0
  2  1  1  0
  3  2  2  0
  4  2  1  0
  5  4  1  0
  5  6  1  6
  7  5  1  0
  7  8  2  0
  9 10  1  0
 10 12  1  0
 11 10  2  0
 12 13  1  0
 13 14  1  0
 16 15  1  6
 15 14  1  0
 16 17  1  0
 17  7  1  0
 18 16  1  0
 19 18  2  0
 20 21  1  0
 22 21  1  6
 22 24  1  0
 22 23  1  0
 23 18  1  0
 24 25  1  0
 26 24  2  0
M  END
$$$$
