NRS.pdb
     RDKit          3D

 26 25  0  0  1  0  0  0  0  0999 V2000
   19.9518  -12.8305  -17.6375 N   0  0  0  0  0  0  0  0  0  0  0  0
   18.7047  -13.0950  -17.0213 C   0  0  0  0  0  0  0  0  0  0  0  0
   18.1421  -14.1736  -17.3817 O   0  0  0  0  0  0  0  0  0  0  0  0
   18.0289  -12.2551  -16.0341 C   0  0  0  0  0  0  0  0  0  0  0  0
   18.8161  -11.0251  -15.7518 C   0  0  2  0  0  0  0  0  0  0  0  0
   19.7533  -11.1599  -14.6746 N   0  0  0  0  0  0  0  0  0  0  0  0
   17.8280   -9.9416  -15.3937 C   0  0  0  0  0  0  0  0  0  0  0  0
   16.9878   -9.5319  -16.2315 O   0  0  0  0  0  0  0  0  0  0  0  0
   14.9873   -6.8525   -7.2241 N   0  0  0  0  0  0  0  0  0  0  0  0
   13.9965   -7.0944   -8.2789 C   0  0  0  0  0  0  0  0  0  0  0  0
   12.8061   -7.3718   -7.9673 N   0  0  0  0  0  0  0  0  0  0  0  0
   14.3829   -7.0101   -9.6278 N   0  0  0  0  0  0  0  0  0  0  0  0
   15.2892   -7.8506  -10.3134 C   0  0  0  0  0  0  0  0  0  0  0  0
   15.5872   -7.5657  -11.7512 C   0  0  0  0  0  0  0  0  0  0  0  0
   16.5634   -8.5957  -12.2781 C   0  0  0  0  0  0  0  0  0  0  0  0
   16.8650   -8.3851  -13.7178 C   0  0  2  0  0  0  0  0  0  0  0  0
   17.8416   -9.3797  -14.1098 N   0  0  0  0  0  0  0  0  0  0  0  0
   17.5460   -7.0410  -13.9193 C   0  0  0  0  0  0  0  0  0  0  0  0
   18.6796   -6.8414  -13.4133 O   0  0  0  0  0  0  0  0  0  0  0  0
   12.0081   -7.4687   -8.5410 O   0  0  0  0  0  0  0  0  0  0  0  0
   17.6740   -5.2633  -17.2474 C   0  0  0  0  0  0  0  0  0  0  0  0
   17.2277   -4.3158  -16.3504 C   0  0  2  0  0  0  0  0  0  0  0  0
   17.5065   -4.7583  -14.9314 N   0  0  0  0  0  0  0  0  0  0  0  0
   16.8817   -6.0523  -14.6728 C   0  0  0  0  0  0  0  0  0  0  0  0
   17.0454   -3.7705  -13.9380 O   0  0  0  0  0  0  0  0  0  0  0  0
   17.5644   -2.4946  -13.9577 O   0  0  0  0  0  0  0  0  0  0  0  0
  2  1  1  0
  3  2  2  0
  4  2  1  0
  5  4  1  0
  5  6  1  1
  7  5  1  0
  7  8  2  0
  9 10  1  0
 10 12  1  0
 11 10  2  0
 12 13  1  0
 13 14  1  0
 16 15  1  1
 15 14  1  0
 16 17  1  0
 17  7  1  0
 18 16  1  0
 19 18  2  0
 20 21  1  0
 22 21  1  6
 22 24  1  0
 22 23  1  0
 23 18  1  0
 24 25  1  0
 26 24  2  0
M  END
$$$$
