NRS.pdb
     RDKit          3D

 26 25  0  0  1  0  0  0  0  0999 V2000
   27.3595  -13.1665  -15.7239 N   0  0  0  0  0  0  0  0  0  0  0  0
   27.6076  -11.8309  -16.1237 C   0  0  0  0  0  0  0  0  0  0  0  0
   28.8319  -11.5029  -16.1810 O   0  0  0  0  0  0  0  0  0  0  0  0
   26.6024  -10.8263  -16.4654 C   0  0  0  0  0  0  0  0  0  0  0  0
   25.2287  -11.3415  -16.2208 C   0  0  2  0  0  0  0  0  0  0  0  0
   24.8908  -12.5053  -16.9879 N   0  0  0  0  0  0  0  0  0  0  0  0
   24.2707  -10.2334  -16.5853 C   0  0  0  0  0  0  0  0  0  0  0  0
   24.1313   -9.8671  -17.7779 O   0  0  0  0  0  0  0  0  0  0  0  0
   16.7596  -12.0508  -14.6778 N   0  0  0  0  0  0  0  0  0  0  0  0
   17.4785  -12.5672  -15.8481 C   0  0  0  0  0  0  0  0  0  0  0  0
   16.9927  -13.5264  -16.5074 N   0  0  0  0  0  0  0  0  0  0  0  0
   18.7004  -11.9841  -16.2258 N   0  0  0  0  0  0  0  0  0  0  0  0
   19.3731  -10.9162  -15.5894 C   0  0  0  0  0  0  0  0  0  0  0  0
   20.6161  -10.3722  -16.2189 C   0  0  0  0  0  0  0  0  0  0  0  0
   21.1892   -9.2793  -15.3423 C   0  0  0  0  0  0  0  0  0  0  0  0
   22.4330   -8.7050  -15.9177 C   0  0  2  0  0  0  0  0  0  0  0  0
   23.5221   -9.5991  -15.5845 N   0  0  0  0  0  0  0  0  0  0  0  0
   22.7640   -7.3857  -15.2386 C   0  0  0  0  0  0  0  0  0  0  0  0
   23.2772   -7.3941  -14.0907 O   0  0  0  0  0  0  0  0  0  0  0  0
   17.3462  -13.9888  -17.3054 O   0  0  0  0  0  0  0  0  0  0  0  0
   22.9781   -2.5698  -15.8016 C   0  0  0  0  0  0  0  0  0  0  0  0
   22.5958   -3.7833  -16.3334 C   0  0  2  0  0  0  0  0  0  0  0  0
   22.7954   -4.8901  -15.3223 N   0  0  0  0  0  0  0  0  0  0  0  0
   22.4839   -6.1847  -15.9210 C   0  0  0  0  0  0  0  0  0  0  0  0
   21.9825   -4.6899  -14.1079 O   0  0  0  0  0  0  0  0  0  0  0  0
   22.5568   -4.1204  -12.9928 O   0  0  0  0  0  0  0  0  0  0  0  0
  2  1  1  0
  3  2  2  0
  4  2  1  0
  5  4  1  0
  5  6  1  6
  7  5  1  0
  7  8  2  0
  9 10  1  0
 10 12  1  0
 11 10  2  0
 12 13  1  0
 13 14  1  0
 16 15  1  1
 15 14  1  0
 16 17  1  0
 17  7  1  0
 18 16  1  0
 19 18  2  0
 20 21  1  0
 22 21  1  6
 22 24  1  0
 22 23  1  0
 23 18  1  0
 24 25  1  0
 26 24  2  0
M  END
$$$$
