NRS.pdb
     RDKit          3D

 26 25  0  0  1  0  0  0  0  0999 V2000
   26.2628  -33.5283  -18.4829 N   0  0  0  0  0  0  0  0  0  0  0  0
   25.9330  -33.8015  -17.1331 C   0  0  0  0  0  0  0  0  0  0  0  0
   24.9684  -34.6085  -16.9656 O   0  0  0  0  0  0  0  0  0  0  0  0
   26.5897  -33.2485  -15.9502 C   0  0  0  0  0  0  0  0  0  0  0  0
   27.6719  -32.3030  -16.3338 C   0  0  2  0  0  0  0  0  0  0  0  0
   28.8786  -32.4490  -15.5726 N   0  0  0  0  0  0  0  0  0  0  0  0
   27.1359  -30.9084  -16.1183 C   0  0  0  0  0  0  0  0  0  0  0  0
   26.9329  -30.4668  -14.9609 O   0  0  0  0  0  0  0  0  0  0  0  0
   30.2120  -24.4139  -15.9546 N   0  0  0  0  0  0  0  0  0  0  0  0
   31.1484  -25.5036  -16.2523 C   0  0  0  0  0  0  0  0  0  0  0  0
   32.2125  -25.6137  -15.5841 N   0  0  0  0  0  0  0  0  0  0  0  0
   30.8480  -26.4174  -17.2772 N   0  0  0  0  0  0  0  0  0  0  0  0
   29.5730  -26.7250  -17.8041 C   0  0  0  0  0  0  0  0  0  0  0  0
   28.6506  -27.5845  -16.9992 C   0  0  0  0  0  0  0  0  0  0  0  0
   27.3902  -27.8538  -17.7932 C   0  0  0  0  0  0  0  0  0  0  0  0
   26.4383  -28.7138  -17.0434 C   0  0  2  0  0  0  0  0  0  0  0  0
   26.8584  -30.0882  -17.2203 N   0  0  0  0  0  0  0  0  0  0  0  0
   25.0529  -28.6261  -17.6632 C   0  0  0  0  0  0  0  0  0  0  0  0
   24.9001  -28.9179  -18.8767 O   0  0  0  0  0  0  0  0  0  0  0  0
   32.9772  -26.2262  -15.7087 O   0  0  0  0  0  0  0  0  0  0  0  0
   21.9407  -26.8501  -15.4985 C   0  0  0  0  0  0  0  0  0  0  0  0
   21.6188  -27.9356  -16.2856 C   0  0  1  0  0  0  0  0  0  0  0  0
   22.6265  -28.0968  -17.4017 N   0  0  0  0  0  0  0  0  0  0  0  0
   23.9741  -28.2178  -16.8532 C   0  0  0  0  0  0  0  0  0  0  0  0
   22.5749  -26.9815  -18.3655 O   0  0  0  0  0  0  0  0  0  0  0  0
   21.5414  -26.9165  -19.2740 O   0  0  0  0  0  0  0  0  0  0  0  0
  2  1  1  0
  3  2  2  0
  4  2  1  0
  5  4  1  0
  5  6  1  1
  7  5  1  0
  7  8  2  0
  9 10  1  0
 10 12  1  0
 11 10  2  0
 12 13  1  0
 13 14  1  0
 16 15  1  6
 15 14  1  0
 16 17  1  0
 17  7  1  0
 18 16  1  0
 19 18  2  0
 20 21  1  0
 22 21  1  1
 22 24  1  0
 22 23  1  0
 23 18  1  0
 24 25  1  0
 26 24  2  0
M  END
$$$$
