MWY.pdb
     RDKit          3D

 35 37  0  0  1  0  0  0  0  0999 V2000
    8.3645  -22.5368   22.1000 C   0  0  0  0  0  0  0  0  0  0  0  0
    9.9383  -21.9720   21.3610 S   0  0  0  0  0  0  0  0  0  0  0  0
    9.5551  -20.6246   20.2150 C   0  0  0  0  0  0  0  0  0  0  0  0
    8.5621  -19.7225   20.9281 C   0  0  0  0  0  0  0  0  0  0  0  0
    8.1737  -18.5645   20.0114 C   0  0  2  0  0  0  0  0  0  0  0  0
    8.7362  -18.8136   18.6727 N   0  0  0  0  0  0  0  0  0  0  0  0
    8.8576  -17.3618   20.5484 C   0  0  0  0  0  0  0  0  0  0  0  0
    9.9583  -17.0163   20.0558 O   0  0  0  0  0  0  0  0  0  0  0  0
    8.2917  -16.6018   21.5931 N   0  0  0  0  0  0  0  0  0  0  0  0
    9.0933  -15.3657   21.9658 C   0  0  1  0  0  0  0  0  0  0  0  0
    8.0335  -14.3495   22.1675 C   0  0  0  0  0  0  0  0  0  0  0  0
    7.3965  -14.4282   23.4809 C   0  0  0  0  0  0  0  0  0  0  0  0
    6.8924  -15.5499   24.1203 C   0  0  0  0  0  0  0  0  0  0  0  0
    6.4774  -15.1710   25.3172 N   0  0  0  0  0  0  0  0  0  0  0  0
    6.6879  -13.8542   25.4888 C   0  0  0  0  0  0  0  0  0  0  0  0
    6.4619  -12.9816   26.5382 C   0  0  0  0  0  0  0  0  0  0  0  0
    6.8250  -11.6610   26.3962 C   0  0  0  0  0  0  0  0  0  0  0  0
    7.4136  -11.1574   25.2361 C   0  0  0  0  0  0  0  0  0  0  0  0
    7.6300  -12.0389   24.2036 C   0  0  0  0  0  0  0  0  0  0  0  0
    7.2670  -13.3566   24.3474 C   0  0  0  0  0  0  0  0  0  0  0  0
    9.8543  -15.7324   23.1367 C   0  0  0  0  0  0  0  0  0  0  0  0
    9.4408  -16.8358   23.7280 O   0  0  0  0  0  0  0  0  0  0  0  0
    9.8613  -14.4673   30.4621 O   0  0  0  0  0  0  0  0  0  0  0  0
   10.1716  -15.0483   29.2462 C   0  0  0  0  0  0  0  0  0  0  0  0
    9.4418  -14.6890   28.1370 C   0  0  0  0  0  0  0  0  0  0  0  0
    9.7278  -15.2519   26.9137 C   0  0  0  0  0  0  0  0  0  0  0  0
   10.7327  -16.1809   26.7378 C   0  0  0  0  0  0  0  0  0  0  0  0
   10.9936  -16.7352   25.4134 C   0  0  0  0  0  0  0  0  0  0  0  0
   11.8721  -15.8639   24.5692 C   0  0  2  0  0  0  0  0  0  0  0  0
   10.9312  -15.1019   23.7121 N   0  0  0  0  0  0  0  0  0  0  0  0
   12.8072  -16.6416   23.7355 C   0  0  0  0  0  0  0  0  0  0  0  0
   12.7896  -16.7980   22.3787 O   0  0  0  0  0  0  0  0  0  0  0  0
   11.4604  -16.5382   27.8489 C   0  0  0  0  0  0  0  0  0  0  0  0
   11.1826  -15.9778   29.0834 C   0  0  0  0  0  0  0  0  0  0  0  0
   13.7625  -17.2571   24.3485 O   0  0  0  0  0  0  0  0  0  0  0  0
  2  1  1  0
  3  2  1  0
  4  3  1  0
  5  4  1  0
  5  6  1  6
  7  8  2  0
  7  5  1  0
  9  7  1  0
 10  9  1  0
 10 21  1  0
 10 11  1  1
 12 11  1  0
 13 12  2  0
 14 15  1  0
 14 13  1  0
 15 20  2  0
 16 17  2  0
 16 15  1  0
 17 18  1  0
 18 19  2  0
 20 19  1  0
 20 12  1  0
 21 30  1  0
 22 21  2  0
 23 24  1  0
 24 25  2  0
 24 34  1  0
 25 26  1  0
 26 27  2  0
 27 28  1  0
 29 28  1  1
 29 31  1  0
 30 29  1  0
 31 35  2  0
 31 32  1  0
 33 27  1  0
 34 33  2  0
M  END
$$$$
