MWY.pdb
     RDKit          3D

 35 37  0  0  1  0  0  0  0  0999 V2000
    8.3622  -11.7567   18.5168 C   0  0  0  0  0  0  0  0  0  0  0  0
    7.5220  -13.0774   17.5724 S   0  0  0  0  0  0  0  0  0  0  0  0
    7.9639  -14.6608   18.3297 C   0  0  0  0  0  0  0  0  0  0  0  0
    9.4693  -14.6348   18.5339 C   0  0  0  0  0  0  0  0  0  0  0  0
    9.9140  -15.9232   19.2227 C   0  0  2  0  0  0  0  0  0  0  0  0
    8.9259  -16.9773   18.9345 N   0  0  0  0  0  0  0  0  0  0  0  0
    9.8478  -15.6587   20.6815 C   0  0  0  0  0  0  0  0  0  0  0  0
   10.6569  -14.8463   21.1905 O   0  0  0  0  0  0  0  0  0  0  0  0
    8.8928  -16.2971   21.4998 N   0  0  0  0  0  0  0  0  0  0  0  0
    8.8369  -15.7625   22.9212 C   0  0  1  0  0  0  0  0  0  0  0  0
    7.4517  -16.0944   23.3305 C   0  0  0  0  0  0  0  0  0  0  0  0
    7.0896  -15.5581   24.6413 C   0  0  0  0  0  0  0  0  0  0  0  0
    6.8377  -16.2578   25.8110 C   0  0  0  0  0  0  0  0  0  0  0  0
    6.6221  -15.3690   26.7660 N   0  0  0  0  0  0  0  0  0  0  0  0
    6.7223  -14.1218   26.2739 C   0  0  0  0  0  0  0  0  0  0  0  0
    6.6109  -12.8631   26.8371 C   0  0  0  0  0  0  0  0  0  0  0  0
    6.7996  -11.7572   26.0387 C   0  0  0  0  0  0  0  0  0  0  0  0
    7.0992  -11.8462   24.6792 C   0  0  0  0  0  0  0  0  0  0  0  0
    7.2051  -13.1050   24.1367 C   0  0  0  0  0  0  0  0  0  0  0  0
    7.0167  -14.2074   24.9354 C   0  0  0  0  0  0  0  0  0  0  0  0
    9.8915  -16.4424   23.6355 C   0  0  0  0  0  0  0  0  0  0  0  0
   10.2710  -17.5799   23.0878 O   0  0  0  0  0  0  0  0  0  0  0  0
    9.6023  -14.9719   30.9604 O   0  0  0  0  0  0  0  0  0  0  0  0
   10.3120  -15.2303   29.8020 C   0  0  0  0  0  0  0  0  0  0  0  0
   10.3015  -14.2907   28.7974 C   0  0  0  0  0  0  0  0  0  0  0  0
   10.9981  -14.5216   27.6327 C   0  0  0  0  0  0  0  0  0  0  0  0
   11.7240  -15.6746   27.4148 C   0  0  0  0  0  0  0  0  0  0  0  0
   12.4493  -15.8572   26.1619 C   0  0  0  0  0  0  0  0  0  0  0  0
   11.7681  -16.7966   25.2147 C   0  0  2  0  0  0  0  0  0  0  0  0
   10.5438  -16.0758   24.7882 N   0  0  0  0  0  0  0  0  0  0  0  0
   11.4113  -18.0793   25.8484 C   0  0  0  0  0  0  0  0  0  0  0  0
   10.1622  -18.5702   26.1025 O   0  0  0  0  0  0  0  0  0  0  0  0
   11.7322  -16.6121   28.4211 C   0  0  0  0  0  0  0  0  0  0  0  0
   11.0365  -16.3902   29.5968 C   0  0  0  0  0  0  0  0  0  0  0  0
   12.3875  -18.8407   26.2155 O   0  0  0  0  0  0  0  0  0  0  0  0
  2  1  1  0
  3  2  1  0
  4  3  1  0
  5  4  1  0
  5  6  1  1
  7  8  2  0
  7  5  1  0
  9  7  1  0
 10  9  1  0
 10 21  1  0
 10 11  1  1
 12 11  1  0
 13 12  2  0
 14 15  1  0
 14 13  1  0
 15 20  2  0
 16 17  2  0
 16 15  1  0
 17 18  1  0
 18 19  2  0
 20 19  1  0
 20 12  1  0
 21 30  1  0
 22 21  2  0
 23 24  1  0
 24 25  2  0
 24 34  1  0
 25 26  1  0
 26 27  2  0
 27 28  1  0
 29 28  1  1
 29 31  1  0
 30 29  1  0
 31 35  2  0
 31 32  1  0
 33 27  1  0
 34 33  2  0
M  END
$$$$
