MWY.pdb
     RDKit          3D

 35 37  0  0  1  0  0  0  0  0999 V2000
    8.7227  -11.9051   18.5557 C   0  0  0  0  0  0  0  0  0  0  0  0
    7.9116  -13.2484   17.6178 S   0  0  0  0  0  0  0  0  0  0  0  0
    8.7162  -14.8031   18.0774 C   0  0  0  0  0  0  0  0  0  0  0  0
    9.6822  -14.4716   19.2023 C   0  0  0  0  0  0  0  0  0  0  0  0
   10.2223  -15.7643   19.8099 C   0  0  2  0  0  0  0  0  0  0  0  0
    9.3671  -16.8827   19.3758 N   0  0  0  0  0  0  0  0  0  0  0  0
   10.0509  -15.6366   21.2785 C   0  0  0  0  0  0  0  0  0  0  0  0
   10.8255  -14.8861   21.9191 O   0  0  0  0  0  0  0  0  0  0  0  0
    9.0343  -16.3361   21.9616 N   0  0  0  0  0  0  0  0  0  0  0  0
    8.8554  -15.9128   23.4101 C   0  0  1  0  0  0  0  0  0  0  0  0
    7.4291  -15.5119   23.4494 C   0  0  0  0  0  0  0  0  0  0  0  0
    6.9639  -15.1527   24.7879 C   0  0  0  0  0  0  0  0  0  0  0  0
    6.4464  -15.9880   25.7654 C   0  0  0  0  0  0  0  0  0  0  0  0
    6.2273  -15.2511   26.8413 N   0  0  0  0  0  0  0  0  0  0  0  0
    6.5786  -13.9738   26.6113 C   0  0  0  0  0  0  0  0  0  0  0  0
    6.5723  -12.8289   27.3878 C   0  0  0  0  0  0  0  0  0  0  0  0
    7.0337  -11.6517   26.8425 C   0  0  0  0  0  0  0  0  0  0  0  0
    7.5102  -11.5578   25.5348 C   0  0  0  0  0  0  0  0  0  0  0  0
    7.5083  -12.7054   24.7778 C   0  0  0  0  0  0  0  0  0  0  0  0
    7.0475  -13.8793   25.3241 C   0  0  0  0  0  0  0  0  0  0  0  0
    9.2141  -17.0663   24.2009 C   0  0  0  0  0  0  0  0  0  0  0  0
    9.4085  -18.1652   23.4990 O   0  0  0  0  0  0  0  0  0  0  0  0
   14.9775  -19.7336   21.8876 O   0  0  0  0  0  0  0  0  0  0  0  0
   14.2114  -19.0747   22.8317 C   0  0  0  0  0  0  0  0  0  0  0  0
   13.0997  -18.3810   22.4130 C   0  0  0  0  0  0  0  0  0  0  0  0
   12.3190  -17.7150   23.3306 C   0  0  0  0  0  0  0  0  0  0  0  0
   12.6003  -17.7062   24.6814 C   0  0  0  0  0  0  0  0  0  0  0  0
   11.7289  -16.9884   25.6059 C   0  0  0  0  0  0  0  0  0  0  0  0
   10.5932  -17.8209   26.1165 C   0  0  2  0  0  0  0  0  0  0  0  0
    9.3777  -17.1772   25.5608 N   0  0  0  0  0  0  0  0  0  0  0  0
   10.5289  -17.8481   27.5894 C   0  0  0  0  0  0  0  0  0  0  0  0
   11.2558  -18.6248   28.4462 O   0  0  0  0  0  0  0  0  0  0  0  0
   13.7126  -18.4005   25.0966 C   0  0  0  0  0  0  0  0  0  0  0  0
   14.5041  -19.0749   24.1833 C   0  0  0  0  0  0  0  0  0  0  0  0
    9.6861  -17.0477   28.1519 O   0  0  0  0  0  0  0  0  0  0  0  0
  2  1  1  0
  3  2  1  0
  4  3  1  0
  5  4  1  0
  5  6  1  6
  7  8  2  0
  7  5  1  0
  9  7  1  0
 10  9  1  0
 10 21  1  0
 10 11  1  6
 12 11  1  0
 13 12  2  0
 14 15  1  0
 14 13  1  0
 15 20  2  0
 16 17  2  0
 16 15  1  0
 17 18  1  0
 18 19  2  0
 20 19  1  0
 20 12  1  0
 21 30  1  0
 22 21  2  0
 23 24  1  0
 24 25  2  0
 24 34  1  0
 25 26  1  0
 26 27  2  0
 27 28  1  0
 29 28  1  1
 29 31  1  0
 30 29  1  0
 31 35  2  0
 31 32  1  0
 33 27  1  0
 34 33  2  0
M  END
$$$$
