MWY.pdb
     RDKit          3D

 35 37  0  0  1  0  0  0  0  0999 V2000
    7.8988  -11.9851   18.2108 C   0  0  0  0  0  0  0  0  0  0  0  0
    6.9727  -13.1933   17.1986 S   0  0  0  0  0  0  0  0  0  0  0  0
    7.6490  -14.8354   17.5472 C   0  0  0  0  0  0  0  0  0  0  0  0
    8.8001  -14.6297   18.5172 C   0  0  0  0  0  0  0  0  0  0  0  0
    9.2061  -15.9724   19.1209 C   0  0  2  0  0  0  0  0  0  0  0  0
    7.9905  -16.7716   19.3536 N   0  0  0  0  0  0  0  0  0  0  0  0
    9.7844  -15.6709   20.4540 C   0  0  0  0  0  0  0  0  0  0  0  0
   10.9539  -15.2222   20.5232 O   0  0  0  0  0  0  0  0  0  0  0  0
    9.0440  -15.8734   21.6372 N   0  0  0  0  0  0  0  0  0  0  0  0
    9.8185  -15.5809   22.9116 C   0  0  1  0  0  0  0  0  0  0  0  0
    9.2186  -14.3023   23.3608 C   0  0  0  0  0  0  0  0  0  0  0  0
    8.0635  -14.4800   24.2389 C   0  0  0  0  0  0  0  0  0  0  0  0
    7.3258  -15.6329   24.4577 C   0  0  0  0  0  0  0  0  0  0  0  0
    6.4221  -15.3557   25.3824 N   0  0  0  0  0  0  0  0  0  0  0  0
    6.5364  -14.0757   25.7776 C   0  0  0  0  0  0  0  0  0  0  0  0
    5.8683  -13.3030   26.7105 C   0  0  0  0  0  0  0  0  0  0  0  0
    6.2587  -11.9954   26.8946 C   0  0  0  0  0  0  0  0  0  0  0  0
    7.3029  -11.4085   26.1797 C   0  0  0  0  0  0  0  0  0  0  0  0
    7.9548  -12.1912   25.2564 C   0  0  0  0  0  0  0  0  0  0  0  0
    7.5636  -13.4961   25.0744 C   0  0  0  0  0  0  0  0  0  0  0  0
    9.6023  -16.7214   23.7702 C   0  0  0  0  0  0  0  0  0  0  0  0
    9.8250  -17.8850   23.1917 O   0  0  0  0  0  0  0  0  0  0  0  0
   12.1136  -17.0395   32.1966 O   0  0  0  0  0  0  0  0  0  0  0  0
   11.6523  -16.7210   30.9324 C   0  0  0  0  0  0  0  0  0  0  0  0
   12.0797  -17.4747   29.8640 C   0  0  0  0  0  0  0  0  0  0  0  0
   11.6378  -17.1799   28.5940 C   0  0  0  0  0  0  0  0  0  0  0  0
   10.7675  -16.1423   28.3301 C   0  0  0  0  0  0  0  0  0  0  0  0
   10.3281  -15.8852   26.9626 C   0  0  0  0  0  0  0  0  0  0  0  0
   10.1689  -17.1317   26.1474 C   0  0  2  0  0  0  0  0  0  0  0  0
    9.2024  -16.7630   25.0842 N   0  0  0  0  0  0  0  0  0  0  0  0
    9.6511  -18.2630   26.9387 C   0  0  0  0  0  0  0  0  0  0  0  0
   10.3661  -19.2071   27.6193 O   0  0  0  0  0  0  0  0  0  0  0  0
   10.3423  -15.3905   29.4005 C   0  0  0  0  0  0  0  0  0  0  0  0
   10.7789  -15.6785   30.6818 C   0  0  0  0  0  0  0  0  0  0  0  0
    8.3679  -18.3915   27.0032 O   0  0  0  0  0  0  0  0  0  0  0  0
  2  1  1  0
  3  2  1  0
  4  3  1  0
  5  4  1  0
  5  6  1  1
  7  8  2  0
  7  5  1  0
  9  7  1  0
 10  9  1  0
 10 21  1  0
 10 11  1  1
 12 11  1  0
 13 12  2  0
 14 15  1  0
 14 13  1  0
 15 20  2  0
 16 17  2  0
 16 15  1  0
 17 18  1  0
 18 19  2  0
 20 19  1  0
 20 12  1  0
 21 30  1  0
 22 21  2  0
 23 24  1  0
 24 25  2  0
 24 34  1  0
 25 26  1  0
 26 27  2  0
 27 28  1  0
 29 28  1  1
 29 31  1  0
 30 29  1  0
 31 35  2  0
 31 32  1  0
 33 27  1  0
 34 33  2  0
M  END
$$$$
