MWY.pdb
     RDKit          3D

 35 37  0  0  1  0  0  0  0  0999 V2000
    6.5616  -12.3324   16.7217 C   0  0  0  0  0  0  0  0  0  0  0  0
    7.5337  -12.3723   18.2695 S   0  0  0  0  0  0  0  0  0  0  0  0
    7.6879  -14.1026   18.7772 C   0  0  0  0  0  0  0  0  0  0  0  0
    8.4598  -14.0999   20.0858 C   0  0  0  0  0  0  0  0  0  0  0  0
    8.6930  -15.5377   20.5448 C   0  0  2  0  0  0  0  0  0  0  0  0
    7.3933  -16.1385   20.8918 N   0  0  0  0  0  0  0  0  0  0  0  0
    9.4762  -15.4507   21.8024 C   0  0  0  0  0  0  0  0  0  0  0  0
   10.5841  -14.8625   21.7904 O   0  0  0  0  0  0  0  0  0  0  0  0
    8.9964  -16.0097   23.0051 N   0  0  0  0  0  0  0  0  0  0  0  0
    9.9895  -15.9559   24.1540 C   0  0  1  0  0  0  0  0  0  0  0  0
    9.1205  -16.1729   25.3348 C   0  0  0  0  0  0  0  0  0  0  0  0
    7.8485  -15.4564   25.2587 C   0  0  0  0  0  0  0  0  0  0  0  0
    6.5960  -15.9684   24.9583 C   0  0  0  0  0  0  0  0  0  0  0  0
    5.7251  -14.9804   25.0764 N   0  0  0  0  0  0  0  0  0  0  0  0
    6.3512  -13.8477   25.4407 C   0  0  0  0  0  0  0  0  0  0  0  0
    5.9156  -12.5633   25.7132 C   0  0  0  0  0  0  0  0  0  0  0  0
    6.8375  -11.6143   26.0949 C   0  0  0  0  0  0  0  0  0  0  0  0
    8.1995  -11.8883   26.2202 C   0  0  0  0  0  0  0  0  0  0  0  0
    8.6142  -13.1697   25.9446 C   0  0  0  0  0  0  0  0  0  0  0  0
    7.6924  -14.1154   25.5640 C   0  0  0  0  0  0  0  0  0  0  0  0
   10.9599  -16.9892   23.8798 C   0  0  0  0  0  0  0  0  0  0  0  0
   11.5160  -16.9076   22.6872 O   0  0  0  0  0  0  0  0  0  0  0  0
   10.9535  -15.7009   31.7860 O   0  0  0  0  0  0  0  0  0  0  0  0
   11.2106  -15.9074   30.4430 C   0  0  0  0  0  0  0  0  0  0  0  0
   10.8314  -14.9401   29.5415 C   0  0  0  0  0  0  0  0  0  0  0  0
   11.0737  -15.1192   28.1982 C   0  0  0  0  0  0  0  0  0  0  0  0
   11.6918  -16.2460   27.6964 C   0  0  0  0  0  0  0  0  0  0  0  0
   11.9290  -16.3737   26.2623 C   0  0  0  0  0  0  0  0  0  0  0  0
   12.2600  -17.7718   25.8389 C   0  0  2  0  0  0  0  0  0  0  0  0
   11.3775  -18.0294   24.6748 N   0  0  0  0  0  0  0  0  0  0  0  0
   12.0046  -18.7607   26.9024 C   0  0  0  0  0  0  0  0  0  0  0  0
   12.9121  -19.3454   27.7393 O   0  0  0  0  0  0  0  0  0  0  0  0
   12.0694  -17.2114   28.6004 C   0  0  0  0  0  0  0  0  0  0  0  0
   11.8321  -17.0415   29.9533 C   0  0  0  0  0  0  0  0  0  0  0  0
   10.7793  -19.1304   27.0738 O   0  0  0  0  0  0  0  0  0  0  0  0
  2  1  1  0
  3  2  1  0
  4  3  1  0
  5  4  1  0
  5  6  1  1
  7  8  2  0
  7  5  1  0
  9  7  1  0
 10  9  1  0
 10 21  1  0
 10 11  1  1
 12 11  1  0
 13 12  2  0
 14 15  1  0
 14 13  1  0
 15 20  2  0
 16 17  2  0
 16 15  1  0
 17 18  1  0
 18 19  2  0
 20 19  1  0
 20 12  1  0
 21 30  1  0
 22 21  2  0
 23 24  1  0
 24 25  2  0
 24 34  1  0
 25 26  1  0
 26 27  2  0
 27 28  1  0
 29 28  1  1
 29 31  1  0
 30 29  1  0
 31 35  2  0
 31 32  1  0
 33 27  1  0
 34 33  2  0
M  END
$$$$
