MWY.pdb
     RDKit          3D

 35 37  0  0  1  0  0  0  0  0999 V2000
    7.4319  -11.9373   18.9149 C   0  0  0  0  0  0  0  0  0  0  0  0
    7.0493  -13.3671   17.8419 S   0  0  0  0  0  0  0  0  0  0  0  0
    7.0202  -14.8454   18.8856 C   0  0  0  0  0  0  0  0  0  0  0  0
    7.9510  -14.5660   20.0535 C   0  0  0  0  0  0  0  0  0  0  0  0
    8.6295  -15.8632   20.4881 C   0  0  2  0  0  0  0  0  0  0  0  0
    7.5930  -16.8124   20.9301 N   0  0  0  0  0  0  0  0  0  0  0  0
    9.4426  -15.5268   21.6832 C   0  0  0  0  0  0  0  0  0  0  0  0
   10.4076  -14.7348   21.5601 O   0  0  0  0  0  0  0  0  0  0  0  0
    9.1471  -16.0746   22.9489 N   0  0  0  0  0  0  0  0  0  0  0  0
   10.0722  -15.6053   24.0595 C   0  0  1  0  0  0  0  0  0  0  0  0
    9.2499  -15.8278   25.2723 C   0  0  0  0  0  0  0  0  0  0  0  0
    7.9353  -15.1918   25.2069 C   0  0  0  0  0  0  0  0  0  0  0  0
    6.7146  -15.7806   24.9164 C   0  0  0  0  0  0  0  0  0  0  0  0
    5.7850  -14.8486   25.0421 N   0  0  0  0  0  0  0  0  0  0  0  0
    6.3425  -13.6791   25.4018 C   0  0  0  0  0  0  0  0  0  0  0  0
    5.8302  -12.4242   25.6785 C   0  0  0  0  0  0  0  0  0  0  0  0
    6.6945  -11.4198   26.0531 C   0  0  0  0  0  0  0  0  0  0  0  0
    8.0718  -11.6086   26.1672 C   0  0  0  0  0  0  0  0  0  0  0  0
    8.5630  -12.8619   25.8876 C   0  0  0  0  0  0  0  0  0  0  0  0
    7.6987  -13.8630   25.5141 C   0  0  0  0  0  0  0  0  0  0  0  0
   11.2637  -16.4122   23.9418 C   0  0  0  0  0  0  0  0  0  0  0  0
   12.1336  -15.9679   23.0563 O   0  0  0  0  0  0  0  0  0  0  0  0
   11.1462  -16.4999   32.0742 O   0  0  0  0  0  0  0  0  0  0  0  0
   11.3094  -16.3769   30.7065 C   0  0  0  0  0  0  0  0  0  0  0  0
   12.0448  -17.3298   30.0407 C   0  0  0  0  0  0  0  0  0  0  0  0
   12.2246  -17.2324   28.6793 C   0  0  0  0  0  0  0  0  0  0  0  0
   11.6930  -16.2034   27.9293 C   0  0  0  0  0  0  0  0  0  0  0  0
   11.9114  -16.1600   26.4872 C   0  0  0  0  0  0  0  0  0  0  0  0
   12.3242  -17.4795   25.9108 C   0  0  2  0  0  0  0  0  0  0  0  0
   11.6118  -17.5601   24.6122 N   0  0  0  0  0  0  0  0  0  0  0  0
   11.9473  -18.6159   26.7716 C   0  0  0  0  0  0  0  0  0  0  0  0
   12.7386  -19.3022   27.6483 O   0  0  0  0  0  0  0  0  0  0  0  0
   10.9585  -15.2521   28.5982 C   0  0  0  0  0  0  0  0  0  0  0  0
   10.7701  -15.3406   29.9664 C   0  0  0  0  0  0  0  0  0  0  0  0
   10.7248  -19.0247   26.6969 O   0  0  0  0  0  0  0  0  0  0  0  0
  2  1  1  0
  3  2  1  0
  4  3  1  0
  5  4  1  0
  5  6  1  1
  7  8  2  0
  7  5  1  0
  9  7  1  0
 10  9  1  0
 10 21  1  0
 10 11  1  1
 12 11  1  0
 13 12  2  0
 14 15  1  0
 14 13  1  0
 15 20  2  0
 16 17  2  0
 16 15  1  0
 17 18  1  0
 18 19  2  0
 20 19  1  0
 20 12  1  0
 21 30  1  0
 22 21  2  0
 23 24  1  0
 24 25  2  0
 24 34  1  0
 25 26  1  0
 26 27  2  0
 27 28  1  0
 29 28  1  1
 29 31  1  0
 30 29  1  0
 31 35  2  0
 31 32  1  0
 33 27  1  0
 34 33  2  0
M  END
$$$$
