MWY.pdb
     RDKit          3D

 35 37  0  0  1  0  0  0  0  0999 V2000
    8.0647  -12.3139   19.2328 C   0  0  0  0  0  0  0  0  0  0  0  0
    7.3513  -13.9699   18.9318 S   0  0  0  0  0  0  0  0  0  0  0  0
    8.6715  -15.0286   18.2900 C   0  0  0  0  0  0  0  0  0  0  0  0
    9.9002  -14.7461   19.1378 C   0  0  0  0  0  0  0  0  0  0  0  0
   10.1107  -15.8883   20.1294 C   0  0  2  0  0  0  0  0  0  0  0  0
    9.0658  -16.9031   19.9086 N   0  0  0  0  0  0  0  0  0  0  0  0
    9.8763  -15.3160   21.4785 C   0  0  0  0  0  0  0  0  0  0  0  0
    9.5992  -14.0970   21.5832 O   0  0  0  0  0  0  0  0  0  0  0  0
    9.9536  -16.1157   22.6377 N   0  0  0  0  0  0  0  0  0  0  0  0
    9.4424  -15.4348   23.8965 C   0  0  1  0  0  0  0  0  0  0  0  0
    7.9766  -15.4236   23.6779 C   0  0  0  0  0  0  0  0  0  0  0  0
    7.2156  -15.0401   24.8657 C   0  0  0  0  0  0  0  0  0  0  0  0
    6.4807  -15.8572   25.7104 C   0  0  0  0  0  0  0  0  0  0  0  0
    6.0223  -15.1011   26.6935 N   0  0  0  0  0  0  0  0  0  0  0  0
    6.4246  -13.8286   26.5300 C   0  0  0  0  0  0  0  0  0  0  0  0
    6.2448  -12.6703   27.2646 C   0  0  0  0  0  0  0  0  0  0  0  0
    6.8267  -11.5036   26.8215 C   0  0  0  0  0  0  0  0  0  0  0  0
    7.5940  -11.4335   25.6587 C   0  0  0  0  0  0  0  0  0  0  0  0
    7.7613  -12.5943   24.9412 C   0  0  0  0  0  0  0  0  0  0  0  0
    7.1797  -13.7576   25.3853 C   0  0  0  0  0  0  0  0  0  0  0  0
    9.9155  -16.2419   24.9963 C   0  0  0  0  0  0  0  0  0  0  0  0
    9.9159  -17.5382   24.7561 O   0  0  0  0  0  0  0  0  0  0  0  0
   15.7440  -16.3895   22.9155 O   0  0  0  0  0  0  0  0  0  0  0  0
   14.8969  -16.3268   24.0068 C   0  0  0  0  0  0  0  0  0  0  0  0
   14.8426  -17.4016   24.8634 C   0  0  0  0  0  0  0  0  0  0  0  0
   14.0076  -17.3675   25.9574 C   0  0  0  0  0  0  0  0  0  0  0  0
   13.2023  -16.2851   26.2465 C   0  0  0  0  0  0  0  0  0  0  0  0
   12.3447  -16.3052   27.4269 C   0  0  0  0  0  0  0  0  0  0  0  0
   10.9742  -16.8447   27.1541 C   0  0  2  0  0  0  0  0  0  0  0  0
   10.3574  -15.8541   26.2383 N   0  0  0  0  0  0  0  0  0  0  0  0
   10.1653  -16.9806   28.3795 C   0  0  0  0  0  0  0  0  0  0  0  0
    8.9699  -16.3848   28.6655 O   0  0  0  0  0  0  0  0  0  0  0  0
   13.2588  -15.2121   25.3879 C   0  0  0  0  0  0  0  0  0  0  0  0
   14.0955  -15.2348   24.2857 C   0  0  0  0  0  0  0  0  0  0  0  0
   10.6319  -17.7513   29.3045 O   0  0  0  0  0  0  0  0  0  0  0  0
  2  1  1  0
  3  2  1  0
  4  3  1  0
  5  4  1  0
  5  6  1  6
  7  8  2  0
  7  5  1  0
  9  7  1  0
 10  9  1  0
 10 21  1  0
 10 11  1  6
 12 11  1  0
 13 12  2  0
 14 15  1  0
 14 13  1  0
 15 20  2  0
 16 17  2  0
 16 15  1  0
 17 18  1  0
 18 19  2  0
 20 19  1  0
 20 12  1  0
 21 30  1  0
 22 21  2  0
 23 24  1  0
 24 25  2  0
 24 34  1  0
 25 26  1  0
 26 27  2  0
 27 28  1  0
 29 28  1  1
 29 31  1  0
 30 29  1  0
 31 35  2  0
 31 32  1  0
 33 27  1  0
 34 33  2  0
M  END
$$$$
