MWY.pdb
     RDKit          3D

 35 37  0  0  1  0  0  0  0  0999 V2000
   12.3419  -21.7597   19.4236 C   0  0  0  0  0  0  0  0  0  0  0  0
   12.0274  -20.5063   20.7168 S   0  0  0  0  0  0  0  0  0  0  0  0
   12.2520  -18.8746   19.9668 C   0  0  0  0  0  0  0  0  0  0  0  0
   12.0251  -17.8578   21.0727 C   0  0  0  0  0  0  0  0  0  0  0  0
   10.6078  -17.2985   20.9700 C   0  0  2  0  0  0  0  0  0  0  0  0
   10.5794  -16.2783   19.9074 N   0  0  0  0  0  0  0  0  0  0  0  0
   10.3451  -16.5943   22.2496 C   0  0  0  0  0  0  0  0  0  0  0  0
   10.9144  -15.4983   22.4697 O   0  0  0  0  0  0  0  0  0  0  0  0
    9.4670  -17.1302   23.2145 N   0  0  0  0  0  0  0  0  0  0  0  0
    9.2414  -16.2286   24.4169 C   0  0  1  0  0  0  0  0  0  0  0  0
    7.7891  -16.3889   24.6653 C   0  0  0  0  0  0  0  0  0  0  0  0
    7.0705  -15.1185   24.7463 C   0  0  0  0  0  0  0  0  0  0  0  0
    6.0328  -14.6710   23.9437 C   0  0  0  0  0  0  0  0  0  0  0  0
    5.6379  -13.5028   24.4211 N   0  0  0  0  0  0  0  0  0  0  0  0
    6.3692  -13.1677   25.4984 C   0  0  0  0  0  0  0  0  0  0  0  0
    6.3533  -12.0876   26.3627 C   0  0  0  0  0  0  0  0  0  0  0  0
    7.2458  -12.0604   27.4109 C   0  0  0  0  0  0  0  0  0  0  0  0
    8.1720  -13.0770   27.6443 C   0  0  0  0  0  0  0  0  0  0  0  0
    8.1736  -14.1419   26.7749 C   0  0  0  0  0  0  0  0  0  0  0  0
    7.2820  -14.1672   25.7293 C   0  0  0  0  0  0  0  0  0  0  0  0
   10.1218  -16.7254   25.4478 C   0  0  0  0  0  0  0  0  0  0  0  0
   10.3316  -18.0261   25.4007 O   0  0  0  0  0  0  0  0  0  0  0  0
   16.0192  -17.9135   23.0213 O   0  0  0  0  0  0  0  0  0  0  0  0
   15.2434  -17.4476   24.0671 C   0  0  0  0  0  0  0  0  0  0  0  0
   15.2713  -18.1259   25.2634 C   0  0  0  0  0  0  0  0  0  0  0  0
   14.5085  -17.6857   26.3214 C   0  0  0  0  0  0  0  0  0  0  0  0
   13.6971  -16.5725   26.2426 C   0  0  0  0  0  0  0  0  0  0  0  0
   12.9186  -16.1504   27.4023 C   0  0  0  0  0  0  0  0  0  0  0  0
   11.5605  -16.7791   27.4647 C   0  0  2  0  0  0  0  0  0  0  0  0
   10.7605  -16.0432   26.4553 N   0  0  0  0  0  0  0  0  0  0  0  0
   10.9405  -16.6559   28.7969 C   0  0  0  0  0  0  0  0  0  0  0  0
   11.2980  -17.2940   29.9504 O   0  0  0  0  0  0  0  0  0  0  0  0
   13.6713  -15.8967   25.0449 C   0  0  0  0  0  0  0  0  0  0  0  0
   14.4349  -16.3294   23.9749 C   0  0  0  0  0  0  0  0  0  0  0  0
    9.9347  -15.8528   28.9007 O   0  0  0  0  0  0  0  0  0  0  0  0
  2  1  1  0
  3  2  1  0
  4  3  1  0
  5  4  1  0
  5  6  1  6
  7  8  2  0
  7  5  1  0
  9  7  1  0
 10  9  1  0
 10 21  1  0
 10 11  1  1
 12 11  1  0
 13 12  2  0
 14 15  1  0
 14 13  1  0
 15 20  2  0
 16 17  2  0
 16 15  1  0
 17 18  1  0
 18 19  2  0
 20 19  1  0
 20 12  1  0
 21 30  1  0
 22 21  2  0
 23 24  1  0
 24 25  2  0
 24 34  1  0
 25 26  1  0
 26 27  2  0
 27 28  1  0
 29 28  1  1
 29 31  1  0
 30 29  1  0
 31 35  2  0
 31 32  1  0
 33 27  1  0
 34 33  2  0
M  END
$$$$
