MWY.pdb
     RDKit          3D

 35 37  0  0  1  0  0  0  0  0999 V2000
    8.2008  -11.6790   18.9919 C   0  0  0  0  0  0  0  0  0  0  0  0
    8.6964  -13.1663   18.0515 S   0  0  0  0  0  0  0  0  0  0  0  0
    7.7555  -14.5679   18.7039 C   0  0  0  0  0  0  0  0  0  0  0  0
    7.4151  -14.2246   20.1443 C   0  0  0  0  0  0  0  0  0  0  0  0
    7.1691  -15.5098   20.9317 C   0  0  2  0  0  0  0  0  0  0  0  0
    5.7236  -15.6376   21.1860 N   0  0  0  0  0  0  0  0  0  0  0  0
    7.8229  -15.3207   22.2505 C   0  0  0  0  0  0  0  0  0  0  0  0
    7.6934  -14.2224   22.8426 O   0  0  0  0  0  0  0  0  0  0  0  0
    8.5781  -16.3508   22.8488 N   0  0  0  0  0  0  0  0  0  0  0  0
    9.3734  -15.9102   24.0665 C   0  0  1  0  0  0  0  0  0  0  0  0
    8.6133  -16.5244   25.1807 C   0  0  0  0  0  0  0  0  0  0  0  0
    7.4828  -15.7132   25.6287 C   0  0  0  0  0  0  0  0  0  0  0  0
    6.1338  -16.0284   25.5838 C   0  0  0  0  0  0  0  0  0  0  0  0
    5.4757  -15.0379   26.1619 N   0  0  0  0  0  0  0  0  0  0  0  0
    6.3328  -14.0912   26.5827 C   0  0  0  0  0  0  0  0  0  0  0  0
    6.1735  -12.8899   27.2499 C   0  0  0  0  0  0  0  0  0  0  0  0
    7.2909  -12.1483   27.5622 C   0  0  0  0  0  0  0  0  0  0  0  0
    8.5850  -12.5534   27.2351 C   0  0  0  0  0  0  0  0  0  0  0  0
    8.7240  -13.7494   26.5716 C   0  0  0  0  0  0  0  0  0  0  0  0
    7.6074  -14.4881   26.2609 C   0  0  0  0  0  0  0  0  0  0  0  0
   10.7126  -16.4083   23.8591 C   0  0  0  0  0  0  0  0  0  0  0  0
   10.7661  -17.6272   23.3596 O   0  0  0  0  0  0  0  0  0  0  0  0
   12.8844  -15.7615   17.5681 O   0  0  0  0  0  0  0  0  0  0  0  0
   13.1316  -15.7030   18.9275 C   0  0  0  0  0  0  0  0  0  0  0  0
   14.1886  -16.4201   19.4381 C   0  0  0  0  0  0  0  0  0  0  0  0
   14.4577  -16.3815   20.7876 C   0  0  0  0  0  0  0  0  0  0  0  0
   13.7039  -15.6432   21.6768 C   0  0  0  0  0  0  0  0  0  0  0  0
   14.0449  -15.6357   23.0956 C   0  0  0  0  0  0  0  0  0  0  0  0
   13.1860  -16.5482   23.9160 C   0  0  2  0  0  0  0  0  0  0  0  0
   11.9196  -15.7997   24.1065 N   0  0  0  0  0  0  0  0  0  0  0  0
   13.7899  -16.8714   25.2219 C   0  0  0  0  0  0  0  0  0  0  0  0
   13.3071  -16.5761   26.4650 O   0  0  0  0  0  0  0  0  0  0  0  0
   12.6477  -14.9276   21.1630 C   0  0  0  0  0  0  0  0  0  0  0  0
   12.3685  -14.9579   19.8078 C   0  0  0  0  0  0  0  0  0  0  0  0
   14.9128  -17.5088   25.2042 O   0  0  0  0  0  0  0  0  0  0  0  0
  2  1  1  0
  3  2  1  0
  4  3  1  0
  5  4  1  0
  5  6  1  1
  7  8  2  0
  7  5  1  0
  9  7  1  0
 10  9  1  0
 10 21  1  0
 10 11  1  1
 12 11  1  0
 13 12  2  0
 14 15  1  0
 14 13  1  0
 15 20  2  0
 16 17  2  0
 16 15  1  0
 17 18  1  0
 18 19  2  0
 20 19  1  0
 20 12  1  0
 21 30  1  0
 22 21  2  0
 23 24  1  0
 24 25  2  0
 24 34  1  0
 25 26  1  0
 26 27  2  0
 27 28  1  0
 29 28  1  6
 29 31  1  0
 30 29  1  0
 31 35  2  0
 31 32  1  0
 33 27  1  0
 34 33  2  0
M  END
$$$$
