MWY.pdb
     RDKit          3D

 35 37  0  0  1  0  0  0  0  0999 V2000
    7.3780  -13.5494   17.1609 C   0  0  0  0  0  0  0  0  0  0  0  0
    7.7543  -15.0760   16.2283 S   0  0  0  0  0  0  0  0  0  0  0  0
    8.2699  -16.3357   17.4210 C   0  0  0  0  0  0  0  0  0  0  0  0
    8.9231  -15.5941   18.5750 C   0  0  0  0  0  0  0  0  0  0  0  0
    9.3620  -16.5941   19.6424 C   0  0  2  0  0  0  0  0  0  0  0  0
    8.1740  -17.3184   20.1269 N   0  0  0  0  0  0  0  0  0  0  0  0
    9.8699  -15.7900   20.7816 C   0  0  0  0  0  0  0  0  0  0  0  0
   10.9445  -15.1565   20.6487 O   0  0  0  0  0  0  0  0  0  0  0  0
    9.1663  -15.7215   22.0021 N   0  0  0  0  0  0  0  0  0  0  0  0
    9.7431  -14.7271   22.9959 C   0  0  1  0  0  0  0  0  0  0  0  0
    8.6209  -13.7771   23.1816 C   0  0  0  0  0  0  0  0  0  0  0  0
    7.6695  -14.1964   24.2092 C   0  0  0  0  0  0  0  0  0  0  0  0
    7.0387  -15.4237   24.3400 C   0  0  0  0  0  0  0  0  0  0  0  0
    6.3234  -15.3853   25.4515 N   0  0  0  0  0  0  0  0  0  0  0  0
    6.4588  -14.1901   26.0524 C   0  0  0  0  0  0  0  0  0  0  0  0
    5.9550  -13.6485   27.2214 C   0  0  0  0  0  0  0  0  0  0  0  0
    6.3182  -12.3676   27.5726 C   0  0  0  0  0  0  0  0  0  0  0  0
    7.1757  -11.5842   26.8000 C   0  0  0  0  0  0  0  0  0  0  0  0
    7.6660  -12.1386   25.6414 C   0  0  0  0  0  0  0  0  0  0  0  0
    7.3023  -13.4173   25.2928 C   0  0  0  0  0  0  0  0  0  0  0  0
   10.1167  -15.5046   24.1538 C   0  0  0  0  0  0  0  0  0  0  0  0
   10.8657  -14.8560   25.0234 O   0  0  0  0  0  0  0  0  0  0  0  0
   11.4481  -13.8436   30.3857 O   0  0  0  0  0  0  0  0  0  0  0  0
   11.1439  -14.8358   29.4718 C   0  0  0  0  0  0  0  0  0  0  0  0
   10.0145  -14.6980   28.6986 C   0  0  0  0  0  0  0  0  0  0  0  0
    9.6864  -15.6705   27.7813 C   0  0  0  0  0  0  0  0  0  0  0  0
   10.4495  -16.8044   27.5923 C   0  0  0  0  0  0  0  0  0  0  0  0
   10.0538  -17.7957   26.5974 C   0  0  0  0  0  0  0  0  0  0  0  0
   10.7446  -17.6209   25.2798 C   0  0  2  0  0  0  0  0  0  0  0  0
    9.8064  -16.8054   24.4704 N   0  0  0  0  0  0  0  0  0  0  0  0
   11.0156  -18.9052   24.6081 C   0  0  0  0  0  0  0  0  0  0  0  0
   10.4760  -19.3726   23.4435 O   0  0  0  0  0  0  0  0  0  0  0  0
   11.5778  -16.9393   28.3672 C   0  0  0  0  0  0  0  0  0  0  0  0
   11.9183  -15.9673   29.2917 C   0  0  0  0  0  0  0  0  0  0  0  0
   11.8617  -19.6958   25.1794 O   0  0  0  0  0  0  0  0  0  0  0  0
  2  1  1  0
  3  2  1  0
  4  3  1  0
  5  4  1  0
  5  6  1  1
  7  8  2  0
  7  5  1  0
  9  7  1  0
 10  9  1  0
 10 21  1  0
 10 11  1  1
 12 11  1  0
 13 12  2  0
 14 15  1  0
 14 13  1  0
 15 20  2  0
 16 17  2  0
 16 15  1  0
 17 18  1  0
 18 19  2  0
 20 19  1  0
 20 12  1  0
 21 30  1  0
 22 21  2  0
 23 24  1  0
 24 25  2  0
 24 34  1  0
 25 26  1  0
 26 27  2  0
 27 28  1  0
 29 28  1  1
 29 31  1  0
 30 29  1  0
 31 35  2  0
 31 32  1  0
 33 27  1  0
 34 33  2  0
M  END
$$$$
