MWY.pdb
     RDKit          3D

 35 37  0  0  1  0  0  0  0  0999 V2000
   14.6129  -18.5175   20.6390 C   0  0  0  0  0  0  0  0  0  0  0  0
   13.8119  -19.8019   19.6140 S   0  0  0  0  0  0  0  0  0  0  0  0
   12.0216  -19.5694   19.7413 C   0  0  0  0  0  0  0  0  0  0  0  0
   11.8068  -18.3736   20.6537 C   0  0  0  0  0  0  0  0  0  0  0  0
   10.3100  -18.1279   20.8306 C   0  0  2  0  0  0  0  0  0  0  0  0
    9.7860  -17.5049   19.6026 N   0  0  0  0  0  0  0  0  0  0  0  0
   10.1791  -17.1214   21.9133 C   0  0  0  0  0  0  0  0  0  0  0  0
   10.7673  -16.0197   21.7950 O   0  0  0  0  0  0  0  0  0  0  0  0
    9.4045  -17.3785   23.0636 N   0  0  0  0  0  0  0  0  0  0  0  0
    9.3156  -16.2063   24.0266 C   0  0  1  0  0  0  0  0  0  0  0  0
    7.8567  -15.9514   24.0820 C   0  0  0  0  0  0  0  0  0  0  0  0
    7.5134  -14.5313   24.0330 C   0  0  0  0  0  0  0  0  0  0  0  0
    7.3180  -13.7375   22.9136 C   0  0  0  0  0  0  0  0  0  0  0  0
    6.9519  -12.5393   23.3363 N   0  0  0  0  0  0  0  0  0  0  0  0
    6.8986  -12.5146   24.6796 C   0  0  0  0  0  0  0  0  0  0  0  0
    6.5602  -11.5410   25.6023 C   0  0  0  0  0  0  0  0  0  0  0  0
    6.5861  -11.8559   26.9425 C   0  0  0  0  0  0  0  0  0  0  0  0
    6.9402  -13.1187   27.4176 C   0  0  0  0  0  0  0  0  0  0  0  0
    7.2741  -14.0733   26.4863 C   0  0  0  0  0  0  0  0  0  0  0  0
    7.2475  -13.7570   25.1491 C   0  0  0  0  0  0  0  0  0  0  0  0
    9.9291  -16.6606   25.2521 C   0  0  0  0  0  0  0  0  0  0  0  0
    9.8036  -17.9541   25.4738 O   0  0  0  0  0  0  0  0  0  0  0  0
   16.1631  -16.8067   23.2138 O   0  0  0  0  0  0  0  0  0  0  0  0
   15.3033  -16.6322   24.2827 C   0  0  0  0  0  0  0  0  0  0  0  0
   14.4959  -15.5188   24.3061 C   0  0  0  0  0  0  0  0  0  0  0  0
   13.6309  -15.3186   25.3581 C   0  0  0  0  0  0  0  0  0  0  0  0
   13.5292  -16.1977   26.4167 C   0  0  0  0  0  0  0  0  0  0  0  0
   12.5862  -15.9346   27.4987 C   0  0  0  0  0  0  0  0  0  0  0  0
   11.2784  -16.6453   27.3305 C   0  0  2  0  0  0  0  0  0  0  0  0
   10.6136  -15.9447   26.2047 N   0  0  0  0  0  0  0  0  0  0  0  0
   10.4386  -16.5791   28.5408 C   0  0  0  0  0  0  0  0  0  0  0  0
   10.5991  -17.2647   29.7112 O   0  0  0  0  0  0  0  0  0  0  0  0
   14.3380  -17.3098   26.3904 C   0  0  0  0  0  0  0  0  0  0  0  0
   15.2105  -17.5221   25.3373 C   0  0  0  0  0  0  0  0  0  0  0  0
    9.4230  -15.7825   28.5038 O   0  0  0  0  0  0  0  0  0  0  0  0
  2  1  1  0
  3  2  1  0
  4  3  1  0
  5  4  1  0
  5  6  1  6
  7  8  2  0
  7  5  1  0
  9  7  1  0
 10  9  1  0
 10 21  1  0
 10 11  1  1
 12 11  1  0
 13 12  2  0
 14 15  1  0
 14 13  1  0
 15 20  2  0
 16 17  2  0
 16 15  1  0
 17 18  1  0
 18 19  2  0
 20 19  1  0
 20 12  1  0
 21 30  1  0
 22 21  2  0
 23 24  1  0
 24 25  2  0
 24 34  1  0
 25 26  1  0
 26 27  2  0
 27 28  1  0
 29 28  1  1
 29 31  1  0
 30 29  1  0
 31 35  2  0
 31 32  1  0
 33 27  1  0
 34 33  2  0
M  END
$$$$
