MWY.pdb
     RDKit          3D

 35 37  0  0  1  0  0  0  0  0999 V2000
    8.1800  -21.7599   15.9361 C   0  0  0  0  0  0  0  0  0  0  0  0
    8.6547  -20.0842   16.4915 S   0  0  0  0  0  0  0  0  0  0  0  0
    8.7291  -20.1050   18.2997 C   0  0  0  0  0  0  0  0  0  0  0  0
    9.2737  -18.7515   18.7236 C   0  0  0  0  0  0  0  0  0  0  0  0
    9.3636  -18.6908   20.2469 C   0  0  2  0  0  0  0  0  0  0  0  0
    8.1075  -19.2110   20.8145 N   0  0  0  0  0  0  0  0  0  0  0  0
    9.4328  -17.2516   20.6022 C   0  0  0  0  0  0  0  0  0  0  0  0
   10.3565  -16.5501   20.1244 O   0  0  0  0  0  0  0  0  0  0  0  0
    8.4800  -16.6612   21.4583 N   0  0  0  0  0  0  0  0  0  0  0  0
    8.7614  -15.2050   21.7894 C   0  0  1  0  0  0  0  0  0  0  0  0
    7.4001  -14.6601   22.0052 C   0  0  0  0  0  0  0  0  0  0  0  0
    6.9498  -14.7560   23.3926 C   0  0  0  0  0  0  0  0  0  0  0  0
    6.6185  -15.8968   24.1067 C   0  0  0  0  0  0  0  0  0  0  0  0
    6.3387  -15.5230   25.3438 N   0  0  0  0  0  0  0  0  0  0  0  0
    6.4728  -14.1911   25.4703 C   0  0  0  0  0  0  0  0  0  0  0  0
    6.3239  -13.3146   26.5302 C   0  0  0  0  0  0  0  0  0  0  0  0
    6.5669  -11.9748   26.3255 C   0  0  0  0  0  0  0  0  0  0  0  0
    6.9584  -11.4555   25.0915 C   0  0  0  0  0  0  0  0  0  0  0  0
    7.1006  -12.3412   24.0497 C   0  0  0  0  0  0  0  0  0  0  0  0
    6.8577  -13.6780   24.2561 C   0  0  0  0  0  0  0  0  0  0  0  0
    9.6280  -15.2278   22.9441 C   0  0  0  0  0  0  0  0  0  0  0  0
   10.0927  -14.0453   23.2962 O   0  0  0  0  0  0  0  0  0  0  0  0
   11.1128  -15.3899   31.3730 O   0  0  0  0  0  0  0  0  0  0  0  0
   10.7255  -15.6337   30.0680 C   0  0  0  0  0  0  0  0  0  0  0  0
   10.4070  -14.5648   29.2629 C   0  0  0  0  0  0  0  0  0  0  0  0
   10.0172  -14.7775   27.9599 C   0  0  0  0  0  0  0  0  0  0  0  0
    9.9266  -16.0378   27.4056 C   0  0  0  0  0  0  0  0  0  0  0  0
    9.5156  -16.1981   26.0147 C   0  0  0  0  0  0  0  0  0  0  0  0
   10.6475  -16.0615   25.0432 C   0  0  2  0  0  0  0  0  0  0  0  0
   10.0302  -16.2924   23.7142 N   0  0  0  0  0  0  0  0  0  0  0  0
   11.7220  -17.0420   25.2848 C   0  0  0  0  0  0  0  0  0  0  0  0
   11.6600  -18.4010   25.1629 O   0  0  0  0  0  0  0  0  0  0  0  0
   10.2454  -17.1044   28.2134 C   0  0  0  0  0  0  0  0  0  0  0  0
   10.6398  -16.9024   29.5245 C   0  0  0  0  0  0  0  0  0  0  0  0
   12.8656  -16.5743   25.6600 O   0  0  0  0  0  0  0  0  0  0  0  0
  2  1  1  0
  3  2  1  0
  4  3  1  0
  5  4  1  0
  5  6  1  1
  7  8  2  0
  7  5  1  0
  9  7  1  0
 10  9  1  0
 10 21  1  0
 10 11  1  1
 12 11  1  0
 13 12  2  0
 14 15  1  0
 14 13  1  0
 15 20  2  0
 16 17  2  0
 16 15  1  0
 17 18  1  0
 18 19  2  0
 20 19  1  0
 20 12  1  0
 21 30  1  0
 22 21  2  0
 23 24  1  0
 24 25  2  0
 24 34  1  0
 25 26  1  0
 26 27  2  0
 27 28  1  0
 29 28  1  1
 29 31  1  0
 30 29  1  0
 31 35  2  0
 31 32  1  0
 33 27  1  0
 34 33  2  0
M  END
$$$$
