IAE.pdb
     RDKit          3D

 23 22  0  0  1  0  0  0  0  0999 V2000
    7.8389  -12.1595   27.4302 C   0  0  0  0  0  0  0  0  0  0  0  0
    6.8848  -13.0370   26.6877 C   0  0  0  0  0  0  0  0  0  0  0  0
    7.5174  -14.1784   25.9469 C   0  0  2  0  0  0  0  0  0  0  0  0
    8.4483  -13.5452   24.9065 C   0  0  0  0  0  0  0  0  0  0  0  0
    6.5246  -15.0329   25.2207 C   0  0  2  0  0  0  0  0  0  0  0  0
    5.4570  -15.5478   26.0304 N   0  0  0  0  0  0  0  0  0  0  0  0
    7.2379  -16.1691   24.5920 C   0  0  0  0  0  0  0  0  0  0  0  0
    7.4643  -17.2025   25.2778 O   0  0  0  0  0  0  0  0  0  0  0  0
    7.9620  -17.2386   21.0327 C   0  0  0  0  0  0  0  0  0  0  0  0
    8.1026  -17.3007   22.5234 C   0  0  2  0  0  0  0  0  0  0  0  0
    7.6807  -16.1388   23.2377 N   0  0  0  0  0  0  0  0  0  0  0  0
    9.5399  -17.5975   22.8938 C   0  0  0  0  0  0  0  0  0  0  0  0
   10.0516  -18.6566   22.4711 O   0  0  0  0  0  0  0  0  0  0  0  0
   10.2330  -16.6798   23.6944 N   0  0  0  0  0  0  0  0  0  0  0  0
   11.5572  -16.9744   24.2606 C   0  0  1  0  0  0  0  0  0  0  0  0
   12.5886  -16.0972   23.6582 C   0  0  0  0  0  0  0  0  0  0  0  0
   12.7242  -16.1606   22.1713 C   0  0  0  0  0  0  0  0  0  0  0  0
   14.0635  -15.6991   21.7176 C   0  0  0  0  0  0  0  0  0  0  0  0
   14.7634  -14.9590   22.4520 O   0  0  0  0  0  0  0  0  0  0  0  0
   11.4857  -16.9697   25.7379 C   0  0  0  0  0  0  0  0  0  0  0  0
   10.3943  -16.5693   26.4767 O   0  0  0  0  0  0  0  0  0  0  0  0
   14.6159  -16.0560   20.4730 O   0  0  0  0  0  0  0  0  0  0  0  0
   12.5081  -17.3641   26.3901 O   0  0  0  0  0  0  0  0  0  0  0  0
  1  2  1  0
  2  3  1  0
  3  4  1  6
  3  5  1  0
  5  7  1  0
  5  6  1  1
  7  8  2  0
 10  9  1  6
 10 12  1  0
 11 10  1  0
 11  7  1  0
 12 13  2  0
 12 14  1  0
 14 15  1  0
 15 16  1  1
 16 17  1  0
 18 22  1  0
 18 17  1  0
 19 18  2  0
 20 15  1  0
 20 21  1  0
 23 20  2  0
M  END
$$$$
