IAE.pdb
     RDKit          3D

 23 22  0  0  1  0  0  0  0  0999 V2000
    7.1835  -11.7162   27.7606 C   0  0  0  0  0  0  0  0  0  0  0  0
    6.3803  -12.5690   26.8337 C   0  0  0  0  0  0  0  0  0  0  0  0
    7.1745  -13.5610   26.0355 C   0  0  2  0  0  0  0  0  0  0  0  0
    8.1110  -12.7366   25.1448 C   0  0  0  0  0  0  0  0  0  0  0  0
    6.3261  -14.4180   25.1473 C   0  0  2  0  0  0  0  0  0  0  0  0
    5.4286  -15.3040   25.8328 N   0  0  0  0  0  0  0  0  0  0  0  0
    7.2088  -15.2191   24.2673 C   0  0  0  0  0  0  0  0  0  0  0  0
    7.7357  -16.2694   24.7241 O   0  0  0  0  0  0  0  0  0  0  0  0
    8.5705  -15.0145   20.6955 C   0  0  0  0  0  0  0  0  0  0  0  0
    8.3807  -15.5706   22.0742 C   0  0  2  0  0  0  0  0  0  0  0  0
    7.4873  -14.8466   22.9202 N   0  0  0  0  0  0  0  0  0  0  0  0
    9.7187  -15.6844   22.7728 C   0  0  0  0  0  0  0  0  0  0  0  0
   10.3183  -14.6303   23.0748 O   0  0  0  0  0  0  0  0  0  0  0  0
   10.2295  -16.9601   23.0473 N   0  0  0  0  0  0  0  0  0  0  0  0
   11.4160  -17.1666   23.8902 C   0  0  1  0  0  0  0  0  0  0  0  0
   11.0751  -17.9831   25.0790 C   0  0  0  0  0  0  0  0  0  0  0  0
   12.2165  -18.3798   25.9582 C   0  0  0  0  0  0  0  0  0  0  0  0
   11.7665  -19.2062   27.1102 C   0  0  0  0  0  0  0  0  0  0  0  0
   10.5556  -19.5136   27.2376 O   0  0  0  0  0  0  0  0  0  0  0  0
   12.5397  -17.6611   23.0656 C   0  0  0  0  0  0  0  0  0  0  0  0
   12.4347  -18.0966   21.7631 O   0  0  0  0  0  0  0  0  0  0  0  0
   12.6458  -19.6848   28.0998 O   0  0  0  0  0  0  0  0  0  0  0  0
   13.7016  -17.6924   23.5903 O   0  0  0  0  0  0  0  0  0  0  0  0
  1  2  1  0
  2  3  1  0
  3  4  1  6
  3  5  1  0
  5  7  1  0
  5  6  1  1
  7  8  2  0
 10  9  1  6
 10 12  1  0
 11 10  1  0
 11  7  1  0
 12 13  2  0
 12 14  1  0
 14 15  1  0
 15 16  1  1
 16 17  1  0
 18 22  1  0
 18 17  1  0
 19 18  2  0
 20 15  1  0
 20 21  1  0
 23 20  2  0
M  END
$$$$
