IAE.pdb
     RDKit          3D

 23 22  0  0  1  0  0  0  0  0999 V2000
    6.3378  -11.5963   27.6301 C   0  0  0  0  0  0  0  0  0  0  0  0
    5.7977  -12.7491   26.8486 C   0  0  0  0  0  0  0  0  0  0  0  0
    6.8034  -13.4629   25.9937 C   0  0  2  0  0  0  0  0  0  0  0  0
    7.2965  -12.4341   24.9698 C   0  0  0  0  0  0  0  0  0  0  0  0
    6.2230  -14.6217   25.2429 C   0  0  2  0  0  0  0  0  0  0  0  0
    5.7214  -15.6882   26.0623 N   0  0  0  0  0  0  0  0  0  0  0  0
    7.2537  -15.1661   24.3283 C   0  0  0  0  0  0  0  0  0  0  0  0
    8.1685  -15.8925   24.8027 O   0  0  0  0  0  0  0  0  0  0  0  0
    8.0041  -15.1132   20.5750 C   0  0  0  0  0  0  0  0  0  0  0  0
    8.1285  -15.5443   22.0049 C   0  0  2  0  0  0  0  0  0  0  0  0
    7.2518  -14.8989   22.9285 N   0  0  0  0  0  0  0  0  0  0  0  0
    9.5530  -15.3519   22.4791 C   0  0  0  0  0  0  0  0  0  0  0  0
    9.9117  -14.2041   22.8199 O   0  0  0  0  0  0  0  0  0  0  0  0
   10.4081  -16.4616   22.5126 N   0  0  0  0  0  0  0  0  0  0  0  0
   11.7613  -16.3936   23.0826 C   0  0  1  0  0  0  0  0  0  0  0  0
   11.7273  -16.6624   24.5396 C   0  0  0  0  0  0  0  0  0  0  0  0
   11.5645  -18.0917   24.9448 C   0  0  0  0  0  0  0  0  0  0  0  0
   11.6637  -18.2637   26.4188 C   0  0  0  0  0  0  0  0  0  0  0  0
   10.7767  -17.7959   27.1748 O   0  0  0  0  0  0  0  0  0  0  0  0
   12.6844  -17.2349   22.2905 C   0  0  0  0  0  0  0  0  0  0  0  0
   12.2996  -18.1540   21.3394 O   0  0  0  0  0  0  0  0  0  0  0  0
   12.7267  -18.9455   27.0409 O   0  0  0  0  0  0  0  0  0  0  0  0
   13.9369  -17.1093   22.4950 O   0  0  0  0  0  0  0  0  0  0  0  0
  1  2  1  0
  2  3  1  0
  3  4  1  6
  3  5  1  0
  5  7  1  0
  5  6  1  1
  7  8  2  0
 10  9  1  6
 10 12  1  0
 11 10  1  0
 11  7  1  0
 12 13  2  0
 12 14  1  0
 14 15  1  0
 15 16  1  1
 16 17  1  0
 18 22  1  0
 18 17  1  0
 19 18  2  0
 20 15  1  0
 20 21  1  0
 23 20  2  0
M  END
$$$$
