IAE.pdb
     RDKit          3D

 23 22  0  0  1  0  0  0  0  0999 V2000
    6.3470  -11.0525   27.1136 C   0  0  0  0  0  0  0  0  0  0  0  0
    5.7515  -12.2687   26.4828 C   0  0  0  0  0  0  0  0  0  0  0  0
    6.7229  -13.1383   25.7398 C   0  0  2  0  0  0  0  0  0  0  0  0
    7.2190  -12.3032   24.5538 C   0  0  0  0  0  0  0  0  0  0  0  0
    6.1007  -14.3883   25.1978 C   0  0  2  0  0  0  0  0  0  0  0  0
    5.5805  -15.2882   26.1878 N   0  0  0  0  0  0  0  0  0  0  0  0
    7.1036  -15.1077   24.3783 C   0  0  0  0  0  0  0  0  0  0  0  0
    7.8309  -15.9780   24.9287 O   0  0  0  0  0  0  0  0  0  0  0  0
    8.1506  -15.2462   20.6988 C   0  0  0  0  0  0  0  0  0  0  0  0
    8.1112  -15.6477   22.1422 C   0  0  2  0  0  0  0  0  0  0  0  0
    7.2796  -14.8523   22.9873 N   0  0  0  0  0  0  0  0  0  0  0  0
    9.5126  -15.6535   22.7140 C   0  0  0  0  0  0  0  0  0  0  0  0
   10.1779  -14.5969   22.6566 O   0  0  0  0  0  0  0  0  0  0  0  0
   10.0058  -16.8379   23.2776 N   0  0  0  0  0  0  0  0  0  0  0  0
   11.2421  -16.8744   24.0722 C   0  0  1  0  0  0  0  0  0  0  0  0
   11.0923  -17.7906   25.2274 C   0  0  0  0  0  0  0  0  0  0  0  0
   12.3198  -18.0294   26.0455 C   0  0  0  0  0  0  0  0  0  0  0  0
   12.0679  -18.9883   27.1543 C   0  0  0  0  0  0  0  0  0  0  0  0
   11.6337  -18.5816   28.2602 O   0  0  0  0  0  0  0  0  0  0  0  0
   12.4009  -17.1297   23.1894 C   0  0  0  0  0  0  0  0  0  0  0  0
   12.3824  -17.9328   22.0705 O   0  0  0  0  0  0  0  0  0  0  0  0
   12.2911  -20.3731   27.0354 O   0  0  0  0  0  0  0  0  0  0  0  0
   13.5096  -16.5687   23.4761 O   0  0  0  0  0  0  0  0  0  0  0  0
  1  2  1  0
  2  3  1  0
  3  4  1  6
  3  5  1  0
  5  7  1  0
  5  6  1  1
  7  8  2  0
 10  9  1  6
 10 12  1  0
 11 10  1  0
 11  7  1  0
 12 13  2  0
 12 14  1  0
 14 15  1  0
 15 16  1  1
 16 17  1  0
 18 22  1  0
 18 17  1  0
 19 18  2  0
 20 15  1  0
 20 21  1  0
 23 20  2  0
M  END
$$$$
