IAE.pdb
     RDKit          3D

 23 22  0  0  1  0  0  0  0  0999 V2000
    6.3708  -11.4600   27.5187 C   0  0  0  0  0  0  0  0  0  0  0  0
    5.8093  -12.6064   26.7429 C   0  0  0  0  0  0  0  0  0  0  0  0
    6.8203  -13.4142   25.9831 C   0  0  2  0  0  0  0  0  0  0  0  0
    7.4717  -12.4493   24.9858 C   0  0  0  0  0  0  0  0  0  0  0  0
    6.2120  -14.5414   25.2068 C   0  0  2  0  0  0  0  0  0  0  0  0
    5.5382  -15.5316   25.9980 N   0  0  0  0  0  0  0  0  0  0  0  0
    7.2723  -15.2049   24.4127 C   0  0  0  0  0  0  0  0  0  0  0  0
    8.0450  -16.0195   24.9861 O   0  0  0  0  0  0  0  0  0  0  0  0
    8.3788  -15.3270   20.7500 C   0  0  0  0  0  0  0  0  0  0  0  0
    8.3217  -15.7300   22.1924 C   0  0  2  0  0  0  0  0  0  0  0  0
    7.4540  -14.9564   23.0212 N   0  0  0  0  0  0  0  0  0  0  0  0
    9.7115  -15.7005   22.7912 C   0  0  0  0  0  0  0  0  0  0  0  0
   10.2415  -14.5877   22.9981 O   0  0  0  0  0  0  0  0  0  0  0  0
   10.3453  -16.9156   23.0839 N   0  0  0  0  0  0  0  0  0  0  0  0
   11.6443  -16.9789   23.7690 C   0  0  1  0  0  0  0  0  0  0  0  0
   11.6002  -17.9580   24.8806 C   0  0  0  0  0  0  0  0  0  0  0  0
   12.8685  -18.1443   25.6486 C   0  0  0  0  0  0  0  0  0  0  0  0
   12.7215  -19.1649   26.7206 C   0  0  0  0  0  0  0  0  0  0  0  0
   11.6178  -19.7330   26.9106 O   0  0  0  0  0  0  0  0  0  0  0  0
   12.7268  -17.1710   22.7796 C   0  0  0  0  0  0  0  0  0  0  0  0
   14.0331  -16.7672   22.9464 O   0  0  0  0  0  0  0  0  0  0  0  0
   13.7816  -19.5492   27.5632 O   0  0  0  0  0  0  0  0  0  0  0  0
   12.4410  -17.7541   21.6821 O   0  0  0  0  0  0  0  0  0  0  0  0
  1  2  1  0
  2  3  1  0
  3  4  1  6
  3  5  1  0
  5  7  1  0
  5  6  1  1
  7  8  2  0
 10  9  1  6
 10 12  1  0
 11 10  1  0
 11  7  1  0
 12 13  2  0
 12 14  1  0
 14 15  1  0
 15 16  1  1
 16 17  1  0
 18 22  1  0
 18 17  1  0
 19 18  2  0
 20 15  1  0
 20 21  1  0
 23 20  2  0
M  END
$$$$
