IAE.pdb
     RDKit          3D

 23 22  0  0  1  0  0  0  0  0999 V2000
    6.8894  -11.5230   27.2196 C   0  0  0  0  0  0  0  0  0  0  0  0
    6.2139  -12.6584   26.5223 C   0  0  0  0  0  0  0  0  0  0  0  0
    7.1339  -13.5915   25.7911 C   0  0  2  0  0  0  0  0  0  0  0  0
    7.7892  -12.7595   24.6828 C   0  0  0  0  0  0  0  0  0  0  0  0
    6.4197  -14.7398   25.1472 C   0  0  2  0  0  0  0  0  0  0  0  0
    5.7523  -15.6283   26.0558 N   0  0  0  0  0  0  0  0  0  0  0  0
    7.3901  -15.5190   24.3433 C   0  0  0  0  0  0  0  0  0  0  0  0
    8.0840  -16.4039   24.9135 O   0  0  0  0  0  0  0  0  0  0  0  0
    8.4631  -15.7668   20.6782 C   0  0  0  0  0  0  0  0  0  0  0  0
    8.4770  -16.0664   22.1465 C   0  0  2  0  0  0  0  0  0  0  0  0
    7.5711  -15.3057   22.9459 N   0  0  0  0  0  0  0  0  0  0  0  0
    9.8750  -15.8827   22.6969 C   0  0  0  0  0  0  0  0  0  0  0  0
   10.3281  -14.7210   22.7815 O   0  0  0  0  0  0  0  0  0  0  0  0
   10.6018  -17.0169   23.0830 N   0  0  0  0  0  0  0  0  0  0  0  0
   11.9972  -16.9381   23.5385 C   0  0  1  0  0  0  0  0  0  0  0  0
   12.2636  -17.9572   24.5810 C   0  0  0  0  0  0  0  0  0  0  0  0
   11.0714  -18.6800   25.1191 C   0  0  0  0  0  0  0  0  0  0  0  0
   11.0747  -18.7228   26.6059 C   0  0  0  0  0  0  0  0  0  0  0  0
   12.1560  -18.8223   27.2367 O   0  0  0  0  0  0  0  0  0  0  0  0
   12.9087  -16.9498   22.3738 C   0  0  0  0  0  0  0  0  0  0  0  0
   14.2516  -16.6464   22.4159 O   0  0  0  0  0  0  0  0  0  0  0  0
    9.8991  -18.6530   27.3771 O   0  0  0  0  0  0  0  0  0  0  0  0
   12.4255  -17.2631   21.2360 O   0  0  0  0  0  0  0  0  0  0  0  0
  1  2  1  0
  2  3  1  0
  3  4  1  6
  3  5  1  0
  5  7  1  0
  5  6  1  1
  7  8  2  0
 10  9  1  6
 10 12  1  0
 11 10  1  0
 11  7  1  0
 12 13  2  0
 12 14  1  0
 14 15  1  0
 15 16  1  1
 16 17  1  0
 18 22  1  0
 18 17  1  0
 19 18  2  0
 20 15  1  0
 20 21  1  0
 23 20  2  0
M  END
$$$$
