IAE.pdb
     RDKit          3D

 23 22  0  0  1  0  0  0  0  0999 V2000
    6.2797  -17.3852   19.6342 C   0  0  0  0  0  0  0  0  0  0  0  0
    6.4319  -15.9242   19.9061 C   0  0  0  0  0  0  0  0  0  0  0  0
    7.1098  -15.5871   21.2018 C   0  0  2  0  0  0  0  0  0  0  0  0
    6.2760  -16.2526   22.3027 C   0  0  0  0  0  0  0  0  0  0  0  0
    7.1534  -14.1160   21.4795 C   0  0  2  0  0  0  0  0  0  0  0  0
    7.8310  -13.3291   20.4883 N   0  0  0  0  0  0  0  0  0  0  0  0
    7.8039  -13.8941   22.7921 C   0  0  0  0  0  0  0  0  0  0  0  0
    9.0135  -14.2186   22.9366 O   0  0  0  0  0  0  0  0  0  0  0  0
    6.8634  -12.4389   26.2040 C   0  0  0  0  0  0  0  0  0  0  0  0
    7.7036  -13.1542   25.1899 C   0  0  2  0  0  0  0  0  0  0  0  0
    7.1125  -13.3270   23.9018 N   0  0  0  0  0  0  0  0  0  0  0  0
    8.1065  -14.5132   25.7206 C   0  0  0  0  0  0  0  0  0  0  0  0
    7.2706  -15.4407   25.6634 O   0  0  0  0  0  0  0  0  0  0  0  0
    9.3918  -14.6742   26.2551 N   0  0  0  0  0  0  0  0  0  0  0  0
    9.9127  -15.9857   26.6669 C   0  0  1  0  0  0  0  0  0  0  0  0
   11.0393  -16.3959   25.7957 C   0  0  0  0  0  0  0  0  0  0  0  0
   11.7218  -17.6757   26.1559 C   0  0  0  0  0  0  0  0  0  0  0  0
   12.8292  -17.9958   25.2159 C   0  0  0  0  0  0  0  0  0  0  0  0
   13.8044  -17.2143   25.0925 O   0  0  0  0  0  0  0  0  0  0  0  0
   10.1851  -15.9858   28.1206 C   0  0  0  0  0  0  0  0  0  0  0  0
   10.4487  -17.1063   28.8769 O   0  0  0  0  0  0  0  0  0  0  0  0
   12.8540  -19.1637   24.4304 O   0  0  0  0  0  0  0  0  0  0  0  0
   10.1776  -14.8673   28.7332 O   0  0  0  0  0  0  0  0  0  0  0  0
  1  2  1  0
  2  3  1  0
  3  4  1  1
  3  5  1  0
  5  7  1  0
  5  6  1  6
  7  8  2  0
 10  9  1  1
 10 12  1  0
 11 10  1  0
 11  7  1  0
 12 13  2  0
 12 14  1  0
 14 15  1  0
 15 16  1  6
 16 17  1  0
 18 22  1  0
 18 17  1  0
 19 18  2  0
 20 15  1  0
 20 21  1  0
 23 20  2  0
M  END
$$$$
