IAE.pdb
     RDKit          3D

 23 22  0  0  1  0  0  0  0  0999 V2000
    6.7680  -11.6462   27.0158 C   0  0  0  0  0  0  0  0  0  0  0  0
    6.1583  -12.8243   26.3289 C   0  0  0  0  0  0  0  0  0  0  0  0
    7.1371  -13.7503   25.6683 C   0  0  2  0  0  0  0  0  0  0  0  0
    7.8736  -12.9105   24.6183 C   0  0  0  0  0  0  0  0  0  0  0  0
    6.4809  -14.8986   24.9654 C   0  0  2  0  0  0  0  0  0  0  0  0
    5.7637  -15.8043   25.8175 N   0  0  0  0  0  0  0  0  0  0  0  0
    7.5120  -15.6585   24.2209 C   0  0  0  0  0  0  0  0  0  0  0  0
    8.2042  -16.5133   24.8371 O   0  0  0  0  0  0  0  0  0  0  0  0
    8.8657  -15.8250   20.6442 C   0  0  0  0  0  0  0  0  0  0  0  0
    8.7183  -16.2037   22.0867 C   0  0  2  0  0  0  0  0  0  0  0  0
    7.7534  -15.4594   22.8305 N   0  0  0  0  0  0  0  0  0  0  0  0
   10.0553  -16.0936   22.7877 C   0  0  0  0  0  0  0  0  0  0  0  0
   10.4629  -14.9558   23.1061 O   0  0  0  0  0  0  0  0  0  0  0  0
   10.7795  -17.2651   23.0461 N   0  0  0  0  0  0  0  0  0  0  0  0
   11.9154  -17.2969   23.9786 C   0  0  1  0  0  0  0  0  0  0  0  0
   11.6199  -18.1818   25.1301 C   0  0  0  0  0  0  0  0  0  0  0  0
   12.7342  -18.3958   26.1027 C   0  0  0  0  0  0  0  0  0  0  0  0
   12.3374  -19.3109   27.2061 C   0  0  0  0  0  0  0  0  0  0  0  0
   12.3262  -20.5540   27.0284 O   0  0  0  0  0  0  0  0  0  0  0  0
   13.1641  -17.5886   23.2416 C   0  0  0  0  0  0  0  0  0  0  0  0
   14.4284  -17.2255   23.6504 O   0  0  0  0  0  0  0  0  0  0  0  0
   11.9633  -18.8535   28.4838 O   0  0  0  0  0  0  0  0  0  0  0  0
   13.0768  -18.2249   22.1399 O   0  0  0  0  0  0  0  0  0  0  0  0
  1  2  1  0
  2  3  1  0
  3  4  1  6
  3  5  1  0
  5  7  1  0
  5  6  1  1
  7  8  2  0
 10  9  1  6
 10 12  1  0
 11 10  1  0
 11  7  1  0
 12 13  2  0
 12 14  1  0
 14 15  1  0
 15 16  1  1
 16 17  1  0
 18 22  1  0
 18 17  1  0
 19 18  2  0
 20 15  1  0
 20 21  1  0
 23 20  2  0
M  END
$$$$
