IAE.pdb
     RDKit          3D

 23 22  0  0  1  0  0  0  0  0999 V2000
    6.9405  -11.7285   27.6243 C   0  0  0  0  0  0  0  0  0  0  0  0
    6.1710  -12.6799   26.7674 C   0  0  0  0  0  0  0  0  0  0  0  0
    7.0095  -13.6228   25.9552 C   0  0  2  0  0  0  0  0  0  0  0  0
    7.8133  -12.7486   24.9859 C   0  0  0  0  0  0  0  0  0  0  0  0
    6.1975  -14.5861   25.1453 C   0  0  2  0  0  0  0  0  0  0  0  0
    5.3644  -15.4718   25.9082 N   0  0  0  0  0  0  0  0  0  0  0  0
    7.1103  -15.3951   24.3042 C   0  0  0  0  0  0  0  0  0  0  0  0
    7.7130  -16.3732   24.8236 O   0  0  0  0  0  0  0  0  0  0  0  0
    8.2507  -15.4856   20.6523 C   0  0  0  0  0  0  0  0  0  0  0  0
    8.2195  -15.8676   22.1011 C   0  0  2  0  0  0  0  0  0  0  0  0
    7.3352  -15.1090   22.9263 N   0  0  0  0  0  0  0  0  0  0  0  0
    9.6130  -15.7849   22.6861 C   0  0  0  0  0  0  0  0  0  0  0  0
   10.0831  -14.6535   22.9334 O   0  0  0  0  0  0  0  0  0  0  0  0
   10.3170  -16.9734   22.9215 N   0  0  0  0  0  0  0  0  0  0  0  0
   11.7056  -16.9816   23.4039 C   0  0  1  0  0  0  0  0  0  0  0  0
   11.8635  -17.9423   24.5212 C   0  0  0  0  0  0  0  0  0  0  0  0
   11.0296  -17.6878   25.7350 C   0  0  0  0  0  0  0  0  0  0  0  0
   11.3156  -18.6665   26.8179 C   0  0  0  0  0  0  0  0  0  0  0  0
   12.4968  -18.8788   27.1875 O   0  0  0  0  0  0  0  0  0  0  0  0
   12.6333  -17.1548   22.2651 C   0  0  0  0  0  0  0  0  0  0  0  0
   13.9811  -16.8718   22.2915 O   0  0  0  0  0  0  0  0  0  0  0  0
   10.3078  -19.3932   27.4798 O   0  0  0  0  0  0  0  0  0  0  0  0
   12.1607  -17.5995   21.1674 O   0  0  0  0  0  0  0  0  0  0  0  0
  1  2  1  0
  2  3  1  0
  3  4  1  6
  3  5  1  0
  5  7  1  0
  5  6  1  1
  7  8  2  0
 10  9  1  6
 10 12  1  0
 11 10  1  0
 11  7  1  0
 12 13  2  0
 12 14  1  0
 14 15  1  0
 15 16  1  1
 16 17  1  0
 18 22  1  0
 18 17  1  0
 19 18  2  0
 20 15  1  0
 20 21  1  0
 23 20  2  0
M  END
$$$$
