IAE.pdb
     RDKit          3D

 23 22  0  0  1  0  0  0  0  0999 V2000
    6.6964  -11.6558   27.4361 C   0  0  0  0  0  0  0  0  0  0  0  0
    6.0460  -12.7750   26.6904 C   0  0  0  0  0  0  0  0  0  0  0  0
    6.9860  -13.6546   25.9194 C   0  0  2  0  0  0  0  0  0  0  0  0
    7.6448  -12.7534   24.8686 C   0  0  0  0  0  0  0  0  0  0  0  0
    6.2936  -14.7723   25.2021 C   0  0  2  0  0  0  0  0  0  0  0  0
    5.6435  -15.7301   26.0510 N   0  0  0  0  0  0  0  0  0  0  0  0
    7.2784  -15.4795   24.3507 C   0  0  0  0  0  0  0  0  0  0  0  0
    8.0143  -16.3608   24.8715 O   0  0  0  0  0  0  0  0  0  0  0  0
    8.3170  -15.5099   20.6667 C   0  0  0  0  0  0  0  0  0  0  0  0
    8.3431  -15.8959   22.1146 C   0  0  2  0  0  0  0  0  0  0  0  0
    7.4275  -15.2006   22.9610 N   0  0  0  0  0  0  0  0  0  0  0  0
    9.7402  -15.7199   22.6699 C   0  0  0  0  0  0  0  0  0  0  0  0
   10.1071  -14.5690   22.9908 O   0  0  0  0  0  0  0  0  0  0  0  0
   10.5621  -16.8477   22.7969 N   0  0  0  0  0  0  0  0  0  0  0  0
   11.8672  -16.7966   23.4715 C   0  0  1  0  0  0  0  0  0  0  0  0
   12.0095  -17.9284   24.4176 C   0  0  0  0  0  0  0  0  0  0  0  0
   13.3142  -18.0266   25.1397 C   0  0  0  0  0  0  0  0  0  0  0  0
   13.3394  -19.1764   26.0830 C   0  0  0  0  0  0  0  0  0  0  0  0
   14.2539  -20.0343   26.0155 O   0  0  0  0  0  0  0  0  0  0  0  0
   12.9461  -16.6497   22.4707 C   0  0  0  0  0  0  0  0  0  0  0  0
   14.1758  -16.0770   22.7100 O   0  0  0  0  0  0  0  0  0  0  0  0
   12.3687  -19.3673   27.0845 O   0  0  0  0  0  0  0  0  0  0  0  0
   12.7335  -17.0826   21.2901 O   0  0  0  0  0  0  0  0  0  0  0  0
  1  2  1  0
  2  3  1  0
  3  4  1  6
  3  5  1  0
  5  7  1  0
  5  6  1  1
  7  8  2  0
 10  9  1  6
 10 12  1  0
 11 10  1  0
 11  7  1  0
 12 13  2  0
 12 14  1  0
 14 15  1  0
 15 16  1  6
 16 17  1  0
 18 22  1  0
 18 17  1  0
 19 18  2  0
 20 15  1  0
 20 21  1  0
 23 20  2  0
M  END
$$$$
