IAE.pdb
     RDKit          3D

 23 22  0  0  1  0  0  0  0  0999 V2000
    6.4714  -11.5144   27.3818 C   0  0  0  0  0  0  0  0  0  0  0  0
    5.9306  -12.7552   26.7498 C   0  0  0  0  0  0  0  0  0  0  0  0
    6.9080  -13.5117   25.8988 C   0  0  2  0  0  0  0  0  0  0  0  0
    7.2906  -12.5690   24.7520 C   0  0  0  0  0  0  0  0  0  0  0  0
    6.3293  -14.7570   25.3009 C   0  0  2  0  0  0  0  0  0  0  0  0
    5.9707  -15.7763   26.2459 N   0  0  0  0  0  0  0  0  0  0  0  0
    7.3001  -15.3218   24.3346 C   0  0  0  0  0  0  0  0  0  0  0  0
    8.2237  -16.0662   24.7616 O   0  0  0  0  0  0  0  0  0  0  0  0
    7.8962  -15.2361   20.5542 C   0  0  0  0  0  0  0  0  0  0  0  0
    8.1357  -15.6143   21.9845 C   0  0  2  0  0  0  0  0  0  0  0  0
    7.2309  -15.0545   22.9365 N   0  0  0  0  0  0  0  0  0  0  0  0
    9.5471  -15.2434   22.3863 C   0  0  0  0  0  0  0  0  0  0  0  0
    9.7299  -14.1445   22.9530 O   0  0  0  0  0  0  0  0  0  0  0  0
   10.5860  -16.1406   22.1046 N   0  0  0  0  0  0  0  0  0  0  0  0
   11.7293  -16.3278   23.0094 C   0  0  1  0  0  0  0  0  0  0  0  0
   11.2707  -16.7960   24.3386 C   0  0  0  0  0  0  0  0  0  0  0  0
   12.3384  -17.0710   25.3474 C   0  0  0  0  0  0  0  0  0  0  0  0
   11.7802  -17.6417   26.6024 C   0  0  0  0  0  0  0  0  0  0  0  0
   10.9981  -18.6234   26.5618 O   0  0  0  0  0  0  0  0  0  0  0  0
   12.7618  -17.1575   22.3515 C   0  0  0  0  0  0  0  0  0  0  0  0
   12.5208  -18.0833   21.3604 O   0  0  0  0  0  0  0  0  0  0  0  0
   12.0877  -17.1333   27.8786 O   0  0  0  0  0  0  0  0  0  0  0  0
   13.9735  -17.0146   22.7223 O   0  0  0  0  0  0  0  0  0  0  0  0
  1  2  1  0
  2  3  1  0
  3  4  1  6
  3  5  1  0
  5  7  1  0
  5  6  1  1
  7  8  2  0
 10  9  1  6
 10 12  1  0
 11 10  1  0
 11  7  1  0
 12 13  2  0
 12 14  1  0
 14 15  1  0
 15 16  1  1
 16 17  1  0
 18 22  1  0
 18 17  1  0
 19 18  2  0
 20 15  1  0
 20 21  1  0
 23 20  2  0
M  END
$$$$
