IAE.pdb
     RDKit          3D

 23 22  0  0  1  0  0  0  0  0999 V2000
    6.9629  -11.6279   26.3226 C   0  0  0  0  0  0  0  0  0  0  0  0
    6.5558  -12.8277   25.5312 C   0  0  0  0  0  0  0  0  0  0  0  0
    6.6042  -14.1277   26.2793 C   0  0  2  0  0  0  0  0  0  0  0  0
    8.0687  -14.3297   26.6848 C   0  0  0  0  0  0  0  0  0  0  0  0
    6.1875  -15.3022   25.4486 C   0  0  2  0  0  0  0  0  0  0  0  0
    5.9975  -16.5253   26.1756 N   0  0  0  0  0  0  0  0  0  0  0  0
    7.2016  -15.5272   24.3921 C   0  0  0  0  0  0  0  0  0  0  0  0
    8.1874  -16.2727   24.6409 O   0  0  0  0  0  0  0  0  0  0  0  0
    7.8643  -14.3559   20.8109 C   0  0  0  0  0  0  0  0  0  0  0  0
    8.0396  -15.1802   22.0502 C   0  0  2  0  0  0  0  0  0  0  0  0
    7.1062  -14.9307   23.1013 N   0  0  0  0  0  0  0  0  0  0  0  0
    9.4393  -14.9982   22.5966 C   0  0  0  0  0  0  0  0  0  0  0  0
    9.7724  -13.8632   23.0003 O   0  0  0  0  0  0  0  0  0  0  0  0
   10.3013  -16.1027   22.6236 N   0  0  0  0  0  0  0  0  0  0  0  0
   11.6717  -16.0170   23.1486 C   0  0  1  0  0  0  0  0  0  0  0  0
   11.7399  -16.5725   24.5208 C   0  0  0  0  0  0  0  0  0  0  0  0
   11.2513  -17.9744   24.6917 C   0  0  0  0  0  0  0  0  0  0  0  0
   11.5644  -18.5085   26.0442 C   0  0  0  0  0  0  0  0  0  0  0  0
   11.1369  -19.6352   26.3975 O   0  0  0  0  0  0  0  0  0  0  0  0
   12.6225  -16.5889   22.1706 C   0  0  0  0  0  0  0  0  0  0  0  0
   12.2692  -17.3041   21.0477 O   0  0  0  0  0  0  0  0  0  0  0  0
   12.3405  -17.8054   26.9849 O   0  0  0  0  0  0  0  0  0  0  0  0
   13.8695  -16.4136   22.3718 O   0  0  0  0  0  0  0  0  0  0  0  0
  1  2  1  0
  2  3  1  0
  3  4  1  6
  3  5  1  0
  5  7  1  0
  5  6  1  1
  7  8  2  0
 10  9  1  6
 10 12  1  0
 11 10  1  0
 11  7  1  0
 12 13  2  0
 12 14  1  0
 14 15  1  0
 15 16  1  1
 16 17  1  0
 18 22  1  0
 18 17  1  0
 19 18  2  0
 20 15  1  0
 20 21  1  0
 23 20  2  0
M  END
$$$$
