IAE.pdb
     RDKit          3D

 23 22  0  0  1  0  0  0  0  0999 V2000
    7.3225  -15.9828   17.4881 C   0  0  0  0  0  0  0  0  0  0  0  0
    7.2970  -14.6889   18.2342 C   0  0  0  0  0  0  0  0  0  0  0  0
    7.7619  -14.7686   19.6588 C   0  0  2  0  0  0  0  0  0  0  0  0
    6.8698  -15.8138   20.3384 C   0  0  0  0  0  0  0  0  0  0  0  0
    7.6104  -13.4771   20.4019 C   0  0  2  0  0  0  0  0  0  0  0  0
    8.3223  -12.3644   19.8402 N   0  0  0  0  0  0  0  0  0  0  0  0
    8.0569  -13.6728   21.8010 C   0  0  0  0  0  0  0  0  0  0  0  0
    9.2644  -13.9603   22.0218 O   0  0  0  0  0  0  0  0  0  0  0  0
    6.5905  -13.3226   25.3111 C   0  0  0  0  0  0  0  0  0  0  0  0
    7.5782  -13.7430   24.2653 C   0  0  2  0  0  0  0  0  0  0  0  0
    7.1712  -13.5494   22.9106 N   0  0  0  0  0  0  0  0  0  0  0  0
    7.9408  -15.2003   24.4550 C   0  0  0  0  0  0  0  0  0  0  0  0
    7.1341  -16.0663   24.0533 O   0  0  0  0  0  0  0  0  0  0  0  0
    9.1577  -15.5172   25.0735 N   0  0  0  0  0  0  0  0  0  0  0  0
    9.5562  -16.9030   25.3590 C   0  0  1  0  0  0  0  0  0  0  0  0
   10.6429  -17.3313   24.4469 C   0  0  0  0  0  0  0  0  0  0  0  0
   11.7954  -16.3907   24.3039 C   0  0  0  0  0  0  0  0  0  0  0  0
   12.8209  -16.9115   23.3607 C   0  0  0  0  0  0  0  0  0  0  0  0
   12.6534  -16.8110   22.1202 O   0  0  0  0  0  0  0  0  0  0  0  0
    9.8240  -17.0624   26.8048 C   0  0  0  0  0  0  0  0  0  0  0  0
   10.1177  -18.2545   27.4292 O   0  0  0  0  0  0  0  0  0  0  0  0
   14.0114  -17.5294   23.7879 O   0  0  0  0  0  0  0  0  0  0  0  0
    9.7820  -16.0225   27.5418 O   0  0  0  0  0  0  0  0  0  0  0  0
  1  2  1  0
  2  3  1  0
  3  4  1  1
  3  5  1  0
  5  7  1  0
  5  6  1  6
  7  8  2  0
 10  9  1  1
 10 12  1  0
 11 10  1  0
 11  7  1  0
 12 13  2  0
 12 14  1  0
 14 15  1  0
 15 16  1  6
 16 17  1  0
 18 22  1  0
 18 17  1  0
 19 18  2  0
 20 15  1  0
 20 21  1  0
 23 20  2  0
M  END
$$$$
