IAE.pdb
     RDKit          3D

 23 22  0  0  1  0  0  0  0  0999 V2000
    8.2971  -11.6371   27.0617 C   0  0  0  0  0  0  0  0  0  0  0  0
    7.1549  -12.3491   26.4137 C   0  0  0  0  0  0  0  0  0  0  0  0
    7.3841  -13.8085   26.1504 C   0  0  2  0  0  0  0  0  0  0  0  0
    8.5911  -13.8854   25.2083 C   0  0  0  0  0  0  0  0  0  0  0  0
    6.2258  -14.4751   25.4742 C   0  0  2  0  0  0  0  0  0  0  0  0
    4.9599  -14.3088   26.1302 N   0  0  0  0  0  0  0  0  0  0  0  0
    6.5119  -15.9234   25.3482 C   0  0  0  0  0  0  0  0  0  0  0  0
    6.5286  -16.6352   26.3886 O   0  0  0  0  0  0  0  0  0  0  0  0
    6.8834  -18.4730   22.5361 C   0  0  0  0  0  0  0  0  0  0  0  0
    6.9696  -17.9504   23.9381 C   0  0  2  0  0  0  0  0  0  0  0  0
    6.7708  -16.5451   24.0922 N   0  0  0  0  0  0  0  0  0  0  0  0
    8.3081  -18.3161   24.5431 C   0  0  0  0  0  0  0  0  0  0  0  0
    8.4604  -19.4767   24.9812 O   0  0  0  0  0  0  0  0  0  0  0  0
    9.3148  -17.3426   24.5907 N   0  0  0  0  0  0  0  0  0  0  0  0
   10.6439  -17.6140   25.1572 C   0  0  1  0  0  0  0  0  0  0  0  0
   11.7058  -17.0656   24.2810 C   0  0  0  0  0  0  0  0  0  0  0  0
   11.3162  -16.7849   22.8659 C   0  0  0  0  0  0  0  0  0  0  0  0
   12.4880  -16.3973   22.0358 C   0  0  0  0  0  0  0  0  0  0  0  0
   13.3202  -15.5593   22.4625 O   0  0  0  0  0  0  0  0  0  0  0  0
   10.6857  -17.1846   26.5719 C   0  0  0  0  0  0  0  0  0  0  0  0
   11.5814  -17.6430   27.5126 O   0  0  0  0  0  0  0  0  0  0  0  0
   12.7322  -16.9333   20.7572 O   0  0  0  0  0  0  0  0  0  0  0  0
    9.8307  -16.3235   26.9639 O   0  0  0  0  0  0  0  0  0  0  0  0
  1  2  1  0
  2  3  1  0
  3  4  1  6
  3  5  1  0
  5  7  1  0
  5  6  1  1
  7  8  2  0
 10  9  1  6
 10 12  1  0
 11 10  1  0
 11  7  1  0
 12 13  2  0
 12 14  1  0
 14 15  1  0
 15 16  1  6
 16 17  1  0
 18 22  1  0
 18 17  1  0
 19 18  2  0
 20 15  1  0
 20 21  1  0
 23 20  2  0
M  END
$$$$
