FHE.pdb
     RDKit          3D

 31 32  0  0  1  0  0  0  0  0999 V2000
   15.2560  -13.9871    5.2180 N   0  0  0  0  0  0  0  0  0  0  0  0
   16.0644  -15.1606    5.0834 C   0  0  1  0  0  0  0  0  0  0  0  0
   17.5195  -14.8766    5.3862 C   0  0  0  0  0  0  0  0  0  0  0  0
   18.1696  -14.0619    4.3421 C   0  0  0  0  0  0  0  0  0  0  0  0
   18.6252  -12.7864    4.5960 C   0  0  0  0  0  0  0  0  0  0  0  0
   19.2334  -12.0214    3.6262 C   0  0  0  0  0  0  0  0  0  0  0  0
   19.3894  -12.5590    2.3537 C   0  0  0  0  0  0  0  0  0  0  0  0
   18.9452  -13.8386    2.0566 C   0  0  0  0  0  0  0  0  0  0  0  0
   18.3389  -14.5765    3.0580 C   0  0  0  0  0  0  0  0  0  0  0  0
   15.5569  -16.2516    5.9557 C   0  0  0  0  0  0  0  0  0  0  0  0
   15.2574  -16.0580    7.1533 O   0  0  0  0  0  0  0  0  0  0  0  0
   15.4106  -17.5585    5.3972 N   0  0  0  0  0  0  0  0  0  0  0  0
   15.0473  -18.7058    6.1848 C   0  0  1  0  0  0  0  0  0  0  0  0
   14.2907  -19.7424    5.3858 C   0  0  0  0  0  0  0  0  0  0  0  0
   12.9095  -19.2741    5.0602 C   0  0  0  0  0  0  0  0  0  0  0  0
   12.3782  -18.0823    5.5011 C   0  0  0  0  0  0  0  0  0  0  0  0
   11.1364  -17.9917    5.0230 N   0  0  0  0  0  0  0  0  0  0  0  0
   10.8717  -19.0973    4.2916 C   0  0  0  0  0  0  0  0  0  0  0  0
   11.9675  -19.8575    4.3326 N   0  0  0  0  0  0  0  0  0  0  0  0
   16.2037  -19.3650    6.8034 C   0  0  0  0  0  0  0  0  0  0  0  0
   17.3470  -18.8844    6.6227 O   0  0  0  0  0  0  0  0  0  0  0  0
   16.0281  -20.5265    7.5925 N   0  0  0  0  0  0  0  0  0  0  0  0
   17.0877  -20.9822    8.4756 C   0  0  1  0  0  0  0  0  0  0  0  0
   17.3830  -19.8579    9.4443 C   0  0  0  0  0  0  0  0  0  0  0  0
   18.3996  -20.2524   10.4677 C   0  0  0  0  0  0  0  0  0  0  0  0
   18.5924  -19.0687   11.3735 C   0  0  0  0  0  0  0  0  0  0  0  0
   17.5689  -18.6377   11.9487 O   0  0  0  0  0  0  0  0  0  0  0  0
   16.6809  -22.2147    9.1549 C   0  0  0  0  0  0  0  0  0  0  0  0
   17.5860  -23.1785    9.6041 O   0  0  0  0  0  0  0  0  0  0  0  0
   19.8246  -18.4839   11.5660 O   0  0  0  0  0  0  0  0  0  0  0  0
   15.4633  -22.4361    9.3534 O   0  0  0  0  0  0  0  0  0  0  0  0
  2  1  1  1
  2  3  1  0
  3  4  1  0
  4  5  2  0
  5  6  1  0
  7  6  2  0
  8  7  1  0
  9  8  2  0
  9  4  1  0
 10 11  2  0
 10  2  1  0
 12 10  1  0
 13 12  1  0
 13 14  1  6
 15 16  2  0
 15 14  1  0
 17 16  1  0
 18 19  2  0
 18 17  1  0
 19 15  1  0
 20 13  1  0
 20 22  1  0
 21 20  2  0
 23 22  1  0
 23 28  1  0
 23 24  1  1
 25 24  1  0
 26 27  2  0
 26 25  1  0
 28 29  1  0
 30 26  1  0
 31 28  2  0
M  END
$$$$
