FHE.pdb
     RDKit          3D

 31 32  0  0  1  0  0  0  0  0999 V2000
   26.5622  -22.5399  -11.2587 N   0  0  0  0  0  0  0  0  0  0  0  0
   25.8427  -21.3444  -10.9394 C   0  0  1  0  0  0  0  0  0  0  0  0
   26.7441  -20.1290  -10.9466 C   0  0  0  0  0  0  0  0  0  0  0  0
   27.5248  -19.9920   -9.7024 C   0  0  0  0  0  0  0  0  0  0  0  0
   26.9982  -19.3947   -8.5777 C   0  0  0  0  0  0  0  0  0  0  0  0
   27.7213  -19.2644   -7.4133 C   0  0  0  0  0  0  0  0  0  0  0  0
   29.0224  -19.7530   -7.3784 C   0  0  0  0  0  0  0  0  0  0  0  0
   29.5899  -20.3609   -8.4881 C   0  0  0  0  0  0  0  0  0  0  0  0
   28.8313  -20.4731   -9.6400 C   0  0  0  0  0  0  0  0  0  0  0  0
   24.7038  -21.1506  -11.8743 C   0  0  0  0  0  0  0  0  0  0  0  0
   24.7511  -21.5290  -13.0643 O   0  0  0  0  0  0  0  0  0  0  0  0
   23.5231  -20.5107  -11.3867 N   0  0  0  0  0  0  0  0  0  0  0  0
   22.3034  -20.4440  -12.1458 C   0  0  1  0  0  0  0  0  0  0  0  0
   21.0980  -20.1477  -11.2829 C   0  0  0  0  0  0  0  0  0  0  0  0
   20.8066  -21.2793  -10.3514 C   0  0  0  0  0  0  0  0  0  0  0  0
   21.5158  -22.4599  -10.3309 C   0  0  0  0  0  0  0  0  0  0  0  0
   20.9856  -23.2337   -9.3828 N   0  0  0  0  0  0  0  0  0  0  0  0
   19.9594  -22.5699   -8.8051 C   0  0  0  0  0  0  0  0  0  0  0  0
   19.8750  -21.3859   -9.4146 N   0  0  0  0  0  0  0  0  0  0  0  0
   22.3506  -19.4431  -13.2184 C   0  0  0  0  0  0  0  0  0  0  0  0
   22.5581  -18.2430  -12.9223 O   0  0  0  0  0  0  0  0  0  0  0  0
   22.1643  -19.8294  -14.5669 N   0  0  0  0  0  0  0  0  0  0  0  0
   22.3351  -18.8636  -15.6385 C   0  0  1  0  0  0  0  0  0  0  0  0
   23.5982  -19.2350  -16.3841 C   0  0  0  0  0  0  0  0  0  0  0  0
   23.3993  -20.4273  -17.2646 C   0  0  0  0  0  0  0  0  0  0  0  0
   24.7656  -20.9312  -17.6362 C   0  0  0  0  0  0  0  0  0  0  0  0
   24.8052  -21.9964  -18.2903 O   0  0  0  0  0  0  0  0  0  0  0  0
   21.1538  -18.8595  -16.5048 C   0  0  0  0  0  0  0  0  0  0  0  0
   20.9629  -17.9402  -17.5385 O   0  0  0  0  0  0  0  0  0  0  0  0
   25.9168  -20.2636  -17.2805 O   0  0  0  0  0  0  0  0  0  0  0  0
   20.2559  -19.7156  -16.3269 O   0  0  0  0  0  0  0  0  0  0  0  0
  2  1  1  6
  2  3  1  0
  3  4  1  0
  4  5  2  0
  5  6  1  0
  7  6  2  0
  8  7  1  0
  9  8  2  0
  9  4  1  0
 10 11  2  0
 10  2  1  0
 12 10  1  0
 13 12  1  0
 13 14  1  1
 15 16  2  0
 15 14  1  0
 17 16  1  0
 18 19  2  0
 18 17  1  0
 19 15  1  0
 20 13  1  0
 20 22  1  0
 21 20  2  0
 23 22  1  0
 23 28  1  0
 23 24  1  6
 25 24  1  0
 26 27  2  0
 26 25  1  0
 28 29  1  0
 30 26  1  0
 31 28  2  0
M  END
$$$$
