FHE.pdb
     RDKit          3D

 31 32  0  0  1  0  0  0  0  0999 V2000
   26.0489  -18.5339   -7.7644 N   0  0  0  0  0  0  0  0  0  0  0  0
   26.8564  -19.5797   -8.3147 C   0  0  1  0  0  0  0  0  0  0  0  0
   26.9153  -20.7831   -7.3992 C   0  0  0  0  0  0  0  0  0  0  0  0
   27.6667  -20.5174   -6.1577 C   0  0  0  0  0  0  0  0  0  0  0  0
   27.0373  -20.4201   -4.9357 C   0  0  0  0  0  0  0  0  0  0  0  0
   27.7328  -20.1731   -3.7733 C   0  0  0  0  0  0  0  0  0  0  0  0
   29.1126  -20.0181   -3.8423 C   0  0  0  0  0  0  0  0  0  0  0  0
   29.7846  -20.1087   -5.0520 C   0  0  0  0  0  0  0  0  0  0  0  0
   29.0506  -20.3580   -6.1983 C   0  0  0  0  0  0  0  0  0  0  0  0
   26.3605  -19.9750   -9.6589 C   0  0  0  0  0  0  0  0  0  0  0  0
   25.1469  -19.9408   -9.9542 O   0  0  0  0  0  0  0  0  0  0  0  0
   27.3098  -20.4056  -10.6359 N   0  0  0  0  0  0  0  0  0  0  0  0
   27.0213  -20.4285  -12.0448 C   0  0  1  0  0  0  0  0  0  0  0  0
   28.2398  -20.7449  -12.8818 C   0  0  0  0  0  0  0  0  0  0  0  0
   27.9274  -20.6775  -14.3415 C   0  0  0  0  0  0  0  0  0  0  0  0
   26.6636  -20.4695  -14.8481 C   0  0  0  0  0  0  0  0  0  0  0  0
   26.7564  -20.4681  -16.1786 N   0  0  0  0  0  0  0  0  0  0  0  0
   28.0478  -20.6702  -16.5233 C   0  0  0  0  0  0  0  0  0  0  0  0
   28.7349  -20.7939  -15.3862 N   0  0  0  0  0  0  0  0  0  0  0  0
   25.9671  -21.3869  -12.3979 C   0  0  0  0  0  0  0  0  0  0  0  0
   25.7060  -22.3234  -11.6069 O   0  0  0  0  0  0  0  0  0  0  0  0
   25.2566  -21.2536  -13.6144 N   0  0  0  0  0  0  0  0  0  0  0  0
   23.8896  -21.7327  -13.7235 C   0  0  1  0  0  0  0  0  0  0  0  0
   23.0649  -20.9820  -12.7008 C   0  0  0  0  0  0  0  0  0  0  0  0
   21.6203  -21.3646  -12.7555 C   0  0  0  0  0  0  0  0  0  0  0  0
   20.9008  -20.5061  -11.7536 C   0  0  0  0  0  0  0  0  0  0  0  0
   21.3290  -19.3395  -11.6134 O   0  0  0  0  0  0  0  0  0  0  0  0
   23.3972  -21.5414  -15.0899 C   0  0  0  0  0  0  0  0  0  0  0  0
   23.5744  -20.3591  -15.8114 O   0  0  0  0  0  0  0  0  0  0  0  0
   19.8276  -20.9697  -11.0249 O   0  0  0  0  0  0  0  0  0  0  0  0
   22.7826  -22.4732  -15.6598 O   0  0  0  0  0  0  0  0  0  0  0  0
  2  1  1  1
  2  3  1  0
  3  4  1  0
  4  5  2  0
  5  6  1  0
  7  6  2  0
  8  7  1  0
  9  8  2  0
  9  4  1  0
 10 11  2  0
 10  2  1  0
 12 10  1  0
 13 12  1  0
 13 14  1  6
 15 16  2  0
 15 14  1  0
 17 16  1  0
 18 19  2  0
 18 17  1  0
 19 15  1  0
 20 13  1  0
 20 22  1  0
 21 20  2  0
 23 22  1  0
 23 28  1  0
 23 24  1  1
 25 24  1  0
 26 27  2  0
 26 25  1  0
 28 29  1  0
 30 26  1  0
 31 28  2  0
M  END
$$$$
