FHE.pdb
     RDKit          3D

 31 32  0  0  1  0  0  0  0  0999 V2000
   26.2364  -35.9735  -10.1724 N   0  0  0  0  0  0  0  0  0  0  0  0
   25.5907  -35.2130   -9.1461 C   0  0  1  0  0  0  0  0  0  0  0  0
   24.0961  -35.4486   -9.1302 C   0  0  0  0  0  0  0  0  0  0  0  0
   23.4319  -34.9737  -10.3590 C   0  0  0  0  0  0  0  0  0  0  0  0
   23.2699  -33.6310  -10.6234 C   0  0  0  0  0  0  0  0  0  0  0  0
   22.6517  -33.1814  -11.7685 C   0  0  0  0  0  0  0  0  0  0  0  0
   22.1788  -34.1168  -12.6819 C   0  0  0  0  0  0  0  0  0  0  0  0
   22.3217  -35.4772  -12.4540 C   0  0  0  0  0  0  0  0  0  0  0  0
   22.9486  -35.8899  -11.2914 C   0  0  0  0  0  0  0  0  0  0  0  0
   26.1780  -35.5200   -7.8158 C   0  0  0  0  0  0  0  0  0  0  0  0
   26.2901  -36.6912   -7.3949 O   0  0  0  0  0  0  0  0  0  0  0  0
   26.6249  -34.4346   -7.0013 N   0  0  0  0  0  0  0  0  0  0  0  0
   27.2345  -34.6274   -5.7130 C   0  0  1  0  0  0  0  0  0  0  0  0
   27.7591  -33.3393   -5.1204 C   0  0  0  0  0  0  0  0  0  0  0  0
   28.5605  -33.5973   -3.8858 C   0  0  0  0  0  0  0  0  0  0  0  0
   28.7530  -34.8480   -3.3419 C   0  0  0  0  0  0  0  0  0  0  0  0
   29.5117  -34.7037   -2.2545 N   0  0  0  0  0  0  0  0  0  0  0  0
   29.8020  -33.3926   -2.0993 C   0  0  0  0  0  0  0  0  0  0  0  0
   29.2104  -32.7456   -3.1053 N   0  0  0  0  0  0  0  0  0  0  0  0
   26.3265  -35.2397   -4.7357 C   0  0  0  0  0  0  0  0  0  0  0  0
   25.1280  -34.8743   -4.7063 O   0  0  0  0  0  0  0  0  0  0  0  0
   26.7993  -36.2284   -3.8405 N   0  0  0  0  0  0  0  0  0  0  0  0
   25.8734  -36.9431   -2.9790 C   0  0  1  0  0  0  0  0  0  0  0  0
   26.5394  -38.2415   -2.5788 C   0  0  0  0  0  0  0  0  0  0  0  0
   25.6323  -39.1095   -1.7664 C   0  0  0  0  0  0  0  0  0  0  0  0
   26.4150  -40.3385   -1.3980 C   0  0  0  0  0  0  0  0  0  0  0  0
   27.2540  -40.2075   -0.4799 O   0  0  0  0  0  0  0  0  0  0  0  0
   25.5206  -36.1149   -1.8233 C   0  0  0  0  0  0  0  0  0  0  0  0
   26.2400  -34.9798   -1.4438 O   0  0  0  0  0  0  0  0  0  0  0  0
   26.2258  -41.5472   -2.0310 O   0  0  0  0  0  0  0  0  0  0  0  0
   24.5262  -36.4224   -1.1251 O   0  0  0  0  0  0  0  0  0  0  0  0
  2  1  1  6
  2  3  1  0
  3  4  1  0
  4  5  2  0
  5  6  1  0
  7  6  2  0
  8  7  1  0
  9  8  2  0
  9  4  1  0
 10 11  2  0
 10  2  1  0
 12 10  1  0
 13 12  1  0
 13 14  1  1
 15 16  2  0
 15 14  1  0
 17 16  1  0
 18 19  2  0
 18 17  1  0
 19 15  1  0
 20 13  1  0
 20 22  1  0
 21 20  2  0
 23 22  1  0
 23 28  1  0
 23 24  1  1
 25 24  1  0
 26 27  2  0
 26 25  1  0
 28 29  1  0
 30 26  1  0
 31 28  2  0
M  END
$$$$
