FHE.pdb
     RDKit          3D

 31 32  0  0  1  0  0  0  0  0999 V2000
   25.3535  -11.8285  -16.0352 N   0  0  0  0  0  0  0  0  0  0  0  0
   25.3641  -13.2535  -16.1693 C   0  0  1  0  0  0  0  0  0  0  0  0
   26.1008  -13.9184  -15.0269 C   0  0  0  0  0  0  0  0  0  0  0  0
   26.8315  -15.1286  -15.4486 C   0  0  0  0  0  0  0  0  0  0  0  0
   26.5029  -16.3782  -14.9695 C   0  0  0  0  0  0  0  0  0  0  0  0
   27.1804  -17.5116  -15.3597 C   0  0  0  0  0  0  0  0  0  0  0  0
   28.2274  -17.3837  -16.2654 C   0  0  0  0  0  0  0  0  0  0  0  0
   28.5900  -16.1446  -16.7717 C   0  0  0  0  0  0  0  0  0  0  0  0
   27.8851  -15.0290  -16.3555 C   0  0  0  0  0  0  0  0  0  0  0  0
   23.9790  -13.7825  -16.2705 C   0  0  0  0  0  0  0  0  0  0  0  0
   23.1106  -13.5367  -15.4063 O   0  0  0  0  0  0  0  0  0  0  0  0
   23.6408  -14.5962  -17.3951 N   0  0  0  0  0  0  0  0  0  0  0  0
   22.3566  -15.2272  -17.5416 C   0  0  1  0  0  0  0  0  0  0  0  0
   22.0210  -15.5323  -18.9837 C   0  0  0  0  0  0  0  0  0  0  0  0
   20.6248  -16.0478  -19.1181 C   0  0  0  0  0  0  0  0  0  0  0  0
   19.5003  -15.2624  -18.9930 C   0  0  0  0  0  0  0  0  0  0  0  0
   18.4369  -16.0473  -19.1719 N   0  0  0  0  0  0  0  0  0  0  0  0
   18.8634  -17.3084  -19.4067 C   0  0  0  0  0  0  0  0  0  0  0  0
   20.1969  -17.2772  -19.3677 N   0  0  0  0  0  0  0  0  0  0  0  0
   22.2403  -16.4737  -16.7753 C   0  0  0  0  0  0  0  0  0  0  0  0
   23.2514  -17.2020  -16.6407 O   0  0  0  0  0  0  0  0  0  0  0  0
   21.0035  -16.8459  -16.1972 N   0  0  0  0  0  0  0  0  0  0  0  0
   20.8670  -18.1182  -15.5095 C   0  0  1  0  0  0  0  0  0  0  0  0
   20.6847  -17.8187  -14.0376 C   0  0  0  0  0  0  0  0  0  0  0  0
   20.4676  -19.0619  -13.2353 C   0  0  0  0  0  0  0  0  0  0  0  0
   19.1848  -18.8751  -12.4750 C   0  0  0  0  0  0  0  0  0  0  0  0
   18.5991  -17.7817  -12.6349 O   0  0  0  0  0  0  0  0  0  0  0  0
   19.7451  -18.8751  -16.0704 C   0  0  0  0  0  0  0  0  0  0  0  0
   18.5010  -18.3076  -16.3532 O   0  0  0  0  0  0  0  0  0  0  0  0
   18.6741  -19.8488  -11.6452 O   0  0  0  0  0  0  0  0  0  0  0  0
   19.8869  -20.0958  -16.3166 O   0  0  0  0  0  0  0  0  0  0  0  0
  2  1  1  1
  2  3  1  0
  3  4  1  0
  4  5  2  0
  5  6  1  0
  7  6  2  0
  8  7  1  0
  9  8  2  0
  9  4  1  0
 10 11  2  0
 10  2  1  0
 12 10  1  0
 13 12  1  0
 13 14  1  6
 15 16  2  0
 15 14  1  0
 17 16  1  0
 18 19  2  0
 18 17  1  0
 19 15  1  0
 20 13  1  0
 20 22  1  0
 21 20  2  0
 23 22  1  0
 23 28  1  0
 23 24  1  1
 25 24  1  0
 26 27  2  0
 26 25  1  0
 28 29  1  0
 30 26  1  0
 31 28  2  0
M  END
$$$$
