FHE.pdb
     RDKit          3D

 31 32  0  0  1  0  0  0  0  0999 V2000
   28.6004  -31.0149  -15.8801 N   0  0  0  0  0  0  0  0  0  0  0  0
   28.6837  -30.0167  -16.9025 C   0  0  1  0  0  0  0  0  0  0  0  0
   28.5342  -30.6157  -18.2840 C   0  0  0  0  0  0  0  0  0  0  0  0
   29.6609  -31.4960  -18.6477 C   0  0  0  0  0  0  0  0  0  0  0  0
   29.5361  -32.8683  -18.6547 C   0  0  0  0  0  0  0  0  0  0  0  0
   30.5835  -33.6953  -18.9939 C   0  0  0  0  0  0  0  0  0  0  0  0
   31.8016  -33.1208  -19.3389 C   0  0  0  0  0  0  0  0  0  0  0  0
   31.9690  -31.7442  -19.3445 C   0  0  0  0  0  0  0  0  0  0  0  0
   30.8929  -30.9465  -18.9978 C   0  0  0  0  0  0  0  0  0  0  0  0
   27.6666  -28.9551  -16.6851 C   0  0  0  0  0  0  0  0  0  0  0  0
   26.5848  -29.1826  -16.1026 O   0  0  0  0  0  0  0  0  0  0  0  0
   27.9450  -27.6370  -17.1608 N   0  0  0  0  0  0  0  0  0  0  0  0
   27.0524  -26.5288  -16.9514 C   0  0  1  0  0  0  0  0  0  0  0  0
   27.7391  -25.1917  -17.1129 C   0  0  0  0  0  0  0  0  0  0  0  0
   26.8191  -24.0649  -16.7711 C   0  0  0  0  0  0  0  0  0  0  0  0
   25.4901  -24.2286  -16.4486 C   0  0  0  0  0  0  0  0  0  0  0  0
   24.9816  -23.0203  -16.2034 N   0  0  0  0  0  0  0  0  0  0  0  0
   25.9575  -22.0986  -16.3634 C   0  0  0  0  0  0  0  0  0  0  0  0
   27.0620  -22.7633  -16.7082 N   0  0  0  0  0  0  0  0  0  0  0  0
   25.8898  -26.5528  -17.8471 C   0  0  0  0  0  0  0  0  0  0  0  0
   26.0733  -26.6949  -19.0788 O   0  0  0  0  0  0  0  0  0  0  0  0
   24.5814  -26.4174  -17.3256 N   0  0  0  0  0  0  0  0  0  0  0  0
   23.4342  -26.3904  -18.2165 C   0  0  1  0  0  0  0  0  0  0  0  0
   22.5020  -27.5019  -17.7864 C   0  0  0  0  0  0  0  0  0  0  0  0
   23.2394  -28.7687  -17.4900 C   0  0  0  0  0  0  0  0  0  0  0  0
   22.2092  -29.8025  -17.1315 C   0  0  0  0  0  0  0  0  0  0  0  0
   21.6786  -29.6896  -16.0046 O   0  0  0  0  0  0  0  0  0  0  0  0
   22.7940  -25.0735  -18.1721 C   0  0  0  0  0  0  0  0  0  0  0  0
   21.8322  -24.6559  -19.0943 O   0  0  0  0  0  0  0  0  0  0  0  0
   21.8617  -30.8220  -17.9901 O   0  0  0  0  0  0  0  0  0  0  0  0
   23.1105  -24.2643  -17.2689 O   0  0  0  0  0  0  0  0  0  0  0  0
  2  1  1  1
  2  3  1  0
  3  4  1  0
  4  5  2  0
  5  6  1  0
  7  6  2  0
  8  7  1  0
  9  8  2  0
  9  4  1  0
 10 11  2  0
 10  2  1  0
 12 10  1  0
 13 12  1  0
 13 14  1  6
 15 16  2  0
 15 14  1  0
 17 16  1  0
 18 19  2  0
 18 17  1  0
 19 15  1  0
 20 13  1  0
 20 22  1  0
 21 20  2  0
 23 22  1  0
 23 28  1  0
 23 24  1  1
 25 24  1  0
 26 27  2  0
 26 25  1  0
 28 29  1  0
 30 26  1  0
 31 28  2  0
M  END
$$$$
