FHE.pdb
     RDKit          3D

 31 32  0  0  1  0  0  0  0  0999 V2000
   17.7558  -30.2225   -2.3220 N   0  0  0  0  0  0  0  0  0  0  0  0
   19.0506  -29.7631   -2.7234 C   0  0  1  0  0  0  0  0  0  0  0  0
   19.4752  -28.5355   -1.9472 C   0  0  0  0  0  0  0  0  0  0  0  0
   18.6408  -27.3562   -2.2463 C   0  0  0  0  0  0  0  0  0  0  0  0
   18.7338  -26.6878   -3.4478 C   0  0  0  0  0  0  0  0  0  0  0  0
   17.9574  -25.5871   -3.7333 C   0  0  0  0  0  0  0  0  0  0  0  0
   17.0539  -25.1420   -2.7750 C   0  0  0  0  0  0  0  0  0  0  0  0
   16.9291  -25.7862   -1.5534 C   0  0  0  0  0  0  0  0  0  0  0  0
   17.7268  -26.8890   -1.3036 C   0  0  0  0  0  0  0  0  0  0  0  0
   20.0606  -30.8436   -2.5774 C   0  0  0  0  0  0  0  0  0  0  0  0
   19.9648  -31.7262   -1.6981 O   0  0  0  0  0  0  0  0  0  0  0  0
   21.1713  -30.8642   -3.4758 N   0  0  0  0  0  0  0  0  0  0  0  0
   22.1424  -31.9250   -3.4893 C   0  0  1  0  0  0  0  0  0  0  0  0
   23.1208  -31.8018   -4.6351 C   0  0  0  0  0  0  0  0  0  0  0  0
   24.0311  -32.9851   -4.7005 C   0  0  0  0  0  0  0  0  0  0  0  0
   24.0112  -34.0210   -3.7930 C   0  0  0  0  0  0  0  0  0  0  0  0
   24.9504  -34.8953   -4.1567 N   0  0  0  0  0  0  0  0  0  0  0  0
   25.5622  -34.4359   -5.2711 C   0  0  0  0  0  0  0  0  0  0  0  0
   24.9822  -33.2738   -5.5774 N   0  0  0  0  0  0  0  0  0  0  0  0
   22.9124  -32.0123   -2.2427 C   0  0  0  0  0  0  0  0  0  0  0  0
   23.3053  -30.9558   -1.6947 O   0  0  0  0  0  0  0  0  0  0  0  0
   23.2057  -33.2723   -1.6691 N   0  0  0  0  0  0  0  0  0  0  0  0
   23.9218  -33.3570   -0.4080 C   0  0  1  0  0  0  0  0  0  0  0  0
   23.6437  -34.7238    0.1783 C   0  0  0  0  0  0  0  0  0  0  0  0
   24.5219  -35.7781   -0.4163 C   0  0  0  0  0  0  0  0  0  0  0  0
   24.2179  -37.0608    0.3054 C   0  0  0  0  0  0  0  0  0  0  0  0
   23.0107  -37.3751    0.3939 O   0  0  0  0  0  0  0  0  0  0  0  0
   25.3512  -33.1204   -0.6245 C   0  0  0  0  0  0  0  0  0  0  0  0
   26.0067  -33.4209   -1.8203 O   0  0  0  0  0  0  0  0  0  0  0  0
   25.2078  -37.8535    0.8433 O   0  0  0  0  0  0  0  0  0  0  0  0
   26.0404  -32.6239    0.2971 O   0  0  0  0  0  0  0  0  0  0  0  0
  2  1  1  1
  2  3  1  0
  3  4  1  0
  4  5  2  0
  5  6  1  0
  7  6  2  0
  8  7  1  0
  9  8  2  0
  9  4  1  0
 10 11  2  0
 10  2  1  0
 12 10  1  0
 13 12  1  0
 13 14  1  6
 15 16  2  0
 15 14  1  0
 17 16  1  0
 18 19  2  0
 18 17  1  0
 19 15  1  0
 20 13  1  0
 20 22  1  0
 21 20  2  0
 23 22  1  0
 23 28  1  0
 23 24  1  6
 25 24  1  0
 26 27  2  0
 26 25  1  0
 28 29  1  0
 30 26  1  0
 31 28  2  0
M  END
$$$$
