FHE.pdb
     RDKit          3D

 31 32  0  0  1  0  0  0  0  0999 V2000
   23.1845  -13.5628  -18.1067 N   0  0  0  0  0  0  0  0  0  0  0  0
   23.6956  -12.4842  -17.3167 C   0  0  1  0  0  0  0  0  0  0  0  0
   25.0021  -11.9559  -17.8678 C   0  0  0  0  0  0  0  0  0  0  0  0
   26.0989  -12.0105  -16.8826 C   0  0  0  0  0  0  0  0  0  0  0  0
   26.7261  -13.1944  -16.5603 C   0  0  0  0  0  0  0  0  0  0  0  0
   27.7507  -13.2519  -15.6423 C   0  0  0  0  0  0  0  0  0  0  0  0
   28.1599  -12.0751  -15.0256 C   0  0  0  0  0  0  0  0  0  0  0  0
   27.5552  -10.8627  -15.3217 C   0  0  0  0  0  0  0  0  0  0  0  0
   26.5289  -10.8457  -16.2496 C   0  0  0  0  0  0  0  0  0  0  0  0
   22.6963  -11.3890  -17.2129 C   0  0  0  0  0  0  0  0  0  0  0  0
   22.1213  -10.9187  -18.2176 O   0  0  0  0  0  0  0  0  0  0  0  0
   22.3912  -10.8653  -15.9191 N   0  0  0  0  0  0  0  0  0  0  0  0
   21.4366   -9.8097  -15.7115 C   0  0  1  0  0  0  0  0  0  0  0  0
   20.3602  -10.1872  -14.7194 C   0  0  0  0  0  0  0  0  0  0  0  0
   19.3534  -11.1043  -15.3344 C   0  0  0  0  0  0  0  0  0  0  0  0
   19.4149  -11.5513  -16.6358 C   0  0  0  0  0  0  0  0  0  0  0  0
   18.3631  -12.3454  -16.8407 N   0  0  0  0  0  0  0  0  0  0  0  0
   17.6399  -12.4098  -15.7005 C   0  0  0  0  0  0  0  0  0  0  0  0
   18.2662  -11.6458  -14.8036 N   0  0  0  0  0  0  0  0  0  0  0  0
   22.0557   -8.5594  -15.2554 C   0  0  0  0  0  0  0  0  0  0  0  0
   22.9722   -8.6100  -14.4020 O   0  0  0  0  0  0  0  0  0  0  0  0
   21.6227   -7.3157  -15.7731 N   0  0  0  0  0  0  0  0  0  0  0  0
   22.2180   -6.0767  -15.3033 C   0  0  1  0  0  0  0  0  0  0  0  0
   21.7751   -4.9776  -16.2442 C   0  0  0  0  0  0  0  0  0  0  0  0
   22.3759   -3.6562  -15.8848 C   0  0  0  0  0  0  0  0  0  0  0  0
   21.8340   -2.6483  -16.8590 C   0  0  0  0  0  0  0  0  0  0  0  0
   21.0902   -1.7619  -16.3844 O   0  0  0  0  0  0  0  0  0  0  0  0
   21.8198   -5.8215  -13.9168 C   0  0  0  0  0  0  0  0  0  0  0  0
   22.5976   -5.0903  -13.0167 O   0  0  0  0  0  0  0  0  0  0  0  0
   22.1344   -2.6901  -18.2027 O   0  0  0  0  0  0  0  0  0  0  0  0
   20.7292   -6.2734  -13.4955 O   0  0  0  0  0  0  0  0  0  0  0  0
  2  1  1  6
  2  3  1  0
  3  4  1  0
  4  5  2  0
  5  6  1  0
  7  6  2  0
  8  7  1  0
  9  8  2  0
  9  4  1  0
 10 11  2  0
 10  2  1  0
 12 10  1  0
 13 12  1  0
 13 14  1  1
 15 16  2  0
 15 14  1  0
 17 16  1  0
 18 19  2  0
 18 17  1  0
 19 15  1  0
 20 13  1  0
 20 22  1  0
 21 20  2  0
 23 22  1  0
 23 28  1  0
 23 24  1  6
 25 24  1  0
 26 27  2  0
 26 25  1  0
 28 29  1  0
 30 26  1  0
 31 28  2  0
M  END
$$$$
