FHE.pdb
     RDKit          3D

 31 32  0  0  1  0  0  0  0  0999 V2000
   17.6732  -25.1583  -19.4108 N   0  0  0  0  0  0  0  0  0  0  0  0
   16.5174  -24.3146  -19.3788 C   0  0  1  0  0  0  0  0  0  0  0  0
   15.2359  -25.1194  -19.3797 C   0  0  0  0  0  0  0  0  0  0  0  0
   14.9302  -25.7013  -20.7005 C   0  0  0  0  0  0  0  0  0  0  0  0
   14.5149  -24.9215  -21.7581 C   0  0  0  0  0  0  0  0  0  0  0  0
   14.2287  -25.4583  -22.9933 C   0  0  0  0  0  0  0  0  0  0  0  0
   14.3653  -26.8303  -23.1718 C   0  0  0  0  0  0  0  0  0  0  0  0
   14.7806  -27.6504  -22.1335 C   0  0  0  0  0  0  0  0  0  0  0  0
   15.0588  -27.0736  -20.9069 C   0  0  0  0  0  0  0  0  0  0  0  0
   16.5598  -23.4090  -18.2012 C   0  0  0  0  0  0  0  0  0  0  0  0
   16.9562  -23.7960  -17.0812 O   0  0  0  0  0  0  0  0  0  0  0  0
   16.1319  -22.0559  -18.3663 N   0  0  0  0  0  0  0  0  0  0  0  0
   16.1033  -21.1105  -17.2829 C   0  0  1  0  0  0  0  0  0  0  0  0
   16.8189  -19.8217  -17.6179 C   0  0  0  0  0  0  0  0  0  0  0  0
   18.3015  -20.0088  -17.6178 C   0  0  0  0  0  0  0  0  0  0  0  0
   18.9866  -20.7172  -16.6556 C   0  0  0  0  0  0  0  0  0  0  0  0
   20.2821  -20.6778  -16.9701 N   0  0  0  0  0  0  0  0  0  0  0  0
   20.4306  -19.9617  -18.1069 C   0  0  0  0  0  0  0  0  0  0  0  0
   19.2102  -19.5686  -18.4765 N   0  0  0  0  0  0  0  0  0  0  0  0
   14.7409  -20.7742  -16.8522 C   0  0  0  0  0  0  0  0  0  0  0  0
   13.9354  -20.3067  -17.6910 O   0  0  0  0  0  0  0  0  0  0  0  0
   14.3444  -20.9759  -15.5089 N   0  0  0  0  0  0  0  0  0  0  0  0
   12.9700  -20.7358  -15.1043 C   0  0  1  0  0  0  0  0  0  0  0  0
   12.7869  -21.3563  -13.7365 C   0  0  0  0  0  0  0  0  0  0  0  0
   11.3597  -21.3209  -13.2915 C   0  0  0  0  0  0  0  0  0  0  0  0
   11.0940  -22.6104  -12.5668 C   0  0  0  0  0  0  0  0  0  0  0  0
   11.4125  -22.6434  -11.3578 O   0  0  0  0  0  0  0  0  0  0  0  0
   12.6880  -19.2983  -15.1098 C   0  0  0  0  0  0  0  0  0  0  0  0
   13.5932  -18.3365  -14.6565 O   0  0  0  0  0  0  0  0  0  0  0  0
   10.5310  -23.7016  -13.1911 O   0  0  0  0  0  0  0  0  0  0  0  0
   11.5840  -18.8883  -15.5388 O   0  0  0  0  0  0  0  0  0  0  0  0
  2  1  1  1
  2  3  1  0
  3  4  1  0
  4  5  2  0
  5  6  1  0
  7  6  2  0
  8  7  1  0
  9  8  2  0
  9  4  1  0
 10 11  2  0
 10  2  1  0
 12 10  1  0
 13 12  1  0
 13 14  1  6
 15 16  2  0
 15 14  1  0
 17 16  1  0
 18 19  2  0
 18 17  1  0
 19 15  1  0
 20 13  1  0
 20 22  1  0
 21 20  2  0
 23 22  1  0
 23 28  1  0
 23 24  1  1
 25 24  1  0
 26 27  2  0
 26 25  1  0
 28 29  1  0
 30 26  1  0
 31 28  2  0
M  END
$$$$
