FHE.pdb
     RDKit          3D

 31 32  0  0  1  0  0  0  0  0999 V2000
   15.9131   -9.5878  -17.1890 N   0  0  0  0  0  0  0  0  0  0  0  0
   16.6905   -8.3977  -17.3563 C   0  0  1  0  0  0  0  0  0  0  0  0
   15.8767   -7.1529  -17.0768 C   0  0  0  0  0  0  0  0  0  0  0  0
   14.7928   -6.9496  -18.0568 C   0  0  0  0  0  0  0  0  0  0  0  0
   13.4765   -7.2156  -17.7480 C   0  0  0  0  0  0  0  0  0  0  0  0
   12.4603   -7.0272  -18.6578 C   0  0  0  0  0  0  0  0  0  0  0  0
   12.7797   -6.5537  -19.9252 C   0  0  0  0  0  0  0  0  0  0  0  0
   14.0917   -6.2736  -20.2763 C   0  0  0  0  0  0  0  0  0  0  0  0
   15.0851   -6.4757  -19.3344 C   0  0  0  0  0  0  0  0  0  0  0  0
   17.8982   -8.4325  -16.4908 C   0  0  0  0  0  0  0  0  0  0  0  0
   17.8230   -8.5921  -15.2538 O   0  0  0  0  0  0  0  0  0  0  0  0
   19.1799   -8.2777  -17.1029 N   0  0  0  0  0  0  0  0  0  0  0  0
   20.4086   -8.3103  -16.3560 C   0  0  1  0  0  0  0  0  0  0  0  0
   21.4122   -9.2832  -16.9318 C   0  0  0  0  0  0  0  0  0  0  0  0
   20.9194  -10.6908  -16.8363 C   0  0  0  0  0  0  0  0  0  0  0  0
   21.4020  -11.6145  -15.9358 C   0  0  0  0  0  0  0  0  0  0  0  0
   20.7391  -12.7550  -16.1319 N   0  0  0  0  0  0  0  0  0  0  0  0
   19.8504  -12.5731  -17.1342 C   0  0  0  0  0  0  0  0  0  0  0  0
   19.9834  -11.3095  -17.5419 N   0  0  0  0  0  0  0  0  0  0  0  0
   21.0548   -6.9960  -16.2592 C   0  0  0  0  0  0  0  0  0  0  0  0
   21.2064   -6.3142  -17.2999 O   0  0  0  0  0  0  0  0  0  0  0  0
   21.4996   -6.5073  -15.0079 N   0  0  0  0  0  0  0  0  0  0  0  0
   21.9975   -5.1483  -14.8845 C   0  0  1  0  0  0  0  0  0  0  0  0
   20.8620   -4.2165  -15.2475 C   0  0  0  0  0  0  0  0  0  0  0  0
   19.8250   -4.1510  -14.1721 C   0  0  0  0  0  0  0  0  0  0  0  0
   18.7578   -3.2061  -14.6485 C   0  0  0  0  0  0  0  0  0  0  0  0
   18.9947   -1.9860  -14.5098 O   0  0  0  0  0  0  0  0  0  0  0  0
   22.4993   -4.9179  -13.5275 C   0  0  0  0  0  0  0  0  0  0  0  0
   23.1744   -3.7568  -13.1454 O   0  0  0  0  0  0  0  0  0  0  0  0
   17.5801   -3.6500  -15.2085 O   0  0  0  0  0  0  0  0  0  0  0  0
   22.3251   -5.7944  -12.6488 O   0  0  0  0  0  0  0  0  0  0  0  0
  2  1  1  1
  2  3  1  0
  3  4  1  0
  4  5  2  0
  5  6  1  0
  7  6  2  0
  8  7  1  0
  9  8  2  0
  9  4  1  0
 10 11  2  0
 10  2  1  0
 12 10  1  0
 13 12  1  0
 13 14  1  6
 15 16  2  0
 15 14  1  0
 17 16  1  0
 18 19  2  0
 18 17  1  0
 19 15  1  0
 20 13  1  0
 20 22  1  0
 21 20  2  0
 23 22  1  0
 23 28  1  0
 23 24  1  1
 25 24  1  0
 26 27  2  0
 26 25  1  0
 28 29  1  0
 30 26  1  0
 31 28  2  0
M  END
$$$$
