FHE.pdb
     RDKit          3D

 31 32  0  0  1  0  0  0  0  0999 V2000
   26.8911  -20.1844  -16.6883 N   0  0  0  0  0  0  0  0  0  0  0  0
   26.3455  -19.3121  -15.6932 C   0  0  1  0  0  0  0  0  0  0  0  0
   25.7512  -18.0635  -16.3076 C   0  0  0  0  0  0  0  0  0  0  0  0
   26.7680  -17.1992  -16.9366 C   0  0  0  0  0  0  0  0  0  0  0  0
   27.5227  -16.3126  -16.1996 C   0  0  0  0  0  0  0  0  0  0  0  0
   28.4737  -15.5039  -16.7805 C   0  0  0  0  0  0  0  0  0  0  0  0
   28.6732  -15.5900  -18.1536 C   0  0  0  0  0  0  0  0  0  0  0  0
   27.9350  -16.4691  -18.9316 C   0  0  0  0  0  0  0  0  0  0  0  0
   26.9885  -17.2654  -18.3112 C   0  0  0  0  0  0  0  0  0  0  0  0
   25.3286  -20.0207  -14.8732 C   0  0  0  0  0  0  0  0  0  0  0  0
   24.5204  -20.8314  -15.3743 O   0  0  0  0  0  0  0  0  0  0  0  0
   25.2826  -19.7594  -13.4693 N   0  0  0  0  0  0  0  0  0  0  0  0
   24.2897  -20.3346  -12.6022 C   0  0  1  0  0  0  0  0  0  0  0  0
   24.5417  -20.0236  -11.1444 C   0  0  0  0  0  0  0  0  0  0  0  0
   23.5067  -20.6525  -10.2690 C   0  0  0  0  0  0  0  0  0  0  0  0
   22.4453  -21.3914  -10.7429 C   0  0  0  0  0  0  0  0  0  0  0  0
   21.7316  -21.7947   -9.6909 N   0  0  0  0  0  0  0  0  0  0  0  0
   22.3169  -21.3280   -8.5653 C   0  0  0  0  0  0  0  0  0  0  0  0
   23.3927  -20.6379   -8.9485 N   0  0  0  0  0  0  0  0  0  0  0  0
   22.9253  -19.9033  -12.9289 C   0  0  0  0  0  0  0  0  0  0  0  0
   22.7125  -18.6935  -13.1776 O   0  0  0  0  0  0  0  0  0  0  0  0
   21.8665  -20.8416  -12.9622 N   0  0  0  0  0  0  0  0  0  0  0  0
   20.5188  -20.4173  -13.2996 C   0  0  1  0  0  0  0  0  0  0  0  0
   20.3294  -20.6513  -14.7824 C   0  0  0  0  0  0  0  0  0  0  0  0
   18.9823  -20.2040  -15.2530 C   0  0  0  0  0  0  0  0  0  0  0  0
   18.9479  -20.4068  -16.7417 C   0  0  0  0  0  0  0  0  0  0  0  0
   19.2030  -21.5609  -17.1506 O   0  0  0  0  0  0  0  0  0  0  0  0
   19.5432  -21.1490  -12.4878 C   0  0  0  0  0  0  0  0  0  0  0  0
   18.5112  -20.5272  -11.7820 O   0  0  0  0  0  0  0  0  0  0  0  0
   18.6528  -19.3840  -17.6159 O   0  0  0  0  0  0  0  0  0  0  0  0
   19.6200  -22.3975  -12.4084 O   0  0  0  0  0  0  0  0  0  0  0  0
  2  1  1  6
  2  3  1  0
  3  4  1  0
  4  5  2  0
  5  6  1  0
  7  6  2  0
  8  7  1  0
  9  8  2  0
  9  4  1  0
 10 11  2  0
 10  2  1  0
 12 10  1  0
 13 12  1  0
 13 14  1  1
 15 16  2  0
 15 14  1  0
 17 16  1  0
 18 19  2  0
 18 17  1  0
 19 15  1  0
 20 13  1  0
 20 22  1  0
 21 20  2  0
 23 22  1  0
 23 28  1  0
 23 24  1  6
 25 24  1  0
 26 27  2  0
 26 25  1  0
 28 29  1  0
 30 26  1  0
 31 28  2  0
M  END
$$$$
