FHE.pdb
     RDKit          3D

 31 32  0  0  1  0  0  0  0  0999 V2000
   27.3248  -19.8422  -15.6506 N   0  0  0  0  0  0  0  0  0  0  0  0
   26.3462  -19.1659  -14.8546 C   0  0  1  0  0  0  0  0  0  0  0  0
   25.4851  -18.2433  -15.6894 C   0  0  0  0  0  0  0  0  0  0  0  0
   26.2265  -17.0697  -16.1888 C   0  0  0  0  0  0  0  0  0  0  0  0
   26.4923  -15.9833  -15.3837 C   0  0  0  0  0  0  0  0  0  0  0  0
   27.1844  -14.8853  -15.8435 C   0  0  0  0  0  0  0  0  0  0  0  0
   27.6255  -14.8796  -17.1619 C   0  0  0  0  0  0  0  0  0  0  0  0
   27.3790  -15.9526  -18.0050 C   0  0  0  0  0  0  0  0  0  0  0  0
   26.6803  -17.0378  -17.5061 C   0  0  0  0  0  0  0  0  0  0  0  0
   25.4994  -20.1422  -14.1206 C   0  0  0  0  0  0  0  0  0  0  0  0
   25.1719  -21.2409  -14.6175 O   0  0  0  0  0  0  0  0  0  0  0  0
   25.0518  -19.8036  -12.8068 N   0  0  0  0  0  0  0  0  0  0  0  0
   24.2542  -20.6906  -12.0032 C   0  0  1  0  0  0  0  0  0  0  0  0
   24.7047  -20.7299  -10.5606 C   0  0  0  0  0  0  0  0  0  0  0  0
   26.1741  -20.9817  -10.4580 C   0  0  0  0  0  0  0  0  0  0  0  0
   27.0089  -21.1139  -11.5455 C   0  0  0  0  0  0  0  0  0  0  0  0
   28.2420  -21.3285  -11.0850 N   0  0  0  0  0  0  0  0  0  0  0  0
   28.2051  -21.3350   -9.7337 C   0  0  0  0  0  0  0  0  0  0  0  0
   26.9357  -21.1219   -9.3823 N   0  0  0  0  0  0  0  0  0  0  0  0
   22.8259  -20.3531  -12.0234 C   0  0  0  0  0  0  0  0  0  0  0  0
   22.4736  -19.1809  -11.7535 O   0  0  0  0  0  0  0  0  0  0  0  0
   21.8619  -21.3383  -12.3435 N   0  0  0  0  0  0  0  0  0  0  0  0
   20.6936  -20.9937  -13.1351 C   0  0  1  0  0  0  0  0  0  0  0  0
   21.1886  -20.4376  -14.4524 C   0  0  0  0  0  0  0  0  0  0  0  0
   20.7376  -21.2637  -15.6145 C   0  0  0  0  0  0  0  0  0  0  0  0
   21.0180  -20.4645  -16.8560 C   0  0  0  0  0  0  0  0  0  0  0  0
   21.7018  -21.0301  -17.7373 O   0  0  0  0  0  0  0  0  0  0  0  0
   19.8393  -22.1709  -13.3096 C   0  0  0  0  0  0  0  0  0  0  0  0
   18.4947  -22.0959  -13.6788 O   0  0  0  0  0  0  0  0  0  0  0  0
   20.5520  -19.1791  -17.0233 O   0  0  0  0  0  0  0  0  0  0  0  0
   20.3189  -23.3137  -13.1228 O   0  0  0  0  0  0  0  0  0  0  0  0
  2  1  1  6
  2  3  1  0
  3  4  1  0
  4  5  2  0
  5  6  1  0
  7  6  2  0
  8  7  1  0
  9  8  2  0
  9  4  1  0
 10 11  2  0
 10  2  1  0
 12 10  1  0
 13 12  1  0
 13 14  1  1
 15 16  2  0
 15 14  1  0
 17 16  1  0
 18 19  2  0
 18 17  1  0
 19 15  1  0
 20 13  1  0
 20 22  1  0
 21 20  2  0
 23 22  1  0
 23 28  1  0
 23 24  1  6
 25 24  1  0
 26 27  2  0
 26 25  1  0
 28 29  1  0
 30 26  1  0
 31 28  2  0
M  END
$$$$
