MLD.pdb
     RDKit          3D

 25 24  0  0  1  0  0  0  0  0999 V2000
    8.9993  -11.7512   19.1015 C   0  0  0  0  0  0  0  0  0  0  0  0
    7.2796  -12.2767   19.3697 S   0  0  0  0  0  0  0  0  0  0  0  0
    7.1544  -14.0754   19.4080 C   0  0  0  0  0  0  0  0  0  0  0  0
    8.4724  -14.6890   19.7020 C   0  0  0  0  0  0  0  0  0  0  0  0
    8.5498  -15.7452   20.7388 C   0  0  2  0  0  0  0  0  0  0  0  0
    7.2136  -16.3872   20.8278 N   0  0  0  0  0  0  0  0  0  0  0  0
    8.9239  -15.3479   22.0942 C   0  0  0  0  0  0  0  0  0  0  0  0
   10.1370  -15.1252   22.4046 O   0  0  0  0  0  0  0  0  0  0  0  0
    8.3273  -12.4450   26.3694 C   0  0  0  0  0  0  0  0  0  0  0  0
    7.2945  -13.5490   26.4534 C   0  0  1  0  0  0  0  0  0  0  0  0
    6.0246  -12.9121   27.0071 C   0  0  0  0  0  0  0  0  0  0  0  0
    7.0388  -14.0281   25.0538 C   0  0  0  0  0  0  0  0  0  0  0  0
    8.2651  -14.6906   24.4342 C   0  0  2  0  0  0  0  0  0  0  0  0
    7.9343  -15.2009   23.0967 N   0  0  0  0  0  0  0  0  0  0  0  0
    8.5344  -15.8777   25.2822 C   0  0  0  0  0  0  0  0  0  0  0  0
    7.6035  -16.6939   25.4816 O   0  0  0  0  0  0  0  0  0  0  0  0
    9.8066  -16.1199   25.8735 N   0  0  0  0  0  0  0  0  0  0  0  0
   10.0569  -17.4345   26.4128 C   0  0  1  0  0  0  0  0  0  0  0  0
   11.1826  -18.0850   25.6614 C   0  0  0  0  0  0  0  0  0  0  0  0
   11.5129  -19.4001   26.2366 C   0  0  0  0  0  0  0  0  0  0  0  0
   10.8476  -19.8764   27.1749 O   0  0  0  0  0  0  0  0  0  0  0  0
   10.5252  -17.3542   27.8449 C   0  0  0  0  0  0  0  0  0  0  0  0
   10.8541  -16.2169   28.2608 O   0  0  0  0  0  0  0  0  0  0  0  0
   12.5919  -20.0986   25.7020 O   0  0  0  0  0  0  0  0  0  0  0  0
   10.5748  -18.4808   28.6164 O   0  0  0  0  0  0  0  0  0  0  0  0
  1  2  1  0
  3  4  1  0
  3  2  1  0
  5  4  1  0
  5  6  1  1
  7  5  1  0
  8  7  2  0
 10  9  1  6
 11 10  1  0
 12 10  1  0
 13 12  1  1
 13 14  1  0
 14  7  1  0
 15 13  1  0
 15 17  1  0
 16 15  2  0
 18 19  1  6
 18 22  1  0
 18 17  1  0
 19 20  1  0
 20 24  1  0
 20 21  2  0
 22 25  1  0
 23 22  2  0
M  END
$$$$
