MLD.pdb
     RDKit          3D

 25 24  0  0  1  0  0  0  0  0999 V2000
   11.0687  -14.1700   29.0833 C   0  0  0  0  0  0  0  0  0  0  0  0
   11.8498  -15.8114   29.1147 S   0  0  0  0  0  0  0  0  0  0  0  0
   10.7159  -17.0759   28.5086 C   0  0  0  0  0  0  0  0  0  0  0  0
    9.4257  -16.4722   28.0954 C   0  0  0  0  0  0  0  0  0  0  0  0
    8.3940  -17.3457   27.4877 C   0  0  2  0  0  0  0  0  0  0  0  0
    9.0562  -18.6133   27.0879 N   0  0  0  0  0  0  0  0  0  0  0  0
    7.6805  -16.8478   26.3139 C   0  0  0  0  0  0  0  0  0  0  0  0
    6.8649  -17.5863   25.6759 O   0  0  0  0  0  0  0  0  0  0  0  0
    6.1919  -13.4595   26.5854 C   0  0  0  0  0  0  0  0  0  0  0  0
    6.2493  -12.9006   25.1793 C   0  0  1  0  0  0  0  0  0  0  0  0
    6.5069  -11.4042   25.3189 C   0  0  0  0  0  0  0  0  0  0  0  0
    7.4191  -13.5425   24.4914 C   0  0  0  0  0  0  0  0  0  0  0  0
    7.3695  -15.0654   24.5622 C   0  0  2  0  0  0  0  0  0  0  0  0
    7.8845  -15.5216   25.8605 N   0  0  0  0  0  0  0  0  0  0  0  0
    8.3363  -15.5328   23.5388 C   0  0  0  0  0  0  0  0  0  0  0  0
    8.0297  -15.4155   22.3285 O   0  0  0  0  0  0  0  0  0  0  0  0
    9.5931  -16.1066   23.8824 N   0  0  0  0  0  0  0  0  0  0  0  0
   10.4283  -16.5865   22.8081 C   0  0  1  0  0  0  0  0  0  0  0  0
   11.5156  -15.5897   22.5272 C   0  0  0  0  0  0  0  0  0  0  0  0
   12.3519  -16.0235   21.3949 C   0  0  0  0  0  0  0  0  0  0  0  0
   12.0680  -17.0437   20.7403 O   0  0  0  0  0  0  0  0  0  0  0  0
   11.1413  -17.8570   23.2002 C   0  0  0  0  0  0  0  0  0  0  0  0
   10.9998  -18.2313   24.3896 O   0  0  0  0  0  0  0  0  0  0  0  0
   13.4714  -15.2605   21.0750 O   0  0  0  0  0  0  0  0  0  0  0  0
   11.8916  -18.5360   22.2820 O   0  0  0  0  0  0  0  0  0  0  0  0
  1  2  1  0
  3  4  1  0
  3  2  1  0
  5  4  1  0
  5  6  1  6
  7  5  1  0
  8  7  2  0
 10  9  1  1
 11 10  1  0
 12 10  1  0
 13 12  1  1
 13 14  1  0
 14  7  1  0
 15 13  1  0
 15 17  1  0
 16 15  2  0
 18 19  1  1
 18 22  1  0
 18 17  1  0
 19 20  1  0
 20 24  1  0
 20 21  2  0
 22 25  1  0
 23 22  2  0
M  END
$$$$
