MLD.pdb
     RDKit          3D

 25 24  0  0  1  0  0  0  0  0999 V2000
    6.9271  -20.3877   19.5611 C   0  0  0  0  0  0  0  0  0  0  0  0
    7.4280  -18.9317   20.5277 S   0  0  0  0  0  0  0  0  0  0  0  0
    7.8674  -17.5591   19.4437 C   0  0  0  0  0  0  0  0  0  0  0  0
    8.3751  -16.4085   20.2301 C   0  0  0  0  0  0  0  0  0  0  0  0
    7.6749  -16.0391   21.4831 C   0  0  2  0  0  0  0  0  0  0  0  0
    6.4077  -15.3620   21.1076 N   0  0  0  0  0  0  0  0  0  0  0  0
    8.3682  -15.1586   22.4206 C   0  0  0  0  0  0  0  0  0  0  0  0
    9.2946  -14.3792   22.0309 O   0  0  0  0  0  0  0  0  0  0  0  0
    5.8949  -12.6568   26.6915 C   0  0  0  0  0  0  0  0  0  0  0  0
    6.7764  -12.9275   25.4906 C   0  0  1  0  0  0  0  0  0  0  0  0
    7.4720  -11.6117   25.1592 C   0  0  0  0  0  0  0  0  0  0  0  0
    7.8036  -13.9389   25.9100 C   0  0  0  0  0  0  0  0  0  0  0  0
    8.7381  -14.3245   24.7678 C   0  0  2  0  0  0  0  0  0  0  0  0
    8.0183  -15.1555   23.7930 N   0  0  0  0  0  0  0  0  0  0  0  0
    9.7664  -15.1970   25.3859 C   0  0  0  0  0  0  0  0  0  0  0  0
   10.4742  -14.7265   26.3080 O   0  0  0  0  0  0  0  0  0  0  0  0
    9.9752  -16.5424   24.9700 N   0  0  0  0  0  0  0  0  0  0  0  0
   11.0642  -17.2707   25.5747 C   0  0  1  0  0  0  0  0  0  0  0  0
   10.6407  -18.6863   25.8424 C   0  0  0  0  0  0  0  0  0  0  0  0
   10.2591  -18.8668   27.2536 C   0  0  0  0  0  0  0  0  0  0  0  0
    9.4110  -19.7154   27.5863 O   0  0  0  0  0  0  0  0  0  0  0  0
   12.2376  -17.3752   24.6320 C   0  0  0  0  0  0  0  0  0  0  0  0
   12.0735  -16.8990   23.4827 O   0  0  0  0  0  0  0  0  0  0  0  0
   10.8735  -18.0614   28.2083 O   0  0  0  0  0  0  0  0  0  0  0  0
   13.4001  -17.9636   25.0436 O   0  0  0  0  0  0  0  0  0  0  0  0
  1  2  1  0
  3  4  1  0
  3  2  1  0
  5  4  1  0
  5  6  1  6
  7  5  1  0
  8  7  2  0
 10  9  1  1
 11 10  1  0
 12 10  1  0
 13 12  1  1
 13 14  1  0
 14  7  1  0
 15 13  1  0
 15 17  1  0
 16 15  2  0
 18 19  1  6
 18 22  1  0
 18 17  1  0
 19 20  1  0
 20 24  1  0
 20 21  2  0
 22 25  1  0
 23 22  2  0
M  END
$$$$
