MLD.pdb
     RDKit          3D

 25 24  0  0  1  0  0  0  0  0999 V2000
    8.3443  -11.3152   19.6510 C   0  0  0  0  0  0  0  0  0  0  0  0
    7.3192  -12.6042   18.8811 S   0  0  0  0  0  0  0  0  0  0  0  0
    7.1575  -14.0335   19.9688 C   0  0  0  0  0  0  0  0  0  0  0  0
    8.4912  -14.5521   20.3591 C   0  0  0  0  0  0  0  0  0  0  0  0
    8.5627  -15.6896   21.3065 C   0  0  2  0  0  0  0  0  0  0  0  0
    7.2079  -16.2920   21.3893 N   0  0  0  0  0  0  0  0  0  0  0  0
    8.9921  -15.4142   22.6757 C   0  0  0  0  0  0  0  0  0  0  0  0
   10.1493  -14.9477   22.9223 O   0  0  0  0  0  0  0  0  0  0  0  0
    5.6799  -13.1219   26.4501 C   0  0  0  0  0  0  0  0  0  0  0  0
    6.9272  -13.4421   25.6537 C   0  0  1  0  0  0  0  0  0  0  0  0
    8.0320  -12.5448   26.2009 C   0  0  0  0  0  0  0  0  0  0  0  0
    7.2743  -14.8771   25.9259 C   0  0  0  0  0  0  0  0  0  0  0  0
    8.5014  -15.3355   25.1445 C   0  0  2  0  0  0  0  0  0  0  0  0
    8.1202  -15.6629   23.7638 N   0  0  0  0  0  0  0  0  0  0  0  0
    8.9121  -16.6110   25.7808 C   0  0  0  0  0  0  0  0  0  0  0  0
    8.0431  -17.4973   25.9595 O   0  0  0  0  0  0  0  0  0  0  0  0
   10.2516  -16.8613   26.1929 N   0  0  0  0  0  0  0  0  0  0  0  0
   10.5278  -18.1136   26.8543 C   0  0  1  0  0  0  0  0  0  0  0  0
   11.9259  -18.5584   26.5344 C   0  0  0  0  0  0  0  0  0  0  0  0
   12.0958  -18.7711   25.0868 C   0  0  0  0  0  0  0  0  0  0  0  0
   11.1371  -18.6468   24.3023 O   0  0  0  0  0  0  0  0  0  0  0  0
   10.4911  -17.9555   28.3543 C   0  0  0  0  0  0  0  0  0  0  0  0
   10.3426  -16.7875   28.7882 O   0  0  0  0  0  0  0  0  0  0  0  0
   13.3602  -19.1156   24.6175 O   0  0  0  0  0  0  0  0  0  0  0  0
   10.6161  -19.0488   29.1643 O   0  0  0  0  0  0  0  0  0  0  0  0
  1  2  1  0
  3  4  1  0
  3  2  1  0
  5  4  1  0
  5  6  1  1
  7  5  1  0
  8  7  2  0
 10  9  1  1
 11 10  1  0
 12 10  1  0
 13 12  1  1
 13 14  1  0
 14  7  1  0
 15 13  1  0
 15 17  1  0
 16 15  2  0
 18 19  1  1
 18 22  1  0
 18 17  1  0
 19 20  1  0
 20 24  1  0
 20 21  2  0
 22 25  1  0
 23 22  2  0
M  END
$$$$
