MLD.pdb
     RDKit          3D

 25 24  0  0  1  0  0  0  0  0999 V2000
    7.5163  -11.2540   20.0599 C   0  0  0  0  0  0  0  0  0  0  0  0
    8.4232  -12.6089   19.2556 S   0  0  0  0  0  0  0  0  0  0  0  0
    7.3864  -14.0765   19.1031 C   0  0  0  0  0  0  0  0  0  0  0  0
    6.9794  -14.5751   20.4395 C   0  0  0  0  0  0  0  0  0  0  0  0
    7.8281  -15.5891   21.1090 C   0  0  2  0  0  0  0  0  0  0  0  0
    6.9987  -16.8031   21.3178 N   0  0  0  0  0  0  0  0  0  0  0  0
    8.4146  -15.2448   22.4022 C   0  0  0  0  0  0  0  0  0  0  0  0
    9.6116  -14.8247   22.4923 O   0  0  0  0  0  0  0  0  0  0  0  0
    5.5892  -12.8734   26.6355 C   0  0  0  0  0  0  0  0  0  0  0  0
    6.7319  -13.1588   25.6840 C   0  0  1  0  0  0  0  0  0  0  0  0
    7.8981  -12.2859   26.1346 C   0  0  0  0  0  0  0  0  0  0  0  0
    7.1015  -14.6042   25.8513 C   0  0  0  0  0  0  0  0  0  0  0  0
    8.2180  -15.0309   24.9037 C   0  0  2  0  0  0  0  0  0  0  0  0
    7.6545  -15.3727   23.5905 N   0  0  0  0  0  0  0  0  0  0  0  0
    8.7496  -16.2929   25.4743 C   0  0  0  0  0  0  0  0  0  0  0  0
    7.9739  -17.2718   25.5870 O   0  0  0  0  0  0  0  0  0  0  0  0
   10.1026  -16.4292   25.8956 N   0  0  0  0  0  0  0  0  0  0  0  0
   10.5520  -17.7402   26.2970 C   0  0  1  0  0  0  0  0  0  0  0  0
   11.9068  -18.0136   25.7100 C   0  0  0  0  0  0  0  0  0  0  0  0
   12.4013  -19.3407   26.1151 C   0  0  0  0  0  0  0  0  0  0  0  0
   11.7217  -20.0835   26.8474 O   0  0  0  0  0  0  0  0  0  0  0  0
   10.7406  -17.8157   27.7921 C   0  0  0  0  0  0  0  0  0  0  0  0
   10.7364  -16.7237   28.4103 O   0  0  0  0  0  0  0  0  0  0  0  0
   13.6523  -19.7435   25.6563 O   0  0  0  0  0  0  0  0  0  0  0  0
   10.9043  -19.0262   28.4043 O   0  0  0  0  0  0  0  0  0  0  0  0
  1  2  1  0
  3  4  1  0
  3  2  1  0
  5  4  1  0
  5  6  1  1
  7  5  1  0
  8  7  2  0
 10  9  1  1
 11 10  1  0
 12 10  1  0
 13 12  1  1
 13 14  1  0
 14  7  1  0
 15 13  1  0
 15 17  1  0
 16 15  2  0
 18 19  1  6
 18 22  1  0
 18 17  1  0
 19 20  1  0
 20 24  1  0
 20 21  2  0
 22 25  1  0
 23 22  2  0
M  END
$$$$
