MLD.pdb
     RDKit          3D

 25 24  0  0  1  0  0  0  0  0999 V2000
    7.3899  -14.8941   16.9706 C   0  0  0  0  0  0  0  0  0  0  0  0
    8.4741  -13.8230   17.9618 S   0  0  0  0  0  0  0  0  0  0  0  0
    7.5061  -12.7160   19.0057 C   0  0  0  0  0  0  0  0  0  0  0  0
    7.9367  -12.8163   20.4215 C   0  0  0  0  0  0  0  0  0  0  0  0
    8.1637  -14.1608   21.0022 C   0  0  2  0  0  0  0  0  0  0  0  0
    6.8456  -14.8380   21.0982 N   0  0  0  0  0  0  0  0  0  0  0  0
    8.7820  -14.2402   22.3237 C   0  0  0  0  0  0  0  0  0  0  0  0
   10.0234  -14.0158   22.4853 O   0  0  0  0  0  0  0  0  0  0  0  0
    5.9175  -12.5923   26.7123 C   0  0  0  0  0  0  0  0  0  0  0  0
    7.0637  -12.7798   25.7409 C   0  0  1  0  0  0  0  0  0  0  0  0
    8.1958  -11.8827   26.2293 C   0  0  0  0  0  0  0  0  0  0  0  0
    7.4949  -14.2150   25.8312 C   0  0  0  0  0  0  0  0  0  0  0  0
    8.5767  -14.5609   24.8131 C   0  0  2  0  0  0  0  0  0  0  0  0
    8.0038  -14.5706   23.4601 N   0  0  0  0  0  0  0  0  0  0  0  0
    8.9613  -15.9612   25.1167 C   0  0  0  0  0  0  0  0  0  0  0  0
    8.0738  -16.8465   25.0807 O   0  0  0  0  0  0  0  0  0  0  0  0
   10.2961  -16.3314   25.4454 N   0  0  0  0  0  0  0  0  0  0  0  0
   10.5656  -17.7284   25.6853 C   0  0  1  0  0  0  0  0  0  0  0  0
   11.9986  -18.0324   25.3551 C   0  0  0  0  0  0  0  0  0  0  0  0
   12.3478  -17.5416   24.0109 C   0  0  0  0  0  0  0  0  0  0  0  0
   11.6746  -17.8636   23.0144 O   0  0  0  0  0  0  0  0  0  0  0  0
   10.4106  -18.0685   27.1470 C   0  0  0  0  0  0  0  0  0  0  0  0
   10.1246  -17.1170   27.9134 O   0  0  0  0  0  0  0  0  0  0  0  0
   13.4536  -16.7057   23.8837 O   0  0  0  0  0  0  0  0  0  0  0  0
   10.5802  -19.3548   27.5756 O   0  0  0  0  0  0  0  0  0  0  0  0
  1  2  1  0
  3  4  1  0
  3  2  1  0
  5  4  1  0
  5  6  1  1
  7  5  1  0
  8  7  2  0
 10  9  1  1
 11 10  1  0
 12 10  1  0
 13 12  1  1
 13 14  1  0
 14  7  1  0
 15 13  1  0
 15 17  1  0
 16 15  2  0
 18 19  1  1
 18 22  1  0
 18 17  1  0
 19 20  1  0
 20 24  1  0
 20 21  2  0
 22 25  1  0
 23 22  2  0
M  END
$$$$
