MLD.pdb
     RDKit          3D

 25 24  0  0  1  0  0  0  0  0999 V2000
    6.1755  -20.1983   27.7844 C   0  0  0  0  0  0  0  0  0  0  0  0
    5.6704  -21.2141   26.3638 S   0  0  0  0  0  0  0  0  0  0  0  0
    5.6468  -20.2362   24.8487 C   0  0  0  0  0  0  0  0  0  0  0  0
    6.3821  -18.9613   25.0332 C   0  0  0  0  0  0  0  0  0  0  0  0
    6.3375  -17.9514   23.9493 C   0  0  2  0  0  0  0  0  0  0  0  0
    6.6157  -18.6519   22.6698 N   0  0  0  0  0  0  0  0  0  0  0  0
    7.2612  -16.8220   24.0276 C   0  0  0  0  0  0  0  0  0  0  0  0
    8.2709  -16.7417   23.2583 O   0  0  0  0  0  0  0  0  0  0  0  0
    5.6344  -12.3377   26.9290 C   0  0  0  0  0  0  0  0  0  0  0  0
    6.1439  -13.1823   25.7803 C   0  0  1  0  0  0  0  0  0  0  0  0
    6.2888  -12.2458   24.5858 C   0  0  0  0  0  0  0  0  0  0  0  0
    7.4982  -13.6983   26.1722 C   0  0  0  0  0  0  0  0  0  0  0  0
    8.0390  -14.7215   25.1787 C   0  0  2  0  0  0  0  0  0  0  0  0
    7.0478  -15.7857   24.9692 N   0  0  0  0  0  0  0  0  0  0  0  0
    9.1947  -15.3523   25.8622 C   0  0  0  0  0  0  0  0  0  0  0  0
   10.1953  -14.6428   26.1232 O   0  0  0  0  0  0  0  0  0  0  0  0
    9.2060  -16.7277   26.2294 N   0  0  0  0  0  0  0  0  0  0  0  0
   10.4335  -17.2714   26.7579 C   0  0  1  0  0  0  0  0  0  0  0  0
   10.1265  -18.2127   27.8870 C   0  0  0  0  0  0  0  0  0  0  0  0
   11.3638  -18.7164   28.5077 C   0  0  0  0  0  0  0  0  0  0  0  0
   12.4819  -18.3483   28.1023 O   0  0  0  0  0  0  0  0  0  0  0  0
   11.1478  -18.1061   25.7237 C   0  0  0  0  0  0  0  0  0  0  0  0
   10.4996  -18.3814   24.6851 O   0  0  0  0  0  0  0  0  0  0  0  0
   11.2496  -19.6174   29.5626 O   0  0  0  0  0  0  0  0  0  0  0  0
   12.4312  -18.5211   25.9418 O   0  0  0  0  0  0  0  0  0  0  0  0
  1  2  1  0
  3  4  1  0
  3  2  1  0
  5  4  1  0
  5  6  1  6
  7  5  1  0
  8  7  2  0
 10  9  1  1
 11 10  1  0
 12 10  1  0
 13 12  1  1
 13 14  1  0
 14  7  1  0
 15 13  1  0
 15 17  1  0
 16 15  2  0
 18 19  1  1
 18 22  1  0
 18 17  1  0
 19 20  1  0
 20 24  1  0
 20 21  2  0
 22 25  1  0
 23 22  2  0
M  END
$$$$
