MLD.pdb
     RDKit          3D

 25 24  0  0  1  0  0  0  0  0999 V2000
    7.8384  -11.6528   20.1903 C   0  0  0  0  0  0  0  0  0  0  0  0
    8.2861  -12.6139   18.7134 S   0  0  0  0  0  0  0  0  0  0  0  0
    8.8001  -14.2830   19.1627 C   0  0  0  0  0  0  0  0  0  0  0  0
    7.6765  -15.0336   19.7743 C   0  0  0  0  0  0  0  0  0  0  0  0
    7.9805  -16.0542   20.8051 C   0  0  2  0  0  0  0  0  0  0  0  0
    6.7195  -16.7781   21.1072 N   0  0  0  0  0  0  0  0  0  0  0  0
    8.5268  -15.5971   22.0808 C   0  0  0  0  0  0  0  0  0  0  0  0
    9.7595  -15.3097   22.2049 O   0  0  0  0  0  0  0  0  0  0  0  0
    8.2869  -12.3650   26.0869 C   0  0  0  0  0  0  0  0  0  0  0  0
    7.4521  -13.5622   26.4900 C   0  0  1  0  0  0  0  0  0  0  0  0
    6.2319  -13.0123   27.2206 C   0  0  0  0  0  0  0  0  0  0  0  0
    7.0085  -14.2423   25.2273 C   0  0  0  0  0  0  0  0  0  0  0  0
    8.1728  -14.8659   24.4645 C   0  0  2  0  0  0  0  0  0  0  0  0
    7.6868  -15.4635   23.2133 N   0  0  0  0  0  0  0  0  0  0  0  0
    8.6359  -15.9899   25.3149 C   0  0  0  0  0  0  0  0  0  0  0  0
    7.7903  -16.8250   25.7150 O   0  0  0  0  0  0  0  0  0  0  0  0
    9.9998  -16.1512   25.6896 N   0  0  0  0  0  0  0  0  0  0  0  0
   10.3490  -17.3144   26.4687 C   0  0  1  0  0  0  0  0  0  0  0  0
   11.7298  -17.7756   26.1004 C   0  0  0  0  0  0  0  0  0  0  0  0
   11.7909  -18.1886   24.6878 C   0  0  0  0  0  0  0  0  0  0  0  0
   10.8599  -18.8286   24.1648 O   0  0  0  0  0  0  0  0  0  0  0  0
   10.4162  -16.9832   27.9391 C   0  0  0  0  0  0  0  0  0  0  0  0
   10.2702  -15.7752   28.2457 O   0  0  0  0  0  0  0  0  0  0  0  0
   12.9203  -17.8434   23.9509 O   0  0  0  0  0  0  0  0  0  0  0  0
   10.6263  -17.9725   28.8579 O   0  0  0  0  0  0  0  0  0  0  0  0
  1  2  1  0
  3  4  1  0
  3  2  1  0
  5  4  1  0
  5  6  1  1
  7  5  1  0
  8  7  2  0
 10  9  1  6
 11 10  1  0
 12 10  1  0
 13 12  1  1
 13 14  1  0
 14  7  1  0
 15 13  1  0
 15 17  1  0
 16 15  2  0
 18 19  1  6
 18 22  1  0
 18 17  1  0
 19 20  1  0
 20 24  1  0
 20 21  2  0
 22 25  1  0
 23 22  2  0
M  END
$$$$
