MLD.pdb
     RDKit          3D

 25 24  0  0  1  0  0  0  0  0999 V2000
    6.4793  -13.3113   17.6384 C   0  0  0  0  0  0  0  0  0  0  0  0
    7.3146  -13.7021   19.2052 S   0  0  0  0  0  0  0  0  0  0  0  0
    7.1808  -15.4598   19.5854 C   0  0  0  0  0  0  0  0  0  0  0  0
    7.7601  -15.7560   20.9183 C   0  0  0  0  0  0  0  0  0  0  0  0
    8.7350  -14.8020   21.4980 C   0  0  2  0  0  0  0  0  0  0  0  0
    9.9968  -14.9221   20.7242 N   0  0  0  0  0  0  0  0  0  0  0  0
    9.0834  -14.9520   22.9091 C   0  0  0  0  0  0  0  0  0  0  0  0
   10.2114  -15.4206   23.2634 O   0  0  0  0  0  0  0  0  0  0  0  0
    5.8231  -12.2637   26.6611 C   0  0  0  0  0  0  0  0  0  0  0  0
    7.0553  -12.6369   25.8643 C   0  0  1  0  0  0  0  0  0  0  0  0
    8.1835  -11.7439   26.3687 C   0  0  0  0  0  0  0  0  0  0  0  0
    7.3763  -14.0684   26.1833 C   0  0  0  0  0  0  0  0  0  0  0  0
    8.5287  -14.6061   25.3411 C   0  0  2  0  0  0  0  0  0  0  0  0
    8.1640  -14.5744   23.9181 N   0  0  0  0  0  0  0  0  0  0  0  0
    8.6459  -16.0374   25.7131 C   0  0  0  0  0  0  0  0  0  0  0  0
    8.0980  -16.8932   24.9783 O   0  0  0  0  0  0  0  0  0  0  0  0
    9.3553  -16.4694   26.8693 N   0  0  0  0  0  0  0  0  0  0  0  0
    9.9670  -17.7757   26.8327 C   0  0  1  0  0  0  0  0  0  0  0  0
   11.2867  -17.6978   26.1205 C   0  0  0  0  0  0  0  0  0  0  0  0
   11.2714  -18.5033   24.8874 C   0  0  0  0  0  0  0  0  0  0  0  0
   10.2407  -19.0982   24.5215 O   0  0  0  0  0  0  0  0  0  0  0  0
   10.2905  -18.2634   28.2233 C   0  0  0  0  0  0  0  0  0  0  0  0
   10.5536  -17.3813   29.0762 O   0  0  0  0  0  0  0  0  0  0  0  0
   12.4429  -18.5823   24.1398 O   0  0  0  0  0  0  0  0  0  0  0  0
   10.2871  -19.6012   28.5010 O   0  0  0  0  0  0  0  0  0  0  0  0
  1  2  1  0
  3  4  1  0
  3  2  1  0
  5  4  1  0
  5  6  1  6
  7  5  1  0
  8  7  2  0
 10  9  1  1
 11 10  1  0
 12 10  1  0
 13 12  1  1
 13 14  1  0
 14  7  1  0
 15 13  1  0
 15 17  1  0
 16 15  2  0
 18 19  1  6
 18 22  1  0
 18 17  1  0
 19 20  1  0
 20 24  1  0
 20 21  2  0
 22 25  1  0
 23 22  2  0
M  END
$$$$
