MLD.pdb
     RDKit          3D

 25 24  0  0  1  0  0  0  0  0999 V2000
    7.4597  -11.9792   18.4910 C   0  0  0  0  0  0  0  0  0  0  0  0
    7.3782  -13.6120   17.6955 S   0  0  0  0  0  0  0  0  0  0  0  0
    7.5928  -14.9302   18.9072 C   0  0  0  0  0  0  0  0  0  0  0  0
    8.3536  -14.4449   20.0844 C   0  0  0  0  0  0  0  0  0  0  0  0
    8.6390  -15.3932   21.1870 C   0  0  2  0  0  0  0  0  0  0  0  0
    7.4021  -16.1754   21.4393 N   0  0  0  0  0  0  0  0  0  0  0  0
    9.0650  -14.8417   22.4712 C   0  0  0  0  0  0  0  0  0  0  0  0
   10.1842  -14.2506   22.5961 O   0  0  0  0  0  0  0  0  0  0  0  0
    8.1128  -11.8955   26.6660 C   0  0  0  0  0  0  0  0  0  0  0  0
    7.5344  -13.2679   26.9389 C   0  0  1  0  0  0  0  0  0  0  0  0
    6.2112  -13.0435   27.6628 C   0  0  0  0  0  0  0  0  0  0  0  0
    7.2685  -13.9125   25.6094 C   0  0  0  0  0  0  0  0  0  0  0  0
    8.5542  -14.2678   24.8695 C   0  0  2  0  0  0  0  0  0  0  0  0
    8.2322  -14.9549   23.6113 N   0  0  0  0  0  0  0  0  0  0  0  0
    9.2343  -15.2656   25.7312 C   0  0  0  0  0  0  0  0  0  0  0  0
    9.5914  -14.9178   26.8819 O   0  0  0  0  0  0  0  0  0  0  0  0
    9.4934  -16.5969   25.2983 N   0  0  0  0  0  0  0  0  0  0  0  0
   10.4948  -17.3519   26.0118 C   0  0  1  0  0  0  0  0  0  0  0  0
    9.9918  -18.7427   26.2714 C   0  0  0  0  0  0  0  0  0  0  0  0
    9.6475  -18.9246   27.6920 C   0  0  0  0  0  0  0  0  0  0  0  0
   10.2926  -18.3496   28.5882 O   0  0  0  0  0  0  0  0  0  0  0  0
   11.7405  -17.5256   25.1784 C   0  0  0  0  0  0  0  0  0  0  0  0
   12.7149  -18.0809   25.7414 O   0  0  0  0  0  0  0  0  0  0  0  0
    8.5786  -19.7588   28.0072 O   0  0  0  0  0  0  0  0  0  0  0  0
   11.7683  -17.0891   23.8839 O   0  0  0  0  0  0  0  0  0  0  0  0
  1  2  1  0
  3  4  1  0
  3  2  1  0
  5  4  1  0
  5  6  1  1
  7  5  1  0
  8  7  2  0
 10  9  1  6
 11 10  1  0
 12 10  1  0
 13 12  1  1
 13 14  1  0
 14  7  1  0
 15 13  1  0
 15 17  1  0
 16 15  2  0
 18 19  1  6
 18 22  1  0
 18 17  1  0
 19 20  1  0
 20 24  1  0
 20 21  2  0
 22 25  1  0
 23 22  2  0
M  END
$$$$
