MLD.pdb
     RDKit          3D

 25 24  0  0  1  0  0  0  0  0999 V2000
    9.0266  -11.5623   18.9911 C   0  0  0  0  0  0  0  0  0  0  0  0
    7.5890  -12.5123   18.4115 S   0  0  0  0  0  0  0  0  0  0  0  0
    7.4973  -14.1115   19.2401 C   0  0  0  0  0  0  0  0  0  0  0  0
    8.2302  -14.0796   20.5292 C   0  0  0  0  0  0  0  0  0  0  0  0
    8.3146  -15.3237   21.3303 C   0  0  2  0  0  0  0  0  0  0  0  0
    6.9403  -15.8719   21.4564 N   0  0  0  0  0  0  0  0  0  0  0  0
    8.8636  -15.2321   22.6812 C   0  0  0  0  0  0  0  0  0  0  0  0
   10.1063  -15.0452   22.8765 O   0  0  0  0  0  0  0  0  0  0  0  0
    5.8764  -12.7528   26.6609 C   0  0  0  0  0  0  0  0  0  0  0  0
    7.0616  -13.1217   25.7938 C   0  0  1  0  0  0  0  0  0  0  0  0
    8.2339  -12.2775   26.2818 C   0  0  0  0  0  0  0  0  0  0  0  0
    7.3598  -14.5724   26.0393 C   0  0  0  0  0  0  0  0  0  0  0  0
    8.5030  -15.0849   25.1693 C   0  0  2  0  0  0  0  0  0  0  0  0
    8.0149  -15.3499   23.8090 N   0  0  0  0  0  0  0  0  0  0  0  0
    8.8706  -16.4007   25.7476 C   0  0  0  0  0  0  0  0  0  0  0  0
    7.9910  -17.2921   25.8129 O   0  0  0  0  0  0  0  0  0  0  0  0
   10.1804  -16.6836   26.2282 N   0  0  0  0  0  0  0  0  0  0  0  0
   10.4860  -18.0490   26.5804 C   0  0  1  0  0  0  0  0  0  0  0  0
   11.7161  -18.4990   25.8461 C   0  0  0  0  0  0  0  0  0  0  0  0
   12.1087  -19.8588   26.2544 C   0  0  0  0  0  0  0  0  0  0  0  0
   11.2864  -20.6366   26.7727 O   0  0  0  0  0  0  0  0  0  0  0  0
   10.8277  -18.1688   28.0451 C   0  0  0  0  0  0  0  0  0  0  0  0
   11.0212  -17.0935   28.6621 O   0  0  0  0  0  0  0  0  0  0  0  0
   13.4274  -20.2524   26.0448 O   0  0  0  0  0  0  0  0  0  0  0  0
   10.9128  -19.3994   28.6330 O   0  0  0  0  0  0  0  0  0  0  0  0
  1  2  1  0
  3  4  1  0
  3  2  1  0
  5  4  1  0
  5  6  1  1
  7  5  1  0
  8  7  2  0
 10  9  1  1
 11 10  1  0
 12 10  1  0
 13 12  1  1
 13 14  1  0
 14  7  1  0
 15 13  1  0
 15 17  1  0
 16 15  2  0
 18 19  1  6
 18 22  1  0
 18 17  1  0
 19 20  1  0
 20 24  1  0
 20 21  2  0
 22 25  1  0
 23 22  2  0
M  END
$$$$
