CMP.pdb
     RDKit          3D

 22 22  0  0  1  0  0  0  0  0999 V2000
   34.3676  -27.7747  -18.9241 N   0  0  0  0  0  0  0  0  0  0  0  0
   33.5249  -28.8337  -19.4015 C   0  0  1  0  0  0  0  0  0  0  0  0
   34.3370  -30.0971  -19.5190 C   0  0  0  0  0  0  0  0  0  0  0  0
   33.2797  -31.3646  -20.2868 S   0  0  0  0  0  0  0  0  0  0  0  0
   32.3271  -29.0268  -18.5366 C   0  0  0  0  0  0  0  0  0  0  0  0
   32.5068  -29.0012  -17.2784 O   0  0  0  0  0  0  0  0  0  0  0  0
   27.3261  -25.9320  -16.4627 C   0  0  0  0  0  0  0  0  0  0  0  0
   26.6573  -27.1483  -17.6119 S   0  0  0  0  0  0  0  0  0  0  0  0
   27.6199  -28.6863  -17.6125 C   0  0  0  0  0  0  0  0  0  0  0  0
   28.7927  -28.4920  -18.5427 C   0  0  0  0  0  0  0  0  0  0  0  0
   29.9218  -29.4538  -18.2390 C   0  0  2  0  0  0  0  0  0  0  0  0
   31.0516  -29.2290  -19.1064 N   0  0  0  0  0  0  0  0  0  0  0  0
   29.4609  -30.8732  -18.3453 C   0  0  0  0  0  0  0  0  0  0  0  0
   29.6602  -31.4315  -19.4701 O   0  0  0  0  0  0  0  0  0  0  0  0
   28.8422  -31.5887  -17.2948 N   0  0  0  0  0  0  0  0  0  0  0  0
   28.3858  -31.1472  -16.0024 C   0  0  0  0  0  0  0  0  0  0  0  0
   28.6191  -32.3624  -15.0868 C   0  0  0  0  0  0  0  0  0  0  0  0
   29.1059  -33.4626  -16.0050 C   0  0  0  0  0  0  0  0  0  0  0  0
   28.5357  -33.0067  -17.3417 C   0  0  1  0  0  0  0  0  0  0  0  0
   27.0753  -33.2677  -17.3456 C   0  0  0  0  0  0  0  0  0  0  0  0
   26.2976  -32.2791  -17.2785 O   0  0  0  0  0  0  0  0  0  0  0  0
   26.4917  -34.5136  -17.4171 O   0  0  0  0  0  0  0  0  0  0  0  0
  2  1  1  1
  3  2  1  0
  4  3  1  0
  5 12  1  0
  5  2  1  0
  6  5  2  0
  7  8  1  0
  8  9  1  0
  9 10  1  0
 11 10  1  6
 11 12  1  0
 11 13  1  0
 13 15  1  0
 14 13  2  0
 15 16  1  0
 15 19  1  0
 16 17  1  0
 17 18  1  0
 19 20  1  1
 19 18  1  0
 20 22  1  0
 21 20  2  0
M  END
$$$$
