CMP.pdb
     RDKit          3D

 22 22  0  0  1  0  0  0  0  0999 V2000
   28.5154  -17.5480  -16.6189 N   0  0  0  0  0  0  0  0  0  0  0  0
   27.6241  -17.4222  -15.5012 C   0  0  1  0  0  0  0  0  0  0  0  0
   26.4456  -16.5734  -15.9015 C   0  0  0  0  0  0  0  0  0  0  0  0
   26.8676  -14.8386  -15.5458 S   0  0  0  0  0  0  0  0  0  0  0  0
   27.1948  -18.7493  -14.9774 C   0  0  0  0  0  0  0  0  0  0  0  0
   26.9275  -19.6535  -15.8301 O   0  0  0  0  0  0  0  0  0  0  0  0
   24.7350  -20.7401   -8.4492 C   0  0  0  0  0  0  0  0  0  0  0  0
   26.0913  -21.5767   -9.2906 S   0  0  0  0  0  0  0  0  0  0  0  0
   25.8934  -21.5512  -11.0940 C   0  0  0  0  0  0  0  0  0  0  0  0
   26.6433  -20.3514  -11.6200 C   0  0  0  0  0  0  0  0  0  0  0  0
   26.4897  -20.1999  -13.1185 C   0  0  2  0  0  0  0  0  0  0  0  0
   27.0940  -18.9777  -13.5881 N   0  0  0  0  0  0  0  0  0  0  0  0
   25.0490  -20.2529  -13.5185 C   0  0  0  0  0  0  0  0  0  0  0  0
   24.5030  -19.1285  -13.7511 O   0  0  0  0  0  0  0  0  0  0  0  0
   24.3026  -21.4468  -13.6445 N   0  0  0  0  0  0  0  0  0  0  0  0
   24.6382  -22.8027  -13.2945 C   0  0  0  0  0  0  0  0  0  0  0  0
   23.9182  -23.6535  -14.3562 C   0  0  0  0  0  0  0  0  0  0  0  0
   23.1198  -22.6664  -15.1801 C   0  0  0  0  0  0  0  0  0  0  0  0
   22.9606  -21.5173  -14.1931 C   0  0  1  0  0  0  0  0  0  0  0  0
   21.9550  -21.9060  -13.1742 C   0  0  0  0  0  0  0  0  0  0  0  0
   22.3683  -22.2357  -12.0308 O   0  0  0  0  0  0  0  0  0  0  0  0
   20.5924  -21.9373  -13.3750 O   0  0  0  0  0  0  0  0  0  0  0  0
  2  1  1  6
  3  2  1  0
  4  3  1  0
  5 12  1  0
  5  2  1  0
  6  5  2  0
  7  8  1  0
  8  9  1  0
  9 10  1  0
 11 10  1  1
 11 12  1  0
 11 13  1  0
 13 15  1  0
 14 13  2  0
 15 16  1  0
 15 19  1  0
 16 17  1  0
 17 18  1  0
 19 20  1  1
 19 18  1  0
 20 22  1  0
 21 20  2  0
M  END
$$$$
