CMP.pdb
     RDKit          3D

 22 22  0  0  1  0  0  0  0  0999 V2000
   29.2282  -20.6846  -16.4149 N   0  0  0  0  0  0  0  0  0  0  0  0
   28.4095  -19.8446  -15.5880 C   0  0  1  0  0  0  0  0  0  0  0  0
   27.7713  -18.7806  -16.4424 C   0  0  0  0  0  0  0  0  0  0  0  0
   27.8984  -17.2014  -15.5458 S   0  0  0  0  0  0  0  0  0  0  0  0
   27.3925  -20.6273  -14.8310 C   0  0  0  0  0  0  0  0  0  0  0  0
   26.7954  -21.5617  -15.4527 O   0  0  0  0  0  0  0  0  0  0  0  0
   26.6689  -20.6757   -8.3854 C   0  0  0  0  0  0  0  0  0  0  0  0
   24.9731  -21.0371   -8.8763 S   0  0  0  0  0  0  0  0  0  0  0  0
   24.8381  -21.3901  -10.6509 C   0  0  0  0  0  0  0  0  0  0  0  0
   26.0191  -20.7473  -11.3368 C   0  0  0  0  0  0  0  0  0  0  0  0
   25.9985  -20.9763  -12.8332 C   0  0  2  0  0  0  0  0  0  0  0  0
   27.1145  -20.3310  -13.4792 N   0  0  0  0  0  0  0  0  0  0  0  0
   24.7103  -20.5049  -13.4305 C   0  0  0  0  0  0  0  0  0  0  0  0
   24.6982  -19.2957  -13.8231 O   0  0  0  0  0  0  0  0  0  0  0  0
   23.5578  -21.3113  -13.5720 N   0  0  0  0  0  0  0  0  0  0  0  0
   23.2709  -22.6310  -13.0727 C   0  0  0  0  0  0  0  0  0  0  0  0
   22.3791  -23.2578  -14.1595 C   0  0  0  0  0  0  0  0  0  0  0  0
   22.1442  -22.1519  -15.1656 C   0  0  0  0  0  0  0  0  0  0  0  0
   22.3689  -20.9157  -14.3047 C   0  0  1  0  0  0  0  0  0  0  0  0
   21.1933  -20.7382  -13.4175 C   0  0  0  0  0  0  0  0  0  0  0  0
   21.3301  -21.0044  -12.1939 O   0  0  0  0  0  0  0  0  0  0  0  0
   19.9510  -20.3022  -13.8233 O   0  0  0  0  0  0  0  0  0  0  0  0
  2  1  1  6
  3  2  1  0
  4  3  1  0
  5 12  1  0
  5  2  1  0
  6  5  2  0
  7  8  1  0
  8  9  1  0
  9 10  1  0
 11 10  1  1
 11 12  1  0
 11 13  1  0
 13 15  1  0
 14 13  2  0
 15 16  1  0
 15 19  1  0
 16 17  1  0
 17 18  1  0
 19 20  1  1
 19 18  1  0
 20 22  1  0
 21 20  2  0
M  END
$$$$
