CMP.pdb
     RDKit          3D

 22 22  0  0  1  0  0  0  0  0999 V2000
   15.1827  -10.9203  -15.3580 N   0  0  0  0  0  0  0  0  0  0  0  0
   15.4740   -9.5401  -15.6223 C   0  0  1  0  0  0  0  0  0  0  0  0
   14.6940   -8.6779  -14.6643 C   0  0  0  0  0  0  0  0  0  0  0  0
   12.9681   -8.6320  -15.2415 S   0  0  0  0  0  0  0  0  0  0  0  0
   16.9349   -9.2553  -15.5559 C   0  0  0  0  0  0  0  0  0  0  0  0
   17.5741   -9.7185  -14.5594 O   0  0  0  0  0  0  0  0  0  0  0  0
   21.9007   -8.3983  -19.9793 C   0  0  0  0  0  0  0  0  0  0  0  0
   20.5557   -9.5942  -19.8895 S   0  0  0  0  0  0  0  0  0  0  0  0
   19.8031   -9.6504  -18.2396 C   0  0  0  0  0  0  0  0  0  0  0  0
   19.6948   -8.2311  -17.7371 C   0  0  0  0  0  0  0  0  0  0  0  0
   18.9601   -8.1527  -16.4157 C   0  0  2  0  0  0  0  0  0  0  0  0
   17.5688   -8.5004  -16.5662 N   0  0  0  0  0  0  0  0  0  0  0  0
   19.0916   -6.7917  -15.8085 C   0  0  0  0  0  0  0  0  0  0  0  0
   18.0474   -6.0678  -15.8542 O   0  0  0  0  0  0  0  0  0  0  0  0
   20.2744   -6.2986  -15.2114 N   0  0  0  0  0  0  0  0  0  0  0  0
   21.5831   -6.8885  -15.0991 C   0  0  0  0  0  0  0  0  0  0  0  0
   22.1128   -6.3723  -13.7491 C   0  0  0  0  0  0  0  0  0  0  0  0
   21.0555   -5.4112  -13.2501 C   0  0  0  0  0  0  0  0  0  0  0  0
   20.3818   -5.0083  -14.5553 C   0  0  1  0  0  0  0  0  0  0  0  0
   21.2804   -4.0791  -15.2833 C   0  0  0  0  0  0  0  0  0  0  0  0
   21.9649   -4.5417  -16.2342 O   0  0  0  0  0  0  0  0  0  0  0  0
   21.4311   -2.7385  -15.0039 O   0  0  0  0  0  0  0  0  0  0  0  0
  2  1  1  1
  3  2  1  0
  4  3  1  0
  5 12  1  0
  5  2  1  0
  6  5  2  0
  7  8  1  0
  8  9  1  0
  9 10  1  0
 11 10  1  6
 11 12  1  0
 11 13  1  0
 13 15  1  0
 14 13  2  0
 15 16  1  0
 15 19  1  0
 16 17  1  0
 17 18  1  0
 19 20  1  6
 19 18  1  0
 20 22  1  0
 21 20  2  0
M  END
$$$$
