CMP.pdb
     RDKit          3D

 22 22  0  0  1  0  0  0  0  0999 V2000
   17.0319  -14.7060  -16.0906 N   0  0  0  0  0  0  0  0  0  0  0  0
   16.9048  -13.2983  -16.3388 C   0  0  1  0  0  0  0  0  0  0  0  0
   15.8087  -12.7398  -15.4691 C   0  0  0  0  0  0  0  0  0  0  0  0
   15.6090  -10.9807  -15.8926 S   0  0  0  0  0  0  0  0  0  0  0  0
   18.1922  -12.5769  -16.1342 C   0  0  0  0  0  0  0  0  0  0  0  0
   18.8240  -12.8071  -15.0553 O   0  0  0  0  0  0  0  0  0  0  0  0
   23.4760  -13.4546  -20.0865 C   0  0  0  0  0  0  0  0  0  0  0  0
   22.5648  -11.9482  -19.7020 S   0  0  0  0  0  0  0  0  0  0  0  0
   21.5207  -12.1404  -18.2306 C   0  0  0  0  0  0  0  0  0  0  0  0
   20.7823  -10.8407  -18.0202 C   0  0  0  0  0  0  0  0  0  0  0  0
   19.8587  -10.9017  -16.8221 C   0  0  2  0  0  0  0  0  0  0  0  0
   18.6773  -11.6775  -17.1081 N   0  0  0  0  0  0  0  0  0  0  0  0
   19.4792   -9.5281  -16.3665 C   0  0  0  0  0  0  0  0  0  0  0  0
   18.3349   -9.1221  -16.7437 O   0  0  0  0  0  0  0  0  0  0  0  0
   20.3015   -8.6998  -15.5690 N   0  0  0  0  0  0  0  0  0  0  0  0
   21.6237   -8.9202  -15.0430 C   0  0  0  0  0  0  0  0  0  0  0  0
   21.6196   -8.1781  -13.6944 C   0  0  0  0  0  0  0  0  0  0  0  0
   20.2753   -7.4862  -13.6271 C   0  0  0  0  0  0  0  0  0  0  0  0
   19.9239   -7.3773  -15.1051 C   0  0  1  0  0  0  0  0  0  0  0  0
   20.7561   -6.3088  -15.7107 C   0  0  0  0  0  0  0  0  0  0  0  0
   21.7251   -6.6543  -16.4376 O   0  0  0  0  0  0  0  0  0  0  0  0
   20.5565   -4.9561  -15.5432 O   0  0  0  0  0  0  0  0  0  0  0  0
  2  1  1  1
  3  2  1  0
  4  3  1  0
  5 12  1  0
  5  2  1  0
  6  5  2  0
  7  8  1  0
  8  9  1  0
  9 10  1  0
 11 10  1  6
 11 12  1  0
 11 13  1  0
 13 15  1  0
 14 13  2  0
 15 16  1  0
 15 19  1  0
 16 17  1  0
 17 18  1  0
 19 20  1  6
 19 18  1  0
 20 22  1  0
 21 20  2  0
M  END
$$$$
