CMP.pdb
     RDKit          3D

 22 22  0  0  1  0  0  0  0  0999 V2000
   29.1158  -20.4536  -16.3184 N   0  0  0  0  0  0  0  0  0  0  0  0
   28.3737  -19.6614  -15.3797 C   0  0  1  0  0  0  0  0  0  0  0  0
   27.6224  -18.5881  -16.1234 C   0  0  0  0  0  0  0  0  0  0  0  0
   28.7964  -17.2473  -16.4945 S   0  0  0  0  0  0  0  0  0  0  0  0
   27.4632  -20.4934  -14.5439 C   0  0  0  0  0  0  0  0  0  0  0  0
   26.8905  -21.4777  -15.1090 O   0  0  0  0  0  0  0  0  0  0  0  0
   26.9329  -20.8032   -7.9173 C   0  0  0  0  0  0  0  0  0  0  0  0
   25.2320  -20.6768   -8.4988 S   0  0  0  0  0  0  0  0  0  0  0  0
   25.0726  -21.1429  -10.2449 C   0  0  0  0  0  0  0  0  0  0  0  0
   26.2354  -20.5331  -10.9897 C   0  0  0  0  0  0  0  0  0  0  0  0
   26.1806  -20.8368  -12.4718 C   0  0  2  0  0  0  0  0  0  0  0  0
   27.2552  -20.1881  -13.1815 N   0  0  0  0  0  0  0  0  0  0  0  0
   24.8607  -20.4385  -13.0529 C   0  0  0  0  0  0  0  0  0  0  0  0
   24.7570  -19.2174  -13.3915 O   0  0  0  0  0  0  0  0  0  0  0  0
   23.7729  -21.3228  -13.2346 N   0  0  0  0  0  0  0  0  0  0  0  0
   23.6323  -22.7161  -12.8995 C   0  0  0  0  0  0  0  0  0  0  0  0
   22.7241  -23.2789  -14.0076 C   0  0  0  0  0  0  0  0  0  0  0  0
   22.3293  -22.0803  -14.8430 C   0  0  0  0  0  0  0  0  0  0  0  0
   22.5078  -20.9483  -13.8397 C   0  0  1  0  0  0  0  0  0  0  0  0
   21.3847  -20.9941  -12.8715 C   0  0  0  0  0  0  0  0  0  0  0  0
   20.2342  -20.6906  -13.2854 O   0  0  0  0  0  0  0  0  0  0  0  0
   21.4949  -21.3442  -11.5437 O   0  0  0  0  0  0  0  0  0  0  0  0
  2  1  1  6
  3  2  1  0
  4  3  1  0
  5 12  1  0
  5  2  1  0
  6  5  2  0
  7  8  1  0
  8  9  1  0
  9 10  1  0
 11 10  1  1
 11 12  1  0
 11 13  1  0
 13 15  1  0
 14 13  2  0
 15 16  1  0
 15 19  1  0
 16 17  1  0
 17 18  1  0
 19 20  1  1
 19 18  1  0
 20 22  1  0
 21 20  2  0
M  END
$$$$
