CMP.pdb
     RDKit          3D

 22 22  0  0  1  0  0  0  0  0999 V2000
   25.7685  -20.3534  -13.3827 N   0  0  0  0  0  0  0  0  0  0  0  0
   26.5499  -20.9338  -12.3281 C   0  0  1  0  0  0  0  0  0  0  0  0
   27.9957  -20.9753  -12.7493 C   0  0  0  0  0  0  0  0  0  0  0  0
   28.9462  -21.7260  -11.3902 S   0  0  0  0  0  0  0  0  0  0  0  0
   26.3722  -20.2096  -11.0382 C   0  0  0  0  0  0  0  0  0  0  0  0
   26.4102  -18.9394  -11.0732 O   0  0  0  0  0  0  0  0  0  0  0  0
   23.0428  -20.5664   -5.3080 C   0  0  0  0  0  0  0  0  0  0  0  0
   22.8689  -21.6606   -6.7293 S   0  0  0  0  0  0  0  0  0  0  0  0
   24.3672  -21.6922   -7.7521 C   0  0  0  0  0  0  0  0  0  0  0  0
   24.8704  -20.2741   -7.8711 C   0  0  0  0  0  0  0  0  0  0  0  0
   26.2048  -20.2045   -8.5829 C   0  0  2  0  0  0  0  0  0  0  0  0
   26.1707  -20.9193   -9.8348 N   0  0  0  0  0  0  0  0  0  0  0  0
   27.3040  -20.7308   -7.7152 C   0  0  0  0  0  0  0  0  0  0  0  0
   27.8194  -21.8309   -8.0902 O   0  0  0  0  0  0  0  0  0  0  0  0
   27.7741  -20.0850   -6.5488 N   0  0  0  0  0  0  0  0  0  0  0  0
   27.4227  -18.8110   -5.9772 C   0  0  0  0  0  0  0  0  0  0  0  0
   28.7295  -18.3160   -5.3316 C   0  0  0  0  0  0  0  0  0  0  0  0
   29.7144  -19.4511   -5.5106 C   0  0  0  0  0  0  0  0  0  0  0  0
   28.7733  -20.6400   -5.6541 C   0  0  1  0  0  0  0  0  0  0  0  0
   28.2155  -20.9645   -4.3183 C   0  0  0  0  0  0  0  0  0  0  0  0
   26.9959  -20.7258   -4.1127 O   0  0  0  0  0  0  0  0  0  0  0  0
   28.9266  -21.5106   -3.2723 O   0  0  0  0  0  0  0  0  0  0  0  0
  2  1  1  6
  3  2  1  0
  4  3  1  0
  5 12  1  0
  5  2  1  0
  6  5  2  0
  7  8  1  0
  8  9  1  0
  9 10  1  0
 11 10  1  1
 11 12  1  0
 11 13  1  0
 13 15  1  0
 14 13  2  0
 15 16  1  0
 15 19  1  0
 16 17  1  0
 17 18  1  0
 19 20  1  1
 19 18  1  0
 20 22  1  0
 21 20  2  0
M  END
$$$$
