CMP.pdb
     RDKit          3D

 22 22  0  0  1  0  0  0  0  0999 V2000
   19.4935  -19.2691  -14.7836 N   0  0  0  0  0  0  0  0  0  0  0  0
   20.5523  -20.1165  -15.2531 C   0  0  1  0  0  0  0  0  0  0  0  0
   20.4717  -20.2234  -16.7536 C   0  0  0  0  0  0  0  0  0  0  0  0
   18.9681  -21.1653  -17.1609 S   0  0  0  0  0  0  0  0  0  0  0  0
   21.8904  -19.6378  -14.8056 C   0  0  0  0  0  0  0  0  0  0  0  0
   22.1790  -18.4204  -15.0310 O   0  0  0  0  0  0  0  0  0  0  0  0
   25.4142  -20.7477   -9.2983 C   0  0  0  0  0  0  0  0  0  0  0  0
   26.4841  -21.2002  -10.6759 S   0  0  0  0  0  0  0  0  0  0  0  0
   26.0205  -20.3458  -12.2078 C   0  0  0  0  0  0  0  0  0  0  0  0
   24.5891  -20.7096  -12.5198 C   0  0  0  0  0  0  0  0  0  0  0  0
   24.0915  -20.0250  -13.7751 C   0  0  2  0  0  0  0  0  0  0  0  0
   22.7900  -20.5127  -14.1592 N   0  0  0  0  0  0  0  0  0  0  0  0
   25.0622  -20.1962  -14.9006 C   0  0  0  0  0  0  0  0  0  0  0  0
   24.7959  -21.1346  -15.7162 O   0  0  0  0  0  0  0  0  0  0  0  0
   26.2110  -19.3941  -15.0883 N   0  0  0  0  0  0  0  0  0  0  0  0
   26.8623  -18.4678  -14.1988 C   0  0  0  0  0  0  0  0  0  0  0  0
   27.4164  -17.3770  -15.1328 C   0  0  0  0  0  0  0  0  0  0  0  0
   27.1089  -17.8611  -16.5334 C   0  0  0  0  0  0  0  0  0  0  0  0
   26.9954  -19.3633  -16.3093 C   0  0  1  0  0  0  0  0  0  0  0  0
   28.3585  -19.9164  -16.1174 C   0  0  0  0  0  0  0  0  0  0  0  0
   28.6609  -20.3627  -14.9789 O   0  0  0  0  0  0  0  0  0  0  0  0
   29.3321  -19.9837  -17.0898 O   0  0  0  0  0  0  0  0  0  0  0  0
  2  1  1  6
  3  2  1  0
  4  3  1  0
  5 12  1  0
  5  2  1  0
  6  5  2  0
  7  8  1  0
  8  9  1  0
  9 10  1  0
 11 10  1  1
 11 12  1  0
 11 13  1  0
 13 15  1  0
 14 13  2  0
 15 16  1  0
 15 19  1  0
 16 17  1  0
 17 18  1  0
 19 20  1  1
 19 18  1  0
 20 22  1  0
 21 20  2  0
M  END
$$$$
