CMP.pdb
     RDKit          3D

 22 22  0  0  1  0  0  0  0  0999 V2000
   16.0359  -11.9271  -14.8430 N   0  0  0  0  0  0  0  0  0  0  0  0
   15.7663  -10.5201  -14.9288 C   0  0  1  0  0  0  0  0  0  0  0  0
   14.2833  -10.2917  -14.7936 C   0  0  0  0  0  0  0  0  0  0  0  0
   13.4782  -11.0023  -16.2635 S   0  0  0  0  0  0  0  0  0  0  0  0
   16.5381   -9.7413  -13.9201 C   0  0  0  0  0  0  0  0  0  0  0  0
   16.6598  -10.2487  -12.7609 O   0  0  0  0  0  0  0  0  0  0  0  0
   22.8720   -9.7002  -13.2010 C   0  0  0  0  0  0  0  0  0  0  0  0
   21.7700   -8.3229  -13.5699 S   0  0  0  0  0  0  0  0  0  0  0  0
   20.0409   -8.7108  -13.1805 C   0  0  0  0  0  0  0  0  0  0  0  0
   19.2113   -7.4967  -13.5213 C   0  0  0  0  0  0  0  0  0  0  0  0
   17.7428   -7.7120  -13.2221 C   0  0  2  0  0  0  0  0  0  0  0  0
   17.1051   -8.4923  -14.2535 N   0  0  0  0  0  0  0  0  0  0  0  0
   17.0338   -6.4063  -13.0467 C   0  0  0  0  0  0  0  0  0  0  0  0
   16.3468   -6.0174  -14.0434 O   0  0  0  0  0  0  0  0  0  0  0  0
   17.0914   -5.6222  -11.8719 N   0  0  0  0  0  0  0  0  0  0  0  0
   17.7586   -5.8606  -10.6184 C   0  0  0  0  0  0  0  0  0  0  0  0
   16.8365   -5.2085   -9.5724 C   0  0  0  0  0  0  0  0  0  0  0  0
   15.7406   -4.5388  -10.3731 C   0  0  0  0  0  0  0  0  0  0  0  0
   16.4344   -4.3375  -11.7141 C   0  0  1  0  0  0  0  0  0  0  0  0
   17.4030   -3.2217  -11.5816 C   0  0  0  0  0  0  0  0  0  0  0  0
   18.6271   -3.5076  -11.5006 O   0  0  0  0  0  0  0  0  0  0  0  0
   17.0731   -1.8848  -11.5393 O   0  0  0  0  0  0  0  0  0  0  0  0
  2  1  1  1
  3  2  1  0
  4  3  1  0
  5 12  1  0
  5  2  1  0
  6  5  2  0
  7  8  1  0
  8  9  1  0
  9 10  1  0
 11 10  1  6
 11 12  1  0
 11 13  1  0
 13 15  1  0
 14 13  2  0
 15 16  1  0
 15 19  1  0
 16 17  1  0
 17 18  1  0
 19 20  1  1
 19 18  1  0
 20 22  1  0
 21 20  2  0
M  END
$$$$
