CMP.pdb
     RDKit          3D

 22 22  0  0  1  0  0  0  0  0999 V2000
   22.7521  -15.9482  -16.7336 N   0  0  0  0  0  0  0  0  0  0  0  0
   22.5092  -17.0732  -15.8763 C   0  0  1  0  0  0  0  0  0  0  0  0
   21.5158  -17.9930  -16.5371 C   0  0  0  0  0  0  0  0  0  0  0  0
   19.8475  -17.4209  -16.0860 S   0  0  0  0  0  0  0  0  0  0  0  0
   23.7683  -17.7859  -15.5204 C   0  0  0  0  0  0  0  0  0  0  0  0
   24.7691  -17.6183  -16.2862 O   0  0  0  0  0  0  0  0  0  0  0  0
   24.5156  -20.8720   -9.9145 C   0  0  0  0  0  0  0  0  0  0  0  0
   26.1879  -21.0726  -10.5552 S   0  0  0  0  0  0  0  0  0  0  0  0
   26.3294  -20.5163  -12.2763 C   0  0  0  0  0  0  0  0  0  0  0  0
   25.0963  -19.7077  -12.5990 C   0  0  0  0  0  0  0  0  0  0  0  0
   25.0759  -19.2586  -14.0447 C   0  0  2  0  0  0  0  0  0  0  0  0
   23.8313  -18.6102  -14.3763 N   0  0  0  0  0  0  0  0  0  0  0  0
   25.3227  -20.4098  -14.9678 C   0  0  0  0  0  0  0  0  0  0  0  0
   24.2869  -21.0478  -15.3376 O   0  0  0  0  0  0  0  0  0  0  0  0
   26.6014  -20.8003  -15.4272 N   0  0  0  0  0  0  0  0  0  0  0  0
   27.9137  -20.3583  -15.0325 C   0  0  0  0  0  0  0  0  0  0  0  0
   28.7427  -20.4414  -16.3268 C   0  0  0  0  0  0  0  0  0  0  0  0
   27.8133  -21.0508  -17.3541 C   0  0  0  0  0  0  0  0  0  0  0  0
   26.8301  -21.7946  -16.4596 C   0  0  1  0  0  0  0  0  0  0  0  0
   27.4975  -23.0104  -15.9332 C   0  0  0  0  0  0  0  0  0  0  0  0
   27.7787  -23.9301  -16.7467 O   0  0  0  0  0  0  0  0  0  0  0  0
   27.8393  -23.2207  -14.6153 O   0  0  0  0  0  0  0  0  0  0  0  0
  2  1  1  6
  3  2  1  0
  4  3  1  0
  5 12  1  0
  5  2  1  0
  6  5  2  0
  7  8  1  0
  8  9  1  0
  9 10  1  0
 11 10  1  1
 11 12  1  0
 11 13  1  0
 13 15  1  0
 14 13  2  0
 15 16  1  0
 15 19  1  0
 16 17  1  0
 17 18  1  0
 19 20  1  1
 19 18  1  0
 20 22  1  0
 21 20  2  0
M  END
$$$$
