CMP.pdb
     RDKit          3D

 22 22  0  0  1  0  0  0  0  0999 V2000
   28.5588  -17.2733  -16.2936 N   0  0  0  0  0  0  0  0  0  0  0  0
   27.4349  -17.2114  -15.4033 C   0  0  1  0  0  0  0  0  0  0  0  0
   26.2730  -16.5715  -16.1175 C   0  0  0  0  0  0  0  0  0  0  0  0
   25.4490  -15.4530  -14.9411 S   0  0  0  0  0  0  0  0  0  0  0  0
   27.0777  -18.5524  -14.8611 C   0  0  0  0  0  0  0  0  0  0  0  0
   27.1206  -19.5362  -15.6652 O   0  0  0  0  0  0  0  0  0  0  0  0
   26.2422  -19.7737   -8.5887 C   0  0  0  0  0  0  0  0  0  0  0  0
   25.7757  -21.3880   -9.2398 S   0  0  0  0  0  0  0  0  0  0  0  0
   25.6666  -21.3866  -11.0508 C   0  0  0  0  0  0  0  0  0  0  0  0
   26.2538  -20.0864  -11.5439 C   0  0  0  0  0  0  0  0  0  0  0  0
   26.2208  -19.9868  -13.0542 C   0  0  2  0  0  0  0  0  0  0  0  0
   26.7087  -18.7078  -13.5075 N   0  0  0  0  0  0  0  0  0  0  0  0
   24.8409  -20.2306  -13.5782 C   0  0  0  0  0  0  0  0  0  0  0  0
   24.1739  -19.1887  -13.8715 O   0  0  0  0  0  0  0  0  0  0  0  0
   24.2728  -21.5130  -13.7545 N   0  0  0  0  0  0  0  0  0  0  0  0
   24.7285  -22.8074  -13.3186 C   0  0  0  0  0  0  0  0  0  0  0  0
   24.2630  -23.7637  -14.4314 C   0  0  0  0  0  0  0  0  0  0  0  0
   23.4588  -22.9034  -15.3820 C   0  0  0  0  0  0  0  0  0  0  0  0
   23.0315  -21.7663  -14.4632 C   0  0  1  0  0  0  0  0  0  0  0  0
   21.9607  -22.2626  -13.5644 C   0  0  0  0  0  0  0  0  0  0  0  0
   22.2649  -22.5246  -12.3704 O   0  0  0  0  0  0  0  0  0  0  0  0
   20.6476  -22.4634  -13.9294 O   0  0  0  0  0  0  0  0  0  0  0  0
  2  1  1  6
  3  2  1  0
  4  3  1  0
  5 12  1  0
  5  2  1  0
  6  5  2  0
  7  8  1  0
  8  9  1  0
  9 10  1  0
 11 10  1  1
 11 12  1  0
 11 13  1  0
 13 15  1  0
 14 13  2  0
 15 16  1  0
 15 19  1  0
 16 17  1  0
 17 18  1  0
 19 20  1  1
 19 18  1  0
 20 22  1  0
 21 20  2  0
M  END
$$$$
