CMP.pdb
     RDKit          3D

 22 22  0  0  1  0  0  0  0  0999 V2000
   20.5790  -12.8869  -16.3427 N   0  0  0  0  0  0  0  0  0  0  0  0
   21.4292  -11.8460  -15.8393 C   0  0  1  0  0  0  0  0  0  0  0  0
   22.5329  -11.5861  -16.8312 C   0  0  0  0  0  0  0  0  0  0  0  0
   23.7098  -10.4318  -16.0588 S   0  0  0  0  0  0  0  0  0  0  0  0
   20.6665  -10.6051  -15.5257 C   0  0  0  0  0  0  0  0  0  0  0  0
   19.9584  -10.1057  -16.4560 O   0  0  0  0  0  0  0  0  0  0  0  0
   15.9506  -10.2619  -10.7331 C   0  0  0  0  0  0  0  0  0  0  0  0
   17.4602   -9.2999  -10.9407 S   0  0  0  0  0  0  0  0  0  0  0  0
   18.1584   -9.4786  -12.6057 C   0  0  0  0  0  0  0  0  0  0  0  0
   19.4478   -8.6950  -12.6481 C   0  0  0  0  0  0  0  0  0  0  0  0
   20.0981   -8.7480  -14.0143 C   0  0  2  0  0  0  0  0  0  0  0  0
   20.7377  -10.0200  -14.2432 N   0  0  0  0  0  0  0  0  0  0  0  0
   21.0830   -7.6345  -14.1834 C   0  0  0  0  0  0  0  0  0  0  0  0
   22.3005   -7.9456  -13.9900 O   0  0  0  0  0  0  0  0  0  0  0  0
   20.7333   -6.3107  -14.5348 N   0  0  0  0  0  0  0  0  0  0  0  0
   19.4438   -5.7111  -14.7610 C   0  0  0  0  0  0  0  0  0  0  0  0
   19.7062   -4.6570  -15.8517 C   0  0  0  0  0  0  0  0  0  0  0  0
   21.2028   -4.6827  -16.0755 C   0  0  0  0  0  0  0  0  0  0  0  0
   21.6916   -5.2410  -14.7455 C   0  0  1  0  0  0  0  0  0  0  0  0
   21.5828   -4.1765  -13.7180 C   0  0  0  0  0  0  0  0  0  0  0  0
   20.5649   -4.1726  -12.9758 O   0  0  0  0  0  0  0  0  0  0  0  0
   22.5110   -3.1811  -13.5047 O   0  0  0  0  0  0  0  0  0  0  0  0
  2  1  1  6
  3  2  1  0
  4  3  1  0
  5 12  1  0
  5  2  1  0
  6  5  2  0
  7  8  1  0
  8  9  1  0
  9 10  1  0
 11 10  1  1
 11 12  1  0
 11 13  1  0
 13 15  1  0
 14 13  2  0
 15 16  1  0
 15 19  1  0
 16 17  1  0
 17 18  1  0
 19 20  1  1
 19 18  1  0
 20 22  1  0
 21 20  2  0
M  END
$$$$
