CMP.pdb
     RDKit          3D

 22 22  0  0  1  0  0  0  0  0999 V2000
   29.0340  -21.2192  -16.9998 N   0  0  0  0  0  0  0  0  0  0  0  0
   28.4252  -20.2481  -16.1361 C   0  0  1  0  0  0  0  0  0  0  0  0
   27.7801  -19.1758  -16.9748 C   0  0  0  0  0  0  0  0  0  0  0  0
   29.0919  -18.0391  -17.5235 S   0  0  0  0  0  0  0  0  0  0  0  0
   27.4531  -20.8705  -15.1940 C   0  0  0  0  0  0  0  0  0  0  0  0
   26.7766  -21.8578  -15.6229 O   0  0  0  0  0  0  0  0  0  0  0  0
   24.5851  -21.0577   -7.7978 C   0  0  0  0  0  0  0  0  0  0  0  0
   25.8776  -20.6132   -8.9722 S   0  0  0  0  0  0  0  0  0  0  0  0
   25.4072  -20.9991  -10.6814 C   0  0  0  0  0  0  0  0  0  0  0  0
   26.5846  -20.6684  -11.5662 C   0  0  0  0  0  0  0  0  0  0  0  0
   26.2916  -20.9448  -13.0256 C   0  0  2  0  0  0  0  0  0  0  0  0
   27.3009  -20.3727  -13.8820 N   0  0  0  0  0  0  0  0  0  0  0  0
   24.9379  -20.4347  -13.4072 C   0  0  0  0  0  0  0  0  0  0  0  0
   24.8844  -19.2036  -13.7207 O   0  0  0  0  0  0  0  0  0  0  0  0
   23.7682  -21.2280  -13.4342 N   0  0  0  0  0  0  0  0  0  0  0  0
   23.5481  -22.5870  -13.0123 C   0  0  0  0  0  0  0  0  0  0  0  0
   22.4888  -23.1181  -13.9948 C   0  0  0  0  0  0  0  0  0  0  0  0
   22.1111  -21.9287  -14.8511 C   0  0  0  0  0  0  0  0  0  0  0  0
   22.4833  -20.7723  -13.9325 C   0  0  1  0  0  0  0  0  0  0  0  0
   21.4644  -20.6758  -12.8585 C   0  0  0  0  0  0  0  0  0  0  0  0
   21.7746  -21.0899  -11.7100 O   0  0  0  0  0  0  0  0  0  0  0  0
   20.1938  -20.1662  -13.0130 O   0  0  0  0  0  0  0  0  0  0  0  0
  2  1  1  6
  3  2  1  0
  4  3  1  0
  5 12  1  0
  5  2  1  0
  6  5  2  0
  7  8  1  0
  8  9  1  0
  9 10  1  0
 11 10  1  1
 11 12  1  0
 11 13  1  0
 13 15  1  0
 14 13  2  0
 15 16  1  0
 15 19  1  0
 16 17  1  0
 17 18  1  0
 19 20  1  1
 19 18  1  0
 20 22  1  0
 21 20  2  0
M  END
$$$$
