CMP.pdb
     RDKit          3D

 22 22  0  0  1  0  0  0  0  0999 V2000
   17.7956  -14.6895  -15.7439 N   0  0  0  0  0  0  0  0  0  0  0  0
   17.2559  -13.3908  -16.0298 C   0  0  1  0  0  0  0  0  0  0  0  0
   16.2479  -13.0300  -14.9699 C   0  0  0  0  0  0  0  0  0  0  0  0
   14.8186  -14.1402  -15.1654 S   0  0  0  0  0  0  0  0  0  0  0  0
   18.3223  -12.3574  -16.1509 C   0  0  0  0  0  0  0  0  0  0  0  0
   19.2359  -12.3566  -15.2669 O   0  0  0  0  0  0  0  0  0  0  0  0
   21.3538   -9.8148  -21.6459 C   0  0  0  0  0  0  0  0  0  0  0  0
   20.7565   -8.4698  -20.6059 S   0  0  0  0  0  0  0  0  0  0  0  0
   20.6461   -8.9551  -18.8612 C   0  0  0  0  0  0  0  0  0  0  0  0
   19.5458   -9.9815  -18.7402 C   0  0  0  0  0  0  0  0  0  0  0  0
   19.3715  -10.4594  -17.3142 C   0  0  2  0  0  0  0  0  0  0  0  0
   18.3048  -11.4241  -17.2098 N   0  0  0  0  0  0  0  0  0  0  0  0
   19.1232   -9.3098  -16.3895 C   0  0  0  0  0  0  0  0  0  0  0  0
   17.9019   -9.0083  -16.2053 O   0  0  0  0  0  0  0  0  0  0  0  0
   20.1433   -8.5780  -15.7395 N   0  0  0  0  0  0  0  0  0  0  0  0
   21.5759   -8.6583  -15.8601 C   0  0  0  0  0  0  0  0  0  0  0  0
   22.0906   -8.3244  -14.4483 C   0  0  0  0  0  0  0  0  0  0  0  0
   20.8554   -7.9648  -13.6511 C   0  0  0  0  0  0  0  0  0  0  0  0
   19.9026   -7.5352  -14.7590 C   0  0  1  0  0  0  0  0  0  0  0  0
   20.3179   -6.1969  -15.2462 C   0  0  0  0  0  0  0  0  0  0  0  0
   20.8791   -6.1251  -16.3717 O   0  0  0  0  0  0  0  0  0  0  0  0
   20.1397   -5.0132  -14.5642 O   0  0  0  0  0  0  0  0  0  0  0  0
  2  1  1  1
  3  2  1  0
  4  3  1  0
  5 12  1  0
  5  2  1  0
  6  5  2  0
  7  8  1  0
  8  9  1  0
  9 10  1  0
 11 10  1  6
 11 12  1  0
 11 13  1  0
 13 15  1  0
 14 13  2  0
 15 16  1  0
 15 19  1  0
 16 17  1  0
 17 18  1  0
 19 20  1  6
 19 18  1  0
 20 22  1  0
 21 20  2  0
M  END
$$$$
