CMP.pdb
     RDKit          3D

 22 22  0  0  1  0  0  0  0  0999 V2000
   20.3515  -19.3010  -14.5969 N   0  0  0  0  0  0  0  0  0  0  0  0
   20.9722  -20.2854  -13.7571 C   0  0  1  0  0  0  0  0  0  0  0  0
   20.8393  -21.6404  -14.4021 C   0  0  0  0  0  0  0  0  0  0  0  0
   21.4422  -21.4994  -16.1140 S   0  0  0  0  0  0  0  0  0  0  0  0
   22.3943  -19.9519  -13.4634 C   0  0  0  0  0  0  0  0  0  0  0  0
   22.9570  -19.0906  -14.2102 O   0  0  0  0  0  0  0  0  0  0  0  0
   26.7215  -19.4803   -7.9048 C   0  0  0  0  0  0  0  0  0  0  0  0
   26.8418  -20.9478   -8.9438 S   0  0  0  0  0  0  0  0  0  0  0  0
   26.4440  -20.5896  -10.6774 C   0  0  0  0  0  0  0  0  0  0  0  0
   24.9602  -20.7991  -10.8594 C   0  0  0  0  0  0  0  0  0  0  0  0
   24.4820  -20.3170  -12.2126 C   0  0  2  0  0  0  0  0  0  0  0  0
   23.0753  -20.5756  -12.3958 N   0  0  0  0  0  0  0  0  0  0  0  0
   25.2728  -20.9454  -13.3163 C   0  0  0  0  0  0  0  0  0  0  0  0
   24.7768  -22.0068  -13.8104 O   0  0  0  0  0  0  0  0  0  0  0  0
   26.4927  -20.4314  -13.8123 N   0  0  0  0  0  0  0  0  0  0  0  0
   27.4408  -19.5279  -13.2138 C   0  0  0  0  0  0  0  0  0  0  0  0
   28.0041  -18.7320  -14.4049 C   0  0  0  0  0  0  0  0  0  0  0  0
   27.3767  -19.3578  -15.6317 C   0  0  0  0  0  0  0  0  0  0  0  0
   27.0445  -20.7519  -15.1160 C   0  0  1  0  0  0  0  0  0  0  0  0
   28.3027  -21.5318  -15.0192 C   0  0  0  0  0  0  0  0  0  0  0  0
   28.7823  -21.7410  -13.8733 O   0  0  0  0  0  0  0  0  0  0  0  0
   28.9986  -22.0520  -16.0883 O   0  0  0  0  0  0  0  0  0  0  0  0
  2  1  1  6
  3  2  1  0
  4  3  1  0
  5 12  1  0
  5  2  1  0
  6  5  2  0
  7  8  1  0
  8  9  1  0
  9 10  1  0
 11 10  1  1
 11 12  1  0
 11 13  1  0
 13 15  1  0
 14 13  2  0
 15 16  1  0
 15 19  1  0
 16 17  1  0
 17 18  1  0
 19 20  1  1
 19 18  1  0
 20 22  1  0
 21 20  2  0
M  END
$$$$
