CMP.pdb
     RDKit          3D

 22 22  0  0  1  0  0  0  0  0999 V2000
   17.5862  -12.9460  -16.7861 N   0  0  0  0  0  0  0  0  0  0  0  0
   18.3205  -11.7179  -16.6751 C   0  0  1  0  0  0  0  0  0  0  0  0
   18.9267  -11.3816  -18.0126 C   0  0  0  0  0  0  0  0  0  0  0  0
   20.2954  -12.5450  -18.3076 S   0  0  0  0  0  0  0  0  0  0  0  0
   17.4739  -10.6061  -16.1583 C   0  0  0  0  0  0  0  0  0  0  0  0
   16.4612  -10.2743  -16.8516 O   0  0  0  0  0  0  0  0  0  0  0  0
   17.4337  -10.4521   -9.9279 C   0  0  0  0  0  0  0  0  0  0  0  0
   15.8748   -9.9549  -10.6829 S   0  0  0  0  0  0  0  0  0  0  0  0
   15.9399  -10.0325  -12.4944 C   0  0  0  0  0  0  0  0  0  0  0  0
   16.8237   -8.9049  -12.9696 C   0  0  0  0  0  0  0  0  0  0  0  0
   16.9545   -8.8849  -14.4778 C   0  0  2  0  0  0  0  0  0  0  0  0
   17.7964   -9.9576  -14.9468 N   0  0  0  0  0  0  0  0  0  0  0  0
   17.4802   -7.5674  -14.9535 C   0  0  0  0  0  0  0  0  0  0  0  0
   18.7435   -7.4935  -15.0765 O   0  0  0  0  0  0  0  0  0  0  0  0
   16.6683   -6.4515  -15.2597 N   0  0  0  0  0  0  0  0  0  0  0  0
   15.2409   -6.2808  -15.1773 C   0  0  0  0  0  0  0  0  0  0  0  0
   14.9087   -5.3303  -16.3416 C   0  0  0  0  0  0  0  0  0  0  0  0
   16.2474   -4.9482  -16.9353 C   0  0  0  0  0  0  0  0  0  0  0  0
   17.1748   -5.1826  -15.7501 C   0  0  1  0  0  0  0  0  0  0  0  0
   16.9801   -4.0829  -14.7735 C   0  0  0  0  0  0  0  0  0  0  0  0
   17.3664   -2.9286  -15.0978 O   0  0  0  0  0  0  0  0  0  0  0  0
   16.4062   -4.2191  -13.5285 O   0  0  0  0  0  0  0  0  0  0  0  0
  2  1  1  6
  3  2  1  0
  4  3  1  0
  5 12  1  0
  5  2  1  0
  6  5  2  0
  7  8  1  0
  8  9  1  0
  9 10  1  0
 11 10  1  1
 11 12  1  0
 11 13  1  0
 13 15  1  0
 14 13  2  0
 15 16  1  0
 15 19  1  0
 16 17  1  0
 17 18  1  0
 19 20  1  1
 19 18  1  0
 20 22  1  0
 21 20  2  0
M  END
$$$$
