CEN.pdb
     RDKit          3D

 24 23  0  0  1  0  0  0  0  0999 V2000
    6.9247  -15.4541   20.4277 N   0  0  0  0  0  0  0  0  0  0  0  0
    8.0836  -14.7213   20.9026 C   0  0  1  0  0  0  0  0  0  0  0  0
    7.6179  -13.6427   21.8891 C   0  0  0  0  0  0  0  0  0  0  0  0
    6.7451  -14.3969   23.2668 S   0  0  0  0  0  0  0  0  0  0  0  0
    9.0418  -15.6438   21.5571 C   0  0  0  0  0  0  0  0  0  0  0  0
    8.6205  -16.7265   22.0180 O   0  0  0  0  0  0  0  0  0  0  0  0
   10.4173  -15.3212   21.6677 N   0  0  0  0  0  0  0  0  0  0  0  0
   11.3690  -16.1849   22.3904 C   0  0  1  0  0  0  0  0  0  0  0  0
   12.7448  -15.7176   22.0754 C   0  0  0  0  0  0  0  0  0  0  0  0
   13.8787  -16.4048   22.7145 C   0  0  0  0  0  0  0  0  0  0  0  0
   15.2107  -15.8676   22.3457 C   0  0  0  0  0  0  0  0  0  0  0  0
   15.3164  -14.7203   21.8551 O   0  0  0  0  0  0  0  0  0  0  0  0
   11.0466  -16.2301   23.8276 C   0  0  0  0  0  0  0  0  0  0  0  0
   10.2714  -15.3786   24.3204 O   0  0  0  0  0  0  0  0  0  0  0  0
   16.3803  -16.5982   22.5244 O   0  0  0  0  0  0  0  0  0  0  0  0
    9.5912  -18.5455   28.3442 N   0  0  0  0  0  0  0  0  0  0  0  0
    9.0024  -18.5672   27.0632 C   0  0  0  0  0  0  0  0  0  0  0  0
    7.8121  -19.0309   27.0158 O   0  0  0  0  0  0  0  0  0  0  0  0
    9.5917  -18.1243   25.8035 C   0  0  0  0  0  0  0  0  0  0  0  0
   10.9547  -17.5355   26.0158 C   0  0  2  0  0  0  0  0  0  0  0  0
   11.5718  -17.2036   24.7163 N   0  0  0  0  0  0  0  0  0  0  0  0
   11.8497  -18.5791   26.5908 C   0  0  0  0  0  0  0  0  0  0  0  0
   12.5883  -19.2856   25.8218 O   0  0  0  0  0  0  0  0  0  0  0  0
   11.9618  -18.8678   27.9371 O   0  0  0  0  0  0  0  0  0  0  0  0
  2  1  1  1
  3  4  1  0
  3  2  1  0
  5  2  1  0
  6  5  2  0
  7  5  1  0
  8  7  1  0
  8  9  1  1
  9 10  1  0
 10 11  1  0
 11 12  2  0
 11 15  1  0
 13  8  1  0
 14 13  2  0
 16 17  1  0
 17 18  2  0
 19 17  1  0
 20 19  1  6
 20 21  1  0
 21 13  1  0
 22 24  1  0
 22 20  1  0
 23 22  2  0
M  END
$$$$
