CEN.pdb
     RDKit          3D

 24 23  0  0  1  0  0  0  0  0999 V2000
   -0.0125  -22.2707   18.7584 N   0  0  0  0  0  0  0  0  0  0  0  0
    1.4008  -21.9807   18.9140 C   0  0  1  0  0  0  0  0  0  0  0  0
    1.7680  -20.8013   18.0043 C   0  0  0  0  0  0  0  0  0  0  0  0
    2.2373  -21.3968   16.3752 S   0  0  0  0  0  0  0  0  0  0  0  0
    1.7065  -21.6593   20.3285 C   0  0  0  0  0  0  0  0  0  0  0  0
    0.9166  -20.9313   20.9677 O   0  0  0  0  0  0  0  0  0  0  0  0
    2.8701  -22.1601   20.9635 N   0  0  0  0  0  0  0  0  0  0  0  0
    3.1686  -21.8865   22.3813 C   0  0  1  0  0  0  0  0  0  0  0  0
    2.4465  -22.8912   23.2055 C   0  0  0  0  0  0  0  0  0  0  0  0
    2.8664  -24.2991   23.1159 C   0  0  0  0  0  0  0  0  0  0  0  0
    2.1800  -25.2074   24.0658 C   0  0  0  0  0  0  0  0  0  0  0  0
    1.6961  -24.7607   25.1309 O   0  0  0  0  0  0  0  0  0  0  0  0
    4.6237  -21.8328   22.6083 C   0  0  0  0  0  0  0  0  0  0  0  0
    5.3944  -22.4941   21.8753 O   0  0  0  0  0  0  0  0  0  0  0  0
    2.0445  -26.5699   23.8225 O   0  0  0  0  0  0  0  0  0  0  0  0
    9.4434  -20.6723   24.6180 N   0  0  0  0  0  0  0  0  0  0  0  0
    8.4699  -19.6892   24.8897 C   0  0  0  0  0  0  0  0  0  0  0  0
    8.8983  -18.6469   25.4930 O   0  0  0  0  0  0  0  0  0  0  0  0
    7.0481  -19.7279   24.5622 C   0  0  0  0  0  0  0  0  0  0  0  0
    6.6849  -21.0010   23.8571 C   0  0  2  0  0  0  0  0  0  0  0  0
    5.2269  -21.0582   23.6327 N   0  0  0  0  0  0  0  0  0  0  0  0
    6.9622  -22.1524   24.7616 C   0  0  0  0  0  0  0  0  0  0  0  0
    8.1678  -22.4568   25.0619 O   0  0  0  0  0  0  0  0  0  0  0  0
    5.9958  -22.9580   25.3323 O   0  0  0  0  0  0  0  0  0  0  0  0
  2  1  1  1
  3  4  1  0
  3  2  1  0
  5  2  1  0
  6  5  2  0
  7  5  1  0
  8  7  1  0
  8  9  1  1
  9 10  1  0
 10 11  1  0
 11 12  2  0
 11 15  1  0
 13  8  1  0
 14 13  2  0
 16 17  1  0
 17 18  2  0
 19 17  1  0
 20 19  1  1
 20 21  1  0
 21 13  1  0
 22 24  1  0
 22 20  1  0
 23 22  2  0
M  END
$$$$
