CEN.pdb
     RDKit          3D

 24 23  0  0  1  0  0  0  0  0999 V2000
    7.7770  -14.8502   18.9550 N   0  0  0  0  0  0  0  0  0  0  0  0
    8.7172  -14.3355   19.9333 C   0  0  1  0  0  0  0  0  0  0  0  0
    8.1849  -13.0048   20.4802 C   0  0  0  0  0  0  0  0  0  0  0  0
    8.3833  -11.7062   19.2542 S   0  0  0  0  0  0  0  0  0  0  0  0
    8.9000  -15.3123   21.0333 C   0  0  0  0  0  0  0  0  0  0  0  0
    7.8957  -15.8896   21.5028 O   0  0  0  0  0  0  0  0  0  0  0  0
   10.1847  -15.6006   21.5573 N   0  0  0  0  0  0  0  0  0  0  0  0
   10.3943  -16.6198   22.6019 C   0  0  1  0  0  0  0  0  0  0  0  0
   11.2941  -17.6664   22.0494 C   0  0  0  0  0  0  0  0  0  0  0  0
   11.7547  -18.7366   22.9488 C   0  0  0  0  0  0  0  0  0  0  0  0
   12.7409  -19.6652   22.3458 C   0  0  0  0  0  0  0  0  0  0  0  0
   13.9079  -19.7279   22.7955 O   0  0  0  0  0  0  0  0  0  0  0  0
   10.8657  -15.9979   23.8520 C   0  0  0  0  0  0  0  0  0  0  0  0
   11.9227  -15.3260   23.8548 O   0  0  0  0  0  0  0  0  0  0  0  0
   12.4218  -20.4928   21.2748 O   0  0  0  0  0  0  0  0  0  0  0  0
   11.1743  -14.0316   28.7890 N   0  0  0  0  0  0  0  0  0  0  0  0
    9.9274  -14.6287   28.5118 C   0  0  0  0  0  0  0  0  0  0  0  0
    9.0898  -14.6201   29.4773 O   0  0  0  0  0  0  0  0  0  0  0  0
    9.4923  -15.2455   27.2625 C   0  0  0  0  0  0  0  0  0  0  0  0
   10.6505  -15.4865   26.3405 C   0  0  2  0  0  0  0  0  0  0  0  0
   10.1806  -16.1134   25.0892 N   0  0  0  0  0  0  0  0  0  0  0  0
   11.5493  -16.5085   26.9477 C   0  0  0  0  0  0  0  0  0  0  0  0
   12.4560  -16.1539   27.7772 O   0  0  0  0  0  0  0  0  0  0  0  0
   11.4922  -17.8640   26.6871 O   0  0  0  0  0  0  0  0  0  0  0  0
  2  1  1  6
  3  4  1  0
  3  2  1  0
  5  2  1  0
  6  5  2  0
  7  5  1  0
  8  7  1  0
  8  9  1  6
  9 10  1  0
 10 11  1  0
 11 12  2  0
 11 15  1  0
 13  8  1  0
 14 13  2  0
 16 17  1  0
 17 18  2  0
 19 17  1  0
 20 19  1  1
 20 21  1  0
 21 13  1  0
 22 24  1  0
 22 20  1  0
 23 22  2  0
M  END
$$$$
