CEN.pdb
     RDKit          3D

 24 23  0  0  1  0  0  0  0  0999 V2000
    7.6382  -13.8033   17.4186 N   0  0  0  0  0  0  0  0  0  0  0  0
    8.4424  -13.3703   18.5463 C   0  0  1  0  0  0  0  0  0  0  0  0
    7.5422  -13.2591   19.7834 C   0  0  0  0  0  0  0  0  0  0  0  0
    8.5356  -12.9451   21.2475 S   0  0  0  0  0  0  0  0  0  0  0  0
    9.5437  -14.3319   18.7910 C   0  0  0  0  0  0  0  0  0  0  0  0
    9.2979  -15.5567   18.7486 O   0  0  0  0  0  0  0  0  0  0  0  0
   10.8607  -13.8892   19.0697 N   0  0  0  0  0  0  0  0  0  0  0  0
   11.9708  -14.8308   19.3042 C   0  0  1  0  0  0  0  0  0  0  0  0
   13.1208  -14.4045   18.4639 C   0  0  0  0  0  0  0  0  0  0  0  0
   14.3617  -15.1936   18.5270 C   0  0  0  0  0  0  0  0  0  0  0  0
   15.3965  -14.7927   17.5437 C   0  0  0  0  0  0  0  0  0  0  0  0
   15.8870  -15.6384   16.7612 O   0  0  0  0  0  0  0  0  0  0  0  0
   12.2663  -14.9426   20.7436 C   0  0  0  0  0  0  0  0  0  0  0  0
   12.3289  -13.9100   21.4498 O   0  0  0  0  0  0  0  0  0  0  0  0
   15.8604  -13.4853   17.4468 O   0  0  0  0  0  0  0  0  0  0  0  0
   11.8234  -17.0988   25.9395 N   0  0  0  0  0  0  0  0  0  0  0  0
   12.4765  -17.6728   24.8294 C   0  0  0  0  0  0  0  0  0  0  0  0
   13.4729  -18.4232   25.1087 O   0  0  0  0  0  0  0  0  0  0  0  0
   12.1453  -17.5090   23.4174 C   0  0  0  0  0  0  0  0  0  0  0  0
   12.8020  -16.2901   22.8407 C   0  0  2  0  0  0  0  0  0  0  0  0
   12.4909  -16.1793   21.4017 N   0  0  0  0  0  0  0  0  0  0  0  0
   14.2808  -16.4697   22.8834 C   0  0  0  0  0  0  0  0  0  0  0  0
   14.8501  -17.2946   22.0886 O   0  0  0  0  0  0  0  0  0  0  0  0
   15.1327  -15.7986   23.7390 O   0  0  0  0  0  0  0  0  0  0  0  0
  2  1  1  6
  3  4  1  0
  3  2  1  0
  5  2  1  0
  6  5  2  0
  7  5  1  0
  8  7  1  0
  8  9  1  6
  9 10  1  0
 10 11  1  0
 11 12  2  0
 11 15  1  0
 13  8  1  0
 14 13  2  0
 16 17  1  0
 17 18  2  0
 19 17  1  0
 20 19  1  6
 20 21  1  0
 21 13  1  0
 22 24  1  0
 22 20  1  0
 23 22  2  0
M  END
$$$$
