CEN.pdb
     RDKit          3D

 24 23  0  0  1  0  0  0  0  0999 V2000
    7.6125  -13.7716   18.1031 N   0  0  0  0  0  0  0  0  0  0  0  0
    8.8363  -13.1388   18.5589 C   0  0  1  0  0  0  0  0  0  0  0  0
    8.5228  -12.2861   19.7950 C   0  0  0  0  0  0  0  0  0  0  0  0
    7.8423  -13.3144   21.1020 S   0  0  0  0  0  0  0  0  0  0  0  0
    9.8558  -14.1653   18.8820 C   0  0  0  0  0  0  0  0  0  0  0  0
    9.4808  -15.3276   19.1478 O   0  0  0  0  0  0  0  0  0  0  0  0
   11.2381  -13.8532   18.8941 N   0  0  0  0  0  0  0  0  0  0  0  0
   12.2697  -14.8742   19.1537 C   0  0  1  0  0  0  0  0  0  0  0  0
   13.3953  -14.6408   18.2109 C   0  0  0  0  0  0  0  0  0  0  0  0
   14.5758  -15.5150   18.3033 C   0  0  0  0  0  0  0  0  0  0  0  0
   15.6319  -15.2306   17.3021 C   0  0  0  0  0  0  0  0  0  0  0  0
   16.0942  -16.1521   16.5913 O   0  0  0  0  0  0  0  0  0  0  0  0
   12.6492  -14.8838   20.5776 C   0  0  0  0  0  0  0  0  0  0  0  0
   12.9437  -13.8105   21.1521 O   0  0  0  0  0  0  0  0  0  0  0  0
   16.1470  -13.9533   17.1100 O   0  0  0  0  0  0  0  0  0  0  0  0
   10.3175  -15.7626   23.3276 N   0  0  0  0  0  0  0  0  0  0  0  0
   11.0285  -16.9200   23.7059 C   0  0  0  0  0  0  0  0  0  0  0  0
   10.3354  -17.8217   24.2894 O   0  0  0  0  0  0  0  0  0  0  0  0
   12.4471  -17.1996   23.5071 C   0  0  0  0  0  0  0  0  0  0  0  0
   13.1274  -16.0791   22.7782 C   0  0  2  0  0  0  0  0  0  0  0  0
   12.7044  -16.0636   21.3639 N   0  0  0  0  0  0  0  0  0  0  0  0
   14.5906  -16.3559   22.7204 C   0  0  0  0  0  0  0  0  0  0  0  0
   15.0765  -17.0400   21.7550 O   0  0  0  0  0  0  0  0  0  0  0  0
   15.5129  -15.9231   23.6533 O   0  0  0  0  0  0  0  0  0  0  0  0
  2  1  1  1
  3  4  1  0
  3  2  1  0
  5  2  1  0
  6  5  2  0
  7  5  1  0
  8  7  1  0
  8  9  1  6
  9 10  1  0
 10 11  1  0
 11 12  2  0
 11 15  1  0
 13  8  1  0
 14 13  2  0
 16 17  1  0
 17 18  2  0
 19 17  1  0
 20 19  1  1
 20 21  1  0
 21 13  1  0
 22 24  1  0
 22 20  1  0
 23 22  2  0
M  END
$$$$
