CEN.pdb
     RDKit          3D

 24 23  0  0  1  0  0  0  0  0999 V2000
    8.1607  -14.3441   17.6304 N   0  0  0  0  0  0  0  0  0  0  0  0
    9.1862  -13.6626   18.3983 C   0  0  1  0  0  0  0  0  0  0  0  0
    8.5761  -13.1778   19.7197 C   0  0  0  0  0  0  0  0  0  0  0  0
    7.4279  -11.8296   19.4155 S   0  0  0  0  0  0  0  0  0  0  0  0
   10.3256  -14.5749   18.6569 C   0  0  0  0  0  0  0  0  0  0  0  0
   10.1035  -15.7979   18.7884 O   0  0  0  0  0  0  0  0  0  0  0  0
   11.6525  -14.0875   18.7564 N   0  0  0  0  0  0  0  0  0  0  0  0
   12.8013  -14.9831   18.9845 C   0  0  1  0  0  0  0  0  0  0  0  0
   13.8211  -14.6980   17.9410 C   0  0  0  0  0  0  0  0  0  0  0  0
   15.0892  -15.4442   17.9821 C   0  0  0  0  0  0  0  0  0  0  0  0
   16.0717  -15.0452   16.9458 C   0  0  0  0  0  0  0  0  0  0  0  0
   17.2584  -14.7987   17.2606 O   0  0  0  0  0  0  0  0  0  0  0  0
   13.2876  -14.8668   20.3708 C   0  0  0  0  0  0  0  0  0  0  0  0
   13.6496  -13.7525   20.8137 O   0  0  0  0  0  0  0  0  0  0  0  0
   15.7277  -14.9291   15.6034 O   0  0  0  0  0  0  0  0  0  0  0  0
   10.9224  -15.6766   23.0906 N   0  0  0  0  0  0  0  0  0  0  0  0
   11.6905  -16.7631   23.5571 C   0  0  0  0  0  0  0  0  0  0  0  0
   11.0249  -17.7134   24.0936 O   0  0  0  0  0  0  0  0  0  0  0  0
   13.1400  -16.9219   23.4953 C   0  0  0  0  0  0  0  0  0  0  0  0
   13.7738  -15.8351   22.6787 C   0  0  2  0  0  0  0  0  0  0  0  0
   13.3752  -15.9664   21.2632 N   0  0  0  0  0  0  0  0  0  0  0  0
   15.2501  -16.0375   22.6642 C   0  0  0  0  0  0  0  0  0  0  0  0
   15.9414  -15.7940   23.7126 O   0  0  0  0  0  0  0  0  0  0  0  0
   15.9747  -16.4838   21.5760 O   0  0  0  0  0  0  0  0  0  0  0  0
  2  1  1  6
  3  4  1  0
  3  2  1  0
  5  2  1  0
  6  5  2  0
  7  5  1  0
  8  7  1  0
  8  9  1  6
  9 10  1  0
 10 11  1  0
 11 12  2  0
 11 15  1  0
 13  8  1  0
 14 13  2  0
 16 17  1  0
 17 18  2  0
 19 17  1  0
 20 19  1  1
 20 21  1  0
 21 13  1  0
 22 24  1  0
 22 20  1  0
 23 22  2  0
M  END
$$$$
