CEN.pdb
     RDKit          3D

 24 23  0  0  1  0  0  0  0  0999 V2000
    7.0367  -13.8609   17.2618 N   0  0  0  0  0  0  0  0  0  0  0  0
    8.3053  -13.6363   17.9296 C   0  0  1  0  0  0  0  0  0  0  0  0
    8.2432  -12.2965   18.6742 C   0  0  0  0  0  0  0  0  0  0  0  0
    9.7754  -12.0120   19.5688 S   0  0  0  0  0  0  0  0  0  0  0  0
    8.5910  -14.7421   18.8747 C   0  0  0  0  0  0  0  0  0  0  0  0
    7.8325  -14.9125   19.8534 O   0  0  0  0  0  0  0  0  0  0  0  0
    9.7011  -15.6029   18.6882 N   0  0  0  0  0  0  0  0  0  0  0  0
   10.0231  -16.6835   19.6383 C   0  0  1  0  0  0  0  0  0  0  0  0
    9.4764  -17.9538   19.0926 C   0  0  0  0  0  0  0  0  0  0  0  0
    8.9437  -17.9518   17.7204 C   0  0  0  0  0  0  0  0  0  0  0  0
    8.4394  -19.2659   17.2544 C   0  0  0  0  0  0  0  0  0  0  0  0
    9.2363  -20.2045   17.0257 O   0  0  0  0  0  0  0  0  0  0  0  0
   11.4670  -16.7087   19.9317 C   0  0  0  0  0  0  0  0  0  0  0  0
   12.2896  -16.3804   19.0460 O   0  0  0  0  0  0  0  0  0  0  0  0
    7.0854  -19.5120   17.0540 O   0  0  0  0  0  0  0  0  0  0  0  0
   16.1819  -14.9257   21.4071 N   0  0  0  0  0  0  0  0  0  0  0  0
   15.0285  -15.1379   22.1900 C   0  0  0  0  0  0  0  0  0  0  0  0
   15.2107  -15.0986   23.4546 O   0  0  0  0  0  0  0  0  0  0  0  0
   13.6690  -15.3923   21.7238 C   0  0  0  0  0  0  0  0  0  0  0  0
   13.4084  -16.8620   21.5773 C   0  0  2  0  0  0  0  0  0  0  0  0
   12.0027  -17.0915   21.1885 N   0  0  0  0  0  0  0  0  0  0  0  0
   13.5301  -17.5117   22.9129 C   0  0  0  0  0  0  0  0  0  0  0  0
   12.5120  -17.5907   23.6832 O   0  0  0  0  0  0  0  0  0  0  0  0
   14.6916  -18.0617   23.4198 O   0  0  0  0  0  0  0  0  0  0  0  0
  2  1  1  1
  3  4  1  0
  3  2  1  0
  5  2  1  0
  6  5  2  0
  7  5  1  0
  8  7  1  0
  8  9  1  6
  9 10  1  0
 10 11  1  0
 11 12  2  0
 11 15  1  0
 13  8  1  0
 14 13  2  0
 16 17  1  0
 17 18  2  0
 19 17  1  0
 20 19  1  1
 20 21  1  0
 21 13  1  0
 22 24  1  0
 22 20  1  0
 23 22  2  0
M  END
$$$$
