CEN.pdb
     RDKit          3D

 24 23  0  0  1  0  0  0  0  0999 V2000
    6.1155  -13.9871   23.1483 N   0  0  0  0  0  0  0  0  0  0  0  0
    7.3953  -13.8698   23.8223 C   0  0  1  0  0  0  0  0  0  0  0  0
    7.1504  -13.4934   25.2892 C   0  0  0  0  0  0  0  0  0  0  0  0
    8.6908  -12.9923   26.0668 S   0  0  0  0  0  0  0  0  0  0  0  0
    8.1422  -15.1471   23.7323 C   0  0  0  0  0  0  0  0  0  0  0  0
    7.5189  -16.2227   23.8623 O   0  0  0  0  0  0  0  0  0  0  0  0
    9.5404  -15.1690   23.5027 N   0  0  0  0  0  0  0  0  0  0  0  0
   10.3119  -16.4253   23.4837 C   0  0  1  0  0  0  0  0  0  0  0  0
   11.2827  -16.3520   22.3601 C   0  0  0  0  0  0  0  0  0  0  0  0
   12.1588  -17.5098   22.1182 C   0  0  0  0  0  0  0  0  0  0  0  0
   13.1004  -17.3425   20.9851 C   0  0  0  0  0  0  0  0  0  0  0  0
   14.0903  -16.5830   21.0920 O   0  0  0  0  0  0  0  0  0  0  0  0
   10.9134  -16.6893   24.8029 C   0  0  0  0  0  0  0  0  0  0  0  0
   11.6270  -17.7048   24.9713 O   0  0  0  0  0  0  0  0  0  0  0  0
   12.9313  -18.0083   19.7760 O   0  0  0  0  0  0  0  0  0  0  0  0
   11.0885  -13.5336   28.3731 N   0  0  0  0  0  0  0  0  0  0  0  0
   10.1378  -14.5125   28.7282 C   0  0  0  0  0  0  0  0  0  0  0  0
    9.2308  -14.1249   29.5413 O   0  0  0  0  0  0  0  0  0  0  0  0
   10.0740  -15.8987   28.2760 C   0  0  0  0  0  0  0  0  0  0  0  0
   11.1651  -16.2029   27.2929 C   0  0  2  0  0  0  0  0  0  0  0  0
   10.7324  -15.8439   25.9278 N   0  0  0  0  0  0  0  0  0  0  0  0
   11.3699  -17.6779   27.2366 C   0  0  0  0  0  0  0  0  0  0  0  0
   12.3530  -18.2133   27.8555 O   0  0  0  0  0  0  0  0  0  0  0  0
   10.5610  -18.5611   26.5480 O   0  0  0  0  0  0  0  0  0  0  0  0
  2  1  1  6
  3  4  1  0
  3  2  1  0
  5  2  1  0
  6  5  2  0
  7  5  1  0
  8  7  1  0
  8  9  1  6
  9 10  1  0
 10 11  1  0
 11 12  2  0
 11 15  1  0
 13  8  1  0
 14 13  2  0
 16 17  1  0
 17 18  2  0
 19 17  1  0
 20 19  1  1
 20 21  1  0
 21 13  1  0
 22 24  1  0
 22 20  1  0
 23 22  2  0
M  END
$$$$
