CEN.pdb
     RDKit          3D

 24 23  0  0  1  0  0  0  0  0999 V2000
    7.3325  -14.0844   18.3815 N   0  0  0  0  0  0  0  0  0  0  0  0
    8.3506  -14.0464   19.4148 C   0  0  1  0  0  0  0  0  0  0  0  0
    8.2696  -12.6976   20.1412 C   0  0  0  0  0  0  0  0  0  0  0  0
    8.6452  -11.3572   19.0050 S   0  0  0  0  0  0  0  0  0  0  0  0
    8.1546  -15.1626   20.3702 C   0  0  0  0  0  0  0  0  0  0  0  0
    7.0651  -15.2566   20.9755 O   0  0  0  0  0  0  0  0  0  0  0  0
    9.1741  -16.1181   20.6069 N   0  0  0  0  0  0  0  0  0  0  0  0
    9.0169  -17.2042   21.5916 C   0  0  1  0  0  0  0  0  0  0  0  0
    8.9532  -18.4914   20.8504 C   0  0  0  0  0  0  0  0  0  0  0  0
   10.0751  -18.8433   19.9651 C   0  0  0  0  0  0  0  0  0  0  0  0
    9.9381  -20.1564   19.2904 C   0  0  0  0  0  0  0  0  0  0  0  0
   10.4748  -21.1773   19.7781 O   0  0  0  0  0  0  0  0  0  0  0  0
   10.0712  -17.1351   22.6189 C   0  0  0  0  0  0  0  0  0  0  0  0
    9.8691  -17.6236   23.7544 O   0  0  0  0  0  0  0  0  0  0  0  0
    9.2214  -20.3119   18.1088 O   0  0  0  0  0  0  0  0  0  0  0  0
   12.3250  -17.1931   26.2076 N   0  0  0  0  0  0  0  0  0  0  0  0
   12.7339  -18.1209   25.2278 C   0  0  0  0  0  0  0  0  0  0  0  0
   13.0956  -19.2632   25.6729 O   0  0  0  0  0  0  0  0  0  0  0  0
   12.7881  -17.9254   23.7824 C   0  0  0  0  0  0  0  0  0  0  0  0
   12.4169  -16.5214   23.4073 C   0  0  2  0  0  0  0  0  0  0  0  0
   11.3377  -16.5342   22.3998 N   0  0  0  0  0  0  0  0  0  0  0  0
   13.5675  -15.8870   22.7041 C   0  0  0  0  0  0  0  0  0  0  0  0
   14.6330  -15.5967   23.3495 O   0  0  0  0  0  0  0  0  0  0  0  0
   13.5926  -15.5690   21.3599 O   0  0  0  0  0  0  0  0  0  0  0  0
  2  1  1  6
  3  4  1  0
  3  2  1  0
  5  2  1  0
  6  5  2  0
  7  5  1  0
  8  7  1  0
  8  9  1  6
  9 10  1  0
 10 11  1  0
 11 12  2  0
 11 15  1  0
 13  8  1  0
 14 13  2  0
 16 17  1  0
 17 18  2  0
 19 17  1  0
 20 19  1  6
 20 21  1  0
 21 13  1  0
 22 24  1  0
 22 20  1  0
 23 22  2  0
M  END
$$$$
