CEN.pdb
     RDKit          3D

 24 23  0  0  1  0  0  0  0  0999 V2000
    5.0632  -13.2657   25.6937 N   0  0  0  0  0  0  0  0  0  0  0  0
    6.4263  -13.0344   25.2528 C   0  0  1  0  0  0  0  0  0  0  0  0
    7.1369  -12.1477   26.2834 C   0  0  0  0  0  0  0  0  0  0  0  0
    6.5183  -10.4636   26.1849 S   0  0  0  0  0  0  0  0  0  0  0  0
    7.1413  -14.3235   25.0968 C   0  0  0  0  0  0  0  0  0  0  0  0
    6.9889  -15.2088   25.9659 O   0  0  0  0  0  0  0  0  0  0  0  0
    7.9881  -14.5672   23.9870 N   0  0  0  0  0  0  0  0  0  0  0  0
    8.7729  -15.8088   23.8579 C   0  0  1  0  0  0  0  0  0  0  0  0
    9.3924  -15.8228   22.5064 C   0  0  0  0  0  0  0  0  0  0  0  0
   10.2142  -16.9837   22.1275 C   0  0  0  0  0  0  0  0  0  0  0  0
   10.8168  -16.8958   20.7756 C   0  0  0  0  0  0  0  0  0  0  0  0
   11.6903  -16.0336   20.5272 O   0  0  0  0  0  0  0  0  0  0  0  0
    9.7249  -15.9441   24.9746 C   0  0  0  0  0  0  0  0  0  0  0  0
   10.3615  -14.9431   25.3767 O   0  0  0  0  0  0  0  0  0  0  0  0
   10.4475  -17.7498   19.7421 O   0  0  0  0  0  0  0  0  0  0  0  0
   11.2505  -14.5829   28.8779 N   0  0  0  0  0  0  0  0  0  0  0  0
   11.0227  -15.9743   28.8948 C   0  0  0  0  0  0  0  0  0  0  0  0
   11.6914  -16.6277   29.7665 O   0  0  0  0  0  0  0  0  0  0  0  0
   10.1202  -16.7404   28.0411 C   0  0  0  0  0  0  0  0  0  0  0  0
   10.8349  -17.2826   26.8391 C   0  0  2  0  0  0  0  0  0  0  0  0
    9.9752  -17.1697   25.6442 N   0  0  0  0  0  0  0  0  0  0  0  0
   11.0309  -18.7497   27.0124 C   0  0  0  0  0  0  0  0  0  0  0  0
   11.7224  -19.1933   27.9929 O   0  0  0  0  0  0  0  0  0  0  0  0
   10.5123  -19.7193   26.1761 O   0  0  0  0  0  0  0  0  0  0  0  0
  2  1  1  1
  3  4  1  0
  3  2  1  0
  5  2  1  0
  6  5  2  0
  7  5  1  0
  8  7  1  0
  8  9  1  6
  9 10  1  0
 10 11  1  0
 11 12  2  0
 11 15  1  0
 13  8  1  0
 14 13  2  0
 16 17  1  0
 17 18  2  0
 19 17  1  0
 20 19  1  1
 20 21  1  0
 21 13  1  0
 22 24  1  0
 22 20  1  0
 23 22  2  0
M  END
$$$$
