CEN.pdb
     RDKit          3D

 24 23  0  0  1  0  0  0  0  0999 V2000
    7.3578  -14.2320   17.9635 N   0  0  0  0  0  0  0  0  0  0  0  0
    8.4959  -13.4765   18.4532 C   0  0  1  0  0  0  0  0  0  0  0  0
    8.0454  -12.6149   19.6398 C   0  0  0  0  0  0  0  0  0  0  0  0
    7.4469  -13.6597   20.9736 S   0  0  0  0  0  0  0  0  0  0  0  0
    9.5843  -14.3955   18.8633 C   0  0  0  0  0  0  0  0  0  0  0  0
    9.3087  -15.5910   19.1023 O   0  0  0  0  0  0  0  0  0  0  0  0
   10.9221  -13.9449   18.9875 N   0  0  0  0  0  0  0  0  0  0  0  0
   12.0114  -14.8357   19.4278 C   0  0  1  0  0  0  0  0  0  0  0  0
   13.2803  -14.3391   18.8333 C   0  0  0  0  0  0  0  0  0  0  0  0
   14.4927  -15.1587   18.9910 C   0  0  0  0  0  0  0  0  0  0  0  0
   15.7338  -14.5253   18.4843 C   0  0  0  0  0  0  0  0  0  0  0  0
   16.7013  -14.3247   19.2537 O   0  0  0  0  0  0  0  0  0  0  0  0
   12.0246  -14.9592   20.8962 C   0  0  0  0  0  0  0  0  0  0  0  0
   11.4593  -14.0913   21.6005 O   0  0  0  0  0  0  0  0  0  0  0  0
   15.8780  -14.1329   17.1580 O   0  0  0  0  0  0  0  0  0  0  0  0
    9.7067  -18.1855   24.2799 N   0  0  0  0  0  0  0  0  0  0  0  0
   10.4444  -18.6030   23.1530 C   0  0  0  0  0  0  0  0  0  0  0  0
   10.6161  -19.8653   23.0484 O   0  0  0  0  0  0  0  0  0  0  0  0
   11.0242  -17.7664   22.1070 C   0  0  0  0  0  0  0  0  0  0  0  0
   12.0073  -16.7861   22.6745 C   0  0  2  0  0  0  0  0  0  0  0  0
   12.6539  -16.0280   21.5851 N   0  0  0  0  0  0  0  0  0  0  0  0
   13.1256  -17.5356   23.3137 C   0  0  0  0  0  0  0  0  0  0  0  0
   13.2515  -17.5380   24.5866 O   0  0  0  0  0  0  0  0  0  0  0  0
   14.0818  -18.2609   22.6296 O   0  0  0  0  0  0  0  0  0  0  0  0
  2  1  1  1
  3  4  1  0
  3  2  1  0
  5  2  1  0
  6  5  2  0
  7  5  1  0
  8  7  1  0
  8  9  1  1
  9 10  1  0
 10 11  1  0
 11 12  2  0
 11 15  1  0
 13  8  1  0
 14 13  2  0
 16 17  1  0
 17 18  2  0
 19 17  1  0
 20 19  1  6
 20 21  1  0
 21 13  1  0
 22 24  1  0
 22 20  1  0
 23 22  2  0
M  END
$$$$
