CEN.pdb
     RDKit          3D

 24 23  0  0  1  0  0  0  0  0999 V2000
    7.2938  -15.0617   19.2830 N   0  0  0  0  0  0  0  0  0  0  0  0
    8.1424  -14.4044   20.2596 C   0  0  1  0  0  0  0  0  0  0  0  0
    7.6641  -12.9578   20.4381 C   0  0  0  0  0  0  0  0  0  0  0  0
    7.9812  -12.0105   18.9446 S   0  0  0  0  0  0  0  0  0  0  0  0
    8.0953  -15.1295   21.5516 C   0  0  0  0  0  0  0  0  0  0  0  0
    7.0351  -15.7003   21.8867 O   0  0  0  0  0  0  0  0  0  0  0  0
    9.2240  -15.1861   22.4067 N   0  0  0  0  0  0  0  0  0  0  0  0
    9.2003  -15.9147   23.6884 C   0  0  1  0  0  0  0  0  0  0  0  0
    9.9887  -17.1641   23.5218 C   0  0  0  0  0  0  0  0  0  0  0  0
   10.2024  -18.0170   24.7023 C   0  0  0  0  0  0  0  0  0  0  0  0
   10.9829  -19.2496   24.4375 C   0  0  0  0  0  0  0  0  0  0  0  0
   11.8851  -19.6091   25.2281 O   0  0  0  0  0  0  0  0  0  0  0  0
    9.6465  -15.0459   24.7919 C   0  0  0  0  0  0  0  0  0  0  0  0
   10.8286  -14.6327   24.8220 O   0  0  0  0  0  0  0  0  0  0  0  0
   10.7535  -20.0473   23.3218 O   0  0  0  0  0  0  0  0  0  0  0  0
    6.5524  -14.5931   26.4107 N   0  0  0  0  0  0  0  0  0  0  0  0
    6.8646  -13.3825   27.0627 C   0  0  0  0  0  0  0  0  0  0  0  0
    5.8636  -12.6406   27.3481 O   0  0  0  0  0  0  0  0  0  0  0  0
    8.1846  -12.8898   27.4439 C   0  0  0  0  0  0  0  0  0  0  0  0
    9.2667  -13.8286   26.9997 C   0  0  2  0  0  0  0  0  0  0  0  0
    8.8003  -14.6343   25.8538 N   0  0  0  0  0  0  0  0  0  0  0  0
    9.5122  -14.8297   28.0760 C   0  0  0  0  0  0  0  0  0  0  0  0
    9.8792  -14.4443   29.2392 O   0  0  0  0  0  0  0  0  0  0  0  0
    9.3742  -16.1963   27.9288 O   0  0  0  0  0  0  0  0  0  0  0  0
  2  1  1  6
  3  4  1  0
  3  2  1  0
  5  2  1  0
  6  5  2  0
  7  5  1  0
  8  7  1  0
  8  9  1  6
  9 10  1  0
 10 11  1  0
 11 12  2  0
 11 15  1  0
 13  8  1  0
 14 13  2  0
 16 17  1  0
 17 18  2  0
 19 17  1  0
 20 19  1  1
 20 21  1  0
 21 13  1  0
 22 24  1  0
 22 20  1  0
 23 22  2  0
M  END
$$$$
