CEN.pdb
     RDKit          3D

 24 23  0  0  1  0  0  0  0  0999 V2000
    7.1518  -13.6987   16.9257 N   0  0  0  0  0  0  0  0  0  0  0  0
    8.1058  -13.5373   18.0072 C   0  0  1  0  0  0  0  0  0  0  0  0
    7.4972  -12.6154   19.0716 C   0  0  0  0  0  0  0  0  0  0  0  0
    8.5199  -12.6132   20.5490 S   0  0  0  0  0  0  0  0  0  0  0  0
    8.4438  -14.8556   18.5949 C   0  0  0  0  0  0  0  0  0  0  0  0
    7.5220  -15.6642   18.8372 O   0  0  0  0  0  0  0  0  0  0  0  0
    9.7845  -15.2119   18.8842 N   0  0  0  0  0  0  0  0  0  0  0  0
   10.1347  -16.4960   19.5185 C   0  0  1  0  0  0  0  0  0  0  0  0
   10.6147  -17.4182   18.4557 C   0  0  0  0  0  0  0  0  0  0  0  0
   11.6640  -16.9417   17.5399 C   0  0  0  0  0  0  0  0  0  0  0  0
   12.0935  -17.9351   16.5264 C   0  0  0  0  0  0  0  0  0  0  0  0
   12.6339  -19.0076   16.8811 O   0  0  0  0  0  0  0  0  0  0  0  0
   11.0803  -16.2895   20.6297 C   0  0  0  0  0  0  0  0  0  0  0  0
   11.9448  -15.3864   20.5538 O   0  0  0  0  0  0  0  0  0  0  0  0
   11.9193  -17.7259   15.1627 O   0  0  0  0  0  0  0  0  0  0  0  0
   13.5831  -16.5676   25.3337 N   0  0  0  0  0  0  0  0  0  0  0  0
   12.4138  -17.3545   25.2951 C   0  0  0  0  0  0  0  0  0  0  0  0
   12.1135  -17.9425   26.3896 O   0  0  0  0  0  0  0  0  0  0  0  0
   11.5201  -17.5683   24.1611 C   0  0  0  0  0  0  0  0  0  0  0  0
   12.0044  -16.8438   22.9404 C   0  0  2  0  0  0  0  0  0  0  0  0
   11.0758  -17.0693   21.8151 N   0  0  0  0  0  0  0  0  0  0  0  0
   13.2847  -17.4578   22.4880 C   0  0  0  0  0  0  0  0  0  0  0  0
   14.3590  -17.2668   23.1556 O   0  0  0  0  0  0  0  0  0  0  0  0
   13.4265  -18.2497   21.3650 O   0  0  0  0  0  0  0  0  0  0  0  0
  2  1  1  6
  3  4  1  0
  3  2  1  0
  5  2  1  0
  6  5  2  0
  7  5  1  0
  8  7  1  0
  8  9  1  6
  9 10  1  0
 10 11  1  0
 11 12  2  0
 11 15  1  0
 13  8  1  0
 14 13  2  0
 16 17  1  0
 17 18  2  0
 19 17  1  0
 20 19  1  1
 20 21  1  0
 21 13  1  0
 22 24  1  0
 22 20  1  0
 23 22  2  0
M  END
$$$$
