CEN.pdb
     RDKit          3D

 24 23  0  0  1  0  0  0  0  0999 V2000
    9.8985  -24.0292   27.1695 N   0  0  0  0  0  0  0  0  0  0  0  0
   11.3036  -23.6908   27.2999 C   0  0  1  0  0  0  0  0  0  0  0  0
   11.4674  -22.1761   27.1204 C   0  0  0  0  0  0  0  0  0  0  0  0
   10.3956  -21.5877   25.8037 S   0  0  0  0  0  0  0  0  0  0  0  0
   11.8130  -24.1140   28.6261 C   0  0  0  0  0  0  0  0  0  0  0  0
   11.0069  -24.2324   29.5740 O   0  0  0  0  0  0  0  0  0  0  0  0
   13.1881  -24.3849   28.8356 N   0  0  0  0  0  0  0  0  0  0  0  0
   13.6985  -24.9006   30.1191 C   0  0  1  0  0  0  0  0  0  0  0  0
   14.4559  -26.1501   29.8442 C   0  0  0  0  0  0  0  0  0  0  0  0
   15.0148  -26.8928   30.9855 C   0  0  0  0  0  0  0  0  0  0  0  0
   15.7689  -28.1144   30.6147 C   0  0  0  0  0  0  0  0  0  0  0  0
   16.3257  -28.8065   31.4975 O   0  0  0  0  0  0  0  0  0  0  0  0
   14.4607  -23.8616   30.8340 C   0  0  0  0  0  0  0  0  0  0  0  0
   15.2905  -23.1581   30.2132 O   0  0  0  0  0  0  0  0  0  0  0  0
   15.8900  -28.5396   29.2963 O   0  0  0  0  0  0  0  0  0  0  0  0
   15.4314  -20.3233   31.1305 N   0  0  0  0  0  0  0  0  0  0  0  0
   14.4564  -20.3048   32.1490 C   0  0  0  0  0  0  0  0  0  0  0  0
   13.7360  -19.2500   32.1977 O   0  0  0  0  0  0  0  0  0  0  0  0
   14.1812  -21.3416   33.1386 C   0  0  0  0  0  0  0  0  0  0  0  0
   15.0581  -22.5406   32.9313 C   0  0  2  0  0  0  0  0  0  0  0  0
   14.3121  -23.5977   32.2202 N   0  0  0  0  0  0  0  0  0  0  0  0
   15.3758  -23.1441   34.2563 C   0  0  0  0  0  0  0  0  0  0  0  0
   16.0357  -22.4753   35.1243 O   0  0  0  0  0  0  0  0  0  0  0  0
   15.0077  -24.4151   34.6531 O   0  0  0  0  0  0  0  0  0  0  0  0
  2  1  1  1
  3  4  1  0
  3  2  1  0
  5  2  1  0
  6  5  2  0
  7  5  1  0
  8  7  1  0
  8  9  1  6
  9 10  1  0
 10 11  1  0
 11 12  2  0
 11 15  1  0
 13  8  1  0
 14 13  2  0
 16 17  1  0
 17 18  2  0
 19 17  1  0
 20 19  1  1
 20 21  1  0
 21 13  1  0
 22 24  1  0
 22 20  1  0
 23 22  2  0
M  END
$$$$
