CEN.pdb
     RDKit          3D

 24 23  0  0  1  0  0  0  0  0999 V2000
    5.1082  -13.7238   25.7371 N   0  0  0  0  0  0  0  0  0  0  0  0
    6.3424  -13.3386   25.0781 C   0  0  1  0  0  0  0  0  0  0  0  0
    7.0580  -12.2902   25.9395 C   0  0  0  0  0  0  0  0  0  0  0  0
    6.2549  -10.6921   25.7667 S   0  0  0  0  0  0  0  0  0  0  0  0
    7.2092  -14.5243   24.8775 C   0  0  0  0  0  0  0  0  0  0  0  0
    7.1546  -15.4603   25.7041 O   0  0  0  0  0  0  0  0  0  0  0  0
    8.0918  -14.6138   23.7724 N   0  0  0  0  0  0  0  0  0  0  0  0
    8.9958  -15.7631   23.5826 C   0  0  1  0  0  0  0  0  0  0  0  0
    9.6659  -15.6083   22.2645 C   0  0  0  0  0  0  0  0  0  0  0  0
   10.6336  -16.6365   21.8486 C   0  0  0  0  0  0  0  0  0  0  0  0
   10.0917  -17.6470   20.9087 C   0  0  0  0  0  0  0  0  0  0  0  0
    9.5648  -18.6967   21.3431 O   0  0  0  0  0  0  0  0  0  0  0  0
    9.9122  -15.9022   24.7283 C   0  0  0  0  0  0  0  0  0  0  0  0
   10.6618  -14.9507   25.0470 O   0  0  0  0  0  0  0  0  0  0  0  0
   10.1422  -17.4790   19.5292 O   0  0  0  0  0  0  0  0  0  0  0  0
    9.8367  -14.3498   28.5632 N   0  0  0  0  0  0  0  0  0  0  0  0
   10.6493  -15.4849   28.3646 C   0  0  0  0  0  0  0  0  0  0  0  0
   11.8947  -15.3134   28.5960 O   0  0  0  0  0  0  0  0  0  0  0  0
   10.2326  -16.8151   27.9320 C   0  0  0  0  0  0  0  0  0  0  0  0
   10.9242  -17.2180   26.6635 C   0  0  2  0  0  0  0  0  0  0  0  0
   10.0039  -17.0777   25.5176 N   0  0  0  0  0  0  0  0  0  0  0  0
   11.2237  -18.6768   26.7167 C   0  0  0  0  0  0  0  0  0  0  0  0
   11.9896  -19.1417   27.6297 O   0  0  0  0  0  0  0  0  0  0  0  0
   10.7294  -19.6166   25.8330 O   0  0  0  0  0  0  0  0  0  0  0  0
  2  1  1  1
  3  4  1  0
  3  2  1  0
  5  2  1  0
  6  5  2  0
  7  5  1  0
  8  7  1  0
  8  9  1  6
  9 10  1  0
 10 11  1  0
 11 12  2  0
 11 15  1  0
 13  8  1  0
 14 13  2  0
 16 17  1  0
 17 18  2  0
 19 17  1  0
 20 19  1  1
 20 21  1  0
 21 13  1  0
 22 24  1  0
 22 20  1  0
 23 22  2  0
M  END
$$$$
