CEN.pdb
     RDKit          3D

 24 23  0  0  1  0  0  0  0  0999 V2000
    6.3401  -15.6342   20.7795 N   0  0  0  0  0  0  0  0  0  0  0  0
    7.6630  -15.1263   20.4667 C   0  0  1  0  0  0  0  0  0  0  0  0
    7.7618  -13.6723   20.9456 C   0  0  0  0  0  0  0  0  0  0  0  0
    7.4078  -13.5728   22.7044 S   0  0  0  0  0  0  0  0  0  0  0  0
    8.7007  -15.9592   21.1201 C   0  0  0  0  0  0  0  0  0  0  0  0
    8.3713  -16.6999   22.0715 O   0  0  0  0  0  0  0  0  0  0  0  0
   10.0497  -15.9303   20.6872 N   0  0  0  0  0  0  0  0  0  0  0  0
   11.0817  -16.8009   21.2796 C   0  0  1  0  0  0  0  0  0  0  0  0
   11.3487  -17.9111   20.3275 C   0  0  0  0  0  0  0  0  0  0  0  0
   11.4124  -17.5982   18.8907 C   0  0  0  0  0  0  0  0  0  0  0  0
   11.7913  -18.7430   18.0279 C   0  0  0  0  0  0  0  0  0  0  0  0
   10.9494  -19.2621   17.2598 O   0  0  0  0  0  0  0  0  0  0  0  0
   12.2696  -16.0175   21.6628 C   0  0  0  0  0  0  0  0  0  0  0  0
   13.2005  -15.8531   20.8411 O   0  0  0  0  0  0  0  0  0  0  0  0
   13.0732  -19.2820   18.0315 O   0  0  0  0  0  0  0  0  0  0  0  0
   12.7897  -17.9629   26.4487 N   0  0  0  0  0  0  0  0  0  0  0  0
   11.8787  -18.1831   25.3952 C   0  0  0  0  0  0  0  0  0  0  0  0
   11.1415  -19.2203   25.5171 O   0  0  0  0  0  0  0  0  0  0  0  0
   11.6856  -17.3697   24.1989 C   0  0  0  0  0  0  0  0  0  0  0  0
   12.6161  -16.1935   24.1826 C   0  0  2  0  0  0  0  0  0  0  0  0
   12.4330  -15.4192   22.9390 N   0  0  0  0  0  0  0  0  0  0  0  0
   14.0201  -16.6868   24.1040 C   0  0  0  0  0  0  0  0  0  0  0  0
   14.9350  -16.1331   24.8058 O   0  0  0  0  0  0  0  0  0  0  0  0
   14.4453  -17.7334   23.3088 O   0  0  0  0  0  0  0  0  0  0  0  0
  2  1  1  1
  3  4  1  0
  3  2  1  0
  5  2  1  0
  6  5  2  0
  7  5  1  0
  8  7  1  0
  8  9  1  6
  9 10  1  0
 10 11  1  0
 11 12  2  0
 11 15  1  0
 13  8  1  0
 14 13  2  0
 16 17  1  0
 17 18  2  0
 19 17  1  0
 20 19  1  6
 20 21  1  0
 21 13  1  0
 22 24  1  0
 22 20  1  0
 23 22  2  0
M  END
$$$$
