LCW.pdb
     RDKit          3D

 29 30  0  0  1  0  0  0  0  0999 V2000
    9.1336  -14.6386   14.2908 C   0  0  0  0  0  0  0  0  0  0  0  0
    7.7686  -14.5972   14.9972 C   0  0  2  0  0  0  0  0  0  0  0  0
    6.9731  -13.5137   14.3446 C   0  0  0  0  0  0  0  0  0  0  0  0
    8.0402  -14.3812   16.4393 C   0  0  0  0  0  0  0  0  0  0  0  0
    8.8788  -15.4490   17.1055 C   0  0  2  0  0  0  0  0  0  0  0  0
    8.4449  -16.7013   16.5216 N   0  0  0  0  0  0  0  0  0  0  0  0
    8.6657  -15.4427   18.5743 C   0  0  0  0  0  0  0  0  0  0  0  0
    9.1234  -14.4848   19.2587 O   0  0  0  0  0  0  0  0  0  0  0  0
    7.9654  -16.4566   19.2701 N   0  0  0  0  0  0  0  0  0  0  0  0
    7.8368  -16.3821   20.7359 C   0  0  1  0  0  0  0  0  0  0  0  0
    6.5886  -17.2063   21.0987 C   0  0  0  0  0  0  0  0  0  0  0  0
    7.0159  -18.9461   21.1955 S   0  0  0  0  0  0  0  0  0  0  0  0
    9.0627  -16.8925   21.3688 C   0  0  0  0  0  0  0  0  0  0  0  0
    9.4690  -18.0852   21.0861 O   0  0  0  0  0  0  0  0  0  0  0  0
    9.8127  -16.1436   22.2670 N   0  0  0  0  0  0  0  0  0  0  0  0
    9.4897  -15.7938   23.6344 C   0  0  1  0  0  0  0  0  0  0  0  0
    8.3124  -14.9233   23.7436 C   0  0  0  0  0  0  0  0  0  0  0  0
    7.8126  -14.7034   25.1098 C   0  0  0  0  0  0  0  0  0  0  0  0
    7.6205  -15.5940   26.1270 C   0  0  0  0  0  0  0  0  0  0  0  0
    7.1573  -14.9675   27.2234 N   0  0  0  0  0  0  0  0  0  0  0  0
    7.0418  -13.6552   26.9338 C   0  0  0  0  0  0  0  0  0  0  0  0
    6.6280  -12.5814   27.6900 C   0  0  0  0  0  0  0  0  0  0  0  0
    6.6144  -11.3233   27.1468 C   0  0  0  0  0  0  0  0  0  0  0  0
    7.0079  -11.1177   25.8557 C   0  0  0  0  0  0  0  0  0  0  0  0
    7.4300  -12.2014   25.0781 C   0  0  0  0  0  0  0  0  0  0  0  0
    7.4427  -13.4625   25.6261 C   0  0  0  0  0  0  0  0  0  0  0  0
    9.5347  -16.9682   24.5556 C   0  0  0  0  0  0  0  0  0  0  0  0
    8.9296  -18.1794   24.3499 O   0  0  0  0  0  0  0  0  0  0  0  0
   10.2036  -16.8314   25.6337 O   0  0  0  0  0  0  0  0  0  0  0  0
  2  1  1  6
  3  2  1  0
  4  2  1  0
  5  4  1  0
  5  6  1  6
  7  8  2  0
  7  5  1  0
  9  7  1  0
 10  9  1  0
 10 11  1  1
 11 12  1  0
 13 15  1  0
 13 10  1  0
 14 13  2  0
 16 15  1  0
 17 18  1  0
 16 17  1  6
 18 19  2  0
 19 20  1  0
 21 20  1  0
 22 21  2  0
 23 22  1  0
 24 25  1  0
 24 23  2  0
 25 26  2  0
 26 18  1  0
 26 21  1  0
 27 16  1  0
 27 28  1  0
 29 27  2  0
M  END
$$$$
