LCW.pdb
     RDKit          3D

 29 30  0  0  1  0  0  0  0  0999 V2000
    7.2916  -12.1451   19.6265 C   0  0  0  0  0  0  0  0  0  0  0  0
    8.1703  -13.3766   19.9014 C   0  0  2  0  0  0  0  0  0  0  0  0
    9.5780  -12.8897   20.0195 C   0  0  0  0  0  0  0  0  0  0  0  0
    7.9364  -14.3259   18.7859 C   0  0  0  0  0  0  0  0  0  0  0  0
    8.6502  -15.6537   18.9076 C   0  0  2  0  0  0  0  0  0  0  0  0
    8.1449  -16.4651   17.8196 N   0  0  0  0  0  0  0  0  0  0  0  0
    8.3648  -16.2840   20.2207 C   0  0  0  0  0  0  0  0  0  0  0  0
    7.1694  -16.5528   20.5277 O   0  0  0  0  0  0  0  0  0  0  0  0
    9.3643  -16.6144   21.1664 N   0  0  0  0  0  0  0  0  0  0  0  0
    8.9884  -17.2860   22.4228 C   0  0  1  0  0  0  0  0  0  0  0  0
    9.1963  -18.7920   22.1820 C   0  0  0  0  0  0  0  0  0  0  0  0
    8.7756  -19.7087   23.6659 S   0  0  0  0  0  0  0  0  0  0  0  0
    9.8070  -16.7655   23.5286 C   0  0  0  0  0  0  0  0  0  0  0  0
   11.0233  -16.4000   23.2953 O   0  0  0  0  0  0  0  0  0  0  0  0
    9.3279  -16.6474   24.8273 N   0  0  0  0  0  0  0  0  0  0  0  0
   10.0552  -16.2740   26.0224 C   0  0  1  0  0  0  0  0  0  0  0  0
    9.2234  -15.5708   27.0069 C   0  0  0  0  0  0  0  0  0  0  0  0
    7.9276  -15.0841   26.5081 C   0  0  0  0  0  0  0  0  0  0  0  0
    6.8316  -15.7821   26.0884 C   0  0  0  0  0  0  0  0  0  0  0  0
    5.8468  -14.9419   25.7231 N   0  0  0  0  0  0  0  0  0  0  0  0
    6.2901  -13.6805   25.9014 C   0  0  0  0  0  0  0  0  0  0  0  0
    5.6898  -12.4588   25.6937 C   0  0  0  0  0  0  0  0  0  0  0  0
    6.3714  -11.3026   25.9707 C   0  0  0  0  0  0  0  0  0  0  0  0
    7.6480  -11.3451   26.4531 C   0  0  0  0  0  0  0  0  0  0  0  0
    8.2678  -12.5809   26.6677 C   0  0  0  0  0  0  0  0  0  0  0  0
    7.5811  -13.7391   26.3889 C   0  0  0  0  0  0  0  0  0  0  0  0
   10.9108  -17.3804   26.5455 C   0  0  0  0  0  0  0  0  0  0  0  0
   12.0759  -17.2359   27.2506 O   0  0  0  0  0  0  0  0  0  0  0  0
   10.5168  -18.5726   26.3176 O   0  0  0  0  0  0  0  0  0  0  0  0
  2  1  1  6
  3  2  1  0
  4  2  1  0
  5  4  1  0
  5  6  1  6
  7  8  2  0
  7  5  1  0
  9  7  1  0
 10  9  1  0
 10 11  1  6
 11 12  1  0
 13 15  1  0
 13 10  1  0
 14 13  2  0
 16 15  1  0
 17 18  1  0
 16 17  1  1
 18 19  2  0
 19 20  1  0
 21 20  1  0
 22 21  2  0
 23 22  1  0
 24 25  1  0
 24 23  2  0
 25 26  2  0
 26 18  1  0
 26 21  1  0
 27 16  1  0
 27 28  1  0
 29 27  2  0
M  END
$$$$
