LCW.pdb
     RDKit          3D

 29 30  0  0  1  0  0  0  0  0999 V2000
    6.5867  -13.3001   21.4387 C   0  0  0  0  0  0  0  0  0  0  0  0
    8.0140  -13.6722   21.0046 C   0  0  2  0  0  0  0  0  0  0  0  0
    8.4764  -12.6046   20.0669 C   0  0  0  0  0  0  0  0  0  0  0  0
    7.9393  -15.0283   20.4082 C   0  0  0  0  0  0  0  0  0  0  0  0
    7.6777  -16.1508   21.3874 C   0  0  2  0  0  0  0  0  0  0  0  0
    7.4931  -15.5078   22.6719 N   0  0  0  0  0  0  0  0  0  0  0  0
    8.8233  -17.0939   21.4223 C   0  0  0  0  0  0  0  0  0  0  0  0
    9.2865  -17.5402   20.3353 O   0  0  0  0  0  0  0  0  0  0  0  0
    9.4452  -17.5293   22.6165 N   0  0  0  0  0  0  0  0  0  0  0  0
   10.8105  -17.0771   22.9365 C   0  0  1  0  0  0  0  0  0  0  0  0
   11.0494  -15.8094   22.0968 C   0  0  0  0  0  0  0  0  0  0  0  0
   12.8039  -15.4376   22.0431 S   0  0  0  0  0  0  0  0  0  0  0  0
   10.9275  -16.8352   24.3827 C   0  0  0  0  0  0  0  0  0  0  0  0
   12.0179  -16.3260   24.8510 O   0  0  0  0  0  0  0  0  0  0  0  0
    9.9087  -17.1325   25.2794 N   0  0  0  0  0  0  0  0  0  0  0  0
    9.8841  -16.9244   26.7121 C   0  0  1  0  0  0  0  0  0  0  0  0
    8.5261  -16.7694   27.2484 C   0  0  0  0  0  0  0  0  0  0  0  0
    7.6066  -15.9719   26.4218 C   0  0  0  0  0  0  0  0  0  0  0  0
    6.5697  -16.3723   25.6285 C   0  0  0  0  0  0  0  0  0  0  0  0
    5.9759  -15.3108   25.0543 N   0  0  0  0  0  0  0  0  0  0  0  0
    6.6205  -14.2006   25.4682 C   0  0  0  0  0  0  0  0  0  0  0  0
    6.4190  -12.8663   25.1939 C   0  0  0  0  0  0  0  0  0  0  0  0
    7.2267  -11.9180   25.7650 C   0  0  0  0  0  0  0  0  0  0  0  0
    8.2373  -12.2802   26.6086 C   0  0  0  0  0  0  0  0  0  0  0  0
    8.4513  -13.6330   26.8942 C   0  0  0  0  0  0  0  0  0  0  0  0
    7.6389  -14.5821   26.3196 C   0  0  0  0  0  0  0  0  0  0  0  0
   10.7847  -17.8624   27.4461 C   0  0  0  0  0  0  0  0  0  0  0  0
   11.2241  -17.7173   28.7350 O   0  0  0  0  0  0  0  0  0  0  0  0
   11.1784  -18.8987   26.8141 O   0  0  0  0  0  0  0  0  0  0  0  0
  2  1  1  6
  3  2  1  0
  4  2  1  0
  5  4  1  0
  5  6  1  1
  7  8  2  0
  7  5  1  0
  9  7  1  0
 10  9  1  0
 10 11  1  6
 11 12  1  0
 13 15  1  0
 13 10  1  0
 14 13  2  0
 16 15  1  0
 17 18  1  0
 16 17  1  1
 18 19  2  0
 19 20  1  0
 21 20  1  0
 22 21  2  0
 23 22  1  0
 24 25  1  0
 24 23  2  0
 25 26  2  0
 26 18  1  0
 26 21  1  0
 27 16  1  0
 27 28  1  0
 29 27  2  0
M  END
$$$$
