LCW.pdb
     RDKit          3D

 29 30  0  0  1  0  0  0  0  0999 V2000
    9.5997  -13.1084   18.9694 C   0  0  0  0  0  0  0  0  0  0  0  0
    8.0910  -13.4044   18.9898 C   0  0  2  0  0  0  0  0  0  0  0  0
    7.3949  -12.1028   19.2226 C   0  0  0  0  0  0  0  0  0  0  0  0
    7.8693  -14.4212   20.0466 C   0  0  0  0  0  0  0  0  0  0  0  0
    8.5680  -15.7444   19.8265 C   0  0  2  0  0  0  0  0  0  0  0  0
    7.7544  -16.4552   18.8621 N   0  0  0  0  0  0  0  0  0  0  0  0
    8.6709  -16.5012   21.0991 C   0  0  0  0  0  0  0  0  0  0  0  0
    7.6203  -16.9606   21.6287 O   0  0  0  0  0  0  0  0  0  0  0  0
    9.8931  -16.7507   21.7672 N   0  0  0  0  0  0  0  0  0  0  0  0
    9.9050  -17.5832   22.9828 C   0  0  1  0  0  0  0  0  0  0  0  0
   10.8942  -18.7297   22.7068 C   0  0  0  0  0  0  0  0  0  0  0  0
   10.9219  -19.8577   24.1019 S   0  0  0  0  0  0  0  0  0  0  0  0
   10.2888  -16.7637   24.1425 C   0  0  0  0  0  0  0  0  0  0  0  0
   11.2199  -15.8790   24.0093 O   0  0  0  0  0  0  0  0  0  0  0  0
    9.6902  -16.8983   25.3890 N   0  0  0  0  0  0  0  0  0  0  0  0
   10.0903  -16.3025   26.6466 C   0  0  1  0  0  0  0  0  0  0  0  0
    8.9532  -15.8443   27.4546 C   0  0  0  0  0  0  0  0  0  0  0  0
    7.8175  -15.2974   26.6959 C   0  0  0  0  0  0  0  0  0  0  0  0
    6.7560  -15.9376   26.1232 C   0  0  0  0  0  0  0  0  0  0  0  0
    5.9329  -15.0534   25.5318 N   0  0  0  0  0  0  0  0  0  0  0  0
    6.4492  -13.8205   25.7128 C   0  0  0  0  0  0  0  0  0  0  0  0
    6.0089  -12.5750   25.3242 C   0  0  0  0  0  0  0  0  0  0  0  0
    6.7315  -11.4578   25.6526 C   0  0  0  0  0  0  0  0  0  0  0  0
    7.8915  -11.5629   26.3647 C   0  0  0  0  0  0  0  0  0  0  0  0
    8.3484  -12.8234   26.7645 C   0  0  0  0  0  0  0  0  0  0  0  0
    7.6210  -13.9424   26.4337 C   0  0  0  0  0  0  0  0  0  0  0  0
   11.1306  -17.1031   27.3583 C   0  0  0  0  0  0  0  0  0  0  0  0
   11.9495  -16.6545   28.3600 O   0  0  0  0  0  0  0  0  0  0  0  0
   11.2662  -18.3210   27.0022 O   0  0  0  0  0  0  0  0  0  0  0  0
  2  1  1  1
  3  2  1  0
  4  2  1  0
  5  4  1  0
  5  6  1  6
  7  8  2  0
  7  5  1  0
  9  7  1  0
 10  9  1  0
 10 11  1  6
 11 12  1  0
 13 15  1  0
 13 10  1  0
 14 13  2  0
 16 15  1  0
 17 18  1  0
 16 17  1  1
 18 19  2  0
 19 20  1  0
 21 20  1  0
 22 21  2  0
 23 22  1  0
 24 25  1  0
 24 23  2  0
 25 26  2  0
 26 18  1  0
 26 21  1  0
 27 16  1  0
 27 28  1  0
 29 27  2  0
M  END
$$$$
