LCW.pdb
     RDKit          3D

 29 30  0  0  1  0  0  0  0  0999 V2000
    7.3508  -12.2444   19.3926 C   0  0  0  0  0  0  0  0  0  0  0  0
    7.4541  -13.6226   20.0663 C   0  0  2  0  0  0  0  0  0  0  0  0
    8.6582  -13.5861   20.9505 C   0  0  0  0  0  0  0  0  0  0  0  0
    7.5179  -14.6270   18.9768 C   0  0  0  0  0  0  0  0  0  0  0  0
    8.6244  -15.6500   19.1056 C   0  0  2  0  0  0  0  0  0  0  0  0
    8.4083  -16.5908   18.0259 N   0  0  0  0  0  0  0  0  0  0  0  0
    8.5612  -16.3276   20.4246 C   0  0  0  0  0  0  0  0  0  0  0  0
    7.4861  -16.8889   20.7775 O   0  0  0  0  0  0  0  0  0  0  0  0
    9.6492  -16.3912   21.3271 N   0  0  0  0  0  0  0  0  0  0  0  0
    9.5890  -17.3050   22.4813 C   0  0  1  0  0  0  0  0  0  0  0  0
   10.5310  -18.4763   22.1497 C   0  0  0  0  0  0  0  0  0  0  0  0
   12.1672  -17.8498   21.7629 S   0  0  0  0  0  0  0  0  0  0  0  0
    9.9786  -16.5867   23.7045 C   0  0  0  0  0  0  0  0  0  0  0  0
   10.7701  -15.5704   23.6143 O   0  0  0  0  0  0  0  0  0  0  0  0
    9.5304  -16.9545   24.9671 N   0  0  0  0  0  0  0  0  0  0  0  0
   10.0040  -16.4972   26.2567 C   0  0  1  0  0  0  0  0  0  0  0  0
    8.9166  -16.1342   27.1741 C   0  0  0  0  0  0  0  0  0  0  0  0
    7.7832  -15.4232   26.5620 C   0  0  0  0  0  0  0  0  0  0  0  0
    6.6549  -15.9160   25.9715 C   0  0  0  0  0  0  0  0  0  0  0  0
    5.8636  -14.9126   25.5518 N   0  0  0  0  0  0  0  0  0  0  0  0
    6.4683  -13.7483   25.8653 C   0  0  0  0  0  0  0  0  0  0  0  0
    6.0923  -12.4378   25.6723 C   0  0  0  0  0  0  0  0  0  0  0  0
    6.9021  -11.4201   26.1043 C   0  0  0  0  0  0  0  0  0  0  0  0
    8.0865  -11.6892   26.7278 C   0  0  0  0  0  0  0  0  0  0  0  0
    8.4786  -13.0171   26.9290 C   0  0  0  0  0  0  0  0  0  0  0  0
    7.6637  -14.0360   26.4946 C   0  0  0  0  0  0  0  0  0  0  0  0
   11.0820  -17.3662   26.8158 C   0  0  0  0  0  0  0  0  0  0  0  0
   11.9073  -17.0557   27.8636 O   0  0  0  0  0  0  0  0  0  0  0  0
   11.2466  -18.5070   26.2683 O   0  0  0  0  0  0  0  0  0  0  0  0
  2  1  1  6
  3  2  1  0
  4  2  1  0
  5  4  1  0
  5  6  1  6
  7  8  2  0
  7  5  1  0
  9  7  1  0
 10  9  1  0
 10 11  1  6
 11 12  1  0
 13 15  1  0
 13 10  1  0
 14 13  2  0
 16 15  1  0
 17 18  1  0
 16 17  1  1
 18 19  2  0
 19 20  1  0
 21 20  1  0
 22 21  2  0
 23 22  1  0
 24 25  1  0
 24 23  2  0
 25 26  2  0
 26 18  1  0
 26 21  1  0
 27 16  1  0
 27 28  1  0
 29 27  2  0
M  END
$$$$
