LCW.pdb
     RDKit          3D

 29 30  0  0  1  0  0  0  0  0999 V2000
    9.4887  -13.0159   18.3367 C   0  0  0  0  0  0  0  0  0  0  0  0
    8.0473  -13.5379   18.4540 C   0  0  2  0  0  0  0  0  0  0  0  0
    7.1803  -12.3591   18.7565 C   0  0  0  0  0  0  0  0  0  0  0  0
    8.0561  -14.5843   19.5052 C   0  0  0  0  0  0  0  0  0  0  0  0
    8.9851  -15.7498   19.2486 C   0  0  2  0  0  0  0  0  0  0  0  0
    8.3499  -16.5276   18.2051 N   0  0  0  0  0  0  0  0  0  0  0  0
    9.1665  -16.5570   20.4808 C   0  0  0  0  0  0  0  0  0  0  0  0
    8.1642  -16.8023   21.2092 O   0  0  0  0  0  0  0  0  0  0  0  0
   10.4119  -17.0841   20.8974 N   0  0  0  0  0  0  0  0  0  0  0  0
   10.5094  -17.8020   22.1804 C   0  0  1  0  0  0  0  0  0  0  0  0
   11.1181  -19.1780   21.8559 C   0  0  0  0  0  0  0  0  0  0  0  0
   11.3033  -20.1318   23.3642 S   0  0  0  0  0  0  0  0  0  0  0  0
   11.3262  -17.0238   23.1243 C   0  0  0  0  0  0  0  0  0  0  0  0
   12.4461  -17.5130   23.5416 O   0  0  0  0  0  0  0  0  0  0  0  0
   10.9453  -15.7729   23.5939 N   0  0  0  0  0  0  0  0  0  0  0  0
    9.9734  -15.4563   24.6194 C   0  0  1  0  0  0  0  0  0  0  0  0
    8.5982  -15.3910   24.1093 C   0  0  0  0  0  0  0  0  0  0  0  0
    7.5844  -14.9462   25.0783 C   0  0  0  0  0  0  0  0  0  0  0  0
    6.6010  -15.6556   25.7062 C   0  0  0  0  0  0  0  0  0  0  0  0
    5.8965  -14.8602   26.5309 N   0  0  0  0  0  0  0  0  0  0  0  0
    6.4144  -13.6173   26.4512 C   0  0  0  0  0  0  0  0  0  0  0  0
    6.0796  -12.4412   27.0844 C   0  0  0  0  0  0  0  0  0  0  0  0
    6.7881  -11.2967   26.8270 C   0  0  0  0  0  0  0  0  0  0  0  0
    7.8294  -11.3058   25.9441 C   0  0  0  0  0  0  0  0  0  0  0  0
    8.1782  -12.4951   25.2948 C   0  0  0  0  0  0  0  0  0  0  0  0
    7.4654  -13.6418   25.5554 C   0  0  0  0  0  0  0  0  0  0  0  0
   10.1803  -16.2427   25.8719 C   0  0  0  0  0  0  0  0  0  0  0  0
   10.8735  -17.4186   25.9817 O   0  0  0  0  0  0  0  0  0  0  0  0
    9.6664  -15.7722   26.9410 O   0  0  0  0  0  0  0  0  0  0  0  0
  2  1  1  1
  3  2  1  0
  4  2  1  0
  5  4  1  0
  5  6  1  6
  7  8  2  0
  7  5  1  0
  9  7  1  0
 10  9  1  0
 10 11  1  6
 11 12  1  0
 13 15  1  0
 13 10  1  0
 14 13  2  0
 16 15  1  0
 17 18  1  0
 16 17  1  6
 18 19  2  0
 19 20  1  0
 21 20  1  0
 22 21  2  0
 23 22  1  0
 24 25  1  0
 24 23  2  0
 25 26  2  0
 26 18  1  0
 26 21  1  0
 27 16  1  0
 27 28  1  0
 29 27  2  0
M  END
$$$$
