LCW.pdb
     RDKit          3D

 29 30  0  0  1  0  0  0  0  0999 V2000
    9.2628  -12.6006   19.2815 C   0  0  0  0  0  0  0  0  0  0  0  0
    7.8302  -13.1420   19.4181 C   0  0  2  0  0  0  0  0  0  0  0  0
    6.9355  -11.9616   19.6157 C   0  0  0  0  0  0  0  0  0  0  0  0
    7.8428  -14.1036   20.5474 C   0  0  0  0  0  0  0  0  0  0  0  0
    8.8306  -15.2412   20.4158 C   0  0  2  0  0  0  0  0  0  0  0  0
    8.3768  -16.0176   19.2807 N   0  0  0  0  0  0  0  0  0  0  0  0
    8.8509  -16.0635   21.6512 C   0  0  0  0  0  0  0  0  0  0  0  0
    7.7938  -16.1762   22.3332 O   0  0  0  0  0  0  0  0  0  0  0  0
    9.9979  -16.7467   22.1205 N   0  0  0  0  0  0  0  0  0  0  0  0
    9.9118  -17.5666   23.3416 C   0  0  1  0  0  0  0  0  0  0  0  0
   10.8485  -18.7674   23.1181 C   0  0  0  0  0  0  0  0  0  0  0  0
   10.7308  -19.8970   24.5070 S   0  0  0  0  0  0  0  0  0  0  0  0
   10.2886  -16.7575   24.5109 C   0  0  0  0  0  0  0  0  0  0  0  0
   11.2136  -15.8648   24.3887 O   0  0  0  0  0  0  0  0  0  0  0  0
    9.6897  -16.9103   25.7551 N   0  0  0  0  0  0  0  0  0  0  0  0
   10.1342  -16.3990   27.0348 C   0  0  1  0  0  0  0  0  0  0  0  0
    9.1482  -15.5223   27.6789 C   0  0  0  0  0  0  0  0  0  0  0  0
    7.9755  -15.1794   26.8592 C   0  0  0  0  0  0  0  0  0  0  0  0
    7.0187  -15.9882   26.3162 C   0  0  0  0  0  0  0  0  0  0  0  0
    6.1093  -15.2601   25.6438 N   0  0  0  0  0  0  0  0  0  0  0  0
    6.4631  -13.9621   25.7410 C   0  0  0  0  0  0  0  0  0  0  0  0
    5.8828  -12.8135   25.2509 C   0  0  0  0  0  0  0  0  0  0  0  0
    6.4512  -11.5932   25.5077 C   0  0  0  0  0  0  0  0  0  0  0  0
    7.5944  -11.4993   26.2481 C   0  0  0  0  0  0  0  0  0  0  0  0
    8.1927  -12.6598   26.7508 C   0  0  0  0  0  0  0  0  0  0  0  0
    7.6198  -13.8826   26.4916 C   0  0  0  0  0  0  0  0  0  0  0  0
   10.7468  -17.4542   27.8956 C   0  0  0  0  0  0  0  0  0  0  0  0
   11.5070  -17.2425   29.0149 O   0  0  0  0  0  0  0  0  0  0  0  0
   10.5386  -18.6674   27.5588 O   0  0  0  0  0  0  0  0  0  0  0  0
  2  1  1  1
  3  2  1  0
  4  2  1  0
  5  4  1  0
  5  6  1  6
  7  8  2  0
  7  5  1  0
  9  7  1  0
 10  9  1  0
 10 11  1  6
 11 12  1  0
 13 15  1  0
 13 10  1  0
 14 13  2  0
 16 15  1  0
 17 18  1  0
 16 17  1  1
 18 19  2  0
 19 20  1  0
 21 20  1  0
 22 21  2  0
 23 22  1  0
 24 25  1  0
 24 23  2  0
 25 26  2  0
 26 18  1  0
 26 21  1  0
 27 16  1  0
 27 28  1  0
 29 27  2  0
M  END
$$$$
