LCW.pdb
     RDKit          3D

 29 30  0  0  1  0  0  0  0  0999 V2000
    9.1390  -12.6523   19.2327 C   0  0  0  0  0  0  0  0  0  0  0  0
    7.7630  -13.3174   19.0648 C   0  0  2  0  0  0  0  0  0  0  0  0
    6.7371  -12.2941   19.4296 C   0  0  0  0  0  0  0  0  0  0  0  0
    7.7643  -14.5252   19.9258 C   0  0  0  0  0  0  0  0  0  0  0  0
    8.7957  -15.5720   19.5684 C   0  0  2  0  0  0  0  0  0  0  0  0
    8.2876  -16.2248   18.3796 N   0  0  0  0  0  0  0  0  0  0  0  0
    8.9650  -16.5420   20.6789 C   0  0  0  0  0  0  0  0  0  0  0  0
    8.0427  -17.3711   20.9181 O   0  0  0  0  0  0  0  0  0  0  0  0
   10.1166  -16.6027   21.4991 N   0  0  0  0  0  0  0  0  0  0  0  0
   10.1444  -17.5181   22.6533 C   0  0  1  0  0  0  0  0  0  0  0  0
   11.2113  -18.5800   22.3319 C   0  0  0  0  0  0  0  0  0  0  0  0
   12.7818  -17.7810   21.9938 S   0  0  0  0  0  0  0  0  0  0  0  0
   10.4414  -16.7623   23.8798 C   0  0  0  0  0  0  0  0  0  0  0  0
   11.1646  -15.6952   23.8037 O   0  0  0  0  0  0  0  0  0  0  0  0
    9.9756  -17.1468   25.1309 N   0  0  0  0  0  0  0  0  0  0  0  0
   10.2479  -16.5389   26.4166 C   0  0  1  0  0  0  0  0  0  0  0  0
    9.8635  -15.1232   26.4774 C   0  0  0  0  0  0  0  0  0  0  0  0
    8.4843  -14.8236   26.0617 C   0  0  0  0  0  0  0  0  0  0  0  0
    7.5149  -15.6541   25.5766 C   0  0  0  0  0  0  0  0  0  0  0  0
    6.3837  -14.9688   25.3320 N   0  0  0  0  0  0  0  0  0  0  0  0
    6.6020  -13.6780   25.6565 C   0  0  0  0  0  0  0  0  0  0  0  0
    5.7869  -12.5692   25.6091 C   0  0  0  0  0  0  0  0  0  0  0  0
    6.2620  -11.3495   26.0151 C   0  0  0  0  0  0  0  0  0  0  0  0
    7.5427  -11.2168   26.4691 C   0  0  0  0  0  0  0  0  0  0  0  0
    8.3798  -12.3366   26.5213 C   0  0  0  0  0  0  0  0  0  0  0  0
    7.9001  -13.5590   26.1134 C   0  0  0  0  0  0  0  0  0  0  0  0
    9.8151  -17.3941   27.5616 C   0  0  0  0  0  0  0  0  0  0  0  0
   10.1254  -17.1951   28.8805 O   0  0  0  0  0  0  0  0  0  0  0  0
    9.0839  -18.4028   27.2852 O   0  0  0  0  0  0  0  0  0  0  0  0
  2  1  1  1
  3  2  1  0
  4  2  1  0
  5  4  1  0
  5  6  1  6
  7  8  2  0
  7  5  1  0
  9  7  1  0
 10  9  1  0
 10 11  1  6
 11 12  1  0
 13 15  1  0
 13 10  1  0
 14 13  2  0
 16 15  1  0
 17 18  1  0
 16 17  1  6
 18 19  2  0
 19 20  1  0
 21 20  1  0
 22 21  2  0
 23 22  1  0
 24 25  1  0
 24 23  2  0
 25 26  2  0
 26 18  1  0
 26 21  1  0
 27 16  1  0
 27 28  1  0
 29 27  2  0
M  END
$$$$
