LCW.pdb
     RDKit          3D

 29 30  0  0  1  0  0  0  0  0999 V2000
    9.6228  -12.8424   18.9365 C   0  0  0  0  0  0  0  0  0  0  0  0
    8.1499  -13.2836   18.9321 C   0  0  2  0  0  0  0  0  0  0  0  0
    7.3277  -12.0594   19.1735 C   0  0  0  0  0  0  0  0  0  0  0  0
    8.0151  -14.3331   19.9715 C   0  0  0  0  0  0  0  0  0  0  0  0
    8.7905  -15.6049   19.7094 C   0  0  2  0  0  0  0  0  0  0  0  0
    8.0939  -16.2656   18.6251 N   0  0  0  0  0  0  0  0  0  0  0  0
    8.8221  -16.4593   20.9227 C   0  0  0  0  0  0  0  0  0  0  0  0
    7.8072  -17.1525   21.2140 O   0  0  0  0  0  0  0  0  0  0  0  0
    9.9383  -16.5534   21.7874 N   0  0  0  0  0  0  0  0  0  0  0  0
    9.8872  -17.4554   22.9512 C   0  0  1  0  0  0  0  0  0  0  0  0
   10.7605  -18.6703   22.5899 C   0  0  0  0  0  0  0  0  0  0  0  0
   10.8170  -19.8114   23.9733 S   0  0  0  0  0  0  0  0  0  0  0  0
   10.3612  -16.7470   24.1501 C   0  0  0  0  0  0  0  0  0  0  0  0
   11.4090  -15.9969   24.0666 O   0  0  0  0  0  0  0  0  0  0  0  0
    9.7278  -16.8482   25.3825 N   0  0  0  0  0  0  0  0  0  0  0  0
   10.1987  -16.3942   26.6743 C   0  0  1  0  0  0  0  0  0  0  0  0
    9.1141  -15.9540   27.5607 C   0  0  0  0  0  0  0  0  0  0  0  0
    7.9144  -15.4367   26.8839 C   0  0  0  0  0  0  0  0  0  0  0  0
    6.8303  -16.1039   26.3899 C   0  0  0  0  0  0  0  0  0  0  0  0
    5.9463  -15.2415   25.8570 N   0  0  0  0  0  0  0  0  0  0  0  0
    6.4449  -13.9962   25.9981 C   0  0  0  0  0  0  0  0  0  0  0  0
    5.9486  -12.7628   25.6393 C   0  0  0  0  0  0  0  0  0  0  0  0
    6.6661  -11.6277   25.9128 C   0  0  0  0  0  0  0  0  0  0  0  0
    7.8762  -11.7028   26.5405 C   0  0  0  0  0  0  0  0  0  0  0  0
    8.3902  -12.9507   26.9093 C   0  0  0  0  0  0  0  0  0  0  0  0
    7.6677  -14.0878   26.6336 C   0  0  0  0  0  0  0  0  0  0  0  0
   11.2139  -17.3115   27.2724 C   0  0  0  0  0  0  0  0  0  0  0  0
   12.1730  -16.9677   28.1876 O   0  0  0  0  0  0  0  0  0  0  0  0
   11.1818  -18.5312   26.8987 O   0  0  0  0  0  0  0  0  0  0  0  0
  2  1  1  1
  3  2  1  0
  4  2  1  0
  5  4  1  0
  5  6  1  6
  7  8  2  0
  7  5  1  0
  9  7  1  0
 10  9  1  0
 10 11  1  6
 11 12  1  0
 13 15  1  0
 13 10  1  0
 14 13  2  0
 16 15  1  0
 17 18  1  0
 16 17  1  1
 18 19  2  0
 19 20  1  0
 21 20  1  0
 22 21  2  0
 23 22  1  0
 24 25  1  0
 24 23  2  0
 25 26  2  0
 26 18  1  0
 26 21  1  0
 27 16  1  0
 27 28  1  0
 29 27  2  0
M  END
$$$$
