RCT.pdb
     RDKit          3D

 25 24  0  0  1  0  0  0  0  0999 V2000
   30.3084  -24.4988  -16.6495 N   0  0  0  0  0  0  0  0  0  0  0  0
   29.0670  -25.1605  -16.8884 C   0  0  0  0  0  0  0  0  0  0  0  0
   28.9878  -26.4177  -16.5816 N   0  0  0  0  0  0  0  0  0  0  0  0
   27.9646  -24.4565  -17.4431 N   0  0  0  0  0  0  0  0  0  0  0  0
   28.0670  -23.0069  -17.4669 C   0  0  0  0  0  0  0  0  0  0  0  0
   28.1046  -22.4056  -16.1093 C   0  0  0  0  0  0  0  0  0  0  0  0
   26.7012  -22.1613  -15.6310 C   0  0  0  0  0  0  0  0  0  0  0  0
   26.3551  -23.1576  -14.5769 C   0  0  2  0  0  0  0  0  0  0  0  0
   25.9299  -24.3811  -15.2682 N   0  0  0  0  0  0  0  0  0  0  0  0
   25.1556  -22.6970  -13.7723 C   0  0  0  0  0  0  0  0  0  0  0  0
   23.9964  -23.1238  -14.0064 O   0  0  0  0  0  0  0  0  0  0  0  0
   28.1986  -27.0207  -16.8954 N   0  0  0  0  0  0  0  0  0  0  0  0
   25.3105  -21.7591  -12.7189 C   0  0  1  0  0  0  0  0  0  0  0  0
   24.2255  -21.3134  -11.8691 C   0  0  0  0  0  0  0  0  0  0  0  0
   24.7090  -20.8175  -10.5359 S   0  0  0  0  0  0  0  0  0  0  0  0
   23.3327  -20.2247   -9.5156 C   0  0  0  0  0  0  0  0  0  0  0  0
   23.3261  -20.3973  -12.5658 O   0  0  0  0  0  0  0  0  0  0  0  0
   23.7564  -19.2458  -12.8480 C   0  0  0  0  0  0  0  0  0  0  0  0
   21.8454  -20.3751  -15.8264 C   0  0  2  0  0  0  0  0  0  0  0  0
   20.6706  -20.3054  -14.8920 O   0  0  0  0  0  0  0  0  0  0  0  0
   20.2246  -21.6130  -14.6621 C   0  0  2  0  0  0  0  0  0  0  0  0
   21.0826  -19.7386  -13.5296 N   0  0  0  0  0  0  0  0  0  0  0  0
   22.0034  -20.6972  -12.9525 C   0  0  0  0  0  0  0  0  0  0  0  0
   19.8484  -19.6909  -12.6897 O   0  0  0  0  0  0  0  0  0  0  0  0
   18.8631  -18.7710  -12.9857 O   0  0  0  0  0  0  0  0  0  0  0  0
  2  3  2  0
  2  1  1  0
  4  2  1  0
  5  4  1  0
  6  5  1  0
  7  8  1  0
  7  6  1  0
  8  9  1  6
 10  8  1  0
 10 12  1  0
 11 10  2  0
 13 16  1  0
 13 12  1  0
 13 14  1  6
 14 15  1  0
 16 17  2  0
 19 18  1  6
 19 21  1  0
 20 19  1  0
 21 23  1  0
 21 22  1  1
 22 16  1  0
 23 25  2  0
 23 24  1  0
M  END
$$$$
