RCT.pdb
     RDKit          3D

 25 24  0  0  1  0  0  0  0  0999 V2000
   20.9314  -22.7449   -7.0937 N   0  0  0  0  0  0  0  0  0  0  0  0
   20.2166  -22.1844   -8.1942 C   0  0  0  0  0  0  0  0  0  0  0  0
   18.9236  -22.2783   -8.1809 N   0  0  0  0  0  0  0  0  0  0  0  0
   20.9081  -21.5491   -9.2604 N   0  0  0  0  0  0  0  0  0  0  0  0
   22.3132  -21.8873   -9.4145 C   0  0  0  0  0  0  0  0  0  0  0  0
   23.2234  -20.8386   -8.8873 C   0  0  0  0  0  0  0  0  0  0  0  0
   23.9741  -20.2085  -10.0263 C   0  0  0  0  0  0  0  0  0  0  0  0
   24.4497  -21.2725  -10.9566 C   0  0  2  0  0  0  0  0  0  0  0  0
   25.4938  -22.0237  -10.2487 N   0  0  0  0  0  0  0  0  0  0  0  0
   25.1255  -20.6652  -12.1702 C   0  0  0  0  0  0  0  0  0  0  0  0
   24.5789  -19.7598  -12.8501 O   0  0  0  0  0  0  0  0  0  0  0  0
   18.3296  -21.9224   -8.9589 N   0  0  0  0  0  0  0  0  0  0  0  0
   26.4106  -21.1081  -12.5775 C   0  0  1  0  0  0  0  0  0  0  0  0
   27.1382  -20.5508  -13.6991 C   0  0  0  0  0  0  0  0  0  0  0  0
   28.6246  -20.7163  -13.5565 S   0  0  0  0  0  0  0  0  0  0  0  0
   29.3204  -19.4747  -12.4335 C   0  0  0  0  0  0  0  0  0  0  0  0
   26.5991  -21.0021  -14.9794 O   0  0  0  0  0  0  0  0  0  0  0  0
   26.6648  -22.2326  -15.2486 C   0  0  0  0  0  0  0  0  0  0  0  0
   23.0823  -20.7344  -16.4563 C   0  0  2  0  0  0  0  0  0  0  0  0
   24.0690  -20.0178  -17.3343 O   0  0  0  0  0  0  0  0  0  0  0  0
   24.1726  -18.6977  -16.8780 C   0  0  2  0  0  0  0  0  0  0  0  0
   25.4663  -20.6336  -17.2103 N   0  0  0  0  0  0  0  0  0  0  0  0
   26.0054  -20.1673  -15.9487 C   0  0  0  0  0  0  0  0  0  0  0  0
   26.2881  -20.0694  -18.3227 O   0  0  0  0  0  0  0  0  0  0  0  0
   26.0914  -20.5277  -19.6096 O   0  0  0  0  0  0  0  0  0  0  0  0
  2  3  2  0
  2  1  1  0
  4  2  1  0
  5  4  1  0
  6  5  1  0
  7  8  1  0
  7  6  1  0
  8  9  1  1
 10  8  1  0
 10 12  1  0
 11 10  2  0
 13 16  1  0
 13 12  1  0
 13 14  1  6
 14 15  1  0
 16 17  2  0
 19 18  1  6
 19 21  1  0
 20 19  1  0
 21 23  1  0
 21 22  1  6
 22 16  1  0
 23 25  2  0
 23 24  1  0
M  END
$$$$
