RCT.pdb
     RDKit          3D

 25 24  0  0  1  0  0  0  0  0999 V2000
   19.1820  -22.2655  -10.2363 N   0  0  0  0  0  0  0  0  0  0  0  0
   19.3941  -22.2393   -8.8255 C   0  0  0  0  0  0  0  0  0  0  0  0
   18.8117  -23.1531   -8.1136 N   0  0  0  0  0  0  0  0  0  0  0  0
   20.2158  -21.2427   -8.2338 N   0  0  0  0  0  0  0  0  0  0  0  0
   21.0756  -20.4928   -9.1343 C   0  0  0  0  0  0  0  0  0  0  0  0
   22.0928  -21.3415   -9.8060 C   0  0  0  0  0  0  0  0  0  0  0  0
   22.9558  -20.4846  -10.6886 C   0  0  0  0  0  0  0  0  0  0  0  0
   24.3568  -20.9944  -10.6590 C   0  0  2  0  0  0  0  0  0  0  0  0
   24.9379  -20.5737   -9.3780 N   0  0  0  0  0  0  0  0  0  0  0  0
   25.1953  -20.3301  -11.7334 C   0  0  0  0  0  0  0  0  0  0  0  0
   25.9994  -19.4009  -11.4673 O   0  0  0  0  0  0  0  0  0  0  0  0
   18.9387  -23.2230   -7.0821 N   0  0  0  0  0  0  0  0  0  0  0  0
   25.0941  -20.7445  -13.0867 C   0  0  2  0  0  0  0  0  0  0  0  0
   25.9150  -20.2152  -14.1563 C   0  0  0  0  0  0  0  0  0  0  0  0
   27.3026  -20.7909  -14.1515 S   0  0  0  0  0  0  0  0  0  0  0  0
   27.2756  -22.5708  -13.8083 C   0  0  0  0  0  0  0  0  0  0  0  0
   25.2374  -20.2796  -15.4487 O   0  0  0  0  0  0  0  0  0  0  0  0
   24.7566  -21.3881  -15.8104 C   0  0  0  0  0  0  0  0  0  0  0  0
   22.2632  -18.2052  -16.7992 C   0  0  2  0  0  0  0  0  0  0  0  0
   23.4747  -18.0362  -17.6720 O   0  0  0  0  0  0  0  0  0  0  0  0
   24.2221  -16.9639  -17.1689 C   0  0  2  0  0  0  0  0  0  0  0  0
   24.3801  -19.2701  -17.6032 N   0  0  0  0  0  0  0  0  0  0  0  0
   25.0751  -19.1938  -16.3340 C   0  0  0  0  0  0  0  0  0  0  0  0
   25.3778  -19.1368  -18.7069 O   0  0  0  0  0  0  0  0  0  0  0  0
   24.9772  -19.3474  -20.0108 O   0  0  0  0  0  0  0  0  0  0  0  0
  2  3  2  0
  2  1  1  0
  4  2  1  0
  5  4  1  0
  6  5  1  0
  7  8  1  0
  7  6  1  0
  8  9  1  1
 10  8  1  0
 10 12  1  0
 11 10  2  0
 13 16  1  0
 13 12  1  0
 13 14  1  1
 14 15  1  0
 16 17  2  0
 19 18  1  6
 19 21  1  0
 20 19  1  0
 21 23  1  0
 21 22  1  6
 22 16  1  0
 23 25  2  0
 23 24  1  0
M  END
$$$$
