RCT.pdb
     RDKit          3D

 25 24  0  0  1  0  0  0  0  0999 V2000
   32.1714  -24.9349  -18.9795 N   0  0  0  0  0  0  0  0  0  0  0  0
   31.1423  -25.7842  -18.4739 C   0  0  0  0  0  0  0  0  0  0  0  0
   31.4949  -26.9384  -18.0002 N   0  0  0  0  0  0  0  0  0  0  0  0
   29.7837  -25.3690  -18.4943 N   0  0  0  0  0  0  0  0  0  0  0  0
   29.5377  -23.9708  -18.8055 C   0  0  0  0  0  0  0  0  0  0  0  0
   30.2338  -23.0397  -17.8810 C   0  0  0  0  0  0  0  0  0  0  0  0
   29.2580  -22.0165  -17.3725 C   0  0  0  0  0  0  0  0  0  0  0  0
   28.5964  -22.5310  -16.1391 C   0  0  2  0  0  0  0  0  0  0  0  0
   27.8210  -23.7143  -16.5319 N   0  0  0  0  0  0  0  0  0  0  0  0
   27.5877  -21.5303  -15.6105 C   0  0  0  0  0  0  0  0  0  0  0  0
   27.9279  -20.3777  -15.2411 O   0  0  0  0  0  0  0  0  0  0  0  0
   30.8055  -27.6207  -17.6204 N   0  0  0  0  0  0  0  0  0  0  0  0
   26.2135  -21.8716  -15.5171 C   0  0  2  0  0  0  0  0  0  0  0  0
   25.1882  -20.9677  -15.0377 C   0  0  0  0  0  0  0  0  0  0  0  0
   24.2820  -20.4945  -16.1384 S   0  0  0  0  0  0  0  0  0  0  0  0
   22.6455  -20.0492  -15.4980 C   0  0  0  0  0  0  0  0  0  0  0  0
   24.4933  -21.4999  -13.8683 O   0  0  0  0  0  0  0  0  0  0  0  0
   24.0167  -22.6652  -13.9425 C   0  0  0  0  0  0  0  0  0  0  0  0
   25.6861  -21.5965  -10.1932 C   0  0  2  0  0  0  0  0  0  0  0  0
   24.3540  -20.9051  -10.2679 O   0  0  0  0  0  0  0  0  0  0  0  0
   24.5885  -19.5305  -10.3990 C   0  0  2  0  0  0  0  0  0  0  0  0
   23.5781  -21.3368  -11.5163 N   0  0  0  0  0  0  0  0  0  0  0  0
   24.3097  -20.8112  -12.6513 C   0  0  0  0  0  0  0  0  0  0  0  0
   22.2450  -20.6661  -11.4507 O   0  0  0  0  0  0  0  0  0  0  0  0
   21.3262  -21.0768  -10.5062 O   0  0  0  0  0  0  0  0  0  0  0  0
  2  3  2  0
  2  1  1  0
  4  2  1  0
  5  4  1  0
  6  5  1  0
  7  8  1  0
  7  6  1  0
  8  9  1  6
 10  8  1  0
 10 12  1  0
 11 10  2  0
 13 16  1  0
 13 12  1  0
 13 14  1  6
 14 15  1  0
 16 17  2  0
 19 18  1  1
 19 21  1  0
 20 19  1  0
 21 23  1  0
 21 22  1  1
 22 16  1  0
 23 25  2  0
 23 24  1  0
M  END
$$$$
