RCT.pdb
     RDKit          3D

 25 24  0  0  1  0  0  0  0  0999 V2000
   22.5047   -9.5031  -23.2189 N   0  0  0  0  0  0  0  0  0  0  0  0
   21.9153  -10.8009  -23.1523 C   0  0  0  0  0  0  0  0  0  0  0  0
   22.2809  -11.6728  -24.0394 N   0  0  0  0  0  0  0  0  0  0  0  0
   20.9631  -11.1143  -22.1454 N   0  0  0  0  0  0  0  0  0  0  0  0
   20.7237  -10.0933  -21.1392 C   0  0  0  0  0  0  0  0  0  0  0  0
   21.0555  -10.5454  -19.7638 C   0  0  0  0  0  0  0  0  0  0  0  0
   20.7134   -9.4590  -18.7836 C   0  0  0  0  0  0  0  0  0  0  0  0
   21.0343   -9.9179  -17.4016 C   0  0  2  0  0  0  0  0  0  0  0  0
   20.1481  -11.0518  -17.1111 N   0  0  0  0  0  0  0  0  0  0  0  0
   20.6878   -8.8487  -16.3841 C   0  0  0  0  0  0  0  0  0  0  0  0
   19.4984   -8.6034  -16.0588 O   0  0  0  0  0  0  0  0  0  0  0  0
   21.9815  -12.6697  -23.9994 N   0  0  0  0  0  0  0  0  0  0  0  0
   21.7100   -8.0855  -15.7629 C   0  0  1  0  0  0  0  0  0  0  0  0
   21.4601   -7.0449  -14.7868 C   0  0  0  0  0  0  0  0  0  0  0  0
   22.0913   -7.3441  -13.4567 S   0  0  0  0  0  0  0  0  0  0  0  0
   21.2452   -8.7113  -12.6192 C   0  0  0  0  0  0  0  0  0  0  0  0
   21.7609   -5.7165  -15.3144 O   0  0  0  0  0  0  0  0  0  0  0  0
   22.9180   -5.5092  -15.7714 C   0  0  0  0  0  0  0  0  0  0  0  0
   19.3771   -3.6746  -17.7501 C   0  0  2  0  0  0  0  0  0  0  0  0
   19.7928   -2.8674  -16.5527 O   0  0  0  0  0  0  0  0  0  0  0  0
   18.8384   -3.0655  -15.5470 C   0  0  2  0  0  0  0  0  0  0  0  0
   21.1289   -3.3629  -15.9905 N   0  0  0  0  0  0  0  0  0  0  0  0
   20.8552   -4.6362  -15.3552 C   0  0  0  0  0  0  0  0  0  0  0  0
   21.5480   -2.3831  -14.9439 O   0  0  0  0  0  0  0  0  0  0  0  0
   21.9626   -1.1227  -15.3236 O   0  0  0  0  0  0  0  0  0  0  0  0
  2  3  2  0
  2  1  1  0
  4  2  1  0
  5  4  1  0
  6  5  1  0
  7  8  1  0
  7  6  1  0
  8  9  1  1
 10  8  1  0
 10 12  1  0
 11 10  2  0
 13 16  1  0
 13 12  1  0
 13 14  1  6
 14 15  1  0
 16 17  2  0
 19 18  1  6
 19 21  1  0
 20 19  1  0
 21 23  1  0
 21 22  1  6
 22 16  1  0
 23 25  2  0
 23 24  1  0
M  END
$$$$
