RCT.pdb
     RDKit          3D

 25 24  0  0  1  0  0  0  0  0999 V2000
   30.3206  -23.1333  -16.9623 N   0  0  0  0  0  0  0  0  0  0  0  0
   30.2034  -22.5812  -18.2728 C   0  0  0  0  0  0  0  0  0  0  0  0
   31.1536  -22.8338  -19.1180 N   0  0  0  0  0  0  0  0  0  0  0  0
   29.0813  -21.7849  -18.6269 N   0  0  0  0  0  0  0  0  0  0  0  0
   27.9556  -21.8059  -17.7080 C   0  0  0  0  0  0  0  0  0  0  0  0
   27.4093  -23.1700  -17.4909 C   0  0  0  0  0  0  0  0  0  0  0  0
   26.1373  -23.0792  -16.6963 C   0  0  0  0  0  0  0  0  0  0  0  0
   26.2215  -21.9265  -15.7540 C   0  0  2  0  0  0  0  0  0  0  0  0
   27.4016  -22.1500  -14.9096 N   0  0  0  0  0  0  0  0  0  0  0  0
   25.0336  -21.9119  -14.8121 C   0  0  0  0  0  0  0  0  0  0  0  0
   23.9044  -22.3399  -15.1620 O   0  0  0  0  0  0  0  0  0  0  0  0
   31.1773  -22.4178  -20.0726 N   0  0  0  0  0  0  0  0  0  0  0  0
   25.1656  -21.4081  -13.4921 C   0  0  1  0  0  0  0  0  0  0  0  0
   24.0831  -21.3713  -12.5304 C   0  0  0  0  0  0  0  0  0  0  0  0
   24.5643  -21.0774  -11.1379 S   0  0  0  0  0  0  0  0  0  0  0  0
   25.9178  -22.1854  -10.6615 C   0  0  0  0  0  0  0  0  0  0  0  0
   22.9801  -20.5263  -12.9806 O   0  0  0  0  0  0  0  0  0  0  0  0
   23.1414  -19.2758  -12.9492 C   0  0  0  0  0  0  0  0  0  0  0  0
   21.4211  -20.3946  -16.2702 C   0  0  2  0  0  0  0  0  0  0  0  0
   20.2882  -20.6224  -15.3096 O   0  0  0  0  0  0  0  0  0  0  0  0
   20.0708  -22.0031  -15.2192 C   0  0  2  0  0  0  0  0  0  0  0  0
   20.6555  -20.1451  -13.9009 N   0  0  0  0  0  0  0  0  0  0  0  0
   21.7375  -20.9981  -13.4521 C   0  0  0  0  0  0  0  0  0  0  0  0
   19.4615  -20.3875  -13.0369 O   0  0  0  0  0  0  0  0  0  0  0  0
   18.3596  -19.5654  -13.1585 O   0  0  0  0  0  0  0  0  0  0  0  0
  2  3  2  0
  2  1  1  0
  4  2  1  0
  5  4  1  0
  6  5  1  0
  7  8  1  0
  7  6  1  0
  8  9  1  1
 10  8  1  0
 10 12  1  0
 11 10  2  0
 13 16  1  0
 13 12  1  0
 13 14  1  6
 14 15  1  0
 16 17  2  0
 19 18  1  6
 19 21  1  0
 20 19  1  0
 21 23  1  0
 21 22  1  1
 22 16  1  0
 23 25  2  0
 23 24  1  0
M  END
$$$$
