RCT.pdb
     RDKit          3D

 25 24  0  0  1  0  0  0  0  0999 V2000
   30.5841  -21.2631  -18.5310 N   0  0  0  0  0  0  0  0  0  0  0  0
   30.1201  -22.4663  -17.9200 C   0  0  0  0  0  0  0  0  0  0  0  0
   30.9673  -23.4391  -17.7898 N   0  0  0  0  0  0  0  0  0  0  0  0
   28.7760  -22.5821  -17.4744 N   0  0  0  0  0  0  0  0  0  0  0  0
   27.9482  -21.3937  -17.5958 C   0  0  0  0  0  0  0  0  0  0  0  0
   27.8881  -20.5981  -16.3430 C   0  0  0  0  0  0  0  0  0  0  0  0
   26.5248  -20.7372  -15.7265 C   0  0  0  0  0  0  0  0  0  0  0  0
   26.5078  -21.9216  -14.8208 C   0  0  2  0  0  0  0  0  0  0  0  0
   26.4011  -23.1112  -15.6746 N   0  0  0  0  0  0  0  0  0  0  0  0
   25.2642  -21.9198  -13.9538 C   0  0  0  0  0  0  0  0  0  0  0  0
   24.2512  -22.6050  -14.2455 O   0  0  0  0  0  0  0  0  0  0  0  0
   30.6805  -24.3923  -17.4831 N   0  0  0  0  0  0  0  0  0  0  0  0
   25.2087  -21.1342  -12.7734 C   0  0  1  0  0  0  0  0  0  0  0  0
   24.0797  -21.1197  -11.8660 C   0  0  0  0  0  0  0  0  0  0  0  0
   24.4363  -20.5617  -10.5175 S   0  0  0  0  0  0  0  0  0  0  0  0
   25.8281  -21.4597   -9.7806 C   0  0  0  0  0  0  0  0  0  0  0  0
   22.8958  -20.5195  -12.4756 O   0  0  0  0  0  0  0  0  0  0  0  0
   22.8613  -19.2640  -12.5909 C   0  0  0  0  0  0  0  0  0  0  0  0
   21.1875  -21.2972  -15.8261 C   0  0  2  0  0  0  0  0  0  0  0  0
   20.1876  -21.4558  -14.7157 O   0  0  0  0  0  0  0  0  0  0  0  0
   20.2067  -22.7951  -14.3065 C   0  0  2  0  0  0  0  0  0  0  0  0
   20.5831  -20.6202  -13.4941 N   0  0  0  0  0  0  0  0  0  0  0  0
   21.7772  -21.2353  -12.9504 C   0  0  0  0  0  0  0  0  0  0  0  0
   19.4765  -20.7563  -12.5001 O   0  0  0  0  0  0  0  0  0  0  0  0
   18.2613  -20.1527  -12.7528 O   0  0  0  0  0  0  0  0  0  0  0  0
  2  3  2  0
  2  1  1  0
  4  2  1  0
  5  4  1  0
  6  5  1  0
  7  8  1  0
  7  6  1  0
  8  9  1  6
 10  8  1  0
 10 12  1  0
 11 10  2  0
 13 16  1  0
 13 12  1  0
 13 14  1  1
 14 15  1  0
 16 17  2  0
 19 18  1  6
 19 21  1  0
 20 19  1  0
 21 23  1  0
 21 22  1  1
 22 16  1  0
 23 25  2  0
 23 24  1  0
M  END
$$$$
