RCT.pdb
     RDKit          3D

 25 24  0  0  1  0  0  0  0  0999 V2000
   26.7483  -14.3076  -15.1209 N   0  0  0  0  0  0  0  0  0  0  0  0
   27.7443  -14.0736  -16.1156 C   0  0  0  0  0  0  0  0  0  0  0  0
   28.1665  -15.0943  -16.7945 N   0  0  0  0  0  0  0  0  0  0  0  0
   28.2476  -12.7648  -16.3445 N   0  0  0  0  0  0  0  0  0  0  0  0
   27.3828  -11.6615  -15.9609 C   0  0  0  0  0  0  0  0  0  0  0  0
   26.4322  -11.2698  -17.0329 C   0  0  0  0  0  0  0  0  0  0  0  0
   25.5912  -10.1179  -16.5599 C   0  0  0  0  0  0  0  0  0  0  0  0
   24.3455  -10.6393  -15.9274 C   0  0  2  0  0  0  0  0  0  0  0  0
   23.8378  -11.7062  -16.7988 N   0  0  0  0  0  0  0  0  0  0  0  0
   23.2666   -9.5745  -15.9027 C   0  0  0  0  0  0  0  0  0  0  0  0
   23.0332   -8.8436  -16.8988 O   0  0  0  0  0  0  0  0  0  0  0  0
   28.8631  -15.0042  -17.5636 N   0  0  0  0  0  0  0  0  0  0  0  0
   22.4802   -9.3711  -14.7393 C   0  0  1  0  0  0  0  0  0  0  0  0
   21.3687   -8.4449  -14.6684 C   0  0  0  0  0  0  0  0  0  0  0  0
   20.2186   -8.9908  -13.8707 S   0  0  0  0  0  0  0  0  0  0  0  0
   19.7626  -10.6548  -14.4273 C   0  0  0  0  0  0  0  0  0  0  0  0
   21.7973   -7.1055  -14.2737 O   0  0  0  0  0  0  0  0  0  0  0  0
   22.4106   -6.9788  -13.1789 C   0  0  0  0  0  0  0  0  0  0  0  0
   23.9282   -4.7234  -16.3014 C   0  0  2  0  0  0  0  0  0  0  0  0
   22.6720   -4.0010  -15.9034 O   0  0  0  0  0  0  0  0  0  0  0  0
   21.7334   -4.1717  -16.9289 C   0  0  2  0  0  0  0  0  0  0  0  0
   22.0578   -4.6170  -14.6423 N   0  0  0  0  0  0  0  0  0  0  0  0
   21.5797   -5.9308  -15.0233 C   0  0  0  0  0  0  0  0  0  0  0  0
   20.8864   -3.7674  -14.2721 O   0  0  0  0  0  0  0  0  0  0  0  0
   21.1017   -2.5158  -13.7318 O   0  0  0  0  0  0  0  0  0  0  0  0
  2  3  2  0
  2  1  1  0
  4  2  1  0
  5  4  1  0
  6  5  1  0
  7  8  1  0
  7  6  1  0
  8  9  1  6
 10  8  1  0
 10 12  1  0
 11 10  2  0
 13 16  1  0
 13 12  1  0
 13 14  1  6
 14 15  1  0
 16 17  2  0
 19 18  1  6
 19 21  1  0
 20 19  1  0
 21 23  1  0
 21 22  1  1
 22 16  1  0
 23 25  2  0
 23 24  1  0
M  END
$$$$
