RCT.pdb
     RDKit          3D

 25 24  0  0  1  0  0  0  0  0999 V2000
   13.3587  -15.3733  -12.3766 N   0  0  0  0  0  0  0  0  0  0  0  0
   14.4496  -14.7226  -11.7265 C   0  0  0  0  0  0  0  0  0  0  0  0
   15.6489  -15.0389  -12.1043 N   0  0  0  0  0  0  0  0  0  0  0  0
   14.2174  -13.7645  -10.7034 N   0  0  0  0  0  0  0  0  0  0  0  0
   12.8324  -13.5485  -10.3198 C   0  0  0  0  0  0  0  0  0  0  0  0
   12.6709  -12.4676   -9.3139 C   0  0  0  0  0  0  0  0  0  0  0  0
   13.1512  -11.1676   -9.8946 C   0  0  0  0  0  0  0  0  0  0  0  0
   12.9280  -10.0709   -8.9092 C   0  0  2  0  0  0  0  0  0  0  0  0
   11.4820   -9.8196   -8.8696 N   0  0  0  0  0  0  0  0  0  0  0  0
   13.5611   -8.7790   -9.3874 C   0  0  0  0  0  0  0  0  0  0  0  0
   12.9858   -8.0238  -10.2117 O   0  0  0  0  0  0  0  0  0  0  0  0
   16.4991  -14.6125  -11.6797 N   0  0  0  0  0  0  0  0  0  0  0  0
   14.8373   -8.3815   -8.9112 C   0  0  2  0  0  0  0  0  0  0  0  0
   15.4850   -7.1393   -9.2794 C   0  0  0  0  0  0  0  0  0  0  0  0
   15.7275   -6.2472   -8.0952 S   0  0  0  0  0  0  0  0  0  0  0  0
   14.1683   -5.6331   -7.4034 C   0  0  0  0  0  0  0  0  0  0  0  0
   16.6589   -7.3627  -10.1194 O   0  0  0  0  0  0  0  0  0  0  0  0
   17.7255   -7.7356   -9.5589 C   0  0  0  0  0  0  0  0  0  0  0  0
   17.2469   -9.7409  -12.9555 C   0  0  2  0  0  0  0  0  0  0  0  0
   17.4580   -8.3437  -13.4665 O   0  0  0  0  0  0  0  0  0  0  0  0
   16.2303   -7.8701  -13.9463 C   0  0  2  0  0  0  0  0  0  0  0  0
   17.8779   -7.4003  -12.3349 N   0  0  0  0  0  0  0  0  0  0  0  0
   16.6983   -7.1941  -11.5190 C   0  0  0  0  0  0  0  0  0  0  0  0
   18.2558   -6.1027  -12.9711 O   0  0  0  0  0  0  0  0  0  0  0  0
   19.4522   -6.0058  -13.6523 O   0  0  0  0  0  0  0  0  0  0  0  0
  2  3  2  0
  2  1  1  0
  4  2  1  0
  5  4  1  0
  6  5  1  0
  7  8  1  0
  7  6  1  0
  8  9  1  6
 10  8  1  0
 10 12  1  0
 11 10  2  0
 13 16  1  0
 13 12  1  0
 13 14  1  1
 14 15  1  0
 16 17  2  0
 19 18  1  6
 19 21  1  0
 20 19  1  0
 21 23  1  0
 21 22  1  6
 22 16  1  0
 23 25  2  0
 23 24  1  0
M  END
$$$$
