RCT.pdb
     RDKit          3D

 25 24  0  0  1  0  0  0  0  0999 V2000
   23.2330  -21.9360  -15.4899 N   0  0  0  0  0  0  0  0  0  0  0  0
   22.5855  -20.7338  -15.0756 C   0  0  0  0  0  0  0  0  0  0  0  0
   22.1638  -19.9294  -16.0007 N   0  0  0  0  0  0  0  0  0  0  0  0
   22.4152  -20.4400  -13.6960 N   0  0  0  0  0  0  0  0  0  0  0  0
   23.3562  -21.0622  -12.7797 C   0  0  0  0  0  0  0  0  0  0  0  0
   24.7215  -20.4844  -12.8694 C   0  0  0  0  0  0  0  0  0  0  0  0
   25.6114  -21.1425  -11.8530 C   0  0  0  0  0  0  0  0  0  0  0  0
   25.0843  -20.8749  -10.4840 C   0  0  2  0  0  0  0  0  0  0  0  0
   24.3597  -19.5995  -10.5467 N   0  0  0  0  0  0  0  0  0  0  0  0
   26.2190  -20.6600   -9.5017 C   0  0  0  0  0  0  0  0  0  0  0  0
   27.0568  -21.5625   -9.2484 O   0  0  0  0  0  0  0  0  0  0  0  0
   21.6896  -19.0277  -15.7834 N   0  0  0  0  0  0  0  0  0  0  0  0
   26.3683  -19.4178   -8.8324 C   0  0  1  0  0  0  0  0  0  0  0  0
   27.4149  -19.1402   -7.8703 C   0  0  0  0  0  0  0  0  0  0  0  0
   27.7235  -17.6735   -7.7672 S   0  0  0  0  0  0  0  0  0  0  0  0
   28.8623  -17.3351   -6.3979 C   0  0  0  0  0  0  0  0  0  0  0  0
   27.1692  -19.7985   -6.5897 O   0  0  0  0  0  0  0  0  0  0  0  0
   26.0004  -19.7572   -6.1176 C   0  0  0  0  0  0  0  0  0  0  0  0
   27.3255  -22.9808   -4.4958 C   0  0  2  0  0  0  0  0  0  0  0  0
   28.4448  -22.0704   -4.0756 O   0  0  0  0  0  0  0  0  0  0  0  0
   29.5736  -22.3945   -4.8389 C   0  0  2  0  0  0  0  0  0  0  0  0
   28.1123  -20.6077   -4.3871 N   0  0  0  0  0  0  0  0  0  0  0  0
   28.1408  -20.4831   -5.8305 C   0  0  0  0  0  0  0  0  0  0  0  0
   29.2149  -19.7812   -3.8108 O   0  0  0  0  0  0  0  0  0  0  0  0
   29.3447  -19.6864   -2.4400 O   0  0  0  0  0  0  0  0  0  0  0  0
  2  3  2  0
  2  1  1  0
  4  2  1  0
  5  4  1  0
  6  5  1  0
  7  8  1  0
  7  6  1  0
  8  9  1  6
 10  8  1  0
 10 12  1  0
 11 10  2  0
 13 16  1  0
 13 12  1  0
 13 14  1  6
 14 15  1  0
 16 17  2  0
 19 18  1  1
 19 21  1  0
 20 19  1  0
 21 23  1  0
 21 22  1  1
 22 16  1  0
 23 25  2  0
 23 24  1  0
M  END
$$$$
