RCT.pdb
     RDKit          3D

 25 24  0  0  1  0  0  0  0  0999 V2000
   20.2938  -13.0840  -15.8755 N   0  0  0  0  0  0  0  0  0  0  0  0
   19.1623  -13.6062  -16.5705 C   0  0  0  0  0  0  0  0  0  0  0  0
   19.1030  -14.8899  -16.7423 N   0  0  0  0  0  0  0  0  0  0  0  0
   18.1438  -12.7406  -17.0522 N   0  0  0  0  0  0  0  0  0  0  0  0
   18.2074  -11.3569  -16.6123 C   0  0  0  0  0  0  0  0  0  0  0  0
   17.6367  -11.1525  -15.2563 C   0  0  0  0  0  0  0  0  0  0  0  0
   17.6652   -9.6891  -14.9166 C   0  0  0  0  0  0  0  0  0  0  0  0
   17.1069   -9.4857  -13.5489 C   0  0  2  0  0  0  0  0  0  0  0  0
   15.6465   -9.5827  -13.6646 N   0  0  0  0  0  0  0  0  0  0  0  0
   17.3919   -8.0816  -13.0532 C   0  0  0  0  0  0  0  0  0  0  0  0
   16.5865   -7.1350  -13.2431 O   0  0  0  0  0  0  0  0  0  0  0  0
   18.2840  -15.3571  -17.1849 N   0  0  0  0  0  0  0  0  0  0  0  0
   18.5914   -7.7936  -12.3520 C   0  0  2  0  0  0  0  0  0  0  0  0
   18.9421   -6.4773  -11.8595 C   0  0  0  0  0  0  0  0  0  0  0  0
   18.9816   -6.4194  -10.3589 S   0  0  0  0  0  0  0  0  0  0  0  0
   17.5505   -7.2601   -9.6297 C   0  0  0  0  0  0  0  0  0  0  0  0
   20.1335   -5.9468  -12.5173 O   0  0  0  0  0  0  0  0  0  0  0  0
   21.2272   -6.5481  -12.3357 C   0  0  0  0  0  0  0  0  0  0  0  0
   20.6334   -5.4382  -16.1877 C   0  0  2  0  0  0  0  0  0  0  0  0
   20.9076   -4.1262  -15.5085 O   0  0  0  0  0  0  0  0  0  0  0  0
   19.7092   -3.4022  -15.4698 C   0  0  2  0  0  0  0  0  0  0  0  0
   21.3370   -4.3379  -14.0532 N   0  0  0  0  0  0  0  0  0  0  0  0
   20.1618   -4.8066  -13.3469 C   0  0  0  0  0  0  0  0  0  0  0  0
   21.7190   -2.9977  -13.5155 O   0  0  0  0  0  0  0  0  0  0  0  0
   22.9041   -2.4182  -13.9209 O   0  0  0  0  0  0  0  0  0  0  0  0
  2  3  2  0
  2  1  1  0
  4  2  1  0
  5  4  1  0
  6  5  1  0
  7  8  1  0
  7  6  1  0
  8  9  1  6
 10  8  1  0
 10 12  1  0
 11 10  2  0
 13 16  1  0
 13 12  1  0
 13 14  1  6
 14 15  1  0
 16 17  2  0
 19 18  1  6
 19 21  1  0
 20 19  1  0
 21 23  1  0
 21 22  1  1
 22 16  1  0
 23 25  2  0
 23 24  1  0
M  END
$$$$
