RCT.pdb
     RDKit          3D

 25 24  0  0  1  0  0  0  0  0999 V2000
   29.1611  -16.4892  -17.7866 N   0  0  0  0  0  0  0  0  0  0  0  0
   28.0321  -15.6825  -17.4540 C   0  0  0  0  0  0  0  0  0  0  0  0
   27.7733  -14.6675  -18.2180 N   0  0  0  0  0  0  0  0  0  0  0  0
   27.2282  -15.9905  -16.3238 N   0  0  0  0  0  0  0  0  0  0  0  0
   27.5616  -17.2080  -15.6035 C   0  0  0  0  0  0  0  0  0  0  0  0
   27.2782  -18.4397  -16.3837 C   0  0  0  0  0  0  0  0  0  0  0  0
   26.2934  -19.2917  -15.6339 C   0  0  0  0  0  0  0  0  0  0  0  0
   27.0166  -20.1096  -14.6182 C   0  0  2  0  0  0  0  0  0  0  0  0
   27.8694  -21.0503  -15.3553 N   0  0  0  0  0  0  0  0  0  0  0  0
   26.0476  -20.9628  -13.8235 C   0  0  0  0  0  0  0  0  0  0  0  0
   25.3905  -21.8923  -14.3572 O   0  0  0  0  0  0  0  0  0  0  0  0
   26.9943  -14.0046  -18.0213 N   0  0  0  0  0  0  0  0  0  0  0  0
   25.8532  -20.7324  -12.4369 C   0  0  2  0  0  0  0  0  0  0  0  0
   24.7771  -21.3186  -11.6645 C   0  0  0  0  0  0  0  0  0  0  0  0
   25.0289  -21.2463  -10.1852 S   0  0  0  0  0  0  0  0  0  0  0  0
   25.1235  -19.5274   -9.6169 C   0  0  0  0  0  0  0  0  0  0  0  0
   23.4695  -20.8185  -12.0811 O   0  0  0  0  0  0  0  0  0  0  0  0
   23.2914  -19.5701  -12.0989 C   0  0  0  0  0  0  0  0  0  0  0  0
   21.7094  -21.2007  -15.2861 C   0  0  2  0  0  0  0  0  0  0  0  0
   20.7768  -21.7295  -14.2332 O   0  0  0  0  0  0  0  0  0  0  0  0
   21.0026  -23.1062  -14.1094 C   0  0  2  0  0  0  0  0  0  0  0  0
   21.0830  -21.1119  -12.8650 N   0  0  0  0  0  0  0  0  0  0  0  0
   22.3791  -21.6246  -12.4687 C   0  0  0  0  0  0  0  0  0  0  0  0
   20.0509  -21.6279  -11.9166 O   0  0  0  0  0  0  0  0  0  0  0  0
   18.7325  -21.2547  -12.0820 O   0  0  0  0  0  0  0  0  0  0  0  0
  2  3  2  0
  2  1  1  0
  4  2  1  0
  5  4  1  0
  6  5  1  0
  7  8  1  0
  7  6  1  0
  8  9  1  6
 10  8  1  0
 10 12  1  0
 11 10  2  0
 13 16  1  0
 13 12  1  0
 13 14  1  1
 14 15  1  0
 16 17  2  0
 19 18  1  6
 19 21  1  0
 20 19  1  0
 21 23  1  0
 21 22  1  1
 22 16  1  0
 23 25  2  0
 23 24  1  0
M  END
$$$$
