RCT.pdb
     RDKit          3D

 25 24  0  0  1  0  0  0  0  0999 V2000
   30.5048  -20.9338  -19.1352 N   0  0  0  0  0  0  0  0  0  0  0  0
   30.2937  -22.1956  -18.5031 C   0  0  0  0  0  0  0  0  0  0  0  0
   31.2423  -23.0754  -18.5868 N   0  0  0  0  0  0  0  0  0  0  0  0
   29.0833  -22.4663  -17.8101 N   0  0  0  0  0  0  0  0  0  0  0  0
   28.0911  -21.4043  -17.7991 C   0  0  0  0  0  0  0  0  0  0  0  0
   28.1584  -20.5603  -16.5787 C   0  0  0  0  0  0  0  0  0  0  0  0
   26.8130  -20.5390  -15.9100 C   0  0  0  0  0  0  0  0  0  0  0  0
   26.6191  -21.8035  -15.1439 C   0  0  2  0  0  0  0  0  0  0  0  0
   26.3158  -22.8544  -16.1231 N   0  0  0  0  0  0  0  0  0  0  0  0
   25.4014  -21.7087  -14.2457 C   0  0  0  0  0  0  0  0  0  0  0  0
   24.2850  -22.1728  -14.5908 O   0  0  0  0  0  0  0  0  0  0  0  0
   31.1541  -24.0320  -18.1844 N   0  0  0  0  0  0  0  0  0  0  0  0
   25.4895  -21.0853  -12.9741 C   0  0  1  0  0  0  0  0  0  0  0  0
   24.3887  -21.0065  -12.0359 C   0  0  0  0  0  0  0  0  0  0  0  0
   24.8367  -20.6009  -10.6605 S   0  0  0  0  0  0  0  0  0  0  0  0
   25.8876  -21.8725   -9.9088 C   0  0  0  0  0  0  0  0  0  0  0  0
   23.2744  -20.2242  -12.5648 O   0  0  0  0  0  0  0  0  0  0  0  0
   23.3733  -18.9670  -12.5482 C   0  0  0  0  0  0  0  0  0  0  0  0
   21.9209  -19.9694  -15.9289 C   0  0  2  0  0  0  0  0  0  0  0  0
   20.7768  -20.4122  -15.0611 O   0  0  0  0  0  0  0  0  0  0  0  0
   20.7569  -21.8126  -15.0555 C   0  0  2  0  0  0  0  0  0  0  0  0
   20.9845  -19.9725  -13.6083 N   0  0  0  0  0  0  0  0  0  0  0  0
   22.0855  -20.7642  -13.0977 C   0  0  0  0  0  0  0  0  0  0  0  0
   19.7425  -20.3388  -12.8637 O   0  0  0  0  0  0  0  0  0  0  0  0
   18.5910  -19.6050  -13.0652 O   0  0  0  0  0  0  0  0  0  0  0  0
  2  3  2  0
  2  1  1  0
  4  2  1  0
  5  4  1  0
  6  5  1  0
  7  8  1  0
  7  6  1  0
  8  9  1  6
 10  8  1  0
 10 12  1  0
 11 10  2  0
 13 16  1  0
 13 12  1  0
 13 14  1  6
 14 15  1  0
 16 17  2  0
 19 18  1  6
 19 21  1  0
 20 19  1  0
 21 23  1  0
 21 22  1  1
 22 16  1  0
 23 25  2  0
 23 24  1  0
M  END
$$$$
