RCT.pdb
     RDKit          3D

 25 24  0  0  1  0  0  0  0  0999 V2000
   30.5305  -23.0846  -17.1538 N   0  0  0  0  0  0  0  0  0  0  0  0
   30.0805  -22.3828  -18.3118 C   0  0  0  0  0  0  0  0  0  0  0  0
   30.5188  -22.7829  -19.4646 N   0  0  0  0  0  0  0  0  0  0  0  0
   29.1845  -21.2866  -18.1932 N   0  0  0  0  0  0  0  0  0  0  0  0
   28.8813  -20.8402  -16.8438 C   0  0  0  0  0  0  0  0  0  0  0  0
   27.4478  -20.5013  -16.6533 C   0  0  0  0  0  0  0  0  0  0  0  0
   27.2395  -19.9694  -15.2635 C   0  0  0  0  0  0  0  0  0  0  0  0
   27.3418  -21.0882  -14.2830 C   0  0  2  0  0  0  0  0  0  0  0  0
   27.7412  -22.2827  -15.0375 N   0  0  0  0  0  0  0  0  0  0  0  0
   25.9854  -21.4083  -13.6863 C   0  0  0  0  0  0  0  0  0  0  0  0
   25.0836  -21.9745  -14.3548 O   0  0  0  0  0  0  0  0  0  0  0  0
   30.1619  -22.3953  -20.3631 N   0  0  0  0  0  0  0  0  0  0  0  0
   25.6926  -21.0730  -12.3390 C   0  0  1  0  0  0  0  0  0  0  0  0
   24.4355  -21.3767  -11.6867 C   0  0  0  0  0  0  0  0  0  0  0  0
   24.5339  -21.2991  -10.1896 S   0  0  0  0  0  0  0  0  0  0  0  0
   26.1082  -20.5650   -9.6706 C   0  0  0  0  0  0  0  0  0  0  0  0
   23.3250  -20.6207  -12.2603 O   0  0  0  0  0  0  0  0  0  0  0  0
   23.3976  -19.3617  -12.2485 C   0  0  0  0  0  0  0  0  0  0  0  0
   22.0068  -20.8239  -15.7428 C   0  0  2  0  0  0  0  0  0  0  0  0
   20.8484  -21.0618  -14.8156 O   0  0  0  0  0  0  0  0  0  0  0  0
   20.7442  -22.4420  -14.6014 C   0  0  2  0  0  0  0  0  0  0  0  0
   21.0994  -20.4248  -13.4451 N   0  0  0  0  0  0  0  0  0  0  0  0
   22.1673  -21.1883  -12.8316 C   0  0  0  0  0  0  0  0  0  0  0  0
   19.8520  -20.6135  -12.6453 O   0  0  0  0  0  0  0  0  0  0  0  0
   18.7296  -19.8732  -12.9567 O   0  0  0  0  0  0  0  0  0  0  0  0
  2  3  2  0
  2  1  1  0
  4  2  1  0
  5  4  1  0
  6  5  1  0
  7  8  1  0
  7  6  1  0
  8  9  1  6
 10  8  1  0
 10 12  1  0
 11 10  2  0
 13 16  1  0
 13 12  1  0
 13 14  1  1
 14 15  1  0
 16 17  2  0
 19 18  1  6
 19 21  1  0
 20 19  1  0
 21 23  1  0
 21 22  1  1
 22 16  1  0
 23 25  2  0
 23 24  1  0
M  END
$$$$
