GIW.pdb
     RDKit          3D

 27 28  0  0  1  0  0  0  0  0999 V2000
   24.7510  -25.6481  -15.7626 N   0  0  0  0  0  0  0  0  0  0  0  0
   24.2377  -24.3685  -15.3665 C   0  0  0  0  0  0  0  0  0  0  0  0
   25.1505  -23.7600  -14.3801 C   0  0  0  0  0  0  0  0  0  0  0  0
   25.6483  -24.4864  -13.4683 O   0  0  0  0  0  0  0  0  0  0  0  0
   29.0261  -18.9920  -13.6597 C   0  0  0  0  0  0  0  0  0  0  0  0
   28.2642  -20.1387  -13.0588 C   0  0  0  0  0  0  0  0  0  0  0  0
   27.1378  -20.6062  -13.9604 C   0  0  2  0  0  0  0  0  0  0  0  0
   26.1092  -19.5150  -14.1604 C   0  0  0  0  0  0  0  0  0  0  0  0
   26.4455  -21.8230  -13.3998 C   0  0  2  0  0  0  0  0  0  0  0  0
   25.5172  -22.3930  -14.3806 N   0  0  0  0  0  0  0  0  0  0  0  0
   25.6912  -21.4252  -12.1849 C   0  0  0  0  0  0  0  0  0  0  0  0
   24.5200  -21.0028  -12.3096 O   0  0  0  0  0  0  0  0  0  0  0  0
   26.2866  -21.5239  -10.9204 N   0  0  0  0  0  0  0  0  0  0  0  0
   25.4589  -21.3603   -9.7101 C   0  0  1  0  0  0  0  0  0  0  0  0
   26.3816  -21.6438   -8.5546 C   0  0  0  0  0  0  0  0  0  0  0  0
   26.8109  -20.4840   -7.7798 C   0  0  0  0  0  0  0  0  0  0  0  0
   26.2972  -19.1749   -7.8659 C   0  0  0  0  0  0  0  0  0  0  0  0
   26.9554  -18.3796   -7.0315 N   0  0  0  0  0  0  0  0  0  0  0  0
   27.8870  -19.0721   -6.3819 C   0  0  0  0  0  0  0  0  0  0  0  0
   28.8042  -18.7346   -5.4236 C   0  0  0  0  0  0  0  0  0  0  0  0
   29.6692  -19.6583   -4.8799 C   0  0  0  0  0  0  0  0  0  0  0  0
   29.5874  -20.9441   -5.3295 C   0  0  0  0  0  0  0  0  0  0  0  0
   28.6845  -21.3219   -6.2869 C   0  0  0  0  0  0  0  0  0  0  0  0
   27.8179  -20.3845   -6.8291 C   0  0  0  0  0  0  0  0  0  0  0  0
   24.8469  -20.0477   -9.7337 C   0  0  0  0  0  0  0  0  0  0  0  0
   23.5758  -19.8564   -9.2079 O   0  0  0  0  0  0  0  0  0  0  0  0
   25.4194  -19.0577  -10.2148 O   0  0  0  0  0  0  0  0  0  0  0  0
  2  3  1  0
  2  1  1  0
  3  4  2  0
  6  5  1  0
  7  6  1  0
  7  9  1  0
  7  8  1  1
  9 10  1  6
 10  3  1  0
 11  9  1  0
 12 11  2  0
 13 11  1  0
 14 13  1  0
 14 25  1  0
 14 15  1  1
 16 15  1  0
 17 16  2  0
 18 17  1  0
 19 18  1  0
 19 24  2  0
 20 21  2  0
 20 19  1  0
 21 22  1  0
 22 23  2  0
 23 24  1  0
 24 16  1  0
 25 26  1  0
 27 25  2  0
M  END
$$$$
