GIW.pdb
     RDKit          3D

 27 28  0  0  1  0  0  0  0  0999 V2000
   26.2916  -24.4131  -16.5446 N   0  0  0  0  0  0  0  0  0  0  0  0
   25.3884  -23.5593  -15.8284 C   0  0  0  0  0  0  0  0  0  0  0  0
   26.1493  -22.7435  -14.8631 C   0  0  0  0  0  0  0  0  0  0  0  0
   26.9543  -23.3162  -14.0689 O   0  0  0  0  0  0  0  0  0  0  0  0
   27.3274  -17.4780  -15.8871 C   0  0  0  0  0  0  0  0  0  0  0  0
   27.5103  -18.8774  -15.3724 C   0  0  0  0  0  0  0  0  0  0  0  0
   26.7708  -19.1034  -14.0677 C   0  0  2  0  0  0  0  0  0  0  0  0
   27.4273  -18.3524  -12.9302 C   0  0  0  0  0  0  0  0  0  0  0  0
   26.7128  -20.5667  -13.7078 C   0  0  2  0  0  0  0  0  0  0  0  0
   26.0410  -21.3360  -14.7593 N   0  0  0  0  0  0  0  0  0  0  0  0
   25.9619  -20.7157  -12.4362 C   0  0  0  0  0  0  0  0  0  0  0  0
   24.7113  -20.6873  -12.4635 O   0  0  0  0  0  0  0  0  0  0  0  0
   26.6486  -20.8858  -11.2267 N   0  0  0  0  0  0  0  0  0  0  0  0
   25.8935  -21.1898   -9.9963 C   0  0  1  0  0  0  0  0  0  0  0  0
   26.9366  -21.4765   -8.9488 C   0  0  0  0  0  0  0  0  0  0  0  0
   27.0929  -20.4648   -7.9087 C   0  0  0  0  0  0  0  0  0  0  0  0
   26.4604  -19.2071   -7.8533 C   0  0  0  0  0  0  0  0  0  0  0  0
   26.8706  -18.5464   -6.7776 N   0  0  0  0  0  0  0  0  0  0  0  0
   27.7454  -19.2823   -6.0973 C   0  0  0  0  0  0  0  0  0  0  0  0
   28.4381  -19.0740   -4.9353 C   0  0  0  0  0  0  0  0  0  0  0  0
   29.2918  -20.0197   -4.4119 C   0  0  0  0  0  0  0  0  0  0  0  0
   29.4326  -21.1929   -5.0943 C   0  0  0  0  0  0  0  0  0  0  0  0
   28.7582  -21.4396   -6.2601 C   0  0  0  0  0  0  0  0  0  0  0  0
   27.9011  -20.4809   -6.7798 C   0  0  0  0  0  0  0  0  0  0  0  0
   24.9899  -20.0928   -9.7167 C   0  0  0  0  0  0  0  0  0  0  0  0
   23.7455  -20.3356   -9.1500 O   0  0  0  0  0  0  0  0  0  0  0  0
   25.2820  -18.9131   -9.9662 O   0  0  0  0  0  0  0  0  0  0  0  0
  2  3  1  0
  2  1  1  0
  3  4  2  0
  6  5  1  0
  7  6  1  0
  7  9  1  0
  7  8  1  1
  9 10  1  6
 10  3  1  0
 11  9  1  0
 12 11  2  0
 13 11  1  0
 14 13  1  0
 14 25  1  0
 14 15  1  1
 16 15  1  0
 17 16  2  0
 18 17  1  0
 19 18  1  0
 19 24  2  0
 20 21  2  0
 20 19  1  0
 21 22  1  0
 22 23  2  0
 23 24  1  0
 24 16  1  0
 25 26  1  0
 27 25  2  0
M  END
$$$$
