GIW.pdb
     RDKit          3D

 27 28  0  0  1  0  0  0  0  0999 V2000
   28.6878  -21.2695  -14.7137 N   0  0  0  0  0  0  0  0  0  0  0  0
   28.2703  -20.3362  -13.7076 C   0  0  0  0  0  0  0  0  0  0  0  0
   27.2804  -20.9810  -12.8239 C   0  0  0  0  0  0  0  0  0  0  0  0
   26.6708  -22.0156  -13.2297 O   0  0  0  0  0  0  0  0  0  0  0  0
   27.1376  -19.8182   -7.4218 C   0  0  0  0  0  0  0  0  0  0  0  0
   27.0058  -20.6702   -8.6519 C   0  0  0  0  0  0  0  0  0  0  0  0
   25.7284  -20.3735   -9.4136 C   0  0  2  0  0  0  0  0  0  0  0  0
   24.5195  -20.9219   -8.6881 C   0  0  0  0  0  0  0  0  0  0  0  0
   25.7613  -20.9578  -10.8034 C   0  0  2  0  0  0  0  0  0  0  0  0
   26.9567  -20.5152  -11.5271 N   0  0  0  0  0  0  0  0  0  0  0  0
   24.5510  -20.5112  -11.5375 C   0  0  0  0  0  0  0  0  0  0  0  0
   24.3965  -19.2908  -11.7663 O   0  0  0  0  0  0  0  0  0  0  0  0
   23.5997  -21.4467  -11.9656 N   0  0  0  0  0  0  0  0  0  0  0  0
   22.4247  -20.9923  -12.7333 C   0  0  1  0  0  0  0  0  0  0  0  0
   22.5323  -21.6774  -14.0698 C   0  0  0  0  0  0  0  0  0  0  0  0
   22.8967  -20.8254  -15.1973 C   0  0  0  0  0  0  0  0  0  0  0  0
   24.0383  -20.0063  -15.3015 C   0  0  0  0  0  0  0  0  0  0  0  0
   24.0172  -19.3534  -16.4569 N   0  0  0  0  0  0  0  0  0  0  0  0
   22.9275  -19.6814  -17.1456 C   0  0  0  0  0  0  0  0  0  0  0  0
   22.4509  -19.3098  -18.3737 C   0  0  0  0  0  0  0  0  0  0  0  0
   21.2776  -19.8159  -18.8879 C   0  0  0  0  0  0  0  0  0  0  0  0
   20.5883  -20.7149  -18.1272 C   0  0  0  0  0  0  0  0  0  0  0  0
   21.0309  -21.1118  -16.8938 C   0  0  0  0  0  0  0  0  0  0  0  0
   22.2132  -20.5962  -16.3840 C   0  0  0  0  0  0  0  0  0  0  0  0
   21.2272  -21.2689  -11.9667 C   0  0  0  0  0  0  0  0  0  0  0  0
   21.2947  -22.0389  -10.8129 O   0  0  0  0  0  0  0  0  0  0  0  0
   20.1122  -20.8391  -12.3004 O   0  0  0  0  0  0  0  0  0  0  0  0
  2  3  1  0
  2  1  1  0
  3  4  2  0
  6  5  1  0
  7  6  1  0
  7  9  1  0
  7  8  1  1
  9 10  1  6
 10  3  1  0
 11  9  1  0
 12 11  2  0
 13 11  1  0
 14 13  1  0
 14 25  1  0
 14 15  1  6
 16 15  1  0
 17 16  2  0
 18 17  1  0
 19 18  1  0
 19 24  2  0
 20 21  2  0
 20 19  1  0
 21 22  1  0
 22 23  2  0
 23 24  1  0
 24 16  1  0
 25 26  1  0
 27 25  2  0
M  END
$$$$
