GIW.pdb
     RDKit          3D

 27 28  0  0  1  0  0  0  0  0999 V2000
   22.7009  -20.7719  -17.3604 N   0  0  0  0  0  0  0  0  0  0  0  0
   23.2848  -20.1341  -16.2159 C   0  0  0  0  0  0  0  0  0  0  0  0
   24.6275  -20.6960  -15.9756 C   0  0  0  0  0  0  0  0  0  0  0  0
   24.7940  -21.9507  -16.0450 O   0  0  0  0  0  0  0  0  0  0  0  0
   28.9225  -17.4098  -16.2245 C   0  0  0  0  0  0  0  0  0  0  0  0
   28.3834  -18.8032  -16.3811 C   0  0  0  0  0  0  0  0  0  0  0  0
   28.0889  -19.4515  -15.0420 C   0  0  2  0  0  0  0  0  0  0  0  0
   29.3289  -20.0956  -14.4620 C   0  0  0  0  0  0  0  0  0  0  0  0
   27.0112  -20.5001  -15.1570 C   0  0  2  0  0  0  0  0  0  0  0  0
   25.7672  -19.9157  -15.6663 N   0  0  0  0  0  0  0  0  0  0  0  0
   26.7654  -21.0809  -13.8134 C   0  0  0  0  0  0  0  0  0  0  0  0
   27.5663  -21.9309  -13.3644 O   0  0  0  0  0  0  0  0  0  0  0  0
   25.6519  -20.6792  -13.0636 N   0  0  0  0  0  0  0  0  0  0  0  0
   25.5175  -21.1230  -11.6631 C   0  0  1  0  0  0  0  0  0  0  0  0
   26.7323  -20.5838  -10.9554 C   0  0  0  0  0  0  0  0  0  0  0  0
   26.5918  -20.3673   -9.5191 C   0  0  0  0  0  0  0  0  0  0  0  0
   25.4073  -20.0490   -8.8258 C   0  0  0  0  0  0  0  0  0  0  0  0
   25.6718  -19.8954   -7.5341 N   0  0  0  0  0  0  0  0  0  0  0  0
   26.9679  -20.0915   -7.3082 C   0  0  0  0  0  0  0  0  0  0  0  0
   27.7330  -20.0670   -6.1735 C   0  0  0  0  0  0  0  0  0  0  0  0
   29.0851  -20.3285   -6.1960 C   0  0  0  0  0  0  0  0  0  0  0  0
   29.6543  -20.6183   -7.4018 C   0  0  0  0  0  0  0  0  0  0  0  0
   28.9240  -20.6522   -8.5595 C   0  0  0  0  0  0  0  0  0  0  0  0
   27.5630  -20.3869   -8.5270 C   0  0  0  0  0  0  0  0  0  0  0  0
   24.2335  -20.6872  -11.1535 C   0  0  0  0  0  0  0  0  0  0  0  0
   23.6686  -21.3108  -10.0487 O   0  0  0  0  0  0  0  0  0  0  0  0
   23.5957  -19.7575  -11.6712 O   0  0  0  0  0  0  0  0  0  0  0  0
  2  3  1  0
  2  1  1  0
  3  4  2  0
  6  5  1  0
  7  6  1  0
  7  9  1  0
  7  8  1  6
  9 10  1  1
 10  3  1  0
 11  9  1  0
 12 11  2  0
 13 11  1  0
 14 13  1  0
 14 25  1  0
 14 15  1  1
 16 15  1  0
 17 16  2  0
 18 17  1  0
 19 18  1  0
 19 24  2  0
 20 21  2  0
 20 19  1  0
 21 22  1  0
 22 23  2  0
 23 24  1  0
 24 16  1  0
 25 26  1  0
 27 25  2  0
M  END
$$$$
