GIW.pdb
     RDKit          3D

 27 28  0  0  1  0  0  0  0  0999 V2000
   13.2415  -22.8168  -16.1119 N   0  0  0  0  0  0  0  0  0  0  0  0
   13.5809  -24.1777  -16.4129 C   0  0  0  0  0  0  0  0  0  0  0  0
   12.8737  -25.0753  -15.4799 C   0  0  0  0  0  0  0  0  0  0  0  0
   11.9435  -24.6070  -14.7571 O   0  0  0  0  0  0  0  0  0  0  0  0
   11.8081  -28.7866  -17.5522 C   0  0  0  0  0  0  0  0  0  0  0  0
   11.1553  -28.5044  -16.2291 C   0  0  0  0  0  0  0  0  0  0  0  0
   12.1266  -28.6532  -15.0738 C   0  0  2  0  0  0  0  0  0  0  0  0
   11.5855  -29.5976  -14.0231 C   0  0  0  0  0  0  0  0  0  0  0  0
   12.4220  -27.3261  -14.4215 C   0  0  2  0  0  0  0  0  0  0  0  0
   13.1674  -26.4519  -15.3319 N   0  0  0  0  0  0  0  0  0  0  0  0
   13.2306  -27.5646  -13.1998 C   0  0  0  0  0  0  0  0  0  0  0  0
   12.7493  -28.2646  -12.2812 O   0  0  0  0  0  0  0  0  0  0  0  0
   14.5129  -27.0120  -13.0830 N   0  0  0  0  0  0  0  0  0  0  0  0
   15.3058  -27.2612  -11.8641 C   0  0  1  0  0  0  0  0  0  0  0  0
   16.4810  -26.3242  -11.9542 C   0  0  0  0  0  0  0  0  0  0  0  0
   17.3536  -26.2789  -10.7853 C   0  0  0  0  0  0  0  0  0  0  0  0
   18.4688  -27.1020  -10.5326 C   0  0  0  0  0  0  0  0  0  0  0  0
   18.9972  -26.7914   -9.3552 N   0  0  0  0  0  0  0  0  0  0  0  0
   18.3063  -25.8038   -8.7923 C   0  0  0  0  0  0  0  0  0  0  0  0
   18.4426  -25.1215   -7.6137 C   0  0  0  0  0  0  0  0  0  0  0  0
   17.5898  -24.1011   -7.2551 C   0  0  0  0  0  0  0  0  0  0  0  0
   16.5853  -23.7811   -8.1216 C   0  0  0  0  0  0  0  0  0  0  0  0
   16.4147  -24.4398   -9.3097 C   0  0  0  0  0  0  0  0  0  0  0  0
   17.2782  -25.4665   -9.6619 C   0  0  0  0  0  0  0  0  0  0  0  0
   14.4493  -27.1046  -10.7065 C   0  0  0  0  0  0  0  0  0  0  0  0
   14.5296  -27.9997   -9.6477 O   0  0  0  0  0  0  0  0  0  0  0  0
   13.6236  -26.1834  -10.6124 O   0  0  0  0  0  0  0  0  0  0  0  0
  2  3  1  0
  2  1  1  0
  3  4  2  0
  6  5  1  0
  7  6  1  0
  7  9  1  0
  7  8  1  1
  9 10  1  6
 10  3  1  0
 11  9  1  0
 12 11  2  0
 13 11  1  0
 14 13  1  0
 14 25  1  0
 14 15  1  1
 16 15  1  0
 17 16  2  0
 18 17  1  0
 19 18  1  0
 19 24  2  0
 20 21  2  0
 20 19  1  0
 21 22  1  0
 22 23  2  0
 23 24  1  0
 24 16  1  0
 25 26  1  0
 27 25  2  0
M  END
$$$$
