GIW.pdb
     RDKit          3D

 27 28  0  0  1  0  0  0  0  0999 V2000
   29.2693  -23.8061  -16.5856 N   0  0  0  0  0  0  0  0  0  0  0  0
   27.9229  -23.7466  -16.0942 C   0  0  0  0  0  0  0  0  0  0  0  0
   27.7765  -22.5739  -15.2113 C   0  0  0  0  0  0  0  0  0  0  0  0
   28.7976  -21.8736  -14.9394 O   0  0  0  0  0  0  0  0  0  0  0  0
   24.7141  -18.7144  -16.4892 C   0  0  0  0  0  0  0  0  0  0  0  0
   25.7833  -19.5474  -15.8414 C   0  0  0  0  0  0  0  0  0  0  0  0
   25.3712  -20.0277  -14.4631 C   0  0  2  0  0  0  0  0  0  0  0  0
   25.1376  -18.8634  -13.5258 C   0  0  0  0  0  0  0  0  0  0  0  0
   26.4130  -20.9329  -13.8553 C   0  0  2  0  0  0  0  0  0  0  0  0
   26.5498  -22.1672  -14.6341 N   0  0  0  0  0  0  0  0  0  0  0  0
   26.0016  -21.2710  -12.4699 C   0  0  0  0  0  0  0  0  0  0  0  0
   25.0032  -22.0049  -12.2959 O   0  0  0  0  0  0  0  0  0  0  0  0
   26.7242  -20.7732  -11.3775 N   0  0  0  0  0  0  0  0  0  0  0  0
   26.2636  -21.0624  -10.0060 C   0  0  1  0  0  0  0  0  0  0  0  0
   27.4118  -20.6787   -9.1106 C   0  0  0  0  0  0  0  0  0  0  0  0
   27.0873  -20.4909   -7.7002 C   0  0  0  0  0  0  0  0  0  0  0  0
   25.8518  -20.7544   -7.0764 C   0  0  0  0  0  0  0  0  0  0  0  0
   25.9214  -20.4320   -5.7906 N   0  0  0  0  0  0  0  0  0  0  0  0
   27.1333  -19.9651   -5.5032 C   0  0  0  0  0  0  0  0  0  0  0  0
   27.7132  -19.5203   -4.3459 C   0  0  0  0  0  0  0  0  0  0  0  0
   29.0224  -19.0949   -4.2991 C   0  0  0  0  0  0  0  0  0  0  0  0
   29.7412  -19.1283   -5.4585 C   0  0  0  0  0  0  0  0  0  0  0  0
   29.1977  -19.5655   -6.6367 C   0  0  0  0  0  0  0  0  0  0  0  0
   27.8783  -19.9915   -6.6742 C   0  0  0  0  0  0  0  0  0  0  0  0
   25.0124  -20.3700   -9.7751 C   0  0  0  0  0  0  0  0  0  0  0  0
   23.9767  -20.9997   -9.0973 O   0  0  0  0  0  0  0  0  0  0  0  0
   24.8155  -19.2087  -10.1647 O   0  0  0  0  0  0  0  0  0  0  0  0
  2  3  1  0
  2  1  1  0
  3  4  2  0
  6  5  1  0
  7  6  1  0
  7  9  1  0
  7  8  1  1
  9 10  1  6
 10  3  1  0
 11  9  1  0
 12 11  2  0
 13 11  1  0
 14 13  1  0
 14 25  1  0
 14 15  1  1
 16 15  1  0
 17 16  2  0
 18 17  1  0
 19 18  1  0
 19 24  2  0
 20 21  2  0
 20 19  1  0
 21 22  1  0
 22 23  2  0
 23 24  1  0
 24 16  1  0
 25 26  1  0
 27 25  2  0
M  END
$$$$
