GIW.pdb
     RDKit          3D

 27 28  0  0  1  0  0  0  0  0999 V2000
   22.8221  -15.5010  -14.5953 N   0  0  0  0  0  0  0  0  0  0  0  0
   24.1453  -15.5114  -14.0414 C   0  0  0  0  0  0  0  0  0  0  0  0
   24.6531  -16.8962  -14.0154 C   0  0  0  0  0  0  0  0  0  0  0  0
   23.8529  -17.8524  -14.2441 O   0  0  0  0  0  0  0  0  0  0  0  0
   28.8862  -18.2528  -16.7288 C   0  0  0  0  0  0  0  0  0  0  0  0
   27.5898  -18.2429  -15.9699 C   0  0  0  0  0  0  0  0  0  0  0  0
   27.7613  -18.7403  -14.5474 C   0  0  2  0  0  0  0  0  0  0  0  0
   28.2130  -20.1839  -14.5238 C   0  0  0  0  0  0  0  0  0  0  0  0
   26.4806  -18.6241  -13.7597 C   0  0  2  0  0  0  0  0  0  0  0  0
   25.9998  -17.2394  -13.7472 N   0  0  0  0  0  0  0  0  0  0  0  0
   26.7359  -19.0665  -12.3661 C   0  0  0  0  0  0  0  0  0  0  0  0
   27.4333  -18.3447  -11.6189 O   0  0  0  0  0  0  0  0  0  0  0  0
   26.2012  -20.2748  -11.8998 N   0  0  0  0  0  0  0  0  0  0  0  0
   26.5606  -20.7598  -10.5536 C   0  0  1  0  0  0  0  0  0  0  0  0
   26.0040  -19.7366   -9.5994 C   0  0  0  0  0  0  0  0  0  0  0  0
   26.0807  -20.0760   -8.1821 C   0  0  0  0  0  0  0  0  0  0  0  0
   25.2229  -20.9409   -7.4741 C   0  0  0  0  0  0  0  0  0  0  0  0
   25.5811  -20.9800   -6.1965 N   0  0  0  0  0  0  0  0  0  0  0  0
   26.6336  -20.1921   -5.9943 C   0  0  0  0  0  0  0  0  0  0  0  0
   27.3811  -19.8971   -4.8863 C   0  0  0  0  0  0  0  0  0  0  0  0
   28.4613  -19.0441   -4.9373 C   0  0  0  0  0  0  0  0  0  0  0  0
   28.7739  -18.4892   -6.1441 C   0  0  0  0  0  0  0  0  0  0  0  0
   28.0510  -18.7582   -7.2754 C   0  0  0  0  0  0  0  0  0  0  0  0
   26.9644  -19.6180   -7.2141 C   0  0  0  0  0  0  0  0  0  0  0  0
   26.0721  -22.1144  -10.3966 C   0  0  0  0  0  0  0  0  0  0  0  0
   26.7808  -23.0317   -9.6319 O   0  0  0  0  0  0  0  0  0  0  0  0
   25.0214  -22.5060  -10.9274 O   0  0  0  0  0  0  0  0  0  0  0  0
  2  3  1  0
  2  1  1  0
  3  4  2  0
  6  5  1  0
  7  6  1  0
  7  9  1  0
  7  8  1  6
  9 10  1  1
 10  3  1  0
 11  9  1  0
 12 11  2  0
 13 11  1  0
 14 13  1  0
 14 25  1  0
 14 15  1  1
 16 15  1  0
 17 16  2  0
 18 17  1  0
 19 18  1  0
 19 24  2  0
 20 21  2  0
 20 19  1  0
 21 22  1  0
 22 23  2  0
 23 24  1  0
 24 16  1  0
 25 26  1  0
 27 25  2  0
M  END
$$$$
