GIW.pdb
     RDKit          3D

 27 28  0  0  1  0  0  0  0  0999 V2000
   30.3314  -17.4780  -18.0267 N   0  0  0  0  0  0  0  0  0  0  0  0
   29.4660  -18.5979  -17.7922 C   0  0  0  0  0  0  0  0  0  0  0  0
   28.7062  -18.3758  -16.5474 C   0  0  0  0  0  0  0  0  0  0  0  0
   29.2118  -17.6561  -15.6346 O   0  0  0  0  0  0  0  0  0  0  0  0
   24.3363  -15.9856  -16.4472 C   0  0  0  0  0  0  0  0  0  0  0  0
   25.6253  -16.6316  -16.0254 C   0  0  0  0  0  0  0  0  0  0  0  0
   25.3935  -17.9574  -15.3264 C   0  0  2  0  0  0  0  0  0  0  0  0
   24.6614  -17.7640  -14.0166 C   0  0  0  0  0  0  0  0  0  0  0  0
   26.6909  -18.6749  -15.0508 C   0  0  2  0  0  0  0  0  0  0  0  0
   27.4248  -18.9218  -16.2954 N   0  0  0  0  0  0  0  0  0  0  0  0
   26.3889  -19.9717  -14.3949 C   0  0  0  0  0  0  0  0  0  0  0  0
   25.8324  -20.8730  -15.0609 O   0  0  0  0  0  0  0  0  0  0  0  0
   26.7245  -20.1777  -13.0502 N   0  0  0  0  0  0  0  0  0  0  0  0
   26.5106  -21.5039  -12.4403 C   0  0  1  0  0  0  0  0  0  0  0  0
   27.4946  -21.5835  -11.3034 C   0  0  0  0  0  0  0  0  0  0  0  0
   27.0689  -20.9773  -10.0460 C   0  0  0  0  0  0  0  0  0  0  0  0
   25.7816  -20.4968   -9.7342 C   0  0  0  0  0  0  0  0  0  0  0  0
   25.7790  -19.9850   -8.5095 N   0  0  0  0  0  0  0  0  0  0  0  0
   26.9900  -20.0900   -7.9694 C   0  0  0  0  0  0  0  0  0  0  0  0
   27.5034  -19.7381   -6.7504 C   0  0  0  0  0  0  0  0  0  0  0  0
   28.8178  -19.9742   -6.4133 C   0  0  0  0  0  0  0  0  0  0  0  0
   29.6114  -20.5799   -7.3436 C   0  0  0  0  0  0  0  0  0  0  0  0
   29.1363  -20.9467   -8.5743 C   0  0  0  0  0  0  0  0  0  0  0  0
   27.8114  -20.7042   -8.9049 C   0  0  0  0  0  0  0  0  0  0  0  0
   25.1122  -21.6385  -12.0875 C   0  0  0  0  0  0  0  0  0  0  0  0
   24.5440  -22.8968  -11.9381 O   0  0  0  0  0  0  0  0  0  0  0  0
   24.3763  -20.6560  -11.9073 O   0  0  0  0  0  0  0  0  0  0  0  0
  2  3  1  0
  2  1  1  0
  3  4  2  0
  6  5  1  0
  7  6  1  0
  7  9  1  0
  7  8  1  1
  9 10  1  6
 10  3  1  0
 11  9  1  0
 12 11  2  0
 13 11  1  0
 14 13  1  0
 14 25  1  0
 14 15  1  1
 16 15  1  0
 17 16  2  0
 18 17  1  0
 19 18  1  0
 19 24  2  0
 20 21  2  0
 20 19  1  0
 21 22  1  0
 22 23  2  0
 23 24  1  0
 24 16  1  0
 25 26  1  0
 27 25  2  0
M  END
$$$$
