GIW.pdb
     RDKit          3D

 27 28  0  0  1  0  0  0  0  0999 V2000
   29.5462  -17.6629  -16.2112 N   0  0  0  0  0  0  0  0  0  0  0  0
   28.6323  -18.7685  -16.1977 C   0  0  0  0  0  0  0  0  0  0  0  0
   27.7739  -18.6780  -15.0014 C   0  0  0  0  0  0  0  0  0  0  0  0
   27.5238  -17.5389  -14.5047 O   0  0  0  0  0  0  0  0  0  0  0  0
   23.3520  -20.0732  -16.2856 C   0  0  0  0  0  0  0  0  0  0  0  0
   24.4923  -19.4737  -15.5130 C   0  0  0  0  0  0  0  0  0  0  0  0
   24.7946  -20.2557  -14.2491 C   0  0  2  0  0  0  0  0  0  0  0  0
   23.6130  -20.2460  -13.3046 C   0  0  0  0  0  0  0  0  0  0  0  0
   25.9942  -19.6989  -13.5245 C   0  0  2  0  0  0  0  0  0  0  0  0
   27.1977  -19.7980  -14.3555 N   0  0  0  0  0  0  0  0  0  0  0  0
   26.1975  -20.4723  -12.2740 C   0  0  0  0  0  0  0  0  0  0  0  0
   26.4367  -21.6980  -12.3512 O   0  0  0  0  0  0  0  0  0  0  0  0
   26.1217  -19.8340  -11.0290 N   0  0  0  0  0  0  0  0  0  0  0  0
   26.2286  -20.6321   -9.7928 C   0  0  1  0  0  0  0  0  0  0  0  0
   27.0183  -19.7800   -8.8349 C   0  0  0  0  0  0  0  0  0  0  0  0
   27.0342  -20.2269   -7.4458 C   0  0  0  0  0  0  0  0  0  0  0  0
   26.2389  -21.2411   -6.8766 C   0  0  0  0  0  0  0  0  0  0  0  0
   26.5070  -21.3466   -5.5809 N   0  0  0  0  0  0  0  0  0  0  0  0
   27.4396  -20.4631   -5.2355 C   0  0  0  0  0  0  0  0  0  0  0  0
   28.0650  -20.1790   -4.0516 C   0  0  0  0  0  0  0  0  0  0  0  0
   29.0352  -19.2065   -3.9507 C   0  0  0  0  0  0  0  0  0  0  0  0
   29.3638  -18.5195   -5.0829 C   0  0  0  0  0  0  0  0  0  0  0  0
   28.7612  -18.7731   -6.2860 C   0  0  0  0  0  0  0  0  0  0  0  0
   27.7848  -19.7539   -6.3778 C   0  0  0  0  0  0  0  0  0  0  0  0
   24.8988  -21.0136   -9.3637 C   0  0  0  0  0  0  0  0  0  0  0  0
   23.8049  -20.2172   -9.6764 O   0  0  0  0  0  0  0  0  0  0  0  0
   24.6834  -22.0468   -8.7115 O   0  0  0  0  0  0  0  0  0  0  0  0
  2  3  1  0
  2  1  1  0
  3  4  2  0
  6  5  1  0
  7  6  1  0
  7  9  1  0
  7  8  1  1
  9 10  1  6
 10  3  1  0
 11  9  1  0
 12 11  2  0
 13 11  1  0
 14 13  1  0
 14 25  1  0
 14 15  1  1
 16 15  1  0
 17 16  2  0
 18 17  1  0
 19 18  1  0
 19 24  2  0
 20 21  2  0
 20 19  1  0
 21 22  1  0
 22 23  2  0
 23 24  1  0
 24 16  1  0
 25 26  1  0
 27 25  2  0
M  END
$$$$
