GIW.pdb
     RDKit          3D

 27 28  0  0  1  0  0  0  0  0999 V2000
   29.8877  -23.6532  -17.6537 N   0  0  0  0  0  0  0  0  0  0  0  0
   28.9841  -22.5469  -17.7857 C   0  0  0  0  0  0  0  0  0  0  0  0
   28.9737  -21.7721  -16.5303 C   0  0  0  0  0  0  0  0  0  0  0  0
   30.0207  -21.1494  -16.1797 O   0  0  0  0  0  0  0  0  0  0  0  0
   27.1051  -16.7997  -15.2322 C   0  0  0  0  0  0  0  0  0  0  0  0
   27.1999  -18.1157  -14.5140 C   0  0  0  0  0  0  0  0  0  0  0  0
   27.4488  -19.2669  -15.4694 C   0  0  2  0  0  0  0  0  0  0  0  0
   26.2873  -19.4476  -16.4218 C   0  0  0  0  0  0  0  0  0  0  0  0
   27.6721  -20.5632  -14.7318 C   0  0  2  0  0  0  0  0  0  0  0  0
   27.8529  -21.6734  -15.6716 N   0  0  0  0  0  0  0  0  0  0  0  0
   26.4908  -20.8341  -13.8750 C   0  0  0  0  0  0  0  0  0  0  0  0
   25.4032  -21.1308  -14.4179 O   0  0  0  0  0  0  0  0  0  0  0  0
   26.5981  -20.7577  -12.4800 N   0  0  0  0  0  0  0  0  0  0  0  0
   25.5742  -21.3997  -11.6339 C   0  0  1  0  0  0  0  0  0  0  0  0
   26.3125  -21.8886  -10.4160 C   0  0  0  0  0  0  0  0  0  0  0  0
   26.4943  -20.9143   -9.3448 C   0  0  0  0  0  0  0  0  0  0  0  0
   25.6089  -19.8783   -8.9875 C   0  0  0  0  0  0  0  0  0  0  0  0
   26.1238  -19.1741   -7.9870 N   0  0  0  0  0  0  0  0  0  0  0  0
   27.3083  -19.6716   -7.6423 C   0  0  0  0  0  0  0  0  0  0  0  0
   28.2222  -19.3294   -6.6826 C   0  0  0  0  0  0  0  0  0  0  0  0
   29.3960  -20.0282   -6.5065 C   0  0  0  0  0  0  0  0  0  0  0  0
   29.6298  -21.0914   -7.3292 C   0  0  0  0  0  0  0  0  0  0  0  0
   28.7413  -21.4655   -8.3016 C   0  0  0  0  0  0  0  0  0  0  0  0
   27.5622  -20.7552   -8.4718 C   0  0  0  0  0  0  0  0  0  0  0  0
   24.5017  -20.4555  -11.3963 C   0  0  0  0  0  0  0  0  0  0  0  0
   23.2460  -20.9031  -11.0072 O   0  0  0  0  0  0  0  0  0  0  0  0
   24.6549  -19.2314  -11.5277 O   0  0  0  0  0  0  0  0  0  0  0  0
  2  3  1  0
  2  1  1  0
  3  4  2  0
  6  5  1  0
  7  6  1  0
  7  9  1  0
  7  8  1  6
  9 10  1  6
 10  3  1  0
 11  9  1  0
 12 11  2  0
 13 11  1  0
 14 13  1  0
 14 25  1  0
 14 15  1  1
 16 15  1  0
 17 16  2  0
 18 17  1  0
 19 18  1  0
 19 24  2  0
 20 21  2  0
 20 19  1  0
 21 22  1  0
 22 23  2  0
 23 24  1  0
 24 16  1  0
 25 26  1  0
 27 25  2  0
M  END
$$$$
