GIW.pdb
     RDKit          3D

 27 28  0  0  1  0  0  0  0  0999 V2000
   22.5538  -14.4942  -16.2032 N   0  0  0  0  0  0  0  0  0  0  0  0
   23.4303  -14.8807  -15.1354 C   0  0  0  0  0  0  0  0  0  0  0  0
   24.0339  -16.1899  -15.4486 C   0  0  0  0  0  0  0  0  0  0  0  0
   23.3053  -17.2270  -15.4293 O   0  0  0  0  0  0  0  0  0  0  0  0
   28.5098  -16.7871  -18.7473 C   0  0  0  0  0  0  0  0  0  0  0  0
   27.1859  -16.9126  -18.0485 C   0  0  0  0  0  0  0  0  0  0  0  0
   27.3203  -17.5813  -16.6939 C   0  0  2  0  0  0  0  0  0  0  0  0
   27.9182  -18.9649  -16.8244 C   0  0  0  0  0  0  0  0  0  0  0  0
   25.9884  -17.6967  -15.9962 C   0  0  2  0  0  0  0  0  0  0  0  0
   25.3987  -16.3729  -15.7759 N   0  0  0  0  0  0  0  0  0  0  0  0
   26.1920  -18.3662  -14.6873 C   0  0  0  0  0  0  0  0  0  0  0  0
   26.6665  -17.7063  -13.7360 O   0  0  0  0  0  0  0  0  0  0  0  0
   25.8557  -19.7167  -14.5253 N   0  0  0  0  0  0  0  0  0  0  0  0
   25.9730  -20.3426  -13.1945 C   0  0  1  0  0  0  0  0  0  0  0  0
   25.1527  -19.4787  -12.2737 C   0  0  0  0  0  0  0  0  0  0  0  0
   25.0413  -19.9409  -10.8939 C   0  0  0  0  0  0  0  0  0  0  0  0
   26.0664  -19.9674   -9.9277 C   0  0  0  0  0  0  0  0  0  0  0  0
   25.6021  -20.4826   -8.7960 N   0  0  0  0  0  0  0  0  0  0  0  0
   24.3198  -20.8077   -8.9359 C   0  0  0  0  0  0  0  0  0  0  0  0
   23.3939  -21.3464   -8.0840 C   0  0  0  0  0  0  0  0  0  0  0  0
   22.0916  -21.5772   -8.4685 C   0  0  0  0  0  0  0  0  0  0  0  0
   21.7405  -21.2489   -9.7456 C   0  0  0  0  0  0  0  0  0  0  0  0
   22.6370  -20.7088  -10.6284 C   0  0  0  0  0  0  0  0  0  0  0  0
   23.9464  -20.4805  -10.2323 C   0  0  0  0  0  0  0  0  0  0  0  0
   25.5753  -21.7320  -13.2922 C   0  0  0  0  0  0  0  0  0  0  0  0
   26.0413  -22.6619  -12.3720 O   0  0  0  0  0  0  0  0  0  0  0  0
   24.8170  -22.1435  -14.1838 O   0  0  0  0  0  0  0  0  0  0  0  0
  2  3  1  0
  2  1  1  0
  3  4  2  0
  6  5  1  0
  7  6  1  0
  7  9  1  0
  7  8  1  6
  9 10  1  1
 10  3  1  0
 11  9  1  0
 12 11  2  0
 13 11  1  0
 14 13  1  0
 14 25  1  0
 14 15  1  1
 16 15  1  0
 17 16  2  0
 18 17  1  0
 19 18  1  0
 19 24  2  0
 20 21  2  0
 20 19  1  0
 21 22  1  0
 22 23  2  0
 23 24  1  0
 24 16  1  0
 25 26  1  0
 27 25  2  0
M  END
$$$$
