GIW.pdb
     RDKit          3D

 27 28  0  0  1  0  0  0  0  0999 V2000
   30.2915  -23.4125  -17.0999 N   0  0  0  0  0  0  0  0  0  0  0  0
   29.1287  -22.6032  -17.3251 C   0  0  0  0  0  0  0  0  0  0  0  0
   28.8424  -21.8116  -16.1135 C   0  0  0  0  0  0  0  0  0  0  0  0
   29.5964  -21.9351  -15.1020 O   0  0  0  0  0  0  0  0  0  0  0  0
   28.0505  -16.7289  -16.6921 C   0  0  0  0  0  0  0  0  0  0  0  0
   28.4337  -18.0222  -16.0309 C   0  0  0  0  0  0  0  0  0  0  0  0
   27.2810  -18.6236  -15.2500 C   0  0  2  0  0  0  0  0  0  0  0  0
   26.9734  -17.8072  -14.0140 C   0  0  0  0  0  0  0  0  0  0  0  0
   27.5745  -20.0416  -14.8291 C   0  0  2  0  0  0  0  0  0  0  0  0
   27.7618  -20.9046  -15.9990 N   0  0  0  0  0  0  0  0  0  0  0  0
   26.4332  -20.5466  -14.0257 C   0  0  0  0  0  0  0  0  0  0  0  0
   25.3514  -20.7997  -14.6012 O   0  0  0  0  0  0  0  0  0  0  0  0
   26.5711  -20.7354  -12.6441 N   0  0  0  0  0  0  0  0  0  0  0  0
   25.5163  -21.4459  -11.8965 C   0  0  1  0  0  0  0  0  0  0  0  0
   26.1830  -21.9434  -10.6415 C   0  0  0  0  0  0  0  0  0  0  0  0
   26.3092  -20.9745   -9.5575 C   0  0  0  0  0  0  0  0  0  0  0  0
   25.3392  -20.0400   -9.1441 C   0  0  0  0  0  0  0  0  0  0  0  0
   25.8208  -19.3048   -8.1494 N   0  0  0  0  0  0  0  0  0  0  0  0
   27.0624  -19.6855   -7.8614 C   0  0  0  0  0  0  0  0  0  0  0  0
   27.9754  -19.2692   -6.9306 C   0  0  0  0  0  0  0  0  0  0  0  0
   29.2197  -19.8484   -6.8149 C   0  0  0  0  0  0  0  0  0  0  0  0
   29.5257  -20.8680   -7.6687 C   0  0  0  0  0  0  0  0  0  0  0  0
   28.6407  -21.3132   -8.6138 C   0  0  0  0  0  0  0  0  0  0  0  0
   27.3902  -20.7233   -8.7231 C   0  0  0  0  0  0  0  0  0  0  0  0
   24.3894  -20.5545  -11.7126 C   0  0  0  0  0  0  0  0  0  0  0  0
   23.1203  -21.0670  -11.4769 O   0  0  0  0  0  0  0  0  0  0  0  0
   24.5062  -19.3202  -11.7571 O   0  0  0  0  0  0  0  0  0  0  0  0
  2  3  1  0
  2  1  1  0
  3  4  2  0
  6  5  1  0
  7  6  1  0
  7  9  1  0
  7  8  1  1
  9 10  1  6
 10  3  1  0
 11  9  1  0
 12 11  2  0
 13 11  1  0
 14 13  1  0
 14 25  1  0
 14 15  1  1
 16 15  1  0
 17 16  2  0
 18 17  1  0
 19 18  1  0
 19 24  2  0
 20 21  2  0
 20 19  1  0
 21 22  1  0
 22 23  2  0
 23 24  1  0
 24 16  1  0
 25 26  1  0
 27 25  2  0
M  END
$$$$
