GIW.pdb
     RDKit          3D

 27 28  0  0  1  0  0  0  0  0999 V2000
   11.7047  -16.5800    2.6302 N   0  0  0  0  0  0  0  0  0  0  0  0
   12.7598  -17.3040    1.9818 C   0  0  0  0  0  0  0  0  0  0  0  0
   13.6300  -17.9179    3.0026 C   0  0  0  0  0  0  0  0  0  0  0  0
   13.4288  -17.6541    4.2261 O   0  0  0  0  0  0  0  0  0  0  0  0
   15.8399  -22.8717    2.3375 C   0  0  0  0  0  0  0  0  0  0  0  0
   15.2350  -21.6786    3.0209 C   0  0  0  0  0  0  0  0  0  0  0  0
   16.2614  -20.5928    3.2811 C   0  0  2  0  0  0  0  0  0  0  0  0
   17.2583  -21.0241    4.3342 C   0  0  0  0  0  0  0  0  0  0  0  0
   15.6108  -19.3091    3.7317 C   0  0  2  0  0  0  0  0  0  0  0  0
   14.6966  -18.7997    2.7054 N   0  0  0  0  0  0  0  0  0  0  0  0
   16.6702  -18.3016    3.9876 C   0  0  0  0  0  0  0  0  0  0  0  0
   17.4721  -18.0184    3.0699 O   0  0  0  0  0  0  0  0  0  0  0  0
   16.7657  -17.6801    5.2398 N   0  0  0  0  0  0  0  0  0  0  0  0
   17.8568  -16.7209    5.4963 C   0  0  1  0  0  0  0  0  0  0  0  0
   17.1746  -15.4278    5.8566 C   0  0  0  0  0  0  0  0  0  0  0  0
   17.9026  -14.2071    5.5255 C   0  0  0  0  0  0  0  0  0  0  0  0
   17.6813  -13.3675    4.4160 C   0  0  0  0  0  0  0  0  0  0  0  0
   18.5571  -12.3701    4.4272 N   0  0  0  0  0  0  0  0  0  0  0  0
   19.3613  -12.4821    5.4809 C   0  0  0  0  0  0  0  0  0  0  0  0
   20.3988  -11.7223    5.9497 C   0  0  0  0  0  0  0  0  0  0  0  0
   21.0799  -12.0442    7.1028 C   0  0  0  0  0  0  0  0  0  0  0  0
   20.6869  -13.1620    7.7796 C   0  0  0  0  0  0  0  0  0  0  0  0
   19.6546  -13.9488    7.3435 C   0  0  0  0  0  0  0  0  0  0  0  0
   18.9750  -13.6169    6.1808 C   0  0  0  0  0  0  0  0  0  0  0  0
   18.7451  -17.2765    6.4964 C   0  0  0  0  0  0  0  0  0  0  0  0
   20.0916  -16.9366    6.5058 O   0  0  0  0  0  0  0  0  0  0  0  0
   18.3502  -18.0640    7.3700 O   0  0  0  0  0  0  0  0  0  0  0  0
  2  3  1  0
  2  1  1  0
  3  4  2  0
  6  5  1  0
  7  6  1  0
  7  9  1  0
  7  8  1  1
  9 10  1  6
 10  3  1  0
 11  9  1  0
 12 11  2  0
 13 11  1  0
 14 13  1  0
 14 25  1  0
 14 15  1  1
 16 15  1  0
 17 16  2  0
 18 17  1  0
 19 18  1  0
 19 24  2  0
 20 21  2  0
 20 19  1  0
 21 22  1  0
 22 23  2  0
 23 24  1  0
 24 16  1  0
 25 26  1  0
 27 25  2  0
M  END
$$$$
