GIW.pdb
     RDKit          3D

 27 28  0  0  1  0  0  0  0  0999 V2000
   28.3671  -24.5933  -16.6390 N   0  0  0  0  0  0  0  0  0  0  0  0
   27.2757  -23.6754  -16.4840 C   0  0  0  0  0  0  0  0  0  0  0  0
   27.6584  -22.6182  -15.5290 C   0  0  0  0  0  0  0  0  0  0  0  0
   28.6653  -22.7968  -14.7799 O   0  0  0  0  0  0  0  0  0  0  0  0
   27.3527  -17.3949  -16.8389 C   0  0  0  0  0  0  0  0  0  0  0  0
   27.8342  -18.6578  -16.1832 C   0  0  0  0  0  0  0  0  0  0  0  0
   27.0397  -18.9871  -14.9340 C   0  0  2  0  0  0  0  0  0  0  0  0
   27.3109  -17.9848  -13.8338 C   0  0  0  0  0  0  0  0  0  0  0  0
   27.3620  -20.3669  -14.4178 C   0  0  2  0  0  0  0  0  0  0  0  0
   26.9652  -21.3922  -15.3873 N   0  0  0  0  0  0  0  0  0  0  0  0
   26.6273  -20.5844  -13.1467 C   0  0  0  0  0  0  0  0  0  0  0  0
   25.3935  -20.7886  -13.1867 O   0  0  0  0  0  0  0  0  0  0  0  0
   27.3104  -20.5606  -11.9235 N   0  0  0  0  0  0  0  0  0  0  0  0
   26.5777  -20.8399  -10.6738 C   0  0  1  0  0  0  0  0  0  0  0  0
   27.6206  -20.8236   -9.5878 C   0  0  0  0  0  0  0  0  0  0  0  0
   27.1212  -20.6806   -8.2241 C   0  0  0  0  0  0  0  0  0  0  0  0
   25.7848  -20.8101   -7.7971 C   0  0  0  0  0  0  0  0  0  0  0  0
   25.7072  -20.5806   -6.4920 N   0  0  0  0  0  0  0  0  0  0  0  0
   26.9139  -20.3030   -6.0060 C   0  0  0  0  0  0  0  0  0  0  0  0
   27.3713  -20.0146   -4.7486 C   0  0  0  0  0  0  0  0  0  0  0  0
   28.7031  -19.7765   -4.4903 C   0  0  0  0  0  0  0  0  0  0  0  0
   29.5726  -19.8365   -5.5402 C   0  0  0  0  0  0  0  0  0  0  0  0
   29.1550  -20.1212   -6.8127 C   0  0  0  0  0  0  0  0  0  0  0  0
   27.8117  -20.3589   -7.0632 C   0  0  0  0  0  0  0  0  0  0  0  0
   25.4978  -19.8840  -10.5389 C   0  0  0  0  0  0  0  0  0  0  0  0
   25.7200  -18.5350  -10.7832 O   0  0  0  0  0  0  0  0  0  0  0  0
   24.3513  -20.2214  -10.2059 O   0  0  0  0  0  0  0  0  0  0  0  0
  2  3  1  0
  2  1  1  0
  3  4  2  0
  6  5  1  0
  7  6  1  0
  7  9  1  0
  7  8  1  1
  9 10  1  6
 10  3  1  0
 11  9  1  0
 12 11  2  0
 13 11  1  0
 14 13  1  0
 14 25  1  0
 14 15  1  1
 16 15  1  0
 17 16  2  0
 18 17  1  0
 19 18  1  0
 19 24  2  0
 20 21  2  0
 20 19  1  0
 21 22  1  0
 22 23  2  0
 23 24  1  0
 24 16  1  0
 25 26  1  0
 27 25  2  0
M  END
$$$$
