GIW.pdb
     RDKit          3D

 27 28  0  0  1  0  0  0  0  0999 V2000
   31.1555  -22.1882  -10.7862 N   0  0  0  0  0  0  0  0  0  0  0  0
   30.6431  -20.9315  -10.3215 C   0  0  0  0  0  0  0  0  0  0  0  0
   29.4494  -21.1689   -9.4878 C   0  0  0  0  0  0  0  0  0  0  0  0
   28.7029  -22.1605   -9.7453 O   0  0  0  0  0  0  0  0  0  0  0  0
   29.0610  -19.5660   -4.2185 C   0  0  0  0  0  0  0  0  0  0  0  0
   28.9767  -20.2896   -5.5322 C   0  0  0  0  0  0  0  0  0  0  0  0
   27.8078  -19.8094   -6.3707 C   0  0  2  0  0  0  0  0  0  0  0  0
   26.4911  -20.0696   -5.6726 C   0  0  0  0  0  0  0  0  0  0  0  0
   27.7780  -20.4820   -7.7201 C   0  0  2  0  0  0  0  0  0  0  0  0
   29.0712  -20.3496   -8.3974 N   0  0  0  0  0  0  0  0  0  0  0  0
   26.7240  -19.8441   -8.5479 C   0  0  0  0  0  0  0  0  0  0  0  0
   26.9270  -18.7000   -9.0120 O   0  0  0  0  0  0  0  0  0  0  0  0
   25.5221  -20.5179   -8.8025 N   0  0  0  0  0  0  0  0  0  0  0  0
   24.8250  -20.3055  -10.0853 C   0  0  1  0  0  0  0  0  0  0  0  0
   25.7885  -20.7707  -11.1447 C   0  0  0  0  0  0  0  0  0  0  0  0
   25.2631  -20.8302  -12.5049 C   0  0  0  0  0  0  0  0  0  0  0  0
   24.8600  -19.7406  -13.3020 C   0  0  0  0  0  0  0  0  0  0  0  0
   24.4070  -20.1826  -14.4688 N   0  0  0  0  0  0  0  0  0  0  0  0
   24.4793  -21.5101  -14.5121 C   0  0  0  0  0  0  0  0  0  0  0  0
   24.1609  -22.4326  -15.4718 C   0  0  0  0  0  0  0  0  0  0  0  0
   24.3495  -23.7835  -15.2806 C   0  0  0  0  0  0  0  0  0  0  0  0
   24.8721  -24.1874  -14.0865 C   0  0  0  0  0  0  0  0  0  0  0  0
   25.2030  -23.2965  -13.1009 C   0  0  0  0  0  0  0  0  0  0  0  0
   25.0088  -21.9380  -13.3024 C   0  0  0  0  0  0  0  0  0  0  0  0
   23.5451  -20.9825  -10.0419 C   0  0  0  0  0  0  0  0  0  0  0  0
   22.4506  -20.4581  -10.7169 O   0  0  0  0  0  0  0  0  0  0  0  0
   23.3744  -22.0381   -9.4128 O   0  0  0  0  0  0  0  0  0  0  0  0
  2  3  1  0
  2  1  1  0
  3  4  2  0
  6  5  1  0
  7  6  1  0
  7  9  1  0
  7  8  1  1
  9 10  1  6
 10  3  1  0
 11  9  1  0
 12 11  2  0
 13 11  1  0
 14 13  1  0
 14 25  1  0
 14 15  1  6
 16 15  1  0
 17 16  2  0
 18 17  1  0
 19 18  1  0
 19 24  2  0
 20 21  2  0
 20 19  1  0
 21 22  1  0
 22 23  2  0
 23 24  1  0
 24 16  1  0
 25 26  1  0
 27 25  2  0
M  END
$$$$
