TCP.pdb
     RDKit          3D

 21 21  0  0  1  0  0  0  0  0999 V2000
   27.6324  -12.3515  -15.6543 C   0  0  0  0  0  0  0  0  0  0  0  0
   26.5092  -11.4175  -16.0438 C   0  0  1  0  0  0  0  0  0  0  0  0
   26.8014  -10.7999  -17.2597 O   0  0  0  0  0  0  0  0  0  0  0  0
   25.2342  -12.2397  -16.1810 C   0  0  2  0  0  0  0  0  0  0  0  0
   25.4817  -13.2878  -17.1377 N   0  0  0  0  0  0  0  0  0  0  0  0
   24.1081  -11.3689  -16.6217 C   0  0  0  0  0  0  0  0  0  0  0  0
   23.4877  -11.7277  -17.6504 O   0  0  0  0  0  0  0  0  0  0  0  0
   23.7975  -10.2057  -15.8781 N   0  0  0  0  0  0  0  0  0  0  0  0
   22.5559   -9.5054  -16.0946 C   0  0  1  0  0  0  0  0  0  0  0  0
   21.4552  -10.4601  -15.7751 C   0  0  0  0  0  0  0  0  0  0  0  0
   19.9212   -9.4520  -15.6619 S   0  0  0  0  0  0  0  0  0  0  0  0
   22.5257   -8.2267  -15.3316 C   0  0  0  0  0  0  0  0  0  0  0  0
   22.3795   -8.3611  -14.0973 O   0  0  0  0  0  0  0  0  0  0  0  0
   22.6501   -6.9695  -15.9295 N   0  0  0  0  0  0  0  0  0  0  0  0
   22.9875   -6.6884  -17.3464 C   0  0  0  0  0  0  0  0  0  0  0  0
   21.9279   -5.6821  -17.7194 C   0  0  0  0  0  0  0  0  0  0  0  0
   21.4046   -5.1327  -16.4077 C   0  0  0  0  0  0  0  0  0  0  0  0
   22.4889   -5.6443  -15.4398 C   0  0  1  0  0  0  0  0  0  0  0  0
   22.1538   -5.3816  -14.0662 C   0  0  0  0  0  0  0  0  0  0  0  0
   21.1935   -6.2522  -13.4586 O   0  0  0  0  0  0  0  0  0  0  0  0
   22.5725   -4.5038  -13.3096 O   0  0  0  0  0  0  0  0  0  0  0  0
  2  3  1  0
  2  1  1  6
  4  2  1  0
  4  5  1  6
  6  4  1  0
  6  8  1  0
  7  6  2  0
  9  8  1  0
  9 12  1  0
  9 10  1  1
 11 10  1  0
 12 14  1  0
 12 13  2  0
 14 15  1  0
 16 15  1  0
 17 16  1  0
 18 17  1  0
 18 14  1  0
 18 19  1  1
 19 20  1  0
 21 19  2  0
M  END
$$$$
