TCP.pdb
     RDKit          3D

 21 21  0  0  1  0  0  0  0  0999 V2000
   25.8226  -20.1289   -9.8983 C   0  0  0  0  0  0  0  0  0  0  0  0
   24.6489  -20.8156   -9.2376 C   0  0  1  0  0  0  0  0  0  0  0  0
   24.5983  -20.4797   -7.8850 O   0  0  0  0  0  0  0  0  0  0  0  0
   23.3746  -20.3478   -9.9289 C   0  0  2  0  0  0  0  0  0  0  0  0
   22.2519  -20.8709   -9.1935 N   0  0  0  0  0  0  0  0  0  0  0  0
   23.3551  -20.8207  -11.3418 C   0  0  0  0  0  0  0  0  0  0  0  0
   23.2171  -22.0539  -11.5213 O   0  0  0  0  0  0  0  0  0  0  0  0
   23.4899  -19.8806  -12.3909 N   0  0  0  0  0  0  0  0  0  0  0  0
   23.5170  -20.3134  -13.7659 C   0  0  1  0  0  0  0  0  0  0  0  0
   22.1312  -20.1644  -14.2975 C   0  0  0  0  0  0  0  0  0  0  0  0
   22.2097  -20.6447  -16.0710 S   0  0  0  0  0  0  0  0  0  0  0  0
   24.5695  -19.5894  -14.5315 C   0  0  0  0  0  0  0  0  0  0  0  0
   24.1906  -18.5162  -15.0489 O   0  0  0  0  0  0  0  0  0  0  0  0
   25.8796  -20.0559  -14.6705 N   0  0  0  0  0  0  0  0  0  0  0  0
   26.5589  -21.0647  -13.8212 C   0  0  0  0  0  0  0  0  0  0  0  0
   27.1572  -21.9836  -14.8567 C   0  0  0  0  0  0  0  0  0  0  0  0
   27.1831  -21.1868  -16.1455 C   0  0  0  0  0  0  0  0  0  0  0  0
   26.9154  -19.7701  -15.6018 C   0  0  1  0  0  0  0  0  0  0  0  0
   26.7383  -18.8110  -16.6586 C   0  0  0  0  0  0  0  0  0  0  0  0
   25.5858  -18.9747  -17.4918 O   0  0  0  0  0  0  0  0  0  0  0  0
   27.4387  -17.8459  -16.9689 O   0  0  0  0  0  0  0  0  0  0  0  0
  2  3  1  0
  2  1  1  6
  4  2  1  0
  4  5  1  1
  6  4  1  0
  6  8  1  0
  7  6  2  0
  9  8  1  0
  9 12  1  0
  9 10  1  6
 11 10  1  0
 12 14  1  0
 12 13  2  0
 14 15  1  0
 16 15  1  0
 17 16  1  0
 18 17  1  0
 18 14  1  0
 18 19  1  6
 19 20  1  0
 21 19  2  0
M  END
$$$$
