TCP.pdb
     RDKit          3D

 21 21  0  0  1  0  0  0  0  0999 V2000
   20.6388   -9.8181  -19.7623 C   0  0  0  0  0  0  0  0  0  0  0  0
   20.1161  -11.1974  -19.4309 C   0  0  1  0  0  0  0  0  0  0  0  0
   20.2453  -12.0359  -20.5378 O   0  0  0  0  0  0  0  0  0  0  0  0
   20.9361  -11.7500  -18.2721 C   0  0  2  0  0  0  0  0  0  0  0  0
   20.5279  -13.1133  -18.0487 N   0  0  0  0  0  0  0  0  0  0  0  0
   20.7222  -10.9214  -17.0522 C   0  0  0  0  0  0  0  0  0  0  0  0
   19.5749  -10.9478  -16.5473 O   0  0  0  0  0  0  0  0  0  0  0  0
   21.7964  -10.1613  -16.5317 N   0  0  0  0  0  0  0  0  0  0  0  0
   21.6169   -9.3447  -15.3571 C   0  0  1  0  0  0  0  0  0  0  0  0
   22.4652   -9.9351  -14.2816 C   0  0  0  0  0  0  0  0  0  0  0  0
   22.2176   -8.8779  -12.7972 S   0  0  0  0  0  0  0  0  0  0  0  0
   21.8851   -7.9111  -15.6591 C   0  0  0  0  0  0  0  0  0  0  0  0
   23.0735   -7.6548  -15.9507 O   0  0  0  0  0  0  0  0  0  0  0  0
   20.9010   -6.9193  -15.6252 N   0  0  0  0  0  0  0  0  0  0  0  0
   19.4652   -7.0796  -15.9618 C   0  0  0  0  0  0  0  0  0  0  0  0
   18.7986   -6.4138  -14.7842 C   0  0  0  0  0  0  0  0  0  0  0  0
   19.8625   -5.5398  -14.1513 C   0  0  0  0  0  0  0  0  0  0  0  0
   20.9251   -5.5434  -15.2672 C   0  0  1  0  0  0  0  0  0  0  0  0
   22.1391   -4.8898  -14.8586 C   0  0  0  0  0  0  0  0  0  0  0  0
   22.9119   -5.5402  -13.8442 O   0  0  0  0  0  0  0  0  0  0  0  0
   22.6327   -3.8318  -15.2529 O   0  0  0  0  0  0  0  0  0  0  0  0
  2  3  1  0
  2  1  1  6
  4  2  1  0
  4  5  1  1
  6  4  1  0
  6  8  1  0
  7  6  2  0
  9  8  1  0
  9 12  1  0
  9 10  1  1
 11 10  1  0
 12 14  1  0
 12 13  2  0
 14 15  1  0
 16 15  1  0
 17 16  1  0
 18 17  1  0
 18 14  1  0
 18 19  1  1
 19 20  1  0
 21 19  2  0
M  END
$$$$
