TCP.pdb
     RDKit          3D

 21 21  0  0  1  0  0  0  0  0999 V2000
   15.8596  -24.6959    0.2269 C   0  0  0  0  0  0  0  0  0  0  0  0
   15.5659  -24.4266   -1.2315 C   0  0  1  0  0  0  0  0  0  0  0  0
   15.6324  -25.6143   -1.9594 O   0  0  0  0  0  0  0  0  0  0  0  0
   14.1628  -23.8423   -1.3331 C   0  0  2  0  0  0  0  0  0  0  0  0
   13.8303  -23.7239   -2.7297 N   0  0  0  0  0  0  0  0  0  0  0  0
   14.1103  -22.5154   -0.6570 C   0  0  0  0  0  0  0  0  0  0  0  0
   13.7009  -21.5492   -1.3432 O   0  0  0  0  0  0  0  0  0  0  0  0
   14.5146  -22.4082    0.6949 N   0  0  0  0  0  0  0  0  0  0  0  0
   14.2287  -21.2167    1.4547 C   0  0  1  0  0  0  0  0  0  0  0  0
   12.7496  -21.0261    1.4270 C   0  0  0  0  0  0  0  0  0  0  0  0
   12.3774  -19.7325    2.6802 S   0  0  0  0  0  0  0  0  0  0  0  0
   14.8312  -21.2949    2.8145 C   0  0  0  0  0  0  0  0  0  0  0  0
   14.3012  -22.1381    3.5702 O   0  0  0  0  0  0  0  0  0  0  0  0
   15.9025  -20.4990    3.2296 N   0  0  0  0  0  0  0  0  0  0  0  0
   16.7400  -19.6204    2.3769 C   0  0  0  0  0  0  0  0  0  0  0  0
   16.7460  -18.3385    3.1713 C   0  0  0  0  0  0  0  0  0  0  0  0
   16.3410  -18.7269    4.5790 C   0  0  0  0  0  0  0  0  0  0  0  0
   16.4945  -20.2581    4.4998 C   0  0  1  0  0  0  0  0  0  0  0  0
   16.0205  -20.9103    5.6905 C   0  0  0  0  0  0  0  0  0  0  0  0
   14.6014  -20.9873    5.8626 O   0  0  0  0  0  0  0  0  0  0  0  0
   16.6579  -21.4267    6.6100 O   0  0  0  0  0  0  0  0  0  0  0  0
  2  3  1  0
  2  1  1  1
  4  2  1  0
  4  5  1  6
  6  4  1  0
  6  8  1  0
  7  6  2  0
  9  8  1  0
  9 12  1  0
  9 10  1  1
 11 10  1  0
 12 14  1  0
 12 13  2  0
 14 15  1  0
 16 15  1  0
 17 16  1  0
 18 17  1  0
 18 14  1  0
 18 19  1  1
 19 20  1  0
 21 19  2  0
M  END
$$$$
