TCP.pdb
     RDKit          3D

 21 21  0  0  1  0  0  0  0  0999 V2000
   20.8842  -18.5341  -14.4829 C   0  0  0  0  0  0  0  0  0  0  0  0
   19.8636  -18.8950  -13.4274 C   0  0  1  0  0  0  0  0  0  0  0  0
   18.6332  -18.3145  -13.7342 O   0  0  0  0  0  0  0  0  0  0  0  0
   19.7218  -20.4116  -13.4032 C   0  0  2  0  0  0  0  0  0  0  0  0
   18.7904  -20.7545  -12.3592 N   0  0  0  0  0  0  0  0  0  0  0  0
   21.0488  -21.0464  -13.1652 C   0  0  0  0  0  0  0  0  0  0  0  0
   21.3995  -21.1874  -11.9698 O   0  0  0  0  0  0  0  0  0  0  0  0
   21.8335  -21.4511  -14.2711 N   0  0  0  0  0  0  0  0  0  0  0  0
   23.1227  -22.0651  -14.0714 C   0  0  1  0  0  0  0  0  0  0  0  0
   22.9738  -23.5109  -14.4065 C   0  0  0  0  0  0  0  0  0  0  0  0
   24.6484  -24.2510  -14.2322 S   0  0  0  0  0  0  0  0  0  0  0  0
   24.1796  -21.3444  -14.8341 C   0  0  0  0  0  0  0  0  0  0  0  0
   23.9213  -21.1731  -16.0453 O   0  0  0  0  0  0  0  0  0  0  0  0
   25.3693  -20.8886  -14.2595 N   0  0  0  0  0  0  0  0  0  0  0  0
   25.6614  -20.7501  -12.8118 C   0  0  0  0  0  0  0  0  0  0  0  0
   27.0075  -21.4218  -12.7056 C   0  0  0  0  0  0  0  0  0  0  0  0
   27.5647  -21.4480  -14.1146 C   0  0  0  0  0  0  0  0  0  0  0  0
   26.6083  -20.4600  -14.8100 C   0  0  1  0  0  0  0  0  0  0  0  0
   26.8264  -20.4070  -16.2304 C   0  0  0  0  0  0  0  0  0  0  0  0
   27.3275  -19.1754  -16.7607 O   0  0  0  0  0  0  0  0  0  0  0  0
   26.6458  -21.2755  -17.0858 O   0  0  0  0  0  0  0  0  0  0  0  0
  2  3  1  0
  2  1  1  6
  4  2  1  0
  4  5  1  1
  6  4  1  0
  6  8  1  0
  7  6  2  0
  9  8  1  0
  9 12  1  0
  9 10  1  6
 11 10  1  0
 12 14  1  0
 12 13  2  0
 14 15  1  0
 16 15  1  0
 17 16  1  0
 18 17  1  0
 18 14  1  0
 18 19  1  6
 19 20  1  0
 21 19  2  0
M  END
$$$$
