TCP.pdb
     RDKit          3D

 21 21  0  0  1  0  0  0  0  0999 V2000
   32.4017  -26.0419  -18.5501 C   0  0  0  0  0  0  0  0  0  0  0  0
   33.0041  -26.1116  -17.1652 C   0  0  1  0  0  0  0  0  0  0  0  0
   34.2771  -25.5420  -17.1687 O   0  0  0  0  0  0  0  0  0  0  0  0
   32.0998  -25.3373  -16.2148 C   0  0  2  0  0  0  0  0  0  0  0  0
   32.7291  -25.3177  -14.9191 N   0  0  0  0  0  0  0  0  0  0  0  0
   30.7573  -25.9804  -16.1471 C   0  0  0  0  0  0  0  0  0  0  0  0
   30.5745  -26.8069  -15.2223 O   0  0  0  0  0  0  0  0  0  0  0  0
   29.7740  -25.6380  -17.1055 N   0  0  0  0  0  0  0  0  0  0  0  0
   28.4338  -26.1594  -17.0012 C   0  0  1  0  0  0  0  0  0  0  0  0
   27.5661  -25.0411  -16.5307 C   0  0  0  0  0  0  0  0  0  0  0  0
   25.8783  -25.7475  -16.3443 S   0  0  0  0  0  0  0  0  0  0  0  0
   28.0089  -26.7953  -18.2792 C   0  0  0  0  0  0  0  0  0  0  0  0
   27.8388  -25.9967  -19.2258 O   0  0  0  0  0  0  0  0  0  0  0  0
   27.8121  -28.1711  -18.4272 N   0  0  0  0  0  0  0  0  0  0  0  0
   28.4427  -29.2503  -17.6284 C   0  0  0  0  0  0  0  0  0  0  0  0
   27.2513  -30.1041  -17.2731 C   0  0  0  0  0  0  0  0  0  0  0  0
   26.1674  -29.7272  -18.2629 C   0  0  0  0  0  0  0  0  0  0  0  0
   26.9970  -28.9443  -19.2988 C   0  0  1  0  0  0  0  0  0  0  0  0
   26.1686  -28.3308  -20.3014 C   0  0  0  0  0  0  0  0  0  0  0  0
   25.8112  -29.1402  -21.4267 O   0  0  0  0  0  0  0  0  0  0  0  0
   25.7055  -27.1898  -20.3472 O   0  0  0  0  0  0  0  0  0  0  0  0
  2  3  1  0
  2  1  1  6
  4  2  1  0
  4  5  1  1
  6  4  1  0
  6  8  1  0
  7  6  2  0
  9  8  1  0
  9 12  1  0
  9 10  1  6
 11 10  1  0
 12 14  1  0
 12 13  2  0
 14 15  1  0
 16 15  1  0
 17 16  1  0
 18 17  1  0
 18 14  1  0
 18 19  1  6
 19 20  1  0
 21 19  2  0
M  END
$$$$
