TCP.pdb
     RDKit          3D

 21 21  0  0  1  0  0  0  0  0999 V2000
   18.6029  -11.3656  -14.5337 C   0  0  0  0  0  0  0  0  0  0  0  0
   18.6662  -12.4883  -15.5443 C   0  0  1  0  0  0  0  0  0  0  0  0
   17.8872  -13.5623  -15.1146 O   0  0  0  0  0  0  0  0  0  0  0  0
   18.1287  -11.9645  -16.8699 C   0  0  2  0  0  0  0  0  0  0  0  0
   17.9846  -13.0840  -17.7649 N   0  0  0  0  0  0  0  0  0  0  0  0
   19.0593  -10.9462  -17.4335 C   0  0  0  0  0  0  0  0  0  0  0  0
   19.3628  -11.0689  -18.6437 O   0  0  0  0  0  0  0  0  0  0  0  0
   19.5462   -9.9127  -16.5984 N   0  0  0  0  0  0  0  0  0  0  0  0
   19.8365   -8.6076  -17.1384 C   0  0  1  0  0  0  0  0  0  0  0  0
   18.6115   -8.1502  -17.8561 C   0  0  0  0  0  0  0  0  0  0  0  0
   18.9218   -6.4014  -18.3333 S   0  0  0  0  0  0  0  0  0  0  0  0
   20.3268   -7.6881  -16.0743 C   0  0  0  0  0  0  0  0  0  0  0  0
   19.4426   -7.2847  -15.2879 O   0  0  0  0  0  0  0  0  0  0  0  0
   21.6629   -7.2976  -15.9489 N   0  0  0  0  0  0  0  0  0  0  0  0
   22.8170   -7.8159  -16.7233 C   0  0  0  0  0  0  0  0  0  0  0  0
   23.4989   -6.5394  -17.1477 C   0  0  0  0  0  0  0  0  0  0  0  0
   22.9788   -5.4665  -16.2123 C   0  0  0  0  0  0  0  0  0  0  0  0
   22.3186   -6.3396  -15.1278 C   0  0  1  0  0  0  0  0  0  0  0  0
   21.5990   -5.5510  -14.1643 C   0  0  0  0  0  0  0  0  0  0  0  0
   22.3670   -4.9636  -13.1086 O   0  0  0  0  0  0  0  0  0  0  0  0
   20.3955   -5.2939  -14.1011 O   0  0  0  0  0  0  0  0  0  0  0  0
  2  3  1  0
  2  1  1  1
  4  2  1  0
  4  5  1  6
  6  4  1  0
  6  8  1  0
  7  6  2  0
  9  8  1  0
  9 12  1  0
  9 10  1  1
 11 10  1  0
 12 14  1  0
 12 13  2  0
 14 15  1  0
 16 15  1  0
 17 16  1  0
 18 17  1  0
 18 14  1  0
 18 19  1  6
 19 20  1  0
 21 19  2  0
M  END
$$$$
