TCP.pdb
     RDKit          3D

 21 21  0  0  1  0  0  0  0  0999 V2000
   28.3964  -17.4895  -16.8314 C   0  0  0  0  0  0  0  0  0  0  0  0
   27.3332  -18.3873  -16.2404 C   0  0  1  0  0  0  0  0  0  0  0  0
   26.3272  -18.6180  -17.1783 O   0  0  0  0  0  0  0  0  0  0  0  0
   27.9873  -19.7084  -15.8564 C   0  0  2  0  0  0  0  0  0  0  0  0
   28.6791  -20.2152  -17.0138 N   0  0  0  0  0  0  0  0  0  0  0  0
   26.9542  -20.6739  -15.3861 C   0  0  0  0  0  0  0  0  0  0  0  0
   27.1310  -21.8784  -15.6855 O   0  0  0  0  0  0  0  0  0  0  0  0
   25.8481  -20.1996  -14.6416 N   0  0  0  0  0  0  0  0  0  0  0  0
   25.2288  -21.0287  -13.6376 C   0  0  1  0  0  0  0  0  0  0  0  0
   26.2819  -21.3586  -12.6341 C   0  0  0  0  0  0  0  0  0  0  0  0
   25.4789  -22.4502  -11.3907 S   0  0  0  0  0  0  0  0  0  0  0  0
   24.0104  -20.3748  -13.0845 C   0  0  0  0  0  0  0  0  0  0  0  0
   24.1199  -19.9881  -11.9007 O   0  0  0  0  0  0  0  0  0  0  0  0
   22.8317  -20.1983  -13.8146 N   0  0  0  0  0  0  0  0  0  0  0  0
   22.7059  -19.6131  -15.1719 C   0  0  0  0  0  0  0  0  0  0  0  0
   21.8313  -20.6287  -15.8632 C   0  0  0  0  0  0  0  0  0  0  0  0
   21.1612  -21.4149  -14.7543 C   0  0  0  0  0  0  0  0  0  0  0  0
   21.4706  -20.5100  -13.5461 C   0  0  1  0  0  0  0  0  0  0  0  0
   21.0634  -21.1099  -12.3042 C   0  0  0  0  0  0  0  0  0  0  0  0
   21.3691  -22.4972  -12.1271 O   0  0  0  0  0  0  0  0  0  0  0  0
   20.4781  -20.6070  -11.3436 O   0  0  0  0  0  0  0  0  0  0  0  0
  2  3  1  0
  2  1  1  6
  4  2  1  0
  4  5  1  6
  6  4  1  0
  6  8  1  0
  7  6  2  0
  9  8  1  0
  9 12  1  0
  9 10  1  1
 11 10  1  0
 12 14  1  0
 12 13  2  0
 14 15  1  0
 16 15  1  0
 17 16  1  0
 18 17  1  0
 18 14  1  0
 18 19  1  1
 19 20  1  0
 21 19  2  0
M  END
$$$$
