TCP.pdb
     RDKit          3D

 21 21  0  0  1  0  0  0  0  0999 V2000
   26.4184  -23.7309  -16.0610 C   0  0  0  0  0  0  0  0  0  0  0  0
   27.3352  -22.9797  -16.9995 C   0  0  1  0  0  0  0  0  0  0  0  0
   27.5800  -23.7429  -18.1408 O   0  0  0  0  0  0  0  0  0  0  0  0
   26.6490  -21.6776  -17.3923 C   0  0  2  0  0  0  0  0  0  0  0  0
   27.5119  -20.9795  -18.3105 N   0  0  0  0  0  0  0  0  0  0  0  0
   26.3808  -20.8540  -16.1798 C   0  0  0  0  0  0  0  0  0  0  0  0
   27.0426  -19.7959  -16.0597 O   0  0  0  0  0  0  0  0  0  0  0  0
   25.4156  -21.2920  -15.2422 N   0  0  0  0  0  0  0  0  0  0  0  0
   24.6529  -20.3396  -14.4740 C   0  0  1  0  0  0  0  0  0  0  0  0
   24.0931  -19.3493  -15.4389 C   0  0  0  0  0  0  0  0  0  0  0  0
   22.9802  -18.2578  -14.4630 S   0  0  0  0  0  0  0  0  0  0  0  0
   23.6465  -21.0287  -13.6194 C   0  0  0  0  0  0  0  0  0  0  0  0
   22.5975  -21.3582  -14.2143 O   0  0  0  0  0  0  0  0  0  0  0  0
   23.8417  -21.2946  -12.2612 N   0  0  0  0  0  0  0  0  0  0  0  0
   25.1386  -21.3485  -11.5432 C   0  0  0  0  0  0  0  0  0  0  0  0
   24.8559  -20.4901  -10.3359 C   0  0  0  0  0  0  0  0  0  0  0  0
   23.3461  -20.4260  -10.2232 C   0  0  0  0  0  0  0  0  0  0  0  0
   22.9470  -21.5591  -11.1881 C   0  0  1  0  0  0  0  0  0  0  0  0
   21.5243  -21.6216  -11.3881 C   0  0  0  0  0  0  0  0  0  0  0  0
   20.9806  -20.7906  -12.4193 O   0  0  0  0  0  0  0  0  0  0  0  0
   20.6769  -22.2939  -10.7979 O   0  0  0  0  0  0  0  0  0  0  0  0
  2  3  1  0
  2  1  1  1
  4  2  1  0
  4  5  1  6
  6  4  1  0
  6  8  1  0
  7  6  2  0
  9  8  1  0
  9 12  1  0
  9 10  1  6
 11 10  1  0
 12 14  1  0
 12 13  2  0
 14 15  1  0
 16 15  1  0
 17 16  1  0
 18 17  1  0
 18 14  1  0
 18 19  1  6
 19 20  1  0
 21 19  2  0
M  END
$$$$
