TCP.pdb
     RDKit          3D

 21 21  0  0  1  0  0  0  0  0999 V2000
   15.8912   -9.3316  -10.2472 C   0  0  0  0  0  0  0  0  0  0  0  0
   14.7580  -10.2870  -10.5451 C   0  0  1  0  0  0  0  0  0  0  0  0
   13.6668  -10.0049   -9.7237 O   0  0  0  0  0  0  0  0  0  0  0  0
   14.3590  -10.1097  -12.0046 C   0  0  2  0  0  0  0  0  0  0  0  0
   13.2919  -11.0345  -12.2894 N   0  0  0  0  0  0  0  0  0  0  0  0
   15.5317  -10.3578  -12.8899 C   0  0  0  0  0  0  0  0  0  0  0  0
   15.6147  -11.4958  -13.4093 O   0  0  0  0  0  0  0  0  0  0  0  0
   16.4748   -9.3238  -13.0994 N   0  0  0  0  0  0  0  0  0  0  0  0
   17.5365   -9.4821  -14.0620 C   0  0  1  0  0  0  0  0  0  0  0  0
   16.8982   -9.8518  -15.3585 C   0  0  0  0  0  0  0  0  0  0  0  0
   15.6776   -8.5256  -15.7238 S   0  0  0  0  0  0  0  0  0  0  0  0
   18.4010   -8.2701  -14.1054 C   0  0  0  0  0  0  0  0  0  0  0  0
   17.7793   -7.1920  -14.2242 O   0  0  0  0  0  0  0  0  0  0  0  0
   19.7954   -8.3149  -14.0208 N   0  0  0  0  0  0  0  0  0  0  0  0
   20.6243   -9.4737  -13.6080 C   0  0  0  0  0  0  0  0  0  0  0  0
   21.6622   -9.5126  -14.7015 C   0  0  0  0  0  0  0  0  0  0  0  0
   21.6314   -8.1408  -15.3446 C   0  0  0  0  0  0  0  0  0  0  0  0
   20.8132   -7.3612  -14.2972 C   0  0  1  0  0  0  0  0  0  0  0  0
   20.5007   -6.0288  -14.7390 C   0  0  0  0  0  0  0  0  0  0  0  0
   21.1805   -4.9547  -14.0805 O   0  0  0  0  0  0  0  0  0  0  0  0
   19.7209   -5.6549  -15.6168 O   0  0  0  0  0  0  0  0  0  0  0  0
  2  3  1  0
  2  1  1  1
  4  2  1  0
  4  5  1  6
  6  4  1  0
  6  8  1  0
  7  6  2  0
  9  8  1  0
  9 12  1  0
  9 10  1  6
 11 10  1  0
 12 14  1  0
 12 13  2  0
 14 15  1  0
 16 15  1  0
 17 16  1  0
 18 17  1  0
 18 14  1  0
 18 19  1  6
 19 20  1  0
 21 19  2  0
M  END
$$$$
