TCP.pdb
     RDKit          3D

 21 21  0  0  1  0  0  0  0  0999 V2000
   21.4397   -9.6400  -19.2993 C   0  0  0  0  0  0  0  0  0  0  0  0
   20.6843  -10.9371  -19.1186 C   0  0  1  0  0  0  0  0  0  0  0  0
   21.0956  -11.8666  -20.0736 O   0  0  0  0  0  0  0  0  0  0  0  0
   20.9838  -11.4705  -17.7235 C   0  0  2  0  0  0  0  0  0  0  0  0
   20.4137  -12.7893  -17.6197 N   0  0  0  0  0  0  0  0  0  0  0  0
   20.4121  -10.5586  -16.6928 C   0  0  0  0  0  0  0  0  0  0  0  0
   19.1731  -10.3711  -16.7314 O   0  0  0  0  0  0  0  0  0  0  0  0
   21.2717   -9.9605  -15.7410 N   0  0  0  0  0  0  0  0  0  0  0  0
   20.7586   -9.0182  -14.7779 C   0  0  1  0  0  0  0  0  0  0  0  0
   20.9441   -9.6282  -13.4293 C   0  0  0  0  0  0  0  0  0  0  0  0
   20.3338   -8.3861  -12.2182 S   0  0  0  0  0  0  0  0  0  0  0  0
   21.3844   -7.6787  -14.9578 C   0  0  0  0  0  0  0  0  0  0  0  0
   22.5966   -7.6265  -14.6568 O   0  0  0  0  0  0  0  0  0  0  0  0
   20.6889   -6.5599  -15.4248 N   0  0  0  0  0  0  0  0  0  0  0  0
   19.4781   -6.5596  -16.2817 C   0  0  0  0  0  0  0  0  0  0  0  0
   18.5817   -5.5966  -15.5444 C   0  0  0  0  0  0  0  0  0  0  0  0
   19.4970   -4.7932  -14.6427 C   0  0  0  0  0  0  0  0  0  0  0  0
   20.8688   -5.1615  -15.2401 C   0  0  1  0  0  0  0  0  0  0  0  0
   21.9562   -4.6360  -14.4594 C   0  0  0  0  0  0  0  0  0  0  0  0
   22.1758   -3.2230  -14.5282 O   0  0  0  0  0  0  0  0  0  0  0  0
   22.7493   -5.2234  -13.7217 O   0  0  0  0  0  0  0  0  0  0  0  0
  2  3  1  0
  2  1  1  6
  4  2  1  0
  4  5  1  6
  6  4  1  0
  6  8  1  0
  7  6  2  0
  9  8  1  0
  9 12  1  0
  9 10  1  1
 11 10  1  0
 12 14  1  0
 12 13  2  0
 14 15  1  0
 16 15  1  0
 17 16  1  0
 18 17  1  0
 18 14  1  0
 18 19  1  1
 19 20  1  0
 21 19  2  0
M  END
$$$$
