TCP.pdb
     RDKit          3D

 21 21  0  0  1  0  0  0  0  0999 V2000
   17.6281  -11.2116  -13.7171 C   0  0  0  0  0  0  0  0  0  0  0  0
   16.7866  -11.9599  -14.7258 C   0  0  1  0  0  0  0  0  0  0  0  0
   15.7182  -12.5870  -14.0853 O   0  0  0  0  0  0  0  0  0  0  0  0
   16.2562  -10.9549  -15.7404 C   0  0  2  0  0  0  0  0  0  0  0  0
   15.4223  -11.6652  -16.6759 N   0  0  0  0  0  0  0  0  0  0  0  0
   17.3895  -10.2837  -16.4372 C   0  0  0  0  0  0  0  0  0  0  0  0
   17.6715  -10.7011  -17.5853 O   0  0  0  0  0  0  0  0  0  0  0  0
   18.0790   -9.2321  -15.7882 N   0  0  0  0  0  0  0  0  0  0  0  0
   19.0115   -8.4068  -16.5149 C   0  0  1  0  0  0  0  0  0  0  0  0
   18.2585   -7.7886  -17.6444 C   0  0  0  0  0  0  0  0  0  0  0  0
   19.3813   -6.5312  -18.3797 S   0  0  0  0  0  0  0  0  0  0  0  0
   19.6911   -7.4432  -15.6051 C   0  0  0  0  0  0  0  0  0  0  0  0
   18.9507   -6.5415  -15.1561 O   0  0  0  0  0  0  0  0  0  0  0  0
   21.0452   -7.5249  -15.2686 N   0  0  0  0  0  0  0  0  0  0  0  0
   21.9689   -8.6470  -15.5655 C   0  0  0  0  0  0  0  0  0  0  0  0
   23.1578   -7.9201  -16.1423 C   0  0  0  0  0  0  0  0  0  0  0  0
   23.0156   -6.4801  -15.6921 C   0  0  0  0  0  0  0  0  0  0  0  0
   21.9336   -6.6341  -14.6059 C   0  0  1  0  0  0  0  0  0  0  0  0
   21.4913   -5.3625  -14.1005 C   0  0  0  0  0  0  0  0  0  0  0  0
   22.0165   -4.9541  -12.8329 O   0  0  0  0  0  0  0  0  0  0  0  0
   20.7122   -4.5476  -14.5977 O   0  0  0  0  0  0  0  0  0  0  0  0
  2  3  1  0
  2  1  1  1
  4  2  1  0
  4  5  1  6
  6  4  1  0
  6  8  1  0
  7  6  2  0
  9  8  1  0
  9 12  1  0
  9 10  1  6
 11 10  1  0
 12 14  1  0
 12 13  2  0
 14 15  1  0
 16 15  1  0
 17 16  1  0
 18 17  1  0
 18 14  1  0
 18 19  1  6
 19 20  1  0
 21 19  2  0
M  END
$$$$
