TCP.pdb
     RDKit          3D

 21 21  0  0  1  0  0  0  0  0999 V2000
   16.7665  -12.4266  -15.9196 C   0  0  0  0  0  0  0  0  0  0  0  0
   16.8528  -11.0473  -15.3064 C   0  0  1  0  0  0  0  0  0  0  0  0
   16.1345  -10.1352  -16.0791 O   0  0  0  0  0  0  0  0  0  0  0  0
   16.2568  -11.1123  -13.9060 C   0  0  2  0  0  0  0  0  0  0  0  0
   14.8603  -11.4426  -14.0318 N   0  0  0  0  0  0  0  0  0  0  0  0
   16.4366   -9.8062  -13.2116 C   0  0  0  0  0  0  0  0  0  0  0  0
   15.4158   -9.0891  -13.0872 O   0  0  0  0  0  0  0  0  0  0  0  0
   17.7190   -9.4431  -12.7360 N   0  0  0  0  0  0  0  0  0  0  0  0
   17.9249   -8.1816  -12.0690 C   0  0  1  0  0  0  0  0  0  0  0  0
   17.7580   -8.4285  -10.6075 C   0  0  0  0  0  0  0  0  0  0  0  0
   18.3830   -6.9209   -9.7597 S   0  0  0  0  0  0  0  0  0  0  0  0
   19.2275   -7.5769  -12.4637 C   0  0  0  0  0  0  0  0  0  0  0  0
   20.2292   -8.1147  -11.9437 O   0  0  0  0  0  0  0  0  0  0  0  0
   19.3405   -6.4965  -13.3431 N   0  0  0  0  0  0  0  0  0  0  0  0
   18.3136   -6.0186  -14.3009 C   0  0  0  0  0  0  0  0  0  0  0  0
   18.3026   -4.5362  -14.0234 C   0  0  0  0  0  0  0  0  0  0  0  0
   19.6092   -4.2424  -13.3142 C   0  0  0  0  0  0  0  0  0  0  0  0
   20.3744   -5.5515  -13.5880 C   0  0  1  0  0  0  0  0  0  0  0  0
   21.6270   -5.6019  -12.8833 C   0  0  0  0  0  0  0  0  0  0  0  0
   22.6790   -4.7659  -13.3769 O   0  0  0  0  0  0  0  0  0  0  0  0
   21.9470   -6.2674  -11.8968 O   0  0  0  0  0  0  0  0  0  0  0  0
  2  3  1  0
  2  1  1  6
  4  2  1  0
  4  5  1  6
  6  4  1  0
  6  8  1  0
  7  6  2  0
  9  8  1  0
  9 12  1  0
  9 10  1  1
 11 10  1  0
 12 14  1  0
 12 13  2  0
 14 15  1  0
 16 15  1  0
 17 16  1  0
 18 17  1  0
 18 14  1  0
 18 19  1  1
 19 20  1  0
 21 19  2  0
M  END
$$$$
