TCP.pdb
     RDKit          3D

 21 21  0  0  1  0  0  0  0  0999 V2000
   24.7638  -12.9325  -22.2869 C   0  0  0  0  0  0  0  0  0  0  0  0
   24.5118  -12.2460  -20.9636 C   0  0  1  0  0  0  0  0  0  0  0  0
   23.1553  -11.9517  -20.8287 O   0  0  0  0  0  0  0  0  0  0  0  0
   24.9437  -13.1905  -19.8491 C   0  0  2  0  0  0  0  0  0  0  0  0
   24.1257  -14.3737  -19.9269 N   0  0  0  0  0  0  0  0  0  0  0  0
   24.7936  -12.5231  -18.5253 C   0  0  0  0  0  0  0  0  0  0  0  0
   23.8302  -12.8936  -17.8136 O   0  0  0  0  0  0  0  0  0  0  0  0
   25.7217  -11.5264  -18.1407 N   0  0  0  0  0  0  0  0  0  0  0  0
   25.5939  -10.8545  -16.8714 C   0  0  1  0  0  0  0  0  0  0  0  0
   26.9364  -10.8898  -16.2221 C   0  0  0  0  0  0  0  0  0  0  0  0
   26.8135   -9.8140  -14.7356 S   0  0  0  0  0  0  0  0  0  0  0  0
   25.0105   -9.4952  -17.0448 C   0  0  0  0  0  0  0  0  0  0  0  0
   25.7521   -8.6832  -17.6395 O   0  0  0  0  0  0  0  0  0  0  0  0
   23.7390   -9.1383  -16.5872 N   0  0  0  0  0  0  0  0  0  0  0  0
   22.6375  -10.0592  -16.2143 C   0  0  0  0  0  0  0  0  0  0  0  0
   22.2076   -9.4984  -14.8820 C   0  0  0  0  0  0  0  0  0  0  0  0
   22.7446   -8.0819  -14.8411 C   0  0  0  0  0  0  0  0  0  0  0  0
   23.1220   -7.8850  -16.3220 C   0  0  1  0  0  0  0  0  0  0  0  0
   23.8104   -6.6419  -16.5429 C   0  0  0  0  0  0  0  0  0  0  0  0
   23.0102   -5.4549  -16.5568 O   0  0  0  0  0  0  0  0  0  0  0  0
   25.0103   -6.4304  -16.7268 O   0  0  0  0  0  0  0  0  0  0  0  0
  2  3  1  0
  2  1  1  6
  4  2  1  0
  4  5  1  1
  6  4  1  0
  6  8  1  0
  7  6  2  0
  9  8  1  0
  9 12  1  0
  9 10  1  6
 11 10  1  0
 12 14  1  0
 12 13  2  0
 14 15  1  0
 16 15  1  0
 17 16  1  0
 18 17  1  0
 18 14  1  0
 18 19  1  1
 19 20  1  0
 21 19  2  0
M  END
$$$$
