TCP.pdb
     RDKit          3D

 21 21  0  0  1  0  0  0  0  0999 V2000
   40.0313  -11.4111   -9.1960 C   0  0  0  0  0  0  0  0  0  0  0  0
   39.3421  -10.0866   -9.4330 C   0  0  1  0  0  0  0  0  0  0  0  0
   37.9787  -10.2025   -9.1634 O   0  0  0  0  0  0  0  0  0  0  0  0
   39.9622   -9.0550   -8.4993 C   0  0  2  0  0  0  0  0  0  0  0  0
   39.6788   -9.4541   -7.1445 N   0  0  0  0  0  0  0  0  0  0  0  0
   39.4041   -7.7034   -8.7861 C   0  0  0  0  0  0  0  0  0  0  0  0
   38.9808   -7.5039   -9.9492 O   0  0  0  0  0  0  0  0  0  0  0  0
   39.3777   -6.7305   -7.7588 N   0  0  0  0  0  0  0  0  0  0  0  0
   38.8081   -5.4274   -7.9959 C   0  0  1  0  0  0  0  0  0  0  0  0
   37.3558   -5.6295   -8.2699 C   0  0  0  0  0  0  0  0  0  0  0  0
   36.6570   -6.4216   -6.7645 S   0  0  0  0  0  0  0  0  0  0  0  0
   39.1168   -4.4990   -6.8730 C   0  0  0  0  0  0  0  0  0  0  0  0
   38.6797   -4.8653   -5.7605 O   0  0  0  0  0  0  0  0  0  0  0  0
   39.8360   -3.3110   -7.0310 N   0  0  0  0  0  0  0  0  0  0  0  0
   40.6514   -2.9148   -8.2050 C   0  0  0  0  0  0  0  0  0  0  0  0
   40.1625   -1.5107   -8.4574 C   0  0  0  0  0  0  0  0  0  0  0  0
   39.4977   -1.0704   -7.1688 C   0  0  0  0  0  0  0  0  0  0  0  0
   40.0031   -2.1637   -6.2078 C   0  0  1  0  0  0  0  0  0  0  0  0
   39.3893   -2.0681   -4.9108 C   0  0  0  0  0  0  0  0  0  0  0  0
   38.1028   -2.6775   -4.7594 O   0  0  0  0  0  0  0  0  0  0  0  0
   39.8052   -1.5312   -3.8826 O   0  0  0  0  0  0  0  0  0  0  0  0
  2  3  1  0
  2  1  1  1
  4  2  1  0
  4  5  1  1
  6  4  1  0
  6  8  1  0
  7  6  2  0
  9  8  1  0
  9 12  1  0
  9 10  1  1
 11 10  1  0
 12 14  1  0
 12 13  2  0
 14 15  1  0
 16 15  1  0
 17 16  1  0
 18 17  1  0
 18 14  1  0
 18 19  1  1
 19 20  1  0
 21 19  2  0
M  END
$$$$
