TFI.pdb
     RDKit          3D

 27 27  0  0  1  0  0  0  0  0999 V2000
   27.2466  -18.6051  -13.2957 C   0  0  0  0  0  0  0  0  0  0  0  0
   27.5907  -19.9061  -13.9912 C   0  0  1  0  0  0  0  0  0  0  0  0
   28.0624  -19.6864  -15.2835 O   0  0  0  0  0  0  0  0  0  0  0  0
   28.6162  -20.6304  -13.1490 C   0  0  2  0  0  0  0  0  0  0  0  0
   29.0049  -21.8145  -13.8868 N   0  0  0  0  0  0  0  0  0  0  0  0
   28.1158  -20.9942  -11.8211 C   0  0  0  0  0  0  0  0  0  0  0  0
   27.4327  -22.0606  -11.7105 O   0  0  0  0  0  0  0  0  0  0  0  0
   28.3260  -20.2636  -10.6536 N   0  0  0  0  0  0  0  0  0  0  0  0
   27.7831  -20.6338   -9.3227 C   0  0  1  0  0  0  0  0  0  0  0  0
   28.6829  -19.9483   -8.3682 C   0  0  0  0  0  0  0  0  0  0  0  0
   28.3564  -19.9745   -6.9547 C   0  0  0  0  0  0  0  0  0  0  0  0
   27.9078  -18.8239   -6.3451 C   0  0  0  0  0  0  0  0  0  0  0  0
   27.5719  -18.7504   -5.0096 C   0  0  0  0  0  0  0  0  0  0  0  0
   27.6900  -19.8915   -4.2346 C   0  0  0  0  0  0  0  0  0  0  0  0
   28.1396  -21.0414   -4.8492 C   0  0  0  0  0  0  0  0  0  0  0  0
   28.4718  -21.1097   -6.1748 C   0  0  0  0  0  0  0  0  0  0  0  0
   26.3762  -20.2326   -9.3586 C   0  0  0  0  0  0  0  0  0  0  0  0
   26.0813  -18.9915   -9.4896 O   0  0  0  0  0  0  0  0  0  0  0  0
   23.4609  -21.0063  -13.2860 C   0  0  0  0  0  0  0  0  0  0  0  0
   24.0664  -20.5767  -11.9800 C   0  0  0  0  0  0  0  0  0  0  0  0
   23.2919  -20.8978  -10.7660 C   0  0  2  0  0  0  0  0  0  0  0  0
   21.8812  -20.3278  -10.9141 C   0  0  0  0  0  0  0  0  0  0  0  0
   23.8855  -20.5820   -9.4458 C   0  0  2  0  0  0  0  0  0  0  0  0
   25.2307  -21.0788   -9.2693 N   0  0  0  0  0  0  0  0  0  0  0  0
   23.0195  -20.9859   -8.3482 C   0  0  0  0  0  0  0  0  0  0  0  0
   23.4293  -21.9963   -7.4932 O   0  0  0  0  0  0  0  0  0  0  0  0
   21.8856  -20.4492   -8.1266 O   0  0  0  0  0  0  0  0  0  0  0  0
  2  4  1  0
  2  1  1  1
  2  3  1  0
  4  5  1  6
  6  4  1  0
  6  7  2  0
  8  6  1  0
  9  8  1  0
 10 11  1  0
  9 10  1  1
 11 12  2  0
 11 16  1  0
 12 13  1  0
 13 14  2  0
 15 14  1  0
 16 15  2  0
 17 18  2  0
 17  9  1  0
 20 21  1  0
 20 19  1  0
 21 22  1  6
 23 24  1  1
 23 21  1  0
 24 17  1  0
 25 23  1  0
 26 25  1  0
 27 25  2  0
M  END
$$$$
