TFI.pdb
     RDKit          3D

 27 27  0  0  1  0  0  0  0  0999 V2000
   30.0685  -19.8305  -17.9590 C   0  0  0  0  0  0  0  0  0  0  0  0
   29.2310  -19.6503  -16.7097 C   0  0  1  0  0  0  0  0  0  0  0  0
   29.6908  -18.5881  -15.9342 O   0  0  0  0  0  0  0  0  0  0  0  0
   27.7957  -19.4379  -17.1345 C   0  0  2  0  0  0  0  0  0  0  0  0
   27.7909  -18.3183  -18.0530 N   0  0  0  0  0  0  0  0  0  0  0  0
   26.8950  -19.1816  -16.0079 C   0  0  0  0  0  0  0  0  0  0  0  0
   26.5461  -17.9802  -15.7821 O   0  0  0  0  0  0  0  0  0  0  0  0
   26.3809  -20.1525  -15.1512 N   0  0  0  0  0  0  0  0  0  0  0  0
   25.4131  -19.8806  -14.0591 C   0  0  1  0  0  0  0  0  0  0  0  0
   24.1532  -20.4903  -14.5404 C   0  0  0  0  0  0  0  0  0  0  0  0
   23.0235  -20.5733  -13.6335 C   0  0  0  0  0  0  0  0  0  0  0  0
   22.1834  -19.4899  -13.5023 C   0  0  0  0  0  0  0  0  0  0  0  0
   21.0852  -19.4739  -12.6684 C   0  0  0  0  0  0  0  0  0  0  0  0
   20.8070  -20.6050  -11.9201 C   0  0  0  0  0  0  0  0  0  0  0  0
   21.6510  -21.6875  -12.0546 C   0  0  0  0  0  0  0  0  0  0  0  0
   22.7396  -21.6989  -12.8834 C   0  0  0  0  0  0  0  0  0  0  0  0
   26.0328  -20.4315  -12.8532 C   0  0  0  0  0  0  0  0  0  0  0  0
   26.7397  -21.4977  -12.9426 O   0  0  0  0  0  0  0  0  0  0  0  0
   28.5969  -19.5172   -7.3226 C   0  0  0  0  0  0  0  0  0  0  0  0
   27.8260  -20.4217   -8.2416 C   0  0  0  0  0  0  0  0  0  0  0  0
   27.1764  -19.7752   -9.3978 C   0  0  2  0  0  0  0  0  0  0  0  0
   26.2910  -18.6353   -8.8941 C   0  0  0  0  0  0  0  0  0  0  0  0
   26.4764  -20.6311  -10.3840 C   0  0  2  0  0  0  0  0  0  0  0  0
   25.9578  -19.9133  -11.5258 N   0  0  0  0  0  0  0  0  0  0  0  0
   25.4509  -21.4541   -9.7607 C   0  0  0  0  0  0  0  0  0  0  0  0
   25.7923  -22.6940   -9.2448 O   0  0  0  0  0  0  0  0  0  0  0  0
   24.2348  -21.0881   -9.6607 O   0  0  0  0  0  0  0  0  0  0  0  0
  2  4  1  0
  2  1  1  6
  2  3  1  0
  4  5  1  6
  6  4  1  0
  6  7  2  0
  8  6  1  0
  9  8  1  0
 10 11  1  0
  9 10  1  6
 11 12  2  0
 11 16  1  0
 12 13  1  0
 13 14  2  0
 15 14  1  0
 16 15  2  0
 17 18  2  0
 17  9  1  0
 20 21  1  0
 20 19  1  0
 21 22  1  1
 23 24  1  6
 23 21  1  0
 24 17  1  0
 25 23  1  0
 26 25  1  0
 27 25  2  0
M  END
$$$$
