TFI.pdb
     RDKit          3D

 27 27  0  0  1  0  0  0  0  0999 V2000
   26.4446  -18.6816  -13.4828 C   0  0  0  0  0  0  0  0  0  0  0  0
   26.6880  -19.9347  -14.2984 C   0  0  1  0  0  0  0  0  0  0  0  0
   27.1551  -19.6314  -15.5754 O   0  0  0  0  0  0  0  0  0  0  0  0
   27.6731  -20.7997  -13.5454 C   0  0  2  0  0  0  0  0  0  0  0  0
   27.8979  -21.9806  -14.3530 N   0  0  0  0  0  0  0  0  0  0  0  0
   27.2047  -21.1735  -12.2086 C   0  0  0  0  0  0  0  0  0  0  0  0
   26.4549  -22.1943  -12.1010 O   0  0  0  0  0  0  0  0  0  0  0  0
   27.5136  -20.4987  -11.0295 N   0  0  0  0  0  0  0  0  0  0  0  0
   27.0191  -20.8884   -9.6854 C   0  0  1  0  0  0  0  0  0  0  0  0
   28.0340  -20.3377   -8.7595 C   0  0  0  0  0  0  0  0  0  0  0  0
   27.7059  -20.2169   -7.3512 C   0  0  0  0  0  0  0  0  0  0  0  0
   27.3358  -18.9894   -6.8483 C   0  0  0  0  0  0  0  0  0  0  0  0
   27.0051  -18.7758   -5.5266 C   0  0  0  0  0  0  0  0  0  0  0  0
   27.0456  -19.8492   -4.6534 C   0  0  0  0  0  0  0  0  0  0  0  0
   27.4169  -21.0765   -5.1613 C   0  0  0  0  0  0  0  0  0  0  0  0
   27.7442  -21.2840   -6.4736 C   0  0  0  0  0  0  0  0  0  0  0  0
   25.6559  -20.3612   -9.6119 C   0  0  0  0  0  0  0  0  0  0  0  0
   25.4449  -19.1274   -9.8904 O   0  0  0  0  0  0  0  0  0  0  0  0
   20.2463  -21.6657  -11.8320 C   0  0  0  0  0  0  0  0  0  0  0  0
   20.9698  -20.8937  -10.7654 C   0  0  0  0  0  0  0  0  0  0  0  0
   22.3347  -21.3514  -10.4424 C   0  0  2  0  0  0  0  0  0  0  0  0
   22.2786  -22.8228  -10.0313 C   0  0  0  0  0  0  0  0  0  0  0  0
   23.1479  -20.5411   -9.5058 C   0  0  2  0  0  0  0  0  0  0  0  0
   24.4693  -21.0716   -9.2603 N   0  0  0  0  0  0  0  0  0  0  0  0
   22.4414  -20.2729   -8.2622 C   0  0  0  0  0  0  0  0  0  0  0  0
   21.2815  -19.5154   -8.2870 O   0  0  0  0  0  0  0  0  0  0  0  0
   22.8386  -20.7068   -7.1322 O   0  0  0  0  0  0  0  0  0  0  0  0
  2  4  1  0
  2  1  1  1
  2  3  1  0
  4  5  1  6
  6  4  1  0
  6  7  2  0
  8  6  1  0
  9  8  1  0
 10 11  1  0
  9 10  1  1
 11 12  2  0
 11 16  1  0
 12 13  1  0
 13 14  2  0
 15 14  1  0
 16 15  2  0
 17 18  2  0
 17  9  1  0
 20 21  1  0
 20 19  1  0
 21 22  1  1
 23 24  1  1
 23 21  1  0
 24 17  1  0
 25 23  1  0
 26 25  1  0
 27 25  2  0
M  END
$$$$
