TFI.pdb
     RDKit          3D

 27 27  0  0  1  0  0  0  0  0999 V2000
   32.9858  -23.7568   -7.8448 C   0  0  0  0  0  0  0  0  0  0  0  0
   33.0515  -22.7113   -6.7506 C   0  0  1  0  0  0  0  0  0  0  0  0
   34.0744  -21.7937   -6.9803 O   0  0  0  0  0  0  0  0  0  0  0  0
   31.7062  -22.0254   -6.6768 C   0  0  2  0  0  0  0  0  0  0  0  0
   31.5272  -21.3164   -7.9269 N   0  0  0  0  0  0  0  0  0  0  0  0
   31.5924  -21.1042   -5.5434 C   0  0  0  0  0  0  0  0  0  0  0  0
   31.6684  -19.8568   -5.7761 O   0  0  0  0  0  0  0  0  0  0  0  0
   31.4056  -21.4813   -4.2152 N   0  0  0  0  0  0  0  0  0  0  0  0
   31.1287  -20.5355   -3.1054 C   0  0  1  0  0  0  0  0  0  0  0  0
   29.6557  -20.5728   -2.9653 C   0  0  0  0  0  0  0  0  0  0  0  0
   28.8398  -19.9025   -3.9605 C   0  0  0  0  0  0  0  0  0  0  0  0
   29.1558  -18.6157   -4.3357 C   0  0  0  0  0  0  0  0  0  0  0  0
   28.4421  -17.8981   -5.2724 C   0  0  0  0  0  0  0  0  0  0  0  0
   27.3478  -18.4984   -5.8715 C   0  0  0  0  0  0  0  0  0  0  0  0
   27.0349  -19.7870   -5.4927 C   0  0  0  0  0  0  0  0  0  0  0  0
   27.7460  -20.4954   -4.5626 C   0  0  0  0  0  0  0  0  0  0  0  0
   31.9431  -21.0104   -1.9861 C   0  0  0  0  0  0  0  0  0  0  0  0
   32.0158  -22.2694   -1.7533 O   0  0  0  0  0  0  0  0  0  0  0  0
   36.5156  -18.5419    0.3439 C   0  0  0  0  0  0  0  0  0  0  0  0
   35.4834  -19.4481   -0.2646 C   0  0  0  0  0  0  0  0  0  0  0  0
   34.4382  -19.9500    0.6476 C   0  0  2  0  0  0  0  0  0  0  0  0
   35.1087  -20.6068    1.8543 C   0  0  0  0  0  0  0  0  0  0  0  0
   33.3546  -20.7900    0.0858 C   0  0  2  0  0  0  0  0  0  0  0  0
   32.7107  -20.2229   -1.0768 N   0  0  0  0  0  0  0  0  0  0  0  0
   32.3833  -21.1757    1.0984 C   0  0  0  0  0  0  0  0  0  0  0  0
   32.7799  -21.9875    2.1490 O   0  0  0  0  0  0  0  0  0  0  0  0
   31.1668  -20.7985    1.0709 O   0  0  0  0  0  0  0  0  0  0  0  0
  2  4  1  0
  2  1  1  6
  2  3  1  0
  4  5  1  6
  6  4  1  0
  6  7  2  0
  8  6  1  0
  9  8  1  0
 10 11  1  0
  9 10  1  1
 11 12  2  0
 11 16  1  0
 12 13  1  0
 13 14  2  0
 15 14  1  0
 16 15  2  0
 17 18  2  0
 17  9  1  0
 20 21  1  0
 20 19  1  0
 21 22  1  1
 23 24  1  6
 23 21  1  0
 24 17  1  0
 25 23  1  0
 26 25  1  0
 27 25  2  0
M  END
$$$$
