TFI.pdb
     RDKit          3D

 27 27  0  0  1  0  0  0  0  0999 V2000
   25.9157  -18.3829  -17.5243 C   0  0  0  0  0  0  0  0  0  0  0  0
   26.8837  -19.3170  -18.2211 C   0  0  1  0  0  0  0  0  0  0  0  0
   27.5382  -18.6826  -19.2747 O   0  0  0  0  0  0  0  0  0  0  0  0
   27.8670  -19.8255  -17.1915 C   0  0  2  0  0  0  0  0  0  0  0  0
   28.7491  -20.7495  -17.8738 N   0  0  0  0  0  0  0  0  0  0  0  0
   27.2190  -20.4807  -16.0526 C   0  0  0  0  0  0  0  0  0  0  0  0
   26.8142  -21.6765  -16.2010 O   0  0  0  0  0  0  0  0  0  0  0  0
   27.0051  -19.8995  -14.8045 N   0  0  0  0  0  0  0  0  0  0  0  0
   26.3180  -20.5707  -13.6730 C   0  0  1  0  0  0  0  0  0  0  0  0
   27.0099  -20.0455  -12.4747 C   0  0  0  0  0  0  0  0  0  0  0  0
   26.4699  -20.3511  -11.1631 C   0  0  0  0  0  0  0  0  0  0  0  0
   25.3604  -19.6692  -10.7153 C   0  0  0  0  0  0  0  0  0  0  0  0
   24.7749  -19.8899   -9.4864 C   0  0  0  0  0  0  0  0  0  0  0  0
   25.3278  -20.8474   -8.6533 C   0  0  0  0  0  0  0  0  0  0  0  0
   26.4388  -21.5278   -9.1057 C   0  0  0  0  0  0  0  0  0  0  0  0
   27.0165  -21.3056  -10.3260 C   0  0  0  0  0  0  0  0  0  0  0  0
   24.8992  -20.2569  -13.8468 C   0  0  0  0  0  0  0  0  0  0  0  0
   24.5367  -19.0316  -13.9549 O   0  0  0  0  0  0  0  0  0  0  0  0
   21.9333  -20.6501  -17.8840 C   0  0  0  0  0  0  0  0  0  0  0  0
   22.5606  -20.3931  -16.5434 C   0  0  0  0  0  0  0  0  0  0  0  0
   21.8442  -20.9370  -15.3739 C   0  0  2  0  0  0  0  0  0  0  0  0
   20.3860  -20.4816  -15.4314 C   0  0  0  0  0  0  0  0  0  0  0  0
   22.4367  -20.7426  -14.0299 C   0  0  2  0  0  0  0  0  0  0  0  0
   23.8107  -21.1765  -13.9222 N   0  0  0  0  0  0  0  0  0  0  0  0
   21.6107  -21.3220  -12.9812 C   0  0  0  0  0  0  0  0  0  0  0  0
   20.5956  -20.5661  -12.4173 O   0  0  0  0  0  0  0  0  0  0  0  0
   21.7730  -22.5089  -12.5477 O   0  0  0  0  0  0  0  0  0  0  0  0
  2  4  1  0
  2  1  1  1
  2  3  1  0
  4  5  1  6
  6  4  1  0
  6  7  2  0
  8  6  1  0
  9  8  1  0
 10 11  1  0
  9 10  1  1
 11 12  2  0
 11 16  1  0
 12 13  1  0
 13 14  2  0
 15 14  1  0
 16 15  2  0
 17 18  2  0
 17  9  1  0
 20 21  1  0
 20 19  1  0
 21 22  1  1
 23 24  1  6
 23 21  1  0
 24 17  1  0
 25 23  1  0
 26 25  1  0
 27 25  2  0
M  END
$$$$
