TFI.pdb
     RDKit          3D

 27 27  0  0  1  0  0  0  0  0999 V2000
   21.8115  -10.5245  -21.5667 C   0  0  0  0  0  0  0  0  0  0  0  0
   21.3648   -9.7745  -20.3287 C   0  0  1  0  0  0  0  0  0  0  0  0
   20.0489  -10.0829  -19.9906 O   0  0  0  0  0  0  0  0  0  0  0  0
   22.3147  -10.1189  -19.2041 C   0  0  2  0  0  0  0  0  0  0  0  0
   22.1426  -11.5297  -18.9261 N   0  0  0  0  0  0  0  0  0  0  0  0
   22.0845   -9.3254  -17.9943 C   0  0  0  0  0  0  0  0  0  0  0  0
   21.4740   -9.8761  -17.0248 O   0  0  0  0  0  0  0  0  0  0  0  0
   22.4817   -8.0026  -17.8115 N   0  0  0  0  0  0  0  0  0  0  0  0
   22.2638   -7.2255  -16.5658 C   0  0  1  0  0  0  0  0  0  0  0  0
   23.6322   -6.9569  -16.0701 C   0  0  0  0  0  0  0  0  0  0  0  0
   24.4322   -8.0658  -15.5844 C   0  0  0  0  0  0  0  0  0  0  0  0
   23.9597   -8.8322  -14.5423 C   0  0  0  0  0  0  0  0  0  0  0  0
   24.6457   -9.9054  -14.0136 C   0  0  0  0  0  0  0  0  0  0  0  0
   25.8763  -10.2349  -14.5554 C   0  0  0  0  0  0  0  0  0  0  0  0
   26.3456   -9.4647  -15.5988 C   0  0  0  0  0  0  0  0  0  0  0  0
   25.6614   -8.4006  -16.1203 C   0  0  0  0  0  0  0  0  0  0  0  0
   21.4359   -6.0869  -16.9654 C   0  0  0  0  0  0  0  0  0  0  0  0
   21.8246   -5.3369  -17.9302 O   0  0  0  0  0  0  0  0  0  0  0  0
   15.8477   -5.9678  -17.3874 C   0  0  0  0  0  0  0  0  0  0  0  0
   17.3307   -5.8124  -17.5705 C   0  0  0  0  0  0  0  0  0  0  0  0
   17.9688   -4.7164  -16.8166 C   0  0  2  0  0  0  0  0  0  0  0  0
   17.2275   -3.4133  -17.1157 C   0  0  0  0  0  0  0  0  0  0  0  0
   19.4387   -4.5565  -16.9115 C   0  0  2  0  0  0  0  0  0  0  0  0
   20.1889   -5.6815  -16.4023 N   0  0  0  0  0  0  0  0  0  0  0  0
   19.8899   -3.3044  -16.3230 C   0  0  0  0  0  0  0  0  0  0  0  0
   20.1210   -3.2369  -14.9585 O   0  0  0  0  0  0  0  0  0  0  0  0
   20.0889   -2.2490  -17.0081 O   0  0  0  0  0  0  0  0  0  0  0  0
  2  4  1  0
  2  1  1  6
  2  3  1  0
  4  5  1  1
  6  4  1  0
  6  7  2  0
  8  6  1  0
  9  8  1  0
 10 11  1  0
  9 10  1  6
 11 12  2  0
 11 16  1  0
 12 13  1  0
 13 14  2  0
 15 14  1  0
 16 15  2  0
 17 18  2  0
 17  9  1  0
 20 21  1  0
 20 19  1  0
 21 22  1  6
 23 24  1  1
 23 21  1  0
 24 17  1  0
 25 23  1  0
 26 25  1  0
 27 25  2  0
M  END
$$$$
