TFI.pdb
     RDKit          3D

 27 27  0  0  1  0  0  0  0  0999 V2000
   28.9875  -22.6159  -15.8827 C   0  0  0  0  0  0  0  0  0  0  0  0
   28.4085  -21.8994  -14.6802 C   0  0  1  0  0  0  0  0  0  0  0  0
   29.2510  -20.8827  -14.2357 O   0  0  0  0  0  0  0  0  0  0  0  0
   27.0514  -21.3569  -15.0669 C   0  0  2  0  0  0  0  0  0  0  0  0
   27.2609  -20.4576  -16.1825 N   0  0  0  0  0  0  0  0  0  0  0  0
   26.3757  -20.6628  -13.9678 C   0  0  0  0  0  0  0  0  0  0  0  0
   26.3755  -19.3916  -13.9732 O   0  0  0  0  0  0  0  0  0  0  0  0
   25.7247  -21.2828  -12.9034 N   0  0  0  0  0  0  0  0  0  0  0  0
   24.9255  -20.5677  -11.8773 C   0  0  1  0  0  0  0  0  0  0  0  0
   23.5281  -20.9413  -12.1909 C   0  0  0  0  0  0  0  0  0  0  0  0
   22.8795  -20.3311  -13.3364 C   0  0  0  0  0  0  0  0  0  0  0  0
   22.6442  -21.0900  -14.4613 C   0  0  0  0  0  0  0  0  0  0  0  0
   22.0339  -20.6003  -15.5969 C   0  0  0  0  0  0  0  0  0  0  0  0
   21.6339  -19.2751  -15.6131 C   0  0  0  0  0  0  0  0  0  0  0  0
   21.8716  -18.5188  -14.4845 C   0  0  0  0  0  0  0  0  0  0  0  0
   22.4775  -19.0089  -13.3598 C   0  0  0  0  0  0  0  0  0  0  0  0
   25.4844  -20.9920  -10.5932 C   0  0  0  0  0  0  0  0  0  0  0  0
   25.7454  -22.2329  -10.4022 O   0  0  0  0  0  0  0  0  0  0  0  0
   29.2515  -18.6609   -7.0240 C   0  0  0  0  0  0  0  0  0  0  0  0
   28.4430  -19.6556   -7.8074 C   0  0  0  0  0  0  0  0  0  0  0  0
   27.0434  -19.8396   -7.3785 C   0  0  2  0  0  0  0  0  0  0  0  0
   27.0254  -20.2129   -5.8962 C   0  0  0  0  0  0  0  0  0  0  0  0
   26.1674  -20.7202   -8.1863 C   0  0  2  0  0  0  0  0  0  0  0  0
   25.7997  -20.1695   -9.4705 N   0  0  0  0  0  0  0  0  0  0  0  0
   24.9980  -21.1588   -7.4395 C   0  0  0  0  0  0  0  0  0  0  0  0
   25.1522  -22.0628   -6.4008 O   0  0  0  0  0  0  0  0  0  0  0  0
   23.8194  -20.7471   -7.6933 O   0  0  0  0  0  0  0  0  0  0  0  0
  2  4  1  0
  2  1  1  6
  2  3  1  0
  4  5  1  6
  6  4  1  0
  6  7  2  0
  8  6  1  0
  9  8  1  0
 10 11  1  0
  9 10  1  1
 11 12  2  0
 11 16  1  0
 12 13  1  0
 13 14  2  0
 15 14  1  0
 16 15  2  0
 17 18  2  0
 17  9  1  0
 20 21  1  0
 20 19  1  0
 21 22  1  1
 23 24  1  6
 23 21  1  0
 24 17  1  0
 25 23  1  0
 26 25  1  0
 27 25  2  0
M  END
$$$$
