TFI.pdb
     RDKit          3D

 27 27  0  0  1  0  0  0  0  0999 V2000
   18.0606   -9.6825  -20.4359 C   0  0  0  0  0  0  0  0  0  0  0  0
   17.9613  -11.0925  -19.8911 C   0  0  1  0  0  0  0  0  0  0  0  0
   17.9778  -12.0385  -20.9137 O   0  0  0  0  0  0  0  0  0  0  0  0
   19.1082  -11.3048  -18.9292 C   0  0  2  0  0  0  0  0  0  0  0  0
   19.0753  -12.6987  -18.5377 N   0  0  0  0  0  0  0  0  0  0  0  0
   19.0368  -10.4386  -17.7499 C   0  0  0  0  0  0  0  0  0  0  0  0
   18.0231  -10.5444  -16.9902 O   0  0  0  0  0  0  0  0  0  0  0  0
   19.9958   -9.4966  -17.3838 N   0  0  0  0  0  0  0  0  0  0  0  0
   19.9069   -8.6328  -16.1800 C   0  0  1  0  0  0  0  0  0  0  0  0
   21.2701   -8.6817  -15.6056 C   0  0  0  0  0  0  0  0  0  0  0  0
   21.6198   -7.7497  -14.5499 C   0  0  0  0  0  0  0  0  0  0  0  0
   21.4751   -8.1346  -13.2356 C   0  0  0  0  0  0  0  0  0  0  0  0
   21.7818   -7.3210  -12.1652 C   0  0  0  0  0  0  0  0  0  0  0  0
   22.2613   -6.0474  -12.4191 C   0  0  0  0  0  0  0  0  0  0  0  0
   22.4045   -5.6661  -13.7367 C   0  0  0  0  0  0  0  0  0  0  0  0
   22.0990   -6.4768  -14.7959 C   0  0  0  0  0  0  0  0  0  0  0  0
   19.4068   -7.3470  -16.6682 C   0  0  0  0  0  0  0  0  0  0  0  0
   19.8469   -6.8843  -17.7802 O   0  0  0  0  0  0  0  0  0  0  0  0
   14.8940   -3.5410  -17.9112 C   0  0  0  0  0  0  0  0  0  0  0  0
   16.3097   -3.6539  -17.4215 C   0  0  0  0  0  0  0  0  0  0  0  0
   16.7419   -4.9943  -16.9817 C   0  0  2  0  0  0  0  0  0  0  0  0
   15.7414   -5.5243  -15.9545 C   0  0  0  0  0  0  0  0  0  0  0  0
   18.1443   -5.1738  -16.5387 C   0  0  2  0  0  0  0  0  0  0  0  0
   18.4426   -6.4989  -16.0458 N   0  0  0  0  0  0  0  0  0  0  0  0
   18.5519   -4.1479  -15.5905 C   0  0  0  0  0  0  0  0  0  0  0  0
   18.8791   -2.8835  -16.0532 O   0  0  0  0  0  0  0  0  0  0  0  0
   18.6233   -4.3536  -14.3353 O   0  0  0  0  0  0  0  0  0  0  0  0
  2  4  1  0
  2  1  1  6
  2  3  1  0
  4  5  1  1
  6  4  1  0
  6  7  2  0
  8  6  1  0
  9  8  1  0
 10 11  1  0
  9 10  1  6
 11 12  2  0
 11 16  1  0
 12 13  1  0
 13 14  2  0
 15 14  1  0
 16 15  2  0
 17 18  2  0
 17  9  1  0
 20 21  1  0
 20 19  1  0
 21 22  1  1
 23 24  1  1
 23 21  1  0
 24 17  1  0
 25 23  1  0
 26 25  1  0
 27 25  2  0
M  END
$$$$
