TFI.pdb
     RDKit          3D

 27 27  0  0  1  0  0  0  0  0999 V2000
   28.2862  -18.9762  -14.8652 C   0  0  0  0  0  0  0  0  0  0  0  0
   27.5503  -19.4991  -13.6487 C   0  0  1  0  0  0  0  0  0  0  0  0
   26.2524  -19.8937  -13.9662 O   0  0  0  0  0  0  0  0  0  0  0  0
   28.3484  -20.6487  -13.0768 C   0  0  2  0  0  0  0  0  0  0  0  0
   28.2423  -21.7433  -14.0190 N   0  0  0  0  0  0  0  0  0  0  0  0
   27.8855  -21.0659  -11.7509 C   0  0  0  0  0  0  0  0  0  0  0  0
   27.1297  -22.0852  -11.6743 O   0  0  0  0  0  0  0  0  0  0  0  0
   28.2057  -20.4346  -10.5509 N   0  0  0  0  0  0  0  0  0  0  0  0
   27.6283  -20.7962   -9.2323 C   0  0  1  0  0  0  0  0  0  0  0  0
   28.5928  -20.2402   -8.2570 C   0  0  0  0  0  0  0  0  0  0  0  0
   28.1915  -20.1140   -6.8683 C   0  0  0  0  0  0  0  0  0  0  0  0
   28.3282  -21.1950   -6.0263 C   0  0  0  0  0  0  0  0  0  0  0  0
   27.9765  -21.1717   -4.6930 C   0  0  0  0  0  0  0  0  0  0  0  0
   27.4573  -20.0011   -4.1669 C   0  0  0  0  0  0  0  0  0  0  0  0
   27.3221  -18.9210   -5.0138 C   0  0  0  0  0  0  0  0  0  0  0  0
   27.6725  -18.9487   -6.3362 C   0  0  0  0  0  0  0  0  0  0  0  0
   26.2691  -20.2541   -9.2485 C   0  0  0  0  0  0  0  0  0  0  0  0
   26.0947  -19.0059   -9.4854 O   0  0  0  0  0  0  0  0  0  0  0  0
   21.9974  -19.5934  -12.7187 C   0  0  0  0  0  0  0  0  0  0  0  0
   22.2046  -19.7049  -11.2350 C   0  0  0  0  0  0  0  0  0  0  0  0
   23.4627  -20.3403  -10.7989 C   0  0  2  0  0  0  0  0  0  0  0  0
   23.5819  -21.7107  -11.4658 C   0  0  0  0  0  0  0  0  0  0  0  0
   23.7586  -20.3982   -9.3482 C   0  0  2  0  0  0  0  0  0  0  0  0
   25.0501  -20.9633   -9.0313 N   0  0  0  0  0  0  0  0  0  0  0  0
   22.6935  -21.0494   -8.6004 C   0  0  0  0  0  0  0  0  0  0  0  0
   23.0094  -22.0509   -7.6964 O   0  0  0  0  0  0  0  0  0  0  0  0
   21.4647  -20.7409   -8.7336 O   0  0  0  0  0  0  0  0  0  0  0  0
  2  4  1  0
  2  1  1  6
  2  3  1  0
  4  5  1  6
  6  4  1  0
  6  7  2  0
  8  6  1  0
  9  8  1  0
 10 11  1  0
  9 10  1  1
 11 12  2  0
 11 16  1  0
 12 13  1  0
 13 14  2  0
 15 14  1  0
 16 15  2  0
 17 18  2  0
 17  9  1  0
 20 21  1  0
 20 19  1  0
 21 22  1  1
 23 24  1  6
 23 21  1  0
 24 17  1  0
 25 23  1  0
 26 25  1  0
 27 25  2  0
M  END
$$$$
