TFI.pdb
     RDKit          3D

 27 27  0  0  1  0  0  0  0  0999 V2000
   19.1238  -12.9609  -20.7529 C   0  0  0  0  0  0  0  0  0  0  0  0
   18.9669  -12.1261  -19.4986 C   0  0  1  0  0  0  0  0  0  0  0  0
   17.7180  -12.3152  -18.9109 O   0  0  0  0  0  0  0  0  0  0  0  0
   20.0821  -12.4961  -18.5472 C   0  0  2  0  0  0  0  0  0  0  0  0
   19.9489  -13.9121  -18.2744 N   0  0  0  0  0  0  0  0  0  0  0  0
   20.0519  -11.7280  -17.3001 C   0  0  0  0  0  0  0  0  0  0  0  0
   19.3692  -12.1870  -16.3310 O   0  0  0  0  0  0  0  0  0  0  0  0
   20.7151  -10.5224  -17.0809 N   0  0  0  0  0  0  0  0  0  0  0  0
   20.5474   -9.6806  -15.8700 C   0  0  1  0  0  0  0  0  0  0  0  0
   21.9341   -9.4198  -15.4233 C   0  0  0  0  0  0  0  0  0  0  0  0
   22.1747   -8.3515  -14.4713 C   0  0  0  0  0  0  0  0  0  0  0  0
   22.0513   -8.6087  -13.1241 C   0  0  0  0  0  0  0  0  0  0  0  0
   22.2607   -7.6603  -12.1450 C   0  0  0  0  0  0  0  0  0  0  0  0
   22.6141   -6.3787  -12.5311 C   0  0  0  0  0  0  0  0  0  0  0  0
   22.7365   -6.1256  -13.8813 C   0  0  0  0  0  0  0  0  0  0  0  0
   22.5278   -7.0698  -14.8494 C   0  0  0  0  0  0  0  0  0  0  0  0
   19.7343   -8.5440  -16.3043 C   0  0  0  0  0  0  0  0  0  0  0  0
   19.9734   -7.9996  -17.4405 O   0  0  0  0  0  0  0  0  0  0  0  0
   14.2879   -6.0090  -17.0336 C   0  0  0  0  0  0  0  0  0  0  0  0
   15.7527   -5.7681  -16.8029 C   0  0  0  0  0  0  0  0  0  0  0  0
   16.5229   -6.9053  -16.2642 C   0  0  2  0  0  0  0  0  0  0  0  0
   15.8407   -7.4060  -14.9911 C   0  0  0  0  0  0  0  0  0  0  0  0
   17.9855   -6.7471  -16.0880 C   0  0  2  0  0  0  0  0  0  0  0  0
   18.6531   -7.9326  -15.6016 N   0  0  0  0  0  0  0  0  0  0  0  0
   18.3145   -5.5811  -15.2818 C   0  0  0  0  0  0  0  0  0  0  0  0
   18.3884   -4.3352  -15.8836 O   0  0  0  0  0  0  0  0  0  0  0  0
   18.5402   -5.6459  -14.0297 O   0  0  0  0  0  0  0  0  0  0  0  0
  2  4  1  0
  2  1  1  6
  2  3  1  0
  4  5  1  1
  6  4  1  0
  6  7  2  0
  8  6  1  0
  9  8  1  0
 10 11  1  0
  9 10  1  6
 11 12  2  0
 11 16  1  0
 12 13  1  0
 13 14  2  0
 15 14  1  0
 16 15  2  0
 17 18  2  0
 17  9  1  0
 20 21  1  0
 20 19  1  0
 21 22  1  1
 23 24  1  1
 23 21  1  0
 24 17  1  0
 25 23  1  0
 26 25  1  0
 27 25  2  0
M  END
$$$$
