TFI.pdb
     RDKit          3D

 27 27  0  0  1  0  0  0  0  0999 V2000
   28.1173  -18.9437  -17.9931 C   0  0  0  0  0  0  0  0  0  0  0  0
   27.2175  -19.5358  -16.9280 C   0  0  1  0  0  0  0  0  0  0  0  0
   26.0992  -20.1507  -17.4868 O   0  0  0  0  0  0  0  0  0  0  0  0
   28.0342  -20.5161  -16.1169 C   0  0  2  0  0  0  0  0  0  0  0  0
   28.4171  -21.5868  -17.0137 N   0  0  0  0  0  0  0  0  0  0  0  0
   27.3095  -21.0492  -14.9607 C   0  0  0  0  0  0  0  0  0  0  0  0
   26.6927  -22.1523  -15.0978 O   0  0  0  0  0  0  0  0  0  0  0  0
   27.2366  -20.4447  -13.7076 N   0  0  0  0  0  0  0  0  0  0  0  0
   26.4159  -20.9498  -12.5787 C   0  0  1  0  0  0  0  0  0  0  0  0
   27.1449  -20.4902  -11.3754 C   0  0  0  0  0  0  0  0  0  0  0  0
   26.4725  -20.5308  -10.0903 C   0  0  0  0  0  0  0  0  0  0  0  0
   26.0945  -19.3506   -9.4897 C   0  0  0  0  0  0  0  0  0  0  0  0
   25.4504  -19.2875   -8.2719 C   0  0  0  0  0  0  0  0  0  0  0  0
   25.1658  -20.4711   -7.6127 C   0  0  0  0  0  0  0  0  0  0  0  0
   25.5462  -21.6506   -8.2177 C   0  0  0  0  0  0  0  0  0  0  0  0
   26.1852  -21.7085   -9.4263 C   0  0  0  0  0  0  0  0  0  0  0  0
   25.0717  -20.4229  -12.8175 C   0  0  0  0  0  0  0  0  0  0  0  0
   24.9196  -19.1687  -13.0371 O   0  0  0  0  0  0  0  0  0  0  0  0
   22.5910  -21.0100  -16.7183 C   0  0  0  0  0  0  0  0  0  0  0  0
   22.5073  -20.1323  -15.5021 C   0  0  0  0  0  0  0  0  0  0  0  0
   21.9093  -20.7417  -14.2989 C   0  0  2  0  0  0  0  0  0  0  0  0
   20.4174  -20.4095  -14.2656 C   0  0  0  0  0  0  0  0  0  0  0  0
   22.5623  -20.5071  -12.9898 C   0  0  2  0  0  0  0  0  0  0  0  0
   23.8464  -21.1539  -12.8464 N   0  0  0  0  0  0  0  0  0  0  0  0
   21.6797  -20.8214  -11.8763 C   0  0  0  0  0  0  0  0  0  0  0  0
   21.9073  -21.9651  -11.1280 O   0  0  0  0  0  0  0  0  0  0  0  0
   20.6926  -20.0869  -11.5460 O   0  0  0  0  0  0  0  0  0  0  0  0
  2  4  1  0
  2  1  1  6
  2  3  1  0
  4  5  1  6
  6  4  1  0
  6  7  2  0
  8  6  1  0
  9  8  1  0
 10 11  1  0
  9 10  1  1
 11 12  2  0
 11 16  1  0
 12 13  1  0
 13 14  2  0
 15 14  1  0
 16 15  2  0
 17 18  2  0
 17  9  1  0
 20 21  1  0
 20 19  1  0
 21 22  1  1
 23 24  1  1
 23 21  1  0
 24 17  1  0
 25 23  1  0
 26 25  1  0
 27 25  2  0
M  END
$$$$
