TFI.pdb
     RDKit          3D

 27 27  0  0  1  0  0  0  0  0999 V2000
   28.4767  -19.1303  -15.0484 C   0  0  0  0  0  0  0  0  0  0  0  0
   27.7110  -19.6176  -13.8355 C   0  0  1  0  0  0  0  0  0  0  0  0
   26.4024  -19.9662  -14.1627 O   0  0  0  0  0  0  0  0  0  0  0  0
   28.4609  -20.7920  -13.2490 C   0  0  2  0  0  0  0  0  0  0  0  0
   28.3174  -21.8902  -14.1820 N   0  0  0  0  0  0  0  0  0  0  0  0
   27.9752  -21.1790  -11.9221 C   0  0  0  0  0  0  0  0  0  0  0  0
   27.1758  -22.1640  -11.8413 O   0  0  0  0  0  0  0  0  0  0  0  0
   28.3178  -20.5531  -10.7254 N   0  0  0  0  0  0  0  0  0  0  0  0
   27.6882  -20.8479   -9.4140 C   0  0  1  0  0  0  0  0  0  0  0  0
   28.6327  -20.2750   -8.4291 C   0  0  0  0  0  0  0  0  0  0  0  0
   28.2156  -20.1568   -7.0443 C   0  0  0  0  0  0  0  0  0  0  0  0
   28.4150  -21.2164   -6.1875 C   0  0  0  0  0  0  0  0  0  0  0  0
   28.0541  -21.1985   -4.8567 C   0  0  0  0  0  0  0  0  0  0  0  0
   27.4588  -20.0566   -4.3486 C   0  0  0  0  0  0  0  0  0  0  0  0
   27.2610  -18.9980   -5.2102 C   0  0  0  0  0  0  0  0  0  0  0  0
   27.6207  -19.0201   -6.5302 C   0  0  0  0  0  0  0  0  0  0  0  0
   26.3437  -20.2760   -9.4982 C   0  0  0  0  0  0  0  0  0  0  0  0
   26.2094  -19.0167   -9.6991 O   0  0  0  0  0  0  0  0  0  0  0  0
   21.9564  -19.5882  -12.9981 C   0  0  0  0  0  0  0  0  0  0  0  0
   22.2562  -19.5956  -11.5261 C   0  0  0  0  0  0  0  0  0  0  0  0
   23.4885  -20.2954  -11.1158 C   0  0  2  0  0  0  0  0  0  0  0  0
   23.4991  -21.6886  -11.7449 C   0  0  0  0  0  0  0  0  0  0  0  0
   23.8339  -20.3311   -9.6754 C   0  0  2  0  0  0  0  0  0  0  0  0
   25.0995  -20.9659   -9.3874 N   0  0  0  0  0  0  0  0  0  0  0  0
   22.7597  -20.8941   -8.8711 C   0  0  0  0  0  0  0  0  0  0  0  0
   21.4814  -20.3703   -8.9787 O   0  0  0  0  0  0  0  0  0  0  0  0
   22.9347  -21.8611   -8.0605 O   0  0  0  0  0  0  0  0  0  0  0  0
  2  4  1  0
  2  1  1  6
  2  3  1  0
  4  5  1  6
  6  4  1  0
  6  7  2  0
  8  6  1  0
  9  8  1  0
 10 11  1  0
  9 10  1  1
 11 12  2  0
 11 16  1  0
 12 13  1  0
 13 14  2  0
 15 14  1  0
 16 15  2  0
 17 18  2  0
 17  9  1  0
 20 21  1  0
 20 19  1  0
 21 22  1  1
 23 24  1  6
 23 21  1  0
 24 17  1  0
 25 23  1  0
 26 25  1  0
 27 25  2  0
M  END
$$$$
