TFI.pdb
     RDKit          3D

 27 27  0  0  1  0  0  0  0  0999 V2000
   28.6895  -20.4021  -18.4723 C   0  0  0  0  0  0  0  0  0  0  0  0
   27.6685  -20.6630  -17.3841 C   0  0  1  0  0  0  0  0  0  0  0  0
   26.4470  -21.0709  -17.9157 O   0  0  0  0  0  0  0  0  0  0  0  0
   28.2360  -21.7076  -16.4501 C   0  0  2  0  0  0  0  0  0  0  0  0
   28.3542  -22.9330  -17.2126 N   0  0  0  0  0  0  0  0  0  0  0  0
   27.4110  -21.9219  -15.2586 C   0  0  0  0  0  0  0  0  0  0  0  0
   26.6428  -22.9345  -15.2369 O   0  0  0  0  0  0  0  0  0  0  0  0
   27.3949  -21.1018  -14.1324 N   0  0  0  0  0  0  0  0  0  0  0  0
   26.5162  -21.3108  -12.9546 C   0  0  1  0  0  0  0  0  0  0  0  0
   27.2534  -20.6700  -11.8426 C   0  0  0  0  0  0  0  0  0  0  0  0
   26.6186  -20.5794  -10.5410 C   0  0  0  0  0  0  0  0  0  0  0  0
   26.2864  -19.3414  -10.0377 C   0  0  0  0  0  0  0  0  0  0  0  0
   25.6804  -19.1542   -8.8132 C   0  0  0  0  0  0  0  0  0  0  0  0
   25.3878  -20.2671   -8.0436 C   0  0  0  0  0  0  0  0  0  0  0  0
   25.7223  -21.5050   -8.5514 C   0  0  0  0  0  0  0  0  0  0  0  0
   26.3236  -21.6860   -9.7672 C   0  0  0  0  0  0  0  0  0  0  0  0
   25.2204  -20.7508  -13.3402 C   0  0  0  0  0  0  0  0  0  0  0  0
   25.1806  -19.6209  -13.9454 O   0  0  0  0  0  0  0  0  0  0  0  0
   20.6791  -19.6788  -16.1586 C   0  0  0  0  0  0  0  0  0  0  0  0
   20.6841  -20.6437  -15.0072 C   0  0  0  0  0  0  0  0  0  0  0  0
   21.9956  -21.2089  -14.6367 C   0  0  2  0  0  0  0  0  0  0  0  0
   21.8688  -22.7292  -14.5377 C   0  0  0  0  0  0  0  0  0  0  0  0
   22.7101  -20.6318  -13.4741 C   0  0  2  0  0  0  0  0  0  0  0  0
   23.9306  -21.3236  -13.1286 N   0  0  0  0  0  0  0  0  0  0  0  0
   21.8380  -20.4797  -12.3191 C   0  0  0  0  0  0  0  0  0  0  0  0
   21.0096  -19.3724  -12.2317 O   0  0  0  0  0  0  0  0  0  0  0  0
   21.7936  -21.3262  -11.3682 O   0  0  0  0  0  0  0  0  0  0  0  0
  2  4  1  0
  2  1  1  6
  2  3  1  0
  4  5  1  6
  6  4  1  0
  6  7  2  0
  8  6  1  0
  9  8  1  0
 10 11  1  0
  9 10  1  1
 11 12  2  0
 11 16  1  0
 12 13  1  0
 13 14  2  0
 15 14  1  0
 16 15  2  0
 17 18  2  0
 17  9  1  0
 20 21  1  0
 20 19  1  0
 21 22  1  1
 23 24  1  1
 23 21  1  0
 24 17  1  0
 25 23  1  0
 26 25  1  0
 27 25  2  0
M  END
$$$$
