TFI.pdb
     RDKit          3D

 27 27  0  0  1  0  0  0  0  0999 V2000
   28.6986  -18.9822  -14.8924 C   0  0  0  0  0  0  0  0  0  0  0  0
   28.0063  -19.4615  -13.6331 C   0  0  1  0  0  0  0  0  0  0  0  0
   26.7091  -19.8963  -13.8962 O   0  0  0  0  0  0  0  0  0  0  0  0
   28.8433  -20.5668  -13.0303 C   0  0  2  0  0  0  0  0  0  0  0  0
   28.8034  -21.6777  -13.9586 N   0  0  0  0  0  0  0  0  0  0  0  0
   28.3743  -20.9863  -11.7073 C   0  0  0  0  0  0  0  0  0  0  0  0
   27.7498  -22.0898  -11.6159 O   0  0  0  0  0  0  0  0  0  0  0  0
   28.5554  -20.2717  -10.5251 N   0  0  0  0  0  0  0  0  0  0  0  0
   27.9798  -20.6600   -9.2133 C   0  0  1  0  0  0  0  0  0  0  0  0
   28.8407  -19.9678   -8.2282 C   0  0  0  0  0  0  0  0  0  0  0  0
   28.4372  -19.9504   -6.8345 C   0  0  0  0  0  0  0  0  0  0  0  0
   28.8043  -20.9933   -6.0134 C   0  0  0  0  0  0  0  0  0  0  0  0
   28.4699  -21.0653   -4.6774 C   0  0  0  0  0  0  0  0  0  0  0  0
   27.7251  -20.0368   -4.1262 C   0  0  0  0  0  0  0  0  0  0  0  0
   27.3596  -18.9945   -4.9521 C   0  0  0  0  0  0  0  0  0  0  0  0
   27.6936  -18.9272   -6.2774 C   0  0  0  0  0  0  0  0  0  0  0  0
   26.5685  -20.2802   -9.2875 C   0  0  0  0  0  0  0  0  0  0  0  0
   26.2593  -19.0680   -9.5695 O   0  0  0  0  0  0  0  0  0  0  0  0
   23.9290  -20.8389  -13.2545 C   0  0  0  0  0  0  0  0  0  0  0  0
   24.4092  -20.4583  -11.8829 C   0  0  0  0  0  0  0  0  0  0  0  0
   23.6314  -20.9928  -10.7488 C   0  0  2  0  0  0  0  0  0  0  0  0
   22.1556  -20.6530  -10.9575 C   0  0  0  0  0  0  0  0  0  0  0  0
   24.0859  -20.6837   -9.3729 C   0  0  2  0  0  0  0  0  0  0  0  0
   25.4328  -21.1199   -9.0842 N   0  0  0  0  0  0  0  0  0  0  0  0
   23.1451  -21.1575   -8.3688 C   0  0  0  0  0  0  0  0  0  0  0  0
   21.8365  -20.7027   -8.3926 O   0  0  0  0  0  0  0  0  0  0  0  0
   23.4659  -21.9842   -7.4542 O   0  0  0  0  0  0  0  0  0  0  0  0
  2  4  1  0
  2  1  1  6
  2  3  1  0
  4  5  1  6
  6  4  1  0
  6  7  2  0
  8  6  1  0
  9  8  1  0
 10 11  1  0
  9 10  1  1
 11 12  2  0
 11 16  1  0
 12 13  1  0
 13 14  2  0
 15 14  1  0
 16 15  2  0
 17 18  2  0
 17  9  1  0
 20 21  1  0
 20 19  1  0
 21 22  1  1
 23 24  1  1
 23 21  1  0
 24 17  1  0
 25 23  1  0
 26 25  1  0
 27 25  2  0
M  END
$$$$
