CNN.pdb
     RDKit          3D

 23 22  0  0  1  0  0  0  0  0999 V2000
    7.8577  -13.5249   16.5417 N   0  0  0  0  0  0  0  0  0  0  0  0
    8.4031  -13.3064   17.8640 C   0  0  1  0  0  0  0  0  0  0  0  0
    7.2821  -13.4119   18.8488 C   0  0  0  0  0  0  0  0  0  0  0  0
    7.8629  -12.8841   20.4884 S   0  0  0  0  0  0  0  0  0  0  0  0
    9.4880  -14.2705   18.0830 C   0  0  0  0  0  0  0  0  0  0  0  0
   10.2099  -14.6077   17.1148 O   0  0  0  0  0  0  0  0  0  0  0  0
   14.2096  -15.3685   18.9215 N   0  0  0  0  0  0  0  0  0  0  0  0
   13.4985  -14.6444   19.9044 C   0  0  0  0  0  0  0  0  0  0  0  0
   14.0301  -14.4217   21.0029 O   0  0  0  0  0  0  0  0  0  0  0  0
   12.1428  -14.1674   19.6102 C   0  0  0  0  0  0  0  0  0  0  0  0
   11.0730  -15.2324   19.7606 C   0  0  2  0  0  0  0  0  0  0  0  0
    9.7695  -14.8505   19.3476 N   0  0  0  0  0  0  0  0  0  0  0  0
   11.0951  -15.8333   21.1235 C   0  0  0  0  0  0  0  0  0  0  0  0
   11.2130  -15.0900   22.1590 O   0  0  0  0  0  0  0  0  0  0  0  0
   12.5828  -20.3846   21.3684 N   0  0  0  0  0  0  0  0  0  0  0  0
   13.5426  -19.3252   21.1738 C   0  0  0  0  0  0  0  0  0  0  0  0
   14.5775  -19.6982   20.5496 O   0  0  0  0  0  0  0  0  0  0  0  0
   13.2869  -17.9642   21.6748 C   0  0  0  0  0  0  0  0  0  0  0  0
   11.9310  -17.8588   22.2788 C   0  0  2  0  0  0  0  0  0  0  0  0
   10.9901  -17.2230   21.3501 N   0  0  0  0  0  0  0  0  0  0  0  0
   11.9841  -16.9314   23.4473 C   0  0  0  0  0  0  0  0  0  0  0  0
   11.5821  -17.3530   24.6840 O   0  0  0  0  0  0  0  0  0  0  0  0
   12.3989  -15.7689   23.2786 O   0  0  0  0  0  0  0  0  0  0  0  0
  2  1  1  6
  2  3  1  0
  4  3  1  0
  5 12  1  0
  5  2  1  0
  6  5  2  0
  8  7  1  0
  8 10  1  0
  9  8  2  0
 11 13  1  0
 11 10  1  1
 11 12  1  0
 13 20  1  0
 14 13  2  0
 16 17  2  0
 16 15  1  0
 18 16  1  0
 19 18  1  6
 20 19  1  0
 21 22  1  0
 21 19  1  0
 23 21  2  0
M  END
$$$$
