CNN.pdb
     RDKit          3D

 23 22  0  0  1  0  0  0  0  0999 V2000
    7.7758  -13.2108   18.5337 N   0  0  0  0  0  0  0  0  0  0  0  0
    8.7947  -13.5772   19.4936 C   0  0  1  0  0  0  0  0  0  0  0  0
    8.1796  -13.5390   20.8566 C   0  0  0  0  0  0  0  0  0  0  0  0
    7.4664  -11.8938   21.1547 S   0  0  0  0  0  0  0  0  0  0  0  0
    9.3376  -14.8875   19.1159 C   0  0  0  0  0  0  0  0  0  0  0  0
    8.9079  -15.4515   18.0817 O   0  0  0  0  0  0  0  0  0  0  0  0
   14.7907  -14.5079   19.5705 N   0  0  0  0  0  0  0  0  0  0  0  0
   13.6758  -14.2067   18.7565 C   0  0  0  0  0  0  0  0  0  0  0  0
   13.8460  -13.9691   17.5510 O   0  0  0  0  0  0  0  0  0  0  0  0
   12.3345  -14.1799   19.3502 C   0  0  0  0  0  0  0  0  0  0  0  0
   11.7133  -15.5532   19.5215 C   0  0  2  0  0  0  0  0  0  0  0  0
   10.3362  -15.5613   19.8666 N   0  0  0  0  0  0  0  0  0  0  0  0
   12.5387  -16.4130   20.4152 C   0  0  0  0  0  0  0  0  0  0  0  0
   13.7797  -16.6047   20.1670 O   0  0  0  0  0  0  0  0  0  0  0  0
   15.5925  -15.4508   21.6752 N   0  0  0  0  0  0  0  0  0  0  0  0
   14.7274  -15.7472   22.7911 C   0  0  0  0  0  0  0  0  0  0  0  0
   15.3211  -16.3370   23.7396 O   0  0  0  0  0  0  0  0  0  0  0  0
   13.3026  -15.3754   22.7702 C   0  0  0  0  0  0  0  0  0  0  0  0
   12.4312  -16.5762   22.8846 C   0  0  2  0  0  0  0  0  0  0  0  0
   12.0158  -17.0520   21.5606 N   0  0  0  0  0  0  0  0  0  0  0  0
   11.1556  -16.1954   23.5600 C   0  0  0  0  0  0  0  0  0  0  0  0
   10.6386  -16.9782   24.5542 O   0  0  0  0  0  0  0  0  0  0  0  0
   10.5697  -15.1552   23.2038 O   0  0  0  0  0  0  0  0  0  0  0  0
  2  1  1  6
  2  3  1  0
  4  3  1  0
  5 12  1  0
  5  2  1  0
  6  5  2  0
  8  7  1  0
  8 10  1  0
  9  8  2  0
 11 13  1  0
 11 10  1  1
 11 12  1  0
 13 20  1  0
 14 13  2  0
 16 17  2  0
 16 15  1  0
 18 16  1  0
 19 18  1  6
 20 19  1  0
 21 22  1  0
 21 19  1  0
 23 21  2  0
M  END
$$$$
