CNN.pdb
     RDKit          3D

 23 22  0  0  1  0  0  0  0  0999 V2000
    7.8275  -14.4432   17.8059 N   0  0  0  0  0  0  0  0  0  0  0  0
    8.8660  -13.6374   18.4108 C   0  0  1  0  0  0  0  0  0  0  0  0
    8.4048  -13.2403   19.7772 C   0  0  0  0  0  0  0  0  0  0  0  0
    6.9877  -12.1108   19.6351 S   0  0  0  0  0  0  0  0  0  0  0  0
   10.1159  -14.4067   18.3984 C   0  0  0  0  0  0  0  0  0  0  0  0
   10.0665  -15.6497   18.2405 O   0  0  0  0  0  0  0  0  0  0  0  0
   14.8736  -16.1499   18.4540 N   0  0  0  0  0  0  0  0  0  0  0  0
   14.9107  -14.9255   17.7500 C   0  0  0  0  0  0  0  0  0  0  0  0
   15.9223  -14.6265   17.0973 O   0  0  0  0  0  0  0  0  0  0  0  0
   13.7520  -14.0271   17.8022 C   0  0  0  0  0  0  0  0  0  0  0  0
   12.6005  -14.5610   18.6329 C   0  0  2  0  0  0  0  0  0  0  0  0
   11.3957  -13.8137   18.5574 N   0  0  0  0  0  0  0  0  0  0  0  0
   13.0249  -14.8339   20.0345 C   0  0  0  0  0  0  0  0  0  0  0  0
   13.7668  -14.0007   20.6622 O   0  0  0  0  0  0  0  0  0  0  0  0
   12.0062  -18.1040   25.1502 N   0  0  0  0  0  0  0  0  0  0  0  0
   12.3747  -16.9681   24.3406 C   0  0  0  0  0  0  0  0  0  0  0  0
   13.0016  -16.0785   24.9851 O   0  0  0  0  0  0  0  0  0  0  0  0
   12.0276  -16.9071   22.9107 C   0  0  0  0  0  0  0  0  0  0  0  0
   13.0408  -16.1332   22.1435 C   0  0  2  0  0  0  0  0  0  0  0  0
   12.6446  -15.9978   20.7375 N   0  0  0  0  0  0  0  0  0  0  0  0
   14.3176  -16.9052   22.0973 C   0  0  0  0  0  0  0  0  0  0  0  0
   15.4589  -16.3883   22.6437 O   0  0  0  0  0  0  0  0  0  0  0  0
   14.3274  -18.0260   21.5532 O   0  0  0  0  0  0  0  0  0  0  0  0
  2  1  1  1
  2  3  1  0
  4  3  1  0
  5 12  1  0
  5  2  1  0
  6  5  2  0
  8  7  1  0
  8 10  1  0
  9  8  2  0
 11 13  1  0
 11 10  1  1
 11 12  1  0
 13 20  1  0
 14 13  2  0
 16 17  2  0
 16 15  1  0
 18 16  1  0
 19 18  1  1
 20 19  1  0
 21 22  1  0
 21 19  1  0
 23 21  2  0
M  END
$$$$
