CNN.pdb
     RDKit          3D

 23 22  0  0  1  0  0  0  0  0999 V2000
    6.6756  -21.6510   16.7534 N   0  0  0  0  0  0  0  0  0  0  0  0
    6.4071  -20.8877   17.9530 C   0  0  1  0  0  0  0  0  0  0  0  0
    5.0408  -21.2557   18.4379 C   0  0  0  0  0  0  0  0  0  0  0  0
    3.8000  -20.2333   17.5898 S   0  0  0  0  0  0  0  0  0  0  0  0
    7.4793  -21.1517   18.9200 C   0  0  0  0  0  0  0  0  0  0  0  0
    7.8632  -22.3319   19.0991 O   0  0  0  0  0  0  0  0  0  0  0  0
   12.0484  -19.2167   22.2983 N   0  0  0  0  0  0  0  0  0  0  0  0
   11.3821  -20.2261   21.5679 C   0  0  0  0  0  0  0  0  0  0  0  0
   11.6064  -21.4179   21.8287 O   0  0  0  0  0  0  0  0  0  0  0  0
   10.4355  -19.8484   20.5127 C   0  0  0  0  0  0  0  0  0  0  0  0
    9.0349  -20.3914   20.7238 C   0  0  2  0  0  0  0  0  0  0  0  0
    8.1148  -20.1310   19.6744 N   0  0  0  0  0  0  0  0  0  0  0  0
    8.5048  -20.0153   22.0643 C   0  0  0  0  0  0  0  0  0  0  0  0
    7.3009  -19.5998   22.1933 O   0  0  0  0  0  0  0  0  0  0  0  0
    5.4052  -19.8577   23.2945 N   0  0  0  0  0  0  0  0  0  0  0  0
    6.1456  -20.2178   24.4792 C   0  0  0  0  0  0  0  0  0  0  0  0
    5.6437  -19.7509   25.5422 O   0  0  0  0  0  0  0  0  0  0  0  0
    7.3583  -21.0492   24.3963 C   0  0  0  0  0  0  0  0  0  0  0  0
    8.5881  -20.2223   24.5313 C   0  0  2  0  0  0  0  0  0  0  0  0
    9.2780  -20.0923   23.2432 N   0  0  0  0  0  0  0  0  0  0  0  0
    9.5655  -20.9342   25.4065 C   0  0  0  0  0  0  0  0  0  0  0  0
   10.1183  -20.3009   26.4844 O   0  0  0  0  0  0  0  0  0  0  0  0
    9.8701  -22.1124   25.1397 O   0  0  0  0  0  0  0  0  0  0  0  0
  2  1  1  6
  2  3  1  0
  4  3  1  0
  5 12  1  0
  5  2  1  0
  6  5  2  0
  8  7  1  0
  8 10  1  0
  9  8  2  0
 11 13  1  0
 11 10  1  6
 11 12  1  0
 13 20  1  0
 14 13  2  0
 16 17  2  0
 16 15  1  0
 18 16  1  0
 19 18  1  6
 20 19  1  0
 21 22  1  0
 21 19  1  0
 23 21  2  0
M  END
$$$$
