CNN.pdb
     RDKit          3D

 23 22  0  0  1  0  0  0  0  0999 V2000
    8.1133  -14.4600   16.9167 N   0  0  0  0  0  0  0  0  0  0  0  0
    8.8037  -13.8166   18.0135 C   0  0  1  0  0  0  0  0  0  0  0  0
    7.8626  -13.7472   19.1740 C   0  0  0  0  0  0  0  0  0  0  0  0
    6.6521  -12.4201   18.8954 S   0  0  0  0  0  0  0  0  0  0  0  0
   10.0386  -14.5620   18.2849 C   0  0  0  0  0  0  0  0  0  0  0  0
   10.1130  -15.7659   17.9424 O   0  0  0  0  0  0  0  0  0  0  0  0
   15.1544  -15.6478   18.6518 N   0  0  0  0  0  0  0  0  0  0  0  0
   14.8050  -14.7028   19.6424 C   0  0  0  0  0  0  0  0  0  0  0  0
   15.5313  -14.5650   20.6385 O   0  0  0  0  0  0  0  0  0  0  0  0
   13.5887  -13.8994   19.4770 C   0  0  0  0  0  0  0  0  0  0  0  0
   12.3343  -14.7249   19.2622 C   0  0  2  0  0  0  0  0  0  0  0  0
   11.1694  -13.9878   18.9225 N   0  0  0  0  0  0  0  0  0  0  0  0
   12.1106  -15.6730   20.3893 C   0  0  0  0  0  0  0  0  0  0  0  0
   11.6612  -16.8509   20.1674 O   0  0  0  0  0  0  0  0  0  0  0  0
   10.6577  -19.6536   23.0365 N   0  0  0  0  0  0  0  0  0  0  0  0
   10.6709  -18.2479   23.3603 C   0  0  0  0  0  0  0  0  0  0  0  0
   10.4106  -18.0134   24.5756 O   0  0  0  0  0  0  0  0  0  0  0  0
   10.9652  -17.2327   22.3348 C   0  0  0  0  0  0  0  0  0  0  0  0
   12.0487  -16.3153   22.7809 C   0  0  2  0  0  0  0  0  0  0  0  0
   12.3739  -15.3387   21.7356 N   0  0  0  0  0  0  0  0  0  0  0  0
   13.3080  -17.0951   22.9659 C   0  0  0  0  0  0  0  0  0  0  0  0
   14.3260  -16.5946   23.7285 O   0  0  0  0  0  0  0  0  0  0  0  0
   13.4173  -18.2072   22.4150 O   0  0  0  0  0  0  0  0  0  0  0  0
  2  1  1  6
  2  3  1  0
  4  3  1  0
  5 12  1  0
  5  2  1  0
  6  5  2  0
  8  7  1  0
  8 10  1  0
  9  8  2  0
 11 13  1  0
 11 10  1  1
 11 12  1  0
 13 20  1  0
 14 13  2  0
 16 17  2  0
 16 15  1  0
 18 16  1  0
 19 18  1  6
 20 19  1  0
 21 22  1  0
 21 19  1  0
 23 21  2  0
M  END
$$$$
