CNN.pdb
     RDKit          3D

 23 22  0  0  1  0  0  0  0  0999 V2000
    7.3231  -13.9974   16.3869 N   0  0  0  0  0  0  0  0  0  0  0  0
    8.4921  -13.9260   17.2365 C   0  0  1  0  0  0  0  0  0  0  0  0
    8.2571  -12.8569   18.2559 C   0  0  0  0  0  0  0  0  0  0  0  0
    9.6119  -12.8652   19.4677 S   0  0  0  0  0  0  0  0  0  0  0  0
    8.7329  -15.2570   17.8063 C   0  0  0  0  0  0  0  0  0  0  0  0
    7.8063  -15.8340   18.4234 O   0  0  0  0  0  0  0  0  0  0  0  0
    9.5355  -18.5490   15.2924 N   0  0  0  0  0  0  0  0  0  0  0  0
    9.3915  -18.6925   16.6906 C   0  0  0  0  0  0  0  0  0  0  0  0
    8.3160  -19.0999   17.1554 O   0  0  0  0  0  0  0  0  0  0  0  0
   10.5166  -18.3576   17.5706 C   0  0  0  0  0  0  0  0  0  0  0  0
   10.2845  -17.1203   18.4169 C   0  0  2  0  0  0  0  0  0  0  0  0
    9.9739  -15.9373   17.6960 N   0  0  0  0  0  0  0  0  0  0  0  0
   11.3839  -16.9249   19.4030 C   0  0  0  0  0  0  0  0  0  0  0  0
   12.6075  -16.9941   19.0334 O   0  0  0  0  0  0  0  0  0  0  0  0
   12.7691  -13.8308   19.7581 N   0  0  0  0  0  0  0  0  0  0  0  0
   13.4130  -14.5394   20.8372 C   0  0  0  0  0  0  0  0  0  0  0  0
   14.6711  -14.5935   20.7179 O   0  0  0  0  0  0  0  0  0  0  0  0
   12.6304  -15.1206   21.9410 C   0  0  0  0  0  0  0  0  0  0  0  0
   12.2992  -16.5465   21.6735 C   0  0  2  0  0  0  0  0  0  0  0  0
   11.1492  -16.6582   20.7695 N   0  0  0  0  0  0  0  0  0  0  0  0
   11.8408  -17.1906   22.9397 C   0  0  0  0  0  0  0  0  0  0  0  0
   10.5589  -17.6505   23.0574 O   0  0  0  0  0  0  0  0  0  0  0  0
   12.6428  -17.3019   23.8866 O   0  0  0  0  0  0  0  0  0  0  0  0
  2  1  1  6
  2  3  1  0
  4  3  1  0
  5 12  1  0
  5  2  1  0
  6  5  2  0
  8  7  1  0
  8 10  1  0
  9  8  2  0
 11 13  1  0
 11 10  1  6
 11 12  1  0
 13 20  1  0
 14 13  2  0
 16 17  2  0
 16 15  1  0
 18 16  1  0
 19 18  1  1
 20 19  1  0
 21 22  1  0
 21 19  1  0
 23 21  2  0
M  END
$$$$
