CNN.pdb
     RDKit          3D

 23 22  0  0  1  0  0  0  0  0999 V2000
    6.1180  -15.0429   25.9437 N   0  0  0  0  0  0  0  0  0  0  0  0
    6.7962  -14.1122   25.0677 C   0  0  1  0  0  0  0  0  0  0  0  0
    7.5133  -13.1143   25.9207 C   0  0  0  0  0  0  0  0  0  0  0  0
    6.3041  -12.1637   26.8894 S   0  0  0  0  0  0  0  0  0  0  0  0
    7.6719  -14.8749   24.1700 C   0  0  0  0  0  0  0  0  0  0  0  0
    7.7396  -16.1206   24.2959 O   0  0  0  0  0  0  0  0  0  0  0  0
    7.3294  -12.8633   19.8106 N   0  0  0  0  0  0  0  0  0  0  0  0
    7.8145  -14.1543   20.1174 C   0  0  0  0  0  0  0  0  0  0  0  0
    7.1261  -15.1478   19.8386 O   0  0  0  0  0  0  0  0  0  0  0  0
    9.1250  -14.2993   20.7608 C   0  0  0  0  0  0  0  0  0  0  0  0
    9.0733  -15.0036   22.1033 C   0  0  2  0  0  0  0  0  0  0  0  0
    8.4575  -14.2723   23.1528 N   0  0  0  0  0  0  0  0  0  0  0  0
   10.4082  -15.5458   22.4819 C   0  0  0  0  0  0  0  0  0  0  0  0
   11.0524  -16.3054   21.6779 O   0  0  0  0  0  0  0  0  0  0  0  0
   12.8824  -19.2920   25.5498 N   0  0  0  0  0  0  0  0  0  0  0  0
   12.9358  -18.4041   24.4141 C   0  0  0  0  0  0  0  0  0  0  0  0
   14.0372  -18.4528   23.7941 O   0  0  0  0  0  0  0  0  0  0  0  0
   11.7896  -17.5495   24.0607 C   0  0  0  0  0  0  0  0  0  0  0  0
   12.1431  -16.1074   24.1584 C   0  0  2  0  0  0  0  0  0  0  0  0
   11.0279  -15.2619   23.7185 N   0  0  0  0  0  0  0  0  0  0  0  0
   13.2422  -15.8042   23.1949 C   0  0  0  0  0  0  0  0  0  0  0  0
   13.2166  -16.3231   21.9305 O   0  0  0  0  0  0  0  0  0  0  0  0
   14.1822  -15.0727   23.5602 O   0  0  0  0  0  0  0  0  0  0  0  0
  2  1  1  1
  2  3  1  0
  4  3  1  0
  5 12  1  0
  5  2  1  0
  6  5  2  0
  8  7  1  0
  8 10  1  0
  9  8  2  0
 11 13  1  0
 11 10  1  6
 11 12  1  0
 13 20  1  0
 14 13  2  0
 16 17  2  0
 16 15  1  0
 18 16  1  0
 19 18  1  6
 20 19  1  0
 21 22  1  0
 21 19  1  0
 23 21  2  0
M  END
$$$$
