CNN.pdb
     RDKit          3D

 23 22  0  0  1  0  0  0  0  0999 V2000
    8.8425  -14.6474   17.7512 N   0  0  0  0  0  0  0  0  0  0  0  0
    9.8466  -13.7839   18.3340 C   0  0  1  0  0  0  0  0  0  0  0  0
    9.2722  -13.1815   19.5769 C   0  0  0  0  0  0  0  0  0  0  0  0
    7.8161  -12.1808   19.1494 S   0  0  0  0  0  0  0  0  0  0  0  0
   11.0641  -14.5729   18.5560 C   0  0  0  0  0  0  0  0  0  0  0  0
   10.9705  -15.8163   18.6876 O   0  0  0  0  0  0  0  0  0  0  0  0
   14.8505  -13.8022   15.6898 N   0  0  0  0  0  0  0  0  0  0  0  0
   14.6799  -14.7756   16.6996 C   0  0  0  0  0  0  0  0  0  0  0  0
   14.4660  -15.9552   16.3811 O   0  0  0  0  0  0  0  0  0  0  0  0
   14.7588  -14.3756   18.1089 C   0  0  0  0  0  0  0  0  0  0  0  0
   13.5318  -14.7464   18.9201 C   0  0  2  0  0  0  0  0  0  0  0  0
   12.3601  -13.9986   18.6308 N   0  0  0  0  0  0  0  0  0  0  0  0
   13.8407  -14.7972   20.3765 C   0  0  0  0  0  0  0  0  0  0  0  0
   14.0692  -13.7203   21.0297 O   0  0  0  0  0  0  0  0  0  0  0  0
   13.4853  -18.1096   25.4792 N   0  0  0  0  0  0  0  0  0  0  0  0
   13.6037  -16.8832   24.7288 C   0  0  0  0  0  0  0  0  0  0  0  0
   14.0367  -15.9158   25.4191 O   0  0  0  0  0  0  0  0  0  0  0  0
   13.2410  -16.8248   23.3027 C   0  0  0  0  0  0  0  0  0  0  0  0
   14.1734  -15.9459   22.5458 C   0  0  2  0  0  0  0  0  0  0  0  0
   13.8986  -16.0047   21.1060 N   0  0  0  0  0  0  0  0  0  0  0  0
   15.5637  -16.4722   22.6809 C   0  0  0  0  0  0  0  0  0  0  0  0
   16.5026  -15.7730   23.3868 O   0  0  0  0  0  0  0  0  0  0  0  0
   15.8553  -17.5563   22.1406 O   0  0  0  0  0  0  0  0  0  0  0  0
  2  1  1  1
  2  3  1  0
  4  3  1  0
  5 12  1  0
  5  2  1  0
  6  5  2  0
  8  7  1  0
  8 10  1  0
  9  8  2  0
 11 13  1  0
 11 10  1  6
 11 12  1  0
 13 20  1  0
 14 13  2  0
 16 17  2  0
 16 15  1  0
 18 16  1  0
 19 18  1  1
 20 19  1  0
 21 22  1  0
 21 19  1  0
 23 21  2  0
M  END
$$$$
