CNN.pdb
     RDKit          3D

 23 22  0  0  1  0  0  0  0  0999 V2000
    8.2824  -14.4222   17.9197 N   0  0  0  0  0  0  0  0  0  0  0  0
    8.9379  -13.9907   19.1354 C   0  0  1  0  0  0  0  0  0  0  0  0
    7.9589  -13.1812   19.9251 C   0  0  0  0  0  0  0  0  0  0  0  0
    7.3865  -11.7757   18.9246 S   0  0  0  0  0  0  0  0  0  0  0  0
    9.4407  -15.1777   19.8371 C   0  0  0  0  0  0  0  0  0  0  0  0
    9.5493  -16.2578   19.2097 O   0  0  0  0  0  0  0  0  0  0  0  0
   13.6029  -16.5945   20.5975 N   0  0  0  0  0  0  0  0  0  0  0  0
   13.1572  -15.3174   20.1891 C   0  0  0  0  0  0  0  0  0  0  0  0
   13.5629  -14.8427   19.1174 O   0  0  0  0  0  0  0  0  0  0  0  0
   12.2213  -14.5732   21.0392 C   0  0  0  0  0  0  0  0  0  0  0  0
   11.1366  -15.4356   21.6563 C   0  0  2  0  0  0  0  0  0  0  0  0
    9.8165  -15.1708   21.2060 N   0  0  0  0  0  0  0  0  0  0  0  0
   11.2464  -15.4629   23.1417 C   0  0  0  0  0  0  0  0  0  0  0  0
   12.3137  -15.8881   23.7062 O   0  0  0  0  0  0  0  0  0  0  0  0
    6.6982  -17.4758   25.0105 N   0  0  0  0  0  0  0  0  0  0  0  0
    7.8245  -17.9090   24.2199 C   0  0  0  0  0  0  0  0  0  0  0  0
    7.9183  -19.1673   24.1327 O   0  0  0  0  0  0  0  0  0  0  0  0
    8.7399  -16.9357   23.6005 C   0  0  0  0  0  0  0  0  0  0  0  0
    9.3473  -16.0417   24.6232 C   0  0  2  0  0  0  0  0  0  0  0  0
   10.2070  -15.0325   23.9950 N   0  0  0  0  0  0  0  0  0  0  0  0
   10.2737  -16.8362   25.4828 C   0  0  0  0  0  0  0  0  0  0  0  0
   11.2945  -17.5522   24.9225 O   0  0  0  0  0  0  0  0  0  0  0  0
   10.1022  -16.8375   26.7168 O   0  0  0  0  0  0  0  0  0  0  0  0
  2  1  1  6
  2  3  1  0
  4  3  1  0
  5 12  1  0
  5  2  1  0
  6  5  2  0
  8  7  1  0
  8 10  1  0
  9  8  2  0
 11 13  1  0
 11 10  1  1
 11 12  1  0
 13 20  1  0
 14 13  2  0
 16 17  2  0
 16 15  1  0
 18 16  1  0
 19 18  1  6
 20 19  1  0
 21 22  1  0
 21 19  1  0
 23 21  2  0
M  END
$$$$
