CNN.pdb
     RDKit          3D

 23 22  0  0  1  0  0  0  0  0999 V2000
   11.2422  -16.5952   14.6813 N   0  0  0  0  0  0  0  0  0  0  0  0
   10.3047  -17.2391   15.5758 C   0  0  1  0  0  0  0  0  0  0  0  0
   10.6805  -18.6835   15.6765 C   0  0  0  0  0  0  0  0  0  0  0  0
    9.4866  -19.5487   16.7395 S   0  0  0  0  0  0  0  0  0  0  0  0
   10.3204  -16.5234   16.8571 C   0  0  0  0  0  0  0  0  0  0  0  0
   11.4066  -16.0715   17.2910 O   0  0  0  0  0  0  0  0  0  0  0  0
    7.3646  -12.4133   18.9478 N   0  0  0  0  0  0  0  0  0  0  0  0
    7.6756  -13.6511   18.3415 C   0  0  0  0  0  0  0  0  0  0  0  0
    7.7670  -13.7204   17.1064 O   0  0  0  0  0  0  0  0  0  0  0  0
    7.8855  -14.8346   19.1826 C   0  0  0  0  0  0  0  0  0  0  0  0
    9.1619  -15.5911   18.8672 C   0  0  2  0  0  0  0  0  0  0  0  0
    9.1580  -16.3113   17.6437 N   0  0  0  0  0  0  0  0  0  0  0  0
    9.6000  -16.4201   20.0249 C   0  0  0  0  0  0  0  0  0  0  0  0
    9.0022  -17.5180   20.3005 O   0  0  0  0  0  0  0  0  0  0  0  0
   12.7530  -16.6835   25.2046 N   0  0  0  0  0  0  0  0  0  0  0  0
   12.4985  -17.2554   23.9049 C   0  0  0  0  0  0  0  0  0  0  0  0
   12.5787  -18.5177   23.8909 O   0  0  0  0  0  0  0  0  0  0  0  0
   12.1815  -16.4032   22.7464 C   0  0  0  0  0  0  0  0  0  0  0  0
   10.9699  -16.8920   22.0341 C   0  0  2  0  0  0  0  0  0  0  0  0
   10.6732  -16.0548   20.8665 N   0  0  0  0  0  0  0  0  0  0  0  0
    9.7796  -16.7297   22.9201 C   0  0  0  0  0  0  0  0  0  0  0  0
    9.2227  -17.8152   23.5365 O   0  0  0  0  0  0  0  0  0  0  0  0
    9.3017  -15.5915   23.0885 O   0  0  0  0  0  0  0  0  0  0  0  0
  2  1  1  6
  2  3  1  0
  4  3  1  0
  5 12  1  0
  5  2  1  0
  6  5  2  0
  8  7  1  0
  8 10  1  0
  9  8  2  0
 11 13  1  0
 11 10  1  1
 11 12  1  0
 13 20  1  0
 14 13  2  0
 16 17  2  0
 16 15  1  0
 18 16  1  0
 19 18  1  1
 20 19  1  0
 21 22  1  0
 21 19  1  0
 23 21  2  0
M  END
$$$$
