CNN.pdb
     RDKit          3D

 23 22  0  0  1  0  0  0  0  0999 V2000
    8.7764  -15.0140   25.9060 N   0  0  0  0  0  0  0  0  0  0  0  0
    7.6401  -14.1467   25.6820 C   0  0  1  0  0  0  0  0  0  0  0  0
    7.9694  -12.8002   26.2443 C   0  0  0  0  0  0  0  0  0  0  0  0
    8.7609  -12.9979   27.8687 S   0  0  0  0  0  0  0  0  0  0  0  0
    7.3377  -14.1405   24.2458 C   0  0  0  0  0  0  0  0  0  0  0  0
    6.4684  -13.3500   23.8081 O   0  0  0  0  0  0  0  0  0  0  0  0
    6.4385  -13.6683   19.3999 N   0  0  0  0  0  0  0  0  0  0  0  0
    7.6954  -13.3135   19.9390 C   0  0  0  0  0  0  0  0  0  0  0  0
    8.5928  -12.9114   19.1830 O   0  0  0  0  0  0  0  0  0  0  0  0
    7.9189  -13.4261   21.3845 C   0  0  0  0  0  0  0  0  0  0  0  0
    7.8554  -14.8497   21.9047 C   0  0  2  0  0  0  0  0  0  0  0  0
    7.9838  -14.9917   23.3114 N   0  0  0  0  0  0  0  0  0  0  0  0
    8.7743  -15.7444   21.1468 C   0  0  0  0  0  0  0  0  0  0  0  0
    8.9540  -15.5769   19.8905 O   0  0  0  0  0  0  0  0  0  0  0  0
   13.5853  -15.6433   23.8503 N   0  0  0  0  0  0  0  0  0  0  0  0
   12.8883  -15.4976   22.5956 C   0  0  0  0  0  0  0  0  0  0  0  0
   13.6641  -15.3330   21.6102 O   0  0  0  0  0  0  0  0  0  0  0  0
   11.4178  -15.5445   22.5311 C   0  0  0  0  0  0  0  0  0  0  0  0
   10.9499  -16.7432   21.7836 C   0  0  2  0  0  0  0  0  0  0  0  0
    9.4845  -16.8039   21.7524 N   0  0  0  0  0  0  0  0  0  0  0  0
   11.3574  -17.9740   22.5235 C   0  0  0  0  0  0  0  0  0  0  0  0
   12.6696  -18.3546   22.5635 O   0  0  0  0  0  0  0  0  0  0  0  0
   10.4845  -18.6486   23.1025 O   0  0  0  0  0  0  0  0  0  0  0  0
  2  1  1  6
  2  3  1  0
  4  3  1  0
  5 12  1  0
  5  2  1  0
  6  5  2  0
  8  7  1  0
  8 10  1  0
  9  8  2  0
 11 13  1  0
 11 10  1  1
 11 12  1  0
 13 20  1  0
 14 13  2  0
 16 17  2  0
 16 15  1  0
 18 16  1  0
 19 18  1  1
 20 19  1  0
 21 22  1  0
 21 19  1  0
 23 21  2  0
M  END
$$$$
