CNN.pdb
     RDKit          3D

 23 22  0  0  1  0  0  0  0  0999 V2000
    8.0065  -14.9263   19.0277 N   0  0  0  0  0  0  0  0  0  0  0  0
    8.6601  -14.4260   20.2178 C   0  0  1  0  0  0  0  0  0  0  0  0
    7.8342  -13.3032   20.7605 C   0  0  0  0  0  0  0  0  0  0  0  0
    8.0447  -11.8331   19.7123 S   0  0  0  0  0  0  0  0  0  0  0  0
    8.8421  -15.5439   21.1512 C   0  0  0  0  0  0  0  0  0  0  0  0
    8.0751  -16.5330   21.0765 O   0  0  0  0  0  0  0  0  0  0  0  0
   12.5386  -18.9110   21.4829 N   0  0  0  0  0  0  0  0  0  0  0  0
   11.5121  -17.9483   21.3576 C   0  0  0  0  0  0  0  0  0  0  0  0
   11.5963  -17.0762   20.4796 O   0  0  0  0  0  0  0  0  0  0  0  0
   10.3626  -17.9957   22.2679 C   0  0  0  0  0  0  0  0  0  0  0  0
   10.0970  -16.6869   22.9872 C   0  0  2  0  0  0  0  0  0  0  0  0
    9.8524  -15.5681   22.1481 N   0  0  0  0  0  0  0  0  0  0  0  0
   11.1340  -16.4178   24.0223 C   0  0  0  0  0  0  0  0  0  0  0  0
   11.9307  -15.4233   23.9000 O   0  0  0  0  0  0  0  0  0  0  0  0
   10.6037  -13.9842   28.4820 N   0  0  0  0  0  0  0  0  0  0  0  0
   10.2795  -15.3720   28.2581 C   0  0  0  0  0  0  0  0  0  0  0  0
   10.1066  -16.0230   29.3287 O   0  0  0  0  0  0  0  0  0  0  0  0
   10.1741  -15.9194   26.8949 C   0  0  0  0  0  0  0  0  0  0  0  0
   11.4463  -16.5671   26.4751 C   0  0  2  0  0  0  0  0  0  0  0  0
   11.2970  -17.2223   25.1711 N   0  0  0  0  0  0  0  0  0  0  0  0
   11.7650  -17.6808   27.4166 C   0  0  0  0  0  0  0  0  0  0  0  0
   12.2173  -17.4121   28.6782 O   0  0  0  0  0  0  0  0  0  0  0  0
   11.6135  -18.8571   27.0353 O   0  0  0  0  0  0  0  0  0  0  0  0
  2  1  1  6
  2  3  1  0
  4  3  1  0
  5 12  1  0
  5  2  1  0
  6  5  2  0
  8  7  1  0
  8 10  1  0
  9  8  2  0
 11 13  1  0
 11 10  1  6
 11 12  1  0
 13 20  1  0
 14 13  2  0
 16 17  2  0
 16 15  1  0
 18 16  1  0
 19 18  1  1
 20 19  1  0
 21 22  1  0
 21 19  1  0
 23 21  2  0
M  END
$$$$
