CNN.pdb
     RDKit          3D

 23 22  0  0  1  0  0  0  0  0999 V2000
    6.7837  -16.4830   20.9668 N   0  0  0  0  0  0  0  0  0  0  0  0
    7.8256  -15.9625   20.1082 C   0  0  1  0  0  0  0  0  0  0  0  0
    8.4213  -14.7655   20.7789 C   0  0  0  0  0  0  0  0  0  0  0  0
    7.1641  -13.4602   20.9193 S   0  0  0  0  0  0  0  0  0  0  0  0
    8.7852  -17.0399   19.8386 C   0  0  0  0  0  0  0  0  0  0  0  0
    8.7055  -18.1066   20.4928 O   0  0  0  0  0  0  0  0  0  0  0  0
    9.9810  -18.1233   15.1292 N   0  0  0  0  0  0  0  0  0  0  0  0
   10.3231  -18.7434   16.3518 C   0  0  0  0  0  0  0  0  0  0  0  0
    9.7978  -19.8252   16.6560 O   0  0  0  0  0  0  0  0  0  0  0  0
   11.2943  -18.0980   17.2419 C   0  0  0  0  0  0  0  0  0  0  0  0
   10.8046  -17.9371   18.6685 C   0  0  2  0  0  0  0  0  0  0  0  0
    9.8130  -16.9402   18.8646 N   0  0  0  0  0  0  0  0  0  0  0  0
   11.9433  -17.8155   19.6213 C   0  0  0  0  0  0  0  0  0  0  0  0
   13.1346  -18.1000   19.2491 O   0  0  0  0  0  0  0  0  0  0  0  0
   14.1722  -15.8599   24.5940 N   0  0  0  0  0  0  0  0  0  0  0  0
   14.3609  -15.8150   23.1645 C   0  0  0  0  0  0  0  0  0  0  0  0
   15.5739  -15.7011   22.8247 O   0  0  0  0  0  0  0  0  0  0  0  0
   13.2160  -15.8981   22.2420 C   0  0  0  0  0  0  0  0  0  0  0  0
   12.9674  -17.3026   21.8178 C   0  0  2  0  0  0  0  0  0  0  0  0
   11.7820  -17.3899   20.9579 N   0  0  0  0  0  0  0  0  0  0  0  0
   12.6196  -18.1236   23.0150 C   0  0  0  0  0  0  0  0  0  0  0  0
   13.5790  -18.8610   23.6508 O   0  0  0  0  0  0  0  0  0  0  0  0
   11.4431  -18.1270   23.4250 O   0  0  0  0  0  0  0  0  0  0  0  0
  2  1  1  1
  2  3  1  0
  4  3  1  0
  5 12  1  0
  5  2  1  0
  6  5  2  0
  8  7  1  0
  8 10  1  0
  9  8  2  0
 11 13  1  0
 11 10  1  6
 11 12  1  0
 13 20  1  0
 14 13  2  0
 16 17  2  0
 16 15  1  0
 18 16  1  0
 19 18  1  1
 20 19  1  0
 21 22  1  0
 21 19  1  0
 23 21  2  0
M  END
$$$$
