PLK.pdb
     RDKit          3D

 25 25  0  0  1  0  0  0  0  0999 V2000
   28.4907  -20.9278  -16.9711 N   0  0  0  0  0  0  0  0  0  0  0  0
   28.7667  -20.3070  -18.2371 C   0  0  0  0  0  0  0  0  0  0  0  0
   28.2085  -18.9018  -18.1797 C   0  0  0  0  0  0  0  0  0  0  0  0
   27.1807  -19.0413  -17.0501 C   0  0  0  0  0  0  0  0  0  0  0  0
   27.9281  -19.9485  -16.1002 C   0  0  1  0  0  0  0  0  0  0  0  0
   27.0280  -20.5729  -15.1000 C   0  0  0  0  0  0  0  0  0  0  0  0
   26.4314  -21.6291  -15.4300 O   0  0  0  0  0  0  0  0  0  0  0  0
   25.4483  -20.1188   -9.0118 C   0  0  0  0  0  0  0  0  0  0  0  0
   25.2721  -20.7037  -10.3777 C   0  0  2  0  0  0  0  0  0  0  0  0
   25.1855  -22.2118  -10.3190 C   0  0  0  0  0  0  0  0  0  0  0  0
   26.1810  -20.1927  -11.4224 C   0  0  0  0  0  0  0  0  0  0  0  0
   25.9034  -20.5466  -12.8355 C   0  0  2  0  0  0  0  0  0  0  0  0
   26.8198  -20.0283  -13.8039 N   0  0  0  0  0  0  0  0  0  0  0  0
   24.4756  -20.2686  -13.1830 C   0  0  0  0  0  0  0  0  0  0  0  0
   24.1390  -19.0587  -13.2575 O   0  0  0  0  0  0  0  0  0  0  0  0
   23.5325  -21.2885  -13.4202 N   0  0  0  0  0  0  0  0  0  0  0  0
   22.1449  -20.9508  -13.7825 C   0  0  1  0  0  0  0  0  0  0  0  0
   21.5986  -22.0123  -14.7016 C   0  0  0  0  0  0  0  0  0  0  0  0
   20.1492  -21.8092  -15.0551 C   0  0  0  0  0  0  0  0  0  0  0  0
   19.7247  -22.9000  -16.0529 C   0  0  0  0  0  0  0  0  0  0  0  0
   18.3183  -22.5758  -16.4983 C   0  0  0  0  0  0  0  0  0  0  0  0
   17.9399  -23.5475  -17.5229 N   0  0  0  0  0  0  0  0  0  0  0  0
   21.3577  -20.7193  -12.5697 C   0  0  0  0  0  0  0  0  0  0  0  0
   20.3439  -19.7857  -12.4469 O   0  0  0  0  0  0  0  0  0  0  0  0
   21.5740  -21.3989  -11.5035 O   0  0  0  0  0  0  0  0  0  0  0  0
  1  2  1  0
  1  5  1  0
  2  3  1  0
  3  4  1  0
  5  4  1  0
  5  6  1  1
  6 13  1  0
  7  6  2  0
  9  8  1  1
  9 10  1  0
 12 11  1  1
 11  9  1  0
 12 13  1  0
 14 12  1  0
 15 14  2  0
 16 14  1  0
 17 23  1  0
 17 16  1  0
 17 18  1  1
 19 18  1  0
 20 19  1  0
 21 20  1  0
 22 21  1  0
 23 24  1  0
 25 23  2  0
M  END
$$$$
