PLK.pdb
     RDKit          3D

 25 25  0  0  1  0  0  0  0  0999 V2000
   21.0879  -14.0777  -18.1117 N   0  0  0  0  0  0  0  0  0  0  0  0
   20.2657  -14.7367  -19.0884 C   0  0  0  0  0  0  0  0  0  0  0  0
   19.9426  -13.7212  -20.1626 C   0  0  0  0  0  0  0  0  0  0  0  0
   20.1815  -12.4089  -19.4058 C   0  0  0  0  0  0  0  0  0  0  0  0
   21.4018  -12.7719  -18.5916 C   0  0  1  0  0  0  0  0  0  0  0  0
   21.6261  -11.8271  -17.4702 C   0  0  0  0  0  0  0  0  0  0  0  0
   20.8536  -11.9006  -16.4811 O   0  0  0  0  0  0  0  0  0  0  0  0
   24.4159  -10.8091  -14.0780 C   0  0  0  0  0  0  0  0  0  0  0  0
   24.9904  -10.3727  -15.3888 C   0  0  2  0  0  0  0  0  0  0  0  0
   26.4429   -9.9794  -15.2448 C   0  0  0  0  0  0  0  0  0  0  0  0
   24.1800   -9.4117  -16.1624 C   0  0  0  0  0  0  0  0  0  0  0  0
   22.7945   -9.7910  -16.5308 C   0  0  2  0  0  0  0  0  0  0  0  0
   22.6659  -10.8582  -17.4746 N   0  0  0  0  0  0  0  0  0  0  0  0
   21.9953   -8.5847  -16.9088 C   0  0  0  0  0  0  0  0  0  0  0  0
   22.1520   -8.1486  -18.0784 O   0  0  0  0  0  0  0  0  0  0  0  0
   21.1046   -7.9474  -16.0220 N   0  0  0  0  0  0  0  0  0  0  0  0
   20.3026   -6.7958  -16.4708 C   0  0  1  0  0  0  0  0  0  0  0  0
   18.8450   -7.0726  -16.2089 C   0  0  0  0  0  0  0  0  0  0  0  0
   17.9466   -5.9104  -16.5399 C   0  0  0  0  0  0  0  0  0  0  0  0
   16.5033   -6.2735  -16.1521 C   0  0  0  0  0  0  0  0  0  0  0  0
   15.6394   -5.0769  -16.4739 C   0  0  0  0  0  0  0  0  0  0  0  0
   14.2488   -5.4498  -16.2201 N   0  0  0  0  0  0  0  0  0  0  0  0
   20.8166   -5.5664  -15.8634 C   0  0  0  0  0  0  0  0  0  0  0  0
   20.8898   -4.3382  -16.4964 O   0  0  0  0  0  0  0  0  0  0  0  0
   21.2488   -5.5584  -14.6558 O   0  0  0  0  0  0  0  0  0  0  0  0
  1  2  1  0
  1  5  1  0
  2  3  1  0
  3  4  1  0
  5  4  1  0
  5  6  1  1
  6 13  1  0
  7  6  2  0
  9  8  1  1
  9 10  1  0
 12 11  1  6
 11  9  1  0
 12 13  1  0
 14 12  1  0
 15 14  2  0
 16 14  1  0
 17 23  1  0
 17 16  1  0
 17 18  1  1
 19 18  1  0
 20 19  1  0
 21 20  1  0
 22 21  1  0
 23 24  1  0
 25 23  2  0
M  END
$$$$
