PLK.pdb
     RDKit          3D

 25 25  0  0  1  0  0  0  0  0999 V2000
   26.4893  -17.7023  -16.3579 N   0  0  0  0  0  0  0  0  0  0  0  0
   27.2409  -16.5536  -16.7817 C   0  0  0  0  0  0  0  0  0  0  0  0
   28.6725  -17.0015  -16.9801 C   0  0  0  0  0  0  0  0  0  0  0  0
   28.7030  -18.2722  -16.1218 C   0  0  0  0  0  0  0  0  0  0  0  0
   27.3378  -18.8468  -16.4216 C   0  0  1  0  0  0  0  0  0  0  0  0
   26.9330  -19.8715  -15.4282 C   0  0  0  0  0  0  0  0  0  0  0  0
   27.4143  -21.0263  -15.5510 O   0  0  0  0  0  0  0  0  0  0  0  0
   24.8005  -20.5057   -9.6909 C   0  0  0  0  0  0  0  0  0  0  0  0
   25.4341  -21.1095  -10.9045 C   0  0  2  0  0  0  0  0  0  0  0  0
   26.5092  -22.1015  -10.5231 C   0  0  0  0  0  0  0  0  0  0  0  0
   25.8362  -20.1628  -11.9631 C   0  0  0  0  0  0  0  0  0  0  0  0
   25.6180  -20.5501  -13.3779 C   0  0  2  0  0  0  0  0  0  0  0  0
   26.0354  -19.5982  -14.3607 N   0  0  0  0  0  0  0  0  0  0  0  0
   24.2153  -21.0234  -13.5897 C   0  0  0  0  0  0  0  0  0  0  0  0
   23.8576  -22.0370  -12.9358 O   0  0  0  0  0  0  0  0  0  0  0  0
   23.3170  -20.3876  -14.4699 N   0  0  0  0  0  0  0  0  0  0  0  0
   22.0020  -20.9878  -14.7548 C   0  0  1  0  0  0  0  0  0  0  0  0
   20.9548  -19.9049  -14.7743 C   0  0  0  0  0  0  0  0  0  0  0  0
   19.5949  -20.3953  -15.1953 C   0  0  0  0  0  0  0  0  0  0  0  0
   18.8374  -20.8860  -13.9500 C   0  0  0  0  0  0  0  0  0  0  0  0
   17.4720  -21.3415  -14.4078 C   0  0  0  0  0  0  0  0  0  0  0  0
   16.7291  -21.7798  -13.2274 N   0  0  0  0  0  0  0  0  0  0  0  0
   22.0787  -21.7948  -15.9743 C   0  0  0  0  0  0  0  0  0  0  0  0
   23.1132  -21.7510  -16.8920 O   0  0  0  0  0  0  0  0  0  0  0  0
   21.1482  -22.6249  -16.2751 O   0  0  0  0  0  0  0  0  0  0  0  0
  1  2  1  0
  1  5  1  0
  2  3  1  0
  3  4  1  0
  5  4  1  0
  5  6  1  1
  6 13  1  0
  7  6  2  0
  9  8  1  1
  9 10  1  0
 12 11  1  1
 11  9  1  0
 12 13  1  0
 14 12  1  0
 15 14  2  0
 16 14  1  0
 17 23  1  0
 17 16  1  0
 17 18  1  6
 19 18  1  0
 20 19  1  0
 21 20  1  0
 22 21  1  0
 23 24  1  0
 25 23  2  0
M  END
$$$$
