PLK.pdb
     RDKit          3D

 25 25  0  0  1  0  0  0  0  0999 V2000
   27.9602  -20.1093  -16.0274 N   0  0  0  0  0  0  0  0  0  0  0  0
   29.2275  -20.1216  -16.7041 C   0  0  0  0  0  0  0  0  0  0  0  0
   29.5545  -21.5649  -17.0194 C   0  0  0  0  0  0  0  0  0  0  0  0
   28.6712  -22.2945  -15.9998 C   0  0  0  0  0  0  0  0  0  0  0  0
   27.4299  -21.4332  -16.0359 C   0  0  1  0  0  0  0  0  0  0  0  0
   26.5530  -21.6682  -14.8627 C   0  0  0  0  0  0  0  0  0  0  0  0
   25.7743  -22.6542  -14.9037 O   0  0  0  0  0  0  0  0  0  0  0  0
   25.9734  -19.9246   -8.8624 C   0  0  0  0  0  0  0  0  0  0  0  0
   25.4303  -20.6124  -10.0752 C   0  0  2  0  0  0  0  0  0  0  0  0
   24.8697  -21.9724   -9.7267 C   0  0  0  0  0  0  0  0  0  0  0  0
   26.3020  -20.6074  -11.2663 C   0  0  0  0  0  0  0  0  0  0  0  0
   25.7177  -21.0010  -12.5713 C   0  0  2  0  0  0  0  0  0  0  0  0
   26.5622  -20.8320  -13.7135 N   0  0  0  0  0  0  0  0  0  0  0  0
   24.3659  -20.3885  -12.7554 C   0  0  0  0  0  0  0  0  0  0  0  0
   24.3141  -19.1316  -12.7722 O   0  0  0  0  0  0  0  0  0  0  0  0
   23.1921  -21.1539  -12.9049 N   0  0  0  0  0  0  0  0  0  0  0  0
   21.9166  -20.5025  -13.2503 C   0  0  1  0  0  0  0  0  0  0  0  0
   21.4158  -21.0530  -14.5603 C   0  0  0  0  0  0  0  0  0  0  0  0
   20.0568  -20.5331  -14.9473 C   0  0  0  0  0  0  0  0  0  0  0  0
   19.5776  -21.2833  -16.2014 C   0  0  0  0  0  0  0  0  0  0  0  0
   18.2370  -20.7026  -16.5850 C   0  0  0  0  0  0  0  0  0  0  0  0
   17.8528  -21.2797  -17.8721 N   0  0  0  0  0  0  0  0  0  0  0  0
   20.9794  -20.6221  -12.1316 C   0  0  0  0  0  0  0  0  0  0  0  0
   19.8886  -19.7982  -11.9176 O   0  0  0  0  0  0  0  0  0  0  0  0
   21.1238  -21.5384  -11.2456 O   0  0  0  0  0  0  0  0  0  0  0  0
  1  2  1  0
  1  5  1  0
  2  3  1  0
  3  4  1  0
  5  4  1  0
  5  6  1  1
  6 13  1  0
  7  6  2  0
  9  8  1  1
  9 10  1  0
 12 11  1  1
 11  9  1  0
 12 13  1  0
 14 12  1  0
 15 14  2  0
 16 14  1  0
 17 23  1  0
 17 16  1  0
 17 18  1  6
 19 18  1  0
 20 19  1  0
 21 20  1  0
 22 21  1  0
 23 24  1  0
 25 23  2  0
M  END
$$$$
