PLK.pdb
     RDKit          3D

 25 25  0  0  1  0  0  0  0  0999 V2000
   27.0737  -18.9466  -15.3519 N   0  0  0  0  0  0  0  0  0  0  0  0
   28.4247  -18.5353  -15.6160 C   0  0  0  0  0  0  0  0  0  0  0  0
   29.2459  -19.7906  -15.8144 C   0  0  0  0  0  0  0  0  0  0  0  0
   28.3681  -20.8294  -15.1056 C   0  0  0  0  0  0  0  0  0  0  0  0
   26.9911  -20.3609  -15.5159 C   0  0  1  0  0  0  0  0  0  0  0  0
   25.9266  -20.9396  -14.6601 C   0  0  0  0  0  0  0  0  0  0  0  0
   25.6438  -22.1540  -14.8205 O   0  0  0  0  0  0  0  0  0  0  0  0
   25.9148  -22.3638  -10.7104 C   0  0  0  0  0  0  0  0  0  0  0  0
   25.7017  -20.8831  -10.6790 C   0  0  2  0  0  0  0  0  0  0  0  0
   25.9203  -20.3291   -9.2896 C   0  0  0  0  0  0  0  0  0  0  0  0
   24.4752  -20.3921  -11.3371 C   0  0  0  0  0  0  0  0  0  0  0  0
   24.2633  -20.7155  -12.7688 C   0  0  2  0  0  0  0  0  0  0  0  0
   25.2269  -20.1824  -13.6819 N   0  0  0  0  0  0  0  0  0  0  0  0
   22.8548  -20.4228  -13.1777 C   0  0  0  0  0  0  0  0  0  0  0  0
   22.5239  -19.2102  -13.2310 O   0  0  0  0  0  0  0  0  0  0  0  0
   21.9233  -21.4321  -13.4927 N   0  0  0  0  0  0  0  0  0  0  0  0
   20.5508  -21.0799  -13.8963 C   0  0  1  0  0  0  0  0  0  0  0  0
   19.8816  -22.2909  -14.4927 C   0  0  0  0  0  0  0  0  0  0  0  0
   18.9997  -21.9681  -15.6697 C   0  0  0  0  0  0  0  0  0  0  0  0
   18.5437  -23.2836  -16.3230 C   0  0  0  0  0  0  0  0  0  0  0  0
   17.8239  -22.9223  -17.6008 C   0  0  0  0  0  0  0  0  0  0  0  0
   17.2629  -24.1513  -18.1595 N   0  0  0  0  0  0  0  0  0  0  0  0
   19.8411  -20.4757  -12.7669 C   0  0  0  0  0  0  0  0  0  0  0  0
   18.8030  -19.5674  -12.8753 O   0  0  0  0  0  0  0  0  0  0  0  0
   20.1568  -20.7665  -11.5581 O   0  0  0  0  0  0  0  0  0  0  0  0
  1  2  1  0
  1  5  1  0
  2  3  1  0
  3  4  1  0
  5  4  1  0
  5  6  1  1
  6 13  1  0
  7  6  2  0
  9  8  1  1
  9 10  1  0
 12 11  1  1
 11  9  1  0
 12 13  1  0
 14 12  1  0
 15 14  2  0
 16 14  1  0
 17 23  1  0
 17 16  1  0
 17 18  1  1
 19 18  1  0
 20 19  1  0
 21 20  1  0
 22 21  1  0
 23 24  1  0
 25 23  2  0
M  END
$$$$
