PLK.pdb
     RDKit          3D

 25 25  0  0  1  0  0  0  0  0999 V2000
   27.7122  -19.5765  -16.0147 N   0  0  0  0  0  0  0  0  0  0  0  0
   28.9894  -19.3537  -16.6338 C   0  0  0  0  0  0  0  0  0  0  0  0
   29.6125  -20.7106  -16.8794 C   0  0  0  0  0  0  0  0  0  0  0  0
   28.8412  -21.5731  -15.8729 C   0  0  0  0  0  0  0  0  0  0  0  0
   27.4569  -20.9795  -15.9965 C   0  0  1  0  0  0  0  0  0  0  0  0
   26.5857  -21.3521  -14.8551 C   0  0  0  0  0  0  0  0  0  0  0  0
   26.0276  -22.4781  -14.8895 O   0  0  0  0  0  0  0  0  0  0  0  0
   25.5726  -19.8609   -8.8787 C   0  0  0  0  0  0  0  0  0  0  0  0
   25.2232  -20.6499  -10.1011 C   0  0  2  0  0  0  0  0  0  0  0  0
   25.0400  -22.1140   -9.7722 C   0  0  0  0  0  0  0  0  0  0  0  0
   26.0576  -20.4000  -11.2927 C   0  0  0  0  0  0  0  0  0  0  0  0
   25.5368  -20.8109  -12.6190 C   0  0  2  0  0  0  0  0  0  0  0  0
   26.3635  -20.4956  -13.7430 N   0  0  0  0  0  0  0  0  0  0  0  0
   24.1216  -20.3615  -12.7973 C   0  0  0  0  0  0  0  0  0  0  0  0
   23.9214  -19.1195  -12.8058 O   0  0  0  0  0  0  0  0  0  0  0  0
   23.0463  -21.2595  -12.9503 N   0  0  0  0  0  0  0  0  0  0  0  0
   21.6780  -20.7549  -13.1600 C   0  0  1  0  0  0  0  0  0  0  0  0
   20.9348  -21.6971  -14.0710 C   0  0  0  0  0  0  0  0  0  0  0  0
   19.5342  -21.2435  -14.3865 C   0  0  0  0  0  0  0  0  0  0  0  0
   18.8206  -22.3522  -15.1783 C   0  0  0  0  0  0  0  0  0  0  0  0
   17.4304  -21.8525  -15.4937 C   0  0  0  0  0  0  0  0  0  0  0  0
   16.7464  -22.8920  -16.2611 N   0  0  0  0  0  0  0  0  0  0  0  0
   21.0356  -20.5108  -11.8669 C   0  0  0  0  0  0  0  0  0  0  0  0
   20.2388  -19.4195  -11.5693 O   0  0  0  0  0  0  0  0  0  0  0  0
   21.1828  -21.3316  -10.8922 O   0  0  0  0  0  0  0  0  0  0  0  0
  1  2  1  0
  1  5  1  0
  2  3  1  0
  3  4  1  0
  5  4  1  0
  5  6  1  1
  6 13  1  0
  7  6  2  0
  9  8  1  1
  9 10  1  0
 12 11  1  1
 11  9  1  0
 12 13  1  0
 14 12  1  0
 15 14  2  0
 16 14  1  0
 17 23  1  0
 17 16  1  0
 17 18  1  1
 19 18  1  0
 20 19  1  0
 21 20  1  0
 22 21  1  0
 23 24  1  0
 25 23  2  0
M  END
$$$$
