PLK.pdb
     RDKit          3D

 25 25  0  0  1  0  0  0  0  0999 V2000
   26.9627  -18.5425  -15.4701 N   0  0  0  0  0  0  0  0  0  0  0  0
   28.2713  -18.0483  -15.7974 C   0  0  0  0  0  0  0  0  0  0  0  0
   29.1615  -19.2503  -16.0259 C   0  0  0  0  0  0  0  0  0  0  0  0
   28.3847  -20.3370  -15.2724 C   0  0  0  0  0  0  0  0  0  0  0  0
   26.9635  -19.9606  -15.6223 C   0  0  1  0  0  0  0  0  0  0  0  0
   25.9777  -20.5987  -14.7160 C   0  0  0  0  0  0  0  0  0  0  0  0
   25.6572  -21.7919  -14.9486 O   0  0  0  0  0  0  0  0  0  0  0  0
   26.2147  -22.2160  -10.8561 C   0  0  0  0  0  0  0  0  0  0  0  0
   25.9448  -20.7562  -10.6694 C   0  0  2  0  0  0  0  0  0  0  0  0
   26.1559  -20.3413   -9.2311 C   0  0  0  0  0  0  0  0  0  0  0  0
   24.6935  -20.2483  -11.2653 C   0  0  0  0  0  0  0  0  0  0  0  0
   24.4463  -20.4945  -12.7066 C   0  0  2  0  0  0  0  0  0  0  0  0
   25.3926  -19.9202  -13.6127 N   0  0  0  0  0  0  0  0  0  0  0  0
   23.0311  -20.1717  -13.0664 C   0  0  0  0  0  0  0  0  0  0  0  0
   22.7159  -18.9538  -13.0769 O   0  0  0  0  0  0  0  0  0  0  0  0
   22.0767  -21.1594  -13.3821 N   0  0  0  0  0  0  0  0  0  0  0  0
   20.7272  -20.7751  -13.8316 C   0  0  1  0  0  0  0  0  0  0  0  0
   20.2182  -21.8012  -14.8103 C   0  0  0  0  0  0  0  0  0  0  0  0
   18.8637  -21.4671  -15.3767 C   0  0  0  0  0  0  0  0  0  0  0  0
   18.3703  -22.6572  -16.2166 C   0  0  0  0  0  0  0  0  0  0  0  0
   17.0364  -22.2654  -16.8072 C   0  0  0  0  0  0  0  0  0  0  0  0
   16.5513  -23.3934  -17.6006 N   0  0  0  0  0  0  0  0  0  0  0  0
   19.8639  -20.5471  -12.6710 C   0  0  0  0  0  0  0  0  0  0  0  0
   18.7980  -19.6656  -12.6349 O   0  0  0  0  0  0  0  0  0  0  0  0
   20.0563  -21.1795  -11.5717 O   0  0  0  0  0  0  0  0  0  0  0  0
  1  2  1  0
  1  5  1  0
  2  3  1  0
  3  4  1  0
  5  4  1  0
  5  6  1  1
  6 13  1  0
  7  6  2  0
  9  8  1  1
  9 10  1  0
 12 11  1  1
 11  9  1  0
 12 13  1  0
 14 12  1  0
 15 14  2  0
 16 14  1  0
 17 23  1  0
 17 16  1  0
 17 18  1  6
 19 18  1  0
 20 19  1  0
 21 20  1  0
 22 21  1  0
 23 24  1  0
 25 23  2  0
M  END
$$$$
