PLK.pdb
     RDKit          3D

 25 25  0  0  1  0  0  0  0  0999 V2000
   27.4205  -32.9131  -16.5650 N   0  0  0  0  0  0  0  0  0  0  0  0
   28.2509  -31.8818  -17.1226 C   0  0  0  0  0  0  0  0  0  0  0  0
   29.3061  -31.5475  -16.0908 C   0  0  0  0  0  0  0  0  0  0  0  0
   28.6365  -32.0619  -14.8105 C   0  0  0  0  0  0  0  0  0  0  0  0
   27.9852  -33.3260  -15.3221 C   0  0  1  0  0  0  0  0  0  0  0  0
   26.9396  -33.8288  -14.3978 C   0  0  0  0  0  0  0  0  0  0  0  0
   25.7414  -33.5652  -14.6723 O   0  0  0  0  0  0  0  0  0  0  0  0
   26.0900  -38.0937   -9.8905 C   0  0  0  0  0  0  0  0  0  0  0  0
   25.6241  -36.9376  -10.7182 C   0  0  2  0  0  0  0  0  0  0  0  0
   24.4287  -37.3167  -11.5623 C   0  0  0  0  0  0  0  0  0  0  0  0
   26.6729  -36.2046  -11.4540 C   0  0  0  0  0  0  0  0  0  0  0  0
   26.2738  -35.0395  -12.2802 C   0  0  2  0  0  0  0  0  0  0  0  0
   27.2396  -34.5851  -13.2325 N   0  0  0  0  0  0  0  0  0  0  0  0
   25.7433  -33.9355  -11.4220 C   0  0  0  0  0  0  0  0  0  0  0  0
   26.5944  -33.2280  -10.8239 O   0  0  0  0  0  0  0  0  0  0  0  0
   24.3663  -33.6768  -11.2712 N   0  0  0  0  0  0  0  0  0  0  0  0
   23.9070  -32.5281  -10.4712 C   0  0  1  0  0  0  0  0  0  0  0  0
   22.9507  -31.7015  -11.2911 C   0  0  0  0  0  0  0  0  0  0  0  0
   22.4629  -30.4683  -10.5781 C   0  0  0  0  0  0  0  0  0  0  0  0
   21.4989  -29.7086  -11.5049 C   0  0  0  0  0  0  0  0  0  0  0  0
   21.0589  -28.4647  -10.7696 C   0  0  0  0  0  0  0  0  0  0  0  0
   20.1525  -27.7254  -11.6465 N   0  0  0  0  0  0  0  0  0  0  0  0
   23.3760  -32.9966   -9.1895 C   0  0  0  0  0  0  0  0  0  0  0  0
   23.5156  -32.3351   -7.9823 O   0  0  0  0  0  0  0  0  0  0  0  0
   22.7226  -34.0976   -9.1094 O   0  0  0  0  0  0  0  0  0  0  0  0
  1  2  1  0
  1  5  1  0
  2  3  1  0
  3  4  1  0
  5  4  1  0
  5  6  1  1
  6 13  1  0
  7  6  2  0
  9  8  1  6
  9 10  1  0
 12 11  1  1
 11  9  1  0
 12 13  1  0
 14 12  1  0
 15 14  2  0
 16 14  1  0
 17 23  1  0
 17 16  1  0
 17 18  1  6
 19 18  1  0
 20 19  1  0
 21 20  1  0
 22 21  1  0
 23 24  1  0
 25 23  2  0
M  END
$$$$
