PLK.pdb
     RDKit          3D

 25 25  0  0  1  0  0  0  0  0999 V2000
   21.3377  -10.9888  -20.2907 N   0  0  0  0  0  0  0  0  0  0  0  0
   21.2090  -12.0912  -21.2030 C   0  0  0  0  0  0  0  0  0  0  0  0
   19.9506  -12.8420  -20.8259 C   0  0  0  0  0  0  0  0  0  0  0  0
   19.7651  -12.3902  -19.3720 C   0  0  0  0  0  0  0  0  0  0  0  0
   20.1688  -10.9375  -19.4753 C   0  0  1  0  0  0  0  0  0  0  0  0
   20.4652  -10.3448  -18.1481 C   0  0  0  0  0  0  0  0  0  0  0  0
   19.4944  -10.0985  -17.3884 O   0  0  0  0  0  0  0  0  0  0  0  0
   22.2913  -12.0000  -14.4575 C   0  0  0  0  0  0  0  0  0  0  0  0
   23.3482  -11.5855  -15.4322 C   0  0  2  0  0  0  0  0  0  0  0  0
   24.7020  -12.1268  -15.0329 C   0  0  0  0  0  0  0  0  0  0  0  0
   23.3572  -10.1583  -15.8086 C   0  0  0  0  0  0  0  0  0  0  0  0
   22.1312   -9.5776  -16.4077 C   0  0  2  0  0  0  0  0  0  0  0  0
   21.7858  -10.0506  -17.7127 N   0  0  0  0  0  0  0  0  0  0  0  0
   22.1519   -8.0848  -16.3199 C   0  0  0  0  0  0  0  0  0  0  0  0
   22.9529   -7.4863  -17.0834 O   0  0  0  0  0  0  0  0  0  0  0  0
   21.3284   -7.3579  -15.4370 N   0  0  0  0  0  0  0  0  0  0  0  0
   21.4261   -5.8896  -15.3651 C   0  0  1  0  0  0  0  0  0  0  0  0
   20.1177   -5.2823  -15.8003 C   0  0  0  0  0  0  0  0  0  0  0  0
   20.1123   -3.7773  -15.7543 C   0  0  0  0  0  0  0  0  0  0  0  0
   18.7815   -3.2685  -16.3335 C   0  0  0  0  0  0  0  0  0  0  0  0
   18.8912   -1.7668  -16.4539 C   0  0  0  0  0  0  0  0  0  0  0  0
   17.6190   -1.2669  -16.9724 N   0  0  0  0  0  0  0  0  0  0  0  0
   21.8807   -5.4873  -14.0325 C   0  0  0  0  0  0  0  0  0  0  0  0
   21.7404   -6.2446  -12.8831 O   0  0  0  0  0  0  0  0  0  0  0  0
   22.4602   -4.3581  -13.8467 O   0  0  0  0  0  0  0  0  0  0  0  0
  1  2  1  0
  1  5  1  0
  2  3  1  0
  3  4  1  0
  5  4  1  0
  5  6  1  1
  6 13  1  0
  7  6  2  0
  9  8  1  1
  9 10  1  0
 12 11  1  6
 11  9  1  0
 12 13  1  0
 14 12  1  0
 15 14  2  0
 16 14  1  0
 17 23  1  0
 17 16  1  0
 17 18  1  1
 19 18  1  0
 20 19  1  0
 21 20  1  0
 22 21  1  0
 23 24  1  0
 25 23  2  0
M  END
$$$$
