PLK.pdb
     RDKit          3D

 25 25  0  0  1  0  0  0  0  0999 V2000
   26.8202  -18.7039  -15.9686 N   0  0  0  0  0  0  0  0  0  0  0  0
   27.9944  -17.9936  -16.3939 C   0  0  0  0  0  0  0  0  0  0  0  0
   29.1536  -18.9641  -16.3323 C   0  0  0  0  0  0  0  0  0  0  0  0
   28.6079  -20.0098  -15.3521 C   0  0  0  0  0  0  0  0  0  0  0  0
   27.1624  -20.0766  -15.7881 C   0  0  1  0  0  0  0  0  0  0  0  0
   26.2995  -20.7152  -14.7643 C   0  0  0  0  0  0  0  0  0  0  0  0
   26.2659  -21.9714  -14.7299 O   0  0  0  0  0  0  0  0  0  0  0  0
   25.4525  -20.6734   -9.0779 C   0  0  0  0  0  0  0  0  0  0  0  0
   25.3588  -21.1207  -10.5027 C   0  0  2  0  0  0  0  0  0  0  0  0
   26.6294  -21.8113  -10.9431 C   0  0  0  0  0  0  0  0  0  0  0  0
   24.8532  -20.1202  -11.4628 C   0  0  0  0  0  0  0  0  0  0  0  0
   24.6352  -20.5372  -12.8692 C   0  0  2  0  0  0  0  0  0  0  0  0
   25.5225  -19.9695  -13.8369 N   0  0  0  0  0  0  0  0  0  0  0  0
   23.1959  -20.3941  -13.2495 C   0  0  0  0  0  0  0  0  0  0  0  0
   22.7485  -19.2211  -13.3313 O   0  0  0  0  0  0  0  0  0  0  0  0
   22.3588  -21.4977  -13.5090 N   0  0  0  0  0  0  0  0  0  0  0  0
   20.9438  -21.2925  -13.8643 C   0  0  1  0  0  0  0  0  0  0  0  0
   20.4285  -22.5143  -14.5796 C   0  0  0  0  0  0  0  0  0  0  0  0
   18.9722  -22.4204  -14.9506 C   0  0  0  0  0  0  0  0  0  0  0  0
   18.5316  -23.7570  -15.5710 C   0  0  0  0  0  0  0  0  0  0  0  0
   17.1250  -23.5680  -16.0879 C   0  0  0  0  0  0  0  0  0  0  0  0
   16.6908  -24.8353  -16.6731 N   0  0  0  0  0  0  0  0  0  0  0  0
   20.1838  -20.9078  -12.6731 C   0  0  0  0  0  0  0  0  0  0  0  0
   19.1156  -20.0286  -12.6622 O   0  0  0  0  0  0  0  0  0  0  0  0
   20.4796  -21.3850  -11.5198 O   0  0  0  0  0  0  0  0  0  0  0  0
  1  2  1  0
  1  5  1  0
  2  3  1  0
  3  4  1  0
  5  4  1  0
  5  6  1  1
  6 13  1  0
  7  6  2  0
  9  8  1  1
  9 10  1  0
 12 11  1  1
 11  9  1  0
 12 13  1  0
 14 12  1  0
 15 14  2  0
 16 14  1  0
 17 23  1  0
 17 16  1  0
 17 18  1  1
 19 18  1  0
 20 19  1  0
 21 20  1  0
 22 21  1  0
 23 24  1  0
 25 23  2  0
M  END
$$$$
