PLK.pdb
     RDKit          3D

 25 25  0  0  1  0  0  0  0  0999 V2000
   24.3245  -13.4831  -20.2172 N   0  0  0  0  0  0  0  0  0  0  0  0
   24.6122  -14.7639  -20.8011 C   0  0  0  0  0  0  0  0  0  0  0  0
   23.7647  -15.7879  -20.0782 C   0  0  0  0  0  0  0  0  0  0  0  0
   23.4623  -15.0464  -18.7702 C   0  0  0  0  0  0  0  0  0  0  0  0
   23.2567  -13.6405  -19.2850 C   0  0  1  0  0  0  0  0  0  0  0  0
   23.3373  -12.6315  -18.2006 C   0  0  0  0  0  0  0  0  0  0  0  0
   22.4396  -12.6468  -17.3206 O   0  0  0  0  0  0  0  0  0  0  0  0
   26.9101  -12.0096  -15.7145 C   0  0  0  0  0  0  0  0  0  0  0  0
   26.9808  -10.9909  -16.8082 C   0  0  2  0  0  0  0  0  0  0  0  0
   28.3246  -10.2986  -16.8238 C   0  0  0  0  0  0  0  0  0  0  0  0
   25.8293  -10.0735  -16.9131 C   0  0  0  0  0  0  0  0  0  0  0  0
   24.4797  -10.6536  -17.1161 C   0  0  2  0  0  0  0  0  0  0  0  0
   24.3761  -11.6647  -18.1227 N   0  0  0  0  0  0  0  0  0  0  0  0
   23.4550   -9.5753  -17.2714 C   0  0  0  0  0  0  0  0  0  0  0  0
   23.3440   -9.0638  -18.4154 O   0  0  0  0  0  0  0  0  0  0  0  0
   22.6410   -9.1336  -16.2092 N   0  0  0  0  0  0  0  0  0  0  0  0
   21.5919   -8.1260  -16.4435 C   0  0  1  0  0  0  0  0  0  0  0  0
   20.2537   -8.8125  -16.5309 C   0  0  0  0  0  0  0  0  0  0  0  0
   19.1032   -7.8589  -16.7156 C   0  0  0  0  0  0  0  0  0  0  0  0
   17.7875   -8.6539  -16.6659 C   0  0  0  0  0  0  0  0  0  0  0  0
   16.6671   -7.6828  -16.9545 C   0  0  0  0  0  0  0  0  0  0  0  0
   16.5357   -7.5722  -18.4063 N   0  0  0  0  0  0  0  0  0  0  0  0
   21.6806   -7.0726  -15.4302 C   0  0  0  0  0  0  0  0  0  0  0  0
   21.1006   -5.8206  -15.5331 O   0  0  0  0  0  0  0  0  0  0  0  0
   22.3315   -7.2588  -14.3407 O   0  0  0  0  0  0  0  0  0  0  0  0
  1  2  1  0
  1  5  1  0
  2  3  1  0
  3  4  1  0
  5  4  1  0
  5  6  1  1
  6 13  1  0
  7  6  2  0
  9  8  1  1
  9 10  1  0
 12 11  1  6
 11  9  1  0
 12 13  1  0
 14 12  1  0
 15 14  2  0
 16 14  1  0
 17 23  1  0
 17 16  1  0
 17 18  1  1
 19 18  1  0
 20 19  1  0
 21 20  1  0
 22 21  1  0
 23 24  1  0
 25 23  2  0
M  END
$$$$
