PLK.pdb
     RDKit          3D

 25 25  0  0  1  0  0  0  0  0999 V2000
   27.6546  -18.7234  -15.9928 N   0  0  0  0  0  0  0  0  0  0  0  0
   28.8930  -18.2315  -16.5300 C   0  0  0  0  0  0  0  0  0  0  0  0
   29.7443  -19.4349  -16.8713 C   0  0  0  0  0  0  0  0  0  0  0  0
   29.1016  -20.5087  -15.9848 C   0  0  0  0  0  0  0  0  0  0  0  0
   27.6408  -20.1442  -16.1158 C   0  0  1  0  0  0  0  0  0  0  0  0
   26.8126  -20.7672  -15.0545 C   0  0  0  0  0  0  0  0  0  0  0  0
   26.5289  -21.9860  -15.1749 O   0  0  0  0  0  0  0  0  0  0  0  0
   24.9165  -19.8156   -9.2196 C   0  0  0  0  0  0  0  0  0  0  0  0
   25.2089  -20.7565  -10.3457 C   0  0  2  0  0  0  0  0  0  0  0  0
   25.7737  -22.0620   -9.8339 C   0  0  0  0  0  0  0  0  0  0  0  0
   25.9487  -20.1871  -11.4890 C   0  0  0  0  0  0  0  0  0  0  0  0
   25.5692  -20.6113  -12.8583 C   0  0  2  0  0  0  0  0  0  0  0  0
   26.3367  -20.0469  -13.9255 N   0  0  0  0  0  0  0  0  0  0  0  0
   24.0951  -20.4721  -13.0691 C   0  0  0  0  0  0  0  0  0  0  0  0
   23.6520  -19.3016  -13.1966 O   0  0  0  0  0  0  0  0  0  0  0  0
   23.2220  -21.5768  -13.1263 N   0  0  0  0  0  0  0  0  0  0  0  0
   21.7948  -21.3834  -13.4371 C   0  0  1  0  0  0  0  0  0  0  0  0
   21.2321  -22.6603  -14.0052 C   0  0  0  0  0  0  0  0  0  0  0  0
   19.7712  -22.5656  -14.3570 C   0  0  0  0  0  0  0  0  0  0  0  0
   19.3317  -23.8874  -15.0091 C   0  0  0  0  0  0  0  0  0  0  0  0
   17.9003  -23.7104  -15.4579 C   0  0  0  0  0  0  0  0  0  0  0  0
   17.4727  -24.9587  -16.0873 N   0  0  0  0  0  0  0  0  0  0  0  0
   21.0951  -20.8713  -12.2571 C   0  0  0  0  0  0  0  0  0  0  0  0
   19.9669  -20.0709  -12.2878 O   0  0  0  0  0  0  0  0  0  0  0  0
   21.5077  -21.1474  -11.0744 O   0  0  0  0  0  0  0  0  0  0  0  0
  1  2  1  0
  1  5  1  0
  2  3  1  0
  3  4  1  0
  5  4  1  0
  5  6  1  1
  6 13  1  0
  7  6  2  0
  9  8  1  1
  9 10  1  0
 12 11  1  1
 11  9  1  0
 12 13  1  0
 14 12  1  0
 15 14  2  0
 16 14  1  0
 17 23  1  0
 17 16  1  0
 17 18  1  1
 19 18  1  0
 20 19  1  0
 21 20  1  0
 22 21  1  0
 23 24  1  0
 25 23  2  0
M  END
$$$$
