PLK.pdb
     RDKit          3D

 25 25  0  0  1  0  0  0  0  0999 V2000
   30.5439  -20.8856  -10.4755 N   0  0  0  0  0  0  0  0  0  0  0  0
   31.9633  -21.0942  -10.5517 C   0  0  0  0  0  0  0  0  0  0  0  0
   32.2317  -22.5201  -10.1223 C   0  0  0  0  0  0  0  0  0  0  0  0
   30.9611  -22.8282   -9.3206 C   0  0  0  0  0  0  0  0  0  0  0  0
   29.9199  -22.1298  -10.1644 C   0  0  1  0  0  0  0  0  0  0  0  0
   28.6496  -21.9239   -9.4265 C   0  0  0  0  0  0  0  0  0  0  0  0
   27.7483  -22.7897   -9.5623 O   0  0  0  0  0  0  0  0  0  0  0  0
   27.9950  -20.9934   -4.9291 C   0  0  0  0  0  0  0  0  0  0  0  0
   28.2199  -19.7863   -5.7842 C   0  0  2  0  0  0  0  0  0  0  0  0
   28.5404  -18.5724   -4.9422 C   0  0  0  0  0  0  0  0  0  0  0  0
   27.2130  -19.5415   -6.8354 C   0  0  0  0  0  0  0  0  0  0  0  0
   27.1613  -20.4661   -7.9937 C   0  0  2  0  0  0  0  0  0  0  0  0
   28.4196  -20.8013   -8.5858 N   0  0  0  0  0  0  0  0  0  0  0  0
   26.1536  -20.0049   -8.9980 C   0  0  0  0  0  0  0  0  0  0  0  0
   26.2637  -18.8190   -9.4031 O   0  0  0  0  0  0  0  0  0  0  0  0
   25.1223  -20.8332   -9.4841 N   0  0  0  0  0  0  0  0  0  0  0  0
   24.2473  -20.3709  -10.5756 C   0  0  1  0  0  0  0  0  0  0  0  0
   24.5937  -21.1145  -11.8394 C   0  0  0  0  0  0  0  0  0  0  0  0
   23.7312  -20.7332  -13.0132 C   0  0  0  0  0  0  0  0  0  0  0  0
   24.1161  -21.6100  -14.2167 C   0  0  0  0  0  0  0  0  0  0  0  0
   23.3050  -21.1302  -15.3972 C   0  0  0  0  0  0  0  0  0  0  0  0
   23.5928  -22.0146  -16.5251 N   0  0  0  0  0  0  0  0  0  0  0  0
   22.8456  -20.4717  -10.1643 C   0  0  0  0  0  0  0  0  0  0  0  0
   22.3956  -21.1231   -9.0296 O   0  0  0  0  0  0  0  0  0  0  0  0
   21.9128  -19.9384  -10.8651 O   0  0  0  0  0  0  0  0  0  0  0  0
  1  2  1  0
  1  5  1  0
  2  3  1  0
  3  4  1  0
  5  4  1  0
  5  6  1  1
  6 13  1  0
  7  6  2  0
  9  8  1  1
  9 10  1  0
 12 11  1  1
 11  9  1  0
 12 13  1  0
 14 12  1  0
 15 14  2  0
 16 14  1  0
 17 23  1  0
 17 16  1  0
 17 18  1  6
 19 18  1  0
 20 19  1  0
 21 20  1  0
 22 21  1  0
 23 24  1  0
 25 23  2  0
M  END
$$$$
