PLK.pdb
     RDKit          3D

 25 25  0  0  1  0  0  0  0  0999 V2000
   27.8681  -20.7313  -15.6586 N   0  0  0  0  0  0  0  0  0  0  0  0
   28.2489  -19.8291  -16.7098 C   0  0  0  0  0  0  0  0  0  0  0  0
   27.9337  -18.4274  -16.2351 C   0  0  0  0  0  0  0  0  0  0  0  0
   26.8928  -18.7146  -15.1460 C   0  0  0  0  0  0  0  0  0  0  0  0
   27.4742  -19.9629  -14.5235 C   0  0  1  0  0  0  0  0  0  0  0  0
   26.4785  -20.6921  -13.7005 C   0  0  0  0  0  0  0  0  0  0  0  0
   26.0043  -21.7590  -14.1666 O   0  0  0  0  0  0  0  0  0  0  0  0
   27.1522  -21.7382   -9.5344 C   0  0  0  0  0  0  0  0  0  0  0  0
   26.3396  -20.4823   -9.4998 C   0  0  2  0  0  0  0  0  0  0  0  0
   26.2728  -19.9133   -8.1008 C   0  0  0  0  0  0  0  0  0  0  0  0
   25.0365  -20.5357  -10.1911 C   0  0  0  0  0  0  0  0  0  0  0  0
   25.0182  -20.8430  -11.6418 C   0  0  2  0  0  0  0  0  0  0  0  0
   26.0491  -20.2348  -12.4252 N   0  0  0  0  0  0  0  0  0  0  0  0
   23.6533  -20.6277  -12.2140 C   0  0  0  0  0  0  0  0  0  0  0  0
   22.6835  -21.0490  -11.5323 O   0  0  0  0  0  0  0  0  0  0  0  0
   23.4333  -19.9892  -13.4509 N   0  0  0  0  0  0  0  0  0  0  0  0
   22.0683  -19.8588  -13.9899 C   0  0  1  0  0  0  0  0  0  0  0  0
   22.0961  -18.9671  -15.2040 C   0  0  0  0  0  0  0  0  0  0  0  0
   20.7436  -18.7770  -15.8376 C   0  0  0  0  0  0  0  0  0  0  0  0
   20.9003  -17.8897  -17.0840 C   0  0  0  0  0  0  0  0  0  0  0  0
   19.5131  -17.6158  -17.6153 C   0  0  0  0  0  0  0  0  0  0  0  0
   19.6454  -16.7340  -18.7738 N   0  0  0  0  0  0  0  0  0  0  0  0
   21.4937  -21.1872  -14.2123 C   0  0  0  0  0  0  0  0  0  0  0  0
   22.2014  -22.2978  -14.6368 O   0  0  0  0  0  0  0  0  0  0  0  0
   20.2448  -21.4062  -14.0186 O   0  0  0  0  0  0  0  0  0  0  0  0
  1  2  1  0
  1  5  1  0
  2  3  1  0
  3  4  1  0
  5  4  1  0
  5  6  1  6
  6 13  1  0
  7  6  2  0
  9  8  1  1
  9 10  1  0
 12 11  1  1
 11  9  1  0
 12 13  1  0
 14 12  1  0
 15 14  2  0
 16 14  1  0
 17 23  1  0
 17 16  1  0
 17 18  1  6
 19 18  1  0
 20 19  1  0
 21 20  1  0
 22 21  1  0
 23 24  1  0
 25 23  2  0
M  END
$$$$
