PLK.pdb
     RDKit          3D

 25 25  0  0  1  0  0  0  0  0999 V2000
   27.1257  -18.9931  -14.8029 N   0  0  0  0  0  0  0  0  0  0  0  0
   28.3780  -18.4685  -15.2726 C   0  0  0  0  0  0  0  0  0  0  0  0
   29.3642  -19.6158  -15.2988 C   0  0  0  0  0  0  0  0  0  0  0  0
   28.7034  -20.5920  -14.3178 C   0  0  0  0  0  0  0  0  0  0  0  0
   27.2469  -20.4085  -14.6766 C   0  0  1  0  0  0  0  0  0  0  0  0
   26.3423  -20.9333  -13.6246 C   0  0  0  0  0  0  0  0  0  0  0  0
   25.8993  -22.1015  -13.7647 O   0  0  0  0  0  0  0  0  0  0  0  0
   26.4516  -21.8402   -9.0436 C   0  0  0  0  0  0  0  0  0  0  0  0
   26.3208  -20.4013   -9.4324 C   0  0  2  0  0  0  0  0  0  0  0  0
   26.6267  -19.4901   -8.2656 C   0  0  0  0  0  0  0  0  0  0  0  0
   25.0966  -20.0403  -10.1737 C   0  0  0  0  0  0  0  0  0  0  0  0
   24.9360  -20.5418  -11.5601 C   0  0  2  0  0  0  0  0  0  0  0  0
   25.9652  -20.1749  -12.4833 N   0  0  0  0  0  0  0  0  0  0  0  0
   23.5636  -20.2478  -12.0766 C   0  0  0  0  0  0  0  0  0  0  0  0
   23.3092  -19.0461  -12.3486 O   0  0  0  0  0  0  0  0  0  0  0  0
   22.5843  -21.2446  -12.2596 N   0  0  0  0  0  0  0  0  0  0  0  0
   21.3021  -20.9194  -12.9082 C   0  0  1  0  0  0  0  0  0  0  0  0
   21.0544  -21.8891  -14.0343 C   0  0  0  0  0  0  0  0  0  0  0  0
   19.7741  -21.6242  -14.7812 C   0  0  0  0  0  0  0  0  0  0  0  0
   19.6197  -22.6787  -15.8900 C   0  0  0  0  0  0  0  0  0  0  0  0
   18.4022  -22.3007  -16.7002 C   0  0  0  0  0  0  0  0  0  0  0  0
   18.2311  -23.3089  -17.7449 N   0  0  0  0  0  0  0  0  0  0  0  0
   20.2394  -20.8561  -11.9027 C   0  0  0  0  0  0  0  0  0  0  0  0
   19.0196  -20.2261  -12.0748 O   0  0  0  0  0  0  0  0  0  0  0  0
   20.3863  -21.4050  -10.7528 O   0  0  0  0  0  0  0  0  0  0  0  0
  1  2  1  0
  1  5  1  0
  2  3  1  0
  3  4  1  0
  5  4  1  0
  5  6  1  1
  6 13  1  0
  7  6  2  0
  9  8  1  1
  9 10  1  0
 12 11  1  1
 11  9  1  0
 12 13  1  0
 14 12  1  0
 15 14  2  0
 16 14  1  0
 17 23  1  0
 17 16  1  0
 17 18  1  6
 19 18  1  0
 20 19  1  0
 21 20  1  0
 22 21  1  0
 23 24  1  0
 25 23  2  0
M  END
$$$$
