RNR.pdb
     RDKit          3D

 31 30  0  0  1  0  0  0  0  0999 V2000
    8.2313  -13.1173   17.9446 N   0  0  0  0  0  0  0  0  0  0  0  0
    8.8456  -12.9693   19.2259 C   0  0  0  0  0  0  0  0  0  0  0  0
    9.5086  -11.8675   19.4441 N   0  0  0  0  0  0  0  0  0  0  0  0
    8.7683  -13.9416   20.2304 N   0  0  0  0  0  0  0  0  0  0  0  0
    8.2370  -15.2569   19.9780 C   0  0  0  0  0  0  0  0  0  0  0  0
    6.7762  -15.2860   20.3518 C   0  0  0  0  0  0  0  0  0  0  0  0
    6.6071  -15.7443   21.7870 C   0  0  0  0  0  0  0  0  0  0  0  0
    6.5919  -17.2330   21.9119 C   0  0  2  0  0  0  0  0  0  0  0  0
    5.3386  -17.8194   21.4748 N   0  0  0  0  0  0  0  0  0  0  0  0
    6.8616  -17.5570   23.3466 C   0  0  0  0  0  0  0  0  0  0  0  0
    5.9987  -17.2302   24.1943 O   0  0  0  0  0  0  0  0  0  0  0  0
   10.0089  -11.7074   20.3522 N   0  0  0  0  0  0  0  0  0  0  0  0
    7.5092  -21.9481   24.8307 C   0  0  0  0  0  0  0  0  0  0  0  0
    7.7706  -20.8154   25.6514 O   0  0  0  0  0  0  0  0  0  0  0  0
    7.0782  -20.6252   26.6934 C   0  0  0  0  0  0  0  0  0  0  0  0
    8.8567  -19.8656   25.2798 C   0  0  2  0  0  0  0  0  0  0  0  0
    8.2873  -18.4354   25.1962 N   0  0  0  0  0  0  0  0  0  0  0  0
    8.0359  -18.2085   23.7803 C   0  0  0  0  0  0  0  0  0  0  0  0
    9.2870  -17.5264   25.7452 O   0  0  0  0  0  0  0  0  0  0  0  0
   10.4644  -17.5451   25.2822 N   0  0  0  0  0  0  0  0  0  0  0  0
    5.7500  -11.3046   25.4017 C   0  0  0  0  0  0  0  0  0  0  0  0
    6.3481  -11.9012   26.5393 N   0  0  0  0  0  0  0  0  0  0  0  0
    5.9733  -11.5726   27.7477 N   0  0  0  0  0  0  0  0  0  0  0  0
    7.3710  -12.8740   26.4251 C   0  0  0  0  0  0  0  0  0  0  0  0
    8.6250  -12.5920   25.7558 C   0  0  0  0  0  0  0  0  0  0  0  0
    9.3762  -13.9347   25.7635 C   0  0  0  0  0  0  0  0  0  0  0  0
    9.5628  -14.3121   27.1972 C   0  0  2  0  0  0  0  0  0  0  0  0
   10.0566  -15.7311   27.3298 N   0  0  0  0  0  0  0  0  0  0  0  0
    9.0068  -16.6072   26.7864 C   0  0  0  0  0  0  0  0  0  0  0  0
   10.2144  -16.0059   28.7816 O   0  0  0  0  0  0  0  0  0  0  0  0
   11.2903  -15.4353   29.4876 O   0  0  0  0  0  0  0  0  0  0  0  0
  1  2  1  0
  2  4  1  0
  2  3  2  0
  4  5  1  0
  6  7  1  0
  6  5  1  0
  8  9  1  1
  8  7  1  0
 10  8  1  0
 10 11  2  0
 13 15  1  0
 13 12  1  0
 14 13  2  0
 16 15  1  1
 16 18  1  0
 16 17  1  0
 17 10  1  0
 18 19  2  0
 20 21  1  0
 21 22  2  0
 23 21  1  0
 23 24  1  0
 24 25  1  0
 26 25  1  0
 27 26  1  6
 28 27  1  0
 28 18  1  0
 29 27  1  0
 30 29  1  0
 31 29  2  0
M  END
$$$$
