RNR.pdb
     RDKit          3D

 31 30  0  0  1  0  0  0  0  0999 V2000
    8.7407  -13.0264   18.3853 N   0  0  0  0  0  0  0  0  0  0  0  0
    9.4606  -12.9745   19.6182 C   0  0  0  0  0  0  0  0  0  0  0  0
   10.7224  -12.6501   19.5570 N   0  0  0  0  0  0  0  0  0  0  0  0
    8.8774  -13.2566   20.8594 N   0  0  0  0  0  0  0  0  0  0  0  0
    8.0574  -14.4228   21.0680 C   0  0  0  0  0  0  0  0  0  0  0  0
    6.6521  -13.9918   21.4057 C   0  0  0  0  0  0  0  0  0  0  0  0
    5.7838  -15.2004   21.6948 C   0  0  0  0  0  0  0  0  0  0  0  0
    6.5499  -16.4814   21.6289 C   0  0  2  0  0  0  0  0  0  0  0  0
    6.0748  -17.3655   20.5810 N   0  0  0  0  0  0  0  0  0  0  0  0
    6.4345  -17.1324   22.9702 C   0  0  0  0  0  0  0  0  0  0  0  0
    5.5358  -16.7275   23.7438 O   0  0  0  0  0  0  0  0  0  0  0  0
   11.2723  -12.4477   20.4273 N   0  0  0  0  0  0  0  0  0  0  0  0
    7.2723  -19.9049   27.1870 C   0  0  0  0  0  0  0  0  0  0  0  0
    7.4760  -20.7476   26.0585 O   0  0  0  0  0  0  0  0  0  0  0  0
    7.6252  -21.9929   26.2270 C   0  0  0  0  0  0  0  0  0  0  0  0
    7.5092  -20.1589   24.6902 C   0  0  2  0  0  0  0  0  0  0  0  0
    7.2709  -18.6382   24.7752 N   0  0  0  0  0  0  0  0  0  0  0  0
    7.2874  -18.1731   23.3958 C   0  0  0  0  0  0  0  0  0  0  0  0
    8.3452  -18.0645   25.5776 O   0  0  0  0  0  0  0  0  0  0  0  0
    9.5395  -18.4246   25.3652 N   0  0  0  0  0  0  0  0  0  0  0  0
    8.4887  -13.0723   24.2435 C   0  0  0  0  0  0  0  0  0  0  0  0
    7.3298  -12.5539   24.8727 N   0  0  0  0  0  0  0  0  0  0  0  0
    6.6280  -11.6033   24.3138 N   0  0  0  0  0  0  0  0  0  0  0  0
    6.8781  -13.0355   26.1256 C   0  0  0  0  0  0  0  0  0  0  0  0
    7.7354  -13.0530   27.2938 C   0  0  0  0  0  0  0  0  0  0  0  0
    8.8484  -14.0546   26.9399 C   0  0  0  0  0  0  0  0  0  0  0  0
    8.7240  -15.1900   27.9032 C   0  0  2  0  0  0  0  0  0  0  0  0
    9.2443  -16.4738   27.3062 N   0  0  0  0  0  0  0  0  0  0  0  0
    8.1208  -17.1088   26.5995 C   0  0  0  0  0  0  0  0  0  0  0  0
    9.6612  -17.3446   28.4359 O   0  0  0  0  0  0  0  0  0  0  0  0
   10.9115  -17.1413   29.0498 O   0  0  0  0  0  0  0  0  0  0  0  0
  1  2  1  0
  2  4  1  0
  2  3  2  0
  4  5  1  0
  6  7  1  0
  6  5  1  0
  8  9  1  6
  8  7  1  0
 10  8  1  0
 10 11  2  0
 13 15  1  0
 13 12  1  0
 14 13  2  0
 16 15  1  6
 16 18  1  0
 16 17  1  0
 17 10  1  0
 18 19  2  0
 20 21  1  0
 21 22  2  0
 23 21  1  0
 23 24  1  0
 24 25  1  0
 26 25  1  0
 27 26  1  6
 28 27  1  0
 28 18  1  0
 29 27  1  0
 30 29  1  0
 31 29  2  0
M  END
$$$$
