RNR.pdb
     RDKit          3D

 31 30  0  0  1  0  0  0  0  0999 V2000
    8.4614  -14.8847   14.1274 N   0  0  0  0  0  0  0  0  0  0  0  0
    8.6459  -14.5296   15.4987 C   0  0  0  0  0  0  0  0  0  0  0  0
    9.1996  -15.4200   16.2745 N   0  0  0  0  0  0  0  0  0  0  0  0
    8.2594  -13.2930   16.0296 N   0  0  0  0  0  0  0  0  0  0  0  0
    8.4764  -12.9572   17.4138 C   0  0  0  0  0  0  0  0  0  0  0  0
    7.4662  -13.6812   18.2680 C   0  0  0  0  0  0  0  0  0  0  0  0
    8.0900  -14.0980   19.5854 C   0  0  0  0  0  0  0  0  0  0  0  0
    7.1196  -14.7995   20.4788 C   0  0  2  0  0  0  0  0  0  0  0  0
    5.7428  -14.4238   20.2157 N   0  0  0  0  0  0  0  0  0  0  0  0
    7.5026  -14.4731   21.8869 C   0  0  0  0  0  0  0  0  0  0  0  0
    7.0817  -13.3989   22.3757 O   0  0  0  0  0  0  0  0  0  0  0  0
    9.3698  -15.2221   17.2906 N   0  0  0  0  0  0  0  0  0  0  0  0
    6.2598  -13.9663   26.9161 C   0  0  0  0  0  0  0  0  0  0  0  0
    7.3983  -14.2302   26.1041 O   0  0  0  0  0  0  0  0  0  0  0  0
    8.5586  -14.0735   26.5843 C   0  0  0  0  0  0  0  0  0  0  0  0
    7.2158  -14.6907   24.6989 C   0  0  2  0  0  0  0  0  0  0  0  0
    8.5908  -14.9936   24.0710 N   0  0  0  0  0  0  0  0  0  0  0  0
    8.3103  -15.3165   22.6794 C   0  0  0  0  0  0  0  0  0  0  0  0
    9.1769  -16.1107   24.8029 O   0  0  0  0  0  0  0  0  0  0  0  0
    8.4935  -17.1595   24.9873 N   0  0  0  0  0  0  0  0  0  0  0  0
   15.7851  -15.0208   20.4700 C   0  0  0  0  0  0  0  0  0  0  0  0
   14.3903  -14.8306   20.3081 N   0  0  0  0  0  0  0  0  0  0  0  0
   13.9214  -14.0474   19.3725 N   0  0  0  0  0  0  0  0  0  0  0  0
   13.4442  -15.4737   21.1430 C   0  0  0  0  0  0  0  0  0  0  0  0
   13.7125  -15.7390   22.5422 C   0  0  0  0  0  0  0  0  0  0  0  0
   12.4354  -16.4265   23.0557 C   0  0  0  0  0  0  0  0  0  0  0  0
   12.6562  -16.7104   24.5060 C   0  0  2  0  0  0  0  0  0  0  0  0
   11.4004  -17.2314   25.1591 N   0  0  0  0  0  0  0  0  0  0  0  0
   10.4929  -16.0854   25.3275 C   0  0  0  0  0  0  0  0  0  0  0  0
   11.7850  -17.7466   26.4988 O   0  0  0  0  0  0  0  0  0  0  0  0
   11.3051  -17.1069   27.6572 O   0  0  0  0  0  0  0  0  0  0  0  0
  1  2  1  0
  2  4  1  0
  2  3  2  0
  4  5  1  0
  6  7  1  0
  6  5  1  0
  8  9  1  6
  8  7  1  0
 10  8  1  0
 10 11  2  0
 13 15  1  0
 13 12  1  0
 14 13  2  0
 16 15  1  6
 16 18  1  0
 16 17  1  0
 17 10  1  0
 18 19  2  0
 20 21  1  0
 21 22  2  0
 23 21  1  0
 23 24  1  0
 24 25  1  0
 26 25  1  0
 27 26  1  6
 28 27  1  0
 28 18  1  0
 29 27  1  0
 30 29  1  0
 31 29  2  0
M  END
$$$$
