RNR.pdb
     RDKit          3D

 31 30  0  0  1  0  0  0  0  0999 V2000
    8.4473  -13.0520   17.0453 N   0  0  0  0  0  0  0  0  0  0  0  0
    8.7236  -12.9746   18.4447 C   0  0  0  0  0  0  0  0  0  0  0  0
    9.4781  -11.9903   18.8486 N   0  0  0  0  0  0  0  0  0  0  0  0
    8.2305  -13.8965   19.3761 N   0  0  0  0  0  0  0  0  0  0  0  0
    7.2851  -13.5178   20.3952 C   0  0  0  0  0  0  0  0  0  0  0  0
    5.9979  -14.2762   20.1896 C   0  0  0  0  0  0  0  0  0  0  0  0
    5.8464  -15.3556   21.2433 C   0  0  0  0  0  0  0  0  0  0  0  0
    6.9167  -16.3941   21.1533 C   0  0  2  0  0  0  0  0  0  0  0  0
    6.6396  -17.3986   20.1434 N   0  0  0  0  0  0  0  0  0  0  0  0
    7.0400  -17.0173   22.5070 C   0  0  0  0  0  0  0  0  0  0  0  0
    7.4314  -16.2943   23.4526 O   0  0  0  0  0  0  0  0  0  0  0  0
    9.7124  -11.8690   19.8640 N   0  0  0  0  0  0  0  0  0  0  0  0
    5.6576  -20.7792   26.3781 C   0  0  0  0  0  0  0  0  0  0  0  0
    6.5269  -21.0748   25.2909 O   0  0  0  0  0  0  0  0  0  0  0  0
    7.4446  -21.9333   25.4397 C   0  0  0  0  0  0  0  0  0  0  0  0
    6.3484  -20.3748   23.9877 C   0  0  1  0  0  0  0  0  0  0  0  0
    6.9110  -18.9430   24.0882 N   0  0  0  0  0  0  0  0  0  0  0  0
    6.7369  -18.3722   22.7603 C   0  0  0  0  0  0  0  0  0  0  0  0
    8.3120  -19.0428   24.4809 O   0  0  0  0  0  0  0  0  0  0  0  0
    9.1916  -19.2549   23.5962 N   0  0  0  0  0  0  0  0  0  0  0  0
   10.7797  -14.4404   31.0420 C   0  0  0  0  0  0  0  0  0  0  0  0
   10.0814  -14.6819   29.8330 N   0  0  0  0  0  0  0  0  0  0  0  0
    9.3149  -13.7652   29.3031 N   0  0  0  0  0  0  0  0  0  0  0  0
   10.1786  -15.9159   29.1448 C   0  0  0  0  0  0  0  0  0  0  0  0
   10.9241  -16.0471   27.9090 C   0  0  0  0  0  0  0  0  0  0  0  0
    9.8568  -16.3638   26.8470 C   0  0  0  0  0  0  0  0  0  0  0  0
   10.5001  -17.2750   25.8527 C   0  0  1  0  0  0  0  0  0  0  0  0
   10.1731  -18.7188   26.1417 N   0  0  0  0  0  0  0  0  0  0  0  0
    8.7499  -18.9124   25.8222 C   0  0  0  0  0  0  0  0  0  0  0  0
   10.3763  -18.9307   27.5984 O   0  0  0  0  0  0  0  0  0  0  0  0
    9.3047  -19.3749   28.3958 O   0  0  0  0  0  0  0  0  0  0  0  0
  1  2  1  0
  2  4  1  0
  2  3  2  0
  4  5  1  0
  6  7  1  0
  6  5  1  0
  8  9  1  6
  8  7  1  0
 10  8  1  0
 10 11  2  0
 13 15  1  0
 13 12  1  0
 14 13  2  0
 16 15  1  1
 16 18  1  0
 16 17  1  0
 17 10  1  0
 18 19  2  0
 20 21  1  0
 21 22  2  0
 23 21  1  0
 23 24  1  0
 24 25  1  0
 26 25  1  0
 27 26  1  6
 28 27  1  0
 28 18  1  0
 29 27  1  0
 30 29  1  0
 31 29  2  0
M  END
$$$$
