RNR.pdb
     RDKit          3D

 31 30  0  0  1  0  0  0  0  0999 V2000
    7.7876  -12.1991   18.2681 N   0  0  0  0  0  0  0  0  0  0  0  0
    7.4637  -13.3651   17.5091 C   0  0  0  0  0  0  0  0  0  0  0  0
    7.5993  -13.2887   16.2141 N   0  0  0  0  0  0  0  0  0  0  0  0
    7.0125  -14.5570   18.0890 N   0  0  0  0  0  0  0  0  0  0  0  0
    7.1284  -15.8242   17.4134 C   0  0  0  0  0  0  0  0  0  0  0  0
    8.2345  -16.6295   18.0478 C   0  0  0  0  0  0  0  0  0  0  0  0
    7.9840  -16.7923   19.5341 C   0  0  0  0  0  0  0  0  0  0  0  0
    9.0516  -16.1579   20.3648 C   0  0  2  0  0  0  0  0  0  0  0  0
   10.1759  -15.6937   19.5735 N   0  0  0  0  0  0  0  0  0  0  0  0
    9.4895  -17.1748   21.3699 C   0  0  0  0  0  0  0  0  0  0  0  0
    8.6135  -17.6922   22.1013 O   0  0  0  0  0  0  0  0  0  0  0  0
    7.4527  -14.1293   15.6038 N   0  0  0  0  0  0  0  0  0  0  0  0
   12.3296  -21.5404   23.2971 C   0  0  0  0  0  0  0  0  0  0  0  0
   12.8634  -20.2326   23.1244 O   0  0  0  0  0  0  0  0  0  0  0  0
   13.7915  -19.8307   23.8850 C   0  0  0  0  0  0  0  0  0  0  0  0
   12.3286  -19.3497   22.0500 C   0  0  1  0  0  0  0  0  0  0  0  0
   11.2392  -18.4275   22.6326 N   0  0  0  0  0  0  0  0  0  0  0  0
   10.8348  -17.5712   21.5269 C   0  0  0  0  0  0  0  0  0  0  0  0
   11.8324  -17.6818   23.7368 O   0  0  0  0  0  0  0  0  0  0  0  0
   12.7764  -16.8722   23.5035 N   0  0  0  0  0  0  0  0  0  0  0  0
   10.1815  -19.1621   32.1054 C   0  0  0  0  0  0  0  0  0  0  0  0
   10.4744  -19.9301   30.9513 N   0  0  0  0  0  0  0  0  0  0  0  0
   10.9669  -21.1367   31.0521 N   0  0  0  0  0  0  0  0  0  0  0  0
   10.2499  -19.4340   29.6439 C   0  0  0  0  0  0  0  0  0  0  0  0
   10.9594  -18.2794   29.1304 C   0  0  0  0  0  0  0  0  0  0  0  0
   10.3998  -18.0835   27.7106 C   0  0  0  0  0  0  0  0  0  0  0  0
   10.9618  -16.7952   27.2034 C   0  0  1  0  0  0  0  0  0  0  0  0
   12.0242  -17.0347   26.1599 N   0  0  0  0  0  0  0  0  0  0  0  0
   11.4015  -17.8164   25.0799 C   0  0  0  0  0  0  0  0  0  0  0  0
   13.0888  -17.8516   26.7983 O   0  0  0  0  0  0  0  0  0  0  0  0
   14.0117  -17.2400   27.6675 O   0  0  0  0  0  0  0  0  0  0  0  0
  1  2  1  0
  2  4  1  0
  2  3  2  0
  4  5  1  0
  6  7  1  0
  6  5  1  0
  8  9  1  6
  8  7  1  0
 10  8  1  0
 10 11  2  0
 13 15  1  0
 13 12  1  0
 14 13  2  0
 16 15  1  6
 16 18  1  0
 16 17  1  0
 17 10  1  0
 18 19  2  0
 20 21  1  0
 21 22  2  0
 23 21  1  0
 23 24  1  0
 24 25  1  0
 26 25  1  0
 27 26  1  6
 28 27  1  0
 28 18  1  0
 29 27  1  0
 30 29  1  0
 31 29  2  0
M  END
$$$$
