RNR.pdb
     RDKit          3D

 31 30  0  0  1  0  0  0  0  0999 V2000
    8.6984  -16.4159   11.3504 N   0  0  0  0  0  0  0  0  0  0  0  0
    7.4324  -17.0588   11.5073 C   0  0  0  0  0  0  0  0  0  0  0  0
    6.9378  -17.6618   10.4619 N   0  0  0  0  0  0  0  0  0  0  0  0
    6.7175  -17.0615   12.7112 N   0  0  0  0  0  0  0  0  0  0  0  0
    7.2302  -16.4342   13.9027 C   0  0  0  0  0  0  0  0  0  0  0  0
    8.2832  -15.4238   13.5221 C   0  0  0  0  0  0  0  0  0  0  0  0
    8.7444  -14.6552   14.7447 C   0  0  0  0  0  0  0  0  0  0  0  0
    9.3333  -15.5463   15.7893 C   0  0  2  0  0  0  0  0  0  0  0  0
    8.4893  -16.6868   16.0939 N   0  0  0  0  0  0  0  0  0  0  0  0
    9.5581  -14.7079   17.0070 C   0  0  0  0  0  0  0  0  0  0  0  0
   10.2633  -13.6788   16.8891 O   0  0  0  0  0  0  0  0  0  0  0  0
    5.9816  -18.0927   10.4873 N   0  0  0  0  0  0  0  0  0  0  0  0
    5.5923  -13.3389   19.7609 C   0  0  0  0  0  0  0  0  0  0  0  0
    6.9840  -13.2535   19.4764 O   0  0  0  0  0  0  0  0  0  0  0  0
    7.3956  -12.4276   18.6104 C   0  0  0  0  0  0  0  0  0  0  0  0
    7.9439  -14.1333   20.2007 C   0  0  2  0  0  0  0  0  0  0  0  0
    9.2785  -14.1870   19.4309 N   0  0  0  0  0  0  0  0  0  0  0  0
    9.0144  -15.0249   18.2701 C   0  0  0  0  0  0  0  0  0  0  0  0
   10.2826  -14.7567   20.3221 O   0  0  0  0  0  0  0  0  0  0  0  0
   10.5941  -14.1399   21.3822 N   0  0  0  0  0  0  0  0  0  0  0  0
   17.1477  -13.0436   18.9845 C   0  0  0  0  0  0  0  0  0  0  0  0
   16.7475  -14.3439   18.5884 N   0  0  0  0  0  0  0  0  0  0  0  0
   17.5815  -15.1518   17.9880 N   0  0  0  0  0  0  0  0  0  0  0  0
   15.4373  -14.8285   18.8213 C   0  0  0  0  0  0  0  0  0  0  0  0
   14.3848  -13.9748   19.3347 C   0  0  0  0  0  0  0  0  0  0  0  0
   13.1500  -14.8894   19.4115 C   0  0  0  0  0  0  0  0  0  0  0  0
   13.1975  -15.5609   20.7454 C   0  0  2  0  0  0  0  0  0  0  0  0
   12.0130  -16.4741   20.9410 N   0  0  0  0  0  0  0  0  0  0  0  0
   10.9396  -15.9848   20.0615 C   0  0  0  0  0  0  0  0  0  0  0  0
   11.5819  -16.3350   22.3562 O   0  0  0  0  0  0  0  0  0  0  0  0
   11.6956  -17.4312   23.2319 O   0  0  0  0  0  0  0  0  0  0  0  0
  1  2  1  0
  2  4  1  0
  2  3  2  0
  4  5  1  0
  6  7  1  0
  6  5  1  0
  8  9  1  1
  8  7  1  0
 10  8  1  0
 10 11  2  0
 13 15  1  0
 13 12  1  0
 14 13  2  0
 16 15  1  6
 16 18  1  0
 16 17  1  0
 17 10  1  0
 18 19  2  0
 20 21  1  0
 21 22  2  0
 23 21  1  0
 23 24  1  0
 24 25  1  0
 26 25  1  0
 27 26  1  6
 28 27  1  0
 28 18  1  0
 29 27  1  0
 30 29  1  0
 31 29  2  0
M  END
$$$$
