RNR.pdb
     RDKit          3D

 31 30  0  0  1  0  0  0  0  0999 V2000
    7.5962  -15.2619   14.9846 N   0  0  0  0  0  0  0  0  0  0  0  0
    7.9574  -13.9279   15.3461 C   0  0  0  0  0  0  0  0  0  0  0  0
    7.3561  -12.9571   14.7159 N   0  0  0  0  0  0  0  0  0  0  0  0
    8.9135  -13.6307   16.3249 N   0  0  0  0  0  0  0  0  0  0  0  0
    8.5417  -13.1542   17.6328 C   0  0  0  0  0  0  0  0  0  0  0  0
    7.5218  -14.0886   18.2338 C   0  0  0  0  0  0  0  0  0  0  0  0
    8.0413  -14.6732   19.5326 C   0  0  0  0  0  0  0  0  0  0  0  0
    9.1433  -15.6578   19.3138 C   0  0  2  0  0  0  0  0  0  0  0  0
    8.9097  -16.5148   18.1662 N   0  0  0  0  0  0  0  0  0  0  0  0
    9.2675  -16.4648   20.5666 C   0  0  0  0  0  0  0  0  0  0  0  0
    8.2157  -16.7659   21.1775 O   0  0  0  0  0  0  0  0  0  0  0  0
    7.5545  -11.9541   14.9509 N   0  0  0  0  0  0  0  0  0  0  0  0
    9.6788  -20.3109   20.7721 C   0  0  0  0  0  0  0  0  0  0  0  0
   10.8708  -19.5351   20.7226 O   0  0  0  0  0  0  0  0  0  0  0  0
   11.4671  -19.3752   19.6180 C   0  0  0  0  0  0  0  0  0  0  0  0
   11.4047  -18.9163   21.9683 C   0  0  2  0  0  0  0  0  0  0  0  0
   10.5781  -17.6632   22.3190 N   0  0  0  0  0  0  0  0  0  0  0  0
   10.5077  -16.8963   21.0836 C   0  0  0  0  0  0  0  0  0  0  0  0
   11.2767  -16.9543   23.3850 O   0  0  0  0  0  0  0  0  0  0  0  0
   12.0631  -17.5922   24.1439 N   0  0  0  0  0  0  0  0  0  0  0  0
    7.0769  -12.7082   27.6959 C   0  0  0  0  0  0  0  0  0  0  0  0
    6.5056  -12.1563   26.5226 N   0  0  0  0  0  0  0  0  0  0  0  0
    5.9594  -10.9688   26.5336 N   0  0  0  0  0  0  0  0  0  0  0  0
    6.4985  -12.8563   25.2915 C   0  0  0  0  0  0  0  0  0  0  0  0
    7.7210  -13.3227   24.6684 C   0  0  0  0  0  0  0  0  0  0  0  0
    7.6114  -14.8570   24.7059 C   0  0  0  0  0  0  0  0  0  0  0  0
    8.7457  -15.3868   23.8903 C   0  0  2  0  0  0  0  0  0  0  0  0
   10.0748  -15.0613   24.5248 N   0  0  0  0  0  0  0  0  0  0  0  0
   11.1208  -15.5658   23.6212 C   0  0  0  0  0  0  0  0  0  0  0  0
   10.1416  -15.8072   25.8084 O   0  0  0  0  0  0  0  0  0  0  0  0
   10.3919  -17.1924   25.7990 O   0  0  0  0  0  0  0  0  0  0  0  0
  1  2  1  0
  2  4  1  0
  2  3  2  0
  4  5  1  0
  6  7  1  0
  6  5  1  0
  8  9  1  6
  8  7  1  0
 10  8  1  0
 10 11  2  0
 13 15  1  0
 13 12  1  0
 14 13  2  0
 16 15  1  6
 16 18  1  0
 16 17  1  0
 17 10  1  0
 18 19  2  0
 20 21  1  0
 21 22  2  0
 23 21  1  0
 23 24  1  0
 24 25  1  0
 26 25  1  0
 27 26  1  6
 28 27  1  0
 28 18  1  0
 29 27  1  0
 30 29  1  0
 31 29  2  0
M  END
$$$$
