RNR.pdb
     RDKit          3D

 31 30  0  0  1  0  0  0  0  0999 V2000
    7.6302  -13.4116   15.2954 N   0  0  0  0  0  0  0  0  0  0  0  0
    8.1036  -14.2493   14.2395 C   0  0  0  0  0  0  0  0  0  0  0  0
    7.2500  -14.5717   13.3076 N   0  0  0  0  0  0  0  0  0  0  0  0
    9.4171  -14.7295   14.1717 N   0  0  0  0  0  0  0  0  0  0  0  0
   10.2826  -14.7452   15.3235 C   0  0  0  0  0  0  0  0  0  0  0  0
    9.7518  -15.7309   16.3340 C   0  0  0  0  0  0  0  0  0  0  0  0
   10.3919  -15.4959   17.6881 C   0  0  0  0  0  0  0  0  0  0  0  0
    9.8776  -16.4330   18.7319 C   0  0  2  0  0  0  0  0  0  0  0  0
    8.5378  -16.9109   18.4450 N   0  0  0  0  0  0  0  0  0  0  0  0
    9.9164  -15.7028   20.0362 C   0  0  0  0  0  0  0  0  0  0  0  0
   10.9919  -15.1527   20.3692 O   0  0  0  0  0  0  0  0  0  0  0  0
    7.5428  -15.1467   12.4804 N   0  0  0  0  0  0  0  0  0  0  0  0
    7.9335  -12.7108   24.0989 C   0  0  0  0  0  0  0  0  0  0  0  0
    7.4465  -14.0421   23.9740 O   0  0  0  0  0  0  0  0  0  0  0  0
    7.0078  -14.6458   24.9961 C   0  0  0  0  0  0  0  0  0  0  0  0
    7.4542  -14.7124   22.6434 C   0  0  1  0  0  0  0  0  0  0  0  0
    8.9091  -14.9435   22.1889 N   0  0  0  0  0  0  0  0  0  0  0  0
    8.8031  -15.6090   20.8985 C   0  0  0  0  0  0  0  0  0  0  0  0
    9.5639  -15.7684   23.1978 O   0  0  0  0  0  0  0  0  0  0  0  0
    9.1017  -16.9176   23.4561 N   0  0  0  0  0  0  0  0  0  0  0  0
   10.8208  -16.5034   30.9430 C   0  0  0  0  0  0  0  0  0  0  0  0
   10.5798  -15.1936   30.4593 N   0  0  0  0  0  0  0  0  0  0  0  0
   11.0529  -14.1472   31.0837 N   0  0  0  0  0  0  0  0  0  0  0  0
    9.8224  -14.9551   29.2866 C   0  0  0  0  0  0  0  0  0  0  0  0
    9.2992  -16.0387   28.4790 C   0  0  0  0  0  0  0  0  0  0  0  0
   10.4394  -16.3771   27.5030 C   0  0  0  0  0  0  0  0  0  0  0  0
   10.0886  -15.7396   26.1980 C   0  0  2  0  0  0  0  0  0  0  0  0
   11.1306  -16.0334   25.1477 N   0  0  0  0  0  0  0  0  0  0  0  0
   10.7097  -15.3462   23.9166 C   0  0  0  0  0  0  0  0  0  0  0  0
   11.1149  -17.5007   24.9138 O   0  0  0  0  0  0  0  0  0  0  0  0
   12.2402  -18.2745   25.2553 O   0  0  0  0  0  0  0  0  0  0  0  0
  1  2  1  0
  2  4  1  0
  2  3  2  0
  4  5  1  0
  6  7  1  0
  6  5  1  0
  8  9  1  6
  8  7  1  0
 10  8  1  0
 10 11  2  0
 13 15  1  0
 13 12  1  0
 14 13  2  0
 16 15  1  6
 16 18  1  0
 16 17  1  0
 17 10  1  0
 18 19  2  0
 20 21  1  0
 21 22  2  0
 23 21  1  0
 23 24  1  0
 24 25  1  0
 26 25  1  0
 27 26  1  1
 28 27  1  0
 28 18  1  0
 29 27  1  0
 30 29  1  0
 31 29  2  0
M  END
$$$$
