RNR.pdb
     RDKit          3D

 31 30  0  0  1  0  0  0  0  0999 V2000
   10.3780  -13.4337   10.1476 N   0  0  0  0  0  0  0  0  0  0  0  0
   11.6469  -14.0497   10.3737 C   0  0  0  0  0  0  0  0  0  0  0  0
   12.6987  -13.2799   10.3273 N   0  0  0  0  0  0  0  0  0  0  0  0
   11.8004  -15.4172   10.6325 N   0  0  0  0  0  0  0  0  0  0  0  0
   10.9868  -16.1047   11.6027 C   0  0  0  0  0  0  0  0  0  0  0  0
   11.2610  -15.5409   12.9744 C   0  0  0  0  0  0  0  0  0  0  0  0
   10.5514  -16.3605   14.0342 C   0  0  0  0  0  0  0  0  0  0  0  0
    9.2428  -15.7620   14.4359 C   0  0  2  0  0  0  0  0  0  0  0  0
    8.6821  -14.9007   13.4114 N   0  0  0  0  0  0  0  0  0  0  0  0
    9.4768  -15.0026   15.7027 C   0  0  0  0  0  0  0  0  0  0  0  0
   10.4432  -14.2058   15.7394 O   0  0  0  0  0  0  0  0  0  0  0  0
   13.6544  -13.6553   10.5426 N   0  0  0  0  0  0  0  0  0  0  0  0
    7.5277  -12.3537   20.1272 C   0  0  0  0  0  0  0  0  0  0  0  0
    7.8002  -13.7496   20.1717 O   0  0  0  0  0  0  0  0  0  0  0  0
    8.1466  -14.2844   21.2651 C   0  0  0  0  0  0  0  0  0  0  0  0
    7.6733  -14.5695   18.9341 C   0  0  1  0  0  0  0  0  0  0  0  0
    8.9220  -14.3713   18.0519 N   0  0  0  0  0  0  0  0  0  0  0  0
    8.6624  -15.1451   16.8464 C   0  0  0  0  0  0  0  0  0  0  0  0
   10.0756  -14.8593   18.7989 O   0  0  0  0  0  0  0  0  0  0  0  0
   10.3413  -16.0964   18.7933 N   0  0  0  0  0  0  0  0  0  0  0  0
   14.7045  -19.8596   22.9311 C   0  0  0  0  0  0  0  0  0  0  0  0
   13.6970  -19.2631   23.7292 N   0  0  0  0  0  0  0  0  0  0  0  0
   13.2841  -19.8336   24.8303 N   0  0  0  0  0  0  0  0  0  0  0  0
   13.0936  -18.0310   23.3775 C   0  0  0  0  0  0  0  0  0  0  0  0
   12.7094  -17.7280   22.0134 C   0  0  0  0  0  0  0  0  0  0  0  0
   12.0296  -16.3506   22.1016 C   0  0  0  0  0  0  0  0  0  0  0  0
   11.6246  -15.9838   20.7109 C   0  0  2  0  0  0  0  0  0  0  0  0
   12.0014  -14.5592   20.3889 N   0  0  0  0  0  0  0  0  0  0  0  0
   10.9305  -14.0089   19.5432 C   0  0  0  0  0  0  0  0  0  0  0  0
   13.2628  -14.6065   19.6047 O   0  0  0  0  0  0  0  0  0  0  0  0
   13.2280  -14.9790   18.2477 O   0  0  0  0  0  0  0  0  0  0  0  0
  1  2  1  0
  2  4  1  0
  2  3  2  0
  4  5  1  0
  6  7  1  0
  6  5  1  0
  8  9  1  6
  8  7  1  0
 10  8  1  0
 10 11  2  0
 13 15  1  0
 13 12  1  0
 14 13  2  0
 16 15  1  6
 16 18  1  0
 16 17  1  0
 17 10  1  0
 18 19  2  0
 20 21  1  0
 21 22  2  0
 23 21  1  0
 23 24  1  0
 24 25  1  0
 26 25  1  0
 27 26  1  1
 28 27  1  0
 28 18  1  0
 29 27  1  0
 30 29  1  0
 31 29  2  0
M  END
$$$$
