RNR.pdb
     RDKit          3D

 31 30  0  0  1  0  0  0  0  0999 V2000
    7.1904  -21.1684   17.3150 N   0  0  0  0  0  0  0  0  0  0  0  0
    6.8675  -22.1978   18.2515 C   0  0  0  0  0  0  0  0  0  0  0  0
    6.6571  -23.3927   17.7730 N   0  0  0  0  0  0  0  0  0  0  0  0
    6.7662  -21.9761   19.6303 N   0  0  0  0  0  0  0  0  0  0  0  0
    7.1906  -20.7395   20.2359 C   0  0  0  0  0  0  0  0  0  0  0  0
    7.0042  -19.6114   19.2525 C   0  0  0  0  0  0  0  0  0  0  0  0
    7.0012  -18.2775   19.9728 C   0  0  0  0  0  0  0  0  0  0  0  0
    7.7621  -17.2275   19.2309 C   0  0  2  0  0  0  0  0  0  0  0  0
    8.6795  -17.7847   18.2544 N   0  0  0  0  0  0  0  0  0  0  0  0
    8.4952  -16.4135   20.2488 C   0  0  0  0  0  0  0  0  0  0  0  0
    9.6881  -16.7115   20.4902 O   0  0  0  0  0  0  0  0  0  0  0  0
    6.4894  -24.2092   18.4100 N   0  0  0  0  0  0  0  0  0  0  0  0
    7.2180  -14.2458   19.6177 C   0  0  0  0  0  0  0  0  0  0  0  0
    7.7332  -13.0432   20.1773 O   0  0  0  0  0  0  0  0  0  0  0  0
    7.4696  -11.9345   19.6271 C   0  0  0  0  0  0  0  0  0  0  0  0
    8.5748  -13.0982   21.4056 C   0  0  1  0  0  0  0  0  0  0  0  0
    8.6690  -14.5541   21.9034 N   0  0  0  0  0  0  0  0  0  0  0  0
    7.9046  -15.3350   20.9415 C   0  0  0  0  0  0  0  0  0  0  0  0
    8.1030  -14.6017   23.2467 O   0  0  0  0  0  0  0  0  0  0  0  0
    6.8697  -14.3701   23.4098 N   0  0  0  0  0  0  0  0  0  0  0  0
    4.9633  -20.9038   23.8962 C   0  0  0  0  0  0  0  0  0  0  0  0
    6.3358  -21.2534   23.8563 N   0  0  0  0  0  0  0  0  0  0  0  0
    6.7222  -22.4139   23.3951 N   0  0  0  0  0  0  0  0  0  0  0  0
    7.3475  -20.3717   24.3088 C   0  0  0  0  0  0  0  0  0  0  0  0
    7.0339  -19.1091   24.9472 C   0  0  0  0  0  0  0  0  0  0  0  0
    8.4046  -18.4975   25.2855 C   0  0  0  0  0  0  0  0  0  0  0  0
    8.5469  -17.2734   24.4406 C   0  0  1  0  0  0  0  0  0  0  0  0
    8.5163  -16.0215   25.2815 N   0  0  0  0  0  0  0  0  0  0  0  0
    8.8718  -14.8989   24.3993 C   0  0  0  0  0  0  0  0  0  0  0  0
    9.5639  -16.1691   26.3250 O   0  0  0  0  0  0  0  0  0  0  0  0
    9.2158  -16.6509   27.6010 O   0  0  0  0  0  0  0  0  0  0  0  0
  1  2  1  0
  2  4  1  0
  2  3  2  0
  4  5  1  0
  6  7  1  0
  6  5  1  0
  8  9  1  6
  8  7  1  0
 10  8  1  0
 10 11  2  0
 13 15  1  0
 13 12  1  0
 14 13  2  0
 16 15  1  6
 16 18  1  0
 16 17  1  0
 17 10  1  0
 18 19  2  0
 20 21  1  0
 21 22  2  0
 23 21  1  0
 23 24  1  0
 24 25  1  0
 26 25  1  0
 27 26  1  6
 28 27  1  0
 28 18  1  0
 29 27  1  0
 30 29  1  0
 31 29  2  0
M  END
$$$$
