EGK.pdb
     RDKit          3D

 23 22  0  0  1  0  0  0  0  0999 V2000
    9.2549  -12.6991   17.9113 N   0  0  0  0  0  0  0  0  0  0  0  0
    8.0989  -13.5511   18.0476 C   0  0  1  0  0  0  0  0  0  0  0  0
    7.7223  -14.1960   16.7348 C   0  0  0  0  0  0  0  0  0  0  0  0
    8.9042  -14.9019   16.1195 C   0  0  0  0  0  0  0  0  0  0  0  0
    8.4506  -15.6253   14.9153 C   0  0  0  0  0  0  0  0  0  0  0  0
    7.6218  -16.5504   15.0209 O   0  0  0  0  0  0  0  0  0  0  0  0
    8.2397  -14.5846   19.0752 C   0  0  0  0  0  0  0  0  0  0  0  0
    7.2449  -15.2709   19.4065 O   0  0  0  0  0  0  0  0  0  0  0  0
    8.9352  -15.2876   13.6724 O   0  0  0  0  0  0  0  0  0  0  0  0
    9.4625  -14.8778   19.7506 N   0  0  0  0  0  0  0  0  0  0  0  0
    9.6203  -15.8915   20.7530 C   0  0  0  0  0  0  0  0  0  0  0  0
    9.6821  -15.3982   22.1312 C   0  0  0  0  0  0  0  0  0  0  0  0
   10.8005  -15.0895   22.6237 O   0  0  0  0  0  0  0  0  0  0  0  0
    8.5766  -15.2329   22.9788 N   0  0  0  0  0  0  0  0  0  0  0  0
    8.6444  -14.7645   24.3629 C   0  0  1  0  0  0  0  0  0  0  0  0
    7.3856  -14.0284   24.6160 C   0  0  0  0  0  0  0  0  0  0  0  0
    7.1804  -13.4407   25.9583 C   0  0  0  0  0  0  0  0  0  0  0  0
    6.1504  -12.3825   26.1007 C   0  0  0  0  0  0  0  0  0  0  0  0
    6.0249  -11.8643   27.5097 C   0  0  0  0  0  0  0  0  0  0  0  0
    5.0523  -10.7936   27.6057 N   0  0  0  0  0  0  0  0  0  0  0  0
    9.0743  -15.7800   25.2922 C   0  0  0  0  0  0  0  0  0  0  0  0
    9.8463  -15.5026   26.4470 O   0  0  0  0  0  0  0  0  0  0  0  0
    8.8098  -17.0038   25.1733 O   0  0  0  0  0  0  0  0  0  0  0  0
  2  1  1  6
  2  7  1  0
  3  2  1  0
  4  3  1  0
  5  4  1  0
  6  5  2  0
  7 10  1  0
  8  7  2  0
  9  5  1  0
 10 11  1  0
 11 12  1  0
 12 13  2  0
 12 14  1  0
 14 15  1  0
 15 21  1  0
 15 16  1  1
 17 16  1  0
 18 17  1  0
 19 18  1  0
 20 19  1  0
 21 23  2  0
 21 22  1  0
M  END
$$$$
