EGK.pdb
     RDKit          3D

 23 22  0  0  1  0  0  0  0  0999 V2000
   10.8186  -22.4535   19.7032 N   0  0  0  0  0  0  0  0  0  0  0  0
   12.0314  -21.7010   19.4942 C   0  0  1  0  0  0  0  0  0  0  0  0
   11.7633  -20.3947   18.7850 C   0  0  0  0  0  0  0  0  0  0  0  0
   10.4221  -19.8296   19.1797 C   0  0  0  0  0  0  0  0  0  0  0  0
   10.2741  -18.4917   18.5738 C   0  0  0  0  0  0  0  0  0  0  0  0
   11.1832  -18.0297   17.8569 O   0  0  0  0  0  0  0  0  0  0  0  0
   12.7897  -21.4431   20.7200 C   0  0  0  0  0  0  0  0  0  0  0  0
   13.9011  -20.8679   20.6534 O   0  0  0  0  0  0  0  0  0  0  0  0
    9.1384  -17.7463   18.7930 O   0  0  0  0  0  0  0  0  0  0  0  0
   12.3456  -21.8100   22.0259 N   0  0  0  0  0  0  0  0  0  0  0  0
   13.0677  -21.5511   23.2379 C   0  0  0  0  0  0  0  0  0  0  0  0
   12.2986  -20.8782   24.2877 C   0  0  0  0  0  0  0  0  0  0  0  0
   11.2016  -20.3325   23.9917 O   0  0  0  0  0  0  0  0  0  0  0  0
   12.6831  -20.7827   25.6334 N   0  0  0  0  0  0  0  0  0  0  0  0
   11.9069  -20.1208   26.6818 C   0  0  1  0  0  0  0  0  0  0  0  0
   11.5891  -21.1613   27.6852 C   0  0  0  0  0  0  0  0  0  0  0  0
   11.0064  -22.4346   27.2075 C   0  0  0  0  0  0  0  0  0  0  0  0
   10.6699  -23.4651   28.2203 C   0  0  0  0  0  0  0  0  0  0  0  0
   10.0423  -24.6982   27.6243 C   0  0  0  0  0  0  0  0  0  0  0  0
    9.7021  -25.6748   28.6403 N   0  0  0  0  0  0  0  0  0  0  0  0
   12.4752  -18.8671   27.1120 C   0  0  0  0  0  0  0  0  0  0  0  0
   11.7448  -17.8847   27.8248 O   0  0  0  0  0  0  0  0  0  0  0  0
   13.6658  -18.5217   26.9004 O   0  0  0  0  0  0  0  0  0  0  0  0
  2  1  1  1
  2  7  1  0
  3  2  1  0
  4  3  1  0
  5  4  1  0
  6  5  2  0
  7 10  1  0
  8  7  2  0
  9  5  1  0
 10 11  1  0
 11 12  1  0
 12 13  2  0
 12 14  1  0
 14 15  1  0
 15 21  1  0
 15 16  1  1
 17 16  1  0
 18 17  1  0
 19 18  1  0
 20 19  1  0
 21 23  2  0
 21 22  1  0
M  END
$$$$
