EGK.pdb
     RDKit          3D

 23 22  0  0  1  0  0  0  0  0999 V2000
   10.2391  -18.6564   21.7402 N   0  0  0  0  0  0  0  0  0  0  0  0
   11.0363  -18.0715   22.7904 C   0  0  1  0  0  0  0  0  0  0  0  0
   12.4984  -18.0138   22.4159 C   0  0  0  0  0  0  0  0  0  0  0  0
   12.7296  -18.5979   21.0450 C   0  0  0  0  0  0  0  0  0  0  0  0
   14.1785  -18.5868   20.7628 C   0  0  0  0  0  0  0  0  0  0  0  0
   14.9730  -18.1279   21.6067 O   0  0  0  0  0  0  0  0  0  0  0  0
   10.5875  -16.7415   23.2071 C   0  0  0  0  0  0  0  0  0  0  0  0
   11.1334  -16.1798   24.1853 O   0  0  0  0  0  0  0  0  0  0  0  0
   14.6632  -19.0796   19.5729 O   0  0  0  0  0  0  0  0  0  0  0  0
    9.5411  -16.0140   22.5642 N   0  0  0  0  0  0  0  0  0  0  0  0
    9.0769  -14.7189   22.9697 C   0  0  0  0  0  0  0  0  0  0  0  0
    8.4572  -14.6683   24.2963 C   0  0  0  0  0  0  0  0  0  0  0  0
    7.4877  -15.4325   24.5511 O   0  0  0  0  0  0  0  0  0  0  0  0
    8.8561  -13.8213   25.3409 N   0  0  0  0  0  0  0  0  0  0  0  0
    8.1813  -13.7102   26.6339 C   0  0  1  0  0  0  0  0  0  0  0  0
    9.1743  -14.1054   27.6579 C   0  0  0  0  0  0  0  0  0  0  0  0
    9.7397  -15.4710   27.5892 C   0  0  0  0  0  0  0  0  0  0  0  0
   10.7114  -15.8714   28.6363 C   0  0  0  0  0  0  0  0  0  0  0  0
   11.1017  -17.3243   28.5573 C   0  0  0  0  0  0  0  0  0  0  0  0
   12.0827  -17.6747   29.5654 N   0  0  0  0  0  0  0  0  0  0  0  0
    7.4453  -12.4804   26.7936 C   0  0  0  0  0  0  0  0  0  0  0  0
    6.3757  -12.3260   27.7095 O   0  0  0  0  0  0  0  0  0  0  0  0
    7.6760  -11.4296   26.1423 O   0  0  0  0  0  0  0  0  0  0  0  0
  2  1  1  6
  2  7  1  0
  3  2  1  0
  4  3  1  0
  5  4  1  0
  6  5  2  0
  7 10  1  0
  8  7  2  0
  9  5  1  0
 10 11  1  0
 11 12  1  0
 12 13  2  0
 12 14  1  0
 14 15  1  0
 15 21  1  0
 15 16  1  1
 17 16  1  0
 18 17  1  0
 19 18  1  0
 20 19  1  0
 21 23  2  0
 21 22  1  0
M  END
$$$$
