EGK.pdb
     RDKit          3D

 23 22  0  0  1  0  0  0  0  0999 V2000
   11.7815  -16.3686   20.4417 N   0  0  0  0  0  0  0  0  0  0  0  0
   10.3694  -16.0739   20.4435 C   0  0  1  0  0  0  0  0  0  0  0  0
    9.6443  -16.8067   19.3397 C   0  0  0  0  0  0  0  0  0  0  0  0
   10.1376  -18.2264   19.2171 C   0  0  0  0  0  0  0  0  0  0  0  0
    9.5033  -18.8490   18.0386 C   0  0  0  0  0  0  0  0  0  0  0  0
    8.6795  -18.2031   17.3618 O   0  0  0  0  0  0  0  0  0  0  0  0
    9.7078  -16.3414   21.7221 C   0  0  0  0  0  0  0  0  0  0  0  0
    8.5154  -15.9940   21.8892 O   0  0  0  0  0  0  0  0  0  0  0  0
    9.8133  -20.1403   17.6778 O   0  0  0  0  0  0  0  0  0  0  0  0
   10.3386  -16.9867   22.8280 N   0  0  0  0  0  0  0  0  0  0  0  0
    9.7155  -17.2299   24.0968 C   0  0  0  0  0  0  0  0  0  0  0  0
   10.1362  -16.3345   25.1775 C   0  0  0  0  0  0  0  0  0  0  0  0
   11.2709  -15.7890   25.1167 O   0  0  0  0  0  0  0  0  0  0  0  0
    9.3683  -16.0191   26.3082 N   0  0  0  0  0  0  0  0  0  0  0  0
    9.8292  -15.2073   27.4344 C   0  0  1  0  0  0  0  0  0  0  0  0
    8.7152  -14.2935   27.7732 C   0  0  0  0  0  0  0  0  0  0  0  0
    8.2367  -13.3614   26.7285 C   0  0  0  0  0  0  0  0  0  0  0  0
    7.1398  -12.4277   27.0834 C   0  0  0  0  0  0  0  0  0  0  0  0
    6.8070  -11.4584   25.9793 C   0  0  0  0  0  0  0  0  0  0  0  0
    5.7304  -10.5630   26.3543 N   0  0  0  0  0  0  0  0  0  0  0  0
   10.4600  -15.9779   28.4774 C   0  0  0  0  0  0  0  0  0  0  0  0
   11.2443  -15.4010   29.5063 O   0  0  0  0  0  0  0  0  0  0  0  0
   10.3785  -17.2288   28.5790 O   0  0  0  0  0  0  0  0  0  0  0  0
  2  1  1  1
  2  7  1  0
  3  2  1  0
  4  3  1  0
  5  4  1  0
  6  5  2  0
  7 10  1  0
  8  7  2  0
  9  5  1  0
 10 11  1  0
 11 12  1  0
 12 13  2  0
 12 14  1  0
 14 15  1  0
 15 21  1  0
 15 16  1  1
 17 16  1  0
 18 17  1  0
 19 18  1  0
 20 19  1  0
 21 23  2  0
 21 22  1  0
M  END
$$$$
