EGK.pdb
     RDKit          3D

 23 22  0  0  1  0  0  0  0  0999 V2000
   12.3772  -19.7635   20.2009 N   0  0  0  0  0  0  0  0  0  0  0  0
   11.8966  -18.4901   19.7232 C   0  0  1  0  0  0  0  0  0  0  0  0
   11.6813  -18.4992   18.2283 C   0  0  0  0  0  0  0  0  0  0  0  0
   10.7302  -19.5977   17.8249 C   0  0  0  0  0  0  0  0  0  0  0  0
   10.5495  -19.5548   16.3605 C   0  0  0  0  0  0  0  0  0  0  0  0
   11.4818  -19.8997   15.6084 O   0  0  0  0  0  0  0  0  0  0  0  0
   10.6768  -18.0274   20.3881 C   0  0  0  0  0  0  0  0  0  0  0  0
   10.0094  -18.8253   21.0869 O   0  0  0  0  0  0  0  0  0  0  0  0
    9.3575  -19.1361   15.8148 O   0  0  0  0  0  0  0  0  0  0  0  0
   10.1736  -16.6948   20.2964 N   0  0  0  0  0  0  0  0  0  0  0  0
    8.9828  -16.2242   20.9426 C   0  0  0  0  0  0  0  0  0  0  0  0
    9.1808  -15.6745   22.2862 C   0  0  0  0  0  0  0  0  0  0  0  0
   10.3244  -15.7358   22.8127 O   0  0  0  0  0  0  0  0  0  0  0  0
    8.1837  -15.0677   23.0641 N   0  0  0  0  0  0  0  0  0  0  0  0
    8.3754  -14.5538   24.4202 C   0  0  1  0  0  0  0  0  0  0  0  0
    7.2700  -13.6004   24.6649 C   0  0  0  0  0  0  0  0  0  0  0  0
    7.2705  -12.8454   25.9374 C   0  0  0  0  0  0  0  0  0  0  0  0
    6.1224  -11.9458   26.2090 C   0  0  0  0  0  0  0  0  0  0  0  0
    6.2435  -11.2104   27.5182 C   0  0  0  0  0  0  0  0  0  0  0  0
    5.0659  -10.4133   27.7997 N   0  0  0  0  0  0  0  0  0  0  0  0
    8.6549  -15.5837   25.3902 C   0  0  0  0  0  0  0  0  0  0  0  0
    9.6114  -15.4400   26.4252 O   0  0  0  0  0  0  0  0  0  0  0  0
    8.0831  -16.7035   25.4161 O   0  0  0  0  0  0  0  0  0  0  0  0
  2  1  1  1
  2  7  1  0
  3  2  1  0
  4  3  1  0
  5  4  1  0
  6  5  2  0
  7 10  1  0
  8  7  2  0
  9  5  1  0
 10 11  1  0
 11 12  1  0
 12 13  2  0
 12 14  1  0
 14 15  1  0
 15 21  1  0
 15 16  1  1
 17 16  1  0
 18 17  1  0
 19 18  1  0
 20 19  1  0
 21 23  2  0
 21 22  1  0
M  END
$$$$
