EGK.pdb
     RDKit          3D

 23 22  0  0  1  0  0  0  0  0999 V2000
    8.7533  -18.4552   20.8197 N   0  0  0  0  0  0  0  0  0  0  0  0
    9.9667  -17.7674   21.1875 C   0  0  1  0  0  0  0  0  0  0  0  0
   10.6973  -17.2369   19.9767 C   0  0  0  0  0  0  0  0  0  0  0  0
   11.1947  -18.3642   19.1074 C   0  0  0  0  0  0  0  0  0  0  0  0
   11.9815  -17.7945   17.9959 C   0  0  0  0  0  0  0  0  0  0  0  0
   13.1385  -17.3789   18.2021 O   0  0  0  0  0  0  0  0  0  0  0  0
    9.7666  -16.6820   22.1499 C   0  0  0  0  0  0  0  0  0  0  0  0
   10.7595  -16.1279   22.6766 O   0  0  0  0  0  0  0  0  0  0  0  0
   11.4489  -17.7172   16.7294 O   0  0  0  0  0  0  0  0  0  0  0  0
    8.4858  -16.1931   22.5471 N   0  0  0  0  0  0  0  0  0  0  0  0
    8.2692  -15.1772   23.5362 C   0  0  0  0  0  0  0  0  0  0  0  0
    8.2980  -15.6451   24.9242 C   0  0  0  0  0  0  0  0  0  0  0  0
    8.0171  -14.8380   25.8507 O   0  0  0  0  0  0  0  0  0  0  0  0
    8.6195  -16.9492   25.3290 N   0  0  0  0  0  0  0  0  0  0  0  0
    8.6603  -17.4099   26.7167 C   0  0  1  0  0  0  0  0  0  0  0  0
    8.2105  -18.8199   26.7013 C   0  0  0  0  0  0  0  0  0  0  0  0
    7.0979  -19.1862   25.7974 C   0  0  0  0  0  0  0  0  0  0  0  0
    6.7963  -20.6279   25.6197 C   0  0  0  0  0  0  0  0  0  0  0  0
    5.6146  -20.8789   24.7196 C   0  0  0  0  0  0  0  0  0  0  0  0
    5.4196  -22.2931   24.4676 N   0  0  0  0  0  0  0  0  0  0  0  0
    9.8794  -17.0592   27.4024 C   0  0  0  0  0  0  0  0  0  0  0  0
   10.0202  -17.1006   28.8114 O   0  0  0  0  0  0  0  0  0  0  0  0
   10.9320  -16.6845   26.8249 O   0  0  0  0  0  0  0  0  0  0  0  0
  2  1  1  6
  2  7  1  0
  3  2  1  0
  4  3  1  0
  5  4  1  0
  6  5  2  0
  7 10  1  0
  8  7  2  0
  9  5  1  0
 10 11  1  0
 11 12  1  0
 12 13  2  0
 12 14  1  0
 14 15  1  0
 15 21  1  0
 15 16  1  6
 17 16  1  0
 18 17  1  0
 19 18  1  0
 20 19  1  0
 21 23  2  0
 21 22  1  0
M  END
$$$$
