EGK.pdb
     RDKit          3D

 23 22  0  0  1  0  0  0  0  0999 V2000
   10.9387  -19.9508   19.7772 N   0  0  0  0  0  0  0  0  0  0  0  0
   11.5791  -18.6786   20.0055 C   0  0  1  0  0  0  0  0  0  0  0  0
   12.3394  -18.2092   18.7877 C   0  0  0  0  0  0  0  0  0  0  0  0
   12.5491  -19.3392   17.8115 C   0  0  0  0  0  0  0  0  0  0  0  0
   13.3586  -18.8449   16.6804 C   0  0  0  0  0  0  0  0  0  0  0  0
   13.5434  -19.5706   15.6839 O   0  0  0  0  0  0  0  0  0  0  0  0
   10.6647  -17.6230   20.4456 C   0  0  0  0  0  0  0  0  0  0  0  0
   11.1011  -16.4648   20.6413 O   0  0  0  0  0  0  0  0  0  0  0  0
   13.9135  -17.5861   16.7147 O   0  0  0  0  0  0  0  0  0  0  0  0
    9.2701  -17.8200   20.6773 N   0  0  0  0  0  0  0  0  0  0  0  0
    8.3530  -16.7897   21.0704 C   0  0  0  0  0  0  0  0  0  0  0  0
    8.6610  -16.1370   22.3455 C   0  0  0  0  0  0  0  0  0  0  0  0
    9.5620  -16.6216   23.0819 O   0  0  0  0  0  0  0  0  0  0  0  0
    8.0257  -14.9869   22.8367 N   0  0  0  0  0  0  0  0  0  0  0  0
    8.2610  -14.3978   24.1547 C   0  0  1  0  0  0  0  0  0  0  0  0
    7.1893  -13.3982   24.3620 C   0  0  0  0  0  0  0  0  0  0  0  0
    7.1246  -12.7073   25.6688 C   0  0  0  0  0  0  0  0  0  0  0  0
    6.0427  -11.7129   25.8734 C   0  0  0  0  0  0  0  0  0  0  0  0
    6.0548  -11.0997   27.2494 C   0  0  0  0  0  0  0  0  0  0  0  0
    5.0029  -10.1153   27.4101 N   0  0  0  0  0  0  0  0  0  0  0  0
    8.5308  -15.3749   25.1804 C   0  0  0  0  0  0  0  0  0  0  0  0
    7.7291  -16.5233   25.3926 O   0  0  0  0  0  0  0  0  0  0  0  0
    9.4965  -15.3077   25.9833 O   0  0  0  0  0  0  0  0  0  0  0  0
  2  1  1  6
  2  7  1  0
  3  2  1  0
  4  3  1  0
  5  4  1  0
  6  5  2  0
  7 10  1  0
  8  7  2  0
  9  5  1  0
 10 11  1  0
 11 12  1  0
 12 13  2  0
 12 14  1  0
 14 15  1  0
 15 21  1  0
 15 16  1  1
 17 16  1  0
 18 17  1  0
 19 18  1  0
 20 19  1  0
 21 23  2  0
 21 22  1  0
M  END
$$$$
