EGK.pdb
     RDKit          3D

 23 22  0  0  1  0  0  0  0  0999 V2000
   10.8778  -19.5498   19.6318 N   0  0  0  0  0  0  0  0  0  0  0  0
   11.3625  -18.1932   19.5593 C   0  0  1  0  0  0  0  0  0  0  0  0
   11.6872  -17.7910   18.1401 C   0  0  0  0  0  0  0  0  0  0  0  0
   11.5665  -18.9663   17.2031 C   0  0  0  0  0  0  0  0  0  0  0  0
   12.6553  -18.8943   16.2089 C   0  0  0  0  0  0  0  0  0  0  0  0
   12.4483  -18.3708   15.0967 O   0  0  0  0  0  0  0  0  0  0  0  0
   10.4571  -17.2058   20.1503 C   0  0  0  0  0  0  0  0  0  0  0  0
   10.7910  -15.9985   20.1839 O   0  0  0  0  0  0  0  0  0  0  0  0
   13.9015  -19.4011   16.4984 O   0  0  0  0  0  0  0  0  0  0  0  0
    9.1834  -17.5246   20.7101 N   0  0  0  0  0  0  0  0  0  0  0  0
    8.2441  -16.5611   21.2066 C   0  0  0  0  0  0  0  0  0  0  0  0
    8.5333  -16.0451   22.5470 C   0  0  0  0  0  0  0  0  0  0  0  0
    9.5096  -16.5170   23.1897 O   0  0  0  0  0  0  0  0  0  0  0  0
    7.8007  -15.0432   23.2007 N   0  0  0  0  0  0  0  0  0  0  0  0
    8.0599  -14.5666   24.5592 C   0  0  1  0  0  0  0  0  0  0  0  0
    7.0520  -13.5178   24.8325 C   0  0  0  0  0  0  0  0  0  0  0  0
    7.0494  -12.8862   26.1705 C   0  0  0  0  0  0  0  0  0  0  0  0
    6.0167  -11.8580   26.4488 C   0  0  0  0  0  0  0  0  0  0  0  0
    6.1242  -11.2702   27.8316 C   0  0  0  0  0  0  0  0  0  0  0  0
    5.0672  -10.3135   28.0944 N   0  0  0  0  0  0  0  0  0  0  0  0
    8.2568  -15.6303   25.5129 C   0  0  0  0  0  0  0  0  0  0  0  0
    9.2851  -15.6225   26.4871 O   0  0  0  0  0  0  0  0  0  0  0  0
    7.5422  -16.6632   25.5763 O   0  0  0  0  0  0  0  0  0  0  0  0
  2  1  1  6
  2  7  1  0
  3  2  1  0
  4  3  1  0
  5  4  1  0
  6  5  2  0
  7 10  1  0
  8  7  2  0
  9  5  1  0
 10 11  1  0
 11 12  1  0
 12 13  2  0
 12 14  1  0
 14 15  1  0
 15 21  1  0
 15 16  1  1
 17 16  1  0
 18 17  1  0
 19 18  1  0
 20 19  1  0
 21 23  2  0
 21 22  1  0
M  END
$$$$
