EGK.pdb
     RDKit          3D

 23 22  0  0  1  0  0  0  0  0999 V2000
   10.7713  -17.5408   17.9734 N   0  0  0  0  0  0  0  0  0  0  0  0
   10.3701  -18.3498   19.0983 C   0  0  1  0  0  0  0  0  0  0  0  0
   11.5518  -18.7455   19.9517 C   0  0  0  0  0  0  0  0  0  0  0  0
   12.3314  -17.5325   20.3931 C   0  0  0  0  0  0  0  0  0  0  0  0
   13.4518  -17.9736   21.2470 C   0  0  0  0  0  0  0  0  0  0  0  0
   13.2216  -18.4829   22.3612 O   0  0  0  0  0  0  0  0  0  0  0  0
    9.3463  -17.7296   19.9417 C   0  0  0  0  0  0  0  0  0  0  0  0
    8.7149  -18.4289   20.7679 O   0  0  0  0  0  0  0  0  0  0  0  0
   14.7532  -17.8277   20.8240 O   0  0  0  0  0  0  0  0  0  0  0  0
    9.0010  -16.3456   19.8912 N   0  0  0  0  0  0  0  0  0  0  0  0
    7.9623  -15.7331   20.6679 C   0  0  0  0  0  0  0  0  0  0  0  0
    8.3477  -15.3495   22.0283 C   0  0  0  0  0  0  0  0  0  0  0  0
    9.5229  -15.5794   22.4219 O   0  0  0  0  0  0  0  0  0  0  0  0
    7.5027  -14.7307   22.9615 N   0  0  0  0  0  0  0  0  0  0  0  0
    7.9069  -14.2946   24.2980 C   0  0  1  0  0  0  0  0  0  0  0  0
    6.9585  -13.2293   24.6935 C   0  0  0  0  0  0  0  0  0  0  0  0
    7.1952  -12.5263   25.9737 C   0  0  0  0  0  0  0  0  0  0  0  0
    6.1606  -11.5711   26.4406 C   0  0  0  0  0  0  0  0  0  0  0  0
    6.5112  -10.9113   27.7488 C   0  0  0  0  0  0  0  0  0  0  0  0
    5.4934   -9.9672   28.1663 N   0  0  0  0  0  0  0  0  0  0  0  0
    8.1691  -15.3861   25.2032 C   0  0  0  0  0  0  0  0  0  0  0  0
    9.2105  -15.3688   26.1634 O   0  0  0  0  0  0  0  0  0  0  0  0
    7.5060  -16.4544   25.2324 O   0  0  0  0  0  0  0  0  0  0  0  0
  2  1  1  6
  2  7  1  0
  3  2  1  0
  4  3  1  0
  5  4  1  0
  6  5  2  0
  7 10  1  0
  8  7  2  0
  9  5  1  0
 10 11  1  0
 11 12  1  0
 12 13  2  0
 12 14  1  0
 14 15  1  0
 15 21  1  0
 15 16  1  1
 17 16  1  0
 18 17  1  0
 19 18  1  0
 20 19  1  0
 21 23  2  0
 21 22  1  0
M  END
$$$$
