EGK.pdb
     RDKit          3D

 23 22  0  0  1  0  0  0  0  0999 V2000
   10.9035  -13.8309   17.8398 N   0  0  0  0  0  0  0  0  0  0  0  0
    9.5490  -13.4370   18.1414 C   0  0  1  0  0  0  0  0  0  0  0  0
    8.6573  -13.5260   16.9256 C   0  0  0  0  0  0  0  0  0  0  0  0
    8.8771  -14.8220   16.1866 C   0  0  0  0  0  0  0  0  0  0  0  0
    7.9337  -14.8876   15.0531 C   0  0  0  0  0  0  0  0  0  0  0  0
    7.1717  -13.9286   14.8218 O   0  0  0  0  0  0  0  0  0  0  0  0
    8.9439  -14.1854   19.2450 C   0  0  0  0  0  0  0  0  0  0  0  0
    7.8453  -13.8132   19.7192 O   0  0  0  0  0  0  0  0  0  0  0  0
    7.8867  -16.0010   14.2458 O   0  0  0  0  0  0  0  0  0  0  0  0
    9.5299  -15.3422   19.8414 N   0  0  0  0  0  0  0  0  0  0  0  0
    8.9356  -16.1065   20.8997 C   0  0  0  0  0  0  0  0  0  0  0  0
    9.1183  -15.5531   22.2440 C   0  0  0  0  0  0  0  0  0  0  0  0
   10.2812  -15.4766   22.7242 O   0  0  0  0  0  0  0  0  0  0  0  0
    8.0857  -15.0864   23.0709 N   0  0  0  0  0  0  0  0  0  0  0  0
    8.2645  -14.5883   24.4346 C   0  0  1  0  0  0  0  0  0  0  0  0
    7.1018  -13.7167   24.7160 C   0  0  0  0  0  0  0  0  0  0  0  0
    7.0366  -13.0463   26.0333 C   0  0  0  0  0  0  0  0  0  0  0  0
    5.8277  -12.2440   26.3428 C   0  0  0  0  0  0  0  0  0  0  0  0
    5.8513  -11.6472   27.7258 C   0  0  0  0  0  0  0  0  0  0  0  0
    4.6378  -10.9088   28.0152 N   0  0  0  0  0  0  0  0  0  0  0  0
    8.6281  -15.6165   25.3782 C   0  0  0  0  0  0  0  0  0  0  0  0
    9.5221  -15.4035   26.4562 O   0  0  0  0  0  0  0  0  0  0  0  0
    8.1924  -16.7957   25.3407 O   0  0  0  0  0  0  0  0  0  0  0  0
  2  1  1  6
  2  7  1  0
  3  2  1  0
  4  3  1  0
  5  4  1  0
  6  5  2  0
  7 10  1  0
  8  7  2  0
  9  5  1  0
 10 11  1  0
 11 12  1  0
 12 13  2  0
 12 14  1  0
 14 15  1  0
 15 21  1  0
 15 16  1  1
 17 16  1  0
 18 17  1  0
 19 18  1  0
 20 19  1  0
 21 23  2  0
 21 22  1  0
M  END
$$$$
