EGK.pdb
     RDKit          3D

 23 22  0  0  1  0  0  0  0  0999 V2000
   13.8982  -14.8232   16.4981 N   0  0  0  0  0  0  0  0  0  0  0  0
   14.5713  -15.0378   17.7557 C   0  0  1  0  0  0  0  0  0  0  0  0
   15.8285  -14.2079   17.8654 C   0  0  0  0  0  0  0  0  0  0  0  0
   16.1928  -13.5985   16.5350 C   0  0  0  0  0  0  0  0  0  0  0  0
   17.6639  -13.5451   16.4246 C   0  0  0  0  0  0  0  0  0  0  0  0
   18.2663  -14.3870   15.7302 O   0  0  0  0  0  0  0  0  0  0  0  0
   13.7281  -14.8020   18.9294 C   0  0  0  0  0  0  0  0  0  0  0  0
   14.0907  -13.9755   19.7988 O   0  0  0  0  0  0  0  0  0  0  0  0
   18.3799  -12.5717   17.0828 O   0  0  0  0  0  0  0  0  0  0  0  0
   12.4860  -15.4641   19.1664 N   0  0  0  0  0  0  0  0  0  0  0  0
   11.6961  -15.3195   20.3547 C   0  0  0  0  0  0  0  0  0  0  0  0
   12.3640  -15.7159   21.5970 C   0  0  0  0  0  0  0  0  0  0  0  0
   13.5539  -16.1291   21.5500 O   0  0  0  0  0  0  0  0  0  0  0  0
   11.7827  -15.6766   22.8730 N   0  0  0  0  0  0  0  0  0  0  0  0
   12.4428  -16.0995   24.1080 C   0  0  1  0  0  0  0  0  0  0  0  0
   11.4760  -15.8561   25.2020 C   0  0  0  0  0  0  0  0  0  0  0  0
   11.8215  -16.3392   26.5571 C   0  0  0  0  0  0  0  0  0  0  0  0
   10.8223  -16.1463   27.6366 C   0  0  0  0  0  0  0  0  0  0  0  0
   11.2659  -16.7097   28.9615 C   0  0  0  0  0  0  0  0  0  0  0  0
   10.2771  -16.4908   29.9987 N   0  0  0  0  0  0  0  0  0  0  0  0
   13.0896  -17.3841   24.0025 C   0  0  0  0  0  0  0  0  0  0  0  0
   12.5328  -18.4811   23.3002 O   0  0  0  0  0  0  0  0  0  0  0  0
   14.2034  -17.6585   24.5181 O   0  0  0  0  0  0  0  0  0  0  0  0
  2  1  1  6
  2  7  1  0
  3  2  1  0
  4  3  1  0
  5  4  1  0
  6  5  2  0
  7 10  1  0
  8  7  2  0
  9  5  1  0
 10 11  1  0
 11 12  1  0
 12 13  2  0
 12 14  1  0
 14 15  1  0
 15 21  1  0
 15 16  1  1
 17 16  1  0
 18 17  1  0
 19 18  1  0
 20 19  1  0
 21 23  2  0
 21 22  1  0
M  END
$$$$
