EGK.pdb
     RDKit          3D

 23 22  0  0  1  0  0  0  0  0999 V2000
   10.7657  -17.6443   18.3214 N   0  0  0  0  0  0  0  0  0  0  0  0
    9.9465  -18.4331   19.2087 C   0  0  1  0  0  0  0  0  0  0  0  0
   10.7837  -19.2401   20.1726 C   0  0  0  0  0  0  0  0  0  0  0  0
   11.9183  -18.4154   20.7261 C   0  0  0  0  0  0  0  0  0  0  0  0
   12.6760  -19.2373   21.6901 C   0  0  0  0  0  0  0  0  0  0  0  0
   12.2858  -20.3881   21.9679 O   0  0  0  0  0  0  0  0  0  0  0  0
    8.9585  -17.6530   19.9567 C   0  0  0  0  0  0  0  0  0  0  0  0
    8.0181  -18.2391   20.5419 O   0  0  0  0  0  0  0  0  0  0  0  0
   13.8133  -18.7442   22.2877 O   0  0  0  0  0  0  0  0  0  0  0  0
    8.9855  -16.2306   20.0722 N   0  0  0  0  0  0  0  0  0  0  0  0
    8.0043  -15.4478   20.7661 C   0  0  0  0  0  0  0  0  0  0  0  0
    8.3254  -15.1451   22.1632 C   0  0  0  0  0  0  0  0  0  0  0  0
    9.4605  -15.4566   22.6141 O   0  0  0  0  0  0  0  0  0  0  0  0
    7.4587  -14.5212   23.0728 N   0  0  0  0  0  0  0  0  0  0  0  0
    7.8205  -14.1137   24.4303 C   0  0  1  0  0  0  0  0  0  0  0  0
    6.8791  -13.0354   24.8067 C   0  0  0  0  0  0  0  0  0  0  0  0
    7.0677  -12.3717   26.1156 C   0  0  0  0  0  0  0  0  0  0  0  0
    6.0623  -11.3633   26.5318 C   0  0  0  0  0  0  0  0  0  0  0  0
    6.3072  -10.8190   27.9150 C   0  0  0  0  0  0  0  0  0  0  0  0
    5.2765   -9.8819   28.3160 N   0  0  0  0  0  0  0  0  0  0  0  0
    8.0264  -15.2239   25.3273 C   0  0  0  0  0  0  0  0  0  0  0  0
    7.3255  -16.4504   25.2225 O   0  0  0  0  0  0  0  0  0  0  0  0
    8.8417  -15.2164   26.2849 O   0  0  0  0  0  0  0  0  0  0  0  0
  2  1  1  1
  2  7  1  0
  3  2  1  0
  4  3  1  0
  5  4  1  0
  6  5  2  0
  7 10  1  0
  8  7  2  0
  9  5  1  0
 10 11  1  0
 11 12  1  0
 12 13  2  0
 12 14  1  0
 14 15  1  0
 15 21  1  0
 15 16  1  1
 17 16  1  0
 18 17  1  0
 19 18  1  0
 20 19  1  0
 21 23  2  0
 21 22  1  0
M  END
$$$$
