EGK.pdb
     RDKit          3D

 23 22  0  0  1  0  0  0  0  0999 V2000
   10.4143  -13.6130   18.2249 N   0  0  0  0  0  0  0  0  0  0  0  0
    9.0633  -13.2803   18.6055 C   0  0  1  0  0  0  0  0  0  0  0  0
    8.1065  -13.4156   17.4447 C   0  0  0  0  0  0  0  0  0  0  0  0
    8.0833  -14.8307   16.9241 C   0  0  0  0  0  0  0  0  0  0  0  0
    8.1909  -14.7966   15.4523 C   0  0  0  0  0  0  0  0  0  0  0  0
    9.2613  -14.4511   14.9148 O   0  0  0  0  0  0  0  0  0  0  0  0
    8.5595  -14.0507   19.7443 C   0  0  0  0  0  0  0  0  0  0  0  0
    7.4502  -13.7594   20.2492 O   0  0  0  0  0  0  0  0  0  0  0  0
    7.1175  -15.1437   14.6642 O   0  0  0  0  0  0  0  0  0  0  0  0
    9.2590  -15.1415   20.3426 N   0  0  0  0  0  0  0  0  0  0  0  0
    8.7329  -15.9789   21.3814 C   0  0  0  0  0  0  0  0  0  0  0  0
    9.1254  -15.6023   22.7418 C   0  0  0  0  0  0  0  0  0  0  0  0
   10.2590  -15.0854   22.9333 O   0  0  0  0  0  0  0  0  0  0  0  0
    8.3309  -15.7693   23.8857 N   0  0  0  0  0  0  0  0  0  0  0  0
    8.7612  -15.4829   25.2541 C   0  0  1  0  0  0  0  0  0  0  0  0
    7.5983  -14.8743   25.9381 C   0  0  0  0  0  0  0  0  0  0  0  0
    7.5414  -13.3990   26.0359 C   0  0  0  0  0  0  0  0  0  0  0  0
    6.3760  -12.7954   26.7275 C   0  0  0  0  0  0  0  0  0  0  0  0
    6.4074  -11.2893   26.7357 C   0  0  0  0  0  0  0  0  0  0  0  0
    5.2706  -10.7302   27.4404 N   0  0  0  0  0  0  0  0  0  0  0  0
    9.4599  -16.5796   25.8776 C   0  0  0  0  0  0  0  0  0  0  0  0
    9.4669  -17.8963   25.3553 O   0  0  0  0  0  0  0  0  0  0  0  0
   10.1280  -16.4795   26.9384 O   0  0  0  0  0  0  0  0  0  0  0  0
  2  1  1  6
  2  7  1  0
  3  2  1  0
  4  3  1  0
  5  4  1  0
  6  5  2  0
  7 10  1  0
  8  7  2  0
  9  5  1  0
 10 11  1  0
 11 12  1  0
 12 13  2  0
 12 14  1  0
 14 15  1  0
 15 21  1  0
 15 16  1  1
 17 16  1  0
 18 17  1  0
 19 18  1  0
 20 19  1  0
 21 23  2  0
 21 22  1  0
M  END
$$$$
