EGK.pdb
     RDKit          3D

 23 22  0  0  1  0  0  0  0  0999 V2000
    6.0178  -16.9537   18.4713 N   0  0  0  0  0  0  0  0  0  0  0  0
    7.0051  -17.9991   18.5850 C   0  0  1  0  0  0  0  0  0  0  0  0
    7.3445  -18.5960   17.2397 C   0  0  0  0  0  0  0  0  0  0  0  0
    8.2418  -17.6765   16.4502 C   0  0  0  0  0  0  0  0  0  0  0  0
    8.5078  -18.2886   15.1335 C   0  0  0  0  0  0  0  0  0  0  0  0
    8.1732  -19.4699   14.9179 O   0  0  0  0  0  0  0  0  0  0  0  0
    8.2372  -17.5827   19.2579 C   0  0  0  0  0  0  0  0  0  0  0  0
    9.1269  -18.4299   19.5049 O   0  0  0  0  0  0  0  0  0  0  0  0
    9.1239  -17.5657   14.1377 O   0  0  0  0  0  0  0  0  0  0  0  0
    8.5095  -16.2429   19.6679 N   0  0  0  0  0  0  0  0  0  0  0  0
    9.7494  -15.7973   20.2346 C   0  0  0  0  0  0  0  0  0  0  0  0
    9.9557  -16.1579   21.6396 C   0  0  0  0  0  0  0  0  0  0  0  0
    9.0023  -16.0274   22.4537 O   0  0  0  0  0  0  0  0  0  0  0  0
   11.1537  -16.6502   22.1782 N   0  0  0  0  0  0  0  0  0  0  0  0
   11.3811  -16.9347   23.5949 C   0  0  1  0  0  0  0  0  0  0  0  0
   11.3797  -18.4087   23.7296 C   0  0  0  0  0  0  0  0  0  0  0  0
   11.2742  -18.9837   25.0888 C   0  0  0  0  0  0  0  0  0  0  0  0
   11.3002  -20.4612   25.2194 C   0  0  0  0  0  0  0  0  0  0  0  0
   11.3695  -20.9280   26.6501 C   0  0  0  0  0  0  0  0  0  0  0  0
   11.3593  -22.3744   26.7464 N   0  0  0  0  0  0  0  0  0  0  0  0
   12.4600  -16.1687   24.1683 C   0  0  0  0  0  0  0  0  0  0  0  0
   12.5558  -15.8716   25.5501 O   0  0  0  0  0  0  0  0  0  0  0  0
   13.4168  -15.6912   23.5064 O   0  0  0  0  0  0  0  0  0  0  0  0
  2  1  1  6
  2  7  1  0
  3  2  1  0
  4  3  1  0
  5  4  1  0
  6  5  2  0
  7 10  1  0
  8  7  2  0
  9  5  1  0
 10 11  1  0
 11 12  1  0
 12 13  2  0
 12 14  1  0
 14 15  1  0
 15 21  1  0
 15 16  1  6
 17 16  1  0
 18 17  1  0
 19 18  1  0
 20 19  1  0
 21 23  2  0
 21 22  1  0
M  END
$$$$
