HAV.pdb
     RDKit          3D

 23 23  0  0  1  0  0  0  0  0999 V2000
   20.3658  -12.9332  -18.2005 N   0  0  0  0  0  0  0  0  0  0  0  0
   21.2964  -11.8533  -18.3488 C   0  0  1  0  0  0  0  0  0  0  0  0
   20.8726  -11.0013  -19.4978 C   0  0  0  0  0  0  0  0  0  0  0  0
   21.0288  -11.7764  -20.7576 C   0  0  0  0  0  0  0  0  0  0  0  0
   21.6268  -13.0138  -20.9498 C   0  0  0  0  0  0  0  0  0  0  0  0
   21.5679  -13.3786  -22.2339 N   0  0  0  0  0  0  0  0  0  0  0  0
   20.9309  -12.3809  -22.8869 C   0  0  0  0  0  0  0  0  0  0  0  0
   20.6045  -11.4150  -22.0039 N   0  0  0  0  0  0  0  0  0  0  0  0
   21.4226  -11.0432  -17.1043 C   0  0  0  0  0  0  0  0  0  0  0  0
   20.4223  -10.5984  -16.4880 O   0  0  0  0  0  0  0  0  0  0  0  0
   24.2812  -10.1469  -14.7939 C   0  0  0  0  0  0  0  0  0  0  0  0
   22.9401   -9.9193  -15.4368 C   0  0  2  0  0  0  0  0  0  0  0  0
   22.6904  -10.7457  -16.5706 N   0  0  0  0  0  0  0  0  0  0  0  0
   22.6960   -8.4988  -15.7541 C   0  0  0  0  0  0  0  0  0  0  0  0
   22.9769   -8.0828  -16.9011 O   0  0  0  0  0  0  0  0  0  0  0  0
   20.1103   -4.6195  -15.8224 C   0  0  0  0  0  0  0  0  0  0  0  0
   20.4377   -6.0697  -15.4726 C   0  0  2  0  0  0  0  0  0  0  0  0
   19.6143   -6.5477  -14.3217 C   0  0  0  0  0  0  0  0  0  0  0  0
   21.9296   -6.2152  -15.1901 C   0  0  2  0  0  0  0  0  0  0  0  0
   22.1567   -7.5858  -14.8144 N   0  0  0  0  0  0  0  0  0  0  0  0
   22.3482   -5.3363  -14.0830 C   0  0  0  0  0  0  0  0  0  0  0  0
   22.7057   -4.0147  -14.3101 O   0  0  0  0  0  0  0  0  0  0  0  0
   22.3926   -5.7594  -12.9045 O   0  0  0  0  0  0  0  0  0  0  0  0
  2  1  1  1
  2  9  1  0
  2  3  1  0
  3  4  1  0
  4  5  2  0
  6  5  1  0
  7  6  1  0
  8  7  2  0
  8  4  1  0
  9 13  1  0
 10  9  2  0
 12 11  1  6
 12 14  1  0
 13 12  1  0
 14 15  2  0
 14 20  1  0
 17 16  1  1
 18 17  1  0
 19 21  1  0
 19 17  1  0
 19 20  1  1
 21 22  1  0
 23 21  2  0
M  END
$$$$
