HAV.pdb
     RDKit          3D

 23 23  0  0  1  0  0  0  0  0999 V2000
   19.5143  -12.8971  -17.7893 N   0  0  0  0  0  0  0  0  0  0  0  0
   20.4309  -11.8238  -18.0384 C   0  0  1  0  0  0  0  0  0  0  0  0
   19.9097  -10.9904  -19.1605 C   0  0  0  0  0  0  0  0  0  0  0  0
   19.8266  -11.8281  -20.3866 C   0  0  0  0  0  0  0  0  0  0  0  0
   18.7288  -12.0762  -21.1985 C   0  0  0  0  0  0  0  0  0  0  0  0
   19.0563  -12.8844  -22.2109 N   0  0  0  0  0  0  0  0  0  0  0  0
   20.3700  -13.1682  -22.0653 C   0  0  0  0  0  0  0  0  0  0  0  0
   20.8381  -12.5356  -20.9700 N   0  0  0  0  0  0  0  0  0  0  0  0
   20.6686  -10.9926  -16.8245 C   0  0  0  0  0  0  0  0  0  0  0  0
   19.7296  -10.4690  -16.1745 O   0  0  0  0  0  0  0  0  0  0  0  0
   23.6778  -10.2487  -14.6603 C   0  0  0  0  0  0  0  0  0  0  0  0
   22.3328   -9.9346  -15.2569 C   0  0  2  0  0  0  0  0  0  0  0  0
   21.9772  -10.7640  -16.3597 N   0  0  0  0  0  0  0  0  0  0  0  0
   22.1827   -8.5069  -15.5993 C   0  0  0  0  0  0  0  0  0  0  0  0
   22.5439   -8.1202  -16.7340 O   0  0  0  0  0  0  0  0  0  0  0  0
   19.2874   -6.0323  -14.2987 C   0  0  0  0  0  0  0  0  0  0  0  0
   20.2641   -5.7601  -15.4410 C   0  0  2  0  0  0  0  0  0  0  0  0
   19.8455   -6.4642  -16.6900 C   0  0  0  0  0  0  0  0  0  0  0  0
   21.6777   -6.1542  -15.0250 C   0  0  2  0  0  0  0  0  0  0  0  0
   21.6465   -7.5551  -14.6971 N   0  0  0  0  0  0  0  0  0  0  0  0
   22.1145   -5.3916  -13.8412 C   0  0  0  0  0  0  0  0  0  0  0  0
   22.5933   -4.0944  -13.9584 O   0  0  0  0  0  0  0  0  0  0  0  0
   22.0652   -5.8951  -12.6950 O   0  0  0  0  0  0  0  0  0  0  0  0
  2  1  1  1
  2  9  1  0
  2  3  1  0
  3  4  1  0
  4  5  2  0
  6  5  1  0
  7  6  1  0
  8  7  2  0
  8  4  1  0
  9 13  1  0
 10  9  2  0
 12 11  1  6
 12 14  1  0
 13 12  1  0
 14 15  2  0
 14 20  1  0
 17 16  1  1
 18 17  1  0
 19 21  1  0
 19 17  1  0
 19 20  1  1
 21 22  1  0
 23 21  2  0
M  END
$$$$
