HAV.pdb
     RDKit          3D

 23 23  0  0  1  0  0  0  0  0999 V2000
   20.5047  -14.2121  -18.8249 N   0  0  0  0  0  0  0  0  0  0  0  0
   21.5481  -13.2298  -18.8542 C   0  0  1  0  0  0  0  0  0  0  0  0
   21.5501  -12.5631  -20.1888 C   0  0  0  0  0  0  0  0  0  0  0  0
   21.9446  -13.5553  -21.2241 C   0  0  0  0  0  0  0  0  0  0  0  0
   23.2116  -13.8542  -21.7051 C   0  0  0  0  0  0  0  0  0  0  0  0
   23.1553  -14.8095  -22.6378 N   0  0  0  0  0  0  0  0  0  0  0  0
   21.8510  -15.1392  -22.7706 C   0  0  0  0  0  0  0  0  0  0  0  0
   21.1187  -14.3881  -21.9229 N   0  0  0  0  0  0  0  0  0  0  0  0
   21.4098  -12.2281  -17.7596 C   0  0  0  0  0  0  0  0  0  0  0  0
   20.3528  -11.5741  -17.5771 O   0  0  0  0  0  0  0  0  0  0  0  0
   23.6506  -11.1842  -14.8689 C   0  0  0  0  0  0  0  0  0  0  0  0
   22.4498  -11.0853  -15.7699 C   0  0  2  0  0  0  0  0  0  0  0  0
   22.4795  -11.9788  -16.8795 N   0  0  0  0  0  0  0  0  0  0  0  0
   22.1835   -9.7025  -16.2118 C   0  0  0  0  0  0  0  0  0  0  0  0
   22.7712   -9.2741  -17.2310 O   0  0  0  0  0  0  0  0  0  0  0  0
   19.3202   -6.1189  -17.1807 C   0  0  0  0  0  0  0  0  0  0  0  0
   19.6646   -7.5154  -16.6669 C   0  0  2  0  0  0  0  0  0  0  0  0
   18.6268   -8.0125  -15.7145 C   0  0  0  0  0  0  0  0  0  0  0  0
   21.0505   -7.5109  -16.0298 C   0  0  2  0  0  0  0  0  0  0  0  0
   21.2903   -8.8392  -15.5305 N   0  0  0  0  0  0  0  0  0  0  0  0
   21.1161   -6.5555  -14.9089 C   0  0  0  0  0  0  0  0  0  0  0  0
   21.3621   -5.2073  -15.1270 O   0  0  0  0  0  0  0  0  0  0  0  0
   20.9513   -6.9356  -13.7264 O   0  0  0  0  0  0  0  0  0  0  0  0
  2  1  1  6
  2  9  1  0
  2  3  1  0
  3  4  1  0
  4  5  2  0
  6  5  1  0
  7  6  1  0
  8  7  2  0
  8  4  1  0
  9 13  1  0
 10  9  2  0
 12 11  1  6
 12 14  1  0
 13 12  1  0
 14 15  2  0
 14 20  1  0
 17 16  1  1
 18 17  1  0
 19 21  1  0
 19 17  1  0
 19 20  1  1
 21 22  1  0
 23 21  2  0
M  END
$$$$
