HAV.pdb
     RDKit          3D

 23 23  0  0  1  0  0  0  0  0999 V2000
   16.7676  -10.8844  -17.1642 N   0  0  0  0  0  0  0  0  0  0  0  0
   17.3895  -10.5556  -15.9154 C   0  0  1  0  0  0  0  0  0  0  0  0
   18.4273  -11.5813  -15.6048 C   0  0  0  0  0  0  0  0  0  0  0  0
   17.7551  -12.8737  -15.3050 C   0  0  0  0  0  0  0  0  0  0  0  0
   16.3988  -13.1421  -15.1855 C   0  0  0  0  0  0  0  0  0  0  0  0
   16.1898  -14.4324  -14.9078 N   0  0  0  0  0  0  0  0  0  0  0  0
   17.4090  -15.0132  -14.8446 C   0  0  0  0  0  0  0  0  0  0  0  0
   18.3536  -14.0804  -15.0827 N   0  0  0  0  0  0  0  0  0  0  0  0
   17.9797   -9.1873  -15.9229 C   0  0  0  0  0  0  0  0  0  0  0  0
   18.9931   -8.8965  -16.6062 O   0  0  0  0  0  0  0  0  0  0  0  0
   16.8473   -5.8182  -14.6481 C   0  0  0  0  0  0  0  0  0  0  0  0
   17.8889   -6.8192  -15.0680 C   0  0  2  0  0  0  0  0  0  0  0  0
   17.4094   -8.1586  -15.1499 N   0  0  0  0  0  0  0  0  0  0  0  0
   19.1122   -6.7451  -14.2457 C   0  0  0  0  0  0  0  0  0  0  0  0
   19.1372   -7.3515  -13.1505 O   0  0  0  0  0  0  0  0  0  0  0  0
   22.8359   -5.9036  -15.8197 C   0  0  0  0  0  0  0  0  0  0  0  0
   22.5647   -6.6091  -14.4925 C   0  0  2  0  0  0  0  0  0  0  0  0
   22.3114   -8.0669  -14.6967 C   0  0  0  0  0  0  0  0  0  0  0  0
   21.4013   -5.9361  -13.7710 C   0  0  2  0  0  0  0  0  0  0  0  0
   20.2599   -6.0161  -14.6439 N   0  0  0  0  0  0  0  0  0  0  0  0
   21.6976   -4.5188  -13.4936 C   0  0  0  0  0  0  0  0  0  0  0  0
   22.5651   -4.1520  -12.4744 O   0  0  0  0  0  0  0  0  0  0  0  0
   21.1732   -3.6051  -14.1718 O   0  0  0  0  0  0  0  0  0  0  0  0
  2  1  1  6
  2  9  1  0
  2  3  1  0
  3  4  1  0
  4  5  2  0
  6  5  1  0
  7  6  1  0
  8  7  2  0
  8  4  1  0
  9 13  1  0
 10  9  2  0
 12 11  1  1
 12 14  1  0
 13 12  1  0
 14 15  2  0
 14 20  1  0
 17 16  1  6
 18 17  1  0
 19 21  1  0
 19 17  1  0
 19 20  1  6
 21 22  1  0
 23 21  2  0
M  END
$$$$
