HAV.pdb
     RDKit          3D

 23 23  0  0  1  0  0  0  0  0999 V2000
   16.3500  -19.6074    2.8350 N   0  0  0  0  0  0  0  0  0  0  0  0
   17.2958  -18.6971    3.4103 C   0  0  1  0  0  0  0  0  0  0  0  0
   16.5741  -17.4783    3.8782 C   0  0  0  0  0  0  0  0  0  0  0  0
   15.2315  -17.8746    4.3808 C   0  0  0  0  0  0  0  0  0  0  0  0
   14.2966  -18.7166    3.7952 C   0  0  0  0  0  0  0  0  0  0  0  0
   13.2055  -18.8237    4.5590 N   0  0  0  0  0  0  0  0  0  0  0  0
   13.4225  -18.0520    5.6476 C   0  0  0  0  0  0  0  0  0  0  0  0
   14.6392  -17.4791    5.5455 N   0  0  0  0  0  0  0  0  0  0  0  0
   18.0696  -19.3169    4.5229 C   0  0  0  0  0  0  0  0  0  0  0  0
   17.6768  -20.3499    5.1203 O   0  0  0  0  0  0  0  0  0  0  0  0
   21.5477  -18.8972    5.9044 C   0  0  0  0  0  0  0  0  0  0  0  0
   20.0839  -19.2203    6.0327 C   0  0  2  0  0  0  0  0  0  0  0  0
   19.2875  -18.7535    4.9472 N   0  0  0  0  0  0  0  0  0  0  0  0
   19.5185  -18.7902    7.3263 C   0  0  0  0  0  0  0  0  0  0  0  0
   18.9665  -17.6686    7.3972 O   0  0  0  0  0  0  0  0  0  0  0  0
   17.0838  -20.5861    9.5076 C   0  0  0  0  0  0  0  0  0  0  0  0
   18.2714  -20.2104   10.3915 C   0  0  2  0  0  0  0  0  0  0  0  0
   17.8251  -19.8384   11.7676 C   0  0  0  0  0  0  0  0  0  0  0  0
   19.0719  -19.0865    9.7414 C   0  0  2  0  0  0  0  0  0  0  0  0
   19.5742  -19.5938    8.4918 N   0  0  0  0  0  0  0  0  0  0  0  0
   20.2085  -18.6849   10.5904 C   0  0  0  0  0  0  0  0  0  0  0  0
   21.4224  -19.3547   10.5302 O   0  0  0  0  0  0  0  0  0  0  0  0
   20.1091  -17.7261   11.3908 O   0  0  0  0  0  0  0  0  0  0  0  0
  2  1  1  1
  2  9  1  0
  2  3  1  0
  3  4  1  0
  4  5  2  0
  6  5  1  0
  7  6  1  0
  8  7  2  0
  8  4  1  0
  9 13  1  0
 10  9  2  0
 12 11  1  6
 12 14  1  0
 13 12  1  0
 14 15  2  0
 14 20  1  0
 17 16  1  6
 18 17  1  0
 19 21  1  0
 19 17  1  0
 19 20  1  6
 21 22  1  0
 23 21  2  0
M  END
$$$$
