HAV.pdb
     RDKit          3D

 23 23  0  0  1  0  0  0  0  0999 V2000
   23.2681  -13.0039  -17.5936 N   0  0  0  0  0  0  0  0  0  0  0  0
   23.1769  -12.4332  -16.2821 C   0  0  1  0  0  0  0  0  0  0  0  0
   24.5216  -12.4792  -15.6378 C   0  0  0  0  0  0  0  0  0  0  0  0
   24.9471  -13.8984  -15.5081 C   0  0  0  0  0  0  0  0  0  0  0  0
   24.2089  -15.0523  -15.7309 C   0  0  0  0  0  0  0  0  0  0  0  0
   24.9477  -16.1428  -15.5065 N   0  0  0  0  0  0  0  0  0  0  0  0
   26.1724  -15.7066  -15.1359 C   0  0  0  0  0  0  0  0  0  0  0  0
   26.1775  -14.3578  -15.1352 N   0  0  0  0  0  0  0  0  0  0  0  0
   22.6477  -11.0403  -16.3093 C   0  0  0  0  0  0  0  0  0  0  0  0
   23.2018  -10.1239  -16.9661 O   0  0  0  0  0  0  0  0  0  0  0  0
   19.3879   -9.4928  -15.1730 C   0  0  0  0  0  0  0  0  0  0  0  0
   20.8197   -9.4444  -15.6323 C   0  0  2  0  0  0  0  0  0  0  0  0
   21.4886  -10.7018  -15.5862 N   0  0  0  0  0  0  0  0  0  0  0  0
   21.6036   -8.4031  -14.9400 C   0  0  0  0  0  0  0  0  0  0  0  0
   22.2659   -8.7240  -13.9270 O   0  0  0  0  0  0  0  0  0  0  0  0
   22.3905   -4.6818  -16.7257 C   0  0  0  0  0  0  0  0  0  0  0  0
   23.2826   -5.3565  -15.6856 C   0  0  2  0  0  0  0  0  0  0  0  0
   24.2651   -6.2777  -16.3316 C   0  0  0  0  0  0  0  0  0  0  0  0
   22.4255   -6.0870  -14.6568 C   0  0  2  0  0  0  0  0  0  0  0  0
   21.6378   -7.0548  -15.3738 N   0  0  0  0  0  0  0  0  0  0  0  0
   21.5232   -5.1531  -13.9587 C   0  0  0  0  0  0  0  0  0  0  0  0
   22.0025   -4.2731  -12.9987 O   0  0  0  0  0  0  0  0  0  0  0  0
   20.2968   -5.1285  -14.2138 O   0  0  0  0  0  0  0  0  0  0  0  0
  2  1  1  6
  2  9  1  0
  2  3  1  0
  3  4  1  0
  4  5  2  0
  6  5  1  0
  7  6  1  0
  8  7  2  0
  8  4  1  0
  9 13  1  0
 10  9  2  0
 12 11  1  1
 12 14  1  0
 13 12  1  0
 14 15  2  0
 14 20  1  0
 17 16  1  6
 18 17  1  0
 19 21  1  0
 19 17  1  0
 19 20  1  6
 21 22  1  0
 23 21  2  0
M  END
$$$$
