HAV.pdb
     RDKit          3D

 23 23  0  0  1  0  0  0  0  0999 V2000
   19.6467  -12.2051  -18.5005 N   0  0  0  0  0  0  0  0  0  0  0  0
   20.9221  -11.5654  -18.3651 C   0  0  1  0  0  0  0  0  0  0  0  0
   21.2476  -10.8570  -19.6369 C   0  0  0  0  0  0  0  0  0  0  0  0
   21.4310  -11.8627  -20.7172 C   0  0  0  0  0  0  0  0  0  0  0  0
   22.0552  -13.1007  -20.6570 C   0  0  0  0  0  0  0  0  0  0  0  0
   22.0157  -13.7138  -21.8436 N   0  0  0  0  0  0  0  0  0  0  0  0
   21.3653  -12.8790  -22.6849 C   0  0  0  0  0  0  0  0  0  0  0  0
   21.0116  -11.7645  -22.0127 N   0  0  0  0  0  0  0  0  0  0  0  0
   20.9617  -10.6267  -17.2083 C   0  0  0  0  0  0  0  0  0  0  0  0
   20.0616   -9.7745  -17.0038 O   0  0  0  0  0  0  0  0  0  0  0  0
   23.2590  -10.2449  -14.2049 C   0  0  0  0  0  0  0  0  0  0  0  0
   22.1894   -9.8057  -15.1674 C   0  0  2  0  0  0  0  0  0  0  0  0
   22.0288  -10.6666  -16.2916 N   0  0  0  0  0  0  0  0  0  0  0  0
   22.3513   -8.4025  -15.5951 C   0  0  0  0  0  0  0  0  0  0  0  0
   23.1132   -8.1519  -16.5566 O   0  0  0  0  0  0  0  0  0  0  0  0
   19.4959   -5.5734  -14.9726 C   0  0  0  0  0  0  0  0  0  0  0  0
   20.6314   -5.4454  -15.9860 C   0  0  2  0  0  0  0  0  0  0  0  0
   20.2970   -6.1423  -17.2641 C   0  0  0  0  0  0  0  0  0  0  0  0
   21.9301   -5.9738  -15.3853 C   0  0  2  0  0  0  0  0  0  0  0  0
   21.6803   -7.3268  -14.9628 N   0  0  0  0  0  0  0  0  0  0  0  0
   22.3394   -5.1721  -14.2176 C   0  0  0  0  0  0  0  0  0  0  0  0
   22.2142   -5.6662  -12.9269 O   0  0  0  0  0  0  0  0  0  0  0  0
   22.8125   -4.0206  -14.3592 O   0  0  0  0  0  0  0  0  0  0  0  0
  2  1  1  6
  2  9  1  0
  2  3  1  0
  3  4  1  0
  4  5  2  0
  6  5  1  0
  7  6  1  0
  8  7  2  0
  8  4  1  0
  9 13  1  0
 10  9  2  0
 12 11  1  6
 12 14  1  0
 13 12  1  0
 14 15  2  0
 14 20  1  0
 17 16  1  1
 18 17  1  0
 19 21  1  0
 19 17  1  0
 19 20  1  1
 21 22  1  0
 23 21  2  0
M  END
$$$$
