HAV.pdb
     RDKit          3D

 23 23  0  0  1  0  0  0  0  0999 V2000
   20.9115  -13.8585  -17.9656 N   0  0  0  0  0  0  0  0  0  0  0  0
   19.7282  -13.0752  -17.7647 C   0  0  1  0  0  0  0  0  0  0  0  0
   18.6182  -13.9740  -17.3338 C   0  0  0  0  0  0  0  0  0  0  0  0
   18.3930  -15.0019  -18.3848 C   0  0  0  0  0  0  0  0  0  0  0  0
   17.7235  -14.8782  -19.5941 C   0  0  0  0  0  0  0  0  0  0  0  0
   17.7351  -16.0326  -20.2669 N   0  0  0  0  0  0  0  0  0  0  0  0
   18.4125  -16.9163  -19.5002 C   0  0  0  0  0  0  0  0  0  0  0  0
   18.8103  -16.3017  -18.3674 N   0  0  0  0  0  0  0  0  0  0  0  0
   19.9388  -11.9793  -16.7771 C   0  0  0  0  0  0  0  0  0  0  0  0
   19.0042  -11.2334  -16.3918 O   0  0  0  0  0  0  0  0  0  0  0  0
   22.8909  -10.8456  -14.6740 C   0  0  0  0  0  0  0  0  0  0  0  0
   21.5547  -10.6808  -15.3455 C   0  0  2  0  0  0  0  0  0  0  0  0
   21.2157  -11.7412  -16.2350 N   0  0  0  0  0  0  0  0  0  0  0  0
   21.4091   -9.3694  -16.0067 C   0  0  0  0  0  0  0  0  0  0  0  0
   21.9387   -9.2004  -17.1286 O   0  0  0  0  0  0  0  0  0  0  0  0
   18.3475   -6.8107  -14.9729 C   0  0  0  0  0  0  0  0  0  0  0  0
   19.0478   -6.8254  -16.3302 C   0  0  2  0  0  0  0  0  0  0  0  0
   18.4464   -7.8476  -17.2381 C   0  0  0  0  0  0  0  0  0  0  0  0
   20.5441   -7.0557  -16.1437 C   0  0  2  0  0  0  0  0  0  0  0  0
   20.6947   -8.2933  -15.4246 N   0  0  0  0  0  0  0  0  0  0  0  0
   21.1552   -5.9660  -15.3609 C   0  0  0  0  0  0  0  0  0  0  0  0
   21.4563   -4.7434  -15.9443 O   0  0  0  0  0  0  0  0  0  0  0  0
   21.4198   -6.1145  -14.1453 O   0  0  0  0  0  0  0  0  0  0  0  0
  2  1  1  1
  2  9  1  0
  2  3  1  0
  3  4  1  0
  4  5  2  0
  6  5  1  0
  7  6  1  0
  8  7  2  0
  8  4  1  0
  9 13  1  0
 10  9  2  0
 12 11  1  6
 12 14  1  0
 13 12  1  0
 14 15  2  0
 14 20  1  0
 17 16  1  1
 18 17  1  0
 19 21  1  0
 19 17  1  0
 19 20  1  1
 21 22  1  0
 23 21  2  0
M  END
$$$$
