HAV.pdb
     RDKit          3D

 23 23  0  0  1  0  0  0  0  0999 V2000
   23.5517  -17.3993  -18.4047 N   0  0  0  0  0  0  0  0  0  0  0  0
   22.9753  -18.5771  -17.8261 C   0  0  1  0  0  0  0  0  0  0  0  0
   23.6842  -19.7768  -18.3587 C   0  0  0  0  0  0  0  0  0  0  0  0
   23.4120  -19.8915  -19.8164 C   0  0  0  0  0  0  0  0  0  0  0  0
   22.2969  -20.4155  -20.4550 C   0  0  0  0  0  0  0  0  0  0  0  0
   22.4274  -20.3400  -21.7827 N   0  0  0  0  0  0  0  0  0  0  0  0
   23.6286  -19.7662  -22.0179 C   0  0  0  0  0  0  0  0  0  0  0  0
   24.2248  -19.4945  -20.8390 N   0  0  0  0  0  0  0  0  0  0  0  0
   23.0179  -18.5519  -16.3367 C   0  0  0  0  0  0  0  0  0  0  0  0
   24.0714  -18.3034  -15.6989 O   0  0  0  0  0  0  0  0  0  0  0  0
   20.4394  -17.9515  -13.7682 C   0  0  0  0  0  0  0  0  0  0  0  0
   21.7216  -18.6235  -14.1778 C   0  0  2  0  0  0  0  0  0  0  0  0
   21.8573  -18.8107  -15.5838 N   0  0  0  0  0  0  0  0  0  0  0  0
   21.9585  -19.8861  -13.4511 C   0  0  0  0  0  0  0  0  0  0  0  0
   21.3415  -20.9131  -13.8147 O   0  0  0  0  0  0  0  0  0  0  0  0
   24.4028  -20.1882   -9.8754 C   0  0  0  0  0  0  0  0  0  0  0  0
   24.4022  -21.2048  -11.0152 C   0  0  2  0  0  0  0  0  0  0  0  0
   25.4822  -20.9096  -12.0039 C   0  0  0  0  0  0  0  0  0  0  0  0
   23.0305  -21.2422  -11.6814 C   0  0  2  0  0  0  0  0  0  0  0  0
   22.8555  -19.9845  -12.3589 N   0  0  0  0  0  0  0  0  0  0  0  0
   21.9593  -21.4043  -10.6815 C   0  0  0  0  0  0  0  0  0  0  0  0
   21.6671  -22.6465  -10.1362 O   0  0  0  0  0  0  0  0  0  0  0  0
   21.2822  -20.4230  -10.2962 O   0  0  0  0  0  0  0  0  0  0  0  0
  2  1  1  6
  2  9  1  0
  2  3  1  0
  3  4  1  0
  4  5  2  0
  6  5  1  0
  7  6  1  0
  8  7  2  0
  8  4  1  0
  9 13  1  0
 10  9  2  0
 12 11  1  6
 12 14  1  0
 13 12  1  0
 14 15  2  0
 14 20  1  0
 17 16  1  1
 18 17  1  0
 19 21  1  0
 19 17  1  0
 19 20  1  1
 21 22  1  0
 23 21  2  0
M  END
$$$$
