HAV.pdb
     RDKit          3D

 23 23  0  0  1  0  0  0  0  0999 V2000
   22.7228  -21.8326  -15.0772 N   0  0  0  0  0  0  0  0  0  0  0  0
   23.2376  -20.7009  -14.3642 C   0  0  1  0  0  0  0  0  0  0  0  0
   22.0957  -19.8901  -13.8502 C   0  0  0  0  0  0  0  0  0  0  0  0
   21.3512  -19.3181  -15.0038 C   0  0  0  0  0  0  0  0  0  0  0  0
   20.0558  -19.5864  -15.4229 C   0  0  0  0  0  0  0  0  0  0  0  0
   19.7459  -18.8683  -16.5064 N   0  0  0  0  0  0  0  0  0  0  0  0
   20.8377  -18.1274  -16.8003 C   0  0  0  0  0  0  0  0  0  0  0  0
   21.8059  -18.3940  -15.8999 N   0  0  0  0  0  0  0  0  0  0  0  0
   24.1479  -21.1008  -13.2541 C   0  0  0  0  0  0  0  0  0  0  0  0
   23.7343  -21.6941  -12.2268 O   0  0  0  0  0  0  0  0  0  0  0  0
   27.9148  -21.0672  -12.7981 C   0  0  0  0  0  0  0  0  0  0  0  0
   26.4889  -21.1442  -12.3245 C   0  0  2  0  0  0  0  0  0  0  0  0
   25.5255  -20.8210  -13.3234 N   0  0  0  0  0  0  0  0  0  0  0  0
   26.2563  -20.3638  -11.0936 C   0  0  0  0  0  0  0  0  0  0  0  0
   25.9738  -19.1484  -11.1976 O   0  0  0  0  0  0  0  0  0  0  0  0
   25.7221  -22.1172   -7.2357 C   0  0  0  0  0  0  0  0  0  0  0  0
   25.1777  -20.7756   -7.7220 C   0  0  2  0  0  0  0  0  0  0  0  0
   23.8584  -20.9417   -8.4024 C   0  0  0  0  0  0  0  0  0  0  0  0
   26.1952  -20.0986   -8.6348 C   0  0  2  0  0  0  0  0  0  0  0  0
   26.3393  -20.9326   -9.7988 N   0  0  0  0  0  0  0  0  0  0  0  0
   27.5040  -19.9712   -7.9681 C   0  0  0  0  0  0  0  0  0  0  0  0
   27.7073  -19.0451   -6.9548 O   0  0  0  0  0  0  0  0  0  0  0  0
   28.4702  -20.6971   -8.2989 O   0  0  0  0  0  0  0  0  0  0  0  0
  2  1  1  1
  2  9  1  0
  2  3  1  0
  3  4  1  0
  4  5  2  0
  6  5  1  0
  7  6  1  0
  8  7  2  0
  8  4  1  0
  9 13  1  0
 10  9  2  0
 12 11  1  6
 12 14  1  0
 13 12  1  0
 14 15  2  0
 14 20  1  0
 17 16  1  6
 18 17  1  0
 19 21  1  0
 19 17  1  0
 19 20  1  6
 21 22  1  0
 23 21  2  0
M  END
$$$$
