HAV.pdb
     RDKit          3D

 23 23  0  0  1  0  0  0  0  0999 V2000
   25.3493  -16.7529  -17.1301 N   0  0  0  0  0  0  0  0  0  0  0  0
   24.0537  -16.2118  -16.8421 C   0  0  1  0  0  0  0  0  0  0  0  0
   23.5926  -16.7320  -15.5221 C   0  0  0  0  0  0  0  0  0  0  0  0
   23.4819  -18.2133  -15.5982 C   0  0  0  0  0  0  0  0  0  0  0  0
   22.6914  -18.9849  -16.4382 C   0  0  0  0  0  0  0  0  0  0  0  0
   22.8724  -20.2875  -16.2011 N   0  0  0  0  0  0  0  0  0  0  0  0
   23.7823  -20.3729  -15.2049 C   0  0  0  0  0  0  0  0  0  0  0  0
   24.1521  -19.1287  -14.8387 N   0  0  0  0  0  0  0  0  0  0  0  0
   24.0492  -14.7217  -16.8574 C   0  0  0  0  0  0  0  0  0  0  0  0
   24.7866  -14.0399  -16.1025 O   0  0  0  0  0  0  0  0  0  0  0  0
   22.6664  -12.1684  -19.2628 C   0  0  0  0  0  0  0  0  0  0  0  0
   23.1918  -12.6059  -17.9226 C   0  0  2  0  0  0  0  0  0  0  0  0
   23.2027  -14.0184  -17.7346 N   0  0  0  0  0  0  0  0  0  0  0  0
   22.5163  -11.9284  -16.7989 C   0  0  0  0  0  0  0  0  0  0  0  0
   21.5225  -12.4807  -16.2745 O   0  0  0  0  0  0  0  0  0  0  0  0
   24.4034   -9.0682  -14.4996 C   0  0  0  0  0  0  0  0  0  0  0  0
   23.1888   -9.8803  -14.0546 C   0  0  2  0  0  0  0  0  0  0  0  0
   23.5986  -11.2008  -13.4894 C   0  0  0  0  0  0  0  0  0  0  0  0
   22.2176  -10.0485  -15.2187 C   0  0  2  0  0  0  0  0  0  0  0  0
   22.9455  -10.6784  -16.2886 N   0  0  0  0  0  0  0  0  0  0  0  0
   21.7134   -8.7429  -15.6820 C   0  0  0  0  0  0  0  0  0  0  0  0
   22.0616   -8.2386  -16.9271 O   0  0  0  0  0  0  0  0  0  0  0  0
   20.9552   -8.0517  -14.9628 O   0  0  0  0  0  0  0  0  0  0  0  0
  2  1  1  1
  2  9  1  0
  2  3  1  0
  3  4  1  0
  4  5  2  0
  6  5  1  0
  7  6  1  0
  8  7  2  0
  8  4  1  0
  9 13  1  0
 10  9  2  0
 12 11  1  6
 12 14  1  0
 13 12  1  0
 14 15  2  0
 14 20  1  0
 17 16  1  6
 18 17  1  0
 19 21  1  0
 19 17  1  0
 19 20  1  6
 21 22  1  0
 23 21  2  0
M  END
$$$$
