HAV.pdb
     RDKit          3D

 23 23  0  0  1  0  0  0  0  0999 V2000
   15.1309  -13.4796    5.9025 N   0  0  0  0  0  0  0  0  0  0  0  0
   16.5473  -13.5164    6.1186 C   0  0  1  0  0  0  0  0  0  0  0  0
   17.0058  -12.1685    6.5640 C   0  0  0  0  0  0  0  0  0  0  0  0
   18.4901  -12.1132    6.4873 C   0  0  0  0  0  0  0  0  0  0  0  0
   19.3710  -13.0556    5.9758 C   0  0  0  0  0  0  0  0  0  0  0  0
   20.6353  -12.6380    6.0876 N   0  0  0  0  0  0  0  0  0  0  0  0
   20.5865  -11.4204    6.6729 C   0  0  0  0  0  0  0  0  0  0  0  0
   19.2990  -11.1000    6.9154 N   0  0  0  0  0  0  0  0  0  0  0  0
   16.9400  -14.5639    7.1032 C   0  0  0  0  0  0  0  0  0  0  0  0
   16.6665  -14.4727    8.3260 O   0  0  0  0  0  0  0  0  0  0  0  0
   17.2985  -18.0920    7.1865 C   0  0  0  0  0  0  0  0  0  0  0  0
   18.0082  -16.8074    7.5175 C   0  0  2  0  0  0  0  0  0  0  0  0
   17.6429  -15.7095    6.6858 N   0  0  0  0  0  0  0  0  0  0  0  0
   19.4746  -16.9659    7.5699 C   0  0  0  0  0  0  0  0  0  0  0  0
   20.1271  -16.8727    6.5054 O   0  0  0  0  0  0  0  0  0  0  0  0
   21.5741  -16.5384   11.1216 C   0  0  0  0  0  0  0  0  0  0  0  0
   22.1699  -16.3282    9.7311 C   0  0  2  0  0  0  0  0  0  0  0  0
   21.9329  -14.9355    9.2460 C   0  0  0  0  0  0  0  0  0  0  0  0
   21.6072  -17.3610    8.7598 C   0  0  2  0  0  0  0  0  0  0  0  0
   20.1752  -17.2191    8.7751 N   0  0  0  0  0  0  0  0  0  0  0  0
   21.9604  -18.7301    9.1777 C   0  0  0  0  0  0  0  0  0  0  0  0
   23.1832  -19.2920    8.8390 O   0  0  0  0  0  0  0  0  0  0  0  0
   21.1645  -19.4247    9.8514 O   0  0  0  0  0  0  0  0  0  0  0  0
  2  1  1  1
  2  9  1  0
  2  3  1  0
  3  4  1  0
  4  5  2  0
  6  5  1  0
  7  6  1  0
  8  7  2  0
  8  4  1  0
  9 13  1  0
 10  9  2  0
 12 11  1  6
 12 14  1  0
 13 12  1  0
 14 15  2  0
 14 20  1  0
 17 16  1  1
 18 17  1  0
 19 21  1  0
 19 17  1  0
 19 20  1  1
 21 22  1  0
 23 21  2  0
M  END
$$$$
