FDK.pdb
     RDKit          3D

 29 29  0  0  1  0  0  0  0  0999 V2000
   28.7181  -20.9251   -8.6048 N   0  0  0  0  0  0  0  0  0  0  0  0
   27.3118  -20.6442   -8.5864 C   0  0  1  0  0  0  0  0  0  0  0  0
   27.0129  -19.5080   -7.6673 C   0  0  0  0  0  0  0  0  0  0  0  0
   27.7286  -19.7423   -6.3898 C   0  0  0  0  0  0  0  0  0  0  0  0
   27.2830  -20.7282   -5.5321 C   0  0  0  0  0  0  0  0  0  0  0  0
   27.9211  -20.9853   -4.3245 C   0  0  0  0  0  0  0  0  0  0  0  0
   29.0174  -20.2431   -3.9779 C   0  0  0  0  0  0  0  0  0  0  0  0
   29.4840  -19.2543   -4.8125 C   0  0  0  0  0  0  0  0  0  0  0  0
   28.8356  -19.0139   -6.0091 C   0  0  0  0  0  0  0  0  0  0  0  0
   26.7529  -20.4115   -9.9674 C   0  0  0  0  0  0  0  0  0  0  0  0
   27.2468  -19.5810  -10.7439 O   0  0  0  0  0  0  0  0  0  0  0  0
   25.6299  -21.1652  -10.3868 N   0  0  0  0  0  0  0  0  0  0  0  0
   25.0046  -21.0014  -11.6758 C   0  0  1  0  0  0  0  0  0  0  0  0
   25.2551  -22.2608  -12.5015 C   0  0  0  0  0  0  0  0  0  0  0  0
   24.9965  -21.9653  -13.9161 C   0  0  0  0  0  0  0  0  0  0  0  0
   24.1105  -21.1077  -14.1780 O   0  0  0  0  0  0  0  0  0  0  0  0
   23.5413  -20.8375  -11.5764 C   0  0  0  0  0  0  0  0  0  0  0  0
   22.8642  -21.7270  -11.0206 O   0  0  0  0  0  0  0  0  0  0  0  0
   25.7139  -22.6193  -14.9087 O   0  0  0  0  0  0  0  0  0  0  0  0
   22.9043  -19.6994  -12.0966 N   0  0  0  0  0  0  0  0  0  0  0  0
   21.5067  -19.6943  -12.5744 C   0  0  1  0  0  0  0  0  0  0  0  0
   21.5119  -19.2668  -13.9911 C   0  0  0  0  0  0  0  0  0  0  0  0
   20.2132  -19.2139  -14.7029 C   0  0  0  0  0  0  0  0  0  0  0  0
   20.2518  -18.8780  -16.1543 C   0  0  0  0  0  0  0  0  0  0  0  0
   18.8400  -18.7804  -16.7442 C   0  0  0  0  0  0  0  0  0  0  0  0
   18.9535  -18.5027  -18.1466 N   0  0  0  0  0  0  0  0  0  0  0  0
   20.8497  -20.9490  -12.2306 C   0  0  0  0  0  0  0  0  0  0  0  0
   19.8660  -20.9704  -11.4064 O   0  0  0  0  0  0  0  0  0  0  0  0
   21.1943  -22.1913  -12.7319 O   0  0  0  0  0  0  0  0  0  0  0  0
  2  1  1  6
  2  3  1  0
  2 10  1  0
  3  4  1  0
  4  5  2  0
  5  6  1  0
  7  6  2  0
  8  7  1  0
  9  8  2  0
  9  4  1  0
 10 11  2  0
 12 10  1  0
 12 13  1  0
 13 14  1  6
 14 15  1  0
 15 16  2  0
 17 13  1  0
 17 18  2  0
 19 15  1  0
 20 17  1  0
 21 27  1  0
 21 20  1  0
 21 22  1  6
 23 22  1  0
 24 23  1  0
 25 26  1  0
 25 24  1  0
 27 29  1  0
 28 27  2  0
M  END
$$$$
