FDK.pdb
     RDKit          3D

 29 29  0  0  1  0  0  0  0  0999 V2000
   29.1145  -21.4247   -8.7258 N   0  0  0  0  0  0  0  0  0  0  0  0
   27.8071  -20.8481   -8.8487 C   0  0  1  0  0  0  0  0  0  0  0  0
   27.7742  -19.4830   -8.2482 C   0  0  0  0  0  0  0  0  0  0  0  0
   27.9978  -19.6116   -6.7878 C   0  0  0  0  0  0  0  0  0  0  0  0
   29.2466  -19.9695   -6.3204 C   0  0  0  0  0  0  0  0  0  0  0  0
   29.5047  -20.1018   -4.9612 C   0  0  0  0  0  0  0  0  0  0  0  0
   28.4962  -19.8716   -4.0651 C   0  0  0  0  0  0  0  0  0  0  0  0
   27.2419  -19.5136   -4.5016 C   0  0  0  0  0  0  0  0  0  0  0  0
   27.0053  -19.3873   -5.8575 C   0  0  0  0  0  0  0  0  0  0  0  0
   27.3093  -20.8477  -10.2720 C   0  0  0  0  0  0  0  0  0  0  0  0
   28.0842  -20.7995  -11.2383 O   0  0  0  0  0  0  0  0  0  0  0  0
   25.9143  -20.9036  -10.5087 N   0  0  0  0  0  0  0  0  0  0  0  0
   25.3388  -20.9730  -11.8291 C   0  0  1  0  0  0  0  0  0  0  0  0
   25.5473  -22.3826  -12.3770 C   0  0  0  0  0  0  0  0  0  0  0  0
   25.6172  -22.3213  -13.8422 C   0  0  0  0  0  0  0  0  0  0  0  0
   24.6191  -22.7380  -14.4895 O   0  0  0  0  0  0  0  0  0  0  0  0
   23.8839  -20.7254  -11.8242 C   0  0  0  0  0  0  0  0  0  0  0  0
   23.2045  -21.1008  -10.8464 O   0  0  0  0  0  0  0  0  0  0  0  0
   26.7510  -21.8194  -14.4669 O   0  0  0  0  0  0  0  0  0  0  0  0
   23.2574  -20.0764  -12.9002 N   0  0  0  0  0  0  0  0  0  0  0  0
   21.8075  -19.7997  -12.9529 C   0  0  1  0  0  0  0  0  0  0  0  0
   21.5399  -19.0055  -14.1725 C   0  0  0  0  0  0  0  0  0  0  0  0
   20.1919  -18.4100  -14.3289 C   0  0  0  0  0  0  0  0  0  0  0  0
   19.9685  -17.5493  -15.5249 C   0  0  0  0  0  0  0  0  0  0  0  0
   18.5276  -17.0280  -15.5782 C   0  0  0  0  0  0  0  0  0  0  0  0
   18.5025  -15.7087  -15.0166 N   0  0  0  0  0  0  0  0  0  0  0  0
   21.0500  -21.0273  -12.7442 C   0  0  0  0  0  0  0  0  0  0  0  0
   21.4078  -22.1231  -13.3085 O   0  0  0  0  0  0  0  0  0  0  0  0
   19.9216  -21.1413  -11.9524 O   0  0  0  0  0  0  0  0  0  0  0  0
  2  1  1  6
  2  3  1  0
  2 10  1  0
  3  4  1  0
  4  5  2  0
  5  6  1  0
  7  6  2  0
  8  7  1  0
  9  8  2  0
  9  4  1  0
 10 11  2  0
 12 10  1  0
 12 13  1  0
 13 14  1  1
 14 15  1  0
 15 16  2  0
 17 13  1  0
 17 18  2  0
 19 15  1  0
 20 17  1  0
 21 27  1  0
 21 20  1  0
 21 22  1  6
 23 22  1  0
 24 23  1  0
 25 26  1  0
 25 24  1  0
 27 29  1  0
 28 27  2  0
M  END
$$$$
