FDK.pdb
     RDKit          3D

 29 29  0  0  1  0  0  0  0  0999 V2000
   21.2827  -11.3221  -16.7814 N   0  0  0  0  0  0  0  0  0  0  0  0
   21.2435   -9.9765  -17.2760 C   0  0  1  0  0  0  0  0  0  0  0  0
   20.3360   -9.8742  -18.4555 C   0  0  0  0  0  0  0  0  0  0  0  0
   20.9723  -10.5793  -19.5945 C   0  0  0  0  0  0  0  0  0  0  0  0
   20.5938  -11.8738  -19.8894 C   0  0  0  0  0  0  0  0  0  0  0  0
   21.1607  -12.5749  -20.9471 C   0  0  0  0  0  0  0  0  0  0  0  0
   22.1172  -11.9668  -21.7141 C   0  0  0  0  0  0  0  0  0  0  0  0
   22.5142  -10.6778  -21.4439 C   0  0  0  0  0  0  0  0  0  0  0  0
   21.9384   -9.9975  -20.3876 C   0  0  0  0  0  0  0  0  0  0  0  0
   20.8851   -8.9789  -16.2035 C   0  0  0  0  0  0  0  0  0  0  0  0
   20.0375   -9.2267  -15.3336 O   0  0  0  0  0  0  0  0  0  0  0  0
   21.5376   -7.7222  -16.1927 N   0  0  0  0  0  0  0  0  0  0  0  0
   21.2293   -6.6798  -15.2452 C   0  0  1  0  0  0  0  0  0  0  0  0
   22.5386   -6.0753  -14.7441 C   0  0  0  0  0  0  0  0  0  0  0  0
   22.2385   -5.0555  -13.7316 C   0  0  0  0  0  0  0  0  0  0  0  0
   22.6037   -3.8731  -13.9718 O   0  0  0  0  0  0  0  0  0  0  0  0
   20.4524   -5.5800  -15.8493 C   0  0  0  0  0  0  0  0  0  0  0  0
   20.8808   -5.0266  -16.8832 O   0  0  0  0  0  0  0  0  0  0  0  0
   21.5769   -5.4057  -12.5623 O   0  0  0  0  0  0  0  0  0  0  0  0
   19.2437   -5.1502  -15.2785 N   0  0  0  0  0  0  0  0  0  0  0  0
   18.4543   -4.0155  -15.7991 C   0  0  1  0  0  0  0  0  0  0  0  0
   17.0715   -4.1518  -15.2902 C   0  0  0  0  0  0  0  0  0  0  0  0
   16.3256   -5.3851  -15.6346 C   0  0  0  0  0  0  0  0  0  0  0  0
   15.0019   -5.5794  -14.9781 C   0  0  0  0  0  0  0  0  0  0  0  0
   14.3414   -6.8884  -15.4261 C   0  0  0  0  0  0  0  0  0  0  0  0
   15.2202   -7.9737  -15.0998 N   0  0  0  0  0  0  0  0  0  0  0  0
   19.1584   -2.7605  -15.5674 C   0  0  0  0  0  0  0  0  0  0  0  0
   20.2272   -2.7291  -14.8574 O   0  0  0  0  0  0  0  0  0  0  0  0
   18.7737   -1.5285  -16.0648 O   0  0  0  0  0  0  0  0  0  0  0  0
  2  1  1  1
  2  3  1  0
  2 10  1  0
  3  4  1  0
  4  5  2  0
  5  6  1  0
  7  6  2  0
  8  7  1  0
  9  8  2  0
  9  4  1  0
 10 11  2  0
 12 10  1  0
 12 13  1  0
 13 14  1  6
 14 15  1  0
 15 16  2  0
 17 13  1  0
 17 18  2  0
 19 15  1  0
 20 17  1  0
 21 27  1  0
 21 20  1  0
 21 22  1  1
 23 22  1  0
 24 23  1  0
 25 26  1  0
 25 24  1  0
 27 29  1  0
 28 27  2  0
M  END
$$$$
