FDK.pdb
     RDKit          3D

 29 29  0  0  1  0  0  0  0  0999 V2000
   24.6867  -11.7745  -18.0079 N   0  0  0  0  0  0  0  0  0  0  0  0
   23.5950  -11.0760  -18.6220 C   0  0  1  0  0  0  0  0  0  0  0  0
   22.8554  -11.9717  -19.5579 C   0  0  0  0  0  0  0  0  0  0  0  0
   23.7880  -12.3965  -20.6298 C   0  0  0  0  0  0  0  0  0  0  0  0
   24.2802  -13.6864  -20.6306 C   0  0  0  0  0  0  0  0  0  0  0  0
   25.1557  -14.1308  -21.6142 C   0  0  0  0  0  0  0  0  0  0  0  0
   25.5388  -13.2685  -22.6055 C   0  0  0  0  0  0  0  0  0  0  0  0
   25.0646  -11.9775  -22.6304 C   0  0  0  0  0  0  0  0  0  0  0  0
   24.1947  -11.5547  -21.6431 C   0  0  0  0  0  0  0  0  0  0  0  0
   22.6762  -10.4397  -17.6098 C   0  0  0  0  0  0  0  0  0  0  0  0
   22.3028  -11.0418  -16.5926 O   0  0  0  0  0  0  0  0  0  0  0  0
   22.2280   -9.1148  -17.8306 N   0  0  0  0  0  0  0  0  0  0  0  0
   21.4446   -8.3753  -16.8720 C   0  0  1  0  0  0  0  0  0  0  0  0
   22.3081   -8.1063  -15.6422 C   0  0  0  0  0  0  0  0  0  0  0  0
   21.5143   -7.3683  -14.6519 C   0  0  0  0  0  0  0  0  0  0  0  0
   21.1334   -6.2072  -14.9612 O   0  0  0  0  0  0  0  0  0  0  0  0
   21.0132   -7.0620  -17.3890 C   0  0  0  0  0  0  0  0  0  0  0  0
   21.8740   -6.2513  -17.7896 O   0  0  0  0  0  0  0  0  0  0  0  0
   21.2086   -7.9494  -13.4286 O   0  0  0  0  0  0  0  0  0  0  0  0
   19.6535   -6.7145  -17.4355 N   0  0  0  0  0  0  0  0  0  0  0  0
   19.1496   -5.4759  -18.0628 C   0  0  1  0  0  0  0  0  0  0  0  0
   17.7902   -5.7483  -18.5800 C   0  0  0  0  0  0  0  0  0  0  0  0
   17.6463   -6.7695  -19.6444 C   0  0  0  0  0  0  0  0  0  0  0  0
   16.2745   -6.9982  -20.1798 C   0  0  0  0  0  0  0  0  0  0  0  0
   16.2887   -7.9851  -21.3529 C   0  0  0  0  0  0  0  0  0  0  0  0
   14.9513   -8.1104  -21.8553 N   0  0  0  0  0  0  0  0  0  0  0  0
   19.3366   -4.3422  -17.1661 C   0  0  0  0  0  0  0  0  0  0  0  0
   19.3051   -4.5004  -15.8929 O   0  0  0  0  0  0  0  0  0  0  0  0
   19.5606   -3.0378  -17.5684 O   0  0  0  0  0  0  0  0  0  0  0  0
  2  1  1  1
  2  3  1  0
  2 10  1  0
  3  4  1  0
  4  5  2  0
  5  6  1  0
  7  6  2  0
  8  7  1  0
  9  8  2  0
  9  4  1  0
 10 11  2  0
 12 10  1  0
 12 13  1  0
 13 14  1  1
 14 15  1  0
 15 16  2  0
 17 13  1  0
 17 18  2  0
 19 15  1  0
 20 17  1  0
 21 27  1  0
 21 20  1  0
 21 22  1  1
 23 22  1  0
 24 23  1  0
 25 26  1  0
 25 24  1  0
 27 29  1  0
 28 27  2  0
M  END
$$$$
