FDK.pdb
     RDKit          3D

 29 29  0  0  1  0  0  0  0  0999 V2000
   26.9059  -19.9612  -11.4081 N   0  0  0  0  0  0  0  0  0  0  0  0
   25.8690  -20.8971  -11.0827 C   0  0  1  0  0  0  0  0  0  0  0  0
   25.7995  -21.1157   -9.6087 C   0  0  0  0  0  0  0  0  0  0  0  0
   27.1807  -21.0919   -9.0692 C   0  0  0  0  0  0  0  0  0  0  0  0
   28.1361  -21.9289   -9.6100 C   0  0  0  0  0  0  0  0  0  0  0  0
   29.4434  -21.9419   -9.1386 C   0  0  0  0  0  0  0  0  0  0  0  0
   29.7914  -21.1045   -8.1136 C   0  0  0  0  0  0  0  0  0  0  0  0
   28.8607  -20.2595   -7.5551 C   0  0  0  0  0  0  0  0  0  0  0  0
   27.5657  -20.2616   -8.0380 C   0  0  0  0  0  0  0  0  0  0  0  0
   24.5323  -20.4977  -11.6548 C   0  0  0  0  0  0  0  0  0  0  0  0
   23.9230  -19.4931  -11.2596 O   0  0  0  0  0  0  0  0  0  0  0  0
   23.9582  -21.2962  -12.6736 N   0  0  0  0  0  0  0  0  0  0  0  0
   22.6449  -21.0575  -13.2193 C   0  0  1  0  0  0  0  0  0  0  0  0
   22.7593  -20.9634  -14.7387 C   0  0  0  0  0  0  0  0  0  0  0  0
   21.4542  -20.5854  -15.2945 C   0  0  0  0  0  0  0  0  0  0  0  0
   20.5121  -20.3851  -14.4812 O   0  0  0  0  0  0  0  0  0  0  0  0
   21.7042  -22.1564  -12.9270 C   0  0  0  0  0  0  0  0  0  0  0  0
   21.8583  -23.2582  -13.4935 O   0  0  0  0  0  0  0  0  0  0  0  0
   21.2896  -20.4601  -16.6675 O   0  0  0  0  0  0  0  0  0  0  0  0
   20.6433  -21.9791  -12.0243 N   0  0  0  0  0  0  0  0  0  0  0  0
   19.6674  -23.0379  -11.6951 C   0  0  1  0  0  0  0  0  0  0  0  0
   19.3865  -22.9624  -10.2443 C   0  0  0  0  0  0  0  0  0  0  0  0
   18.7217  -24.1233   -9.6066 C   0  0  0  0  0  0  0  0  0  0  0  0
   18.4344  -24.0196   -8.1480 C   0  0  0  0  0  0  0  0  0  0  0  0
   17.7418  -25.2826   -7.6226 C   0  0  0  0  0  0  0  0  0  0  0  0
   17.5768  -25.1516   -6.2041 N   0  0  0  0  0  0  0  0  0  0  0  0
   18.5439  -22.9966  -12.6226 C   0  0  0  0  0  0  0  0  0  0  0  0
   18.1972  -24.0427  -13.2804 O   0  0  0  0  0  0  0  0  0  0  0  0
   17.7650  -21.8829  -12.8802 O   0  0  0  0  0  0  0  0  0  0  0  0
  2  1  1  1
  2  3  1  0
  2 10  1  0
  3  4  1  0
  4  5  2  0
  5  6  1  0
  7  6  2  0
  8  7  1  0
  9  8  2  0
  9  4  1  0
 10 11  2  0
 12 10  1  0
 12 13  1  0
 13 14  1  6
 14 15  1  0
 15 16  2  0
 17 13  1  0
 17 18  2  0
 19 15  1  0
 20 17  1  0
 21 27  1  0
 21 20  1  0
 21 22  1  1
 23 22  1  0
 24 23  1  0
 25 26  1  0
 25 24  1  0
 27 29  1  0
 28 27  2  0
M  END
$$$$
