FDK.pdb
     RDKit          3D

 29 29  0  0  1  0  0  0  0  0999 V2000
   16.0338  -11.1790  -10.5327 N   0  0  0  0  0  0  0  0  0  0  0  0
   15.1452  -10.1219  -10.9199 C   0  0  1  0  0  0  0  0  0  0  0  0
   13.7903  -10.3297  -10.3315 C   0  0  0  0  0  0  0  0  0  0  0  0
   13.2288  -11.5843  -10.8881 C   0  0  0  0  0  0  0  0  0  0  0  0
   12.9440  -12.6362  -10.0404 C   0  0  0  0  0  0  0  0  0  0  0  0
   12.4162  -13.8311  -10.5150 C   0  0  0  0  0  0  0  0  0  0  0  0
   12.1731  -13.9676  -11.8548 C   0  0  0  0  0  0  0  0  0  0  0  0
   12.4469  -12.9365  -12.7232 C   0  0  0  0  0  0  0  0  0  0  0  0
   12.9716  -11.7561  -12.2317 C   0  0  0  0  0  0  0  0  0  0  0  0
   15.6965   -8.7572  -10.5924 C   0  0  0  0  0  0  0  0  0  0  0  0
   16.2731   -8.5222   -9.5205 O   0  0  0  0  0  0  0  0  0  0  0  0
   15.5492   -7.7147  -11.5393 N   0  0  0  0  0  0  0  0  0  0  0  0
   15.9364   -6.3502  -11.2793 C   0  0  1  0  0  0  0  0  0  0  0  0
   16.2854   -5.6822  -12.6070 C   0  0  0  0  0  0  0  0  0  0  0  0
   16.6782   -4.2905  -12.3541 C   0  0  0  0  0  0  0  0  0  0  0  0
   15.9204   -3.3839  -12.7932 O   0  0  0  0  0  0  0  0  0  0  0  0
   14.8464   -5.5598  -10.6749 C   0  0  0  0  0  0  0  0  0  0  0  0
   13.7235   -5.5519  -11.2205 O   0  0  0  0  0  0  0  0  0  0  0  0
   17.8448   -4.0100  -11.6556 O   0  0  0  0  0  0  0  0  0  0  0  0
   15.0555   -4.8203   -9.4997 N   0  0  0  0  0  0  0  0  0  0  0  0
   14.0451   -3.9150   -8.9155 C   0  0  1  0  0  0  0  0  0  0  0  0
   14.1097   -4.0506   -7.4434 C   0  0  0  0  0  0  0  0  0  0  0  0
   13.2016   -3.2080   -6.6301 C   0  0  0  0  0  0  0  0  0  0  0  0
   13.3779   -3.2577   -5.1511 C   0  0  0  0  0  0  0  0  0  0  0  0
   12.3298   -2.3995   -4.4331 C   0  0  0  0  0  0  0  0  0  0  0  0
   12.5643   -2.4859   -3.0210 N   0  0  0  0  0  0  0  0  0  0  0  0
   14.1632   -2.5831   -9.4955 C   0  0  0  0  0  0  0  0  0  0  0  0
   13.1422   -1.8096   -9.5764 O   0  0  0  0  0  0  0  0  0  0  0  0
   15.3302   -2.0329   -9.9943 O   0  0  0  0  0  0  0  0  0  0  0  0
  2  1  1  1
  2  3  1  0
  2 10  1  0
  3  4  1  0
  4  5  2  0
  5  6  1  0
  7  6  2  0
  8  7  1  0
  9  8  2  0
  9  4  1  0
 10 11  2  0
 12 10  1  0
 12 13  1  0
 13 14  1  6
 14 15  1  0
 15 16  2  0
 17 13  1  0
 17 18  2  0
 19 15  1  0
 20 17  1  0
 21 27  1  0
 21 20  1  0
 21 22  1  1
 23 22  1  0
 24 23  1  0
 25 26  1  0
 25 24  1  0
 27 29  1  0
 28 27  2  0
M  END
$$$$
