FDK.pdb
     RDKit          3D

 29 29  0  0  1  0  0  0  0  0999 V2000
   26.2316  -19.2641  -10.9982 N   0  0  0  0  0  0  0  0  0  0  0  0
   25.6162  -20.5418  -11.2116 C   0  0  1  0  0  0  0  0  0  0  0  0
   25.6337  -21.3515   -9.9589 C   0  0  0  0  0  0  0  0  0  0  0  0
   27.0230  -21.3768   -9.4408 C   0  0  0  0  0  0  0  0  0  0  0  0
   27.3046  -20.7918   -8.2224 C   0  0  0  0  0  0  0  0  0  0  0  0
   28.5906  -20.7910   -7.6952 C   0  0  0  0  0  0  0  0  0  0  0  0
   29.6015  -21.3846   -8.4014 C   0  0  0  0  0  0  0  0  0  0  0  0
   29.3506  -21.9754   -9.6181 C   0  0  0  0  0  0  0  0  0  0  0  0
   28.0650  -21.9656  -10.1252 C   0  0  0  0  0  0  0  0  0  0  0  0
   24.2263  -20.4231  -11.7842 C   0  0  0  0  0  0  0  0  0  0  0  0
   23.2909  -19.9278  -11.1391 O   0  0  0  0  0  0  0  0  0  0  0  0
   23.9855  -20.8928  -13.0982 N   0  0  0  0  0  0  0  0  0  0  0  0
   22.6958  -20.8212  -13.7392 C   0  0  1  0  0  0  0  0  0  0  0  0
   22.8973  -20.9173  -15.2494 C   0  0  0  0  0  0  0  0  0  0  0  0
   21.6095  -20.6975  -15.9192 C   0  0  0  0  0  0  0  0  0  0  0  0
   20.6093  -20.4563  -15.1908 O   0  0  0  0  0  0  0  0  0  0  0  0
   21.8107  -21.9370  -13.3525 C   0  0  0  0  0  0  0  0  0  0  0  0
   22.2049  -23.1111  -13.5100 O   0  0  0  0  0  0  0  0  0  0  0  0
   21.5230  -20.7585  -17.3036 O   0  0  0  0  0  0  0  0  0  0  0  0
   20.5371  -21.6959  -12.8125 N   0  0  0  0  0  0  0  0  0  0  0  0
   19.6515  -22.7634  -12.3047 C   0  0  1  0  0  0  0  0  0  0  0  0
   19.7175  -22.7445  -10.8266 C   0  0  0  0  0  0  0  0  0  0  0  0
   18.9566  -23.7785  -10.0863 C   0  0  0  0  0  0  0  0  0  0  0  0
   18.9974  -23.7111   -8.5981 C   0  0  0  0  0  0  0  0  0  0  0  0
   18.2057  -24.8606   -7.9637 C   0  0  0  0  0  0  0  0  0  0  0  0
   18.3513  -24.7785   -6.5394 N   0  0  0  0  0  0  0  0  0  0  0  0
   18.3433  -22.6814  -12.9420 C   0  0  0  0  0  0  0  0  0  0  0  0
   17.7783  -21.5456  -13.1370 O   0  0  0  0  0  0  0  0  0  0  0  0
   17.6057  -23.7636  -13.3872 O   0  0  0  0  0  0  0  0  0  0  0  0
  2  1  1  1
  2  3  1  0
  2 10  1  0
  3  4  1  0
  4  5  2  0
  5  6  1  0
  7  6  2  0
  8  7  1  0
  9  8  2  0
  9  4  1  0
 10 11  2  0
 12 10  1  0
 12 13  1  0
 13 14  1  6
 14 15  1  0
 15 16  2  0
 17 13  1  0
 17 18  2  0
 19 15  1  0
 20 17  1  0
 21 27  1  0
 21 20  1  0
 21 22  1  1
 23 22  1  0
 24 23  1  0
 25 26  1  0
 25 24  1  0
 27 29  1  0
 28 27  2  0
M  END
$$$$
