FDK.pdb
     RDKit          3D

 29 29  0  0  1  0  0  0  0  0999 V2000
   18.9464   -6.6005  -13.7738 N   0  0  0  0  0  0  0  0  0  0  0  0
   18.6020   -6.9318  -12.4216 C   0  0  1  0  0  0  0  0  0  0  0  0
   19.7422   -6.6486  -11.5024 C   0  0  0  0  0  0  0  0  0  0  0  0
   20.8814   -7.5136  -11.8941 C   0  0  0  0  0  0  0  0  0  0  0  0
   20.8759   -8.8474  -11.5379 C   0  0  0  0  0  0  0  0  0  0  0  0
   21.9201   -9.6973  -11.8828 C   0  0  0  0  0  0  0  0  0  0  0  0
   22.9789   -9.1993  -12.5926 C   0  0  0  0  0  0  0  0  0  0  0  0
   23.0117   -7.8745  -12.9614 C   0  0  0  0  0  0  0  0  0  0  0  0
   21.9636   -7.0455  -12.6088 C   0  0  0  0  0  0  0  0  0  0  0  0
   17.3335   -6.2545  -11.9679 C   0  0  0  0  0  0  0  0  0  0  0  0
   17.0711   -5.0816  -12.2712 O   0  0  0  0  0  0  0  0  0  0  0  0
   16.4166   -6.9825  -11.1714 N   0  0  0  0  0  0  0  0  0  0  0  0
   15.1370   -6.4594  -10.7610 C   0  0  1  0  0  0  0  0  0  0  0  0
   14.1707   -7.6268  -10.5766 C   0  0  0  0  0  0  0  0  0  0  0  0
   13.8217   -8.1721  -11.8942 C   0  0  0  0  0  0  0  0  0  0  0  0
   13.8212   -9.4261  -12.0226 O   0  0  0  0  0  0  0  0  0  0  0  0
   15.2055   -5.7508   -9.4682 C   0  0  0  0  0  0  0  0  0  0  0  0
   15.8931   -6.2326   -8.5441 O   0  0  0  0  0  0  0  0  0  0  0  0
   13.5082   -7.3178  -12.9428 O   0  0  0  0  0  0  0  0  0  0  0  0
   14.5105   -4.5477   -9.2654 N   0  0  0  0  0  0  0  0  0  0  0  0
   14.5084   -3.8134   -7.9838 C   0  0  1  0  0  0  0  0  0  0  0  0
   14.4972   -2.3656   -8.2891 C   0  0  0  0  0  0  0  0  0  0  0  0
   14.3551   -1.4204   -7.1566 C   0  0  0  0  0  0  0  0  0  0  0  0
   15.6127   -0.9000   -6.5494 C   0  0  0  0  0  0  0  0  0  0  0  0
   15.3195    0.1030   -5.4276 C   0  0  0  0  0  0  0  0  0  0  0  0
   16.5616    0.6751   -4.9957 N   0  0  0  0  0  0  0  0  0  0  0  0
   13.4794   -4.3439   -7.0984 C   0  0  0  0  0  0  0  0  0  0  0  0
   12.4803   -4.9969   -7.5703 O   0  0  0  0  0  0  0  0  0  0  0  0
   13.4687   -4.2116   -5.7215 O   0  0  0  0  0  0  0  0  0  0  0  0
  2  1  1  6
  2  3  1  0
  2 10  1  0
  3  4  1  0
  4  5  2  0
  5  6  1  0
  7  6  2  0
  8  7  1  0
  9  8  2  0
  9  4  1  0
 10 11  2  0
 12 10  1  0
 12 13  1  0
 13 14  1  1
 14 15  1  0
 15 16  2  0
 17 13  1  0
 17 18  2  0
 19 15  1  0
 20 17  1  0
 21 27  1  0
 21 20  1  0
 21 22  1  6
 23 22  1  0
 24 23  1  0
 25 26  1  0
 25 24  1  0
 27 29  1  0
 28 27  2  0
M  END
$$$$
