FDK.pdb
     RDKit          3D

 29 29  0  0  1  0  0  0  0  0999 V2000
   21.4205   -6.8023  -17.3772 N   0  0  0  0  0  0  0  0  0  0  0  0
   20.5383   -7.4520  -16.4518 C   0  0  1  0  0  0  0  0  0  0  0  0
   19.7942   -6.4472  -15.6382 C   0  0  0  0  0  0  0  0  0  0  0  0
   20.7607   -5.7649  -14.7440 C   0  0  0  0  0  0  0  0  0  0  0  0
   21.1306   -6.3667  -13.5578 C   0  0  0  0  0  0  0  0  0  0  0  0
   22.0333   -5.7667  -12.6877 C   0  0  0  0  0  0  0  0  0  0  0  0
   22.5678   -4.5502  -13.0155 C   0  0  0  0  0  0  0  0  0  0  0  0
   22.2178   -3.9269  -14.1906 C   0  0  0  0  0  0  0  0  0  0  0  0
   21.3184   -4.5399  -15.0425 C   0  0  0  0  0  0  0  0  0  0  0  0
   19.6078   -8.4257  -17.1299 C   0  0  0  0  0  0  0  0  0  0  0  0
   19.0004   -8.1365  -18.1710 O   0  0  0  0  0  0  0  0  0  0  0  0
   19.4240   -9.7078  -16.5576 N   0  0  0  0  0  0  0  0  0  0  0  0
   18.5379  -10.7013  -17.1121 C   0  0  1  0  0  0  0  0  0  0  0  0
   19.1667  -12.0783  -16.9146 C   0  0  0  0  0  0  0  0  0  0  0  0
   20.3628  -12.1841  -17.7593 C   0  0  0  0  0  0  0  0  0  0  0  0
   20.2568  -11.8284  -18.9639 O   0  0  0  0  0  0  0  0  0  0  0  0
   17.2263  -10.7276  -16.4362 C   0  0  0  0  0  0  0  0  0  0  0  0
   17.1666  -10.4961  -15.2108 O   0  0  0  0  0  0  0  0  0  0  0  0
   21.5533  -12.6612  -17.2275 O   0  0  0  0  0  0  0  0  0  0  0  0
   16.0504  -11.0083  -17.1505 N   0  0  0  0  0  0  0  0  0  0  0  0
   14.7138  -11.0778  -16.5257 C   0  0  1  0  0  0  0  0  0  0  0  0
   13.7041  -11.0493  -17.6070 C   0  0  0  0  0  0  0  0  0  0  0  0
   12.2780  -11.1805  -17.2260 C   0  0  0  0  0  0  0  0  0  0  0  0
   11.2902  -11.2953  -18.3360 C   0  0  0  0  0  0  0  0  0  0  0  0
    9.8520  -11.3197  -17.8054 C   0  0  0  0  0  0  0  0  0  0  0  0
    8.9671  -11.5640  -18.9071 N   0  0  0  0  0  0  0  0  0  0  0  0
   14.6636  -12.1664  -15.5578 C   0  0  0  0  0  0  0  0  0  0  0  0
   14.0449  -12.0246  -14.4423 O   0  0  0  0  0  0  0  0  0  0  0  0
   15.2448  -13.4100  -15.7279 O   0  0  0  0  0  0  0  0  0  0  0  0
  2  1  1  6
  2  3  1  0
  2 10  1  0
  3  4  1  0
  4  5  2  0
  5  6  1  0
  7  6  2  0
  8  7  1  0
  9  8  2  0
  9  4  1  0
 10 11  2  0
 12 10  1  0
 12 13  1  0
 13 14  1  1
 14 15  1  0
 15 16  2  0
 17 13  1  0
 17 18  2  0
 19 15  1  0
 20 17  1  0
 21 27  1  0
 21 20  1  0
 21 22  1  6
 23 22  1  0
 24 23  1  0
 25 26  1  0
 25 24  1  0
 27 29  1  0
 28 27  2  0
M  END
$$$$
