FDK.pdb
     RDKit          3D

 29 29  0  0  1  0  0  0  0  0999 V2000
   25.4539  -21.0043   -7.2839 N   0  0  0  0  0  0  0  0  0  0  0  0
   26.0366  -20.4818   -8.4857 C   0  0  1  0  0  0  0  0  0  0  0  0
   27.4901  -20.8104   -8.5532 C   0  0  0  0  0  0  0  0  0  0  0  0
   28.1568  -20.2164   -7.3691 C   0  0  0  0  0  0  0  0  0  0  0  0
   27.9821  -18.8752   -7.0924 C   0  0  0  0  0  0  0  0  0  0  0  0
   28.5855  -18.2738   -5.9943 C   0  0  0  0  0  0  0  0  0  0  0  0
   29.3716  -19.0301   -5.1678 C   0  0  0  0  0  0  0  0  0  0  0  0
   29.5638  -20.3689   -5.4185 C   0  0  0  0  0  0  0  0  0  0  0  0
   28.9550  -20.9482   -6.5158 C   0  0  0  0  0  0  0  0  0  0  0  0
   25.3016  -20.9294   -9.7239 C   0  0  0  0  0  0  0  0  0  0  0  0
   25.8742  -21.5262  -10.6473 O   0  0  0  0  0  0  0  0  0  0  0  0
   23.9161  -20.6582   -9.8325 N   0  0  0  0  0  0  0  0  0  0  0  0
   23.1264  -21.0257  -10.9817 C   0  0  1  0  0  0  0  0  0  0  0  0
   21.6536  -20.7920  -10.6548 C   0  0  0  0  0  0  0  0  0  0  0  0
   20.8332  -21.2649  -11.7766 C   0  0  0  0  0  0  0  0  0  0  0  0
   21.4339  -21.7658  -12.7652 O   0  0  0  0  0  0  0  0  0  0  0  0
   23.4385  -20.2036  -12.1670 C   0  0  0  0  0  0  0  0  0  0  0  0
   23.6034  -18.9737  -12.0301 O   0  0  0  0  0  0  0  0  0  0  0  0
   19.4503  -21.1530  -11.7264 O   0  0  0  0  0  0  0  0  0  0  0  0
   23.5516  -20.7846  -13.4403 N   0  0  0  0  0  0  0  0  0  0  0  0
   23.8918  -20.0205  -14.6578 C   0  0  1  0  0  0  0  0  0  0  0  0
   24.9023  -20.7940  -15.4128 C   0  0  0  0  0  0  0  0  0  0  0  0
   26.2901  -20.2753  -15.4435 C   0  0  0  0  0  0  0  0  0  0  0  0
   27.3003  -21.0919  -16.1740 C   0  0  0  0  0  0  0  0  0  0  0  0
   28.6973  -20.4668  -16.0831 C   0  0  0  0  0  0  0  0  0  0  0  0
   29.6250  -21.3327  -16.7511 N   0  0  0  0  0  0  0  0  0  0  0  0
   22.6783  -19.6034  -15.3491 C   0  0  0  0  0  0  0  0  0  0  0  0
   22.1249  -20.3654  -16.2210 O   0  0  0  0  0  0  0  0  0  0  0  0
   22.0212  -18.4027  -15.1491 O   0  0  0  0  0  0  0  0  0  0  0  0
  2  1  1  1
  2  3  1  0
  2 10  1  0
  3  4  1  0
  4  5  2  0
  5  6  1  0
  7  6  2  0
  8  7  1  0
  9  8  2  0
  9  4  1  0
 10 11  2  0
 12 10  1  0
 12 13  1  0
 13 14  1  1
 14 15  1  0
 15 16  2  0
 17 13  1  0
 17 18  2  0
 19 15  1  0
 20 17  1  0
 21 27  1  0
 21 20  1  0
 21 22  1  6
 23 22  1  0
 24 23  1  0
 25 26  1  0
 25 24  1  0
 27 29  1  0
 28 27  2  0
M  END
$$$$
