FDK.pdb
     RDKit          3D

 29 29  0  0  1  0  0  0  0  0999 V2000
   27.0959  -21.8204   -8.6506 N   0  0  0  0  0  0  0  0  0  0  0  0
   26.7470  -20.4310   -8.7197 C   0  0  1  0  0  0  0  0  0  0  0  0
   27.9297  -19.5744   -8.4155 C   0  0  0  0  0  0  0  0  0  0  0  0
   28.1425  -19.5792   -6.9479 C   0  0  0  0  0  0  0  0  0  0  0  0
   29.2487  -18.9443   -6.4194 C   0  0  0  0  0  0  0  0  0  0  0  0
   29.4902  -18.9212   -5.0509 C   0  0  0  0  0  0  0  0  0  0  0  0
   28.6098  -19.5429   -4.2075 C   0  0  0  0  0  0  0  0  0  0  0  0
   27.4989  -20.1834   -4.7055 C   0  0  0  0  0  0  0  0  0  0  0  0
   27.2765  -20.1952   -6.0695 C   0  0  0  0  0  0  0  0  0  0  0  0
   26.1099  -20.0620  -10.0356 C   0  0  0  0  0  0  0  0  0  0  0  0
   25.6784  -18.9216  -10.2589 O   0  0  0  0  0  0  0  0  0  0  0  0
   26.0025  -21.0499  -11.0444 N   0  0  0  0  0  0  0  0  0  0  0  0
   25.5261  -20.7707  -12.3766 C   0  0  1  0  0  0  0  0  0  0  0  0
   26.2390  -21.7027  -13.3532 C   0  0  0  0  0  0  0  0  0  0  0  0
   26.3264  -21.0468  -14.6637 C   0  0  0  0  0  0  0  0  0  0  0  0
   27.4265  -21.1147  -15.2754 O   0  0  0  0  0  0  0  0  0  0  0  0
   24.0792  -21.0217  -12.5225 C   0  0  0  0  0  0  0  0  0  0  0  0
   23.6000  -22.0936  -12.0981 O   0  0  0  0  0  0  0  0  0  0  0  0
   25.2250  -20.3831  -15.1873 O   0  0  0  0  0  0  0  0  0  0  0  0
   23.2388  -20.0748  -13.1299 N   0  0  0  0  0  0  0  0  0  0  0  0
   21.7642  -20.1418  -13.0788 C   0  0  1  0  0  0  0  0  0  0  0  0
   21.2323  -18.8658  -13.6066 C   0  0  0  0  0  0  0  0  0  0  0  0
   19.7712  -18.6349  -13.5166 C   0  0  0  0  0  0  0  0  0  0  0  0
   19.2438  -17.3922  -14.1478 C   0  0  0  0  0  0  0  0  0  0  0  0
   17.7208  -17.2929  -14.0015 C   0  0  0  0  0  0  0  0  0  0  0  0
   17.2832  -16.0828  -14.6347 N   0  0  0  0  0  0  0  0  0  0  0  0
   21.2934  -21.3877  -13.6708 C   0  0  0  0  0  0  0  0  0  0  0  0
   21.7724  -21.8069  -14.7853 O   0  0  0  0  0  0  0  0  0  0  0  0
   20.3298  -22.2150  -13.1228 O   0  0  0  0  0  0  0  0  0  0  0  0
  2  1  1  6
  2  3  1  0
  2 10  1  0
  3  4  1  0
  4  5  2  0
  5  6  1  0
  7  6  2  0
  8  7  1  0
  9  8  2  0
  9  4  1  0
 10 11  2  0
 12 10  1  0
 12 13  1  0
 13 14  1  6
 14 15  1  0
 15 16  2  0
 17 13  1  0
 17 18  2  0
 19 15  1  0
 20 17  1  0
 21 27  1  0
 21 20  1  0
 21 22  1  6
 23 22  1  0
 24 23  1  0
 25 26  1  0
 25 24  1  0
 27 29  1  0
 28 27  2  0
M  END
$$$$
