FDK.pdb
     RDKit          3D

 29 29  0  0  1  0  0  0  0  0999 V2000
   28.5876  -21.0594  -10.0903 N   0  0  0  0  0  0  0  0  0  0  0  0
   27.2113  -20.6824   -9.9474 C   0  0  1  0  0  0  0  0  0  0  0  0
   27.0940  -19.3663   -9.2551 C   0  0  0  0  0  0  0  0  0  0  0  0
   27.5718  -19.5299   -7.8607 C   0  0  0  0  0  0  0  0  0  0  0  0
   26.7357  -20.0930   -6.9175 C   0  0  0  0  0  0  0  0  0  0  0  0
   27.1389  -20.2676   -5.5989 C   0  0  0  0  0  0  0  0  0  0  0  0
   28.3951  -19.8716   -5.2274 C   0  0  0  0  0  0  0  0  0  0  0  0
   29.2500  -19.3074   -6.1455 C   0  0  0  0  0  0  0  0  0  0  0  0
   28.8303  -19.1423   -7.4519 C   0  0  0  0  0  0  0  0  0  0  0  0
   26.4717  -20.6935  -11.2614 C   0  0  0  0  0  0  0  0  0  0  0  0
   26.9331  -20.1563  -12.2788 O   0  0  0  0  0  0  0  0  0  0  0  0
   25.2124  -21.3373  -11.3320 N   0  0  0  0  0  0  0  0  0  0  0  0
   24.3908  -21.3386  -12.5171 C   0  0  1  0  0  0  0  0  0  0  0  0
   23.9947  -22.7788  -12.8327 C   0  0  0  0  0  0  0  0  0  0  0  0
   25.1124  -23.4446  -13.5130 C   0  0  0  0  0  0  0  0  0  0  0  0
   25.6541  -22.8345  -14.4739 O   0  0  0  0  0  0  0  0  0  0  0  0
   23.1385  -20.5790  -12.3362 C   0  0  0  0  0  0  0  0  0  0  0  0
   22.5297  -20.6563  -11.2489 O   0  0  0  0  0  0  0  0  0  0  0  0
   25.5372  -24.6986  -13.0950 O   0  0  0  0  0  0  0  0  0  0  0  0
   22.6256  -19.7746  -13.3665 N   0  0  0  0  0  0  0  0  0  0  0  0
   21.3937  -18.9702  -13.2363 C   0  0  1  0  0  0  0  0  0  0  0  0
   21.2989  -18.0883  -14.4207 C   0  0  0  0  0  0  0  0  0  0  0  0
   20.1772  -17.1213  -14.4758 C   0  0  0  0  0  0  0  0  0  0  0  0
   20.0351  -16.3225  -15.7258 C   0  0  0  0  0  0  0  0  0  0  0  0
   18.8428  -15.3621  -15.6439 C   0  0  0  0  0  0  0  0  0  0  0  0
   18.7821  -14.6107  -16.8639 N   0  0  0  0  0  0  0  0  0  0  0  0
   20.2598  -19.8290  -12.9181 C   0  0  0  0  0  0  0  0  0  0  0  0
   20.1230  -20.9722  -13.4851 O   0  0  0  0  0  0  0  0  0  0  0  0
   19.2592  -19.5233  -12.0133 O   0  0  0  0  0  0  0  0  0  0  0  0
  2  1  1  6
  2  3  1  0
  2 10  1  0
  3  4  1  0
  4  5  2  0
  5  6  1  0
  7  6  2  0
  8  7  1  0
  9  8  2  0
  9  4  1  0
 10 11  2  0
 12 10  1  0
 12 13  1  0
 13 14  1  1
 14 15  1  0
 15 16  2  0
 17 13  1  0
 17 18  2  0
 19 15  1  0
 20 17  1  0
 21 27  1  0
 21 20  1  0
 21 22  1  6
 23 22  1  0
 24 23  1  0
 25 26  1  0
 25 24  1  0
 27 29  1  0
 28 27  2  0
M  END
$$$$
