FDK.pdb
     RDKit          3D

 29 29  0  0  1  0  0  0  0  0999 V2000
   28.6462  -21.5426  -13.5408 N   0  0  0  0  0  0  0  0  0  0  0  0
   27.4872  -21.0632  -12.8451 C   0  0  1  0  0  0  0  0  0  0  0  0
   27.7731  -19.7586  -12.1806 C   0  0  0  0  0  0  0  0  0  0  0  0
   28.0131  -20.0134  -10.7395 C   0  0  0  0  0  0  0  0  0  0  0  0
   26.9535  -19.9680   -9.8556 C   0  0  0  0  0  0  0  0  0  0  0  0
   27.1287  -20.2004   -8.4966 C   0  0  0  0  0  0  0  0  0  0  0  0
   28.3820  -20.4811   -8.0239 C   0  0  0  0  0  0  0  0  0  0  0  0
   29.4566  -20.5330   -8.8810 C   0  0  0  0  0  0  0  0  0  0  0  0
   29.2617  -20.2988  -10.2291 C   0  0  0  0  0  0  0  0  0  0  0  0
   26.2724  -20.9859  -13.7350 C   0  0  0  0  0  0  0  0  0  0  0  0
   26.3139  -20.4635  -14.8584 O   0  0  0  0  0  0  0  0  0  0  0  0
   25.0488  -21.5266  -13.2706 N   0  0  0  0  0  0  0  0  0  0  0  0
   23.8437  -21.5494  -14.0622 C   0  0  1  0  0  0  0  0  0  0  0  0
   23.3757  -22.9965  -14.1940 C   0  0  0  0  0  0  0  0  0  0  0  0
   24.2591  -23.7020  -15.1306 C   0  0  0  0  0  0  0  0  0  0  0  0
   24.6096  -23.0873  -16.1738 O   0  0  0  0  0  0  0  0  0  0  0  0
   22.7409  -20.7974  -13.4327 C   0  0  0  0  0  0  0  0  0  0  0  0
   22.5086  -20.9586  -12.2166 O   0  0  0  0  0  0  0  0  0  0  0  0
   24.6781  -24.9966  -14.8549 O   0  0  0  0  0  0  0  0  0  0  0  0
   21.9533  -19.9074  -14.1806 N   0  0  0  0  0  0  0  0  0  0  0  0
   20.7778  -19.2007  -13.6325 C   0  0  1  0  0  0  0  0  0  0  0  0
   20.4521  -18.0831  -14.5461 C   0  0  0  0  0  0  0  0  0  0  0  0
   20.6773  -18.2867  -15.9966 C   0  0  0  0  0  0  0  0  0  0  0  0
   20.3655  -17.1400  -16.8959 C   0  0  0  0  0  0  0  0  0  0  0  0
   18.8683  -16.8096  -16.8833 C   0  0  0  0  0  0  0  0  0  0  0  0
   18.6191  -15.8008  -17.8716 N   0  0  0  0  0  0  0  0  0  0  0  0
   19.7259  -20.1523  -13.2976 C   0  0  0  0  0  0  0  0  0  0  0  0
   19.0391  -20.0195  -12.2215 O   0  0  0  0  0  0  0  0  0  0  0  0
   19.3680  -21.2458  -14.0654 O   0  0  0  0  0  0  0  0  0  0  0  0
  2  1  1  6
  2  3  1  0
  2 10  1  0
  3  4  1  0
  4  5  2  0
  5  6  1  0
  7  6  2  0
  8  7  1  0
  9  8  2  0
  9  4  1  0
 10 11  2  0
 12 10  1  0
 12 13  1  0
 13 14  1  1
 14 15  1  0
 15 16  2  0
 17 13  1  0
 17 18  2  0
 19 15  1  0
 20 17  1  0
 21 27  1  0
 21 20  1  0
 21 22  1  6
 23 22  1  0
 24 23  1  0
 25 26  1  0
 25 24  1  0
 27 29  1  0
 28 27  2  0
M  END
$$$$
