MHY.pdb
     RDKit          3D

 31 32  0  0  1  0  0  0  0  0999 V2000
    8.3543  -11.7179   19.3304 C   0  0  0  0  0  0  0  0  0  0  0  0
    7.3903  -12.7720   18.2264 S   0  0  0  0  0  0  0  0  0  0  0  0
    8.1327  -14.4205   18.1394 C   0  0  0  0  0  0  0  0  0  0  0  0
    8.3032  -15.0156   19.5307 C   0  0  0  0  0  0  0  0  0  0  0  0
    9.6915  -15.4236   19.8511 C   0  0  2  0  0  0  0  0  0  0  0  0
   10.3113  -16.1485   18.7794 N   0  0  0  0  0  0  0  0  0  0  0  0
    9.7374  -16.2122   21.1146 C   0  0  0  0  0  0  0  0  0  0  0  0
    9.0251  -15.8400   22.0966 O   0  0  0  0  0  0  0  0  0  0  0  0
   10.5320  -17.3646   21.3121 N   0  0  0  0  0  0  0  0  0  0  0  0
   10.7227  -18.0354   22.5673 C   0  0  1  0  0  0  0  0  0  0  0  0
   11.6150  -19.2754   22.3771 C   0  0  0  0  0  0  0  0  0  0  0  0
   11.0263  -20.1788   21.3821 C   0  0  0  0  0  0  0  0  0  0  0  0
    9.7321  -20.5429   21.1686 C   0  0  0  0  0  0  0  0  0  0  0  0
    9.7086  -21.4275   20.1371 N   0  0  0  0  0  0  0  0  0  0  0  0
   10.9756  -21.6159   19.7071 C   0  0  0  0  0  0  0  0  0  0  0  0
   11.7814  -20.8445   20.4753 N   0  0  0  0  0  0  0  0  0  0  0  0
   11.2587  -17.1441   23.6428 C   0  0  0  0  0  0  0  0  0  0  0  0
   12.1944  -16.3301   23.4799 O   0  0  0  0  0  0  0  0  0  0  0  0
    5.9013  -11.5124   27.4041 O   0  0  0  0  0  0  0  0  0  0  0  0
    6.6285  -12.5235   26.7710 C   0  0  0  0  0  0  0  0  0  0  0  0
    7.9867  -12.6750   26.9621 C   0  0  0  0  0  0  0  0  0  0  0  0
    8.6605  -13.6779   26.3252 C   0  0  0  0  0  0  0  0  0  0  0  0
    8.0655  -14.6025   25.4586 C   0  0  0  0  0  0  0  0  0  0  0  0
    8.8036  -15.6697   24.7726 C   0  0  0  0  0  0  0  0  0  0  0  0
    9.9775  -16.1133   25.5866 C   0  0  2  0  0  0  0  0  0  0  0  0
   10.6869  -17.2083   24.9317 N   0  0  0  0  0  0  0  0  0  0  0  0
    9.5214  -16.6136   26.8845 C   0  0  0  0  0  0  0  0  0  0  0  0
    8.8712  -17.6726   26.9546 O   0  0  0  0  0  0  0  0  0  0  0  0
    6.6889  -14.4051   25.2994 C   0  0  0  0  0  0  0  0  0  0  0  0
    6.0059  -13.4107   25.9281 C   0  0  0  0  0  0  0  0  0  0  0  0
    9.7985  -15.9258   28.0539 O   0  0  0  0  0  0  0  0  0  0  0  0
  2  1  1  0
  3  2  1  0
  4  3  1  0
  5  4  1  0
  5  6  1  6
  7  5  1  0
  7  8  2  0
  9  7  1  0
 10  9  1  0
 10 11  1  6
 12 11  1  0
 12 16  1  0
 13 12  2  0
 14 13  1  0
 14 15  1  0
 15 16  2  0
 17 10  1  0
 18 17  2  0
 19 20  1  0
 20 21  2  0
 20 30  1  0
 21 22  1  0
 22 23  2  0
 23 24  1  0
 25 24  1  6
 25 26  1  0
 25 27  1  0
 26 17  1  0
 27 31  1  0
 28 27  2  0
 29 23  1  0
 30 29  2  0
M  END
$$$$
