MHY.pdb
     RDKit          3D

 31 32  0  0  1  0  0  0  0  0999 V2000
    7.5141  -11.5258   18.7187 C   0  0  0  0  0  0  0  0  0  0  0  0
    6.8902  -12.7999   17.6019 S   0  0  0  0  0  0  0  0  0  0  0  0
    7.4156  -14.4351   18.1728 C   0  0  0  0  0  0  0  0  0  0  0  0
    8.7606  -14.3584   18.8829 C   0  0  0  0  0  0  0  0  0  0  0  0
    9.2661  -15.6639   19.3695 C   0  0  2  0  0  0  0  0  0  0  0  0
    9.0573  -16.7206   18.4219 N   0  0  0  0  0  0  0  0  0  0  0  0
    8.6624  -16.0121   20.6865 C   0  0  0  0  0  0  0  0  0  0  0  0
    8.6579  -15.1408   21.6092 O   0  0  0  0  0  0  0  0  0  0  0  0
    8.0855  -17.2645   20.9983 N   0  0  0  0  0  0  0  0  0  0  0  0
    7.4737  -17.6070   22.2514 C   0  0  1  0  0  0  0  0  0  0  0  0
    6.8124  -18.9940   22.1584 C   0  0  0  0  0  0  0  0  0  0  0  0
    5.5909  -18.9228   21.3488 C   0  0  0  0  0  0  0  0  0  0  0  0
    4.4011  -18.3064   21.5885 C   0  0  0  0  0  0  0  0  0  0  0  0
    3.5775  -18.5582   20.5372 N   0  0  0  0  0  0  0  0  0  0  0  0
    4.2443  -19.3245   19.6462 C   0  0  0  0  0  0  0  0  0  0  0  0
    5.4822  -19.5442   20.1498 N   0  0  0  0  0  0  0  0  0  0  0  0
    8.4145  -17.5338   23.4124 C   0  0  0  0  0  0  0  0  0  0  0  0
    9.4907  -18.1670   23.4862 O   0  0  0  0  0  0  0  0  0  0  0  0
   11.3037  -15.1581   31.4649 O   0  0  0  0  0  0  0  0  0  0  0  0
   10.5675  -15.2489   30.2809 C   0  0  0  0  0  0  0  0  0  0  0  0
    9.5967  -16.2123   30.0971 C   0  0  0  0  0  0  0  0  0  0  0  0
    8.8982  -16.2660   28.9246 C   0  0  0  0  0  0  0  0  0  0  0  0
    9.0926  -15.3911   27.8491 C   0  0  0  0  0  0  0  0  0  0  0  0
    8.3415  -15.4665   26.5903 C   0  0  0  0  0  0  0  0  0  0  0  0
    8.9294  -16.4979   25.6805 C   0  0  2  0  0  0  0  0  0  0  0  0
    8.0875  -16.7031   24.5057 N   0  0  0  0  0  0  0  0  0  0  0  0
    9.0150  -17.7831   26.3761 C   0  0  0  0  0  0  0  0  0  0  0  0
    7.9904  -18.4649   26.5613 O   0  0  0  0  0  0  0  0  0  0  0  0
   10.0868  -14.4349   28.0864 C   0  0  0  0  0  0  0  0  0  0  0  0
   10.7893  -14.3702   29.2496 C   0  0  0  0  0  0  0  0  0  0  0  0
   10.2267  -18.2651   26.8420 O   0  0  0  0  0  0  0  0  0  0  0  0
  2  1  1  0
  3  2  1  0
  4  3  1  0
  5  4  1  0
  5  6  1  6
  7  5  1  0
  7  8  2  0
  9  7  1  0
 10  9  1  0
 10 11  1  6
 12 11  1  0
 12 16  1  0
 13 12  2  0
 14 13  1  0
 14 15  1  0
 15 16  2  0
 17 10  1  0
 18 17  2  0
 19 20  1  0
 20 21  2  0
 20 30  1  0
 21 22  1  0
 22 23  2  0
 23 24  1  0
 25 24  1  1
 25 26  1  0
 25 27  1  0
 26 17  1  0
 27 31  1  0
 28 27  2  0
 29 23  1  0
 30 29  2  0
M  END
$$$$
