MHY.pdb
     RDKit          3D

 31 32  0  0  1  0  0  0  0  0999 V2000
    7.1848  -11.4778   19.1568 C   0  0  0  0  0  0  0  0  0  0  0  0
    7.1543  -12.7156   17.8429 S   0  0  0  0  0  0  0  0  0  0  0  0
    8.5308  -13.8724   18.0497 C   0  0  0  0  0  0  0  0  0  0  0  0
    9.4219  -13.4570   19.2127 C   0  0  0  0  0  0  0  0  0  0  0  0
   10.5840  -14.3491   19.4365 C   0  0  2  0  0  0  0  0  0  0  0  0
   10.9641  -15.0626   18.2514 N   0  0  0  0  0  0  0  0  0  0  0  0
   10.3222  -15.2947   20.5580 C   0  0  0  0  0  0  0  0  0  0  0  0
    9.8023  -14.8502   21.6269 O   0  0  0  0  0  0  0  0  0  0  0  0
   10.6172  -16.6769   20.5269 N   0  0  0  0  0  0  0  0  0  0  0  0
   10.3254  -17.6111   21.5776 C   0  0  1  0  0  0  0  0  0  0  0  0
   10.7690  -19.0272   21.1680 C   0  0  0  0  0  0  0  0  0  0  0  0
    9.8548  -19.5759   20.1600 C   0  0  0  0  0  0  0  0  0  0  0  0
   10.0319  -19.8017   18.8294 C   0  0  0  0  0  0  0  0  0  0  0  0
    8.8710  -20.3008   18.3292 N   0  0  0  0  0  0  0  0  0  0  0  0
    7.9745  -20.3878   19.3364 C   0  0  0  0  0  0  0  0  0  0  0  0
    8.5854  -19.9421   20.4600 N   0  0  0  0  0  0  0  0  0  0  0  0
   10.9105  -17.2227   22.8987 C   0  0  0  0  0  0  0  0  0  0  0  0
   12.1375  -17.1399   23.1271 O   0  0  0  0  0  0  0  0  0  0  0  0
   10.7870  -14.8867   31.4866 O   0  0  0  0  0  0  0  0  0  0  0  0
   10.4311  -15.1181   30.1555 C   0  0  0  0  0  0  0  0  0  0  0  0
   10.4238  -14.1077   29.2156 C   0  0  0  0  0  0  0  0  0  0  0  0
   10.0706  -14.3762   27.9238 C   0  0  0  0  0  0  0  0  0  0  0  0
    9.6993  -15.6414   27.4536 C   0  0  0  0  0  0  0  0  0  0  0  0
    9.3123  -15.9141   26.0643 C   0  0  0  0  0  0  0  0  0  0  0  0
   10.4669  -16.4631   25.2879 C   0  0  2  0  0  0  0  0  0  0  0  0
   10.0413  -16.9256   23.9703 N   0  0  0  0  0  0  0  0  0  0  0  0
   11.0304  -17.6194   25.9866 C   0  0  0  0  0  0  0  0  0  0  0  0
   12.0882  -17.5069   26.6328 O   0  0  0  0  0  0  0  0  0  0  0  0
    9.7231  -16.6291   28.4452 C   0  0  0  0  0  0  0  0  0  0  0  0
   10.0732  -16.3751   29.7350 C   0  0  0  0  0  0  0  0  0  0  0  0
   10.4066  -18.8550   25.9438 O   0  0  0  0  0  0  0  0  0  0  0  0
  2  1  1  0
  3  2  1  0
  4  3  1  0
  5  4  1  0
  5  6  1  6
  7  5  1  0
  7  8  2  0
  9  7  1  0
 10  9  1  0
 10 11  1  6
 12 11  1  0
 12 16  1  0
 13 12  2  0
 14 13  1  0
 14 15  1  0
 15 16  2  0
 17 10  1  0
 18 17  2  0
 19 20  1  0
 20 21  2  0
 20 30  1  0
 21 22  1  0
 22 23  2  0
 23 24  1  0
 25 24  1  1
 25 26  1  0
 25 27  1  0
 26 17  1  0
 27 31  1  0
 28 27  2  0
 29 23  1  0
 30 29  2  0
M  END
$$$$
