MHY.pdb
     RDKit          3D

 31 32  0  0  1  0  0  0  0  0999 V2000
    8.6910  -11.7241   19.8046 C   0  0  0  0  0  0  0  0  0  0  0  0
    7.1520  -12.3886   19.1343 S   0  0  0  0  0  0  0  0  0  0  0  0
    7.4316  -14.0489   18.4700 C   0  0  0  0  0  0  0  0  0  0  0  0
    8.1148  -14.9397   19.4990 C   0  0  0  0  0  0  0  0  0  0  0  0
    8.5116  -16.2709   18.9822 C   0  0  2  0  0  0  0  0  0  0  0  0
    7.3998  -17.0082   18.4546 N   0  0  0  0  0  0  0  0  0  0  0  0
    9.2164  -17.0614   20.0304 C   0  0  0  0  0  0  0  0  0  0  0  0
    8.5340  -17.7981   20.8063 O   0  0  0  0  0  0  0  0  0  0  0  0
   10.6150  -17.0525   20.2366 N   0  0  0  0  0  0  0  0  0  0  0  0
   11.3024  -17.7449   21.2901 C   0  0  1  0  0  0  0  0  0  0  0  0
   12.6052  -18.3670   20.7556 C   0  0  0  0  0  0  0  0  0  0  0  0
   12.3039  -19.4965   19.8689 C   0  0  0  0  0  0  0  0  0  0  0  0
   12.2385  -19.5670   18.5111 C   0  0  0  0  0  0  0  0  0  0  0  0
   11.8966  -20.8378   18.1717 N   0  0  0  0  0  0  0  0  0  0  0  0
   11.7496  -21.5578   19.3056 C   0  0  0  0  0  0  0  0  0  0  0  0
   12.0027  -20.7284   20.3460 N   0  0  0  0  0  0  0  0  0  0  0  0
   11.5643  -16.8916   22.4909 C   0  0  0  0  0  0  0  0  0  0  0  0
   12.3406  -15.9109   22.5006 O   0  0  0  0  0  0  0  0  0  0  0  0
   10.7521  -14.3194   30.9672 O   0  0  0  0  0  0  0  0  0  0  0  0
   10.5244  -14.8229   29.6840 C   0  0  0  0  0  0  0  0  0  0  0  0
   10.5409  -16.1768   29.4175 C   0  0  0  0  0  0  0  0  0  0  0  0
   10.3120  -16.6281   28.1488 C   0  0  0  0  0  0  0  0  0  0  0  0
   10.0523  -15.7994   27.0509 C   0  0  0  0  0  0  0  0  0  0  0  0
    9.8178  -16.2974   25.6903 C   0  0  0  0  0  0  0  0  0  0  0  0
   11.1109  -16.4913   24.9640 C   0  0  2  0  0  0  0  0  0  0  0  0
   10.9038  -17.1937   23.7011 N   0  0  0  0  0  0  0  0  0  0  0  0
   12.0143  -17.3149   25.7693 C   0  0  0  0  0  0  0  0  0  0  0  0
   11.8466  -18.5463   25.8372 O   0  0  0  0  0  0  0  0  0  0  0  0
   10.0468  -14.4376   27.3746 C   0  0  0  0  0  0  0  0  0  0  0  0
   10.2729  -13.9749   28.6338 C   0  0  0  0  0  0  0  0  0  0  0  0
   13.0659  -16.7483   26.4697 O   0  0  0  0  0  0  0  0  0  0  0  0
  2  1  1  0
  3  2  1  0
  4  3  1  0
  5  4  1  0
  5  6  1  1
  7  5  1  0
  7  8  2  0
  9  7  1  0
 10  9  1  0
 10 11  1  6
 12 11  1  0
 12 16  1  0
 13 12  2  0
 14 13  1  0
 14 15  1  0
 15 16  2  0
 17 10  1  0
 18 17  2  0
 19 20  1  0
 20 21  2  0
 20 30  1  0
 21 22  1  0
 22 23  2  0
 23 24  1  0
 25 24  1  1
 25 26  1  0
 25 27  1  0
 26 17  1  0
 27 31  1  0
 28 27  2  0
 29 23  1  0
 30 29  2  0
M  END
$$$$
