MHY.pdb
     RDKit          3D

 31 32  0  0  1  0  0  0  0  0999 V2000
    6.9000  -11.4334   18.2903 C   0  0  0  0  0  0  0  0  0  0  0  0
    7.6454  -12.7980   19.2078 S   0  0  0  0  0  0  0  0  0  0  0  0
    6.7578  -14.3364   18.8596 C   0  0  0  0  0  0  0  0  0  0  0  0
    7.3145  -15.4864   19.6883 C   0  0  0  0  0  0  0  0  0  0  0  0
    8.7712  -15.3992   19.9473 C   0  0  2  0  0  0  0  0  0  0  0  0
    9.5491  -15.5069   18.7468 N   0  0  0  0  0  0  0  0  0  0  0  0
    9.1978  -16.4218   20.9436 C   0  0  0  0  0  0  0  0  0  0  0  0
    8.5616  -16.5158   22.0376 O   0  0  0  0  0  0  0  0  0  0  0  0
   10.2812  -17.3122   20.7650 N   0  0  0  0  0  0  0  0  0  0  0  0
   10.8046  -18.1938   21.7703 C   0  0  1  0  0  0  0  0  0  0  0  0
   11.9111  -19.0826   21.1739 C   0  0  0  0  0  0  0  0  0  0  0  0
   11.3351  -20.0528   20.2361 C   0  0  0  0  0  0  0  0  0  0  0  0
   10.0530  -20.4820   20.0779 C   0  0  0  0  0  0  0  0  0  0  0  0
   10.0395  -21.4102   19.0854 N   0  0  0  0  0  0  0  0  0  0  0  0
   11.3008  -21.5615   18.6249 C   0  0  0  0  0  0  0  0  0  0  0  0
   12.0929  -20.7233   19.3350 N   0  0  0  0  0  0  0  0  0  0  0  0
   11.2855  -17.4811   22.9948 C   0  0  0  0  0  0  0  0  0  0  0  0
   12.3330  -16.7993   23.0456 O   0  0  0  0  0  0  0  0  0  0  0  0
   10.7663  -14.4547   31.3459 O   0  0  0  0  0  0  0  0  0  0  0  0
   10.4762  -14.9636   30.0775 C   0  0  0  0  0  0  0  0  0  0  0  0
   10.4674  -16.3191   29.8192 C   0  0  0  0  0  0  0  0  0  0  0  0
   10.1772  -16.7757   28.5651 C   0  0  0  0  0  0  0  0  0  0  0  0
    9.8766  -15.9509   27.4746 C   0  0  0  0  0  0  0  0  0  0  0  0
    9.5762  -16.4547   26.1291 C   0  0  0  0  0  0  0  0  0  0  0  0
   10.8288  -16.8667   25.4230 C   0  0  2  0  0  0  0  0  0  0  0  0
   10.5242  -17.5691   24.1800 N   0  0  0  0  0  0  0  0  0  0  0  0
   11.5910  -17.7923   26.2627 C   0  0  0  0  0  0  0  0  0  0  0  0
   11.3181  -19.0066   26.2643 O   0  0  0  0  0  0  0  0  0  0  0  0
    9.8991  -14.5872   27.7895 C   0  0  0  0  0  0  0  0  0  0  0  0
   10.1861  -14.1194   29.0342 C   0  0  0  0  0  0  0  0  0  0  0  0
   12.6228  -17.3425   27.0692 O   0  0  0  0  0  0  0  0  0  0  0  0
  2  1  1  0
  3  2  1  0
  4  3  1  0
  5  4  1  0
  5  6  1  6
  7  5  1  0
  7  8  2  0
  9  7  1  0
 10  9  1  0
 10 11  1  6
 12 11  1  0
 12 16  1  0
 13 12  2  0
 14 13  1  0
 14 15  1  0
 15 16  2  0
 17 10  1  0
 18 17  2  0
 19 20  1  0
 20 21  2  0
 20 30  1  0
 21 22  1  0
 22 23  2  0
 23 24  1  0
 25 24  1  1
 25 26  1  0
 25 27  1  0
 26 17  1  0
 27 31  1  0
 28 27  2  0
 29 23  1  0
 30 29  2  0
M  END
$$$$
