MHY.pdb
     RDKit          3D

 31 32  0  0  1  0  0  0  0  0999 V2000
    8.4411  -12.0466   20.3819 C   0  0  0  0  0  0  0  0  0  0  0  0
    7.9193  -12.6251   18.7533 S   0  0  0  0  0  0  0  0  0  0  0  0
    7.2867  -14.3169   18.8703 C   0  0  0  0  0  0  0  0  0  0  0  0
    7.9151  -15.0537   20.0455 C   0  0  0  0  0  0  0  0  0  0  0  0
    8.6041  -16.3125   19.6751 C   0  0  2  0  0  0  0  0  0  0  0  0
    7.7366  -17.2344   19.0000 N   0  0  0  0  0  0  0  0  0  0  0  0
    9.2240  -16.9526   20.8694 C   0  0  0  0  0  0  0  0  0  0  0  0
    8.4773  -17.3091   21.8316 O   0  0  0  0  0  0  0  0  0  0  0  0
   10.6083  -17.1956   21.0212 N   0  0  0  0  0  0  0  0  0  0  0  0
   11.2500  -17.6049   22.2388 C   0  0  1  0  0  0  0  0  0  0  0  0
   12.6358  -18.2020   21.9345 C   0  0  0  0  0  0  0  0  0  0  0  0
   12.5106  -19.3357   21.0116 C   0  0  0  0  0  0  0  0  0  0  0  0
   12.0597  -20.6034   21.2179 C   0  0  0  0  0  0  0  0  0  0  0  0
   12.1672  -21.2840   20.0465 N   0  0  0  0  0  0  0  0  0  0  0  0
   12.6798  -20.4512   19.1141 C   0  0  0  0  0  0  0  0  0  0  0  0
   12.8876  -19.2542   19.7128 N   0  0  0  0  0  0  0  0  0  0  0  0
   11.3440  -16.5134   23.2578 C   0  0  0  0  0  0  0  0  0  0  0  0
   11.8618  -15.3950   23.0442 O   0  0  0  0  0  0  0  0  0  0  0  0
    6.1473  -11.2838   27.6908 O   0  0  0  0  0  0  0  0  0  0  0  0
    6.8362  -12.2513   26.9550 C   0  0  0  0  0  0  0  0  0  0  0  0
    8.0690  -12.7285   27.3506 C   0  0  0  0  0  0  0  0  0  0  0  0
    8.7090  -13.6759   26.6033 C   0  0  0  0  0  0  0  0  0  0  0  0
    8.1995  -14.2255   25.4209 C   0  0  0  0  0  0  0  0  0  0  0  0
    8.9026  -15.2361   24.6218 C   0  0  0  0  0  0  0  0  0  0  0  0
   10.1087  -15.7433   25.3467 C   0  0  2  0  0  0  0  0  0  0  0  0
   10.8210  -16.7374   24.5495 N   0  0  0  0  0  0  0  0  0  0  0  0
    9.7013  -16.4019   26.5889 C   0  0  0  0  0  0  0  0  0  0  0  0
    9.2265  -17.5521   26.5618 O   0  0  0  0  0  0  0  0  0  0  0  0
    6.9487  -13.7081   25.0643 C   0  0  0  0  0  0  0  0  0  0  0  0
    6.3005  -12.7649   25.7998 C   0  0  0  0  0  0  0  0  0  0  0  0
    9.8314  -15.7658   27.8119 O   0  0  0  0  0  0  0  0  0  0  0  0
  2  1  1  0
  3  2  1  0
  4  3  1  0
  5  4  1  0
  5  6  1  1
  7  5  1  0
  7  8  2  0
  9  7  1  0
 10  9  1  0
 10 11  1  6
 12 11  1  0
 12 16  1  0
 13 12  2  0
 14 13  1  0
 14 15  1  0
 15 16  2  0
 17 10  1  0
 18 17  2  0
 19 20  1  0
 20 21  2  0
 20 30  1  0
 21 22  1  0
 22 23  2  0
 23 24  1  0
 25 24  1  6
 25 26  1  0
 25 27  1  0
 26 17  1  0
 27 31  1  0
 28 27  2  0
 29 23  1  0
 30 29  2  0
M  END
$$$$
