MHY.pdb
     RDKit          3D

 31 32  0  0  1  0  0  0  0  0999 V2000
    7.7618  -12.1080   20.6872 C   0  0  0  0  0  0  0  0  0  0  0  0
    7.2338  -12.1284   18.9609 S   0  0  0  0  0  0  0  0  0  0  0  0
    7.5133  -13.7681   18.2471 C   0  0  0  0  0  0  0  0  0  0  0  0
    8.1400  -14.7076   19.2687 C   0  0  0  0  0  0  0  0  0  0  0  0
    8.3314  -16.0942   18.7816 C   0  0  2  0  0  0  0  0  0  0  0  0
    7.1047  -16.6966   18.3453 N   0  0  0  0  0  0  0  0  0  0  0  0
    8.9913  -16.9372   19.8182 C   0  0  0  0  0  0  0  0  0  0  0  0
    8.2771  -17.4698   20.7220 O   0  0  0  0  0  0  0  0  0  0  0  0
   10.3803  -17.1929   19.8788 N   0  0  0  0  0  0  0  0  0  0  0  0
   11.0570  -17.8451   20.9644 C   0  0  1  0  0  0  0  0  0  0  0  0
   12.4009  -18.4217   20.4833 C   0  0  0  0  0  0  0  0  0  0  0  0
   13.0422  -19.1851   21.5597 C   0  0  0  0  0  0  0  0  0  0  0  0
   14.0417  -18.8424   22.4179 C   0  0  0  0  0  0  0  0  0  0  0  0
   14.2965  -19.9126   23.2159 N   0  0  0  0  0  0  0  0  0  0  0  0
   13.4644  -20.9167   22.8622 C   0  0  0  0  0  0  0  0  0  0  0  0
   12.6945  -20.4632   21.8444 N   0  0  0  0  0  0  0  0  0  0  0  0
   11.2433  -16.9681   22.1622 C   0  0  0  0  0  0  0  0  0  0  0  0
   11.5860  -15.7664   22.1071 O   0  0  0  0  0  0  0  0  0  0  0  0
   10.5573  -14.0809   30.4761 O   0  0  0  0  0  0  0  0  0  0  0  0
   10.3902  -14.7010   29.2352 C   0  0  0  0  0  0  0  0  0  0  0  0
   10.0761  -13.9853   28.0980 C   0  0  0  0  0  0  0  0  0  0  0  0
    9.9226  -14.6298   26.9035 C   0  0  0  0  0  0  0  0  0  0  0  0
   10.0620  -16.0117   26.7285 C   0  0  0  0  0  0  0  0  0  0  0  0
    9.8844  -16.6929   25.4405 C   0  0  0  0  0  0  0  0  0  0  0  0
   11.1814  -16.7786   24.7004 C   0  0  2  0  0  0  0  0  0  0  0  0
   11.0232  -17.5098   23.4468 N   0  0  0  0  0  0  0  0  0  0  0  0
   12.1635  -17.5102   25.5023 C   0  0  0  0  0  0  0  0  0  0  0  0
   13.2219  -16.9578   25.8540 O   0  0  0  0  0  0  0  0  0  0  0  0
   10.3801  -16.6899   27.9109 C   0  0  0  0  0  0  0  0  0  0  0  0
   10.5361  -16.0602   29.1067 C   0  0  0  0  0  0  0  0  0  0  0  0
   11.9411  -18.8228   25.8832 O   0  0  0  0  0  0  0  0  0  0  0  0
  2  1  1  0
  3  2  1  0
  4  3  1  0
  5  4  1  0
  5  6  1  1
  7  5  1  0
  7  8  2  0
  9  7  1  0
 10  9  1  0
 10 11  1  6
 12 11  1  0
 12 16  1  0
 13 12  2  0
 14 13  1  0
 14 15  1  0
 15 16  2  0
 17 10  1  0
 18 17  2  0
 19 20  1  0
 20 21  2  0
 20 30  1  0
 21 22  1  0
 22 23  2  0
 23 24  1  0
 25 24  1  1
 25 26  1  0
 25 27  1  0
 26 17  1  0
 27 31  1  0
 28 27  2  0
 29 23  1  0
 30 29  2  0
M  END
$$$$
