MHY.pdb
     RDKit          3D

 31 32  0  0  1  0  0  0  0  0999 V2000
    3.6383  -17.3406   18.1581 C   0  0  0  0  0  0  0  0  0  0  0  0
    2.9919  -18.5952   19.2840 S   0  0  0  0  0  0  0  0  0  0  0  0
    3.9716  -18.6257   20.8056 C   0  0  0  0  0  0  0  0  0  0  0  0
    5.4616  -18.5704   20.4958 C   0  0  0  0  0  0  0  0  0  0  0  0
    6.3322  -18.5760   21.6952 C   0  0  2  0  0  0  0  0  0  0  0  0
    5.6147  -18.2548   22.8953 N   0  0  0  0  0  0  0  0  0  0  0  0
    7.4932  -17.6593   21.5157 C   0  0  0  0  0  0  0  0  0  0  0  0
    8.4023  -17.9751   20.6885 O   0  0  0  0  0  0  0  0  0  0  0  0
    7.6685  -16.4415   22.2118 N   0  0  0  0  0  0  0  0  0  0  0  0
    8.8555  -15.6340   22.1846 C   0  0  1  0  0  0  0  0  0  0  0  0
    8.5190  -14.2103   21.7051 C   0  0  0  0  0  0  0  0  0  0  0  0
    8.0781  -14.2349   20.3059 C   0  0  0  0  0  0  0  0  0  0  0  0
    6.9902  -13.6769   19.7075 C   0  0  0  0  0  0  0  0  0  0  0  0
    7.0173  -14.0105   18.3903 N   0  0  0  0  0  0  0  0  0  0  0  0
    8.1119  -14.7698   18.1644 C   0  0  0  0  0  0  0  0  0  0  0  0
    8.7611  -14.9033   19.3455 N   0  0  0  0  0  0  0  0  0  0  0  0
    9.5860  -15.6058   23.4900 C   0  0  0  0  0  0  0  0  0  0  0  0
   10.6711  -15.0120   23.6757 O   0  0  0  0  0  0  0  0  0  0  0  0
    6.1837  -10.8630   26.4940 O   0  0  0  0  0  0  0  0  0  0  0  0
    6.7305  -12.1440   26.6050 C   0  0  0  0  0  0  0  0  0  0  0  0
    5.9494  -13.2795   26.5375 C   0  0  0  0  0  0  0  0  0  0  0  0
    6.5237  -14.5137   26.6493 C   0  0  0  0  0  0  0  0  0  0  0  0
    7.8938  -14.7330   26.8352 C   0  0  0  0  0  0  0  0  0  0  0  0
    8.4966  -16.0651   26.9639 C   0  0  0  0  0  0  0  0  0  0  0  0
    9.5796  -16.2595   25.9507 C   0  0  2  0  0  0  0  0  0  0  0  0
    9.0338  -16.2854   24.5970 N   0  0  0  0  0  0  0  0  0  0  0  0
   10.2407  -17.5469   26.1709 C   0  0  0  0  0  0  0  0  0  0  0  0
   10.1861  -18.4362   25.3019 O   0  0  0  0  0  0  0  0  0  0  0  0
    8.6401  -13.5504   26.8970 C   0  0  0  0  0  0  0  0  0  0  0  0
    8.0807  -12.3153   26.7866 C   0  0  0  0  0  0  0  0  0  0  0  0
   10.9343  -17.8040   27.3415 O   0  0  0  0  0  0  0  0  0  0  0  0
  2  1  1  0
  3  2  1  0
  4  3  1  0
  5  4  1  0
  5  6  1  1
  7  5  1  0
  7  8  2  0
  9  7  1  0
 10  9  1  0
 10 11  1  1
 12 11  1  0
 12 16  1  0
 13 12  2  0
 14 13  1  0
 14 15  1  0
 15 16  2  0
 17 10  1  0
 18 17  2  0
 19 20  1  0
 20 21  2  0
 20 30  1  0
 21 22  1  0
 22 23  2  0
 23 24  1  0
 25 24  1  1
 25 26  1  0
 25 27  1  0
 26 17  1  0
 27 31  1  0
 28 27  2  0
 29 23  1  0
 30 29  2  0
M  END
$$$$
