MHY.pdb
     RDKit          3D

 31 32  0  0  1  0  0  0  0  0999 V2000
    7.9199  -11.8343   20.0470 C   0  0  0  0  0  0  0  0  0  0  0  0
    7.0103  -12.3862   18.5884 S   0  0  0  0  0  0  0  0  0  0  0  0
    7.9675  -13.6386   17.6989 C   0  0  0  0  0  0  0  0  0  0  0  0
    8.3783  -14.7727   18.6285 C   0  0  0  0  0  0  0  0  0  0  0  0
    9.2445  -15.7946   17.9943 C   0  0  2  0  0  0  0  0  0  0  0  0
    8.6158  -16.4247   16.8692 N   0  0  0  0  0  0  0  0  0  0  0  0
    9.6839  -16.8130   18.9894 C   0  0  0  0  0  0  0  0  0  0  0  0
    9.6875  -18.0370   18.6542 O   0  0  0  0  0  0  0  0  0  0  0  0
   10.1021  -16.5182   20.3072 N   0  0  0  0  0  0  0  0  0  0  0  0
   10.7535  -17.4387   21.1961 C   0  0  1  0  0  0  0  0  0  0  0  0
   11.9331  -18.1228   20.4818 C   0  0  0  0  0  0  0  0  0  0  0  0
   11.4530  -19.2408   19.6619 C   0  0  0  0  0  0  0  0  0  0  0  0
   11.7124  -19.5676   18.3661 C   0  0  0  0  0  0  0  0  0  0  0  0
   11.0026  -20.6866   18.0643 N   0  0  0  0  0  0  0  0  0  0  0  0
   10.3053  -21.0586   19.1602 C   0  0  0  0  0  0  0  0  0  0  0  0
   10.5873  -20.1669   20.1399 N   0  0  0  0  0  0  0  0  0  0  0  0
   11.1904  -16.8143   22.4836 C   0  0  0  0  0  0  0  0  0  0  0  0
   12.2226  -16.1197   22.6135 O   0  0  0  0  0  0  0  0  0  0  0  0
   10.5377  -14.2694   30.9797 O   0  0  0  0  0  0  0  0  0  0  0  0
   10.2695  -14.7850   29.7090 C   0  0  0  0  0  0  0  0  0  0  0  0
    9.8715  -13.9779   28.6629 C   0  0  0  0  0  0  0  0  0  0  0  0
    9.6205  -14.5216   27.4353 C   0  0  0  0  0  0  0  0  0  0  0  0
    9.7368  -15.8844   27.1368 C   0  0  0  0  0  0  0  0  0  0  0  0
    9.4541  -16.4570   25.8152 C   0  0  0  0  0  0  0  0  0  0  0  0
   10.6665  -16.4023   24.9409 C   0  0  2  0  0  0  0  0  0  0  0  0
   10.4027  -17.0074   23.6388 N   0  0  0  0  0  0  0  0  0  0  0  0
   11.7561  -17.1635   25.5544 C   0  0  0  0  0  0  0  0  0  0  0  0
   12.6790  -16.5723   26.1441 O   0  0  0  0  0  0  0  0  0  0  0  0
   10.1426  -16.6578   28.2306 C   0  0  0  0  0  0  0  0  0  0  0  0
   10.3961  -16.1289   29.4580 C   0  0  0  0  0  0  0  0  0  0  0  0
   11.7863  -18.5464   25.4919 O   0  0  0  0  0  0  0  0  0  0  0  0
  2  1  1  0
  3  2  1  0
  4  3  1  0
  5  4  1  0
  5  6  1  6
  7  5  1  0
  7  8  2  0
  9  7  1  0
 10  9  1  0
 10 11  1  6
 12 11  1  0
 12 16  1  0
 13 12  2  0
 14 13  1  0
 14 15  1  0
 15 16  2  0
 17 10  1  0
 18 17  2  0
 19 20  1  0
 20 21  2  0
 20 30  1  0
 21 22  1  0
 22 23  2  0
 23 24  1  0
 25 24  1  1
 25 26  1  0
 25 27  1  0
 26 17  1  0
 27 31  1  0
 28 27  2  0
 29 23  1  0
 30 29  2  0
M  END
$$$$
