MHY.pdb
     RDKit          3D

 31 32  0  0  1  0  0  0  0  0999 V2000
    7.4316  -13.9457   16.7372 C   0  0  0  0  0  0  0  0  0  0  0  0
    7.7427  -12.7547   18.0578 S   0  0  0  0  0  0  0  0  0  0  0  0
    6.7797  -13.1927   19.5264 C   0  0  0  0  0  0  0  0  0  0  0  0
    7.3267  -14.4544   20.1807 C   0  0  0  0  0  0  0  0  0  0  0  0
    8.7822  -14.4132   20.4572 C   0  0  2  0  0  0  0  0  0  0  0  0
    9.5626  -14.2482   19.2648 N   0  0  0  0  0  0  0  0  0  0  0  0
    9.2171  -15.6256   21.2064 C   0  0  0  0  0  0  0  0  0  0  0  0
    8.6076  -15.9385   22.2746 O   0  0  0  0  0  0  0  0  0  0  0  0
   10.2806  -16.4711   20.8157 N   0  0  0  0  0  0  0  0  0  0  0  0
   10.8023  -17.5605   21.5922 C   0  0  1  0  0  0  0  0  0  0  0  0
   11.7448  -18.4223   20.7327 C   0  0  0  0  0  0  0  0  0  0  0  0
   11.0053  -19.0344   19.6231 C   0  0  0  0  0  0  0  0  0  0  0  0
   10.1262  -20.0736   19.6078 C   0  0  0  0  0  0  0  0  0  0  0  0
    9.7331  -20.2732   18.3223 N   0  0  0  0  0  0  0  0  0  0  0  0
   10.3589  -19.3676   17.5388 C   0  0  0  0  0  0  0  0  0  0  0  0
   11.1387  -18.6076   18.3442 N   0  0  0  0  0  0  0  0  0  0  0  0
   11.4728  -17.1228   22.8561 C   0  0  0  0  0  0  0  0  0  0  0  0
   12.5285  -16.4532   22.8963 O   0  0  0  0  0  0  0  0  0  0  0  0
   10.4604  -14.2675   31.2078 O   0  0  0  0  0  0  0  0  0  0  0  0
   10.3167  -14.7003   29.8871 C   0  0  0  0  0  0  0  0  0  0  0  0
   10.2594  -13.8142   28.8308 C   0  0  0  0  0  0  0  0  0  0  0  0
   10.1198  -14.2786   27.5539 C   0  0  0  0  0  0  0  0  0  0  0  0
   10.0251  -15.6329   27.2123 C   0  0  0  0  0  0  0  0  0  0  0  0
    9.8651  -16.1179   25.8363 C   0  0  0  0  0  0  0  0  0  0  0  0
   11.1203  -16.7724   25.3531 C   0  0  2  0  0  0  0  0  0  0  0  0
   10.8946  -17.4762   24.0942 N   0  0  0  0  0  0  0  0  0  0  0  0
   11.5675  -17.7694   26.3273 C   0  0  0  0  0  0  0  0  0  0  0  0
   12.0915  -17.4091   27.3971 O   0  0  0  0  0  0  0  0  0  0  0  0
   10.0883  -16.4883   28.3185 C   0  0  0  0  0  0  0  0  0  0  0  0
   10.2276  -16.0389   29.5950 C   0  0  0  0  0  0  0  0  0  0  0  0
   11.4210  -19.1244   26.0828 O   0  0  0  0  0  0  0  0  0  0  0  0
  2  1  1  0
  3  2  1  0
  4  3  1  0
  5  4  1  0
  5  6  1  6
  7  5  1  0
  7  8  2  0
  9  7  1  0
 10  9  1  0
 10 11  1  6
 12 11  1  0
 12 16  1  0
 13 12  2  0
 14 13  1  0
 14 15  1  0
 15 16  2  0
 17 10  1  0
 18 17  2  0
 19 20  1  0
 20 21  2  0
 20 30  1  0
 21 22  1  0
 22 23  2  0
 23 24  1  0
 25 24  1  1
 25 26  1  0
 25 27  1  0
 26 17  1  0
 27 31  1  0
 28 27  2  0
 29 23  1  0
 30 29  2  0
M  END
$$$$
