YLV.pdb
     RDKit          3D

 28 28  0  0  1  0  0  0  0  0999 V2000
    4.3264  -23.0908   27.3754 O   0  0  0  0  0  0  0  0  0  0  0  0
    5.2626  -22.1576   26.9374 C   0  0  0  0  0  0  0  0  0  0  0  0
    6.2432  -21.7286   27.7955 C   0  0  0  0  0  0  0  0  0  0  0  0
    7.1641  -20.8071   27.3563 C   0  0  0  0  0  0  0  0  0  0  0  0
    7.0972  -20.3210   26.0603 C   0  0  0  0  0  0  0  0  0  0  0  0
    8.0945  -19.3274   25.5950 C   0  0  0  0  0  0  0  0  0  0  0  0
    7.6051  -18.6023   24.3548 C   0  0  2  0  0  0  0  0  0  0  0  0
    7.8080  -19.4680   23.2111 N   0  0  0  0  0  0  0  0  0  0  0  0
    8.4303  -17.3519   24.2217 C   0  0  0  0  0  0  0  0  0  0  0  0
    9.5006  -17.3712   23.5763 O   0  0  0  0  0  0  0  0  0  0  0  0
    6.1155  -20.7527   25.2066 C   0  0  0  0  0  0  0  0  0  0  0  0
    5.1866  -21.6796   25.6435 C   0  0  0  0  0  0  0  0  0  0  0  0
    5.8422  -13.9531   23.5710 C   0  0  0  0  0  0  0  0  0  0  0  0
    6.4223  -14.1478   24.9665 C   0  0  2  0  0  0  0  0  0  0  0  0
    5.6624  -13.2323   25.8937 C   0  0  0  0  0  0  0  0  0  0  0  0
    7.8704  -13.7502   24.9018 C   0  0  0  0  0  0  0  0  0  0  0  0
    8.8004  -14.9087   24.6712 C   0  0  2  0  0  0  0  0  0  0  0  0
    8.0138  -16.1425   24.8193 N   0  0  0  0  0  0  0  0  0  0  0  0
    9.9096  -14.9738   25.6363 C   0  0  0  0  0  0  0  0  0  0  0  0
   10.7748  -14.0683   25.7523 O   0  0  0  0  0  0  0  0  0  0  0  0
   10.6958  -13.6613   27.7553 C   0  0  0  0  0  0  0  0  0  0  0  0
   10.8314  -14.9359   28.5550 C   0  0  1  0  0  0  0  0  0  0  0  0
    9.6857  -15.1470   29.4945 C   0  0  0  0  0  0  0  0  0  0  0  0
   11.0280  -16.0929   27.6020 C   0  0  2  0  0  0  0  0  0  0  0  0
   10.0816  -16.0964   26.5265 N   0  0  0  0  0  0  0  0  0  0  0  0
   11.0678  -17.3798   28.3373 C   0  0  0  0  0  0  0  0  0  0  0  0
   11.9319  -17.6662   29.3809 O   0  0  0  0  0  0  0  0  0  0  0  0
   10.2596  -18.2741   27.9880 O   0  0  0  0  0  0  0  0  0  0  0  0
  2  1  1  0
  3  2  2  0
  4  3  1  0
  5  4  2  0
  5 11  1  0
  6  5  1  0
  7  9  1  0
  7  6  1  0
  7  8  1  6
  9 18  1  0
 10  9  2  0
 11 12  2  0
 12  2  1  0
 14 13  1  6
 14 15  1  0
 17 16  1  1
 16 14  1  0
 18 17  1  0
 19 17  1  0
 19 20  2  0
 22 21  1  6
 22 24  1  0
 23 22  1  0
 24 25  1  6
 24 26  1  0
 25 19  1  0
 26 27  1  0
 28 26  2  0
M  END
$$$$
