YLV.pdb
     RDKit          3D

 28 28  0  0  1  0  0  0  0  0999 V2000
    6.5352  -10.5977   26.6408 O   0  0  0  0  0  0  0  0  0  0  0  0
    6.5851  -11.9681   26.3979 C   0  0  0  0  0  0  0  0  0  0  0  0
    5.5749  -12.7743   26.8580 C   0  0  0  0  0  0  0  0  0  0  0  0
    5.6309  -14.1261   26.6144 C   0  0  0  0  0  0  0  0  0  0  0  0
    6.6981  -14.6623   25.9116 C   0  0  0  0  0  0  0  0  0  0  0  0
    6.7502  -16.1214   25.6535 C   0  0  0  0  0  0  0  0  0  0  0  0
    6.2766  -16.4445   24.2483 C   0  0  2  0  0  0  0  0  0  0  0  0
    5.6219  -17.7366   24.2741 N   0  0  0  0  0  0  0  0  0  0  0  0
    7.4981  -16.4905   23.3720 C   0  0  0  0  0  0  0  0  0  0  0  0
    8.2110  -17.5168   23.3411 O   0  0  0  0  0  0  0  0  0  0  0  0
    7.7050  -13.8526   25.4540 C   0  0  0  0  0  0  0  0  0  0  0  0
    7.6536  -12.4919   25.6963 C   0  0  0  0  0  0  0  0  0  0  0  0
    7.6730  -12.3001   20.1356 C   0  0  0  0  0  0  0  0  0  0  0  0
    7.7454  -13.8180   20.2484 C   0  0  2  0  0  0  0  0  0  0  0  0
    6.5936  -14.2528   21.1200 C   0  0  0  0  0  0  0  0  0  0  0  0
    9.0574  -14.1496   20.9030 C   0  0  0  0  0  0  0  0  0  0  0  0
    9.0294  -15.4332   21.6852 C   0  0  2  0  0  0  0  0  0  0  0  0
    7.8589  -15.3831   22.5741 N   0  0  0  0  0  0  0  0  0  0  0  0
   10.2175  -15.6330   22.5305 C   0  0  0  0  0  0  0  0  0  0  0  0
   10.9457  -14.6878   22.9283 O   0  0  0  0  0  0  0  0  0  0  0  0
   13.0935  -18.5203   25.3169 C   0  0  0  0  0  0  0  0  0  0  0  0
   11.7221  -18.2104   24.7640 C   0  0  1  0  0  0  0  0  0  0  0  0
   10.7527  -17.8062   25.8301 C   0  0  0  0  0  0  0  0  0  0  0  0
   11.8576  -17.1736   23.6720 C   0  0  2  0  0  0  0  0  0  0  0  0
   10.6326  -16.9447   22.9655 N   0  0  0  0  0  0  0  0  0  0  0  0
   12.9884  -17.5024   22.7711 C   0  0  0  0  0  0  0  0  0  0  0  0
   14.3048  -17.1315   22.9888 O   0  0  0  0  0  0  0  0  0  0  0  0
   12.7334  -18.1650   21.7363 O   0  0  0  0  0  0  0  0  0  0  0  0
  2  1  1  0
  3  2  2  0
  4  3  1  0
  5  4  2  0
  5 11  1  0
  6  5  1  0
  7  9  1  0
  7  6  1  0
  7  8  1  1
  9 18  1  0
 10  9  2  0
 11 12  2  0
 12  2  1  0
 14 13  1  1
 14 15  1  0
 17 16  1  1
 16 14  1  0
 18 17  1  0
 19 17  1  0
 19 20  2  0
 22 21  1  1
 22 24  1  0
 23 22  1  0
 24 25  1  6
 24 26  1  0
 25 19  1  0
 26 27  1  0
 28 26  2  0
M  END
$$$$
