YLV.pdb
     RDKit          3D

 28 28  0  0  1  0  0  0  0  0999 V2000
    7.3312  -14.1367   15.4495 O   0  0  0  0  0  0  0  0  0  0  0  0
    7.6476  -14.0684   16.8040 C   0  0  0  0  0  0  0  0  0  0  0  0
    7.3626  -12.9266   17.5090 C   0  0  0  0  0  0  0  0  0  0  0  0
    7.6777  -12.8664   18.8458 C   0  0  0  0  0  0  0  0  0  0  0  0
    8.2764  -13.9501   19.4684 C   0  0  0  0  0  0  0  0  0  0  0  0
    8.6129  -13.8764   20.9105 C   0  0  0  0  0  0  0  0  0  0  0  0
    8.6117  -15.2562   21.5425 C   0  0  2  0  0  0  0  0  0  0  0  0
    7.2884  -15.8260   21.3900 N   0  0  0  0  0  0  0  0  0  0  0  0
    8.9417  -15.0736   22.9985 C   0  0  0  0  0  0  0  0  0  0  0  0
   10.1271  -14.9056   23.3578 O   0  0  0  0  0  0  0  0  0  0  0  0
    8.5593  -15.0888   18.7596 C   0  0  0  0  0  0  0  0  0  0  0  0
    8.2443  -15.1546   17.4146 C   0  0  0  0  0  0  0  0  0  0  0  0
    8.2224  -12.1871   26.5597 C   0  0  0  0  0  0  0  0  0  0  0  0
    7.0276  -12.7921   25.8328 C   0  0  2  0  0  0  0  0  0  0  0  0
    5.7862  -12.1963   26.4488 C   0  0  0  0  0  0  0  0  0  0  0  0
    7.0735  -14.2761   26.0677 C   0  0  0  0  0  0  0  0  0  0  0  0
    8.2435  -14.9515   25.4080 C   0  0  2  0  0  0  0  0  0  0  0  0
    7.9257  -15.0885   23.9786 N   0  0  0  0  0  0  0  0  0  0  0  0
    8.5159  -16.2999   25.9310 C   0  0  0  0  0  0  0  0  0  0  0  0
    7.6298  -17.1848   26.0472 O   0  0  0  0  0  0  0  0  0  0  0  0
   12.4036  -17.8623   25.7127 C   0  0  0  0  0  0  0  0  0  0  0  0
   11.1399  -18.6897   25.7382 C   0  0  1  0  0  0  0  0  0  0  0  0
   11.4045  -20.1298   26.0481 C   0  0  0  0  0  0  0  0  0  0  0  0
   10.1587  -18.0551   26.6974 C   0  0  2  0  0  0  0  0  0  0  0  0
    9.8362  -16.7028   26.3514 N   0  0  0  0  0  0  0  0  0  0  0  0
   10.6259  -18.1948   28.0976 C   0  0  0  0  0  0  0  0  0  0  0  0
   10.7756  -19.3998   28.7633 O   0  0  0  0  0  0  0  0  0  0  0  0
   10.9059  -17.1442   28.7245 O   0  0  0  0  0  0  0  0  0  0  0  0
  2  1  1  0
  3  2  2  0
  4  3  1  0
  5  4  2  0
  5 11  1  0
  6  5  1  0
  7  9  1  0
  7  6  1  0
  7  8  1  1
  9 18  1  0
 10  9  2  0
 11 12  2  0
 12  2  1  0
 14 13  1  1
 14 15  1  0
 17 16  1  1
 16 14  1  0
 18 17  1  0
 19 17  1  0
 19 20  2  0
 22 21  1  1
 22 24  1  0
 23 22  1  0
 24 25  1  6
 24 26  1  0
 25 19  1  0
 26 27  1  0
 28 26  2  0
M  END
$$$$
