YLV.pdb
     RDKit          3D

 28 28  0  0  1  0  0  0  0  0999 V2000
    6.9454  -21.0212   18.5125 O   0  0  0  0  0  0  0  0  0  0  0  0
    7.4063  -20.2182   19.5528 C   0  0  0  0  0  0  0  0  0  0  0  0
    8.7474  -19.9484   19.6565 C   0  0  0  0  0  0  0  0  0  0  0  0
    9.1951  -19.1549   20.6860 C   0  0  0  0  0  0  0  0  0  0  0  0
    8.2970  -18.6365   21.6053 C   0  0  0  0  0  0  0  0  0  0  0  0
    8.7887  -17.7816   22.7125 C   0  0  0  0  0  0  0  0  0  0  0  0
    8.6821  -16.3104   22.3550 C   0  0  2  0  0  0  0  0  0  0  0  0
    9.6324  -16.0284   21.2985 N   0  0  0  0  0  0  0  0  0  0  0  0
    9.0256  -15.5305   23.5942 C   0  0  0  0  0  0  0  0  0  0  0  0
   10.2026  -15.1631   23.7994 O   0  0  0  0  0  0  0  0  0  0  0  0
    6.9579  -18.9089   21.4974 C   0  0  0  0  0  0  0  0  0  0  0  0
    6.5023  -19.7067   20.4636 C   0  0  0  0  0  0  0  0  0  0  0  0
    7.7336  -11.5766   25.1877 C   0  0  0  0  0  0  0  0  0  0  0  0
    6.6832  -12.6806   25.1906 C   0  0  2  0  0  0  0  0  0  0  0  0
    5.3817  -12.0526   25.6228 C   0  0  0  0  0  0  0  0  0  0  0  0
    7.1295  -13.7115   26.1895 C   0  0  0  0  0  0  0  0  0  0  0  0
    8.3630  -14.4603   25.7677 C   0  0  2  0  0  0  0  0  0  0  0  0
    8.0317  -15.2016   24.5414 N   0  0  0  0  0  0  0  0  0  0  0  0
    8.8263  -15.4395   26.7640 C   0  0  0  0  0  0  0  0  0  0  0  0
    9.0981  -15.1347   27.9535 O   0  0  0  0  0  0  0  0  0  0  0  0
    7.3211  -18.8894   27.5761 C   0  0  0  0  0  0  0  0  0  0  0  0
    8.7914  -19.1173   27.3141 C   0  0  1  0  0  0  0  0  0  0  0  0
    9.0380  -19.8500   26.0327 C   0  0  0  0  0  0  0  0  0  0  0  0
    9.5112  -17.7893   27.3771 C   0  0  2  0  0  0  0  0  0  0  0  0
    9.0022  -16.8342   26.4385 N   0  0  0  0  0  0  0  0  0  0  0  0
   10.9776  -17.9794   27.2665 C   0  0  0  0  0  0  0  0  0  0  0  0
   11.7388  -18.7611   28.1192 O   0  0  0  0  0  0  0  0  0  0  0  0
   11.5713  -17.3886   26.3319 O   0  0  0  0  0  0  0  0  0  0  0  0
  2  1  1  0
  3  2  2  0
  4  3  1  0
  5  4  2  0
  5 11  1  0
  6  5  1  0
  7  9  1  0
  7  6  1  0
  7  8  1  6
  9 18  1  0
 10  9  2  0
 11 12  2  0
 12  2  1  0
 14 13  1  1
 14 15  1  0
 17 16  1  1
 16 14  1  0
 18 17  1  0
 19 17  1  0
 19 20  2  0
 22 21  1  6
 22 24  1  0
 23 22  1  0
 24 25  1  6
 24 26  1  0
 25 19  1  0
 26 27  1  0
 28 26  2  0
M  END
$$$$
