YLV.pdb
     RDKit          3D

 28 28  0  0  1  0  0  0  0  0999 V2000
    6.4992  -23.1249   27.3816 O   0  0  0  0  0  0  0  0  0  0  0  0
    6.7482  -21.8763   26.8174 C   0  0  0  0  0  0  0  0  0  0  0  0
    6.0402  -21.4799   25.7113 C   0  0  0  0  0  0  0  0  0  0  0  0
    6.2915  -20.2460   25.1597 C   0  0  0  0  0  0  0  0  0  0  0  0
    7.2502  -19.4165   25.7194 C   0  0  0  0  0  0  0  0  0  0  0  0
    7.5146  -18.0873   25.1180 C   0  0  0  0  0  0  0  0  0  0  0  0
    7.8210  -18.2096   23.6366 C   0  0  2  0  0  0  0  0  0  0  0  0
    8.7767  -19.2833   23.4562 N   0  0  0  0  0  0  0  0  0  0  0  0
    8.4139  -16.8981   23.2002 C   0  0  0  0  0  0  0  0  0  0  0  0
    9.6532  -16.7722   23.0969 O   0  0  0  0  0  0  0  0  0  0  0  0
    7.9550  -19.8171   26.8247 C   0  0  0  0  0  0  0  0  0  0  0  0
    7.7062  -21.0575   27.3835 C   0  0  0  0  0  0  0  0  0  0  0  0
    8.5305  -14.1103   19.6242 C   0  0  0  0  0  0  0  0  0  0  0  0
    7.1509  -14.3605   20.2209 C   0  0  2  0  0  0  0  0  0  0  0  0
    6.1573  -13.6105   19.3692 C   0  0  0  0  0  0  0  0  0  0  0  0
    7.1688  -13.8103   21.6197 C   0  0  0  0  0  0  0  0  0  0  0  0
    8.1601  -14.4937   22.5200 C   0  0  2  0  0  0  0  0  0  0  0  0
    7.5871  -15.7934   22.9014 N   0  0  0  0  0  0  0  0  0  0  0  0
    8.4369  -13.7520   23.7606 C   0  0  0  0  0  0  0  0  0  0  0  0
    8.7387  -12.5312   23.7796 O   0  0  0  0  0  0  0  0  0  0  0  0
    7.3886  -11.8619   27.6560 C   0  0  0  0  0  0  0  0  0  0  0  0
    7.3078  -12.5805   26.3295 C   0  0  1  0  0  0  0  0  0  0  0  0
    7.3653  -11.6419   25.1652 C   0  0  0  0  0  0  0  0  0  0  0  0
    8.3846  -13.6405   26.2808 C   0  0  2  0  0  0  0  0  0  0  0  0
    8.3799  -14.3842   25.0564 N   0  0  0  0  0  0  0  0  0  0  0  0
    8.3237  -14.5086   27.4814 C   0  0  0  0  0  0  0  0  0  0  0  0
    8.4479  -14.0613   28.7860 O   0  0  0  0  0  0  0  0  0  0  0  0
    8.1466  -15.7379   27.3013 O   0  0  0  0  0  0  0  0  0  0  0  0
  2  1  1  0
  3  2  2  0
  4  3  1  0
  5  4  2  0
  5 11  1  0
  6  5  1  0
  7  9  1  0
  7  6  1  0
  7  8  1  1
  9 18  1  0
 10  9  2  0
 11 12  2  0
 12  2  1  0
 14 13  1  6
 14 15  1  0
 17 16  1  6
 16 14  1  0
 18 17  1  0
 19 17  1  0
 19 20  2  0
 22 21  1  1
 22 24  1  0
 23 22  1  0
 24 25  1  6
 24 26  1  0
 25 19  1  0
 26 27  1  0
 28 26  2  0
M  END
$$$$
