YLV.pdb
     RDKit          3D

 28 28  0  0  1  0  0  0  0  0999 V2000
   10.2916  -20.4518   29.0457 O   0  0  0  0  0  0  0  0  0  0  0  0
    9.2877  -19.8894   28.2612 C   0  0  0  0  0  0  0  0  0  0  0  0
    8.9329  -18.5783   28.4536 C   0  0  0  0  0  0  0  0  0  0  0  0
    7.9410  -18.0298   27.6755 C   0  0  0  0  0  0  0  0  0  0  0  0
    7.3107  -18.7978   26.7095 C   0  0  0  0  0  0  0  0  0  0  0  0
    6.2420  -18.1981   25.8748 C   0  0  0  0  0  0  0  0  0  0  0  0
    6.2838  -18.7441   24.4593 C   0  0  2  0  0  0  0  0  0  0  0  0
    6.7139  -20.1263   24.5167 N   0  0  0  0  0  0  0  0  0  0  0  0
    7.2797  -17.9140   23.6968 C   0  0  0  0  0  0  0  0  0  0  0  0
    8.3505  -18.4234   23.3014 O   0  0  0  0  0  0  0  0  0  0  0  0
    7.6688  -20.1075   26.5210 C   0  0  0  0  0  0  0  0  0  0  0  0
    8.6660  -20.6641   27.3011 C   0  0  0  0  0  0  0  0  0  0  0  0
    7.4701  -12.2382   21.3503 C   0  0  0  0  0  0  0  0  0  0  0  0
    8.1829  -13.5840   21.4046 C   0  0  2  0  0  0  0  0  0  0  0  0
    8.3535  -14.0526   19.9810 C   0  0  0  0  0  0  0  0  0  0  0  0
    7.2919  -14.5246   22.1669 C   0  0  0  0  0  0  0  0  0  0  0  0
    8.0161  -15.7209   22.7191 C   0  0  2  0  0  0  0  0  0  0  0  0
    7.0246  -16.5541   23.4160 N   0  0  0  0  0  0  0  0  0  0  0  0
    9.0652  -15.3761   23.6919 C   0  0  0  0  0  0  0  0  0  0  0  0
   10.2096  -14.9762   23.3569 O   0  0  0  0  0  0  0  0  0  0  0  0
    7.8367  -14.3441   27.5517 C   0  0  0  0  0  0  0  0  0  0  0  0
    9.0672  -13.7824   26.8788 C   0  0  1  0  0  0  0  0  0  0  0  0
   10.0022  -13.1294   27.8478 C   0  0  0  0  0  0  0  0  0  0  0  0
    9.7288  -14.8787   26.0750 C   0  0  2  0  0  0  0  0  0  0  0  0
    8.8484  -15.4751   25.1151 N   0  0  0  0  0  0  0  0  0  0  0  0
   10.3656  -15.8758   26.9687 C   0  0  0  0  0  0  0  0  0  0  0  0
   11.3041  -15.5775   27.9425 O   0  0  0  0  0  0  0  0  0  0  0  0
   10.0293  -17.0772   26.8323 O   0  0  0  0  0  0  0  0  0  0  0  0
  2  1  1  0
  3  2  2  0
  4  3  1  0
  5  4  2  0
  5 11  1  0
  6  5  1  0
  7  9  1  0
  7  6  1  0
  7  8  1  1
  9 18  1  0
 10  9  2  0
 11 12  2  0
 12  2  1  0
 14 13  1  6
 14 15  1  0
 17 16  1  1
 16 14  1  0
 18 17  1  0
 19 17  1  0
 19 20  2  0
 22 21  1  1
 22 24  1  0
 23 22  1  0
 24 25  1  1
 24 26  1  0
 25 19  1  0
 26 27  1  0
 28 26  2  0
M  END
$$$$
