YLV.pdb
     RDKit          3D

 28 28  0  0  1  0  0  0  0  0999 V2000
   11.9060  -24.0254   25.8129 O   0  0  0  0  0  0  0  0  0  0  0  0
   11.7436  -22.6569   25.6124 C   0  0  0  0  0  0  0  0  0  0  0  0
   10.5579  -22.1822   25.1117 C   0  0  0  0  0  0  0  0  0  0  0  0
   10.4047  -20.8300   24.9164 C   0  0  0  0  0  0  0  0  0  0  0  0
   11.4400  -19.9616   25.2238 C   0  0  0  0  0  0  0  0  0  0  0  0
   11.2660  -18.5047   25.0101 C   0  0  0  0  0  0  0  0  0  0  0  0
   11.4602  -18.1402   23.5496 C   0  0  2  0  0  0  0  0  0  0  0  0
   12.8799  -18.1540   23.2615 N   0  0  0  0  0  0  0  0  0  0  0  0
   10.8983  -16.7577   23.3627 C   0  0  0  0  0  0  0  0  0  0  0  0
   11.6092  -15.7547   23.5889 O   0  0  0  0  0  0  0  0  0  0  0  0
   12.6228  -20.4408   25.7240 C   0  0  0  0  0  0  0  0  0  0  0  0
   12.7821  -21.8002   25.9223 C   0  0  0  0  0  0  0  0  0  0  0  0
    6.4941  -14.0081   20.2327 C   0  0  0  0  0  0  0  0  0  0  0  0
    7.4480  -13.8490   21.4104 C   0  0  2  0  0  0  0  0  0  0  0  0
    8.4899  -12.8373   21.0028 C   0  0  0  0  0  0  0  0  0  0  0  0
    8.0807  -15.1913   21.6501 C   0  0  0  0  0  0  0  0  0  0  0  0
    8.9721  -15.2262   22.8603 C   0  0  2  0  0  0  0  0  0  0  0  0
    9.5673  -16.5692   22.9315 N   0  0  0  0  0  0  0  0  0  0  0  0
    8.2566  -14.9926   24.1249 C   0  0  0  0  0  0  0  0  0  0  0  0
    7.7182  -15.9136   24.7912 O   0  0  0  0  0  0  0  0  0  0  0  0
    6.0334  -11.7559   27.1409 C   0  0  0  0  0  0  0  0  0  0  0  0
    7.0995  -11.9293   26.0847 C   0  0  1  0  0  0  0  0  0  0  0  0
    8.3635  -11.2025   26.4221 C   0  0  0  0  0  0  0  0  0  0  0  0
    7.3186  -13.4064   25.8485 C   0  0  2  0  0  0  0  0  0  0  0  0
    8.1228  -13.6731   24.6934 N   0  0  0  0  0  0  0  0  0  0  0  0
    6.0268  -14.1341   25.8306 C   0  0  0  0  0  0  0  0  0  0  0  0
    5.3706  -14.6054   26.9553 O   0  0  0  0  0  0  0  0  0  0  0  0
    5.4897  -14.3374   24.7147 O   0  0  0  0  0  0  0  0  0  0  0  0
  2  1  1  0
  3  2  2  0
  4  3  1  0
  5  4  2  0
  5 11  1  0
  6  5  1  0
  7  9  1  0
  7  6  1  0
  7  8  1  1
  9 18  1  0
 10  9  2  0
 11 12  2  0
 12  2  1  0
 14 13  1  6
 14 15  1  0
 17 16  1  6
 16 14  1  0
 18 17  1  0
 19 17  1  0
 19 20  2  0
 22 21  1  1
 22 24  1  0
 23 22  1  0
 24 25  1  6
 24 26  1  0
 25 19  1  0
 26 27  1  0
 28 26  2  0
M  END
$$$$
