YLV.pdb
     RDKit          3D

 28 28  0  0  1  0  0  0  0  0999 V2000
    6.8978  -13.1894   16.5753 O   0  0  0  0  0  0  0  0  0  0  0  0
    7.3786  -13.8444   17.7064 C   0  0  0  0  0  0  0  0  0  0  0  0
    8.4690  -13.3398   18.3685 C   0  0  0  0  0  0  0  0  0  0  0  0
    8.9380  -13.9918   19.4843 C   0  0  0  0  0  0  0  0  0  0  0  0
    8.3121  -15.1450   19.9301 C   0  0  0  0  0  0  0  0  0  0  0  0
    8.8248  -15.8416   21.1344 C   0  0  0  0  0  0  0  0  0  0  0  0
    9.9406  -15.0489   21.7901 C   0  0  2  0  0  0  0  0  0  0  0  0
   11.1953  -15.7221   21.5234 N   0  0  0  0  0  0  0  0  0  0  0  0
    9.6572  -15.0292   23.2671 C   0  0  0  0  0  0  0  0  0  0  0  0
   10.4272  -15.6097   24.0624 O   0  0  0  0  0  0  0  0  0  0  0  0
    7.2229  -15.6452   19.2651 C   0  0  0  0  0  0  0  0  0  0  0  0
    6.7470  -14.9932   18.1420 C   0  0  0  0  0  0  0  0  0  0  0  0
    5.7421  -11.8243   26.7813 C   0  0  0  0  0  0  0  0  0  0  0  0
    6.9607  -12.7391   26.7970 C   0  0  2  0  0  0  0  0  0  0  0  0
    8.0770  -11.9783   27.4681 C   0  0  0  0  0  0  0  0  0  0  0  0
    7.3093  -13.0342   25.3649 C   0  0  0  0  0  0  0  0  0  0  0  0
    8.3994  -14.0583   25.2121 C   0  0  2  0  0  0  0  0  0  0  0  0
    8.5242  -14.3595   23.7780 N   0  0  0  0  0  0  0  0  0  0  0  0
    8.1180  -15.3250   25.9066 C   0  0  0  0  0  0  0  0  0  0  0  0
    7.9672  -15.4079   27.1525 O   0  0  0  0  0  0  0  0  0  0  0  0
    5.7906  -18.3015   24.5232 C   0  0  0  0  0  0  0  0  0  0  0  0
    7.1164  -18.8567   24.9883 C   0  0  1  0  0  0  0  0  0  0  0  0
    7.9758  -19.3150   23.8519 C   0  0  0  0  0  0  0  0  0  0  0  0
    7.7989  -17.8275   25.8605 C   0  0  2  0  0  0  0  0  0  0  0  0
    7.9946  -16.5742   25.1949 N   0  0  0  0  0  0  0  0  0  0  0  0
    9.0505  -18.3736   26.4382 C   0  0  0  0  0  0  0  0  0  0  0  0
    9.1308  -19.5278   27.1993 O   0  0  0  0  0  0  0  0  0  0  0  0
   10.1140  -17.7436   26.2213 O   0  0  0  0  0  0  0  0  0  0  0  0
  2  1  1  0
  3  2  2  0
  4  3  1  0
  5  4  2  0
  5 11  1  0
  6  5  1  0
  7  9  1  0
  7  6  1  0
  7  8  1  1
  9 18  1  0
 10  9  2  0
 11 12  2  0
 12  2  1  0
 14 13  1  6
 14 15  1  0
 17 16  1  6
 16 14  1  0
 18 17  1  0
 19 17  1  0
 19 20  2  0
 22 21  1  6
 22 24  1  0
 23 22  1  0
 24 25  1  6
 24 26  1  0
 25 19  1  0
 26 27  1  0
 28 26  2  0
M  END
$$$$
