YLV.pdb
     RDKit          3D

 28 28  0  0  1  0  0  0  0  0999 V2000
   17.2055  -15.7372   17.6852 O   0  0  0  0  0  0  0  0  0  0  0  0
   16.1198  -15.3644   18.4737 C   0  0  0  0  0  0  0  0  0  0  0  0
   15.6277  -14.0867   18.3874 C   0  0  0  0  0  0  0  0  0  0  0  0
   14.5557  -13.7258   19.1689 C   0  0  0  0  0  0  0  0  0  0  0  0
   13.9832  -14.6466   20.0319 C   0  0  0  0  0  0  0  0  0  0  0  0
   12.8274  -14.2486   20.8710 C   0  0  0  0  0  0  0  0  0  0  0  0
   11.5396  -14.8622   20.3527 C   0  0  2  0  0  0  0  0  0  0  0  0
   11.1434  -14.1472   19.1566 N   0  0  0  0  0  0  0  0  0  0  0  0
   10.5065  -14.6947   21.4329 C   0  0  0  0  0  0  0  0  0  0  0  0
   10.0377  -13.5635   21.6839 O   0  0  0  0  0  0  0  0  0  0  0  0
   14.4786  -15.9220   20.1145 C   0  0  0  0  0  0  0  0  0  0  0  0
   15.5569  -16.2903   19.3306 C   0  0  0  0  0  0  0  0  0  0  0  0
    6.5002  -15.3545   21.5252 C   0  0  0  0  0  0  0  0  0  0  0  0
    7.3308  -16.6320   21.5306 C   0  0  2  0  0  0  0  0  0  0  0  0
    6.3805  -17.7792   21.2934 C   0  0  0  0  0  0  0  0  0  0  0  0
    7.9622  -16.7419   22.8904 C   0  0  0  0  0  0  0  0  0  0  0  0
    8.9745  -15.6661   23.1699 C   0  0  2  0  0  0  0  0  0  0  0  0
   10.0510  -15.8043   22.1774 N   0  0  0  0  0  0  0  0  0  0  0  0
    9.5879  -15.7678   24.5038 C   0  0  0  0  0  0  0  0  0  0  0  0
   10.6705  -16.3708   24.7191 O   0  0  0  0  0  0  0  0  0  0  0  0
    9.7640  -14.2685   29.2255 C   0  0  0  0  0  0  0  0  0  0  0  0
    8.9563  -14.2627   27.9488 C   0  0  1  0  0  0  0  0  0  0  0  0
    8.7899  -12.8873   27.3827 C   0  0  0  0  0  0  0  0  0  0  0  0
    9.5837  -15.2275   26.9685 C   0  0  2  0  0  0  0  0  0  0  0  0
    8.9802  -15.1746   25.6704 N   0  0  0  0  0  0  0  0  0  0  0  0
    9.6208  -16.5992   27.5301 C   0  0  0  0  0  0  0  0  0  0  0  0
   10.4751  -17.0173   28.5367 O   0  0  0  0  0  0  0  0  0  0  0  0
    8.8194  -17.4421   27.0587 O   0  0  0  0  0  0  0  0  0  0  0  0
  2  1  1  0
  3  2  2  0
  4  3  1  0
  5  4  2  0
  5 11  1  0
  6  5  1  0
  7  9  1  0
  7  6  1  0
  7  8  1  6
  9 18  1  0
 10  9  2  0
 11 12  2  0
 12  2  1  0
 14 13  1  1
 14 15  1  0
 17 16  1  6
 16 14  1  0
 18 17  1  0
 19 17  1  0
 19 20  2  0
 22 21  1  1
 22 24  1  0
 23 22  1  0
 24 25  1  6
 24 26  1  0
 25 19  1  0
 26 27  1  0
 28 26  2  0
M  END
$$$$
