YLV.pdb
     RDKit          3D

 28 28  0  0  1  0  0  0  0  0999 V2000
    6.5273  -24.1843   28.7957 O   0  0  0  0  0  0  0  0  0  0  0  0
    6.8773  -22.9668   28.2174 C   0  0  0  0  0  0  0  0  0  0  0  0
    8.1954  -22.7001   27.9465 C   0  0  0  0  0  0  0  0  0  0  0  0
    8.5335  -21.4961   27.3755 C   0  0  0  0  0  0  0  0  0  0  0  0
    7.5493  -20.5665   27.0793 C   0  0  0  0  0  0  0  0  0  0  0  0
    7.9230  -19.2705   26.4635 C   0  0  0  0  0  0  0  0  0  0  0  0
    7.1417  -19.0281   25.1852 C   0  0  2  0  0  0  0  0  0  0  0  0
    7.5519  -20.0145   24.2066 N   0  0  0  0  0  0  0  0  0  0  0  0
    7.4885  -17.6427   24.7136 C   0  0  0  0  0  0  0  0  0  0  0  0
    8.3746  -17.4771   23.8476 O   0  0  0  0  0  0  0  0  0  0  0  0
    6.2336  -20.8376   27.3519 C   0  0  0  0  0  0  0  0  0  0  0  0
    5.8881  -22.0474   27.9262 C   0  0  0  0  0  0  0  0  0  0  0  0
    5.8911  -11.9487   26.4903 C   0  0  0  0  0  0  0  0  0  0  0  0
    6.9203  -12.7793   25.7335 C   0  0  2  0  0  0  0  0  0  0  0  0
    6.9725  -12.2432   24.3245 C   0  0  0  0  0  0  0  0  0  0  0  0
    6.4313  -14.2007   25.7399 C   0  0  0  0  0  0  0  0  0  0  0  0
    7.3542  -15.1553   25.0348 C   0  0  2  0  0  0  0  0  0  0  0  0
    6.8241  -16.5122   25.2368 N   0  0  0  0  0  0  0  0  0  0  0  0
    8.7303  -15.1366   25.5564 C   0  0  0  0  0  0  0  0  0  0  0  0
    9.7102  -14.7042   24.8971 O   0  0  0  0  0  0  0  0  0  0  0  0
   10.1121  -13.2414   28.1823 C   0  0  0  0  0  0  0  0  0  0  0  0
   10.4861  -14.6407   28.6119 C   0  0  1  0  0  0  0  0  0  0  0  0
    9.6863  -15.1124   29.7857 C   0  0  0  0  0  0  0  0  0  0  0  0
   10.3768  -15.5642   27.4199 C   0  0  2  0  0  0  0  0  0  0  0  0
    9.0522  -15.6199   26.8773 N   0  0  0  0  0  0  0  0  0  0  0  0
   10.9241  -16.9045   27.7402 C   0  0  0  0  0  0  0  0  0  0  0  0
   12.2184  -17.1468   28.1690 O   0  0  0  0  0  0  0  0  0  0  0  0
   10.1582  -17.8905   27.6134 O   0  0  0  0  0  0  0  0  0  0  0  0
  2  1  1  0
  3  2  2  0
  4  3  1  0
  5  4  2  0
  5 11  1  0
  6  5  1  0
  7  9  1  0
  7  6  1  0
  7  8  1  6
  9 18  1  0
 10  9  2  0
 11 12  2  0
 12  2  1  0
 14 13  1  1
 14 15  1  0
 17 16  1  1
 16 14  1  0
 18 17  1  0
 19 17  1  0
 19 20  2  0
 22 21  1  6
 22 24  1  0
 23 22  1  0
 24 25  1  1
 24 26  1  0
 25 19  1  0
 26 27  1  0
 28 26  2  0
M  END
$$$$
