YLV.pdb
     RDKit          3D

 28 28  0  0  1  0  0  0  0  0999 V2000
    7.3298  -11.8346   27.5742 O   0  0  0  0  0  0  0  0  0  0  0  0
    7.0336  -13.1178   27.1215 C   0  0  0  0  0  0  0  0  0  0  0  0
    7.6844  -14.1951   27.6672 C   0  0  0  0  0  0  0  0  0  0  0  0
    7.3868  -15.4590   27.2154 C   0  0  0  0  0  0  0  0  0  0  0  0
    6.4394  -15.6361   26.2198 C   0  0  0  0  0  0  0  0  0  0  0  0
    6.1247  -17.0028   25.7385 C   0  0  0  0  0  0  0  0  0  0  0  0
    6.0418  -17.0425   24.2236 C   0  0  2  0  0  0  0  0  0  0  0  0
    5.5908  -18.3607   23.8265 N   0  0  0  0  0  0  0  0  0  0  0  0
    7.4271  -16.7801   23.7001 C   0  0  0  0  0  0  0  0  0  0  0  0
    8.2367  -17.7228   23.5648 O   0  0  0  0  0  0  0  0  0  0  0  0
    5.7918  -14.5565   25.6776 C   0  0  0  0  0  0  0  0  0  0  0  0
    6.0874  -13.2829   26.1285 C   0  0  0  0  0  0  0  0  0  0  0  0
    8.4783  -14.8037   19.8372 C   0  0  0  0  0  0  0  0  0  0  0  0
    8.0158  -13.8507   20.9326 C   0  0  2  0  0  0  0  0  0  0  0  0
    7.9471  -12.4734   20.3214 C   0  0  0  0  0  0  0  0  0  0  0  0
    9.0513  -13.8942   22.0214 C   0  0  0  0  0  0  0  0  0  0  0  0
    9.1361  -15.2253   22.7152 C   0  0  2  0  0  0  0  0  0  0  0  0
    7.8351  -15.4735   23.3545 N   0  0  0  0  0  0  0  0  0  0  0  0
   10.1625  -15.2752   23.7687 C   0  0  0  0  0  0  0  0  0  0  0  0
   11.3943  -15.1768   23.5344 O   0  0  0  0  0  0  0  0  0  0  0  0
   10.3901  -13.1201   26.8105 C   0  0  0  0  0  0  0  0  0  0  0  0
   10.4741  -14.5313   27.3431 C   0  0  1  0  0  0  0  0  0  0  0  0
    9.2406  -14.9370   28.0872 C   0  0  0  0  0  0  0  0  0  0  0  0
   10.8035  -15.4663   26.2016 C   0  0  2  0  0  0  0  0  0  0  0  0
    9.8200  -15.4430   25.1603 N   0  0  0  0  0  0  0  0  0  0  0  0
   11.0773  -16.8343   26.7037 C   0  0  0  0  0  0  0  0  0  0  0  0
   12.1023  -17.1653   27.5741 O   0  0  0  0  0  0  0  0  0  0  0  0
   10.3250  -17.7589   26.3110 O   0  0  0  0  0  0  0  0  0  0  0  0
  2  1  1  0
  3  2  2  0
  4  3  1  0
  5  4  2  0
  5 11  1  0
  6  5  1  0
  7  9  1  0
  7  6  1  0
  7  8  1  1
  9 18  1  0
 10  9  2  0
 11 12  2  0
 12  2  1  0
 14 13  1  6
 14 15  1  0
 17 16  1  1
 16 14  1  0
 18 17  1  0
 19 17  1  0
 19 20  2  0
 22 21  1  6
 22 24  1  0
 23 22  1  0
 24 25  1  6
 24 26  1  0
 25 19  1  0
 26 27  1  0
 28 26  2  0
M  END
$$$$
