KGP.pdb
     RDKit          3D

 21 21  0  0  1  0  0  0  0  0999 V2000
   20.1549  -12.9696  -16.4505 N   0  0  0  0  0  0  0  0  0  0  0  0
   19.3458  -12.0682  -17.2019 C   0  0  1  0  0  0  0  0  0  0  0  0
   17.9108  -12.0613  -16.8218 C   0  0  0  0  0  0  0  0  0  0  0  0
   17.2541  -13.3709  -16.6122 C   0  0  0  0  0  0  0  0  0  0  0  0
   15.8050  -13.3083  -16.2223 C   0  0  0  0  0  0  0  0  0  0  0  0
   15.1730  -14.6806  -16.0748 C   0  0  0  0  0  0  0  0  0  0  0  0
   13.8229  -14.4769  -15.6029 N   0  0  0  0  0  0  0  0  0  0  0  0
   19.9347  -10.6896  -17.2606 C   0  0  0  0  0  0  0  0  0  0  0  0
   19.5205   -9.8097  -18.0588 O   0  0  0  0  0  0  0  0  0  0  0  0
   21.0054  -10.3058  -16.4038 N   0  0  0  0  0  0  0  0  0  0  0  0
   21.6240   -8.9984  -16.4743 C   0  0  0  0  0  0  0  0  0  0  0  0
   21.0322   -8.1056  -15.4157 C   0  0  0  0  0  0  0  0  0  0  0  0
   20.0762   -8.5291  -14.7139 O   0  0  0  0  0  0  0  0  0  0  0  0
   21.5624   -6.8013  -15.2272 N   0  0  0  0  0  0  0  0  0  0  0  0
   22.5995   -6.1791  -16.0233 C   0  0  0  0  0  0  0  0  0  0  0  0
   23.1254   -5.0219  -15.2349 C   0  0  0  0  0  0  0  0  0  0  0  0
   22.5151   -5.2188  -13.8625 C   0  0  0  0  0  0  0  0  0  0  0  0
   21.1751   -5.8552  -14.2181 C   0  0  1  0  0  0  0  0  0  0  0  0
   20.3196   -4.8029  -14.7906 C   0  0  0  0  0  0  0  0  0  0  0  0
   19.7005   -4.0372  -14.0107 O   0  0  0  0  0  0  0  0  0  0  0  0
   20.1707   -4.6240  -16.1540 O   0  0  0  0  0  0  0  0  0  0  0  0
  2  8  1  0
  2  1  1  1
  3  2  1  0
  4  3  1  0
  5  4  1  0
  6  5  1  0
  7  6  1  0
  8  9  2  0
 10  8  1  0
 10 11  1  0
 12 14  1  0
 12 11  1  0
 13 12  2  0
 14 18  1  0
 15 14  1  0
 15 16  1  0
 16 17  1  0
 18 19  1  6
 18 17  1  0
 19 21  1  0
 20 19  2  0
M  END
$$$$
