KGP.pdb
     RDKit          3D

 21 21  0  0  1  0  0  0  0  0999 V2000
   25.3776  -21.9292  -13.5384 N   0  0  0  0  0  0  0  0  0  0  0  0
   24.7357  -20.8972  -12.7937 C   0  0  1  0  0  0  0  0  0  0  0  0
   24.9314  -20.9814  -11.3245 C   0  0  0  0  0  0  0  0  0  0  0  0
   26.2696  -21.3827  -10.8363 C   0  0  0  0  0  0  0  0  0  0  0  0
   27.4302  -20.7461  -11.5458 C   0  0  0  0  0  0  0  0  0  0  0  0
   28.7729  -21.1581  -10.9698 C   0  0  0  0  0  0  0  0  0  0  0  0
   29.7917  -20.5983  -11.8275 N   0  0  0  0  0  0  0  0  0  0  0  0
   25.0350  -19.5321  -13.3392 C   0  0  0  0  0  0  0  0  0  0  0  0
   24.2255  -18.5734  -13.2466 O   0  0  0  0  0  0  0  0  0  0  0  0
   26.2667  -19.2524  -13.9968 N   0  0  0  0  0  0  0  0  0  0  0  0
   26.6268  -17.9195  -14.4338 C   0  0  0  0  0  0  0  0  0  0  0  0
   25.7287  -17.5040  -15.5690 C   0  0  0  0  0  0  0  0  0  0  0  0
   24.9051  -18.3319  -16.0402 O   0  0  0  0  0  0  0  0  0  0  0  0
   25.8263  -16.1856  -16.0887 N   0  0  0  0  0  0  0  0  0  0  0  0
   26.7679  -15.1700  -15.6665 C   0  0  0  0  0  0  0  0  0  0  0  0
   26.2484  -13.8562  -16.1576 C   0  0  0  0  0  0  0  0  0  0  0  0
   24.8437  -14.1798  -16.6233 C   0  0  0  0  0  0  0  0  0  0  0  0
   25.0158  -15.6099  -17.1256 C   0  0  1  0  0  0  0  0  0  0  0  0
   25.7581  -15.5502  -18.3954 C   0  0  0  0  0  0  0  0  0  0  0  0
   25.1686  -15.1257  -19.4202 O   0  0  0  0  0  0  0  0  0  0  0  0
   27.0796  -15.9434  -18.5045 O   0  0  0  0  0  0  0  0  0  0  0  0
  2  8  1  0
  2  1  1  6
  3  2  1  0
  4  3  1  0
  5  4  1  0
  6  5  1  0
  7  6  1  0
  8  9  2  0
 10  8  1  0
 10 11  1  0
 12 14  1  0
 12 11  1  0
 13 12  2  0
 14 18  1  0
 15 14  1  0
 15 16  1  0
 16 17  1  0
 18 19  1  6
 18 17  1  0
 19 21  1  0
 20 19  2  0
M  END
$$$$
