KGP.pdb
     RDKit          3D

 21 21  0  0  1  0  0  0  0  0999 V2000
   23.7023  -20.8326   -9.3380 N   0  0  0  0  0  0  0  0  0  0  0  0
   24.5912  -20.7932  -10.4517 C   0  0  1  0  0  0  0  0  0  0  0  0
   24.0512  -20.1024  -11.6497 C   0  0  0  0  0  0  0  0  0  0  0  0
   23.2570  -20.9095  -12.6027 C   0  0  0  0  0  0  0  0  0  0  0  0
   21.8903  -20.3720  -12.9172 C   0  0  0  0  0  0  0  0  0  0  0  0
   21.8095  -19.7299  -14.2903 C   0  0  0  0  0  0  0  0  0  0  0  0
   20.4335  -19.3410  -14.4959 N   0  0  0  0  0  0  0  0  0  0  0  0
   25.9582  -20.3063  -10.0710 C   0  0  0  0  0  0  0  0  0  0  0  0
   26.4109  -19.1950  -10.4491 O   0  0  0  0  0  0  0  0  0  0  0  0
   26.8207  -21.0898   -9.2523 N   0  0  0  0  0  0  0  0  0  0  0  0
   27.9219  -20.5113   -8.5108 C   0  0  0  0  0  0  0  0  0  0  0  0
   27.5380  -20.3845   -7.0600 C   0  0  0  0  0  0  0  0  0  0  0  0
   26.3282  -20.4961   -6.7289 O   0  0  0  0  0  0  0  0  0  0  0  0
   28.5472  -20.1413   -6.0904 N   0  0  0  0  0  0  0  0  0  0  0  0
   29.9552  -19.9357   -6.3581 C   0  0  0  0  0  0  0  0  0  0  0  0
   30.6833  -20.1391   -5.0674 C   0  0  0  0  0  0  0  0  0  0  0  0
   29.6313  -20.7353   -4.1548 C   0  0  0  0  0  0  0  0  0  0  0  0
   28.3670  -20.0532   -4.6680 C   0  0  1  0  0  0  0  0  0  0  0  0
   28.4053  -18.6504   -4.2233 C   0  0  0  0  0  0  0  0  0  0  0  0
   28.1784  -18.3936   -3.0148 O   0  0  0  0  0  0  0  0  0  0  0  0
   28.6814  -17.6037   -5.0842 O   0  0  0  0  0  0  0  0  0  0  0  0
  2  8  1  0
  2  1  1  1
  3  2  1  0
  4  3  1  0
  5  4  1  0
  6  5  1  0
  7  6  1  0
  8  9  2  0
 10  8  1  0
 10 11  1  0
 12 14  1  0
 12 11  1  0
 13 12  2  0
 14 18  1  0
 15 14  1  0
 15 16  1  0
 16 17  1  0
 18 19  1  1
 18 17  1  0
 19 21  1  0
 20 19  2  0
M  END
$$$$
