KGP.pdb
     RDKit          3D

 21 21  0  0  1  0  0  0  0  0999 V2000
   22.1674  -20.1256  -10.9756 N   0  0  0  0  0  0  0  0  0  0  0  0
   22.8760  -21.3561  -10.8513 C   0  0  1  0  0  0  0  0  0  0  0  0
   22.3588  -22.4564  -11.7033 C   0  0  0  0  0  0  0  0  0  0  0  0
   20.9433  -22.3822  -12.1289 C   0  0  0  0  0  0  0  0  0  0  0  0
   20.2152  -21.1323  -11.7246 C   0  0  0  0  0  0  0  0  0  0  0  0
   18.7789  -21.1004  -12.2148 C   0  0  0  0  0  0  0  0  0  0  0  0
   18.1909  -19.8753  -11.7247 N   0  0  0  0  0  0  0  0  0  0  0  0
   24.3594  -21.1735  -10.9808 C   0  0  0  0  0  0  0  0  0  0  0  0
   25.1839  -22.0536  -10.6221 O   0  0  0  0  0  0  0  0  0  0  0  0
   24.9128  -19.9789  -11.5234 N   0  0  0  0  0  0  0  0  0  0  0  0
   26.1093  -19.9798  -12.3391 C   0  0  0  0  0  0  0  0  0  0  0  0
   25.7244  -19.9344  -13.7944 C   0  0  0  0  0  0  0  0  0  0  0  0
   24.5307  -20.1612  -14.1252 O   0  0  0  0  0  0  0  0  0  0  0  0
   26.7144  -19.6366  -14.7686 N   0  0  0  0  0  0  0  0  0  0  0  0
   28.1291  -19.4555  -14.5191 C   0  0  0  0  0  0  0  0  0  0  0  0
   28.7013  -18.7591  -15.7128 C   0  0  0  0  0  0  0  0  0  0  0  0
   27.4776  -18.3271  -16.4941 C   0  0  0  0  0  0  0  0  0  0  0  0
   26.5047  -19.4589  -16.1785 C   0  0  1  0  0  0  0  0  0  0  0  0
   26.9465  -20.6479  -16.9255 C   0  0  0  0  0  0  0  0  0  0  0  0
   26.7487  -20.6903  -18.1652 O   0  0  0  0  0  0  0  0  0  0  0  0
   27.5712  -21.7208  -16.3157 O   0  0  0  0  0  0  0  0  0  0  0  0
  2  8  1  0
  2  1  1  6
  3  2  1  0
  4  3  1  0
  5  4  1  0
  6  5  1  0
  7  6  1  0
  8  9  2  0
 10  8  1  0
 10 11  1  0
 12 14  1  0
 12 11  1  0
 13 12  2  0
 14 18  1  0
 15 14  1  0
 15 16  1  0
 16 17  1  0
 18 19  1  6
 18 17  1  0
 19 21  1  0
 20 19  2  0
M  END
$$$$
