KGP.pdb
     RDKit          3D

 21 21  0  0  1  0  0  0  0  0999 V2000
   20.3319  -19.9823  -13.7309 N   0  0  0  0  0  0  0  0  0  0  0  0
   20.6564  -20.9830  -12.7692 C   0  0  1  0  0  0  0  0  0  0  0  0
   19.7513  -22.1598  -12.7716 C   0  0  0  0  0  0  0  0  0  0  0  0
   19.2425  -22.6265  -14.0806 C   0  0  0  0  0  0  0  0  0  0  0  0
   18.3500  -23.8334  -14.0300 C   0  0  0  0  0  0  0  0  0  0  0  0
   17.9933  -24.3626  -15.4074 C   0  0  0  0  0  0  0  0  0  0  0  0
   17.1127  -25.4912  -15.2127 N   0  0  0  0  0  0  0  0  0  0  0  0
   22.1055  -21.3685  -12.8166 C   0  0  0  0  0  0  0  0  0  0  0  0
   22.6255  -21.9259  -13.8175 O   0  0  0  0  0  0  0  0  0  0  0  0
   22.9736  -21.1185  -11.7157 N   0  0  0  0  0  0  0  0  0  0  0  0
   24.4030  -21.3378  -11.7906 C   0  0  0  0  0  0  0  0  0  0  0  0
   25.0213  -20.3095  -12.7007 C   0  0  0  0  0  0  0  0  0  0  0  0
   24.3219  -19.3451  -13.1087 O   0  0  0  0  0  0  0  0  0  0  0  0
   26.3826  -20.4452  -13.0831 N   0  0  0  0  0  0  0  0  0  0  0  0
   27.2602  -21.5436  -12.7369 C   0  0  0  0  0  0  0  0  0  0  0  0
   28.6619  -21.0797  -12.9764 C   0  0  0  0  0  0  0  0  0  0  0  0
   28.5105  -19.5896  -13.2030 C   0  0  0  0  0  0  0  0  0  0  0  0
   27.1455  -19.5260  -13.8810 C   0  0  1  0  0  0  0  0  0  0  0  0
   27.3050  -20.0344  -15.2532 C   0  0  0  0  0  0  0  0  0  0  0  0
   26.9623  -21.2168  -15.5028 O   0  0  0  0  0  0  0  0  0  0  0  0
   27.8177  -19.2610  -16.2789 O   0  0  0  0  0  0  0  0  0  0  0  0
  2  8  1  0
  2  1  1  6
  3  2  1  0
  4  3  1  0
  5  4  1  0
  6  5  1  0
  7  6  1  0
  8  9  2  0
 10  8  1  0
 10 11  1  0
 12 14  1  0
 12 11  1  0
 13 12  2  0
 14 18  1  0
 15 14  1  0
 15 16  1  0
 16 17  1  0
 18 19  1  6
 18 17  1  0
 19 21  1  0
 20 19  2  0
M  END
$$$$
