KGP.pdb
     RDKit          3D

 21 21  0  0  1  0  0  0  0  0999 V2000
   14.4071  -11.6635  -16.4275 N   0  0  0  0  0  0  0  0  0  0  0  0
   14.6647  -11.4047  -15.0496 C   0  0  1  0  0  0  0  0  0  0  0  0
   13.9230  -12.2793  -14.1068 C   0  0  0  0  0  0  0  0  0  0  0  0
   12.7392  -11.7040  -13.4301 C   0  0  0  0  0  0  0  0  0  0  0  0
   11.8881  -12.6867  -12.6778 C   0  0  0  0  0  0  0  0  0  0  0  0
   10.7677  -12.0225  -11.8982 C   0  0  0  0  0  0  0  0  0  0  0  0
    9.9638  -13.0789  -11.3284 N   0  0  0  0  0  0  0  0  0  0  0  0
   16.1330  -11.3434  -14.7475 C   0  0  0  0  0  0  0  0  0  0  0  0
   16.5844  -11.3702  -13.5734 O   0  0  0  0  0  0  0  0  0  0  0  0
   17.0991  -11.2507  -15.7896 N   0  0  0  0  0  0  0  0  0  0  0  0
   18.5007  -10.9990  -15.5268 C   0  0  0  0  0  0  0  0  0  0  0  0
   18.6854   -9.5590  -15.1262 C   0  0  0  0  0  0  0  0  0  0  0  0
   17.6722   -8.8425  -14.9117 O   0  0  0  0  0  0  0  0  0  0  0  0
   19.9989   -9.0340  -14.9972 N   0  0  0  0  0  0  0  0  0  0  0  0
   21.2290   -9.7237  -15.3254 C   0  0  0  0  0  0  0  0  0  0  0  0
   22.3417   -8.9838  -14.6533 C   0  0  0  0  0  0  0  0  0  0  0  0
   21.6234   -8.0280  -13.7231 C   0  0  0  0  0  0  0  0  0  0  0  0
   20.3578   -7.7276  -14.5199 C   0  0  1  0  0  0  0  0  0  0  0  0
   20.7337   -6.8484  -15.6392 C   0  0  0  0  0  0  0  0  0  0  0  0
   20.9571   -7.3634  -16.7629 O   0  0  0  0  0  0  0  0  0  0  0  0
   20.8505   -5.4771  -15.5021 O   0  0  0  0  0  0  0  0  0  0  0  0
  2  8  1  0
  2  1  1  6
  3  2  1  0
  4  3  1  0
  5  4  1  0
  6  5  1  0
  7  6  1  0
  8  9  2  0
 10  8  1  0
 10 11  1  0
 12 14  1  0
 12 11  1  0
 13 12  2  0
 14 18  1  0
 15 14  1  0
 15 16  1  0
 16 17  1  0
 18 19  1  6
 18 17  1  0
 19 21  1  0
 20 19  2  0
M  END
$$$$
