KGP.pdb
     RDKit          3D

 21 21  0  0  1  0  0  0  0  0999 V2000
   24.3177  -19.6345  -10.6518 N   0  0  0  0  0  0  0  0  0  0  0  0
   25.0503  -20.6517  -11.3303 C   0  0  1  0  0  0  0  0  0  0  0  0
   25.2291  -20.4188  -12.7856 C   0  0  0  0  0  0  0  0  0  0  0  0
   24.0181  -20.4510  -13.6356 C   0  0  0  0  0  0  0  0  0  0  0  0
   22.9806  -21.4617  -13.2384 C   0  0  0  0  0  0  0  0  0  0  0  0
   21.8166  -21.5270  -14.2107 C   0  0  0  0  0  0  0  0  0  0  0  0
   20.8387  -22.4251  -13.6412 N   0  0  0  0  0  0  0  0  0  0  0  0
   26.3379  -20.9842  -10.6359 C   0  0  0  0  0  0  0  0  0  0  0  0
   26.9572  -22.0609  -10.8368 O   0  0  0  0  0  0  0  0  0  0  0  0
   26.9288  -20.0848   -9.7033 N   0  0  0  0  0  0  0  0  0  0  0  0
   28.1507  -20.3980   -8.9920 C   0  0  0  0  0  0  0  0  0  0  0  0
   27.8134  -20.9085   -7.6159 C   0  0  0  0  0  0  0  0  0  0  0  0
   27.1439  -21.9684   -7.4969 O   0  0  0  0  0  0  0  0  0  0  0  0
   28.2561  -20.1855   -6.4761 N   0  0  0  0  0  0  0  0  0  0  0  0
   28.9616  -18.9212   -6.4892 C   0  0  0  0  0  0  0  0  0  0  0  0
   29.5851  -18.7507   -5.1404 C   0  0  0  0  0  0  0  0  0  0  0  0
   29.4136  -20.1099   -4.4939 C   0  0  0  0  0  0  0  0  0  0  0  0
   28.0906  -20.5664   -5.1010 C   0  0  1  0  0  0  0  0  0  0  0  0
   27.0162  -19.7837   -4.4686 C   0  0  0  0  0  0  0  0  0  0  0  0
   26.5125  -18.8250   -5.1052 O   0  0  0  0  0  0  0  0  0  0  0  0
   26.5393  -20.0623   -3.2006 O   0  0  0  0  0  0  0  0  0  0  0  0
  2  8  1  0
  2  1  1  1
  3  2  1  0
  4  3  1  0
  5  4  1  0
  6  5  1  0
  7  6  1  0
  8  9  2  0
 10  8  1  0
 10 11  1  0
 12 14  1  0
 12 11  1  0
 13 12  2  0
 14 18  1  0
 15 14  1  0
 15 16  1  0
 16 17  1  0
 18 19  1  1
 18 17  1  0
 19 21  1  0
 20 19  2  0
M  END
$$$$
