KGP.pdb
     RDKit          3D

 21 21  0  0  1  0  0  0  0  0999 V2000
   20.0484  -21.0506  -11.6516 N   0  0  0  0  0  0  0  0  0  0  0  0
   20.4642  -21.7094  -12.8453 C   0  0  1  0  0  0  0  0  0  0  0  0
   19.8953  -21.1435  -14.0944 C   0  0  0  0  0  0  0  0  0  0  0  0
   18.4361  -21.2778  -14.3016 C   0  0  0  0  0  0  0  0  0  0  0  0
   17.9021  -22.6794  -14.2237 C   0  0  0  0  0  0  0  0  0  0  0  0
   16.3973  -22.7496  -14.4110 C   0  0  0  0  0  0  0  0  0  0  0  0
   16.0039  -24.1188  -14.1709 N   0  0  0  0  0  0  0  0  0  0  0  0
   21.9535  -21.8772  -12.9129 C   0  0  0  0  0  0  0  0  0  0  0  0
   22.5369  -22.3460  -13.9242 O   0  0  0  0  0  0  0  0  0  0  0  0
   22.7894  -21.5088  -11.8205 N   0  0  0  0  0  0  0  0  0  0  0  0
   24.2310  -21.6375  -11.8699 C   0  0  0  0  0  0  0  0  0  0  0  0
   24.8092  -20.4983  -12.6673 C   0  0  0  0  0  0  0  0  0  0  0  0
   24.0804  -19.5121  -12.9540 O   0  0  0  0  0  0  0  0  0  0  0  0
   26.1665  -20.5558  -13.0821 N   0  0  0  0  0  0  0  0  0  0  0  0
   27.0546  -21.6904  -12.9391 C   0  0  0  0  0  0  0  0  0  0  0  0
   28.4506  -21.1815  -13.1107 C   0  0  0  0  0  0  0  0  0  0  0  0
   28.2879  -19.6758  -13.0767 C   0  0  0  0  0  0  0  0  0  0  0  0
   26.9144  -19.5075  -13.7188 C   0  0  1  0  0  0  0  0  0  0  0  0
   27.0603  -19.7718  -15.1595 C   0  0  0  0  0  0  0  0  0  0  0  0
   27.5916  -18.8938  -15.8838 O   0  0  0  0  0  0  0  0  0  0  0  0
   26.6351  -20.9494  -15.7473 O   0  0  0  0  0  0  0  0  0  0  0  0
  2  8  1  0
  2  1  1  1
  3  2  1  0
  4  3  1  0
  5  4  1  0
  6  5  1  0
  7  6  1  0
  8  9  2  0
 10  8  1  0
 10 11  1  0
 12 14  1  0
 12 11  1  0
 13 12  2  0
 14 18  1  0
 15 14  1  0
 15 16  1  0
 16 17  1  0
 18 19  1  6
 18 17  1  0
 19 21  1  0
 20 19  2  0
M  END
$$$$
