KGP.pdb
     RDKit          3D

 21 21  0  0  1  0  0  0  0  0999 V2000
   16.9438  -11.6936  -16.2490 N   0  0  0  0  0  0  0  0  0  0  0  0
   18.1590  -11.8255  -16.9821 C   0  0  1  0  0  0  0  0  0  0  0  0
   18.0038  -12.4147  -18.3359 C   0  0  0  0  0  0  0  0  0  0  0  0
   18.3068  -13.8549  -18.4922 C   0  0  0  0  0  0  0  0  0  0  0  0
   17.1111  -14.7629  -18.5298 C   0  0  0  0  0  0  0  0  0  0  0  0
   17.4831  -16.2222  -18.7208 C   0  0  0  0  0  0  0  0  0  0  0  0
   16.2495  -16.9734  -18.7521 N   0  0  0  0  0  0  0  0  0  0  0  0
   18.9573  -10.5554  -16.9928 C   0  0  0  0  0  0  0  0  0  0  0  0
   18.5457   -9.5015  -17.5430 O   0  0  0  0  0  0  0  0  0  0  0  0
   20.2368  -10.4810  -16.3721 N   0  0  0  0  0  0  0  0  0  0  0  0
   20.9871   -9.2452  -16.2887 C   0  0  0  0  0  0  0  0  0  0  0  0
   20.4154   -8.3842  -15.1933 C   0  0  0  0  0  0  0  0  0  0  0  0
   19.4495   -8.8146  -14.5095 O   0  0  0  0  0  0  0  0  0  0  0  0
   20.9756   -7.1017  -14.9503 N   0  0  0  0  0  0  0  0  0  0  0  0
   22.0701   -6.4969  -15.6802 C   0  0  0  0  0  0  0  0  0  0  0  0
   22.5913   -5.3734  -14.8416 C   0  0  0  0  0  0  0  0  0  0  0  0
   21.9071   -5.5784  -13.5057 C   0  0  0  0  0  0  0  0  0  0  0  0
   20.5676   -6.1643  -13.9411 C   0  0  1  0  0  0  0  0  0  0  0  0
   19.7749   -5.0738  -14.5321 C   0  0  0  0  0  0  0  0  0  0  0  0
   19.7762   -4.9342  -15.7805 O   0  0  0  0  0  0  0  0  0  0  0  0
   19.0284   -4.1964  -13.7666 O   0  0  0  0  0  0  0  0  0  0  0  0
  2  8  1  0
  2  1  1  6
  3  2  1  0
  4  3  1  0
  5  4  1  0
  6  5  1  0
  7  6  1  0
  8  9  2  0
 10  8  1  0
 10 11  1  0
 12 14  1  0
 12 11  1  0
 13 12  2  0
 14 18  1  0
 15 14  1  0
 15 16  1  0
 16 17  1  0
 18 19  1  6
 18 17  1  0
 19 21  1  0
 20 19  2  0
M  END
$$$$
