KGP.pdb
     RDKit          3D

 21 21  0  0  1  0  0  0  0  0999 V2000
   30.1588  -22.0782  -18.2303 N   0  0  0  0  0  0  0  0  0  0  0  0
   29.8248  -23.2932  -17.5640 C   0  0  1  0  0  0  0  0  0  0  0  0
   30.9877  -24.1486  -17.2176 C   0  0  0  0  0  0  0  0  0  0  0  0
   31.4792  -25.0843  -18.2535 C   0  0  0  0  0  0  0  0  0  0  0  0
   31.2111  -26.5377  -17.9862 C   0  0  0  0  0  0  0  0  0  0  0  0
   31.8504  -27.4550  -19.0130 C   0  0  0  0  0  0  0  0  0  0  0  0
   31.4547  -28.8040  -18.6805 N   0  0  0  0  0  0  0  0  0  0  0  0
   28.9052  -23.0691  -16.4000 C   0  0  0  0  0  0  0  0  0  0  0  0
   28.1606  -23.9736  -15.9413 O   0  0  0  0  0  0  0  0  0  0  0  0
   28.8302  -21.8044  -15.7498 N   0  0  0  0  0  0  0  0  0  0  0  0
   27.9931  -21.5776  -14.5902 C   0  0  0  0  0  0  0  0  0  0  0  0
   26.5485  -21.5386  -15.0142 C   0  0  0  0  0  0  0  0  0  0  0  0
   26.2623  -21.5974  -16.2391 O   0  0  0  0  0  0  0  0  0  0  0  0
   25.5340  -21.4361  -14.0252 N   0  0  0  0  0  0  0  0  0  0  0  0
   25.7440  -21.2864  -12.6005 C   0  0  0  0  0  0  0  0  0  0  0  0
   24.4567  -21.6403  -11.9259 C   0  0  0  0  0  0  0  0  0  0  0  0
   23.6291  -22.2537  -13.0366 C   0  0  0  0  0  0  0  0  0  0  0  0
   24.1148  -21.4610  -14.2460 C   0  0  1  0  0  0  0  0  0  0  0  0
   23.5479  -20.1060  -14.1480 C   0  0  0  0  0  0  0  0  0  0  0  0
   24.2544  -19.1896  -13.6593 O   0  0  0  0  0  0  0  0  0  0  0  0
   22.2673  -19.8022  -14.5731 O   0  0  0  0  0  0  0  0  0  0  0  0
  2  8  1  0
  2  1  1  1
  3  2  1  0
  4  3  1  0
  5  4  1  0
  6  5  1  0
  7  6  1  0
  8  9  2  0
 10  8  1  0
 10 11  1  0
 12 14  1  0
 12 11  1  0
 13 12  2  0
 14 18  1  0
 15 14  1  0
 15 16  1  0
 16 17  1  0
 18 19  1  1
 18 17  1  0
 19 21  1  0
 20 19  2  0
M  END
$$$$
