KGP.pdb
     RDKit          3D

 21 21  0  0  1  0  0  0  0  0999 V2000
   24.7050  -20.0908  -14.9438 N   0  0  0  0  0  0  0  0  0  0  0  0
   23.9275  -19.7623  -13.7952 C   0  0  1  0  0  0  0  0  0  0  0  0
   22.4598  -19.8709  -13.9900 C   0  0  0  0  0  0  0  0  0  0  0  0
   21.8617  -19.1086  -15.1087 C   0  0  0  0  0  0  0  0  0  0  0  0
   22.3298  -19.5052  -16.4796 C   0  0  0  0  0  0  0  0  0  0  0  0
   21.6957  -18.6774  -17.5828 C   0  0  0  0  0  0  0  0  0  0  0  0
   22.2630  -19.1304  -18.8318 N   0  0  0  0  0  0  0  0  0  0  0  0
   24.4015  -20.4772  -12.5643 C   0  0  0  0  0  0  0  0  0  0  0  0
   23.8347  -20.3522  -11.4481 O   0  0  0  0  0  0  0  0  0  0  0  0
   25.5312  -21.3434  -12.6013 N   0  0  0  0  0  0  0  0  0  0  0  0
   26.0383  -22.0066  -11.4180 C   0  0  0  0  0  0  0  0  0  0  0  0
   27.1275  -21.1690  -10.8014 C   0  0  0  0  0  0  0  0  0  0  0  0
   28.2235  -21.0371  -11.4074 O   0  0  0  0  0  0  0  0  0  0  0  0
   26.8997  -20.5424   -9.5471 N   0  0  0  0  0  0  0  0  0  0  0  0
   26.9129  -19.1174   -9.2908 C   0  0  0  0  0  0  0  0  0  0  0  0
   27.0486  -18.9370   -7.8122 C   0  0  0  0  0  0  0  0  0  0  0  0
   27.3866  -20.3268   -7.3130 C   0  0  0  0  0  0  0  0  0  0  0  0
   26.6147  -21.1965   -8.3004 C   0  0  1  0  0  0  0  0  0  0  0  0
   25.1848  -21.0863   -7.9685 C   0  0  0  0  0  0  0  0  0  0  0  0
   24.4396  -20.4139   -8.7239 O   0  0  0  0  0  0  0  0  0  0  0  0
   24.6292  -21.6942   -6.8573 O   0  0  0  0  0  0  0  0  0  0  0  0
  2  8  1  0
  2  1  1  6
  3  2  1  0
  4  3  1  0
  5  4  1  0
  6  5  1  0
  7  6  1  0
  8  9  2  0
 10  8  1  0
 10 11  1  0
 12 14  1  0
 12 11  1  0
 13 12  2  0
 14 18  1  0
 15 14  1  0
 15 16  1  0
 16 17  1  0
 18 19  1  1
 18 17  1  0
 19 21  1  0
 20 19  2  0
M  END
$$$$
