WMG.pdb
     RDKit          3D

 27 28  0  0  1  0  0  0  0  0999 V2000
   25.0895  -20.8387   -8.4917 N   0  0  0  0  0  0  0  0  0  0  0  0
   26.0525  -20.4580   -9.5507 C   0  0  1  0  0  0  0  0  0  0  0  0
   27.4256  -20.7001   -9.0142 C   0  0  0  0  0  0  0  0  0  0  0  0
   27.6715  -19.9481   -7.7612 C   0  0  0  0  0  0  0  0  0  0  0  0
   26.9880  -18.7785   -7.3827 C   0  0  0  0  0  0  0  0  0  0  0  0
   27.4354  -18.3870   -6.1844 N   0  0  0  0  0  0  0  0  0  0  0  0
   28.3964  -19.2299   -5.7163 C   0  0  0  0  0  0  0  0  0  0  0  0
   29.1484  -19.2481   -4.5631 C   0  0  0  0  0  0  0  0  0  0  0  0
   30.0706  -20.2429   -4.3656 C   0  0  0  0  0  0  0  0  0  0  0  0
   30.2202  -21.2082   -5.3402 C   0  0  0  0  0  0  0  0  0  0  0  0
   29.4656  -21.1874   -6.4933 C   0  0  0  0  0  0  0  0  0  0  0  0
   28.5244  -20.1930   -6.7183 C   0  0  0  0  0  0  0  0  0  0  0  0
   25.6747  -21.1506  -10.7672 C   0  0  0  0  0  0  0  0  0  0  0  0
   25.8973  -22.4048  -10.9040 O   0  0  0  0  0  0  0  0  0  0  0  0
   20.8483  -22.4189  -12.8963 C   0  0  0  0  0  0  0  0  0  0  0  0
   21.0555  -21.5778  -14.5154 S   0  0  0  0  0  0  0  0  0  0  0  0
   22.8431  -21.2599  -14.8024 C   0  0  0  0  0  0  0  0  0  0  0  0
   23.3692  -20.6939  -13.5348 C   0  0  0  0  0  0  0  0  0  0  0  0
   24.7289  -21.2806  -13.1150 C   0  0  2  0  0  0  0  0  0  0  0  0
   25.0409  -20.5582  -11.8957 N   0  0  0  0  0  0  0  0  0  0  0  0
   25.7418  -21.1278  -14.1611 C   0  0  0  0  0  0  0  0  0  0  0  0
   26.1487  -19.9680  -14.4635 O   0  0  0  0  0  0  0  0  0  0  0  0
   26.3066  -22.2249  -14.8704 N   0  0  0  0  0  0  0  0  0  0  0  0
   27.0549  -21.9719  -16.0793 C   0  0  0  0  0  0  0  0  0  0  0  0
   28.4099  -21.5416  -15.7301 C   0  0  0  0  0  0  0  0  0  0  0  0
   28.7216  -20.1973  -15.6809 O   0  0  0  0  0  0  0  0  0  0  0  0
   29.3470  -22.3481  -15.4606 O   0  0  0  0  0  0  0  0  0  0  0  0
  2  3  1  0
  2  1  1  1
  4  5  2  0
  4  3  1  0
  6  5  1  0
  7 12  2  0
  7  6  1  0
  8  7  1  0
  9 10  1  0
  9  8  2  0
 10 11  2  0
 11 12  1  0
 12  4  1  0
 13  2  1  0
 14 13  2  0
 16 15  1  0
 17 16  1  0
 18 17  1  0
 19 18  1  6
 19 20  1  0
 20 13  1  0
 21 19  1  0
 21 22  2  0
 23 21  1  0
 24 23  1  0
 24 25  1  0
 25 27  2  0
 25 26  1  0
M  END
$$$$
