WMG.pdb
     RDKit          3D

 27 28  0  0  1  0  0  0  0  0999 V2000
   25.4361  -19.9887   -9.7123 N   0  0  0  0  0  0  0  0  0  0  0  0
   26.8096  -20.5175   -9.8789 C   0  0  1  0  0  0  0  0  0  0  0  0
   27.1883  -21.1888   -8.5991 C   0  0  0  0  0  0  0  0  0  0  0  0
   27.5625  -20.2111   -7.5502 C   0  0  0  0  0  0  0  0  0  0  0  0
   27.2981  -18.8310   -7.6118 C   0  0  0  0  0  0  0  0  0  0  0  0
   27.7393  -18.2574   -6.4867 N   0  0  0  0  0  0  0  0  0  0  0  0
   28.2969  -19.1751   -5.6501 C   0  0  0  0  0  0  0  0  0  0  0  0
   28.8832  -19.0790   -4.4081 C   0  0  0  0  0  0  0  0  0  0  0  0
   29.3770  -20.2028   -3.7978 C   0  0  0  0  0  0  0  0  0  0  0  0
   29.2708  -21.4119   -4.4543 C   0  0  0  0  0  0  0  0  0  0  0  0
   28.6830  -21.5048   -5.6974 C   0  0  0  0  0  0  0  0  0  0  0  0
   28.1740  -20.3837   -6.3373 C   0  0  0  0  0  0  0  0  0  0  0  0
   26.8368  -21.3150  -11.0895 C   0  0  0  0  0  0  0  0  0  0  0  0
   26.6863  -22.5863  -11.0409 O   0  0  0  0  0  0  0  0  0  0  0  0
   22.3227  -21.9716  -12.8211 C   0  0  0  0  0  0  0  0  0  0  0  0
   23.0394  -23.5356  -13.4630 S   0  0  0  0  0  0  0  0  0  0  0  0
   24.7915  -23.2437  -13.9358 C   0  0  0  0  0  0  0  0  0  0  0  0
   25.1786  -21.9561  -13.3064 C   0  0  0  0  0  0  0  0  0  0  0  0
   26.6285  -21.5346  -13.6058 C   0  0  2  0  0  0  0  0  0  0  0  0
   27.0193  -20.8130  -12.4089 N   0  0  0  0  0  0  0  0  0  0  0  0
   26.7290  -20.7365  -14.8292 C   0  0  0  0  0  0  0  0  0  0  0  0
   26.0831  -19.6513  -14.9146 O   0  0  0  0  0  0  0  0  0  0  0  0
   27.5241  -21.1143  -15.9475 N   0  0  0  0  0  0  0  0  0  0  0  0
   27.9837  -20.0953  -16.8616 C   0  0  0  0  0  0  0  0  0  0  0  0
   26.9076  -19.7608  -17.7962 C   0  0  0  0  0  0  0  0  0  0  0  0
   27.0932  -18.7768  -18.7470 O   0  0  0  0  0  0  0  0  0  0  0  0
   25.7796  -20.3341  -17.7906 O   0  0  0  0  0  0  0  0  0  0  0  0
  2  3  1  0
  2  1  1  1
  4  5  2  0
  4  3  1  0
  6  5  1  0
  7 12  2  0
  7  6  1  0
  8  7  1  0
  9 10  1  0
  9  8  2  0
 10 11  2  0
 11 12  1  0
 12  4  1  0
 13  2  1  0
 14 13  2  0
 16 15  1  0
 17 16  1  0
 18 17  1  0
 19 18  1  1
 19 20  1  0
 20 13  1  0
 21 19  1  0
 21 22  2  0
 23 21  1  0
 24 23  1  0
 24 25  1  0
 25 27  2  0
 25 26  1  0
M  END
$$$$
