WMG.pdb
     RDKit          3D

 27 28  0  0  1  0  0  0  0  0999 V2000
   26.2502  -22.8335  -12.7910 N   0  0  0  0  0  0  0  0  0  0  0  0
   25.6094  -21.7283  -12.0416 C   0  0  1  0  0  0  0  0  0  0  0  0
   26.5749  -20.5886  -12.0136 C   0  0  0  0  0  0  0  0  0  0  0  0
   27.6381  -20.7878  -11.0007 C   0  0  0  0  0  0  0  0  0  0  0  0
   28.9589  -21.1740  -11.2923 C   0  0  0  0  0  0  0  0  0  0  0  0
   29.6546  -21.2246  -10.1510 N   0  0  0  0  0  0  0  0  0  0  0  0
   28.8778  -20.8925   -9.0836 C   0  0  0  0  0  0  0  0  0  0  0  0
   29.1264  -20.8066   -7.7322 C   0  0  0  0  0  0  0  0  0  0  0  0
   28.1193  -20.4468   -6.8746 C   0  0  0  0  0  0  0  0  0  0  0  0
   26.8708  -20.1782   -7.3974 C   0  0  0  0  0  0  0  0  0  0  0  0
   26.6253  -20.2647   -8.7507 C   0  0  0  0  0  0  0  0  0  0  0  0
   27.6264  -20.6255   -9.6411 C   0  0  0  0  0  0  0  0  0  0  0  0
   24.3048  -21.4894  -12.6275 C   0  0  0  0  0  0  0  0  0  0  0  0
   24.1071  -21.6635  -13.8813 O   0  0  0  0  0  0  0  0  0  0  0  0
   17.6446  -23.4188  -12.5173 C   0  0  0  0  0  0  0  0  0  0  0  0
   19.3590  -23.0002  -12.0097 S   0  0  0  0  0  0  0  0  0  0  0  0
   19.4668  -21.1930  -11.6917 C   0  0  0  0  0  0  0  0  0  0  0  0
   20.8807  -20.9227  -11.3285 C   0  0  0  0  0  0  0  0  0  0  0  0
   21.8372  -20.9187  -12.5345 C   0  0  2  0  0  0  0  0  0  0  0  0
   23.1453  -21.0604  -11.9222 N   0  0  0  0  0  0  0  0  0  0  0  0
   21.6982  -19.7067  -13.3441 C   0  0  0  0  0  0  0  0  0  0  0  0
   21.6708  -18.5790  -12.7700 O   0  0  0  0  0  0  0  0  0  0  0  0
   21.5910  -19.7211  -14.7633 N   0  0  0  0  0  0  0  0  0  0  0  0
   20.5803  -18.9109  -15.4015 C   0  0  0  0  0  0  0  0  0  0  0  0
   21.1652  -17.6289  -15.7982 C   0  0  0  0  0  0  0  0  0  0  0  0
   20.6075  -16.8995  -16.8296 O   0  0  0  0  0  0  0  0  0  0  0  0
   22.1831  -17.1270  -15.2386 O   0  0  0  0  0  0  0  0  0  0  0  0
  2  3  1  0
  2  1  1  6
  4  5  2  0
  4  3  1  0
  6  5  1  0
  7 12  2  0
  7  6  1  0
  8  7  1  0
  9 10  1  0
  9  8  2  0
 10 11  2  0
 11 12  1  0
 12  4  1  0
 13  2  1  0
 14 13  2  0
 16 15  1  0
 17 16  1  0
 18 17  1  0
 19 18  1  1
 19 20  1  0
 20 13  1  0
 21 19  1  0
 21 22  2  0
 23 21  1  0
 24 23  1  0
 24 25  1  0
 25 27  2  0
 25 26  1  0
M  END
$$$$
