WMG.pdb
     RDKit          3D

 27 28  0  0  1  0  0  0  0  0999 V2000
   36.3832  -26.5627    4.8307 N   0  0  0  0  0  0  0  0  0  0  0  0
   36.1812  -25.2278    5.4397 C   0  0  1  0  0  0  0  0  0  0  0  0
   34.7842  -25.1838    5.9671 C   0  0  0  0  0  0  0  0  0  0  0  0
   33.8829  -24.4060    5.0846 C   0  0  0  0  0  0  0  0  0  0  0  0
   33.3717  -24.8660    3.8575 C   0  0  0  0  0  0  0  0  0  0  0  0
   32.5692  -23.9260    3.3459 N   0  0  0  0  0  0  0  0  0  0  0  0
   32.5015  -22.8373    4.1604 C   0  0  0  0  0  0  0  0  0  0  0  0
   31.8312  -21.6381    4.0707 C   0  0  0  0  0  0  0  0  0  0  0  0
   31.9659  -20.7050    5.0658 C   0  0  0  0  0  0  0  0  0  0  0  0
   32.7795  -20.9985    6.1410 C   0  0  0  0  0  0  0  0  0  0  0  0
   33.4488  -22.2001    6.2281 C   0  0  0  0  0  0  0  0  0  0  0  0
   33.3296  -23.1627    5.2359 C   0  0  0  0  0  0  0  0  0  0  0  0
   37.2615  -24.9979    6.3791 C   0  0  0  0  0  0  0  0  0  0  0  0
   37.6389  -25.9210    7.1833 O   0  0  0  0  0  0  0  0  0  0  0  0
   42.6454  -23.2796    5.5014 C   0  0  0  0  0  0  0  0  0  0  0  0
   42.3709  -23.3378    7.3161 S   0  0  0  0  0  0  0  0  0  0  0  0
   41.0681  -22.1215    7.7657 C   0  0  0  0  0  0  0  0  0  0  0  0
   39.8853  -22.4593    6.9346 C   0  0  0  0  0  0  0  0  0  0  0  0
   39.0043  -23.5683    7.5376 C   0  0  2  0  0  0  0  0  0  0  0  0
   37.9990  -23.7880    6.5144 N   0  0  0  0  0  0  0  0  0  0  0  0
   38.4448  -23.1835    8.8347 C   0  0  0  0  0  0  0  0  0  0  0  0
   38.0477  -21.9943    9.0089 O   0  0  0  0  0  0  0  0  0  0  0  0
   38.3177  -24.0827    9.9306 N   0  0  0  0  0  0  0  0  0  0  0  0
   37.9384  -23.5668   11.2249 C   0  0  0  0  0  0  0  0  0  0  0  0
   36.5063  -23.2631   11.2255 C   0  0  0  0  0  0  0  0  0  0  0  0
   35.8505  -23.0062   12.4132 O   0  0  0  0  0  0  0  0  0  0  0  0
   35.8053  -23.2184   10.1730 O   0  0  0  0  0  0  0  0  0  0  0  0
  2  3  1  0
  2  1  1  1
  4  5  2  0
  4  3  1  0
  6  5  1  0
  7 12  2  0
  7  6  1  0
  8  7  1  0
  9 10  1  0
  9  8  2  0
 10 11  2  0
 11 12  1  0
 12  4  1  0
 13  2  1  0
 14 13  2  0
 16 15  1  0
 17 16  1  0
 18 17  1  0
 19 18  1  6
 19 20  1  0
 20 13  1  0
 21 19  1  0
 21 22  2  0
 23 21  1  0
 24 23  1  0
 24 25  1  0
 25 27  2  0
 25 26  1  0
M  END
$$$$
