WMG.pdb
     RDKit          3D

 27 28  0  0  1  0  0  0  0  0999 V2000
   26.9536  -18.7768  -14.6656 N   0  0  0  0  0  0  0  0  0  0  0  0
   27.2055  -20.2006  -14.9870 C   0  0  1  0  0  0  0  0  0  0  0  0
   28.5501  -20.2818  -15.6329 C   0  0  0  0  0  0  0  0  0  0  0  0
   28.6368  -19.4288  -16.8415 C   0  0  0  0  0  0  0  0  0  0  0  0
   29.4232  -18.2673  -16.9464 C   0  0  0  0  0  0  0  0  0  0  0  0
   29.2916  -17.7681  -18.1804 N   0  0  0  0  0  0  0  0  0  0  0  0
   28.4509  -18.5288  -18.9340 C   0  0  0  0  0  0  0  0  0  0  0  0
   28.0019  -18.4270  -20.2315 C   0  0  0  0  0  0  0  0  0  0  0  0
   27.1289  -19.3607  -20.7267 C   0  0  0  0  0  0  0  0  0  0  0  0
   26.7208  -20.3875  -19.9000 C   0  0  0  0  0  0  0  0  0  0  0  0
   27.1724  -20.4867  -18.6017 C   0  0  0  0  0  0  0  0  0  0  0  0
   28.0570  -19.5563  -18.0754 C   0  0  0  0  0  0  0  0  0  0  0  0
   26.9920  -20.9750  -13.7799 C   0  0  0  0  0  0  0  0  0  0  0  0
   27.3590  -22.2006  -13.7134 O   0  0  0  0  0  0  0  0  0  0  0  0
   28.5051  -20.9795   -7.3918 C   0  0  0  0  0  0  0  0  0  0  0  0
   26.8620  -20.6130   -8.1252 S   0  0  0  0  0  0  0  0  0  0  0  0
   26.8660  -21.1214   -9.8916 C   0  0  0  0  0  0  0  0  0  0  0  0
   25.5227  -20.7773  -10.4219 C   0  0  0  0  0  0  0  0  0  0  0  0
   25.3158  -21.1882  -11.8909 C   0  0  2  0  0  0  0  0  0  0  0  0
   26.3865  -20.4960  -12.5840 N   0  0  0  0  0  0  0  0  0  0  0  0
   23.9805  -20.8376  -12.3784 C   0  0  0  0  0  0  0  0  0  0  0  0
   23.7451  -19.6461  -12.7347 O   0  0  0  0  0  0  0  0  0  0  0  0
   22.9126  -21.7733  -12.4780 N   0  0  0  0  0  0  0  0  0  0  0  0
   21.6639  -21.3565  -13.0715 C   0  0  0  0  0  0  0  0  0  0  0  0
   20.6688  -21.1549  -12.0168 C   0  0  0  0  0  0  0  0  0  0  0  0
   19.3609  -20.8551  -12.3429 O   0  0  0  0  0  0  0  0  0  0  0  0
   20.9370  -21.2405  -10.7832 O   0  0  0  0  0  0  0  0  0  0  0  0
  2  3  1  0
  2  1  1  1
  4  5  2  0
  4  3  1  0
  6  5  1  0
  7 12  2  0
  7  6  1  0
  8  7  1  0
  9 10  1  0
  9  8  2  0
 10 11  2  0
 11 12  1  0
 12  4  1  0
 13  2  1  0
 14 13  2  0
 16 15  1  0
 17 16  1  0
 18 17  1  0
 19 18  1  1
 19 20  1  0
 20 13  1  0
 21 19  1  0
 21 22  2  0
 23 21  1  0
 24 23  1  0
 24 25  1  0
 25 27  2  0
 25 26  1  0
M  END
$$$$
