WMG.pdb
     RDKit          3D

 27 28  0  0  1  0  0  0  0  0999 V2000
   26.0673  -22.8945  -12.6198 N   0  0  0  0  0  0  0  0  0  0  0  0
   25.3836  -21.8266  -11.8542 C   0  0  1  0  0  0  0  0  0  0  0  0
   26.2805  -20.6319  -11.8551 C   0  0  0  0  0  0  0  0  0  0  0  0
   27.4242  -20.7969  -10.9273 C   0  0  0  0  0  0  0  0  0  0  0  0
   28.7270  -21.1545  -11.3189 C   0  0  0  0  0  0  0  0  0  0  0  0
   29.5110  -21.1785  -10.2353 N   0  0  0  0  0  0  0  0  0  0  0  0
   28.8122  -20.8551   -9.1126 C   0  0  0  0  0  0  0  0  0  0  0  0
   29.1637  -20.7513   -7.7855 C   0  0  0  0  0  0  0  0  0  0  0  0
   28.2184  -20.4075   -6.8542 C   0  0  0  0  0  0  0  0  0  0  0  0
   26.9267  -20.1731   -7.2793 C   0  0  0  0  0  0  0  0  0  0  0  0
   26.5782  -20.2775   -8.6086 C   0  0  0  0  0  0  0  0  0  0  0  0
   27.5150  -20.6227   -9.5722 C   0  0  0  0  0  0  0  0  0  0  0  0
   24.0513  -21.6670  -12.4036 C   0  0  0  0  0  0  0  0  0  0  0  0
   23.8022  -21.9782  -13.6211 O   0  0  0  0  0  0  0  0  0  0  0  0
   16.9905  -23.3787   -9.8399 C   0  0  0  0  0  0  0  0  0  0  0  0
   18.6884  -22.7317   -9.5747 S   0  0  0  0  0  0  0  0  0  0  0  0
   19.3939  -22.2157  -11.1917 C   0  0  0  0  0  0  0  0  0  0  0  0
   20.8027  -21.8325  -10.9227 C   0  0  0  0  0  0  0  0  0  0  0  0
   21.5515  -21.3226  -12.1672 C   0  0  2  0  0  0  0  0  0  0  0  0
   22.9168  -21.1766  -11.6976 N   0  0  0  0  0  0  0  0  0  0  0  0
   20.9754  -20.0810  -12.6868 C   0  0  0  0  0  0  0  0  0  0  0  0
   19.7363  -20.0328  -12.9409 O   0  0  0  0  0  0  0  0  0  0  0  0
   21.7387  -18.9039  -12.9268 N   0  0  0  0  0  0  0  0  0  0  0  0
   21.0837  -17.7389  -13.4737 C   0  0  0  0  0  0  0  0  0  0  0  0
   20.8712  -17.9309  -14.9094 C   0  0  0  0  0  0  0  0  0  0  0  0
   21.1898  -19.1355  -15.5045 O   0  0  0  0  0  0  0  0  0  0  0  0
   20.3979  -17.0351  -15.6674 O   0  0  0  0  0  0  0  0  0  0  0  0
  2  3  1  0
  2  1  1  6
  4  5  2  0
  4  3  1  0
  6  5  1  0
  7 12  2  0
  7  6  1  0
  8  7  1  0
  9 10  1  0
  9  8  2  0
 10 11  2  0
 11 12  1  0
 12  4  1  0
 13  2  1  0
 14 13  2  0
 16 15  1  0
 17 16  1  0
 18 17  1  0
 19 18  1  1
 19 20  1  0
 20 13  1  0
 21 19  1  0
 21 22  2  0
 23 21  1  0
 24 23  1  0
 24 25  1  0
 25 27  2  0
 25 26  1  0
M  END
$$$$
