TCR.pdb
     RDKit          3D

 25 24  0  0  1  0  0  0  0  0999 V2000
    5.2649  -19.2819   20.8175 C   0  0  0  0  0  0  0  0  0  0  0  0
    6.2660  -18.2574   21.2733 C   0  0  1  0  0  0  0  0  0  0  0  0
    7.0739  -17.9071   20.1806 O   0  0  0  0  0  0  0  0  0  0  0  0
    5.6101  -16.9877   21.7940 C   0  0  2  0  0  0  0  0  0  0  0  0
    4.8908  -16.2961   20.7660 N   0  0  0  0  0  0  0  0  0  0  0  0
    6.7314  -16.1466   22.3308 C   0  0  0  0  0  0  0  0  0  0  0  0
    7.7101  -15.8280   21.6089 O   0  0  0  0  0  0  0  0  0  0  0  0
    6.7468  -15.6667   23.6799 N   0  0  0  0  0  0  0  0  0  0  0  0
    7.8744  -14.9280   24.1632 C   0  0  1  0  0  0  0  0  0  0  0  0
    7.5154  -13.9778   25.2657 C   0  0  0  0  0  0  0  0  0  0  0  0
    5.8565  -14.4063   25.8850 S   0  0  0  0  0  0  0  0  0  0  0  0
    9.0062  -15.8343   24.5599 C   0  0  0  0  0  0  0  0  0  0  0  0
    8.7437  -16.9963   24.9763 O   0  0  0  0  0  0  0  0  0  0  0  0
   16.2678  -14.6465   21.4784 N   0  0  0  0  0  0  0  0  0  0  0  0
   15.0407  -14.8190   20.7622 C   0  0  0  0  0  0  0  0  0  0  0  0
   15.0590  -14.6257   19.4699 N   0  0  0  0  0  0  0  0  0  0  0  0
   13.8574  -15.1814   21.4229 N   0  0  0  0  0  0  0  0  0  0  0  0
   13.7470  -16.5373   21.9915 C   0  0  0  0  0  0  0  0  0  0  0  0
   13.7206  -16.3651   23.4607 C   0  0  0  0  0  0  0  0  0  0  0  0
   12.6193  -15.7207   24.1482 C   0  0  0  0  0  0  0  0  0  0  0  0
   11.4762  -16.4067   24.7660 C   0  0  2  0  0  0  0  0  0  0  0  0
   10.3405  -15.4447   24.4874 N   0  0  0  0  0  0  0  0  0  0  0  0
   11.4687  -16.6982   26.1907 C   0  0  0  0  0  0  0  0  0  0  0  0
   10.9168  -16.0446   27.0920 O   0  0  0  0  0  0  0  0  0  0  0  0
   12.1568  -17.8491   26.6363 O   0  0  0  0  0  0  0  0  0  0  0  0
  2  3  1  0
  2  1  1  6
  4  2  1  0
  4  5  1  6
  6  4  1  0
  7  6  2  0
  8  6  1  0
  9 12  1  0
  9  8  1  0
  9 10  1  1
 11 10  1  0
 12 22  1  0
 13 12  2  0
 15 14  1  0
 15 16  2  0
 17 15  1  0
 18 17  1  0
 19 18  1  0
 20 19  1  0
 21 20  1  1
 22 21  1  0
 23 25  1  0
 23 21  1  0
 24 23  2  0
M  END
$$$$
