TCR.pdb
     RDKit          3D

 25 24  0  0  1  0  0  0  0  0999 V2000
    7.5325  -15.2175   17.1749 C   0  0  0  0  0  0  0  0  0  0  0  0
    8.1691  -15.1569   18.5354 C   0  0  1  0  0  0  0  0  0  0  0  0
    9.5201  -15.5159   18.4114 O   0  0  0  0  0  0  0  0  0  0  0  0
    8.1108  -13.7663   19.1487 C   0  0  2  0  0  0  0  0  0  0  0  0
    8.7837  -12.7949   18.3387 N   0  0  0  0  0  0  0  0  0  0  0  0
    8.7609  -13.8930   20.4957 C   0  0  0  0  0  0  0  0  0  0  0  0
    9.9772  -13.6212   20.6601 O   0  0  0  0  0  0  0  0  0  0  0  0
    8.0384  -14.3258   21.6539 N   0  0  0  0  0  0  0  0  0  0  0  0
    8.7323  -14.5537   22.8856 C   0  0  1  0  0  0  0  0  0  0  0  0
    7.8239  -14.5189   24.0776 C   0  0  0  0  0  0  0  0  0  0  0  0
    7.2284  -12.8122   24.3048 S   0  0  0  0  0  0  0  0  0  0  0  0
    9.5422  -15.8194   22.8434 C   0  0  0  0  0  0  0  0  0  0  0  0
    8.9910  -16.8870   22.4574 O   0  0  0  0  0  0  0  0  0  0  0  0
   16.6317  -14.0621   19.6982 N   0  0  0  0  0  0  0  0  0  0  0  0
   15.3370  -14.0890   19.0886 C   0  0  0  0  0  0  0  0  0  0  0  0
   15.1948  -13.4874   17.9373 N   0  0  0  0  0  0  0  0  0  0  0  0
   14.2560  -14.7368   19.7050 N   0  0  0  0  0  0  0  0  0  0  0  0
   14.4873  -15.4609   20.9683 C   0  0  0  0  0  0  0  0  0  0  0  0
   13.1684  -15.9828   21.3893 C   0  0  0  0  0  0  0  0  0  0  0  0
   12.9751  -16.6886   22.6404 C   0  0  0  0  0  0  0  0  0  0  0  0
   11.6858  -17.1485   23.1742 C   0  0  2  0  0  0  0  0  0  0  0  0
   10.8830  -15.8652   23.2142 N   0  0  0  0  0  0  0  0  0  0  0  0
   11.6049  -17.7613   24.4905 C   0  0  0  0  0  0  0  0  0  0  0  0
   12.0194  -18.8832   24.8276 O   0  0  0  0  0  0  0  0  0  0  0  0
   10.9921  -17.0246   25.5290 O   0  0  0  0  0  0  0  0  0  0  0  0
  2  3  1  0
  2  1  1  6
  4  2  1  0
  4  5  1  6
  6  4  1  0
  7  6  2  0
  8  6  1  0
  9 12  1  0
  9  8  1  0
  9 10  1  1
 11 10  1  0
 12 22  1  0
 13 12  2  0
 15 14  1  0
 15 16  2  0
 17 15  1  0
 18 17  1  0
 19 18  1  0
 20 19  1  0
 21 20  1  1
 22 21  1  0
 23 25  1  0
 23 21  1  0
 24 23  2  0
M  END
$$$$
