TCR.pdb
     RDKit          3D

 25 24  0  0  1  0  0  0  0  0999 V2000
    7.7229  -23.2335   24.2295 C   0  0  0  0  0  0  0  0  0  0  0  0
    7.6477  -21.7330   24.2790 C   0  0  1  0  0  0  0  0  0  0  0  0
    7.5770  -21.2469   22.9644 O   0  0  0  0  0  0  0  0  0  0  0  0
    6.4223  -21.2316   25.0277 C   0  0  2  0  0  0  0  0  0  0  0  0
    5.2091  -21.7763   24.4950 N   0  0  0  0  0  0  0  0  0  0  0  0
    6.4513  -19.7370   24.8918 C   0  0  0  0  0  0  0  0  0  0  0  0
    5.4035  -19.0840   24.6552 O   0  0  0  0  0  0  0  0  0  0  0  0
    7.6612  -18.9823   25.0229 N   0  0  0  0  0  0  0  0  0  0  0  0
    7.6101  -17.5520   25.0714 C   0  0  1  0  0  0  0  0  0  0  0  0
    6.8504  -17.0392   26.2576 C   0  0  0  0  0  0  0  0  0  0  0  0
    7.6895  -17.6032   27.7733 S   0  0  0  0  0  0  0  0  0  0  0  0
    8.9812  -16.9419   24.9860 C   0  0  0  0  0  0  0  0  0  0  0  0
    9.9122  -17.4262   25.6868 O   0  0  0  0  0  0  0  0  0  0  0  0
    8.7276  -11.9005   18.5260 N   0  0  0  0  0  0  0  0  0  0  0  0
    8.1049  -13.0719   17.9889 C   0  0  0  0  0  0  0  0  0  0  0  0
    8.3159  -13.3490   16.7294 N   0  0  0  0  0  0  0  0  0  0  0  0
    7.2942  -13.8948   18.7848 N   0  0  0  0  0  0  0  0  0  0  0  0
    7.3610  -13.7549   20.2511 C   0  0  0  0  0  0  0  0  0  0  0  0
    8.3162  -14.7836   20.7182 C   0  0  0  0  0  0  0  0  0  0  0  0
    8.6600  -14.9472   22.1167 C   0  0  0  0  0  0  0  0  0  0  0  0
    9.4987  -16.0176   22.6731 C   0  0  2  0  0  0  0  0  0  0  0  0
    9.2704  -15.8583   24.1616 N   0  0  0  0  0  0  0  0  0  0  0  0
   10.9349  -16.0279   22.4452 C   0  0  0  0  0  0  0  0  0  0  0  0
   11.5332  -16.3817   21.4152 O   0  0  0  0  0  0  0  0  0  0  0  0
   11.7763  -15.5912   23.4931 O   0  0  0  0  0  0  0  0  0  0  0  0
  2  3  1  0
  2  1  1  6
  4  2  1  0
  4  5  1  6
  6  4  1  0
  7  6  2  0
  8  6  1  0
  9 12  1  0
  9  8  1  0
  9 10  1  1
 11 10  1  0
 12 22  1  0
 13 12  2  0
 15 14  1  0
 15 16  2  0
 17 15  1  0
 18 17  1  0
 19 18  1  0
 20 19  1  0
 21 20  1  6
 22 21  1  0
 23 25  1  0
 23 21  1  0
 24 23  2  0
M  END
$$$$
