TCR.pdb
     RDKit          3D

 25 24  0  0  1  0  0  0  0  0999 V2000
    6.7034  -15.8162   20.8695 C   0  0  0  0  0  0  0  0  0  0  0  0
    7.5883  -14.8211   20.1719 C   0  0  1  0  0  0  0  0  0  0  0  0
    7.2226  -14.7722   18.8179 O   0  0  0  0  0  0  0  0  0  0  0  0
    7.4549  -13.4172   20.7417 C   0  0  2  0  0  0  0  0  0  0  0  0
    8.1469  -12.4480   19.9452 N   0  0  0  0  0  0  0  0  0  0  0  0
    8.0278  -13.4891   22.1272 C   0  0  0  0  0  0  0  0  0  0  0  0
    9.2684  -13.5644   22.3160 O   0  0  0  0  0  0  0  0  0  0  0  0
    7.2010  -13.4761   23.2963 N   0  0  0  0  0  0  0  0  0  0  0  0
    7.7709  -13.7629   24.5783 C   0  0  1  0  0  0  0  0  0  0  0  0
    6.8891  -13.3363   25.7131 C   0  0  0  0  0  0  0  0  0  0  0  0
    6.6757  -11.5287   25.6354 S   0  0  0  0  0  0  0  0  0  0  0  0
    8.1707  -15.2068   24.7004 C   0  0  0  0  0  0  0  0  0  0  0  0
    7.3014  -16.1016   24.5102 O   0  0  0  0  0  0  0  0  0  0  0  0
   16.1280  -19.3826   22.7803 N   0  0  0  0  0  0  0  0  0  0  0  0
   14.7620  -19.7582   22.5763 C   0  0  0  0  0  0  0  0  0  0  0  0
   14.4383  -20.2666   21.4168 N   0  0  0  0  0  0  0  0  0  0  0  0
   13.8018  -19.5859   23.5843 N   0  0  0  0  0  0  0  0  0  0  0  0
   13.3973  -18.2173   23.9549 C   0  0  0  0  0  0  0  0  0  0  0  0
   11.9184  -18.2029   23.9197 C   0  0  0  0  0  0  0  0  0  0  0  0
   11.1431  -17.0390   24.3007 C   0  0  0  0  0  0  0  0  0  0  0  0
    9.8788  -17.0593   25.0491 C   0  0  2  0  0  0  0  0  0  0  0  0
    9.4673  -15.6024   25.0163 N   0  0  0  0  0  0  0  0  0  0  0  0
    9.8454  -17.4966   26.4356 C   0  0  0  0  0  0  0  0  0  0  0  0
    9.8291  -16.7822   27.4522 O   0  0  0  0  0  0  0  0  0  0  0  0
    9.8278  -18.8859   26.6931 O   0  0  0  0  0  0  0  0  0  0  0  0
  2  3  1  0
  2  1  1  1
  4  2  1  0
  4  5  1  6
  6  4  1  0
  7  6  2  0
  8  6  1  0
  9 12  1  0
  9  8  1  0
  9 10  1  1
 11 10  1  0
 12 22  1  0
 13 12  2  0
 15 14  1  0
 15 16  2  0
 17 15  1  0
 18 17  1  0
 19 18  1  0
 20 19  1  0
 21 20  1  1
 22 21  1  0
 23 25  1  0
 23 21  1  0
 24 23  2  0
M  END
$$$$
