TCR.pdb
     RDKit          3D

 25 24  0  0  1  0  0  0  0  0999 V2000
    6.1977  -15.6192   19.5753 C   0  0  0  0  0  0  0  0  0  0  0  0
    6.8855  -15.3318   20.8807 C   0  0  1  0  0  0  0  0  0  0  0  0
    8.0627  -16.0933   20.9411 O   0  0  0  0  0  0  0  0  0  0  0  0
    7.2692  -13.8677   21.0316 C   0  0  2  0  0  0  0  0  0  0  0  0
    8.2037  -13.4528   20.0281 N   0  0  0  0  0  0  0  0  0  0  0  0
    7.8599  -13.7462   22.4061 C   0  0  0  0  0  0  0  0  0  0  0  0
    9.0988  -13.8479   22.5940 O   0  0  0  0  0  0  0  0  0  0  0  0
    7.0529  -13.5103   23.5652 N   0  0  0  0  0  0  0  0  0  0  0  0
    7.6662  -13.4116   24.8555 C   0  0  1  0  0  0  0  0  0  0  0  0
    6.8243  -12.6591   25.8414 C   0  0  0  0  0  0  0  0  0  0  0  0
    7.7077  -12.5990   27.4336 S   0  0  0  0  0  0  0  0  0  0  0  0
    8.0689  -14.7592   25.3860 C   0  0  0  0  0  0  0  0  0  0  0  0
    7.2061  -15.6785   25.4421 O   0  0  0  0  0  0  0  0  0  0  0  0
    9.8920  -19.2259   22.3769 N   0  0  0  0  0  0  0  0  0  0  0  0
   11.1894  -19.8055   22.5484 C   0  0  0  0  0  0  0  0  0  0  0  0
   11.3525  -21.0493   22.1823 N   0  0  0  0  0  0  0  0  0  0  0  0
   12.2504  -19.0662   23.0921 N   0  0  0  0  0  0  0  0  0  0  0  0
   11.9998  -17.6823   23.5346 C   0  0  0  0  0  0  0  0  0  0  0  0
   11.4293  -17.7839   24.8959 C   0  0  0  0  0  0  0  0  0  0  0  0
   11.0551  -16.6177   25.6709 C   0  0  0  0  0  0  0  0  0  0  0  0
    9.7598  -16.4077   26.3318 C   0  0  2  0  0  0  0  0  0  0  0  0
    9.3611  -15.0391   25.8210 N   0  0  0  0  0  0  0  0  0  0  0  0
    9.6635  -16.3830   27.7826 C   0  0  0  0  0  0  0  0  0  0  0  0
    9.4915  -15.3910   28.5109 O   0  0  0  0  0  0  0  0  0  0  0  0
    9.7725  -17.6094   28.4760 O   0  0  0  0  0  0  0  0  0  0  0  0
  2  3  1  0
  2  1  1  6
  4  2  1  0
  4  5  1  6
  6  4  1  0
  7  6  2  0
  8  6  1  0
  9 12  1  0
  9  8  1  0
  9 10  1  1
 11 10  1  0
 12 22  1  0
 13 12  2  0
 15 14  1  0
 15 16  2  0
 17 15  1  0
 18 17  1  0
 19 18  1  0
 20 19  1  0
 21 20  1  1
 22 21  1  0
 23 25  1  0
 23 21  1  0
 24 23  2  0
M  END
$$$$
