TCR.pdb
     RDKit          3D

 25 24  0  0  1  0  0  0  0  0999 V2000
    6.3045  -14.5773   18.4391 C   0  0  0  0  0  0  0  0  0  0  0  0
    7.0578  -14.5456   19.7396 C   0  0  1  0  0  0  0  0  0  0  0  0
    8.2940  -15.1835   19.5540 O   0  0  0  0  0  0  0  0  0  0  0  0
    7.3319  -13.1301   20.2241 C   0  0  2  0  0  0  0  0  0  0  0  0
    8.1037  -12.3802   19.2784 N   0  0  0  0  0  0  0  0  0  0  0  0
    8.0678  -13.2849   21.5232 C   0  0  0  0  0  0  0  0  0  0  0  0
    9.3214  -13.3744   21.5551 O   0  0  0  0  0  0  0  0  0  0  0  0
    7.3889  -13.3385   22.7829 N   0  0  0  0  0  0  0  0  0  0  0  0
    8.1367  -13.5165   23.9911 C   0  0  1  0  0  0  0  0  0  0  0  0
    7.3426  -13.1847   25.2184 C   0  0  0  0  0  0  0  0  0  0  0  0
    5.7223  -14.0096   25.1029 S   0  0  0  0  0  0  0  0  0  0  0  0
    8.7395  -14.8909   24.0765 C   0  0  0  0  0  0  0  0  0  0  0  0
    8.1262  -15.8625   23.5545 O   0  0  0  0  0  0  0  0  0  0  0  0
   14.6096  -14.5352   19.9687 N   0  0  0  0  0  0  0  0  0  0  0  0
   14.9319  -14.8353   21.3306 C   0  0  0  0  0  0  0  0  0  0  0  0
   16.1392  -14.5554   21.7452 N   0  0  0  0  0  0  0  0  0  0  0  0
   13.9866  -15.4117   22.1920 N   0  0  0  0  0  0  0  0  0  0  0  0
   13.5879  -16.8143   21.9743 C   0  0  0  0  0  0  0  0  0  0  0  0
   12.6471  -17.1477   23.0663 C   0  0  0  0  0  0  0  0  0  0  0  0
   11.6838  -16.1945   23.5804 C   0  0  0  0  0  0  0  0  0  0  0  0
   10.6613  -16.4739   24.5979 C   0  0  2  0  0  0  0  0  0  0  0  0
    9.9532  -15.1402   24.7107 N   0  0  0  0  0  0  0  0  0  0  0  0
   11.0438  -16.8857   25.9392 C   0  0  0  0  0  0  0  0  0  0  0  0
   11.0345  -16.1952   26.9722 O   0  0  0  0  0  0  0  0  0  0  0  0
   11.4800  -18.2167   26.1257 O   0  0  0  0  0  0  0  0  0  0  0  0
  2  3  1  0
  2  1  1  6
  4  2  1  0
  4  5  1  6
  6  4  1  0
  7  6  2  0
  8  6  1  0
  9 12  1  0
  9  8  1  0
  9 10  1  1
 11 10  1  0
 12 22  1  0
 13 12  2  0
 15 14  1  0
 15 16  2  0
 17 15  1  0
 18 17  1  0
 19 18  1  0
 20 19  1  0
 21 20  1  6
 22 21  1  0
 23 25  1  0
 23 21  1  0
 24 23  2  0
M  END
$$$$
