TCR.pdb
     RDKit          3D

 25 24  0  0  1  0  0  0  0  0999 V2000
    9.5276  -17.7069   14.5194 C   0  0  0  0  0  0  0  0  0  0  0  0
    9.5983  -16.7734   15.6955 C   0  0  1  0  0  0  0  0  0  0  0  0
    8.8746  -15.6115   15.3860 O   0  0  0  0  0  0  0  0  0  0  0  0
    8.9984  -17.3738   16.9577 C   0  0  2  0  0  0  0  0  0  0  0  0
    7.5899  -17.6005   16.8259 N   0  0  0  0  0  0  0  0  0  0  0  0
    9.2887  -16.3864   18.0503 C   0  0  0  0  0  0  0  0  0  0  0  0
   10.4692  -16.0746   18.3497 O   0  0  0  0  0  0  0  0  0  0  0  0
    8.2479  -15.7530   18.8026 N   0  0  0  0  0  0  0  0  0  0  0  0
    8.5754  -14.9599   19.9490 C   0  0  1  0  0  0  0  0  0  0  0  0
    7.4321  -14.1065   20.4093 C   0  0  0  0  0  0  0  0  0  0  0  0
    6.8645  -13.0902   19.0078 S   0  0  0  0  0  0  0  0  0  0  0  0
    9.1261  -15.7985   21.0684 C   0  0  0  0  0  0  0  0  0  0  0  0
    8.8007  -17.0157   21.1395 O   0  0  0  0  0  0  0  0  0  0  0  0
   17.5127  -15.8511   22.8023 N   0  0  0  0  0  0  0  0  0  0  0  0
   16.9365  -16.8911   23.5992 C   0  0  0  0  0  0  0  0  0  0  0  0
   17.7499  -17.7322   24.1810 N   0  0  0  0  0  0  0  0  0  0  0  0
   15.5466  -17.0063   23.7504 N   0  0  0  0  0  0  0  0  0  0  0  0
   14.6697  -16.1166   22.9673 C   0  0  0  0  0  0  0  0  0  0  0  0
   13.2834  -16.4773   23.3375 C   0  0  0  0  0  0  0  0  0  0  0  0
   12.1278  -15.8500   22.7277 C   0  0  0  0  0  0  0  0  0  0  0  0
   10.7245  -16.1812   23.0101 C   0  0  2  0  0  0  0  0  0  0  0  0
    9.9854  -15.2871   22.0367 N   0  0  0  0  0  0  0  0  0  0  0  0
   10.1614  -15.9558   24.3318 C   0  0  0  0  0  0  0  0  0  0  0  0
   10.4681  -16.5291   25.3907 O   0  0  0  0  0  0  0  0  0  0  0  0
    9.1482  -14.9797   24.4639 O   0  0  0  0  0  0  0  0  0  0  0  0
  2  3  1  0
  2  1  1  6
  4  2  1  0
  4  5  1  6
  6  4  1  0
  7  6  2  0
  8  6  1  0
  9 12  1  0
  9  8  1  0
  9 10  1  1
 11 10  1  0
 12 22  1  0
 13 12  2  0
 15 14  1  0
 15 16  2  0
 17 15  1  0
 18 17  1  0
 19 18  1  0
 20 19  1  0
 21 20  1  1
 22 21  1  0
 23 25  1  0
 23 21  1  0
 24 23  2  0
M  END
$$$$
