TCR.pdb
     RDKit          3D

 25 24  0  0  1  0  0  0  0  0999 V2000
    8.7597  -16.2398   17.0796 C   0  0  0  0  0  0  0  0  0  0  0  0
    8.6638  -14.8115   16.6209 C   0  0  1  0  0  0  0  0  0  0  0  0
    8.3612  -14.8031   15.2506 O   0  0  0  0  0  0  0  0  0  0  0  0
    7.5737  -14.0353   17.3437 C   0  0  2  0  0  0  0  0  0  0  0  0
    7.3950  -12.7246   16.7937 N   0  0  0  0  0  0  0  0  0  0  0  0
    8.0120  -13.9665   18.7776 C   0  0  0  0  0  0  0  0  0  0  0  0
    9.0275  -13.3081   19.1175 O   0  0  0  0  0  0  0  0  0  0  0  0
    7.3046  -14.6400   19.8248 N   0  0  0  0  0  0  0  0  0  0  0  0
    7.8570  -14.6875   21.1451 C   0  0  1  0  0  0  0  0  0  0  0  0
    6.8441  -15.0648   22.1839 C   0  0  0  0  0  0  0  0  0  0  0  0
    7.6696  -15.1209   23.8071 S   0  0  0  0  0  0  0  0  0  0  0  0
    9.0718  -15.5705   21.2099 C   0  0  0  0  0  0  0  0  0  0  0  0
    9.0244  -16.7174   20.6853 O   0  0  0  0  0  0  0  0  0  0  0  0
   16.7400  -13.6750   18.3531 N   0  0  0  0  0  0  0  0  0  0  0  0
   16.0281  -14.7736   17.7743 C   0  0  0  0  0  0  0  0  0  0  0  0
   16.4796  -15.2660   16.6511 N   0  0  0  0  0  0  0  0  0  0  0  0
   14.8840  -15.3039   18.3888 N   0  0  0  0  0  0  0  0  0  0  0  0
   14.3942  -14.6854   19.6343 C   0  0  0  0  0  0  0  0  0  0  0  0
   13.2782  -15.5358   20.1034 C   0  0  0  0  0  0  0  0  0  0  0  0
   12.5126  -15.2263   21.2946 C   0  0  0  0  0  0  0  0  0  0  0  0
   11.4709  -16.0757   21.8882 C   0  0  2  0  0  0  0  0  0  0  0  0
   10.2549  -15.1754   21.8276 N   0  0  0  0  0  0  0  0  0  0  0  0
   11.5967  -16.5567   23.2547 C   0  0  0  0  0  0  0  0  0  0  0  0
   12.2319  -17.5487   23.6504 O   0  0  0  0  0  0  0  0  0  0  0  0
   10.9346  -15.8374   24.2751 O   0  0  0  0  0  0  0  0  0  0  0  0
  2  3  1  0
  2  1  1  1
  4  2  1  0
  4  5  1  6
  6  4  1  0
  7  6  2  0
  8  6  1  0
  9 12  1  0
  9  8  1  0
  9 10  1  1
 11 10  1  0
 12 22  1  0
 13 12  2  0
 15 14  1  0
 15 16  2  0
 17 15  1  0
 18 17  1  0
 19 18  1  0
 20 19  1  0
 21 20  1  1
 22 21  1  0
 23 25  1  0
 23 21  1  0
 24 23  2  0
M  END
$$$$
