TCR.pdb
     RDKit          3D

 25 24  0  0  1  0  0  0  0  0999 V2000
    6.5355  -14.4190   18.7808 C   0  0  0  0  0  0  0  0  0  0  0  0
    7.1449  -14.3977   20.1549 C   0  0  1  0  0  0  0  0  0  0  0  0
    8.4626  -14.8719   20.0651 O   0  0  0  0  0  0  0  0  0  0  0  0
    7.1922  -13.0004   20.7538 C   0  0  2  0  0  0  0  0  0  0  0  0
    7.9228  -12.0873   19.9262 N   0  0  0  0  0  0  0  0  0  0  0  0
    7.8470  -13.1595   22.0950 C   0  0  0  0  0  0  0  0  0  0  0  0
    9.0919  -13.0468   22.2296 O   0  0  0  0  0  0  0  0  0  0  0  0
    7.0973  -13.4451   23.2811 N   0  0  0  0  0  0  0  0  0  0  0  0
    7.7796  -13.7118   24.5115 C   0  0  1  0  0  0  0  0  0  0  0  0
    6.8920  -13.5635   25.7104 C   0  0  0  0  0  0  0  0  0  0  0  0
    5.2011  -13.1971   25.1399 S   0  0  0  0  0  0  0  0  0  0  0  0
    8.4635  -15.0503   24.4911 C   0  0  0  0  0  0  0  0  0  0  0  0
    7.8715  -16.0329   23.9653 O   0  0  0  0  0  0  0  0  0  0  0  0
   15.6433  -14.3460   20.5654 N   0  0  0  0  0  0  0  0  0  0  0  0
   14.6772  -15.2521   20.0227 C   0  0  0  0  0  0  0  0  0  0  0  0
   14.7388  -15.5114   18.7434 N   0  0  0  0  0  0  0  0  0  0  0  0
   13.6961  -15.8412   20.8340 N   0  0  0  0  0  0  0  0  0  0  0  0
   13.3257  -15.1779   22.0976 C   0  0  0  0  0  0  0  0  0  0  0  0
   12.3811  -16.0905   22.7785 C   0  0  0  0  0  0  0  0  0  0  0  0
   11.7710  -15.7681   24.0531 C   0  0  0  0  0  0  0  0  0  0  0  0
   10.5949  -16.4317   24.6322 C   0  0  2  0  0  0  0  0  0  0  0  0
    9.7303  -15.2542   25.0307 N   0  0  0  0  0  0  0  0  0  0  0  0
   10.7287  -17.2949   25.7948 C   0  0  0  0  0  0  0  0  0  0  0  0
   10.3505  -17.0620   26.9554 O   0  0  0  0  0  0  0  0  0  0  0  0
   11.3543  -18.5500   25.6212 O   0  0  0  0  0  0  0  0  0  0  0  0
  2  3  1  0
  2  1  1  6
  4  2  1  0
  4  5  1  6
  6  4  1  0
  7  6  2  0
  8  6  1  0
  9 12  1  0
  9  8  1  0
  9 10  1  1
 11 10  1  0
 12 22  1  0
 13 12  2  0
 15 14  1  0
 15 16  2  0
 17 15  1  0
 18 17  1  0
 19 18  1  0
 20 19  1  0
 21 20  1  1
 22 21  1  0
 23 25  1  0
 23 21  1  0
 24 23  2  0
M  END
$$$$
