TCR.pdb
     RDKit          3D

 25 24  0  0  1  0  0  0  0  0999 V2000
    8.6363  -15.0950   15.9450 C   0  0  0  0  0  0  0  0  0  0  0  0
    8.8181  -15.0523   17.4366 C   0  0  1  0  0  0  0  0  0  0  0  0
   10.1917  -15.1054   17.7196 O   0  0  0  0  0  0  0  0  0  0  0  0
    8.2629  -13.7804   18.0590 C   0  0  2  0  0  0  0  0  0  0  0  0
    8.9126  -12.6084   17.5523 N   0  0  0  0  0  0  0  0  0  0  0  0
    8.4828  -13.9263   19.5366 C   0  0  0  0  0  0  0  0  0  0  0  0
    9.4435  -13.3546   20.1118 O   0  0  0  0  0  0  0  0  0  0  0  0
    7.6195  -14.7160   20.3622 N   0  0  0  0  0  0  0  0  0  0  0  0
    7.8182  -14.7477   21.7800 C   0  0  1  0  0  0  0  0  0  0  0  0
    6.5538  -15.0237   22.5364 C   0  0  0  0  0  0  0  0  0  0  0  0
    6.9096  -14.9209   24.3203 S   0  0  0  0  0  0  0  0  0  0  0  0
    8.9148  -15.6998   22.1681 C   0  0  0  0  0  0  0  0  0  0  0  0
    9.1965  -16.6576   21.3962 O   0  0  0  0  0  0  0  0  0  0  0  0
   11.3118  -18.9973   29.1456 N   0  0  0  0  0  0  0  0  0  0  0  0
   12.2031  -17.8800   29.2221 C   0  0  0  0  0  0  0  0  0  0  0  0
   12.3700  -17.3145   30.3883 N   0  0  0  0  0  0  0  0  0  0  0  0
   12.8741  -17.4056   28.0852 N   0  0  0  0  0  0  0  0  0  0  0  0
   12.2992  -16.2689   27.3426 C   0  0  0  0  0  0  0  0  0  0  0  0
   12.0019  -16.7745   25.9844 C   0  0  0  0  0  0  0  0  0  0  0  0
   11.0653  -16.1142   25.0969 C   0  0  0  0  0  0  0  0  0  0  0  0
   10.7508  -16.5271   23.7224 C   0  0  2  0  0  0  0  0  0  0  0  0
    9.6379  -15.5700   23.3503 N   0  0  0  0  0  0  0  0  0  0  0  0
   10.2853  -17.8760   23.4421 C   0  0  0  0  0  0  0  0  0  0  0  0
    9.2288  -18.4051   23.8265 O   0  0  0  0  0  0  0  0  0  0  0  0
   11.1023  -18.7074   22.6433 O   0  0  0  0  0  0  0  0  0  0  0  0
  2  3  1  0
  2  1  1  6
  4  2  1  0
  4  5  1  6
  6  4  1  0
  7  6  2  0
  8  6  1  0
  9 12  1  0
  9  8  1  0
  9 10  1  1
 11 10  1  0
 12 22  1  0
 13 12  2  0
 15 14  1  0
 15 16  2  0
 17 15  1  0
 18 17  1  0
 19 18  1  0
 20 19  1  0
 21 20  1  1
 22 21  1  0
 23 25  1  0
 23 21  1  0
 24 23  2  0
M  END
$$$$
