ILL.pdb
     RDKit          3D

 25 24  0  0  1  0  0  0  0  0999 V2000
   26.6566  -18.7054  -18.9520 C   0  0  0  0  0  0  0  0  0  0  0  0
   27.0523  -19.3619  -17.6643 C   0  0  0  0  0  0  0  0  0  0  0  0
   25.8519  -19.8611  -16.8732 C   0  0  2  0  0  0  0  0  0  0  0  0
   24.9549  -18.6971  -16.6119 C   0  0  0  0  0  0  0  0  0  0  0  0
   26.3643  -20.5484  -15.6555 C   0  0  2  0  0  0  0  0  0  0  0  0
   27.2541  -21.6134  -16.0777 N   0  0  0  0  0  0  0  0  0  0  0  0
   25.3293  -21.0615  -14.7522 C   0  0  0  0  0  0  0  0  0  0  0  0
   24.5907  -22.0434  -14.9972 O   0  0  0  0  0  0  0  0  0  0  0  0
   25.3125  -20.5890   -9.0837 C   0  0  0  0  0  0  0  0  0  0  0  0
   25.0751  -21.3026  -10.4203 C   0  0  2  0  0  0  0  0  0  0  0  0
   26.3619  -21.7760  -11.0042 C   0  0  0  0  0  0  0  0  0  0  0  0
   24.3242  -20.3497  -11.2768 C   0  0  0  0  0  0  0  0  0  0  0  0
   24.0015  -20.8172  -12.6476 C   0  0  2  0  0  0  0  0  0  0  0  0
   25.1302  -20.4168  -13.5044 N   0  0  0  0  0  0  0  0  0  0  0  0
   22.7478  -20.1749  -13.1315 C   0  0  0  0  0  0  0  0  0  0  0  0
   22.8209  -18.9675  -13.4514 O   0  0  0  0  0  0  0  0  0  0  0  0
   18.5271  -19.2306  -16.2239 C   0  0  0  0  0  0  0  0  0  0  0  0
   20.0027  -19.1805  -16.2103 C   0  0  2  0  0  0  0  0  0  0  0  0
   20.4938  -19.4807  -17.6468 C   0  0  0  0  0  0  0  0  0  0  0  0
   20.7589  -20.0710  -15.3210 C   0  0  0  0  0  0  0  0  0  0  0  0
   20.3600  -20.3060  -13.9276 C   0  0  2  0  0  0  0  0  0  0  0  0
   21.5297  -20.8818  -13.2294 N   0  0  0  0  0  0  0  0  0  0  0  0
   19.2473  -21.2170  -13.6502 C   0  0  0  0  0  0  0  0  0  0  0  0
   19.3341  -22.6072  -13.5507 O   0  0  0  0  0  0  0  0  0  0  0  0
   18.0723  -20.7711  -13.4800 O   0  0  0  0  0  0  0  0  0  0  0  0
  2  1  1  0
  3  5  1  0
  3  2  1  0
  3  4  1  1
  5  6  1  6
  7  5  1  0
  7  8  2  0
 10  9  1  1
 11 10  1  0
 12 10  1  0
 13 12  1  1
 13 14  1  0
 14  7  1  0
 15 13  1  0
 16 15  2  0
 18 17  1  6
 18 20  1  0
 19 18  1  0
 21 20  1  6
 21 22  1  0
 21 23  1  0
 22 15  1  0
 23 24  1  0
 25 23  2  0
M  END
$$$$
