ILL.pdb
     RDKit          3D

 25 24  0  0  1  0  0  0  0  0999 V2000
   14.4841  -21.5234   -0.1186 C   0  0  0  0  0  0  0  0  0  0  0  0
   14.4342  -20.9000    1.2434 C   0  0  0  0  0  0  0  0  0  0  0  0
   15.7360  -20.2034    1.6120 C   0  0  2  0  0  0  0  0  0  0  0  0
   16.8245  -21.2247    1.6041 C   0  0  0  0  0  0  0  0  0  0  0  0
   15.5285  -19.5128    2.9150 C   0  0  2  0  0  0  0  0  0  0  0  0
   14.3011  -18.7445    2.8294 N   0  0  0  0  0  0  0  0  0  0  0  0
   16.6435  -18.6665    3.3519 C   0  0  0  0  0  0  0  0  0  0  0  0
   17.8234  -19.0607    3.5008 O   0  0  0  0  0  0  0  0  0  0  0  0
   17.3639  -12.6338    3.5262 C   0  0  0  0  0  0  0  0  0  0  0  0
   18.0923  -13.9569    3.7931 C   0  0  2  0  0  0  0  0  0  0  0  0
   19.3191  -14.0650    2.9539 C   0  0  0  0  0  0  0  0  0  0  0  0
   17.0968  -15.0360    3.5699 C   0  0  0  0  0  0  0  0  0  0  0  0
   17.5168  -16.4042    3.9616 C   0  0  2  0  0  0  0  0  0  0  0  0
   16.3941  -17.2985    3.6325 N   0  0  0  0  0  0  0  0  0  0  0  0
   17.7956  -16.4611    5.4236 C   0  0  0  0  0  0  0  0  0  0  0  0
   18.7615  -15.7833    5.8395 O   0  0  0  0  0  0  0  0  0  0  0  0
   17.4730  -14.4267    9.4754 C   0  0  0  0  0  0  0  0  0  0  0  0
   16.4095  -14.8633    8.5490 C   0  0  2  0  0  0  0  0  0  0  0  0
   15.0708  -14.2865    9.0689 C   0  0  0  0  0  0  0  0  0  0  0  0
   16.1800  -16.2949    8.3178 C   0  0  0  0  0  0  0  0  0  0  0  0
   17.2211  -17.1746    7.7717 C   0  0  2  0  0  0  0  0  0  0  0  0
   17.0164  -17.2377    6.3084 N   0  0  0  0  0  0  0  0  0  0  0  0
   17.2837  -18.5670    8.2216 C   0  0  0  0  0  0  0  0  0  0  0  0
   17.8041  -19.0100    9.4394 O   0  0  0  0  0  0  0  0  0  0  0  0
   16.8491  -19.5051    7.4871 O   0  0  0  0  0  0  0  0  0  0  0  0
  2  1  1  0
  3  5  1  0
  3  2  1  0
  3  4  1  1
  5  6  1  6
  7  5  1  0
  7  8  2  0
 10  9  1  6
 11 10  1  0
 12 10  1  0
 13 12  1  1
 13 14  1  0
 14  7  1  0
 15 13  1  0
 16 15  2  0
 18 17  1  1
 18 20  1  0
 19 18  1  0
 21 20  1  1
 21 22  1  0
 21 23  1  0
 22 15  1  0
 23 24  1  0
 25 23  2  0
M  END
$$$$
