ILL.pdb
     RDKit          3D

 25 24  0  0  1  0  0  0  0  0999 V2000
   20.5979  -19.1721  -16.2231 C   0  0  0  0  0  0  0  0  0  0  0  0
   21.2448  -19.3484  -14.8828 C   0  0  0  0  0  0  0  0  0  0  0  0
   22.6190  -19.9947  -14.9809 C   0  0  2  0  0  0  0  0  0  0  0  0
   22.4794  -21.2602  -15.7599 C   0  0  0  0  0  0  0  0  0  0  0  0
   23.1429  -20.1607  -13.5968 C   0  0  2  0  0  0  0  0  0  0  0  0
   23.2215  -18.8489  -12.9825 N   0  0  0  0  0  0  0  0  0  0  0  0
   24.4288  -20.8588  -13.5008 C   0  0  0  0  0  0  0  0  0  0  0  0
   24.6320  -22.0361  -13.8782 O   0  0  0  0  0  0  0  0  0  0  0  0
   27.5462  -20.9178  -15.5520 C   0  0  0  0  0  0  0  0  0  0  0  0
   27.6640  -19.6362  -14.7178 C   0  0  2  0  0  0  0  0  0  0  0  0
   28.7304  -18.7473  -15.2597 C   0  0  0  0  0  0  0  0  0  0  0  0
   27.8776  -20.0683  -13.3132 C   0  0  0  0  0  0  0  0  0  0  0  0
   26.8015  -20.8948  -12.7125 C   0  0  2  0  0  0  0  0  0  0  0  0
   25.5389  -20.1732  -12.9441 N   0  0  0  0  0  0  0  0  0  0  0  0
   27.0292  -21.0569  -11.2496 C   0  0  0  0  0  0  0  0  0  0  0  0
   28.0382  -21.7119  -10.9059 O   0  0  0  0  0  0  0  0  0  0  0  0
   27.7237  -18.3354   -6.1932 C   0  0  0  0  0  0  0  0  0  0  0  0
   27.5186  -19.6296   -6.8737 C   0  0  2  0  0  0  0  0  0  0  0  0
   28.8499  -20.4147   -6.7959 C   0  0  0  0  0  0  0  0  0  0  0  0
   27.1027  -19.6605   -8.2814 C   0  0  0  0  0  0  0  0  0  0  0  0
   26.3319  -20.7766   -8.8438 C   0  0  2  0  0  0  0  0  0  0  0  0
   26.1573  -20.5038  -10.2867 N   0  0  0  0  0  0  0  0  0  0  0  0
   24.9878  -21.0444   -8.3274 C   0  0  0  0  0  0  0  0  0  0  0  0
   24.6814  -21.8250   -7.2108 O   0  0  0  0  0  0  0  0  0  0  0  0
   23.9655  -20.5595   -8.9003 O   0  0  0  0  0  0  0  0  0  0  0  0
  2  1  1  0
  3  5  1  0
  3  2  1  0
  3  4  1  1
  5  6  1  6
  7  5  1  0
  7  8  2  0
 10  9  1  6
 11 10  1  0
 12 10  1  0
 13 12  1  1
 13 14  1  0
 14  7  1  0
 15 13  1  0
 16 15  2  0
 18 17  1  6
 18 20  1  0
 19 18  1  0
 21 20  1  1
 21 22  1  0
 21 23  1  0
 22 15  1  0
 23 24  1  0
 25 23  2  0
M  END
$$$$
