ILL.pdb
     RDKit          3D

 25 24  0  0  1  0  0  0  0  0999 V2000
   21.2181  -18.4378  -17.0385 C   0  0  0  0  0  0  0  0  0  0  0  0
   21.5998  -18.7329  -15.6197 C   0  0  0  0  0  0  0  0  0  0  0  0
   22.8478  -19.5984  -15.5214 C   0  0  2  0  0  0  0  0  0  0  0  0
   22.6056  -20.8479  -16.3010 C   0  0  0  0  0  0  0  0  0  0  0  0
   23.1453  -19.8040  -14.0767 C   0  0  2  0  0  0  0  0  0  0  0  0
   23.3150  -18.5021  -13.4600 N   0  0  0  0  0  0  0  0  0  0  0  0
   24.2981  -20.6666  -13.7985 C   0  0  0  0  0  0  0  0  0  0  0  0
   24.3931  -21.8661  -14.1476 O   0  0  0  0  0  0  0  0  0  0  0  0
   27.6834  -21.0762  -15.4476 C   0  0  0  0  0  0  0  0  0  0  0  0
   27.7864  -19.8160  -14.5796 C   0  0  2  0  0  0  0  0  0  0  0  0
   28.9883  -19.0156  -14.9479 C   0  0  0  0  0  0  0  0  0  0  0  0
   27.7622  -20.2763  -13.1678 C   0  0  0  0  0  0  0  0  0  0  0  0
   26.5373  -20.9932  -12.7348 C   0  0  2  0  0  0  0  0  0  0  0  0
   25.3984  -20.1274  -13.0837 N   0  0  0  0  0  0  0  0  0  0  0  0
   26.5649  -21.2223  -11.2634 C   0  0  0  0  0  0  0  0  0  0  0  0
   27.3651  -22.0874  -10.8431 O   0  0  0  0  0  0  0  0  0  0  0  0
   28.3428  -20.8979   -7.3671 C   0  0  0  0  0  0  0  0  0  0  0  0
   27.5423  -19.7899   -7.9252 C   0  0  2  0  0  0  0  0  0  0  0  0
   27.7409  -18.5607   -7.0062 C   0  0  0  0  0  0  0  0  0  0  0  0
   26.0926  -19.9463   -8.0976 C   0  0  0  0  0  0  0  0  0  0  0  0
   25.5171  -20.9642   -8.9857 C   0  0  2  0  0  0  0  0  0  0  0  0
   25.7344  -20.5056  -10.3747 N   0  0  0  0  0  0  0  0  0  0  0  0
   24.0872  -21.2660   -8.8890 C   0  0  0  0  0  0  0  0  0  0  0  0
   23.4442  -21.8347   -7.7875 O   0  0  0  0  0  0  0  0  0  0  0  0
   23.3064  -21.0193   -9.8575 O   0  0  0  0  0  0  0  0  0  0  0  0
  2  1  1  0
  3  5  1  0
  3  2  1  0
  3  4  1  1
  5  6  1  6
  7  5  1  0
  7  8  2  0
 10  9  1  6
 11 10  1  0
 12 10  1  0
 13 12  1  1
 13 14  1  0
 14  7  1  0
 15 13  1  0
 16 15  2  0
 18 17  1  1
 18 20  1  0
 19 18  1  0
 21 20  1  1
 21 22  1  0
 21 23  1  0
 22 15  1  0
 23 24  1  0
 25 23  2  0
M  END
$$$$
