ILL.pdb
     RDKit          3D

 25 24  0  0  1  0  0  0  0  0999 V2000
   21.1304  -18.3554  -16.0617 C   0  0  0  0  0  0  0  0  0  0  0  0
   21.4545  -18.8945  -14.7015 C   0  0  0  0  0  0  0  0  0  0  0  0
   22.8143  -19.5763  -14.6550 C   0  0  2  0  0  0  0  0  0  0  0  0
   22.8411  -20.6256  -15.7161 C   0  0  0  0  0  0  0  0  0  0  0  0
   23.0246  -20.0763  -13.2681 C   0  0  2  0  0  0  0  0  0  0  0  0
   22.9630  -18.9432  -12.3645 N   0  0  0  0  0  0  0  0  0  0  0  0
   24.2612  -20.8378  -13.0652 C   0  0  0  0  0  0  0  0  0  0  0  0
   24.4050  -22.0521  -13.3385 O   0  0  0  0  0  0  0  0  0  0  0  0
   30.1163  -19.6087  -12.6267 C   0  0  0  0  0  0  0  0  0  0  0  0
   29.0989  -20.7253  -12.3616 C   0  0  2  0  0  0  0  0  0  0  0  0
   29.4165  -21.9349  -13.1721 C   0  0  0  0  0  0  0  0  0  0  0  0
   27.7586  -20.1424  -12.6249 C   0  0  0  0  0  0  0  0  0  0  0  0
   26.5958  -20.9477  -12.1763 C   0  0  2  0  0  0  0  0  0  0  0  0
   25.3911  -20.1744  -12.5215 N   0  0  0  0  0  0  0  0  0  0  0  0
   26.6528  -21.1628  -10.7036 C   0  0  0  0  0  0  0  0  0  0  0  0
   27.5088  -21.9739  -10.2856 O   0  0  0  0  0  0  0  0  0  0  0  0
   28.3113  -20.9985   -6.3526 C   0  0  0  0  0  0  0  0  0  0  0  0
   27.9648  -19.9103   -7.2883 C   0  0  2  0  0  0  0  0  0  0  0  0
   28.4095  -18.5772   -6.6401 C   0  0  0  0  0  0  0  0  0  0  0  0
   26.5710  -19.7201   -7.7088 C   0  0  0  0  0  0  0  0  0  0  0  0
   25.8000  -20.7853   -8.3621 C   0  0  2  0  0  0  0  0  0  0  0  0
   25.7892  -20.4910   -9.8113 N   0  0  0  0  0  0  0  0  0  0  0  0
   24.3972  -20.9795   -7.9885 C   0  0  0  0  0  0  0  0  0  0  0  0
   23.3029  -20.9039   -8.8528 O   0  0  0  0  0  0  0  0  0  0  0  0
   24.0761  -21.2369   -6.7889 O   0  0  0  0  0  0  0  0  0  0  0  0
  2  1  1  0
  3  5  1  0
  3  2  1  0
  3  4  1  6
  5  6  1  1
  7  5  1  0
  7  8  2  0
 10  9  1  6
 11 10  1  0
 12 10  1  0
 13 12  1  1
 13 14  1  0
 14  7  1  0
 15 13  1  0
 16 15  2  0
 18 17  1  1
 18 20  1  0
 19 18  1  0
 21 20  1  1
 21 22  1  0
 21 23  1  0
 22 15  1  0
 23 24  1  0
 25 23  2  0
M  END
$$$$
