ILL.pdb
     RDKit          3D

 25 24  0  0  1  0  0  0  0  0999 V2000
   19.5975  -17.9812  -16.5799 C   0  0  0  0  0  0  0  0  0  0  0  0
   20.7698  -18.8001  -17.0283 C   0  0  0  0  0  0  0  0  0  0  0  0
   21.4737  -19.4910  -15.8695 C   0  0  2  0  0  0  0  0  0  0  0  0
   21.8113  -18.4543  -14.8502 C   0  0  0  0  0  0  0  0  0  0  0  0
   22.6395  -20.2336  -16.4238 C   0  0  2  0  0  0  0  0  0  0  0  0
   22.1442  -21.2022  -17.3834 N   0  0  0  0  0  0  0  0  0  0  0  0
   23.4937  -20.8814  -15.4233 C   0  0  0  0  0  0  0  0  0  0  0  0
   23.2379  -21.9737  -14.8656 O   0  0  0  0  0  0  0  0  0  0  0  0
   26.9093  -22.9200  -15.6227 C   0  0  0  0  0  0  0  0  0  0  0  0
   27.2823  -21.4497  -15.8489 C   0  0  2  0  0  0  0  0  0  0  0  0
   28.6975  -21.3252  -16.2991 C   0  0  0  0  0  0  0  0  0  0  0  0
   26.9747  -20.7393  -14.5816 C   0  0  0  0  0  0  0  0  0  0  0  0
   25.5926  -20.8940  -14.0642 C   0  0  2  0  0  0  0  0  0  0  0  0
   24.7031  -20.2453  -15.0422 N   0  0  0  0  0  0  0  0  0  0  0  0
   25.4584  -20.2266  -12.7395 C   0  0  0  0  0  0  0  0  0  0  0  0
   25.5210  -18.9771  -12.7295 O   0  0  0  0  0  0  0  0  0  0  0  0
   22.1568  -19.1090  -10.4572 C   0  0  0  0  0  0  0  0  0  0  0  0
   22.6190  -20.4888  -10.2073 C   0  0  2  0  0  0  0  0  0  0  0  0
   21.5831  -21.1679   -9.2795 C   0  0  0  0  0  0  0  0  0  0  0  0
   23.9344  -20.7232   -9.5987 C   0  0  0  0  0  0  0  0  0  0  0  0
   25.1801  -20.2765  -10.2349 C   0  0  2  0  0  0  0  0  0  0  0  0
   25.2695  -20.9559  -11.5454 N   0  0  0  0  0  0  0  0  0  0  0  0
   26.4555  -20.5414   -9.5654 C   0  0  0  0  0  0  0  0  0  0  0  0
   26.8775  -19.9797   -8.3586 O   0  0  0  0  0  0  0  0  0  0  0  0
   27.3010  -21.3378  -10.0747 O   0  0  0  0  0  0  0  0  0  0  0  0
  2  1  1  0
  3  5  1  0
  3  2  1  0
  3  4  1  1
  5  6  1  6
  7  5  1  0
  7  8  2  0
 10  9  1  1
 11 10  1  0
 12 10  1  0
 13 12  1  6
 13 14  1  0
 14  7  1  0
 15 13  1  0
 16 15  2  0
 18 17  1  1
 18 20  1  0
 19 18  1  0
 21 20  1  1
 21 22  1  0
 21 23  1  0
 22 15  1  0
 23 24  1  0
 25 23  2  0
M  END
$$$$
