ILL.pdb
     RDKit          3D

 25 24  0  0  1  0  0  0  0  0999 V2000
   19.6898  -12.1427  -22.0775 C   0  0  0  0  0  0  0  0  0  0  0  0
   20.0522  -12.3767  -20.6423 C   0  0  0  0  0  0  0  0  0  0  0  0
   20.0696  -11.0900  -19.8298 C   0  0  2  0  0  0  0  0  0  0  0  0
   21.1262  -10.2007  -20.3961 C   0  0  0  0  0  0  0  0  0  0  0  0
   20.2558  -11.4587  -18.3990 C   0  0  2  0  0  0  0  0  0  0  0  0
   19.2785  -12.4767  -18.0633 N   0  0  0  0  0  0  0  0  0  0  0  0
   20.1852  -10.3376  -17.4564 C   0  0  0  0  0  0  0  0  0  0  0  0
   19.1286   -9.7576  -17.1146 O   0  0  0  0  0  0  0  0  0  0  0  0
   21.1581   -9.3761  -13.0677 C   0  0  0  0  0  0  0  0  0  0  0  0
   22.3078   -9.8755  -13.9514 C   0  0  2  0  0  0  0  0  0  0  0  0
   23.5297  -10.1304  -13.1373 C   0  0  0  0  0  0  0  0  0  0  0  0
   22.4826   -8.8631  -15.0237 C   0  0  0  0  0  0  0  0  0  0  0  0
   21.3447   -8.7018  -15.9623 C   0  0  2  0  0  0  0  0  0  0  0  0
   21.3866   -9.8563  -16.8755 N   0  0  0  0  0  0  0  0  0  0  0  0
   21.4893   -7.4389  -16.7385 C   0  0  0  0  0  0  0  0  0  0  0  0
   22.2664   -7.4662  -17.7186 O   0  0  0  0  0  0  0  0  0  0  0  0
   20.9189   -3.4075  -19.7681 C   0  0  0  0  0  0  0  0  0  0  0  0
   20.3068   -4.7502  -19.8174 C   0  0  2  0  0  0  0  0  0  0  0  0
   18.8354   -4.5770  -20.2647 C   0  0  0  0  0  0  0  0  0  0  0  0
   20.2758   -5.5872  -18.6115 C   0  0  0  0  0  0  0  0  0  0  0  0
   20.7473   -5.0988  -17.3095 C   0  0  2  0  0  0  0  0  0  0  0  0
   20.7900   -6.2612  -16.3962 N   0  0  0  0  0  0  0  0  0  0  0  0
   19.9682   -4.0753  -16.6091 C   0  0  0  0  0  0  0  0  0  0  0  0
   19.1560   -4.2873  -15.4931 O   0  0  0  0  0  0  0  0  0  0  0  0
   19.9825   -2.8694  -17.0013 O   0  0  0  0  0  0  0  0  0  0  0  0
  2  1  1  0
  3  5  1  0
  3  2  1  0
  3  4  1  6
  5  6  1  1
  7  5  1  0
  7  8  2  0
 10  9  1  1
 11 10  1  0
 12 10  1  0
 13 12  1  1
 13 14  1  0
 14  7  1  0
 15 13  1  0
 16 15  2  0
 18 17  1  1
 18 20  1  0
 19 18  1  0
 21 20  1  6
 21 22  1  0
 21 23  1  0
 22 15  1  0
 23 24  1  0
 25 23  2  0
M  END
$$$$
