ILL.pdb
     RDKit          3D

 25 24  0  0  1  0  0  0  0  0999 V2000
   19.3278  -19.4080  -13.8077 C   0  0  0  0  0  0  0  0  0  0  0  0
   20.6684  -19.1420  -14.4224 C   0  0  0  0  0  0  0  0  0  0  0  0
   21.7369  -20.1054  -13.9264 C   0  0  2  0  0  0  0  0  0  0  0  0
   21.7214  -20.0835  -12.4340 C   0  0  0  0  0  0  0  0  0  0  0  0
   23.0303  -19.7093  -14.5495 C   0  0  2  0  0  0  0  0  0  0  0  0
   22.8437  -19.6612  -15.9873 N   0  0  0  0  0  0  0  0  0  0  0  0
   24.1722  -20.5605  -14.2006 C   0  0  0  0  0  0  0  0  0  0  0  0
   24.3106  -21.7525  -14.5606 O   0  0  0  0  0  0  0  0  0  0  0  0
   27.7982  -20.8212  -15.6648 C   0  0  0  0  0  0  0  0  0  0  0  0
   27.7301  -19.5346  -14.8328 C   0  0  2  0  0  0  0  0  0  0  0  0
   28.9157  -18.6706  -15.0949 C   0  0  0  0  0  0  0  0  0  0  0  0
   27.5778  -19.9581  -13.4176 C   0  0  0  0  0  0  0  0  0  0  0  0
   26.4099  -20.8222  -13.1158 C   0  0  2  0  0  0  0  0  0  0  0  0
   25.2087  -20.0184  -13.3980 N   0  0  0  0  0  0  0  0  0  0  0  0
   26.4217  -21.2258  -11.6822 C   0  0  0  0  0  0  0  0  0  0  0  0
   26.9676  -22.3180  -11.4092 O   0  0  0  0  0  0  0  0  0  0  0  0
   28.4643  -20.8260   -7.7260 C   0  0  0  0  0  0  0  0  0  0  0  0
   27.5861  -19.7431   -8.2117 C   0  0  2  0  0  0  0  0  0  0  0  0
   27.7343  -18.5491   -7.2384 C   0  0  0  0  0  0  0  0  0  0  0  0
   26.1444  -19.9784   -8.3597 C   0  0  0  0  0  0  0  0  0  0  0  0
   25.6066  -20.9579   -9.3123 C   0  0  2  0  0  0  0  0  0  0  0  0
   25.8488  -20.4251  -10.6704 N   0  0  0  0  0  0  0  0  0  0  0  0
   24.1800  -21.2861   -9.2658 C   0  0  0  0  0  0  0  0  0  0  0  0
   23.2747  -21.1486  -10.3202 O   0  0  0  0  0  0  0  0  0  0  0  0
   23.6530  -21.7347   -8.2031 O   0  0  0  0  0  0  0  0  0  0  0  0
  2  1  1  0
  3  5  1  0
  3  2  1  0
  3  4  1  1
  5  6  1  6
  7  5  1  0
  7  8  2  0
 10  9  1  6
 11 10  1  0
 12 10  1  0
 13 12  1  1
 13 14  1  0
 14  7  1  0
 15 13  1  0
 16 15  2  0
 18 17  1  1
 18 20  1  0
 19 18  1  0
 21 20  1  1
 21 22  1  0
 21 23  1  0
 22 15  1  0
 23 24  1  0
 25 23  2  0
M  END
$$$$
