ILL.pdb
     RDKit          3D

 25 24  0  0  1  0  0  0  0  0999 V2000
   20.4363  -18.3622  -17.2049 C   0  0  0  0  0  0  0  0  0  0  0  0
   20.8410  -19.0073  -15.9143 C   0  0  0  0  0  0  0  0  0  0  0  0
   22.2295  -19.6264  -15.9840 C   0  0  2  0  0  0  0  0  0  0  0  0
   22.2245  -20.6502  -17.0702 C   0  0  0  0  0  0  0  0  0  0  0  0
   22.5638  -20.1461  -14.6290 C   0  0  2  0  0  0  0  0  0  0  0  0
   22.5361  -19.0337  -13.6984 N   0  0  0  0  0  0  0  0  0  0  0  0
   23.8366  -20.8687  -14.5395 C   0  0  0  0  0  0  0  0  0  0  0  0
   24.0888  -21.9462  -15.1269 O   0  0  0  0  0  0  0  0  0  0  0  0
   26.5494  -18.1530  -13.6331 C   0  0  0  0  0  0  0  0  0  0  0  0
   27.7038  -19.0598  -14.0772 C   0  0  2  0  0  0  0  0  0  0  0  0
   28.5838  -18.3577  -15.0536 C   0  0  0  0  0  0  0  0  0  0  0  0
   27.0830  -20.3063  -14.5935 C   0  0  0  0  0  0  0  0  0  0  0  0
   26.1733  -21.0180  -13.6620 C   0  0  2  0  0  0  0  0  0  0  0  0
   24.8738  -20.3293  -13.7360 N   0  0  0  0  0  0  0  0  0  0  0  0
   26.7015  -20.9512  -12.2710 C   0  0  0  0  0  0  0  0  0  0  0  0
   27.7616  -21.5744  -12.0406 O   0  0  0  0  0  0  0  0  0  0  0  0
   27.3691  -18.9547   -6.7385 C   0  0  0  0  0  0  0  0  0  0  0  0
   27.1514  -20.1023   -7.6415 C   0  0  2  0  0  0  0  0  0  0  0  0
   28.3959  -21.0170   -7.5435 C   0  0  0  0  0  0  0  0  0  0  0  0
   26.9176  -19.8755   -9.0732 C   0  0  0  0  0  0  0  0  0  0  0  0
   26.0077  -20.7182   -9.8592 C   0  0  2  0  0  0  0  0  0  0  0  0
   26.0482  -20.2239  -11.2524 N   0  0  0  0  0  0  0  0  0  0  0  0
   24.5891  -20.7631   -9.4976 C   0  0  0  0  0  0  0  0  0  0  0  0
   23.5273  -20.3393  -10.2995 O   0  0  0  0  0  0  0  0  0  0  0  0
   24.2223  -21.2099   -8.3688 O   0  0  0  0  0  0  0  0  0  0  0  0
  2  1  1  0
  3  5  1  0
  3  2  1  0
  3  4  1  6
  5  6  1  1
  7  5  1  0
  7  8  2  0
 10  9  1  6
 11 10  1  0
 12 10  1  0
 13 12  1  6
 13 14  1  0
 14  7  1  0
 15 13  1  0
 16 15  2  0
 18 17  1  1
 18 20  1  0
 19 18  1  0
 21 20  1  1
 21 22  1  0
 21 23  1  0
 22 15  1  0
 23 24  1  0
 25 23  2  0
M  END
$$$$
