ILL.pdb
     RDKit          3D

 25 24  0  0  1  0  0  0  0  0999 V2000
   20.0297  -12.4656  -20.6249 C   0  0  0  0  0  0  0  0  0  0  0  0
   20.7331  -13.1794  -19.5106 C   0  0  0  0  0  0  0  0  0  0  0  0
   22.0575  -13.7849  -19.9525 C   0  0  2  0  0  0  0  0  0  0  0  0
   21.7748  -14.7746  -21.0334 C   0  0  0  0  0  0  0  0  0  0  0  0
   22.7269  -14.3435  -18.7452 C   0  0  2  0  0  0  0  0  0  0  0  0
   21.8988  -15.4140  -18.2233 N   0  0  0  0  0  0  0  0  0  0  0  0
   23.0333  -13.3639  -17.6979 C   0  0  0  0  0  0  0  0  0  0  0  0
   22.3285  -13.1605  -16.6822 O   0  0  0  0  0  0  0  0  0  0  0  0
   26.4918  -12.6872  -15.1052 C   0  0  0  0  0  0  0  0  0  0  0  0
   26.8105  -12.3238  -16.5608 C   0  0  2  0  0  0  0  0  0  0  0  0
   28.2622  -12.0316  -16.7283 C   0  0  0  0  0  0  0  0  0  0  0  0
   25.9106  -11.1980  -16.9185 C   0  0  0  0  0  0  0  0  0  0  0  0
   24.4552  -11.4824  -16.8669 C   0  0  2  0  0  0  0  0  0  0  0  0
   24.2071  -12.5769  -17.8204 N   0  0  0  0  0  0  0  0  0  0  0  0
   23.6780  -10.2771  -17.2685 C   0  0  0  0  0  0  0  0  0  0  0  0
   23.6213  -10.0259  -18.4929 O   0  0  0  0  0  0  0  0  0  0  0  0
   20.4803   -7.2903  -19.3476 C   0  0  0  0  0  0  0  0  0  0  0  0
   20.7428   -8.6542  -18.8469 C   0  0  2  0  0  0  0  0  0  0  0  0
   19.5141   -9.5263  -19.2000 C   0  0  0  0  0  0  0  0  0  0  0  0
   21.0080   -8.8734  -17.4195 C   0  0  0  0  0  0  0  0  0  0  0  0
   22.1876   -8.3120  -16.7491 C   0  0  2  0  0  0  0  0  0  0  0  0
   23.0317   -9.4497  -16.3247 N   0  0  0  0  0  0  0  0  0  0  0  0
   22.0011   -7.4906  -15.5510 C   0  0  0  0  0  0  0  0  0  0  0  0
   22.3195   -7.8665  -14.2443 O   0  0  0  0  0  0  0  0  0  0  0  0
   21.5064   -6.3259  -15.6349 O   0  0  0  0  0  0  0  0  0  0  0  0
  2  1  1  0
  3  5  1  0
  3  2  1  0
  3  4  1  6
  5  6  1  1
  7  5  1  0
  7  8  2  0
 10  9  1  1
 11 10  1  0
 12 10  1  0
 13 12  1  6
 13 14  1  0
 14  7  1  0
 15 13  1  0
 16 15  2  0
 18 17  1  1
 18 20  1  0
 19 18  1  0
 21 20  1  1
 21 22  1  0
 21 23  1  0
 22 15  1  0
 23 24  1  0
 25 23  2  0
M  END
$$$$
