ILL.pdb
     RDKit          3D

 25 24  0  0  1  0  0  0  0  0999 V2000
   21.5152  -18.3644  -17.2713 C   0  0  0  0  0  0  0  0  0  0  0  0
   21.9209  -18.4491  -15.8312 C   0  0  0  0  0  0  0  0  0  0  0  0
   22.9997  -19.4954  -15.5917 C   0  0  2  0  0  0  0  0  0  0  0  0
   22.4865  -20.8083  -16.0823 C   0  0  0  0  0  0  0  0  0  0  0  0
   23.3560  -19.4579  -14.1461 C   0  0  2  0  0  0  0  0  0  0  0  0
   23.7411  -18.1003  -13.8103 N   0  0  0  0  0  0  0  0  0  0  0  0
   24.3945  -20.4098  -13.7393 C   0  0  0  0  0  0  0  0  0  0  0  0
   24.3365  -21.6487  -13.9167 O   0  0  0  0  0  0  0  0  0  0  0  0
   30.2855  -19.9233  -12.4772 C   0  0  0  0  0  0  0  0  0  0  0  0
   29.1180  -20.9176  -12.4564 C   0  0  2  0  0  0  0  0  0  0  0  0
   29.3908  -22.0741  -13.3559 C   0  0  0  0  0  0  0  0  0  0  0  0
   27.9002  -20.1417  -12.8034 C   0  0  0  0  0  0  0  0  0  0  0  0
   26.6076  -20.8571  -12.6648 C   0  0  2  0  0  0  0  0  0  0  0  0
   25.5592  -19.9174  -13.0964 N   0  0  0  0  0  0  0  0  0  0  0  0
   26.3821  -21.2477  -11.2454 C   0  0  0  0  0  0  0  0  0  0  0  0
   26.7691  -22.3883  -10.9069 O   0  0  0  0  0  0  0  0  0  0  0  0
   28.2369  -20.9705   -7.2785 C   0  0  0  0  0  0  0  0  0  0  0  0
   27.4890  -19.8301   -7.8441 C   0  0  2  0  0  0  0  0  0  0  0  0
   27.7542  -18.6025   -6.9399 C   0  0  0  0  0  0  0  0  0  0  0  0
   26.0323  -19.9161   -8.0065 C   0  0  0  0  0  0  0  0  0  0  0  0
   25.4058  -20.8434   -8.9572 C   0  0  2  0  0  0  0  0  0  0  0  0
   25.7632  -20.3833  -10.3164 N   0  0  0  0  0  0  0  0  0  0  0  0
   23.9479  -20.9831   -8.9587 C   0  0  0  0  0  0  0  0  0  0  0  0
   23.1770  -21.5211   -7.9259 O   0  0  0  0  0  0  0  0  0  0  0  0
   23.2623  -20.6072   -9.9572 O   0  0  0  0  0  0  0  0  0  0  0  0
  2  1  1  0
  3  5  1  0
  3  2  1  0
  3  4  1  1
  5  6  1  6
  7  5  1  0
  7  8  2  0
 10  9  1  6
 11 10  1  0
 12 10  1  0
 13 12  1  1
 13 14  1  0
 14  7  1  0
 15 13  1  0
 16 15  2  0
 18 17  1  1
 18 20  1  0
 19 18  1  0
 21 20  1  1
 21 22  1  0
 21 23  1  0
 22 15  1  0
 23 24  1  0
 25 23  2  0
M  END
$$$$
