FHK.pdb
     RDKit          3D

 31 32  0  0  1  0  0  0  0  0999 V2000
    5.6405  -17.9089   25.2583 N   0  0  0  0  0  0  0  0  0  0  0  0
    6.0186  -16.5096   25.1774 C   0  0  1  0  0  0  0  0  0  0  0  0
    7.0095  -16.2953   26.3302 C   0  0  0  0  0  0  0  0  0  0  0  0
    7.3298  -14.8604   26.4863 C   0  0  0  0  0  0  0  0  0  0  0  0
    8.6408  -14.4222   26.4401 C   0  0  0  0  0  0  0  0  0  0  0  0
    8.9438  -13.0845   26.5831 C   0  0  0  0  0  0  0  0  0  0  0  0
    7.9554  -12.1418   26.7762 C   0  0  0  0  0  0  0  0  0  0  0  0
    6.6473  -12.5838   26.8218 C   0  0  0  0  0  0  0  0  0  0  0  0
    6.3249  -13.9379   26.6782 C   0  0  0  0  0  0  0  0  0  0  0  0
    6.8141  -16.3394   23.9283 C   0  0  0  0  0  0  0  0  0  0  0  0
    7.5772  -17.2325   23.4863 O   0  0  0  0  0  0  0  0  0  0  0  0
    6.7475  -15.1251   23.1525 N   0  0  0  0  0  0  0  0  0  0  0  0
    7.4685  -15.0039   21.9340 C   0  0  1  0  0  0  0  0  0  0  0  0
    7.0778  -13.9028   21.0243 C   0  0  0  0  0  0  0  0  0  0  0  0
    7.7389  -13.8284   19.7274 C   0  0  0  0  0  0  0  0  0  0  0  0
    8.5256  -12.9114   19.1114 C   0  0  0  0  0  0  0  0  0  0  0  0
    8.8802  -13.3904   17.8901 N   0  0  0  0  0  0  0  0  0  0  0  0
    8.3216  -14.5851   17.7535 C   0  0  0  0  0  0  0  0  0  0  0  0
    7.6322  -14.8703   18.8420 N   0  0  0  0  0  0  0  0  0  0  0  0
    8.9525  -15.0053   22.2025 C   0  0  0  0  0  0  0  0  0  0  0  0
    9.3268  -14.6156   23.3303 O   0  0  0  0  0  0  0  0  0  0  0  0
    9.8887  -15.4158   21.2562 N   0  0  0  0  0  0  0  0  0  0  0  0
   11.2685  -15.9338   21.6809 C   0  0  1  0  0  0  0  0  0  0  0  0
   11.0196  -16.9478   22.6855 C   0  0  0  0  0  0  0  0  0  0  0  0
   11.9005  -17.6187   23.6113 C   0  0  0  0  0  0  0  0  0  0  0  0
   11.5579  -18.6362   24.5887 C   0  0  0  0  0  0  0  0  0  0  0  0
   12.4888  -19.1814   25.5877 C   0  0  0  0  0  0  0  0  0  0  0  0
   12.0272  -19.0608   26.9563 N   0  0  0  0  0  0  0  0  0  0  0  0
   12.0328  -16.1190   20.4726 C   0  0  0  0  0  0  0  0  0  0  0  0
   11.6194  -16.4163   19.3419 O   0  0  0  0  0  0  0  0  0  0  0  0
   13.4394  -15.9477   20.5459 O   0  0  0  0  0  0  0  0  0  0  0  0
  2  1  1  1
  2  3  1  0
  3  4  1  0
  4  9  1  0
  4  5  2  0
  5  6  1  0
  6  7  2  0
  8  7  1  0
  9  8  2  0
 10  2  1  0
 10 12  1  0
 11 10  2  0
 13 12  1  0
 13 14  1  1
 15 14  1  0
 15 16  2  0
 17 16  1  0
 18 17  1  0
 19 18  2  0
 19 15  1  0
 20 13  1  0
 21 20  2  0
 22 20  1  0
 23 24  1  6
 23 22  1  0
 25 24  1  0
 26 25  1  0
 26 27  1  0
 27 28  1  0
 29 23  1  0
 30 29  2  0
 31 29  1  0
M  END
$$$$
