FHK.pdb
     RDKit          3D

 31 32  0  0  1  0  0  0  0  0999 V2000
    9.2875  -16.9342   29.0124 N   0  0  0  0  0  0  0  0  0  0  0  0
    8.4690  -16.2284   28.0432 C   0  0  1  0  0  0  0  0  0  0  0  0
    9.2595  -14.9575   27.7015 C   0  0  0  0  0  0  0  0  0  0  0  0
    8.4579  -14.0553   26.8474 C   0  0  0  0  0  0  0  0  0  0  0  0
    8.8236  -13.8185   25.5348 C   0  0  0  0  0  0  0  0  0  0  0  0
    8.0776  -12.9794   24.7342 C   0  0  0  0  0  0  0  0  0  0  0  0
    6.9467  -12.3502   25.2119 C   0  0  0  0  0  0  0  0  0  0  0  0
    6.5850  -12.5894   26.5236 C   0  0  0  0  0  0  0  0  0  0  0  0
    7.3323  -13.4384   27.3476 C   0  0  0  0  0  0  0  0  0  0  0  0
    8.4619  -17.0436   26.7953 C   0  0  0  0  0  0  0  0  0  0  0  0
    9.4925  -17.6030   26.3478 O   0  0  0  0  0  0  0  0  0  0  0  0
    7.2557  -17.2351   26.0276 N   0  0  0  0  0  0  0  0  0  0  0  0
    7.2544  -18.0689   24.8769 C   0  0  1  0  0  0  0  0  0  0  0  0
    5.9918  -18.7712   24.5528 C   0  0  0  0  0  0  0  0  0  0  0  0
    5.9947  -19.6788   23.4123 C   0  0  0  0  0  0  0  0  0  0  0  0
    6.9388  -20.1022   22.5354 C   0  0  0  0  0  0  0  0  0  0  0  0
    6.3688  -20.9837   21.6723 N   0  0  0  0  0  0  0  0  0  0  0  0
    5.0925  -21.1035   22.0107 C   0  0  0  0  0  0  0  0  0  0  0  0
    4.8436  -20.3311   23.0513 N   0  0  0  0  0  0  0  0  0  0  0  0
    7.7960  -17.3178   23.6866 C   0  0  0  0  0  0  0  0  0  0  0  0
    6.9684  -16.9344   22.8312 O   0  0  0  0  0  0  0  0  0  0  0  0
    9.1526  -17.0487   23.5196 N   0  0  0  0  0  0  0  0  0  0  0  0
    9.6784  -16.4009   22.2326 C   0  0  1  0  0  0  0  0  0  0  0  0
    8.8044  -15.2757   21.9691 C   0  0  0  0  0  0  0  0  0  0  0  0
    8.8267  -14.2626   20.9413 C   0  0  0  0  0  0  0  0  0  0  0  0
    7.7215  -13.8025   20.1198 C   0  0  0  0  0  0  0  0  0  0  0  0
    7.8577  -12.9028   18.9649 C   0  0  0  0  0  0  0  0  0  0  0  0
    6.5989  -12.5378   18.3460 N   0  0  0  0  0  0  0  0  0  0  0  0
   11.1135  -16.3385   22.3550 C   0  0  0  0  0  0  0  0  0  0  0  0
   11.9524  -16.1630   21.4587 O   0  0  0  0  0  0  0  0  0  0  0  0
   11.6752  -16.4923   23.6488 O   0  0  0  0  0  0  0  0  0  0  0  0
  2  1  1  1
  2  3  1  0
  3  4  1  0
  4  9  1  0
  4  5  2  0
  5  6  1  0
  6  7  2  0
  8  7  1  0
  9  8  2  0
 10  2  1  0
 10 12  1  0
 11 10  2  0
 13 12  1  0
 13 14  1  6
 15 14  1  0
 15 16  2  0
 17 16  1  0
 18 17  1  0
 19 18  2  0
 19 15  1  0
 20 13  1  0
 21 20  2  0
 22 20  1  0
 23 24  1  1
 23 22  1  0
 25 24  1  0
 26 25  1  0
 26 27  1  0
 27 28  1  0
 29 23  1  0
 30 29  2  0
 31 29  1  0
M  END
$$$$
