FHK.pdb
     RDKit          3D

 31 32  0  0  1  0  0  0  0  0999 V2000
    5.6376  -17.5494   24.4682 N   0  0  0  0  0  0  0  0  0  0  0  0
    6.2370  -16.2327   24.5892 C   0  0  1  0  0  0  0  0  0  0  0  0
    6.5831  -16.0856   26.0777 C   0  0  0  0  0  0  0  0  0  0  0  0
    7.0439  -14.7127   26.3756 C   0  0  0  0  0  0  0  0  0  0  0  0
    6.1397  -13.6701   26.4652 C   0  0  0  0  0  0  0  0  0  0  0  0
    6.5650  -12.3884   26.7448 C   0  0  0  0  0  0  0  0  0  0  0  0
    7.8999  -12.1031   26.9440 C   0  0  0  0  0  0  0  0  0  0  0  0
    8.7997  -13.1475   26.8536 C   0  0  0  0  0  0  0  0  0  0  0  0
    8.3827  -14.4529   26.5705 C   0  0  0  0  0  0  0  0  0  0  0  0
    7.5452  -16.2766   23.8761 C   0  0  0  0  0  0  0  0  0  0  0  0
    8.2847  -17.2907   23.8829 O   0  0  0  0  0  0  0  0  0  0  0  0
    8.0355  -15.1426   23.1314 N   0  0  0  0  0  0  0  0  0  0  0  0
    9.2285  -15.2403   22.3654 C   0  0  1  0  0  0  0  0  0  0  0  0
    9.3998  -14.2751   21.2557 C   0  0  0  0  0  0  0  0  0  0  0  0
    8.3789  -14.2503   20.2156 C   0  0  0  0  0  0  0  0  0  0  0  0
    7.2720  -14.9878   19.9508 C   0  0  0  0  0  0  0  0  0  0  0  0
    6.6734  -14.4918   18.8361 N   0  0  0  0  0  0  0  0  0  0  0  0
    7.3989  -13.4634   18.4188 C   0  0  0  0  0  0  0  0  0  0  0  0
    8.4269  -13.2984   19.2294 N   0  0  0  0  0  0  0  0  0  0  0  0
   10.4321  -15.2652   23.2736 C   0  0  0  0  0  0  0  0  0  0  0  0
   10.3387  -14.6509   24.3588 O   0  0  0  0  0  0  0  0  0  0  0  0
   11.6096  -15.9333   22.9453 N   0  0  0  0  0  0  0  0  0  0  0  0
   12.5542  -16.4545   24.0355 C   0  0  1  0  0  0  0  0  0  0  0  0
   11.7279  -17.2291   24.9393 C   0  0  0  0  0  0  0  0  0  0  0  0
   11.9981  -17.7982   26.2379 C   0  0  0  0  0  0  0  0  0  0  0  0
   11.3651  -18.9499   26.8549 C   0  0  0  0  0  0  0  0  0  0  0  0
   11.7775  -19.5430   28.1356 C   0  0  0  0  0  0  0  0  0  0  0  0
   10.9358  -20.6354   28.5814 N   0  0  0  0  0  0  0  0  0  0  0  0
   13.7394  -16.9295   23.3662 C   0  0  0  0  0  0  0  0  0  0  0  0
   13.8400  -17.8619   22.5548 O   0  0  0  0  0  0  0  0  0  0  0  0
   14.9657  -16.2724   23.6447 O   0  0  0  0  0  0  0  0  0  0  0  0
  2  1  1  1
  2  3  1  0
  3  4  1  0
  4  9  1  0
  4  5  2  0
  5  6  1  0
  6  7  2  0
  8  7  1  0
  9  8  2  0
 10  2  1  0
 10 12  1  0
 11 10  2  0
 13 12  1  0
 13 14  1  6
 15 14  1  0
 15 16  2  0
 17 16  1  0
 18 17  1  0
 19 18  2  0
 19 15  1  0
 20 13  1  0
 21 20  2  0
 22 20  1  0
 23 24  1  6
 23 22  1  0
 25 24  1  0
 26 25  1  0
 26 27  1  0
 27 28  1  0
 29 23  1  0
 30 29  2  0
 31 29  1  0
M  END
$$$$
