FHK.pdb
     RDKit          3D

 31 32  0  0  1  0  0  0  0  0999 V2000
    5.5430  -17.3956   24.0662 N   0  0  0  0  0  0  0  0  0  0  0  0
    6.1884  -16.1040   24.2170 C   0  0  1  0  0  0  0  0  0  0  0  0
    6.4288  -15.9503   25.7255 C   0  0  0  0  0  0  0  0  0  0  0  0
    6.8375  -14.5676   26.0529 C   0  0  0  0  0  0  0  0  0  0  0  0
    7.9252  -13.9874   25.4260 C   0  0  0  0  0  0  0  0  0  0  0  0
    8.3086  -12.6974   25.7269 C   0  0  0  0  0  0  0  0  0  0  0  0
    7.6243  -11.9446   26.6586 C   0  0  0  0  0  0  0  0  0  0  0  0
    6.5385  -12.5280   27.2826 C   0  0  0  0  0  0  0  0  0  0  0  0
    6.1380  -13.8359   26.9874 C   0  0  0  0  0  0  0  0  0  0  0  0
    7.5429  -16.2139   23.6045 C   0  0  0  0  0  0  0  0  0  0  0  0
    8.2343  -17.2589   23.6767 O   0  0  0  0  0  0  0  0  0  0  0  0
    8.1371  -15.1120   22.8879 N   0  0  0  0  0  0  0  0  0  0  0  0
    9.3646  -15.2787   22.1916 C   0  0  1  0  0  0  0  0  0  0  0  0
    9.6302  -14.3603   21.0609 C   0  0  0  0  0  0  0  0  0  0  0  0
    8.6234  -14.2694   20.0109 C   0  0  0  0  0  0  0  0  0  0  0  0
    7.2740  -14.1348   19.9954 C   0  0  0  0  0  0  0  0  0  0  0  0
    6.8552  -14.0833   18.7036 N   0  0  0  0  0  0  0  0  0  0  0  0
    7.9292  -14.1842   17.9327 C   0  0  0  0  0  0  0  0  0  0  0  0
    9.0019  -14.2967   18.6929 N   0  0  0  0  0  0  0  0  0  0  0  0
   10.5165  -15.3133   23.1643 C   0  0  0  0  0  0  0  0  0  0  0  0
   10.3457  -14.7519   24.2685 O   0  0  0  0  0  0  0  0  0  0  0  0
   11.7290  -15.9346   22.8738 N   0  0  0  0  0  0  0  0  0  0  0  0
   12.5947  -16.5397   23.9860 C   0  0  1  0  0  0  0  0  0  0  0  0
   11.7405  -17.4754   24.6890 C   0  0  0  0  0  0  0  0  0  0  0  0
   11.9745  -18.3076   25.8448 C   0  0  0  0  0  0  0  0  0  0  0  0
   11.0326  -19.1849   26.5163 C   0  0  0  0  0  0  0  0  0  0  0  0
   11.3276  -19.9488   27.7375 C   0  0  0  0  0  0  0  0  0  0  0  0
   10.2179  -20.7460   28.2209 N   0  0  0  0  0  0  0  0  0  0  0  0
   13.8727  -16.8504   23.3955 C   0  0  0  0  0  0  0  0  0  0  0  0
   14.1177  -17.1710   22.2229 O   0  0  0  0  0  0  0  0  0  0  0  0
   15.0192  -16.7926   24.2292 O   0  0  0  0  0  0  0  0  0  0  0  0
  2  1  1  1
  2  3  1  0
  3  4  1  0
  4  9  1  0
  4  5  2  0
  5  6  1  0
  6  7  2  0
  8  7  1  0
  9  8  2  0
 10  2  1  0
 10 12  1  0
 11 10  2  0
 13 12  1  0
 13 14  1  6
 15 14  1  0
 15 16  2  0
 17 16  1  0
 18 17  1  0
 19 18  2  0
 19 15  1  0
 20 13  1  0
 21 20  2  0
 22 20  1  0
 23 24  1  6
 23 22  1  0
 25 24  1  0
 26 25  1  0
 26 27  1  0
 27 28  1  0
 29 23  1  0
 30 29  2  0
 31 29  1  0
M  END
$$$$
