FHK.pdb
     RDKit          3D

 31 32  0  0  1  0  0  0  0  0999 V2000
    6.2790  -16.4379   25.8245 N   0  0  0  0  0  0  0  0  0  0  0  0
    6.4405  -16.2976   24.3887 C   0  0  1  0  0  0  0  0  0  0  0  0
    6.1764  -14.8132   24.0992 C   0  0  0  0  0  0  0  0  0  0  0  0
    6.8102  -13.9581   25.1254 C   0  0  0  0  0  0  0  0  0  0  0  0
    6.0790  -13.4903   26.2021 C   0  0  0  0  0  0  0  0  0  0  0  0
    6.6667  -12.6942   27.1625 C   0  0  0  0  0  0  0  0  0  0  0  0
    7.9973  -12.3386   27.0835 C   0  0  0  0  0  0  0  0  0  0  0  0
    8.7240  -12.8080   26.0064 C   0  0  0  0  0  0  0  0  0  0  0  0
    8.1410  -13.6165   25.0243 C   0  0  0  0  0  0  0  0  0  0  0  0
    7.8835  -16.5147   24.0841 C   0  0  0  0  0  0  0  0  0  0  0  0
    8.5902  -17.3394   24.7131 O   0  0  0  0  0  0  0  0  0  0  0  0
    8.5512  -15.7798   23.0377 N   0  0  0  0  0  0  0  0  0  0  0  0
    9.6709  -16.3367   22.3629 C   0  0  1  0  0  0  0  0  0  0  0  0
   10.0578  -15.7204   21.0733 C   0  0  0  0  0  0  0  0  0  0  0  0
    9.1149  -15.8178   19.9660 C   0  0  0  0  0  0  0  0  0  0  0  0
    7.9074  -16.4106   19.7935 C   0  0  0  0  0  0  0  0  0  0  0  0
    7.4691  -16.1501   18.5339 N   0  0  0  0  0  0  0  0  0  0  0  0
    8.3912  -15.4075   17.9371 C   0  0  0  0  0  0  0  0  0  0  0  0
    9.3880  -15.1944   18.7752 N   0  0  0  0  0  0  0  0  0  0  0  0
   10.8453  -16.4474   23.3024 C   0  0  0  0  0  0  0  0  0  0  0  0
   11.3967  -15.3809   23.6520 O   0  0  0  0  0  0  0  0  0  0  0  0
   11.3183  -17.6691   23.7761 N   0  0  0  0  0  0  0  0  0  0  0  0
   12.2726  -17.7374   24.9749 C   0  0  1  0  0  0  0  0  0  0  0  0
   11.6238  -18.5899   25.9504 C   0  0  0  0  0  0  0  0  0  0  0  0
   11.7845  -18.7084   27.3799 C   0  0  0  0  0  0  0  0  0  0  0  0
   11.4335  -19.8353   28.2254 C   0  0  0  0  0  0  0  0  0  0  0  0
   11.6592  -19.8920   29.6772 C   0  0  0  0  0  0  0  0  0  0  0  0
   11.2442  -21.1364   30.2936 N   0  0  0  0  0  0  0  0  0  0  0  0
   13.5977  -17.9303   24.4408 C   0  0  0  0  0  0  0  0  0  0  0  0
   14.6561  -17.3963   24.8047 O   0  0  0  0  0  0  0  0  0  0  0  0
   13.7512  -18.8387   23.3618 O   0  0  0  0  0  0  0  0  0  0  0  0
  2  1  1  1
  2  3  1  0
  3  4  1  0
  4  9  1  0
  4  5  2  0
  5  6  1  0
  6  7  2  0
  8  7  1  0
  9  8  2  0
 10  2  1  0
 10 12  1  0
 11 10  2  0
 13 12  1  0
 13 14  1  6
 15 14  1  0
 15 16  2  0
 17 16  1  0
 18 17  1  0
 19 18  2  0
 19 15  1  0
 20 13  1  0
 21 20  2  0
 22 20  1  0
 23 24  1  1
 23 22  1  0
 25 24  1  0
 26 25  1  0
 26 27  1  0
 27 28  1  0
 29 23  1  0
 30 29  2  0
 31 29  1  0
M  END
$$$$
