FHK.pdb
     RDKit          3D

 31 32  0  0  1  0  0  0  0  0999 V2000
    5.4254  -17.6206   24.2310 N   0  0  0  0  0  0  0  0  0  0  0  0
    5.9860  -16.2903   24.3847 C   0  0  1  0  0  0  0  0  0  0  0  0
    6.2993  -16.1583   25.8818 C   0  0  0  0  0  0  0  0  0  0  0  0
    6.7465  -14.7866   26.2049 C   0  0  0  0  0  0  0  0  0  0  0  0
    8.0402  -14.5499   26.6325 C   0  0  0  0  0  0  0  0  0  0  0  0
    8.4620  -13.2718   26.9330 C   0  0  0  0  0  0  0  0  0  0  0  0
    7.6130  -12.1906   26.8180 C   0  0  0  0  0  0  0  0  0  0  0  0
    6.3216  -12.4316   26.3906 C   0  0  0  0  0  0  0  0  0  0  0  0
    5.8796  -13.7230   26.0823 C   0  0  0  0  0  0  0  0  0  0  0  0
    7.3084  -16.2871   23.6968 C   0  0  0  0  0  0  0  0  0  0  0  0
    8.0864  -17.2716   23.7236 O   0  0  0  0  0  0  0  0  0  0  0  0
    7.7687  -15.1388   22.9550 N   0  0  0  0  0  0  0  0  0  0  0  0
    8.9777  -15.1948   22.2102 C   0  0  1  0  0  0  0  0  0  0  0  0
    9.1958  -14.1388   21.1955 C   0  0  0  0  0  0  0  0  0  0  0  0
    8.3713  -14.1729   19.9941 C   0  0  0  0  0  0  0  0  0  0  0  0
    7.4625  -15.0430   19.4879 C   0  0  0  0  0  0  0  0  0  0  0  0
    6.9819  -14.5419   18.3197 N   0  0  0  0  0  0  0  0  0  0  0  0
    7.5841  -13.3799   18.1073 C   0  0  0  0  0  0  0  0  0  0  0  0
    8.4218  -13.1363   19.0974 N   0  0  0  0  0  0  0  0  0  0  0  0
   10.1581  -15.3277   23.1394 C   0  0  0  0  0  0  0  0  0  0  0  0
   10.2733  -14.4671   24.0393 O   0  0  0  0  0  0  0  0  0  0  0  0
   11.0952  -16.3520   23.0247 N   0  0  0  0  0  0  0  0  0  0  0  0
   12.1876  -16.5475   24.0835 C   0  0  1  0  0  0  0  0  0  0  0  0
   11.7191  -17.6145   24.9446 C   0  0  0  0  0  0  0  0  0  0  0  0
   12.2023  -18.1078   26.2119 C   0  0  0  0  0  0  0  0  0  0  0  0
   11.6100  -19.1317   27.0538 C   0  0  0  0  0  0  0  0  0  0  0  0
   12.0821  -19.4804   28.4019 C   0  0  0  0  0  0  0  0  0  0  0  0
   11.2204  -20.4051   29.1112 N   0  0  0  0  0  0  0  0  0  0  0  0
   13.4499  -16.5235   23.3876 C   0  0  0  0  0  0  0  0  0  0  0  0
   14.5811  -16.3317   23.8581 O   0  0  0  0  0  0  0  0  0  0  0  0
   13.4379  -16.7435   21.9860 O   0  0  0  0  0  0  0  0  0  0  0  0
  2  1  1  1
  2  3  1  0
  3  4  1  0
  4  9  1  0
  4  5  2  0
  5  6  1  0
  6  7  2  0
  8  7  1  0
  9  8  2  0
 10  2  1  0
 10 12  1  0
 11 10  2  0
 13 12  1  0
 13 14  1  1
 15 14  1  0
 15 16  2  0
 17 16  1  0
 18 17  1  0
 19 18  2  0
 19 15  1  0
 20 13  1  0
 21 20  2  0
 22 20  1  0
 23 24  1  6
 23 22  1  0
 25 24  1  0
 26 25  1  0
 26 27  1  0
 27 28  1  0
 29 23  1  0
 30 29  2  0
 31 29  1  0
M  END
$$$$
