FHK.pdb
     RDKit          3D

 31 32  0  0  1  0  0  0  0  0999 V2000
    5.3458  -17.3638   24.3005 N   0  0  0  0  0  0  0  0  0  0  0  0
    6.0014  -16.0798   24.4711 C   0  0  1  0  0  0  0  0  0  0  0  0
    6.3257  -15.9917   25.9691 C   0  0  0  0  0  0  0  0  0  0  0  0
    6.8346  -14.6479   26.3172 C   0  0  0  0  0  0  0  0  0  0  0  0
    8.1735  -14.4546   26.6051 C   0  0  0  0  0  0  0  0  0  0  0  0
    8.6527  -13.2025   26.9282 C   0  0  0  0  0  0  0  0  0  0  0  0
    7.8181  -12.1051   26.9752 C   0  0  0  0  0  0  0  0  0  0  0  0
    6.4815  -12.3027   26.6869 C   0  0  0  0  0  0  0  0  0  0  0  0
    5.9811  -13.5673   26.3575 C   0  0  0  0  0  0  0  0  0  0  0  0
    7.3195  -16.1626   23.7800 C   0  0  0  0  0  0  0  0  0  0  0  0
    7.9872  -17.2239   23.7233 O   0  0  0  0  0  0  0  0  0  0  0  0
    7.9036  -15.0139   23.1319 N   0  0  0  0  0  0  0  0  0  0  0  0
    9.1010  -15.1393   22.3769 C   0  0  1  0  0  0  0  0  0  0  0  0
    9.3980  -14.0685   21.3983 C   0  0  0  0  0  0  0  0  0  0  0  0
    8.4584  -13.8734   20.3013 C   0  0  0  0  0  0  0  0  0  0  0  0
    7.4438  -13.0063   20.0601 C   0  0  0  0  0  0  0  0  0  0  0  0
    6.9148  -13.2823   18.8391 N   0  0  0  0  0  0  0  0  0  0  0  0
    7.5920  -14.3038   18.3334 C   0  0  0  0  0  0  0  0  0  0  0  0
    8.5231  -14.6762   19.1912 N   0  0  0  0  0  0  0  0  0  0  0  0
   10.2711  -15.3986   23.2922 C   0  0  0  0  0  0  0  0  0  0  0  0
   10.4544  -14.5864   24.2252 O   0  0  0  0  0  0  0  0  0  0  0  0
   11.1276  -16.4852   23.1302 N   0  0  0  0  0  0  0  0  0  0  0  0
   12.2510  -16.7644   24.1365 C   0  0  1  0  0  0  0  0  0  0  0  0
   11.8242  -17.9218   24.8966 C   0  0  0  0  0  0  0  0  0  0  0  0
   12.5084  -18.7346   25.8735 C   0  0  0  0  0  0  0  0  0  0  0  0
   12.1938  -18.8877   27.2826 C   0  0  0  0  0  0  0  0  0  0  0  0
   12.8919  -19.8007   28.1996 C   0  0  0  0  0  0  0  0  0  0  0  0
   12.5143  -21.1923   28.0524 N   0  0  0  0  0  0  0  0  0  0  0  0
   13.4938  -16.6452   23.4156 C   0  0  0  0  0  0  0  0  0  0  0  0
   13.7098  -16.8763   22.2166 O   0  0  0  0  0  0  0  0  0  0  0  0
   14.6374  -16.2109   24.1344 O   0  0  0  0  0  0  0  0  0  0  0  0
  2  1  1  1
  2  3  1  0
  3  4  1  0
  4  9  1  0
  4  5  2  0
  5  6  1  0
  6  7  2  0
  8  7  1  0
  9  8  2  0
 10  2  1  0
 10 12  1  0
 11 10  2  0
 13 12  1  0
 13 14  1  1
 15 14  1  0
 15 16  2  0
 17 16  1  0
 18 17  1  0
 19 18  2  0
 19 15  1  0
 20 13  1  0
 21 20  2  0
 22 20  1  0
 23 24  1  6
 23 22  1  0
 25 24  1  0
 26 25  1  0
 26 27  1  0
 27 28  1  0
 29 23  1  0
 30 29  2  0
 31 29  1  0
M  END
$$$$
