FHK.pdb
     RDKit          3D

 31 32  0  0  1  0  0  0  0  0999 V2000
    6.5525  -17.3254   25.6528 N   0  0  0  0  0  0  0  0  0  0  0  0
    6.5911  -15.9686   25.1378 C   0  0  1  0  0  0  0  0  0  0  0  0
    7.6156  -15.2362   26.0158 C   0  0  0  0  0  0  0  0  0  0  0  0
    7.0954  -13.9190   26.4407 C   0  0  0  0  0  0  0  0  0  0  0  0
    7.4760  -13.3684   27.6510 C   0  0  0  0  0  0  0  0  0  0  0  0
    6.9948  -12.1392   28.0502 C   0  0  0  0  0  0  0  0  0  0  0  0
    6.1218  -11.4198   27.2606 C   0  0  0  0  0  0  0  0  0  0  0  0
    5.7442  -11.9735   26.0525 C   0  0  0  0  0  0  0  0  0  0  0  0
    6.2243  -13.2197   25.6345 C   0  0  0  0  0  0  0  0  0  0  0  0
    7.1996  -16.0302   23.7785 C   0  0  0  0  0  0  0  0  0  0  0  0
    7.7307  -17.0720   23.3225 O   0  0  0  0  0  0  0  0  0  0  0  0
    7.2098  -14.8821   22.9052 N   0  0  0  0  0  0  0  0  0  0  0  0
    7.7680  -14.9691   21.6012 C   0  0  1  0  0  0  0  0  0  0  0  0
    7.6523  -13.7734   20.7355 C   0  0  0  0  0  0  0  0  0  0  0  0
    8.0362  -13.9103   19.3361 C   0  0  0  0  0  0  0  0  0  0  0  0
    7.4398  -13.6210   18.1530 C   0  0  0  0  0  0  0  0  0  0  0  0
    8.2895  -13.9483   17.1442 N   0  0  0  0  0  0  0  0  0  0  0  0
    9.3941  -14.4322   17.6953 C   0  0  0  0  0  0  0  0  0  0  0  0
    9.2668  -14.4196   19.0087 N   0  0  0  0  0  0  0  0  0  0  0  0
    9.1887  -15.4699   21.6733 C   0  0  0  0  0  0  0  0  0  0  0  0
    9.8325  -15.2071   22.7126 O   0  0  0  0  0  0  0  0  0  0  0  0
    9.7847  -16.1949   20.6439 N   0  0  0  0  0  0  0  0  0  0  0  0
   11.1846  -16.7995   20.8091 C   0  0  1  0  0  0  0  0  0  0  0  0
   11.0745  -17.7675   21.8817 C   0  0  0  0  0  0  0  0  0  0  0  0
   12.0245  -18.7061   22.4293 C   0  0  0  0  0  0  0  0  0  0  0  0
   11.7617  -19.8229   23.3190 C   0  0  0  0  0  0  0  0  0  0  0  0
   12.7952  -20.7084   23.8752 C   0  0  0  0  0  0  0  0  0  0  0  0
   12.6382  -20.9886   25.2885 N   0  0  0  0  0  0  0  0  0  0  0  0
   11.6801  -17.0693   19.4825 C   0  0  0  0  0  0  0  0  0  0  0  0
   11.0298  -17.3331   18.4602 O   0  0  0  0  0  0  0  0  0  0  0  0
   13.0842  -17.0379   19.2808 O   0  0  0  0  0  0  0  0  0  0  0  0
  2  1  1  1
  2  3  1  0
  3  4  1  0
  4  9  1  0
  4  5  2  0
  5  6  1  0
  6  7  2  0
  8  7  1  0
  9  8  2  0
 10  2  1  0
 10 12  1  0
 11 10  2  0
 13 12  1  0
 13 14  1  1
 15 14  1  0
 15 16  2  0
 17 16  1  0
 18 17  1  0
 19 18  2  0
 19 15  1  0
 20 13  1  0
 21 20  2  0
 22 20  1  0
 23 24  1  1
 23 22  1  0
 25 24  1  0
 26 25  1  0
 26 27  1  0
 27 28  1  0
 29 23  1  0
 30 29  2  0
 31 29  1  0
M  END
$$$$
