FHK.pdb
     RDKit          3D

 31 32  0  0  1  0  0  0  0  0999 V2000
    6.1741  -18.1464   25.6621 N   0  0  0  0  0  0  0  0  0  0  0  0
    6.1694  -16.7028   25.5086 C   0  0  1  0  0  0  0  0  0  0  0  0
    6.8416  -16.1630   26.7790 C   0  0  0  0  0  0  0  0  0  0  0  0
    6.7163  -14.6917   26.8537 C   0  0  0  0  0  0  0  0  0  0  0  0
    5.4729  -14.0876   26.8096 C   0  0  0  0  0  0  0  0  0  0  0  0
    5.3514  -12.7158   26.8810 C   0  0  0  0  0  0  0  0  0  0  0  0
    6.4595  -11.9026   26.9983 C   0  0  0  0  0  0  0  0  0  0  0  0
    7.6995  -12.5102   27.0419 C   0  0  0  0  0  0  0  0  0  0  0  0
    7.8381  -13.9008   26.9705 C   0  0  0  0  0  0  0  0  0  0  0  0
    7.1011  -16.3751   24.3921 C   0  0  0  0  0  0  0  0  0  0  0  0
    8.1736  -16.9987   24.2020 O   0  0  0  0  0  0  0  0  0  0  0  0
    6.8153  -15.3118   23.4602 N   0  0  0  0  0  0  0  0  0  0  0  0
    7.6017  -15.1451   22.2883 C   0  0  1  0  0  0  0  0  0  0  0  0
    7.2633  -14.0069   21.4038 C   0  0  0  0  0  0  0  0  0  0  0  0
    7.8768  -13.9703   20.0821 C   0  0  0  0  0  0  0  0  0  0  0  0
    8.8075  -14.7222   19.4437 C   0  0  0  0  0  0  0  0  0  0  0  0
    8.9820  -14.2289   18.1896 N   0  0  0  0  0  0  0  0  0  0  0  0
    8.1713  -13.1884   18.0547 C   0  0  0  0  0  0  0  0  0  0  0  0
    7.4978  -13.0131   19.1759 N   0  0  0  0  0  0  0  0  0  0  0  0
    9.0689  -15.1636   22.6366 C   0  0  0  0  0  0  0  0  0  0  0  0
    9.4537  -14.3675   23.5208 O   0  0  0  0  0  0  0  0  0  0  0  0
    9.9790  -16.0175   22.0178 N   0  0  0  0  0  0  0  0  0  0  0  0
   11.4511  -16.0509   22.4472 C   0  0  1  0  0  0  0  0  0  0  0  0
   11.5937  -17.2249   23.2844 C   0  0  0  0  0  0  0  0  0  0  0  0
   12.6728  -18.1715   23.4350 C   0  0  0  0  0  0  0  0  0  0  0  0
   12.7143  -19.3470   24.2860 C   0  0  0  0  0  0  0  0  0  0  0  0
   13.7802  -20.3594   24.2600 C   0  0  0  0  0  0  0  0  0  0  0  0
   13.5736  -21.4617   25.1781 N   0  0  0  0  0  0  0  0  0  0  0  0
   12.2335  -15.7576   21.2724 C   0  0  0  0  0  0  0  0  0  0  0  0
   11.9277  -15.9346   20.0837 O   0  0  0  0  0  0  0  0  0  0  0  0
   13.5221  -15.1937   21.4586 O   0  0  0  0  0  0  0  0  0  0  0  0
  2  1  1  1
  2  3  1  0
  3  4  1  0
  4  9  1  0
  4  5  2  0
  5  6  1  0
  6  7  2  0
  8  7  1  0
  9  8  2  0
 10  2  1  0
 10 12  1  0
 11 10  2  0
 13 12  1  0
 13 14  1  1
 15 14  1  0
 15 16  2  0
 17 16  1  0
 18 17  1  0
 19 18  2  0
 19 15  1  0
 20 13  1  0
 21 20  2  0
 22 20  1  0
 23 24  1  6
 23 22  1  0
 25 24  1  0
 26 25  1  0
 26 27  1  0
 27 28  1  0
 29 23  1  0
 30 29  2  0
 31 29  1  0
M  END
$$$$
