FHK.pdb
     RDKit          3D

 31 32  0  0  1  0  0  0  0  0999 V2000
    5.7966  -18.1223   24.9603 N   0  0  0  0  0  0  0  0  0  0  0  0
    5.9443  -16.6798   24.8900 C   0  0  1  0  0  0  0  0  0  0  0  0
    6.7118  -16.2935   26.1622 C   0  0  0  0  0  0  0  0  0  0  0  0
    6.7127  -14.8268   26.3489 C   0  0  0  0  0  0  0  0  0  0  0  0
    7.8696  -14.1642   26.7168 C   0  0  0  0  0  0  0  0  0  0  0  0
    7.8753  -12.7961   26.8899 C   0  0  0  0  0  0  0  0  0  0  0  0
    6.7335  -12.0447   26.7033 C   0  0  0  0  0  0  0  0  0  0  0  0
    5.5802  -12.7106   26.3359 C   0  0  0  0  0  0  0  0  0  0  0  0
    5.5594  -14.0982   26.1566 C   0  0  0  0  0  0  0  0  0  0  0  0
    6.8698  -16.3862   23.7589 C   0  0  0  0  0  0  0  0  0  0  0  0
    7.7676  -17.1845   23.3958 O   0  0  0  0  0  0  0  0  0  0  0  0
    6.7806  -15.1546   23.0132 N   0  0  0  0  0  0  0  0  0  0  0  0
    7.5703  -14.9543   21.8489 C   0  0  1  0  0  0  0  0  0  0  0  0
    7.2907  -13.7442   21.0427 C   0  0  0  0  0  0  0  0  0  0  0  0
    8.0310  -13.5727   19.7989 C   0  0  0  0  0  0  0  0  0  0  0  0
    8.8843  -12.6331   19.3211 C   0  0  0  0  0  0  0  0  0  0  0  0
    9.2954  -13.0070   18.0809 N   0  0  0  0  0  0  0  0  0  0  0  0
    8.7056  -14.1599   17.7968 C   0  0  0  0  0  0  0  0  0  0  0  0
    7.9424  -14.5202   18.8112 N   0  0  0  0  0  0  0  0  0  0  0  0
    9.0357  -15.0745   22.1843 C   0  0  0  0  0  0  0  0  0  0  0  0
    9.8469  -14.9577   21.2398 O   0  0  0  0  0  0  0  0  0  0  0  0
    9.4954  -15.3057   23.4788 N   0  0  0  0  0  0  0  0  0  0  0  0
   10.9953  -15.4258   23.7764 C   0  0  1  0  0  0  0  0  0  0  0  0
   11.1178  -15.3857   25.2196 C   0  0  0  0  0  0  0  0  0  0  0  0
   11.7848  -16.2633   26.1514 C   0  0  0  0  0  0  0  0  0  0  0  0
   11.7436  -16.2195   27.6020 C   0  0  0  0  0  0  0  0  0  0  0  0
   12.4641  -17.1474   28.4861 C   0  0  0  0  0  0  0  0  0  0  0  0
   11.7055  -17.5704   29.6464 N   0  0  0  0  0  0  0  0  0  0  0  0
   11.5072  -16.4657   22.9191 C   0  0  0  0  0  0  0  0  0  0  0  0
   10.9098  -17.4586   22.4776 O   0  0  0  0  0  0  0  0  0  0  0  0
   12.8618  -16.3768   22.5063 O   0  0  0  0  0  0  0  0  0  0  0  0
  2  1  1  1
  2  3  1  0
  3  4  1  0
  4  9  1  0
  4  5  2  0
  5  6  1  0
  6  7  2  0
  8  7  1  0
  9  8  2  0
 10  2  1  0
 10 12  1  0
 11 10  2  0
 13 12  1  0
 13 14  1  1
 15 14  1  0
 15 16  2  0
 17 16  1  0
 18 17  1  0
 19 18  2  0
 19 15  1  0
 20 13  1  0
 21 20  2  0
 22 20  1  0
 23 24  1  1
 23 22  1  0
 25 24  1  0
 26 25  1  0
 26 27  1  0
 27 28  1  0
 29 23  1  0
 30 29  2  0
 31 29  1  0
M  END
$$$$
