FHK.pdb
     RDKit          3D

 31 32  0  0  1  0  0  0  0  0999 V2000
    5.6845  -18.0548   25.3151 N   0  0  0  0  0  0  0  0  0  0  0  0
    6.0653  -16.6770   25.0617 C   0  0  1  0  0  0  0  0  0  0  0  0
    6.5203  -16.1307   26.4224 C   0  0  0  0  0  0  0  0  0  0  0  0
    6.6854  -14.6624   26.3691 C   0  0  0  0  0  0  0  0  0  0  0  0
    7.9420  -14.0912   26.4555 C   0  0  0  0  0  0  0  0  0  0  0  0
    8.1006  -12.7223   26.4042 C   0  0  0  0  0  0  0  0  0  0  0  0
    7.0174  -11.8794   26.2655 C   0  0  0  0  0  0  0  0  0  0  0  0
    5.7640  -12.4541   26.1796 C   0  0  0  0  0  0  0  0  0  0  0  0
    5.5879  -13.8414   26.2303 C   0  0  0  0  0  0  0  0  0  0  0  0
    7.2899  -16.7073   24.2123 C   0  0  0  0  0  0  0  0  0  0  0  0
    8.1755  -17.5882   24.3346 O   0  0  0  0  0  0  0  0  0  0  0  0
    7.5239  -15.7141   23.1926 N   0  0  0  0  0  0  0  0  0  0  0  0
    8.6726  -15.7885   22.3593 C   0  0  1  0  0  0  0  0  0  0  0  0
    8.7678  -14.8113   21.2510 C   0  0  0  0  0  0  0  0  0  0  0  0
    9.8777  -14.9525   20.3167 C   0  0  0  0  0  0  0  0  0  0  0  0
   10.4763  -16.0026   19.7017 C   0  0  0  0  0  0  0  0  0  0  0  0
   11.4712  -15.5322   18.9044 N   0  0  0  0  0  0  0  0  0  0  0  0
   11.4869  -14.2119   19.0243 C   0  0  0  0  0  0  0  0  0  0  0  0
   10.5407  -13.8399   19.8655 N   0  0  0  0  0  0  0  0  0  0  0  0
    9.9261  -15.8046   23.1977 C   0  0  0  0  0  0  0  0  0  0  0  0
   10.2278  -14.7456   23.7903 O   0  0  0  0  0  0  0  0  0  0  0  0
   10.7325  -16.9333   23.3249 N   0  0  0  0  0  0  0  0  0  0  0  0
   12.0841  -16.8632   24.0466 C   0  0  1  0  0  0  0  0  0  0  0  0
   12.1025  -17.9843   24.9644 C   0  0  0  0  0  0  0  0  0  0  0  0
   12.0900  -18.0451   26.4063 C   0  0  0  0  0  0  0  0  0  0  0  0
   12.1122  -19.2276   27.2484 C   0  0  0  0  0  0  0  0  0  0  0  0
   12.1256  -19.2058   28.7185 C   0  0  0  0  0  0  0  0  0  0  0  0
   12.2428  -20.5146   29.3299 N   0  0  0  0  0  0  0  0  0  0  0  0
   13.0786  -16.5855   23.0406 C   0  0  0  0  0  0  0  0  0  0  0  0
   13.1364  -17.0181   21.8798 O   0  0  0  0  0  0  0  0  0  0  0  0
   14.1417  -15.7108   23.3837 O   0  0  0  0  0  0  0  0  0  0  0  0
  2  1  1  1
  2  3  1  0
  3  4  1  0
  4  9  1  0
  4  5  2  0
  5  6  1  0
  6  7  2  0
  8  7  1  0
  9  8  2  0
 10  2  1  0
 10 12  1  0
 11 10  2  0
 13 12  1  0
 13 14  1  6
 15 14  1  0
 15 16  2  0
 17 16  1  0
 18 17  1  0
 19 18  2  0
 19 15  1  0
 20 13  1  0
 21 20  2  0
 22 20  1  0
 23 24  1  6
 23 22  1  0
 25 24  1  0
 26 25  1  0
 26 27  1  0
 27 28  1  0
 29 23  1  0
 30 29  2  0
 31 29  1  0
M  END
$$$$
