SPW.pdb
     RDKit          3D

 28 30  0  0  1  0  0  0  0  0999 V2000
   24.6316  -17.6885  -14.4870 O   0  0  0  0  0  0  0  0  0  0  0  0
   25.7421  -16.9052  -14.7867 C   0  0  0  0  0  0  0  0  0  0  0  0
   26.5977  -17.6003  -15.8570 C   0  0  2  0  0  0  0  0  0  0  0  0
   25.8733  -17.3880  -17.0948 N   0  0  0  0  0  0  0  0  0  0  0  0
   26.5957  -19.0462  -15.5230 C   0  0  0  0  0  0  0  0  0  0  0  0
   25.8402  -19.7799  -16.2569 O   0  0  0  0  0  0  0  0  0  0  0  0
   27.3588  -19.6059  -14.4804 N   0  0  0  0  0  0  0  0  0  0  0  0
   27.9342  -18.9228  -13.3649 C   0  0  0  0  0  0  0  0  0  0  0  0
   29.2056  -19.7171  -13.0746 C   0  0  0  0  0  0  0  0  0  0  0  0
   29.2035  -20.8880  -14.0410 C   0  0  0  0  0  0  0  0  0  0  0  0
   27.7035  -20.9929  -14.3582 C   0  0  1  0  0  0  0  0  0  0  0  0
   27.0781  -21.6621  -13.2113 C   0  0  0  0  0  0  0  0  0  0  0  0
   27.4724  -22.7813  -12.8025 O   0  0  0  0  0  0  0  0  0  0  0  0
   25.9984  -21.0109  -12.5582 N   0  0  0  0  0  0  0  0  0  0  0  0
   25.2324  -21.5984  -11.4705 C   0  0  1  0  0  0  0  0  0  0  0  0
   26.1838  -21.6950  -10.3413 C   0  0  0  0  0  0  0  0  0  0  0  0
   26.3661  -20.5889   -9.4603 C   0  0  0  0  0  0  0  0  0  0  0  0
   25.6812  -19.3929   -9.5418 C   0  0  0  0  0  0  0  0  0  0  0  0
   26.1026  -18.5880   -8.5558 N   0  0  0  0  0  0  0  0  0  0  0  0
   27.0495  -19.1900   -7.8047 C   0  0  0  0  0  0  0  0  0  0  0  0
   27.7943  -18.8238   -6.7043 C   0  0  0  0  0  0  0  0  0  0  0  0
   28.6991  -19.7255   -6.1852 C   0  0  0  0  0  0  0  0  0  0  0  0
   28.8556  -20.9708   -6.7569 C   0  0  0  0  0  0  0  0  0  0  0  0
   28.1166  -21.3394   -7.8518 C   0  0  0  0  0  0  0  0  0  0  0  0
   27.2117  -20.4488   -8.3777 C   0  0  0  0  0  0  0  0  0  0  0  0
   24.1324  -20.6747  -11.1729 C   0  0  0  0  0  0  0  0  0  0  0  0
   24.0907  -19.4373  -11.7899 O   0  0  0  0  0  0  0  0  0  0  0  0
   23.1933  -20.9341  -10.3711 O   0  0  0  0  0  0  0  0  0  0  0  0
  2  1  1  0
  3  4  1  6
  3  2  1  0
  5  3  1  0
  5  6  2  0
  7  5  1  0
  8  7  1  0
  9  8  1  0
 10  9  1  0
 10 11  1  0
 11  7  1  0
 11 12  1  1
 12 14  1  0
 13 12  2  0
 15 16  1  1
 15 26  1  0
 15 14  1  0
 17 18  2  0
 17 16  1  0
 19 18  1  0
 20 25  2  0
 20 19  1  0
 21 20  1  0
 22 23  1  0
 22 21  2  0
 23 24  2  0
 24 25  1  0
 25 17  1  0
 26 27  1  0
 28 26  2  0
M  END
$$$$
