SPW.pdb
     RDKit          3D

 28 30  0  0  1  0  0  0  0  0999 V2000
   39.7944  -27.9740  -18.5403 O   0  0  0  0  0  0  0  0  0  0  0  0
   39.0022  -29.0440  -18.1354 C   0  0  0  0  0  0  0  0  0  0  0  0
   37.9903  -28.5739  -17.0789 C   0  0  2  0  0  0  0  0  0  0  0  0
   38.8074  -28.0518  -16.0012 N   0  0  0  0  0  0  0  0  0  0  0  0
   37.2733  -29.7874  -16.6145 C   0  0  0  0  0  0  0  0  0  0  0  0
   37.5528  -30.1693  -15.4213 O   0  0  0  0  0  0  0  0  0  0  0  0
   36.3444  -30.4928  -17.4031 N   0  0  0  0  0  0  0  0  0  0  0  0
   35.9829  -30.2289  -18.7602 C   0  0  0  0  0  0  0  0  0  0  0  0
   34.5186  -30.6559  -18.8312 C   0  0  0  0  0  0  0  0  0  0  0  0
   34.1784  -31.2305  -17.4677 C   0  0  0  0  0  0  0  0  0  0  0  0
   35.5771  -31.6237  -16.9672 C   0  0  1  0  0  0  0  0  0  0  0  0
   35.9281  -32.8772  -17.6452 C   0  0  0  0  0  0  0  0  0  0  0  0
   35.9734  -32.9626  -18.8966 O   0  0  0  0  0  0  0  0  0  0  0  0
   36.2215  -34.0150  -16.8478 N   0  0  0  0  0  0  0  0  0  0  0  0
   36.6065  -35.3093  -17.3878 C   0  0  1  0  0  0  0  0  0  0  0  0
   37.7546  -35.7425  -16.5609 C   0  0  0  0  0  0  0  0  0  0  0  0
   38.4213  -36.9701  -16.8461 C   0  0  0  0  0  0  0  0  0  0  0  0
   38.9008  -37.3387  -18.0872 C   0  0  0  0  0  0  0  0  0  0  0  0
   39.4698  -38.5486  -17.9863 N   0  0  0  0  0  0  0  0  0  0  0  0
   39.3964  -39.0192  -16.7229 C   0  0  0  0  0  0  0  0  0  0  0  0
   39.8092  -40.1722  -16.0905 C   0  0  0  0  0  0  0  0  0  0  0  0
   39.5558  -40.3174  -14.7430 C   0  0  0  0  0  0  0  0  0  0  0  0
   38.9012  -39.3269  -14.0412 C   0  0  0  0  0  0  0  0  0  0  0  0
   38.4887  -38.1780  -14.6664 C   0  0  0  0  0  0  0  0  0  0  0  0
   38.7360  -38.0224  -16.0093 C   0  0  0  0  0  0  0  0  0  0  0  0
   35.4545  -36.2023  -17.2235 C   0  0  0  0  0  0  0  0  0  0  0  0
   35.2439  -37.2237  -18.1324 O   0  0  0  0  0  0  0  0  0  0  0  0
   34.6162  -36.1039  -16.2856 O   0  0  0  0  0  0  0  0  0  0  0  0
  2  1  1  0
  3  4  1  1
  3  2  1  0
  5  3  1  0
  5  6  2  0
  7  5  1  0
  8  7  1  0
  9  8  1  0
 10  9  1  0
 10 11  1  0
 11  7  1  0
 11 12  1  6
 12 14  1  0
 13 12  2  0
 15 16  1  1
 15 26  1  0
 15 14  1  0
 17 18  2  0
 17 16  1  0
 19 18  1  0
 20 25  2  0
 20 19  1  0
 21 20  1  0
 22 23  1  0
 22 21  2  0
 23 24  2  0
 24 25  1  0
 25 17  1  0
 26 27  1  0
 28 26  2  0
M  END
$$$$
