SPW.pdb
     RDKit          3D

 28 30  0  0  1  0  0  0  0  0999 V2000
   25.1952  -16.4919  -13.6176 O   0  0  0  0  0  0  0  0  0  0  0  0
   26.0029  -16.5654  -14.7484 C   0  0  0  0  0  0  0  0  0  0  0  0
   25.8685  -17.9519  -15.3967 C   0  0  2  0  0  0  0  0  0  0  0  0
   24.6551  -17.8675  -16.1855 N   0  0  0  0  0  0  0  0  0  0  0  0
   25.6724  -18.9175  -14.2870 C   0  0  0  0  0  0  0  0  0  0  0  0
   24.4507  -19.1534  -13.9717 O   0  0  0  0  0  0  0  0  0  0  0  0
   26.7318  -19.5489  -13.6075 N   0  0  0  0  0  0  0  0  0  0  0  0
   28.1073  -19.1618  -13.5971 C   0  0  0  0  0  0  0  0  0  0  0  0
   28.8524  -20.4879  -13.4635 C   0  0  0  0  0  0  0  0  0  0  0  0
   27.7868  -21.5598  -13.3190 C   0  0  0  0  0  0  0  0  0  0  0  0
   26.6105  -20.7228  -12.7922 C   0  0  1  0  0  0  0  0  0  0  0  0
   26.8692  -20.4861  -11.3670 C   0  0  0  0  0  0  0  0  0  0  0  0
   28.0031  -20.1491  -10.9473 O   0  0  0  0  0  0  0  0  0  0  0  0
   25.7957  -20.6475  -10.4517 N   0  0  0  0  0  0  0  0  0  0  0  0
   25.9687  -20.9640   -9.0428 C   0  0  1  0  0  0  0  0  0  0  0  0
   25.7764  -19.6785   -8.3356 C   0  0  0  0  0  0  0  0  0  0  0  0
   26.8350  -19.1212   -7.5599 C   0  0  0  0  0  0  0  0  0  0  0  0
   27.5550  -17.9936   -7.9008 C   0  0  0  0  0  0  0  0  0  0  0  0
   28.4644  -17.7586   -6.9439 N   0  0  0  0  0  0  0  0  0  0  0  0
   28.3920  -18.6838   -5.9632 C   0  0  0  0  0  0  0  0  0  0  0  0
   29.0720  -18.9055   -4.7850 C   0  0  0  0  0  0  0  0  0  0  0  0
   28.7162  -19.9864   -4.0064 C   0  0  0  0  0  0  0  0  0  0  0  0
   27.6986  -20.8300   -4.3998 C   0  0  0  0  0  0  0  0  0  0  0  0
   27.0192  -20.6133   -5.5712 C   0  0  0  0  0  0  0  0  0  0  0  0
   27.3652  -19.5389   -6.3553 C   0  0  0  0  0  0  0  0  0  0  0  0
   24.9278  -21.9357   -8.6906 C   0  0  0  0  0  0  0  0  0  0  0  0
   23.9826  -22.2992   -9.6330 O   0  0  0  0  0  0  0  0  0  0  0  0
   24.8283  -22.4803   -7.5568 O   0  0  0  0  0  0  0  0  0  0  0  0
  2  1  1  0
  3  4  1  6
  3  2  1  0
  5  3  1  0
  5  6  2  0
  7  5  1  0
  8  7  1  0
  9  8  1  0
 10  9  1  0
 10 11  1  0
 11  7  1  0
 11 12  1  1
 12 14  1  0
 13 12  2  0
 15 16  1  1
 15 26  1  0
 15 14  1  0
 17 18  2  0
 17 16  1  0
 19 18  1  0
 20 25  2  0
 20 19  1  0
 21 20  1  0
 22 23  1  0
 22 21  2  0
 23 24  2  0
 24 25  1  0
 25 17  1  0
 26 27  1  0
 28 26  2  0
M  END
$$$$
