SPW.pdb
     RDKit          3D

 28 30  0  0  1  0  0  0  0  0999 V2000
   24.6037  -18.3985  -13.0485 O   0  0  0  0  0  0  0  0  0  0  0  0
   25.3604  -17.7231  -14.0014 C   0  0  0  0  0  0  0  0  0  0  0  0
   25.8464  -18.7081  -15.0759 C   0  0  2  0  0  0  0  0  0  0  0  0
   24.6829  -18.9385  -15.9096 N   0  0  0  0  0  0  0  0  0  0  0  0
   26.2041  -19.9614  -14.3663 C   0  0  0  0  0  0  0  0  0  0  0  0
   25.3968  -20.9437  -14.5426 O   0  0  0  0  0  0  0  0  0  0  0  0
   27.3433  -20.0963  -13.5499 N   0  0  0  0  0  0  0  0  0  0  0  0
   28.1964  -19.0534  -13.0738 C   0  0  0  0  0  0  0  0  0  0  0  0
   29.5679  -19.7198  -12.9941 C   0  0  0  0  0  0  0  0  0  0  0  0
   29.3540  -21.1753  -13.3696 C   0  0  0  0  0  0  0  0  0  0  0  0
   27.8602  -21.3362  -13.0469 C   0  0  1  0  0  0  0  0  0  0  0  0
   27.7586  -21.4751  -11.5893 C   0  0  0  0  0  0  0  0  0  0  0  0
   28.7200  -21.8861  -10.8951 O   0  0  0  0  0  0  0  0  0  0  0  0
   26.5312  -21.1305  -10.9639 N   0  0  0  0  0  0  0  0  0  0  0  0
   26.3257  -21.1239   -9.5241 C   0  0  1  0  0  0  0  0  0  0  0  0
   27.3476  -20.1931   -8.9963 C   0  0  0  0  0  0  0  0  0  0  0  0
   27.3418  -19.8280   -7.6180 C   0  0  0  0  0  0  0  0  0  0  0  0
   26.4296  -18.9741   -7.0309 C   0  0  0  0  0  0  0  0  0  0  0  0
   26.7223  -18.8626   -5.7272 N   0  0  0  0  0  0  0  0  0  0  0  0
   27.8002  -19.6083   -5.4029 C   0  0  0  0  0  0  0  0  0  0  0  0
   28.5016  -19.8476   -4.2409 C   0  0  0  0  0  0  0  0  0  0  0  0
   29.5885  -20.6950   -4.2840 C   0  0  0  0  0  0  0  0  0  0  0  0
   29.9664  -21.2920   -5.4684 C   0  0  0  0  0  0  0  0  0  0  0  0
   29.2713  -21.0569   -6.6271 C   0  0  0  0  0  0  0  0  0  0  0  0
   28.1863  -20.2140   -6.5959 C   0  0  0  0  0  0  0  0  0  0  0  0
   24.9666  -20.6255   -9.2872 C   0  0  0  0  0  0  0  0  0  0  0  0
   24.3087  -19.9285  -10.2847 O   0  0  0  0  0  0  0  0  0  0  0  0
   24.3349  -20.7906   -8.2076 O   0  0  0  0  0  0  0  0  0  0  0  0
  2  1  1  0
  3  4  1  6
  3  2  1  0
  5  3  1  0
  5  6  2  0
  7  5  1  0
  8  7  1  0
  9  8  1  0
 10  9  1  0
 10 11  1  0
 11  7  1  0
 11 12  1  1
 12 14  1  0
 13 12  2  0
 15 16  1  1
 15 26  1  0
 15 14  1  0
 17 18  2  0
 17 16  1  0
 19 18  1  0
 20 25  2  0
 20 19  1  0
 21 20  1  0
 22 23  1  0
 22 21  2  0
 23 24  2  0
 24 25  1  0
 25 17  1  0
 26 27  1  0
 28 26  2  0
M  END
$$$$
