SPW.pdb
     RDKit          3D

 28 30  0  0  1  0  0  0  0  0999 V2000
   25.4156  -21.8034  -16.7234 O   0  0  0  0  0  0  0  0  0  0  0  0
   26.6543  -22.3075  -17.1080 C   0  0  0  0  0  0  0  0  0  0  0  0
   27.7179  -21.2021  -17.0196 C   0  0  2  0  0  0  0  0  0  0  0  0
   28.9094  -21.7987  -17.5908 N   0  0  0  0  0  0  0  0  0  0  0  0
   27.9366  -20.9438  -15.5747 C   0  0  0  0  0  0  0  0  0  0  0  0
   28.8031  -21.7002  -15.0050 O   0  0  0  0  0  0  0  0  0  0  0  0
   27.2575  -19.9453  -14.8505 N   0  0  0  0  0  0  0  0  0  0  0  0
   26.1534  -19.1535  -15.2932 C   0  0  0  0  0  0  0  0  0  0  0  0
   26.3516  -17.8241  -14.5685 C   0  0  0  0  0  0  0  0  0  0  0  0
   27.5610  -18.0082  -13.6693 C   0  0  0  0  0  0  0  0  0  0  0  0
   27.5684  -19.5368  -13.5111 C   0  0  1  0  0  0  0  0  0  0  0  0
   26.5239  -19.8622  -12.5328 C   0  0  0  0  0  0  0  0  0  0  0  0
   25.3052  -19.8327  -12.8313 O   0  0  0  0  0  0  0  0  0  0  0  0
   26.9211  -20.2181  -11.2167 N   0  0  0  0  0  0  0  0  0  0  0  0
   26.1981  -21.1585  -10.3752 C   0  0  1  0  0  0  0  0  0  0  0  0
   27.0998  -21.4194   -9.2313 C   0  0  0  0  0  0  0  0  0  0  0  0
   26.7926  -20.8947   -7.9416 C   0  0  0  0  0  0  0  0  0  0  0  0
   25.5195  -20.7703   -7.4222 C   0  0  0  0  0  0  0  0  0  0  0  0
   25.6066  -20.2450   -6.1917 N   0  0  0  0  0  0  0  0  0  0  0  0
   26.8915  -20.0062   -5.8522 C   0  0  0  0  0  0  0  0  0  0  0  0
   27.5225  -19.4904   -4.7407 C   0  0  0  0  0  0  0  0  0  0  0  0
   28.8977  -19.3897   -4.7450 C   0  0  0  0  0  0  0  0  0  0  0  0
   29.6279  -19.7979   -5.8415 C   0  0  0  0  0  0  0  0  0  0  0  0
   29.0042  -20.3118   -6.9495 C   0  0  0  0  0  0  0  0  0  0  0  0
   27.6339  -20.4169   -6.9564 C   0  0  0  0  0  0  0  0  0  0  0  0
   24.9635  -20.4909   -9.9490 C   0  0  0  0  0  0  0  0  0  0  0  0
   24.9109  -19.1092   -9.9066 O   0  0  0  0  0  0  0  0  0  0  0  0
   23.9144  -21.1032   -9.6076 O   0  0  0  0  0  0  0  0  0  0  0  0
  2  1  1  0
  3  4  1  1
  3  2  1  0
  5  3  1  0
  5  6  2  0
  7  5  1  0
  8  7  1  0
  9  8  1  0
 10  9  1  0
 10 11  1  0
 11  7  1  0
 11 12  1  1
 12 14  1  0
 13 12  2  0
 15 16  1  1
 15 26  1  0
 15 14  1  0
 17 18  2  0
 17 16  1  0
 19 18  1  0
 20 25  2  0
 20 19  1  0
 21 20  1  0
 22 23  1  0
 22 21  2  0
 23 24  2  0
 24 25  1  0
 25 17  1  0
 26 27  1  0
 28 26  2  0
M  END
$$$$
