SPW.pdb
     RDKit          3D

 28 30  0  0  1  0  0  0  0  0999 V2000
   29.3816  -18.3400  -13.9104 O   0  0  0  0  0  0  0  0  0  0  0  0
   29.8019  -18.7538  -15.1709 C   0  0  0  0  0  0  0  0  0  0  0  0
   28.7200  -18.4324  -16.2135 C   0  0  2  0  0  0  0  0  0  0  0  0
   28.6142  -16.9866  -16.1926 N   0  0  0  0  0  0  0  0  0  0  0  0
   27.4587  -19.0292  -15.7081 C   0  0  0  0  0  0  0  0  0  0  0  0
   26.5766  -18.1899  -15.3015 O   0  0  0  0  0  0  0  0  0  0  0  0
   27.2153  -20.4153  -15.6652 N   0  0  0  0  0  0  0  0  0  0  0  0
   28.1327  -21.4660  -15.9758 C   0  0  0  0  0  0  0  0  0  0  0  0
   27.2395  -22.5657  -16.5453 C   0  0  0  0  0  0  0  0  0  0  0  0
   25.8140  -22.0565  -16.4285 C   0  0  0  0  0  0  0  0  0  0  0  0
   25.9709  -21.0271  -15.2983 C   0  0  1  0  0  0  0  0  0  0  0  0
   26.0291  -21.7871  -14.0440 C   0  0  0  0  0  0  0  0  0  0  0  0
   26.4309  -22.9756  -14.0084 O   0  0  0  0  0  0  0  0  0  0  0  0
   25.6155  -21.1443  -12.8473 N   0  0  0  0  0  0  0  0  0  0  0  0
   25.2310  -21.8509  -11.6356 C   0  0  1  0  0  0  0  0  0  0  0  0
   26.4328  -21.8132  -10.7733 C   0  0  0  0  0  0  0  0  0  0  0  0
   26.5913  -20.7753   -9.8087 C   0  0  0  0  0  0  0  0  0  0  0  0
   25.6996  -19.7405   -9.6081 C   0  0  0  0  0  0  0  0  0  0  0  0
   26.1643  -18.9570   -8.6243 N   0  0  0  0  0  0  0  0  0  0  0  0
   27.3397  -19.4185   -8.1461 C   0  0  0  0  0  0  0  0  0  0  0  0
   28.2184  -19.0075   -7.1671 C   0  0  0  0  0  0  0  0  0  0  0  0
   29.3593  -19.7493   -6.9451 C   0  0  0  0  0  0  0  0  0  0  0  0
   29.6160  -20.8817   -7.6893 C   0  0  0  0  0  0  0  0  0  0  0  0
   28.7445  -21.2944   -8.6645 C   0  0  0  0  0  0  0  0  0  0  0  0
   27.6041  -20.5627   -8.8945 C   0  0  0  0  0  0  0  0  0  0  0  0
   24.1155  -21.1067  -11.0410 C   0  0  0  0  0  0  0  0  0  0  0  0
   23.3511  -21.6943  -10.0490 O   0  0  0  0  0  0  0  0  0  0  0  0
   23.7923  -19.9347  -11.3786 O   0  0  0  0  0  0  0  0  0  0  0  0
  2  1  1  0
  3  4  1  1
  3  2  1  0
  5  3  1  0
  5  6  2  0
  7  5  1  0
  8  7  1  0
  9  8  1  0
 10  9  1  0
 10 11  1  0
 11  7  1  0
 11 12  1  1
 12 14  1  0
 13 12  2  0
 15 16  1  1
 15 26  1  0
 15 14  1  0
 17 18  2  0
 17 16  1  0
 19 18  1  0
 20 25  2  0
 20 19  1  0
 21 20  1  0
 22 23  1  0
 22 21  2  0
 23 24  2  0
 24 25  1  0
 25 17  1  0
 26 27  1  0
 28 26  2  0
M  END
$$$$
