SPW.pdb
     RDKit          3D

 28 30  0  0  1  0  0  0  0  0999 V2000
   25.3439  -22.5203  -15.8574 O   0  0  0  0  0  0  0  0  0  0  0  0
   25.8466  -21.7228  -16.8811 C   0  0  0  0  0  0  0  0  0  0  0  0
   27.3669  -21.5670  -16.7228 C   0  0  2  0  0  0  0  0  0  0  0  0
   27.9099  -22.8353  -17.1684 N   0  0  0  0  0  0  0  0  0  0  0  0
   27.6235  -21.4005  -15.2706 C   0  0  0  0  0  0  0  0  0  0  0  0
   28.2696  -22.3588  -14.7121 O   0  0  0  0  0  0  0  0  0  0  0  0
   27.2016  -20.2808  -14.5285 N   0  0  0  0  0  0  0  0  0  0  0  0
   26.3233  -19.2383  -14.9571 C   0  0  0  0  0  0  0  0  0  0  0  0
   26.8327  -18.0091  -14.2079 C   0  0  0  0  0  0  0  0  0  0  0  0
   27.9576  -18.4954  -13.3116 C   0  0  0  0  0  0  0  0  0  0  0  0
   27.5953  -19.9832  -13.1816 C   0  0  1  0  0  0  0  0  0  0  0  0
   26.4983  -20.0644  -12.2099 C   0  0  0  0  0  0  0  0  0  0  0  0
   25.3146  -19.7891  -12.5236 O   0  0  0  0  0  0  0  0  0  0  0  0
   26.8027  -20.4671  -10.8827 N   0  0  0  0  0  0  0  0  0  0  0  0
   25.9529  -21.3328  -10.0803 C   0  0  1  0  0  0  0  0  0  0  0  0
   26.6972  -21.5352   -8.8175 C   0  0  0  0  0  0  0  0  0  0  0  0
   26.9411  -20.4347   -7.9444 C   0  0  0  0  0  0  0  0  0  0  0  0
   26.3970  -19.1743   -8.0911 C   0  0  0  0  0  0  0  0  0  0  0  0
   26.8387  -18.3964   -7.0923 N   0  0  0  0  0  0  0  0  0  0  0  0
   27.6638  -19.0788   -6.2698 C   0  0  0  0  0  0  0  0  0  0  0  0
   28.3711  -18.7691   -5.1281 C   0  0  0  0  0  0  0  0  0  0  0  0
   29.1369  -19.7503   -4.5349 C   0  0  0  0  0  0  0  0  0  0  0  0
   29.1938  -21.0183   -5.0744 C   0  0  0  0  0  0  0  0  0  0  0  0
   28.4917  -21.3310   -6.2102 C   0  0  0  0  0  0  0  0  0  0  0  0
   27.7249  -20.3608   -6.8100 C   0  0  0  0  0  0  0  0  0  0  0  0
   24.6953  -20.6116   -9.8569 C   0  0  0  0  0  0  0  0  0  0  0  0
   23.5625  -21.3101   -9.4794 O   0  0  0  0  0  0  0  0  0  0  0  0
   24.5672  -19.3633   -9.9881 O   0  0  0  0  0  0  0  0  0  0  0  0
  2  1  1  0
  3  4  1  1
  3  2  1  0
  5  3  1  0
  5  6  2  0
  7  5  1  0
  8  7  1  0
  9  8  1  0
 10  9  1  0
 10 11  1  0
 11  7  1  0
 11 12  1  1
 12 14  1  0
 13 12  2  0
 15 16  1  1
 15 26  1  0
 15 14  1  0
 17 18  2  0
 17 16  1  0
 19 18  1  0
 20 25  2  0
 20 19  1  0
 21 20  1  0
 22 23  1  0
 22 21  2  0
 23 24  2  0
 24 25  1  0
 25 17  1  0
 26 27  1  0
 28 26  2  0
M  END
$$$$
