SPW.pdb
     RDKit          3D

 28 30  0  0  1  0  0  0  0  0999 V2000
   24.5400  -20.9427  -16.9058 O   0  0  0  0  0  0  0  0  0  0  0  0
   25.2840  -22.1128  -16.7884 C   0  0  0  0  0  0  0  0  0  0  0  0
   26.7841  -21.7801  -16.7913 C   0  0  2  0  0  0  0  0  0  0  0  0
   27.4110  -22.9363  -17.4011 N   0  0  0  0  0  0  0  0  0  0  0  0
   27.1962  -21.6850  -15.3688 C   0  0  0  0  0  0  0  0  0  0  0  0
   27.6947  -22.7563  -14.8671 O   0  0  0  0  0  0  0  0  0  0  0  0
   27.0638  -20.5155  -14.5960 N   0  0  0  0  0  0  0  0  0  0  0  0
   26.3937  -19.3073  -14.9608 C   0  0  0  0  0  0  0  0  0  0  0  0
   27.1935  -18.2224  -14.2432 C   0  0  0  0  0  0  0  0  0  0  0  0
   28.2496  -18.9453  -13.4263 C   0  0  0  0  0  0  0  0  0  0  0  0
   27.5972  -20.3287  -13.2776 C   0  0  1  0  0  0  0  0  0  0  0  0
   26.5726  -20.1993  -12.2346 C   0  0  0  0  0  0  0  0  0  0  0  0
   25.4411  -19.7124  -12.4753 O   0  0  0  0  0  0  0  0  0  0  0  0
   26.8873  -20.6422  -10.9227 N   0  0  0  0  0  0  0  0  0  0  0  0
   25.9485  -21.3274  -10.0485 C   0  0  1  0  0  0  0  0  0  0  0  0
   26.6782  -21.5136   -8.7747 C   0  0  0  0  0  0  0  0  0  0  0  0
   27.0300  -20.3847   -7.9780 C   0  0  0  0  0  0  0  0  0  0  0  0
   26.6133  -19.0900   -8.2149 C   0  0  0  0  0  0  0  0  0  0  0  0
   27.1299  -18.2921   -7.2692 N   0  0  0  0  0  0  0  0  0  0  0  0
   27.8836  -18.9940   -6.3961 C   0  0  0  0  0  0  0  0  0  0  0  0
   28.6183  -18.6772   -5.2738 C   0  0  0  0  0  0  0  0  0  0  0  0
   29.2834  -19.6858   -4.6092 C   0  0  0  0  0  0  0  0  0  0  0  0
   29.2144  -20.9875   -5.0596 C   0  0  0  0  0  0  0  0  0  0  0  0
   28.4846  -21.3073   -6.1758 C   0  0  0  0  0  0  0  0  0  0  0  0
   27.8175  -20.3101   -6.8462 C   0  0  0  0  0  0  0  0  0  0  0  0
   24.7910  -20.4416   -9.8838 C   0  0  0  0  0  0  0  0  0  0  0  0
   23.5847  -20.9632   -9.4523 O   0  0  0  0  0  0  0  0  0  0  0  0
   24.8158  -19.2013  -10.1143 O   0  0  0  0  0  0  0  0  0  0  0  0
  2  1  1  0
  3  4  1  1
  3  2  1  0
  5  3  1  0
  5  6  2  0
  7  5  1  0
  8  7  1  0
  9  8  1  0
 10  9  1  0
 10 11  1  0
 11  7  1  0
 11 12  1  1
 12 14  1  0
 13 12  2  0
 15 16  1  1
 15 26  1  0
 15 14  1  0
 17 18  2  0
 17 16  1  0
 19 18  1  0
 20 25  2  0
 20 19  1  0
 21 20  1  0
 22 23  1  0
 22 21  2  0
 23 24  2  0
 24 25  1  0
 25 17  1  0
 26 27  1  0
 28 26  2  0
M  END
$$$$
