SPW.pdb
     RDKit          3D

 28 30  0  0  1  0  0  0  0  0999 V2000
   24.7867  -18.1706  -13.3813 O   0  0  0  0  0  0  0  0  0  0  0  0
   25.8501  -17.5268  -14.0068 C   0  0  0  0  0  0  0  0  0  0  0  0
   26.5443  -18.4915  -14.9806 C   0  0  2  0  0  0  0  0  0  0  0  0
   25.5883  -18.6721  -16.0555 N   0  0  0  0  0  0  0  0  0  0  0  0
   26.7182  -19.7721  -14.2512 C   0  0  0  0  0  0  0  0  0  0  0  0
   25.9326  -20.7216  -14.6105 O   0  0  0  0  0  0  0  0  0  0  0  0
   27.6701  -19.9648  -13.2318 N   0  0  0  0  0  0  0  0  0  0  0  0
   28.4411  -18.9627  -12.5658 C   0  0  0  0  0  0  0  0  0  0  0  0
   29.7512  -19.6759  -12.2392 C   0  0  0  0  0  0  0  0  0  0  0  0
   29.5756  -21.1137  -12.6941 C   0  0  0  0  0  0  0  0  0  0  0  0
   28.0436  -21.2332  -12.6758 C   0  0  1  0  0  0  0  0  0  0  0  0
   27.6531  -21.4048  -11.2714 C   0  0  0  0  0  0  0  0  0  0  0  0
   28.2755  -22.1756  -10.5009 O   0  0  0  0  0  0  0  0  0  0  0  0
   26.5378  -20.6708  -10.7880 N   0  0  0  0  0  0  0  0  0  0  0  0
   25.5150  -21.2259   -9.9156 C   0  0  1  0  0  0  0  0  0  0  0  0
   26.1634  -21.3396   -8.5904 C   0  0  0  0  0  0  0  0  0  0  0  0
   26.7231  -20.1872   -7.9645 C   0  0  0  0  0  0  0  0  0  0  0  0
   26.5827  -18.8926   -8.4231 C   0  0  0  0  0  0  0  0  0  0  0  0
   27.2339  -18.0683   -7.5899 N   0  0  0  0  0  0  0  0  0  0  0  0
   27.8133  -18.7521   -6.5800 C   0  0  0  0  0  0  0  0  0  0  0  0
   28.5770  -18.4067   -5.4859 C   0  0  0  0  0  0  0  0  0  0  0  0
   29.0110  -19.4036   -4.6379 C   0  0  0  0  0  0  0  0  0  0  0  0
   28.6868  -20.7219   -4.8807 C   0  0  0  0  0  0  0  0  0  0  0  0
   27.9272  -21.0702   -5.9681 C   0  0  0  0  0  0  0  0  0  0  0  0
   27.4890  -20.0849   -6.8201 C   0  0  0  0  0  0  0  0  0  0  0  0
   24.4042  -20.2682   -9.8936 C   0  0  0  0  0  0  0  0  0  0  0  0
   23.2149  -20.6120   -9.2764 O   0  0  0  0  0  0  0  0  0  0  0  0
   24.4556  -19.1191  -10.4123 O   0  0  0  0  0  0  0  0  0  0  0  0
  2  1  1  0
  3  4  1  6
  3  2  1  0
  5  3  1  0
  5  6  2  0
  7  5  1  0
  8  7  1  0
  9  8  1  0
 10  9  1  0
 10 11  1  0
 11  7  1  0
 11 12  1  1
 12 14  1  0
 13 12  2  0
 15 16  1  1
 15 26  1  0
 15 14  1  0
 17 18  2  0
 17 16  1  0
 19 18  1  0
 20 25  2  0
 20 19  1  0
 21 20  1  0
 22 23  1  0
 22 21  2  0
 23 24  2  0
 24 25  1  0
 25 17  1  0
 26 27  1  0
 28 26  2  0
M  END
$$$$
