SPW.pdb
     RDKit          3D

 28 30  0  0  1  0  0  0  0  0999 V2000
   26.2067  -18.6834  -16.0157 O   0  0  0  0  0  0  0  0  0  0  0  0
   27.5228  -18.6866  -16.4678 C   0  0  0  0  0  0  0  0  0  0  0  0
   28.0714  -20.1218  -16.4677 C   0  0  2  0  0  0  0  0  0  0  0  0
   27.4181  -20.7600  -17.5937 N   0  0  0  0  0  0  0  0  0  0  0  0
   27.6079  -20.7488  -15.2050 C   0  0  0  0  0  0  0  0  0  0  0  0
   26.6201  -21.5601  -15.3232 O   0  0  0  0  0  0  0  0  0  0  0  0
   28.1906  -20.4934  -13.9489 N   0  0  0  0  0  0  0  0  0  0  0  0
   29.2052  -19.5346  -13.6435 C   0  0  0  0  0  0  0  0  0  0  0  0
   29.9856  -20.1882  -12.5053 C   0  0  0  0  0  0  0  0  0  0  0  0
   29.2654  -21.4867  -12.1888 C   0  0  0  0  0  0  0  0  0  0  0  0
   27.8614  -21.1728  -12.7292 C   0  0  1  0  0  0  0  0  0  0  0  0
   27.2089  -20.3183  -11.7302 C   0  0  0  0  0  0  0  0  0  0  0  0
   27.4514  -19.0894  -11.6507 O   0  0  0  0  0  0  0  0  0  0  0  0
   26.2803  -20.9150  -10.8368 N   0  0  0  0  0  0  0  0  0  0  0  0
   25.4598  -20.1671   -9.8973 C   0  0  1  0  0  0  0  0  0  0  0  0
   24.4926  -19.4280  -10.7385 C   0  0  0  0  0  0  0  0  0  0  0  0
   23.5190  -20.1358  -11.5027 C   0  0  0  0  0  0  0  0  0  0  0  0
   22.4569  -20.8397  -10.9712 C   0  0  0  0  0  0  0  0  0  0  0  0
   21.7481  -21.3729  -11.9768 N   0  0  0  0  0  0  0  0  0  0  0  0
   22.2870  -21.0592  -13.1744 C   0  0  0  0  0  0  0  0  0  0  0  0
   21.9688  -21.3392  -14.4859 C   0  0  0  0  0  0  0  0  0  0  0  0
   22.7725  -20.8348  -15.4863 C   0  0  0  0  0  0  0  0  0  0  0  0
   23.8745  -20.0643  -15.1798 C   0  0  0  0  0  0  0  0  0  0  0  0
   24.1949  -19.7832  -13.8763 C   0  0  0  0  0  0  0  0  0  0  0  0
   23.4009  -20.2806  -12.8709 C   0  0  0  0  0  0  0  0  0  0  0  0
   24.7893  -21.1486   -9.0379 C   0  0  0  0  0  0  0  0  0  0  0  0
   24.9535  -22.5000   -9.2835 O   0  0  0  0  0  0  0  0  0  0  0  0
   24.0513  -20.8411   -8.0618 O   0  0  0  0  0  0  0  0  0  0  0  0
  2  1  1  0
  3  4  1  6
  3  2  1  0
  5  3  1  0
  5  6  2  0
  7  5  1  0
  8  7  1  0
  9  8  1  0
 10  9  1  0
 10 11  1  0
 11  7  1  0
 11 12  1  1
 12 14  1  0
 13 12  2  0
 15 16  1  6
 15 26  1  0
 15 14  1  0
 17 18  2  0
 17 16  1  0
 19 18  1  0
 20 25  2  0
 20 19  1  0
 21 20  1  0
 22 23  1  0
 22 21  2  0
 23 24  2  0
 24 25  1  0
 25 17  1  0
 26 27  1  0
 28 26  2  0
M  END
$$$$
