SPW.pdb
     RDKit          3D

 28 30  0  0  1  0  0  0  0  0999 V2000
   25.0409  -17.1562  -14.7484 O   0  0  0  0  0  0  0  0  0  0  0  0
   26.3113  -16.5945  -14.6650 C   0  0  0  0  0  0  0  0  0  0  0  0
   27.1940  -17.1287  -15.8035 C   0  0  2  0  0  0  0  0  0  0  0  0
   26.6212  -16.5561  -17.0060 N   0  0  0  0  0  0  0  0  0  0  0  0
   27.0125  -18.6015  -15.8205 C   0  0  0  0  0  0  0  0  0  0  0  0
   26.2921  -19.0565  -16.7805 O   0  0  0  0  0  0  0  0  0  0  0  0
   27.5785  -19.4671  -14.8650 N   0  0  0  0  0  0  0  0  0  0  0  0
   28.2043  -19.1062  -13.6321 C   0  0  0  0  0  0  0  0  0  0  0  0
   29.2698  -20.1833  -13.4417 C   0  0  0  0  0  0  0  0  0  0  0  0
   29.0973  -21.1580  -14.5929 C   0  0  0  0  0  0  0  0  0  0  0  0
   27.6306  -20.8968  -14.9700 C   0  0  1  0  0  0  0  0  0  0  0  0
   26.8104  -21.5962  -13.9739 C   0  0  0  0  0  0  0  0  0  0  0  0
   26.9471  -22.8232  -13.7478 O   0  0  0  0  0  0  0  0  0  0  0  0
   25.8403  -20.8487  -13.2554 N   0  0  0  0  0  0  0  0  0  0  0  0
   24.6899  -21.4377  -12.5884 C   0  0  1  0  0  0  0  0  0  0  0  0
   25.2400  -22.0836  -11.3761 C   0  0  0  0  0  0  0  0  0  0  0  0
   25.8195  -21.2917  -10.3417 C   0  0  0  0  0  0  0  0  0  0  0  0
   25.1218  -20.4207   -9.5290 C   0  0  0  0  0  0  0  0  0  0  0  0
   25.9809  -19.8511   -8.6715 N   0  0  0  0  0  0  0  0  0  0  0  0
   27.2386  -20.3008   -8.8688 C   0  0  0  0  0  0  0  0  0  0  0  0
   28.4619  -20.0520   -8.2846 C   0  0  0  0  0  0  0  0  0  0  0  0
   29.5725  -20.7160   -8.7610 C   0  0  0  0  0  0  0  0  0  0  0  0
   29.4608  -21.6125   -9.8031 C   0  0  0  0  0  0  0  0  0  0  0  0
   28.2457  -21.8632  -10.3874 C   0  0  0  0  0  0  0  0  0  0  0  0
   27.1319  -21.2072   -9.9207 C   0  0  0  0  0  0  0  0  0  0  0  0
   23.7809  -20.3374  -12.2495 C   0  0  0  0  0  0  0  0  0  0  0  0
   22.4761  -20.6146  -11.8831 O   0  0  0  0  0  0  0  0  0  0  0  0
   24.1121  -19.1201  -12.2684 O   0  0  0  0  0  0  0  0  0  0  0  0
  2  1  1  0
  3  4  1  6
  3  2  1  0
  5  3  1  0
  5  6  2  0
  7  5  1  0
  8  7  1  0
  9  8  1  0
 10  9  1  0
 10 11  1  0
 11  7  1  0
 11 12  1  1
 12 14  1  0
 13 12  2  0
 15 16  1  1
 15 26  1  0
 15 14  1  0
 17 18  2  0
 17 16  1  0
 19 18  1  0
 20 25  2  0
 20 19  1  0
 21 20  1  0
 22 23  1  0
 22 21  2  0
 23 24  2  0
 24 25  1  0
 25 17  1  0
 26 27  1  0
 28 26  2  0
M  END
$$$$
