SPW.pdb
     RDKit          3D

 28 30  0  0  1  0  0  0  0  0999 V2000
   25.5746  -17.6219  -13.2894 O   0  0  0  0  0  0  0  0  0  0  0  0
   25.3709  -17.8138  -14.6526 C   0  0  0  0  0  0  0  0  0  0  0  0
   26.6059  -18.4825  -15.2759 C   0  0  2  0  0  0  0  0  0  0  0  0
   26.2318  -18.7201  -16.6563 N   0  0  0  0  0  0  0  0  0  0  0  0
   26.7779  -19.7809  -14.5782 C   0  0  0  0  0  0  0  0  0  0  0  0
   25.9968  -20.7225  -14.9665 O   0  0  0  0  0  0  0  0  0  0  0  0
   27.7237  -19.9975  -13.5578 N   0  0  0  0  0  0  0  0  0  0  0  0
   28.5216  -19.0156  -12.8935 C   0  0  0  0  0  0  0  0  0  0  0  0
   29.8114  -19.7639  -12.5647 C   0  0  0  0  0  0  0  0  0  0  0  0
   29.5965  -21.1973  -13.0166 C   0  0  0  0  0  0  0  0  0  0  0  0
   28.0618  -21.2745  -12.9988 C   0  0  1  0  0  0  0  0  0  0  0  0
   27.6660  -21.4322  -11.5943 C   0  0  0  0  0  0  0  0  0  0  0  0
   28.4922  -21.7547  -10.7062 O   0  0  0  0  0  0  0  0  0  0  0  0
   26.3068  -21.2101  -11.2486 N   0  0  0  0  0  0  0  0  0  0  0  0
   25.7966  -21.2516   -9.8873 C   0  0  1  0  0  0  0  0  0  0  0  0
   26.7114  -20.3868   -9.1095 C   0  0  0  0  0  0  0  0  0  0  0  0
   26.5728  -20.2859   -7.6941 C   0  0  0  0  0  0  0  0  0  0  0  0
   25.3851  -20.4269   -7.0046 C   0  0  0  0  0  0  0  0  0  0  0  0
   25.6275  -20.2743   -5.6948 N   0  0  0  0  0  0  0  0  0  0  0  0
   26.9362  -20.0345   -5.4648 C   0  0  0  0  0  0  0  0  0  0  0  0
   27.6992  -19.8098   -4.3392 C   0  0  0  0  0  0  0  0  0  0  0  0
   29.0531  -19.5944   -4.4870 C   0  0  0  0  0  0  0  0  0  0  0  0
   29.6326  -19.6037   -5.7384 C   0  0  0  0  0  0  0  0  0  0  0  0
   28.8773  -19.8269   -6.8612 C   0  0  0  0  0  0  0  0  0  0  0  0
   27.5268  -20.0429   -6.7258 C   0  0  0  0  0  0  0  0  0  0  0  0
   24.4357  -20.7052   -9.9226 C   0  0  0  0  0  0  0  0  0  0  0  0
   23.4837  -21.1793   -9.0380 O   0  0  0  0  0  0  0  0  0  0  0  0
   24.0586  -19.8075  -10.7250 O   0  0  0  0  0  0  0  0  0  0  0  0
  2  1  1  0
  3  4  1  6
  3  2  1  0
  5  3  1  0
  5  6  2  0
  7  5  1  0
  8  7  1  0
  9  8  1  0
 10  9  1  0
 10 11  1  0
 11  7  1  0
 11 12  1  1
 12 14  1  0
 13 12  2  0
 15 16  1  1
 15 26  1  0
 15 14  1  0
 17 18  2  0
 17 16  1  0
 19 18  1  0
 20 25  2  0
 20 19  1  0
 21 20  1  0
 22 23  1  0
 22 21  2  0
 23 24  2  0
 24 25  1  0
 25 17  1  0
 26 27  1  0
 28 26  2  0
M  END
$$$$
