SPW.pdb
     RDKit          3D

 28 30  0  0  1  0  0  0  0  0999 V2000
   24.5597  -22.0016  -16.0598 O   0  0  0  0  0  0  0  0  0  0  0  0
   25.2027  -21.2906  -17.0685 C   0  0  0  0  0  0  0  0  0  0  0  0
   26.7122  -21.5738  -17.0261 C   0  0  2  0  0  0  0  0  0  0  0  0
   26.8514  -22.8890  -17.6201 N   0  0  0  0  0  0  0  0  0  0  0  0
   27.0883  -21.6351  -15.5918 C   0  0  0  0  0  0  0  0  0  0  0  0
   27.3793  -22.8040  -15.1483 O   0  0  0  0  0  0  0  0  0  0  0  0
   27.1333  -20.5077  -14.7495 N   0  0  0  0  0  0  0  0  0  0  0  0
   26.6420  -19.1957  -15.0312 C   0  0  0  0  0  0  0  0  0  0  0  0
   27.5966  -18.2828  -14.2650 C   0  0  0  0  0  0  0  0  0  0  0  0
   28.5439  -19.1983  -13.5104 C   0  0  0  0  0  0  0  0  0  0  0  0
   27.6995  -20.4799  -13.4319 C   0  0  1  0  0  0  0  0  0  0  0  0
   26.7135  -20.2678  -12.3655 C   0  0  0  0  0  0  0  0  0  0  0  0
   25.6125  -19.7065  -12.5844 O   0  0  0  0  0  0  0  0  0  0  0  0
   27.0307  -20.7161  -11.0561 N   0  0  0  0  0  0  0  0  0  0  0  0
   26.0903  -21.3955  -10.1790 C   0  0  1  0  0  0  0  0  0  0  0  0
   26.8267  -21.5966   -8.9113 C   0  0  0  0  0  0  0  0  0  0  0  0
   27.1762  -20.4777   -8.0996 C   0  0  0  0  0  0  0  0  0  0  0  0
   26.7624  -19.1797   -8.3232 C   0  0  0  0  0  0  0  0  0  0  0  0
   27.2758  -18.3938   -7.3658 N   0  0  0  0  0  0  0  0  0  0  0  0
   28.0244  -19.1070   -6.4974 C   0  0  0  0  0  0  0  0  0  0  0  0
   28.7542  -18.8045   -5.3681 C   0  0  0  0  0  0  0  0  0  0  0  0
   29.4148  -19.8218   -4.7124 C   0  0  0  0  0  0  0  0  0  0  0  0
   29.3462  -21.1180   -5.1784 C   0  0  0  0  0  0  0  0  0  0  0  0
   28.6211  -21.4236   -6.3017 C   0  0  0  0  0  0  0  0  0  0  0  0
   27.9586  -20.4176   -6.9634 C   0  0  0  0  0  0  0  0  0  0  0  0
   24.9439  -20.4978  -10.0016 C   0  0  0  0  0  0  0  0  0  0  0  0
   25.0312  -19.1832  -10.4233 O   0  0  0  0  0  0  0  0  0  0  0  0
   23.8512  -20.8475   -9.4767 O   0  0  0  0  0  0  0  0  0  0  0  0
  2  1  1  0
  3  4  1  1
  3  2  1  0
  5  3  1  0
  5  6  2  0
  7  5  1  0
  8  7  1  0
  9  8  1  0
 10  9  1  0
 10 11  1  0
 11  7  1  0
 11 12  1  1
 12 14  1  0
 13 12  2  0
 15 16  1  1
 15 26  1  0
 15 14  1  0
 17 18  2  0
 17 16  1  0
 19 18  1  0
 20 25  2  0
 20 19  1  0
 21 20  1  0
 22 23  1  0
 22 21  2  0
 23 24  2  0
 24 25  1  0
 25 17  1  0
 26 27  1  0
 28 26  2  0
M  END
$$$$
