SPW.pdb
     RDKit          3D

 28 30  0  0  1  0  0  0  0  0999 V2000
   25.7043  -17.1068  -14.2214 O   0  0  0  0  0  0  0  0  0  0  0  0
   26.9813  -16.9137  -14.7394 C   0  0  0  0  0  0  0  0  0  0  0  0
   27.1562  -17.7442  -16.0202 C   0  0  2  0  0  0  0  0  0  0  0  0
   26.3511  -17.0570  -17.0109 N   0  0  0  0  0  0  0  0  0  0  0  0
   26.5671  -19.0773  -15.7405 C   0  0  0  0  0  0  0  0  0  0  0  0
   25.4109  -19.2878  -16.2568 O   0  0  0  0  0  0  0  0  0  0  0  0
   27.2068  -20.0647  -14.9671 N   0  0  0  0  0  0  0  0  0  0  0  0
   28.4661  -19.9614  -14.2994 C   0  0  0  0  0  0  0  0  0  0  0  0
   29.0180  -21.3841  -14.3519 C   0  0  0  0  0  0  0  0  0  0  0  0
   27.9398  -22.2330  -15.0015 C   0  0  0  0  0  0  0  0  0  0  0  0
   26.6941  -21.3803  -14.7141 C   0  0  1  0  0  0  0  0  0  0  0  0
   26.3369  -21.6194  -13.3107 C   0  0  0  0  0  0  0  0  0  0  0  0
   26.9551  -22.4514  -12.6030 O   0  0  0  0  0  0  0  0  0  0  0  0
   25.2594  -20.8803  -12.7547 N   0  0  0  0  0  0  0  0  0  0  0  0
   24.7465  -21.0784  -11.4082 C   0  0  1  0  0  0  0  0  0  0  0  0
   25.5313  -20.1540  -10.5602 C   0  0  0  0  0  0  0  0  0  0  0  0
   26.8007  -20.5533  -10.0482 C   0  0  0  0  0  0  0  0  0  0  0  0
   27.7390  -21.2865  -10.7467 C   0  0  0  0  0  0  0  0  0  0  0  0
   28.8092  -21.4748   -9.9613 N   0  0  0  0  0  0  0  0  0  0  0  0
   28.6361  -20.8976   -8.7530 C   0  0  0  0  0  0  0  0  0  0  0  0
   29.3975  -20.7924   -7.6089 C   0  0  0  0  0  0  0  0  0  0  0  0
   28.8828  -20.1055   -6.5298 C   0  0  0  0  0  0  0  0  0  0  0  0
   27.6291  -19.5345   -6.5945 C   0  0  0  0  0  0  0  0  0  0  0  0
   26.8680  -19.6367   -7.7308 C   0  0  0  0  0  0  0  0  0  0  0  0
   27.3709  -20.3190   -8.8126 C   0  0  0  0  0  0  0  0  0  0  0  0
   23.3256  -20.7147  -11.4329 C   0  0  0  0  0  0  0  0  0  0  0  0
   22.5119  -21.0574  -10.3679 O   0  0  0  0  0  0  0  0  0  0  0  0
   22.7747  -20.0937  -12.3830 O   0  0  0  0  0  0  0  0  0  0  0  0
  2  1  1  0
  3  4  1  6
  3  2  1  0
  5  3  1  0
  5  6  2  0
  7  5  1  0
  8  7  1  0
  9  8  1  0
 10  9  1  0
 10 11  1  0
 11  7  1  0
 11 12  1  1
 12 14  1  0
 13 12  2  0
 15 16  1  1
 15 26  1  0
 15 14  1  0
 17 18  2  0
 17 16  1  0
 19 18  1  0
 20 25  2  0
 20 19  1  0
 21 20  1  0
 22 23  1  0
 22 21  2  0
 23 24  2  0
 24 25  1  0
 25 17  1  0
 26 27  1  0
 28 26  2  0
M  END
$$$$
