GKF.pdb
     RDKit          3D

 25 25  0  0  1  0  0  0  0  0999 V2000
    7.7904  -12.0325   19.7216 N   0  0  0  0  0  0  0  0  0  0  0  0
    8.4298  -13.3458   19.7162 C   0  0  0  0  0  0  0  0  0  0  0  0
    7.8246  -14.1503   20.7844 C   0  0  0  0  0  0  0  0  0  0  0  0
    7.1204  -13.5705   21.6520 O   0  0  0  0  0  0  0  0  0  0  0  0
    8.0056  -15.5584   20.8733 N   0  0  0  0  0  0  0  0  0  0  0  0
    7.3525  -16.2771   21.9171 C   0  0  1  0  0  0  0  0  0  0  0  0
    7.1046  -17.6992   21.4827 C   0  0  0  0  0  0  0  0  0  0  0  0
    6.3691  -18.4877   22.5572 C   0  0  0  0  0  0  0  0  0  0  0  0
    6.1239  -19.9030   22.0821 C   0  0  0  0  0  0  0  0  0  0  0  0
    5.2250  -20.6116   23.0614 C   0  0  0  0  0  0  0  0  0  0  0  0
    4.8461  -21.9076   22.5231 N   0  0  0  0  0  0  0  0  0  0  0  0
    8.1291  -16.1908   23.1669 C   0  0  0  0  0  0  0  0  0  0  0  0
    9.3738  -16.2748   23.1174 O   0  0  0  0  0  0  0  0  0  0  0  0
    7.4925  -16.0172   24.3986 N   0  0  0  0  0  0  0  0  0  0  0  0
    8.1920  -15.8194   25.6622 C   0  0  1  0  0  0  0  0  0  0  0  0
    7.3336  -15.1430   26.6714 C   0  0  0  0  0  0  0  0  0  0  0  0
    7.2538  -13.6966   26.3889 C   0  0  0  0  0  0  0  0  0  0  0  0
    5.9866  -13.1155   26.5154 C   0  0  0  0  0  0  0  0  0  0  0  0
    5.7990  -11.7721   26.3002 C   0  0  0  0  0  0  0  0  0  0  0  0
    6.8758  -10.9809   25.9537 C   0  0  0  0  0  0  0  0  0  0  0  0
    8.1225  -11.5551   25.8299 C   0  0  0  0  0  0  0  0  0  0  0  0
    8.3206  -12.9016   26.0439 C   0  0  0  0  0  0  0  0  0  0  0  0
    8.6501  -17.1276   26.1337 C   0  0  0  0  0  0  0  0  0  0  0  0
    9.4400  -17.1947   27.1047 O   0  0  0  0  0  0  0  0  0  0  0  0
    8.2558  -18.3215   25.5649 O   0  0  0  0  0  0  0  0  0  0  0  0
  1  2  1  0
  2  3  1  0
  3  4  2  0
  5  6  1  0
  5  3  1  0
  6 12  1  0
  6  7  1  6
  8  7  1  0
  8  9  1  0
 10  9  1  0
 11 10  1  0
 12 14  1  0
 12 13  2  0
 14 15  1  0
 15 23  1  0
 15 16  1  1
 17 16  1  0
 17 18  2  0
 19 18  1  0
 20 19  2  0
 21 22  2  0
 21 20  1  0
 22 17  1  0
 23 24  2  0
 23 25  1  0
M  END
$$$$
