GKF.pdb
     RDKit          3D

 25 25  0  0  1  0  0  0  0  0999 V2000
    6.0842  -19.2415   20.4228 N   0  0  0  0  0  0  0  0  0  0  0  0
    5.6890  -18.0962   21.2387 C   0  0  0  0  0  0  0  0  0  0  0  0
    6.8447  -17.1985   21.3518 C   0  0  0  0  0  0  0  0  0  0  0  0
    7.9756  -17.6220   20.9961 O   0  0  0  0  0  0  0  0  0  0  0  0
    6.7319  -15.8701   21.8481 N   0  0  0  0  0  0  0  0  0  0  0  0
    7.8976  -15.0518   21.9107 C   0  0  1  0  0  0  0  0  0  0  0  0
    7.5660  -13.6522   21.4597 C   0  0  0  0  0  0  0  0  0  0  0  0
    7.0666  -13.6359   20.0218 C   0  0  0  0  0  0  0  0  0  0  0  0
    8.2270  -13.4229   19.0746 C   0  0  0  0  0  0  0  0  0  0  0  0
    7.7173  -13.3889   17.6575 C   0  0  0  0  0  0  0  0  0  0  0  0
    8.8345  -13.2183   16.7433 N   0  0  0  0  0  0  0  0  0  0  0  0
    8.4828  -15.0904   23.2630 C   0  0  0  0  0  0  0  0  0  0  0  0
    9.5878  -14.5450   23.4640 O   0  0  0  0  0  0  0  0  0  0  0  0
    7.8195  -15.7261   24.3157 N   0  0  0  0  0  0  0  0  0  0  0  0
    8.3579  -15.8566   25.6642 C   0  0  1  0  0  0  0  0  0  0  0  0
    7.3787  -15.4232   26.6967 C   0  0  0  0  0  0  0  0  0  0  0  0
    7.3171  -13.9498   26.7576 C   0  0  0  0  0  0  0  0  0  0  0  0
    6.0445  -13.3826   26.6223 C   0  0  0  0  0  0  0  0  0  0  0  0
    5.8650  -12.0226   26.6872 C   0  0  0  0  0  0  0  0  0  0  0  0
    6.9553  -11.2004   26.8891 C   0  0  0  0  0  0  0  0  0  0  0  0
    8.2073  -11.7610   27.0222 C   0  0  0  0  0  0  0  0  0  0  0  0
    8.3973  -13.1241   26.9586 C   0  0  0  0  0  0  0  0  0  0  0  0
    8.7619  -17.2507   25.8556 C   0  0  0  0  0  0  0  0  0  0  0  0
    8.4980  -18.0994   24.9716 O   0  0  0  0  0  0  0  0  0  0  0  0
    9.4340  -17.7009   26.9737 O   0  0  0  0  0  0  0  0  0  0  0  0
  1  2  1  0
  2  3  1  0
  3  4  2  0
  5  6  1  0
  5  3  1  0
  6 12  1  0
  6  7  1  1
  8  7  1  0
  8  9  1  0
 10  9  1  0
 11 10  1  0
 12 14  1  0
 12 13  2  0
 14 15  1  0
 15 23  1  0
 15 16  1  1
 17 16  1  0
 17 18  2  0
 19 18  1  0
 20 19  2  0
 21 22  2  0
 21 20  1  0
 22 17  1  0
 23 24  2  0
 23 25  1  0
M  END
$$$$
