GKF.pdb
     RDKit          3D

 25 25  0  0  1  0  0  0  0  0999 V2000
    7.4364  -19.0667   20.0789 N   0  0  0  0  0  0  0  0  0  0  0  0
    6.9094  -18.3756   21.2529 C   0  0  0  0  0  0  0  0  0  0  0  0
    7.7185  -17.1707   21.4722 C   0  0  0  0  0  0  0  0  0  0  0  0
    8.9635  -17.2394   21.2991 O   0  0  0  0  0  0  0  0  0  0  0  0
    7.1464  -15.9313   21.8724 N   0  0  0  0  0  0  0  0  0  0  0  0
    7.9923  -14.7938   22.0242 C   0  0  1  0  0  0  0  0  0  0  0  0
    7.2955  -13.5636   21.5012 C   0  0  0  0  0  0  0  0  0  0  0  0
    6.9406  -13.7105   20.0282 C   0  0  0  0  0  0  0  0  0  0  0  0
    8.0842  -13.2161   19.1699 C   0  0  0  0  0  0  0  0  0  0  0  0
    7.6689  -13.2359   17.7220 C   0  0  0  0  0  0  0  0  0  0  0  0
    8.8087  -12.8995   16.8850 N   0  0  0  0  0  0  0  0  0  0  0  0
    8.4198  -14.6524   23.4276 C   0  0  0  0  0  0  0  0  0  0  0  0
    8.3198  -13.5400   23.9855 O   0  0  0  0  0  0  0  0  0  0  0  0
    8.9324  -15.7420   24.1365 N   0  0  0  0  0  0  0  0  0  0  0  0
    9.0371  -15.7988   25.5894 C   0  0  1  0  0  0  0  0  0  0  0  0
    7.7158  -15.6172   26.2482 C   0  0  0  0  0  0  0  0  0  0  0  0
    7.4129  -14.1808   26.4009 C   0  0  0  0  0  0  0  0  0  0  0  0
    8.4706  -13.3733   26.8353 C   0  0  0  0  0  0  0  0  0  0  0  0
    8.3098  -12.0181   26.9894 C   0  0  0  0  0  0  0  0  0  0  0  0
    7.0867  -11.4414   26.7121 C   0  0  0  0  0  0  0  0  0  0  0  0
    6.0467  -12.2383   26.2844 C   0  0  0  0  0  0  0  0  0  0  0  0
    6.1985  -13.5985   26.1267 C   0  0  0  0  0  0  0  0  0  0  0  0
    9.6467  -17.0807   25.9479 C   0  0  0  0  0  0  0  0  0  0  0  0
    9.8596  -17.9365   25.0570 O   0  0  0  0  0  0  0  0  0  0  0  0
   10.0137  -17.4144   27.2357 O   0  0  0  0  0  0  0  0  0  0  0  0
  1  2  1  0
  2  3  1  0
  3  4  2  0
  5  6  1  0
  5  3  1  0
  6 12  1  0
  6  7  1  1
  8  7  1  0
  8  9  1  0
 10  9  1  0
 11 10  1  0
 12 14  1  0
 12 13  2  0
 14 15  1  0
 15 23  1  0
 15 16  1  1
 17 16  1  0
 17 18  2  0
 19 18  1  0
 20 19  2  0
 21 22  2  0
 21 20  1  0
 22 17  1  0
 23 24  2  0
 23 25  1  0
M  END
$$$$
