GKF.pdb
     RDKit          3D

 25 25  0  0  1  0  0  0  0  0999 V2000
    5.7058  -20.2989   24.3253 N   0  0  0  0  0  0  0  0  0  0  0  0
    5.4849  -18.8563   24.2634 C   0  0  0  0  0  0  0  0  0  0  0  0
    6.5553  -18.2672   23.4499 C   0  0  0  0  0  0  0  0  0  0  0  0
    7.5316  -18.9907   23.1208 O   0  0  0  0  0  0  0  0  0  0  0  0
    6.5280  -16.9111   23.0215 N   0  0  0  0  0  0  0  0  0  0  0  0
    7.6248  -16.3996   22.2676 C   0  0  1  0  0  0  0  0  0  0  0  0
    7.1691  -15.2354   21.4255 C   0  0  0  0  0  0  0  0  0  0  0  0
    8.2477  -14.8067   20.4407 C   0  0  0  0  0  0  0  0  0  0  0  0
    7.7255  -13.6982   19.5533 C   0  0  0  0  0  0  0  0  0  0  0  0
    8.7507  -13.3767   18.4975 C   0  0  0  0  0  0  0  0  0  0  0  0
    8.1782  -12.4565   17.5286 N   0  0  0  0  0  0  0  0  0  0  0  0
    8.7463  -16.0530   23.1589 C   0  0  0  0  0  0  0  0  0  0  0  0
    9.8548  -15.7679   22.6601 O   0  0  0  0  0  0  0  0  0  0  0  0
    8.5844  -16.0398   24.5467 N   0  0  0  0  0  0  0  0  0  0  0  0
    9.6216  -15.6384   25.4893 C   0  0  1  0  0  0  0  0  0  0  0  0
    9.7307  -14.1587   25.5969 C   0  0  0  0  0  0  0  0  0  0  0  0
    8.4081  -13.5668   25.8773 C   0  0  0  0  0  0  0  0  0  0  0  0
    8.1644  -13.2119   27.2092 C   0  0  0  0  0  0  0  0  0  0  0  0
    6.9769  -12.6308   27.5812 C   0  0  0  0  0  0  0  0  0  0  0  0
    6.0072  -12.3922   26.6280 C   0  0  0  0  0  0  0  0  0  0  0  0
    6.2494  -12.7424   25.3172 C   0  0  0  0  0  0  0  0  0  0  0  0
    7.4375  -13.3255   24.9345 C   0  0  0  0  0  0  0  0  0  0  0  0
    9.3173  -16.2522   26.7831 C   0  0  0  0  0  0  0  0  0  0  0  0
    8.2743  -16.9349   26.9152 O   0  0  0  0  0  0  0  0  0  0  0  0
   10.1271  -16.1265   27.8936 O   0  0  0  0  0  0  0  0  0  0  0  0
  1  2  1  0
  2  3  1  0
  3  4  2  0
  5  6  1  0
  5  3  1  0
  6 12  1  0
  6  7  1  1
  8  7  1  0
  8  9  1  0
 10  9  1  0
 11 10  1  0
 12 14  1  0
 12 13  2  0
 14 15  1  0
 15 23  1  0
 15 16  1  1
 17 16  1  0
 17 18  2  0
 19 18  1  0
 20 19  2  0
 21 22  2  0
 21 20  1  0
 22 17  1  0
 23 24  2  0
 23 25  1  0
M  END
$$$$
