GKF.pdb
     RDKit          3D

 25 25  0  0  1  0  0  0  0  0999 V2000
    6.3968  -20.3474   22.5271 N   0  0  0  0  0  0  0  0  0  0  0  0
    5.8924  -19.0724   23.0306 C   0  0  0  0  0  0  0  0  0  0  0  0
    6.7578  -18.0053   22.5137 C   0  0  0  0  0  0  0  0  0  0  0  0
    7.8533  -18.3214   21.9802 O   0  0  0  0  0  0  0  0  0  0  0  0
    6.4027  -16.6303   22.5945 N   0  0  0  0  0  0  0  0  0  0  0  0
    7.3283  -15.6469   22.1375 C   0  0  1  0  0  0  0  0  0  0  0  0
    6.5877  -14.4055   21.7102 C   0  0  0  0  0  0  0  0  0  0  0  0
    7.5310  -13.3786   21.0996 C   0  0  0  0  0  0  0  0  0  0  0  0
    7.6307  -13.5933   19.6054 C   0  0  0  0  0  0  0  0  0  0  0  0
    8.5582  -12.5651   19.0122 C   0  0  0  0  0  0  0  0  0  0  0  0
    8.8099  -12.8854   17.6168 N   0  0  0  0  0  0  0  0  0  0  0  0
    8.3450  -15.3762   23.1698 C   0  0  0  0  0  0  0  0  0  0  0  0
    9.3288  -14.6630   22.8832 O   0  0  0  0  0  0  0  0  0  0  0  0
    8.2212  -15.9052   24.4572 N   0  0  0  0  0  0  0  0  0  0  0  0
    9.1283  -15.6039   25.5580 C   0  0  1  0  0  0  0  0  0  0  0  0
    8.3944  -15.1903   26.7840 C   0  0  0  0  0  0  0  0  0  0  0  0
    7.6704  -13.9264   26.5455 C   0  0  0  0  0  0  0  0  0  0  0  0
    8.4279  -12.7547   26.6573 C   0  0  0  0  0  0  0  0  0  0  0  0
    7.8637  -11.5227   26.4329 C   0  0  0  0  0  0  0  0  0  0  0  0
    6.5289  -11.4367   26.0918 C   0  0  0  0  0  0  0  0  0  0  0  0
    5.7850  -12.5918   25.9822 C   0  0  0  0  0  0  0  0  0  0  0  0
    6.3421  -13.8319   26.2052 C   0  0  0  0  0  0  0  0  0  0  0  0
    9.9551  -16.7880   25.7980 C   0  0  0  0  0  0  0  0  0  0  0  0
    9.7055  -17.8528   25.1854 O   0  0  0  0  0  0  0  0  0  0  0  0
   11.0202  -16.8065   26.6755 O   0  0  0  0  0  0  0  0  0  0  0  0
  1  2  1  0
  2  3  1  0
  3  4  2  0
  5  6  1  0
  5  3  1  0
  6 12  1  0
  6  7  1  1
  8  7  1  0
  8  9  1  0
 10  9  1  0
 11 10  1  0
 12 14  1  0
 12 13  2  0
 14 15  1  0
 15 23  1  0
 15 16  1  1
 17 16  1  0
 17 18  2  0
 19 18  1  0
 20 19  2  0
 21 22  2  0
 21 20  1  0
 22 17  1  0
 23 24  2  0
 23 25  1  0
M  END
$$$$
