GKF.pdb
     RDKit          3D

 25 25  0  0  1  0  0  0  0  0999 V2000
   11.9749  -18.7909   19.3490 N   0  0  0  0  0  0  0  0  0  0  0  0
   11.0089  -18.9240   20.4364 C   0  0  0  0  0  0  0  0  0  0  0  0
   10.4575  -17.5935   20.7199 C   0  0  0  0  0  0  0  0  0  0  0  0
   11.2305  -16.6990   21.1526 O   0  0  0  0  0  0  0  0  0  0  0  0
    9.0839  -17.2804   20.5233 N   0  0  0  0  0  0  0  0  0  0  0  0
    8.6194  -15.9697   20.8380 C   0  0  1  0  0  0  0  0  0  0  0  0
    7.3447  -15.6836   20.0861 C   0  0  0  0  0  0  0  0  0  0  0  0
    7.4866  -14.4536   19.2006 C   0  0  0  0  0  0  0  0  0  0  0  0
    7.9741  -14.8596   17.8272 C   0  0  0  0  0  0  0  0  0  0  0  0
    8.2876  -13.6258   17.0217 C   0  0  0  0  0  0  0  0  0  0  0  0
    8.9159  -14.0103   15.7686 N   0  0  0  0  0  0  0  0  0  0  0  0
    8.4679  -15.8124   22.2957 C   0  0  0  0  0  0  0  0  0  0  0  0
    8.6436  -16.8019   23.0365 O   0  0  0  0  0  0  0  0  0  0  0  0
    8.1322  -14.5765   22.8545 N   0  0  0  0  0  0  0  0  0  0  0  0
    7.9176  -14.3520   24.2790 C   0  0  1  0  0  0  0  0  0  0  0  0
    7.5143  -12.9490   24.5647 C   0  0  0  0  0  0  0  0  0  0  0  0
    7.3283  -12.7552   26.0160 C   0  0  0  0  0  0  0  0  0  0  0  0
    6.0088  -12.5751   26.4470 C   0  0  0  0  0  0  0  0  0  0  0  0
    5.7152  -12.4098   27.7785 C   0  0  0  0  0  0  0  0  0  0  0  0
    6.7360  -12.4211   28.7077 C   0  0  0  0  0  0  0  0  0  0  0  0
    8.0344  -12.5988   28.2810 C   0  0  0  0  0  0  0  0  0  0  0  0
    8.3387  -12.7655   26.9477 C   0  0  0  0  0  0  0  0  0  0  0  0
    6.9084  -15.3076   24.7391 C   0  0  0  0  0  0  0  0  0  0  0  0
    5.8797  -15.5026   24.0499 O   0  0  0  0  0  0  0  0  0  0  0  0
    7.0215  -16.0276   25.9110 O   0  0  0  0  0  0  0  0  0  0  0  0
  1  2  1  0
  2  3  1  0
  3  4  2  0
  5  6  1  0
  5  3  1  0
  6 12  1  0
  6  7  1  6
  8  7  1  0
  8  9  1  0
 10  9  1  0
 11 10  1  0
 12 14  1  0
 12 13  2  0
 14 15  1  0
 15 23  1  0
 15 16  1  6
 17 16  1  0
 17 18  2  0
 19 18  1  0
 20 19  2  0
 21 22  2  0
 21 20  1  0
 22 17  1  0
 23 24  2  0
 23 25  1  0
M  END
$$$$
