GKF.pdb
     RDKit          3D

 25 25  0  0  1  0  0  0  0  0999 V2000
    6.6106  -18.7691   19.9277 N   0  0  0  0  0  0  0  0  0  0  0  0
    6.4685  -18.1491   21.2426 C   0  0  0  0  0  0  0  0  0  0  0  0
    7.4510  -17.0630   21.3415 C   0  0  0  0  0  0  0  0  0  0  0  0
    8.6689  -17.3330   21.1721 O   0  0  0  0  0  0  0  0  0  0  0  0
    7.0760  -15.7197   21.6212 N   0  0  0  0  0  0  0  0  0  0  0  0
    8.0947  -14.7420   21.8187 C   0  0  1  0  0  0  0  0  0  0  0  0
    7.6858  -13.4396   21.1793 C   0  0  0  0  0  0  0  0  0  0  0  0
    7.2214  -13.6471   19.7445 C   0  0  0  0  0  0  0  0  0  0  0  0
    8.3512  -13.3394   18.7866 C   0  0  0  0  0  0  0  0  0  0  0  0
    7.8830  -13.5603   17.3720 C   0  0  0  0  0  0  0  0  0  0  0  0
    8.9472  -13.2067   16.4471 N   0  0  0  0  0  0  0  0  0  0  0  0
    8.4023  -14.6000   23.2531 C   0  0  0  0  0  0  0  0  0  0  0  0
    8.1920  -13.5054   23.8155 O   0  0  0  0  0  0  0  0  0  0  0  0
    8.9233  -15.6695   23.9862 N   0  0  0  0  0  0  0  0  0  0  0  0
    9.0301  -15.6920   25.4399 C   0  0  1  0  0  0  0  0  0  0  0  0
    7.6949  -15.6573   26.0948 C   0  0  0  0  0  0  0  0  0  0  0  0
    7.3061  -14.2648   26.3915 C   0  0  0  0  0  0  0  0  0  0  0  0
    5.9729  -13.9301   26.1268 C   0  0  0  0  0  0  0  0  0  0  0  0
    5.4943  -12.6693   26.3871 C   0  0  0  0  0  0  0  0  0  0  0  0
    6.3398  -11.7160   26.9181 C   0  0  0  0  0  0  0  0  0  0  0  0
    7.6520  -12.0478   27.1780 C   0  0  0  0  0  0  0  0  0  0  0  0
    8.1411  -13.3097   26.9204 C   0  0  0  0  0  0  0  0  0  0  0  0
    9.7853  -16.8879   25.8181 C   0  0  0  0  0  0  0  0  0  0  0  0
   10.0201  -17.7701   24.9590 O   0  0  0  0  0  0  0  0  0  0  0  0
   10.2697  -17.1102   27.0911 O   0  0  0  0  0  0  0  0  0  0  0  0
  1  2  1  0
  2  3  1  0
  3  4  2  0
  5  6  1  0
  5  3  1  0
  6 12  1  0
  6  7  1  1
  8  7  1  0
  8  9  1  0
 10  9  1  0
 11 10  1  0
 12 14  1  0
 12 13  2  0
 14 15  1  0
 15 23  1  0
 15 16  1  1
 17 16  1  0
 17 18  2  0
 19 18  1  0
 20 19  2  0
 21 22  2  0
 21 20  1  0
 22 17  1  0
 23 24  2  0
 23 25  1  0
M  END
$$$$
