GKF.pdb
     RDKit          3D

 25 25  0  0  1  0  0  0  0  0999 V2000
    5.2757  -19.4088   21.6554 N   0  0  0  0  0  0  0  0  0  0  0  0
    5.0580  -18.0576   22.1658 C   0  0  0  0  0  0  0  0  0  0  0  0
    6.3422  -17.3474   22.1335 C   0  0  0  0  0  0  0  0  0  0  0  0
    7.3974  -17.9968   22.3557 O   0  0  0  0  0  0  0  0  0  0  0  0
    6.4356  -15.9544   21.8605 N   0  0  0  0  0  0  0  0  0  0  0  0
    7.6972  -15.3042   21.9958 C   0  0  1  0  0  0  0  0  0  0  0  0
    7.7276  -14.0621   21.1423 C   0  0  0  0  0  0  0  0  0  0  0  0
    7.8384  -14.4070   19.6638 C   0  0  0  0  0  0  0  0  0  0  0  0
    8.1200  -13.1557   18.8614 C   0  0  0  0  0  0  0  0  0  0  0  0
    8.1684  -13.5005   17.3958 C   0  0  0  0  0  0  0  0  0  0  0  0
    8.3933  -12.2923   16.6196 N   0  0  0  0  0  0  0  0  0  0  0  0
    7.9852  -15.0272   23.4145 C   0  0  0  0  0  0  0  0  0  0  0  0
    7.3759  -14.1018   23.9901 O   0  0  0  0  0  0  0  0  0  0  0  0
    8.9262  -15.7833   24.1183 N   0  0  0  0  0  0  0  0  0  0  0  0
    9.3008  -15.5404   25.5061 C   0  0  1  0  0  0  0  0  0  0  0  0
    8.1101  -15.4317   26.3911 C   0  0  0  0  0  0  0  0  0  0  0  0
    7.7216  -14.0173   26.5554 C   0  0  0  0  0  0  0  0  0  0  0  0
    6.3514  -13.7699   26.6991 C   0  0  0  0  0  0  0  0  0  0  0  0
    5.8777  -12.4939   26.8826 C   0  0  0  0  0  0  0  0  0  0  0  0
    6.7653  -11.4375   26.9264 C   0  0  0  0  0  0  0  0  0  0  0  0
    8.1140  -11.6835   26.7848 C   0  0  0  0  0  0  0  0  0  0  0  0
    8.5985  -12.9600   26.6005 C   0  0  0  0  0  0  0  0  0  0  0  0
   10.1902  -16.6235   25.9293 C   0  0  0  0  0  0  0  0  0  0  0  0
   10.6508  -16.6275   27.0951 O   0  0  0  0  0  0  0  0  0  0  0  0
   10.5610  -17.6680   25.1070 O   0  0  0  0  0  0  0  0  0  0  0  0
  1  2  1  0
  2  3  1  0
  3  4  2  0
  5  6  1  0
  5  3  1  0
  6 12  1  0
  6  7  1  6
  8  7  1  0
  8  9  1  0
 10  9  1  0
 11 10  1  0
 12 14  1  0
 12 13  2  0
 14 15  1  0
 15 23  1  0
 15 16  1  1
 17 16  1  0
 17 18  2  0
 19 18  1  0
 20 19  2  0
 21 22  2  0
 21 20  1  0
 22 17  1  0
 23 24  2  0
 23 25  1  0
M  END
$$$$
