GKF.pdb
     RDKit          3D

 25 25  0  0  1  0  0  0  0  0999 V2000
    6.6284  -19.8613   21.0670 N   0  0  0  0  0  0  0  0  0  0  0  0
    6.2315  -18.7461   21.9229 C   0  0  0  0  0  0  0  0  0  0  0  0
    7.2526  -17.6981   21.8064 C   0  0  0  0  0  0  0  0  0  0  0  0
    8.4300  -18.0320   21.5113 O   0  0  0  0  0  0  0  0  0  0  0  0
    6.9590  -16.3219   22.0147 N   0  0  0  0  0  0  0  0  0  0  0  0
    8.0266  -15.3770   22.0134 C   0  0  1  0  0  0  0  0  0  0  0  0
    7.6737  -14.2064   21.1318 C   0  0  0  0  0  0  0  0  0  0  0  0
    8.3537  -14.3092   19.7738 C   0  0  0  0  0  0  0  0  0  0  0  0
    7.9133  -13.1647   18.8878 C   0  0  0  0  0  0  0  0  0  0  0  0
    8.4503  -13.3732   17.4959 C   0  0  0  0  0  0  0  0  0  0  0  0
    8.0028  -12.2906   16.6353 N   0  0  0  0  0  0  0  0  0  0  0  0
    8.3588  -14.9722   23.3912 C   0  0  0  0  0  0  0  0  0  0  0  0
    8.1361  -13.7976   23.7512 O   0  0  0  0  0  0  0  0  0  0  0  0
    8.9165  -15.8818   24.2934 N   0  0  0  0  0  0  0  0  0  0  0  0
    8.9146  -15.7068   25.7407 C   0  0  1  0  0  0  0  0  0  0  0  0
    7.5429  -15.4813   26.2703 C   0  0  0  0  0  0  0  0  0  0  0  0
    7.2654  -14.0354   26.3740 C   0  0  0  0  0  0  0  0  0  0  0  0
    8.3618  -13.2204   26.6791 C   0  0  0  0  0  0  0  0  0  0  0  0
    8.2253  -11.8573   26.7768 C   0  0  0  0  0  0  0  0  0  0  0  0
    6.9883  -11.2801   26.5712 C   0  0  0  0  0  0  0  0  0  0  0  0
    5.9102  -12.0845   26.2708 C   0  0  0  0  0  0  0  0  0  0  0  0
    6.0374  -13.4526   26.1706 C   0  0  0  0  0  0  0  0  0  0  0  0
    9.5359  -16.8899   26.3388 C   0  0  0  0  0  0  0  0  0  0  0  0
    9.6784  -16.9533   27.5826 O   0  0  0  0  0  0  0  0  0  0  0  0
    9.9833  -17.9680   25.6026 O   0  0  0  0  0  0  0  0  0  0  0  0
  1  2  1  0
  2  3  1  0
  3  4  2  0
  5  6  1  0
  5  3  1  0
  6 12  1  0
  6  7  1  6
  8  7  1  0
  8  9  1  0
 10  9  1  0
 11 10  1  0
 12 14  1  0
 12 13  2  0
 14 15  1  0
 15 23  1  0
 15 16  1  1
 17 16  1  0
 17 18  2  0
 19 18  1  0
 20 19  2  0
 21 22  2  0
 21 20  1  0
 22 17  1  0
 23 24  2  0
 23 25  1  0
M  END
$$$$
