GKF.pdb
     RDKit          3D

 25 25  0  0  1  0  0  0  0  0999 V2000
    5.8528  -20.1354   22.6574 N   0  0  0  0  0  0  0  0  0  0  0  0
    5.5661  -18.8581   23.3052 C   0  0  0  0  0  0  0  0  0  0  0  0
    6.5617  -17.8821   22.8462 C   0  0  0  0  0  0  0  0  0  0  0  0
    7.7669  -18.2382   22.7718 O   0  0  0  0  0  0  0  0  0  0  0  0
    6.2132  -16.5516   22.4833 N   0  0  0  0  0  0  0  0  0  0  0  0
    7.2470  -15.6359   22.1291 C   0  0  1  0  0  0  0  0  0  0  0  0
    6.6919  -14.5578   21.2337 C   0  0  0  0  0  0  0  0  0  0  0  0
    7.8014  -13.8296   20.4880 C   0  0  0  0  0  0  0  0  0  0  0  0
    7.2041  -12.8742   19.4784 C   0  0  0  0  0  0  0  0  0  0  0  0
    8.3109  -12.2043   18.7067 C   0  0  0  0  0  0  0  0  0  0  0  0
    8.9783  -13.1837   17.8651 N   0  0  0  0  0  0  0  0  0  0  0  0
    7.8933  -15.0948   23.3383 C   0  0  0  0  0  0  0  0  0  0  0  0
    7.6388  -13.9252   23.6932 O   0  0  0  0  0  0  0  0  0  0  0  0
    8.7820  -15.8707   24.0871 N   0  0  0  0  0  0  0  0  0  0  0  0
    9.1423  -15.5968   25.4729 C   0  0  1  0  0  0  0  0  0  0  0  0
    7.9421  -15.4511   26.3396 C   0  0  0  0  0  0  0  0  0  0  0  0
    7.5541  -14.0308   26.4424 C   0  0  0  0  0  0  0  0  0  0  0  0
    8.6053  -13.1148   26.5665 C   0  0  0  0  0  0  0  0  0  0  0  0
    8.3629  -11.7653   26.6455 C   0  0  0  0  0  0  0  0  0  0  0  0
    7.0629  -11.3030   26.6021 C   0  0  0  0  0  0  0  0  0  0  0  0
    6.0295  -12.2067   26.4797 C   0  0  0  0  0  0  0  0  0  0  0  0
    6.2628  -13.5621   26.3996 C   0  0  0  0  0  0  0  0  0  0  0  0
   10.0129  -16.6794   25.9349 C   0  0  0  0  0  0  0  0  0  0  0  0
    9.9719  -17.7943   25.3635 O   0  0  0  0  0  0  0  0  0  0  0  0
   10.9000  -16.5466   26.9838 O   0  0  0  0  0  0  0  0  0  0  0  0
  1  2  1  0
  2  3  1  0
  3  4  2  0
  5  6  1  0
  5  3  1  0
  6 12  1  0
  6  7  1  1
  8  7  1  0
  8  9  1  0
 10  9  1  0
 11 10  1  0
 12 14  1  0
 12 13  2  0
 14 15  1  0
 15 23  1  0
 15 16  1  1
 17 16  1  0
 17 18  2  0
 19 18  1  0
 20 19  2  0
 21 22  2  0
 21 20  1  0
 22 17  1  0
 23 24  2  0
 23 25  1  0
M  END
$$$$
