GKF.pdb
     RDKit          3D

 25 25  0  0  1  0  0  0  0  0999 V2000
    5.9087  -19.8957   22.7936 N   0  0  0  0  0  0  0  0  0  0  0  0
    5.6749  -18.4827   23.0802 C   0  0  0  0  0  0  0  0  0  0  0  0
    6.8049  -17.7166   22.5411 C   0  0  0  0  0  0  0  0  0  0  0  0
    7.7950  -18.3434   22.0812 O   0  0  0  0  0  0  0  0  0  0  0  0
    6.8202  -16.2943   22.5201 N   0  0  0  0  0  0  0  0  0  0  0  0
    7.9983  -15.6197   22.0847 C   0  0  1  0  0  0  0  0  0  0  0  0
    7.6310  -14.2962   21.4638 C   0  0  0  0  0  0  0  0  0  0  0  0
    7.2947  -14.4499   19.9871 C   0  0  0  0  0  0  0  0  0  0  0  0
    8.2038  -13.5712   19.1564 C   0  0  0  0  0  0  0  0  0  0  0  0
    7.8227  -13.6876   17.7037 C   0  0  0  0  0  0  0  0  0  0  0  0
    8.7098  -12.8621   16.9009 N   0  0  0  0  0  0  0  0  0  0  0  0
    8.9542  -15.4805   23.1980 C   0  0  0  0  0  0  0  0  0  0  0  0
   10.0930  -15.0226   22.9691 O   0  0  0  0  0  0  0  0  0  0  0  0
    8.6030  -15.8526   24.4982 N   0  0  0  0  0  0  0  0  0  0  0  0
    9.5023  -15.7788   25.6432 C   0  0  1  0  0  0  0  0  0  0  0  0
    9.7041  -14.3777   26.1006 C   0  0  0  0  0  0  0  0  0  0  0  0
    8.4055  -13.7475   26.4085 C   0  0  0  0  0  0  0  0  0  0  0  0
    8.1519  -13.4937   27.7615 C   0  0  0  0  0  0  0  0  0  0  0  0
    6.9858  -12.8886   28.1619 C   0  0  0  0  0  0  0  0  0  0  0  0
    6.0480  -12.5242   27.2167 C   0  0  0  0  0  0  0  0  0  0  0  0
    6.2999  -12.7750   25.8851 C   0  0  0  0  0  0  0  0  0  0  0  0
    7.4666  -13.3813   25.4738 C   0  0  0  0  0  0  0  0  0  0  0  0
    8.9483  -16.6188   26.7067 C   0  0  0  0  0  0  0  0  0  0  0  0
    7.8905  -17.2597   26.5026 O   0  0  0  0  0  0  0  0  0  0  0  0
    9.5323  -16.7556   27.9496 O   0  0  0  0  0  0  0  0  0  0  0  0
  1  2  1  0
  2  3  1  0
  3  4  2  0
  5  6  1  0
  5  3  1  0
  6 12  1  0
  6  7  1  1
  8  7  1  0
  8  9  1  0
 10  9  1  0
 11 10  1  0
 12 14  1  0
 12 13  2  0
 14 15  1  0
 15 23  1  0
 15 16  1  1
 17 16  1  0
 17 18  2  0
 19 18  1  0
 20 19  2  0
 21 22  2  0
 21 20  1  0
 22 17  1  0
 23 24  2  0
 23 25  1  0
M  END
$$$$
