GKF.pdb
     RDKit          3D

 25 25  0  0  1  0  0  0  0  0999 V2000
    5.3467  -20.3169   22.8128 N   0  0  0  0  0  0  0  0  0  0  0  0
    5.1194  -18.9934   23.3874 C   0  0  0  0  0  0  0  0  0  0  0  0
    6.1929  -18.1062   22.9237 C   0  0  0  0  0  0  0  0  0  0  0  0
    7.3854  -18.4963   23.0262 O   0  0  0  0  0  0  0  0  0  0  0  0
    5.9334  -16.8244   22.3641 N   0  0  0  0  0  0  0  0  0  0  0  0
    7.0201  -15.9250   22.1572 C   0  0  1  0  0  0  0  0  0  0  0  0
    6.5937  -14.8089   21.2381 C   0  0  0  0  0  0  0  0  0  0  0  0
    7.7904  -14.0072   20.7458 C   0  0  0  0  0  0  0  0  0  0  0  0
    7.6499  -13.7259   19.2659 C   0  0  0  0  0  0  0  0  0  0  0  0
    8.8068  -12.8784   18.8050 C   0  0  0  0  0  0  0  0  0  0  0  0
    8.7231  -12.6827   17.3670 N   0  0  0  0  0  0  0  0  0  0  0  0
    7.5362  -15.4340   23.4476 C   0  0  0  0  0  0  0  0  0  0  0  0
    7.0353  -14.4081   23.9530 O   0  0  0  0  0  0  0  0  0  0  0  0
    8.5728  -16.0992   24.1075 N   0  0  0  0  0  0  0  0  0  0  0  0
    9.1458  -15.6686   25.3770 C   0  0  1  0  0  0  0  0  0  0  0  0
    8.1023  -15.4752   26.4194 C   0  0  0  0  0  0  0  0  0  0  0  0
    7.6664  -14.0655   26.4522 C   0  0  0  0  0  0  0  0  0  0  0  0
    6.2858  -13.8481   26.3749 C   0  0  0  0  0  0  0  0  0  0  0  0
    5.7654  -12.5779   26.4208 C   0  0  0  0  0  0  0  0  0  0  0  0
    6.6156  -11.4975   26.5449 C   0  0  0  0  0  0  0  0  0  0  0  0
    7.9746  -11.7140   26.6210 C   0  0  0  0  0  0  0  0  0  0  0  0
    8.5059  -12.9843   26.5760 C   0  0  0  0  0  0  0  0  0  0  0  0
   10.1377  -16.6652   25.7851 C   0  0  0  0  0  0  0  0  0  0  0  0
   10.3110  -17.6901   25.0846 O   0  0  0  0  0  0  0  0  0  0  0  0
   10.9154  -16.5438   26.9187 O   0  0  0  0  0  0  0  0  0  0  0  0
  1  2  1  0
  2  3  1  0
  3  4  2  0
  5  6  1  0
  5  3  1  0
  6 12  1  0
  6  7  1  6
  8  7  1  0
  8  9  1  0
 10  9  1  0
 11 10  1  0
 12 14  1  0
 12 13  2  0
 14 15  1  0
 15 23  1  0
 15 16  1  1
 17 16  1  0
 17 18  2  0
 19 18  1  0
 20 19  2  0
 21 22  2  0
 21 20  1  0
 22 17  1  0
 23 24  2  0
 23 25  1  0
M  END
$$$$
