GKF.pdb
     RDKit          3D

 25 25  0  0  1  0  0  0  0  0999 V2000
    5.2715  -14.4390   20.5190 N   0  0  0  0  0  0  0  0  0  0  0  0
    6.7160  -14.2284   20.5703 C   0  0  0  0  0  0  0  0  0  0  0  0
    7.2908  -15.2380   21.4674 C   0  0  0  0  0  0  0  0  0  0  0  0
    6.5129  -15.9324   22.1727 O   0  0  0  0  0  0  0  0  0  0  0  0
    8.6926  -15.4586   21.5673 N   0  0  0  0  0  0  0  0  0  0  0  0
    9.1716  -16.5074   22.4059 C   0  0  1  0  0  0  0  0  0  0  0  0
   10.3259  -17.2104   21.7384 C   0  0  0  0  0  0  0  0  0  0  0  0
    9.8837  -17.9182   20.4653 C   0  0  0  0  0  0  0  0  0  0  0  0
   11.0608  -18.6290   19.8344 C   0  0  0  0  0  0  0  0  0  0  0  0
   10.5865  -19.4289   18.6493 C   0  0  0  0  0  0  0  0  0  0  0  0
   11.7276  -20.0386   17.9866 N   0  0  0  0  0  0  0  0  0  0  0  0
    9.5181  -15.9840   23.7395 C   0  0  0  0  0  0  0  0  0  0  0  0
   10.4440  -15.1532   23.8458 O   0  0  0  0  0  0  0  0  0  0  0  0
    8.8269  -16.4042   24.8788 N   0  0  0  0  0  0  0  0  0  0  0  0
    9.1680  -16.0042   26.2386 C   0  0  1  0  0  0  0  0  0  0  0  0
    7.9854  -15.4861   26.9775 C   0  0  0  0  0  0  0  0  0  0  0  0
    7.7538  -14.0674   26.6428 C   0  0  0  0  0  0  0  0  0  0  0  0
    6.4554  -13.7364   26.2378 C   0  0  0  0  0  0  0  0  0  0  0  0
    6.1195  -12.4419   25.9251 C   0  0  0  0  0  0  0  0  0  0  0  0
    7.0761  -11.4503   26.0110 C   0  0  0  0  0  0  0  0  0  0  0  0
    8.3538  -11.7785   26.4101 C   0  0  0  0  0  0  0  0  0  0  0  0
    8.7000  -13.0740   26.7259 C   0  0  0  0  0  0  0  0  0  0  0  0
    9.7613  -17.1602   26.9133 C   0  0  0  0  0  0  0  0  0  0  0  0
   10.1666  -17.0479   28.0942 O   0  0  0  0  0  0  0  0  0  0  0  0
    9.9041  -18.3971   26.3182 O   0  0  0  0  0  0  0  0  0  0  0  0
  1  2  1  0
  2  3  1  0
  3  4  2  0
  5  6  1  0
  5  3  1  0
  6 12  1  0
  6  7  1  6
  8  7  1  0
  8  9  1  0
 10  9  1  0
 11 10  1  0
 12 14  1  0
 12 13  2  0
 14 15  1  0
 15 23  1  0
 15 16  1  1
 17 16  1  0
 17 18  2  0
 19 18  1  0
 20 19  2  0
 21 22  2  0
 21 20  1  0
 22 17  1  0
 23 24  2  0
 23 25  1  0
M  END
$$$$
