GKF.pdb
     RDKit          3D

 25 25  0  0  1  0  0  0  0  0999 V2000
    7.6300  -12.2691   19.8324 N   0  0  0  0  0  0  0  0  0  0  0  0
    8.3595  -13.5335   19.8841 C   0  0  0  0  0  0  0  0  0  0  0  0
    7.6718  -14.4164   20.8339 C   0  0  0  0  0  0  0  0  0  0  0  0
    6.7995  -13.9221   21.5952 O   0  0  0  0  0  0  0  0  0  0  0  0
    7.9557  -15.8073   20.9237 N   0  0  0  0  0  0  0  0  0  0  0  0
    7.3241  -16.5798   21.9421 C   0  0  1  0  0  0  0  0  0  0  0  0
    7.2181  -18.0179   21.5028 C   0  0  0  0  0  0  0  0  0  0  0  0
    6.5331  -18.8723   22.5601 C   0  0  0  0  0  0  0  0  0  0  0  0
    6.5650  -20.3277   22.1480 C   0  0  0  0  0  0  0  0  0  0  0  0
    5.8714  -21.1601   23.1945 C   0  0  0  0  0  0  0  0  0  0  0  0
    5.9108  -22.5603   22.8061 N   0  0  0  0  0  0  0  0  0  0  0  0
    8.0375  -16.4269   23.2227 C   0  0  0  0  0  0  0  0  0  0  0  0
    9.2841  -16.3583   23.2209 O   0  0  0  0  0  0  0  0  0  0  0  0
    7.3393  -16.3582   24.4311 N   0  0  0  0  0  0  0  0  0  0  0  0
    7.9466  -16.0113   25.7103 C   0  0  1  0  0  0  0  0  0  0  0  0
    6.9643  -15.3938   26.6413 C   0  0  0  0  0  0  0  0  0  0  0  0
    6.8971  -13.9359   26.4215 C   0  0  0  0  0  0  0  0  0  0  0  0
    8.1204  -13.2908   26.2050 C   0  0  0  0  0  0  0  0  0  0  0  0
    8.1756  -11.9396   25.9656 C   0  0  0  0  0  0  0  0  0  0  0  0
    7.0076  -11.2044   25.9376 C   0  0  0  0  0  0  0  0  0  0  0  0
    5.8043  -11.8417   26.1510 C   0  0  0  0  0  0  0  0  0  0  0  0
    5.7388  -13.1966   26.3918 C   0  0  0  0  0  0  0  0  0  0  0  0
    8.5341  -17.2275   26.2751 C   0  0  0  0  0  0  0  0  0  0  0  0
    9.2933  -17.1451   27.2692 O   0  0  0  0  0  0  0  0  0  0  0  0
    8.2975  -18.4907   25.7722 O   0  0  0  0  0  0  0  0  0  0  0  0
  1  2  1  0
  2  3  1  0
  3  4  2  0
  5  6  1  0
  5  3  1  0
  6 12  1  0
  6  7  1  6
  8  7  1  0
  8  9  1  0
 10  9  1  0
 11 10  1  0
 12 14  1  0
 12 13  2  0
 14 15  1  0
 15 23  1  0
 15 16  1  1
 17 16  1  0
 17 18  2  0
 19 18  1  0
 20 19  2  0
 21 22  2  0
 21 20  1  0
 22 17  1  0
 23 24  2  0
 23 25  1  0
M  END
$$$$
