TES.pdb
     RDKit          3D

 23 22  0  0  1  0  0  0  0  0999 V2000
   15.6754  -10.4308  -16.6533 C   0  0  0  0  0  0  0  0  0  0  0  0
   16.9102   -9.6907  -16.2185 C   0  0  1  0  0  0  0  0  0  0  0  0
   16.7193   -9.1364  -14.9620 O   0  0  0  0  0  0  0  0  0  0  0  0
   18.1219  -10.6007  -16.2534 C   0  0  2  0  0  0  0  0  0  0  0  0
   17.8817  -11.6736  -15.3051 N   0  0  0  0  0  0  0  0  0  0  0  0
   19.3671   -9.8567  -15.9536 C   0  0  0  0  0  0  0  0  0  0  0  0
   19.7542   -9.8250  -14.7704 O   0  0  0  0  0  0  0  0  0  0  0  0
   20.1257   -9.1928  -16.9215 N   0  0  0  0  0  0  0  0  0  0  0  0
   21.2936   -8.4061  -16.7173 C   0  0  1  0  0  0  0  0  0  0  0  0
   22.2746   -8.3716  -17.8172 C   0  0  0  0  0  0  0  0  0  0  0  0
   23.0292   -9.6448  -18.0389 C   0  0  0  0  0  0  0  0  0  0  0  0
   23.8441   -9.6202  -19.2809 C   0  0  0  0  0  0  0  0  0  0  0  0
   25.0262   -9.2543  -19.3461 O   0  0  0  0  0  0  0  0  0  0  0  0
   20.8921   -6.9872  -16.3798 C   0  0  0  0  0  0  0  0  0  0  0  0
   19.8347   -6.5755  -16.8744 O   0  0  0  0  0  0  0  0  0  0  0  0
   23.2583  -10.0370  -20.4894 O   0  0  0  0  0  0  0  0  0  0  0  0
   19.5833   -4.0705  -13.3787 O   0  0  0  0  0  0  0  0  0  0  0  0
   20.0033   -5.1975  -14.0476 C   0  0  0  0  0  0  0  0  0  0  0  0
   21.1975   -4.9508  -14.9472 C   0  0  2  0  0  0  0  0  0  0  0  0
   21.6923   -6.1696  -15.5351 N   0  0  0  0  0  0  0  0  0  0  0  0
   22.2375   -4.1485  -14.2853 C   0  0  0  0  0  0  0  0  0  0  0  0
   22.0503   -2.7998  -14.1020 O   0  0  0  0  0  0  0  0  0  0  0  0
   23.2859   -4.6877  -13.8909 O   0  0  0  0  0  0  0  0  0  0  0  0
  2  1  1  1
  2  4  1  0
  3  2  1  0
  4  6  1  0
  4  5  1  1
  6  7  2  0
  8  6  1  0
  8  9  1  0
  9 14  1  0
  9 10  1  6
 11 12  1  0
 11 10  1  0
 12 13  2  0
 12 16  1  0
 14 20  1  0
 14 15  2  0
 18 17  1  0
 19 18  1  1
 20 19  1  0
 21 19  1  0
 21 22  1  0
 23 21  2  0
M  END
$$$$
