TES.pdb
     RDKit          3D

 23 22  0  0  1  0  0  0  0  0999 V2000
   20.4335  -10.7962  -15.1354 C   0  0  0  0  0  0  0  0  0  0  0  0
   19.6420  -11.4033  -16.2606 C   0  0  1  0  0  0  0  0  0  0  0  0
   19.6134  -12.7840  -16.1361 O   0  0  0  0  0  0  0  0  0  0  0  0
   18.2462  -10.8146  -16.3141 C   0  0  2  0  0  0  0  0  0  0  0  0
   17.5774  -11.3968  -17.4639 N   0  0  0  0  0  0  0  0  0  0  0  0
   18.2842   -9.3353  -16.3780 C   0  0  0  0  0  0  0  0  0  0  0  0
   18.7513   -8.8101  -17.4060 O   0  0  0  0  0  0  0  0  0  0  0  0
   17.8267   -8.5030  -15.3528 N   0  0  0  0  0  0  0  0  0  0  0  0
   17.8433   -7.0806  -15.3193 C   0  0  1  0  0  0  0  0  0  0  0  0
   16.6221   -6.4110  -14.8357 C   0  0  0  0  0  0  0  0  0  0  0  0
   16.6753   -4.9154  -14.8280 C   0  0  0  0  0  0  0  0  0  0  0  0
   15.4328   -4.2998  -14.2948 C   0  0  0  0  0  0  0  0  0  0  0  0
   15.3968   -3.3471  -13.5032 O   0  0  0  0  0  0  0  0  0  0  0  0
   19.0167   -6.6103  -14.4883 C   0  0  0  0  0  0  0  0  0  0  0  0
   19.4725   -7.4136  -13.6643 O   0  0  0  0  0  0  0  0  0  0  0  0
   14.1884   -4.8144  -14.6998 O   0  0  0  0  0  0  0  0  0  0  0  0
   23.2219   -5.5755  -14.3838 O   0  0  0  0  0  0  0  0  0  0  0  0
   21.9338   -5.9448  -14.6976 C   0  0  0  0  0  0  0  0  0  0  0  0
   20.8903   -4.9688  -14.1927 C   0  0  2  0  0  0  0  0  0  0  0  0
   19.5667   -5.3087  -14.6491 N   0  0  0  0  0  0  0  0  0  0  0  0
   21.2642   -3.5700  -14.4515 C   0  0  0  0  0  0  0  0  0  0  0  0
   20.8308   -2.9447  -15.5954 O   0  0  0  0  0  0  0  0  0  0  0  0
   21.9715   -2.9515  -13.6373 O   0  0  0  0  0  0  0  0  0  0  0  0
  2  1  1  1
  2  4  1  0
  3  2  1  0
  4  6  1  0
  4  5  1  6
  6  7  2  0
  8  6  1  0
  8  9  1  0
  9 14  1  0
  9 10  1  1
 11 12  1  0
 11 10  1  0
 12 13  2  0
 12 16  1  0
 14 20  1  0
 14 15  2  0
 18 17  1  0
 19 18  1  6
 20 19  1  0
 21 19  1  0
 21 22  1  0
 23 21  2  0
M  END
$$$$
