TES.pdb
     RDKit          3D

 23 22  0  0  1  0  0  0  0  0999 V2000
   19.5860  -12.4444  -19.0329 C   0  0  0  0  0  0  0  0  0  0  0  0
   20.2099  -11.4607  -18.0819 C   0  0  1  0  0  0  0  0  0  0  0  0
   19.3182  -11.1414  -17.0692 O   0  0  0  0  0  0  0  0  0  0  0  0
   21.5157  -11.9996  -17.5320 C   0  0  2  0  0  0  0  0  0  0  0  0
   21.2097  -13.2307  -16.8256 N   0  0  0  0  0  0  0  0  0  0  0  0
   22.1879  -11.0071  -16.6620 C   0  0  0  0  0  0  0  0  0  0  0  0
   21.7690  -10.8782  -15.4964 O   0  0  0  0  0  0  0  0  0  0  0  0
   23.2603  -10.2127  -17.0769 N   0  0  0  0  0  0  0  0  0  0  0  0
   23.9301   -9.2032  -16.3307 C   0  0  1  0  0  0  0  0  0  0  0  0
   25.2816   -8.8260  -16.7833 C   0  0  0  0  0  0  0  0  0  0  0  0
   26.3165   -9.9008  -16.6663 C   0  0  0  0  0  0  0  0  0  0  0  0
   27.6198   -9.5098  -17.2627 C   0  0  0  0  0  0  0  0  0  0  0  0
   28.6374   -9.2227  -16.6165 O   0  0  0  0  0  0  0  0  0  0  0  0
   23.0699   -7.9598  -16.2808 C   0  0  0  0  0  0  0  0  0  0  0  0
   22.6011   -7.5640  -17.3558 O   0  0  0  0  0  0  0  0  0  0  0  0
   27.7394   -9.4518  -18.6625 O   0  0  0  0  0  0  0  0  0  0  0  0
   19.9352   -5.2018  -14.1064 O   0  0  0  0  0  0  0  0  0  0  0  0
   20.7299   -6.3220  -14.1942 C   0  0  0  0  0  0  0  0  0  0  0  0
   22.0005   -6.0950  -14.9881 C   0  0  2  0  0  0  0  0  0  0  0  0
   22.8142   -7.2820  -15.0570 N   0  0  0  0  0  0  0  0  0  0  0  0
   22.7328   -4.9012  -14.5385 C   0  0  0  0  0  0  0  0  0  0  0  0
   22.2530   -3.6492  -14.8379 O   0  0  0  0  0  0  0  0  0  0  0  0
   23.7851   -5.0221  -13.8877 O   0  0  0  0  0  0  0  0  0  0  0  0
  2  1  1  6
  2  4  1  0
  3  2  1  0
  4  6  1  0
  4  5  1  1
  6  7  2  0
  8  6  1  0
  8  9  1  0
  9 14  1  0
  9 10  1  6
 11 12  1  0
 11 10  1  0
 12 13  2  0
 12 16  1  0
 14 20  1  0
 14 15  2  0
 18 17  1  0
 19 18  1  1
 20 19  1  0
 21 19  1  0
 21 22  1  0
 23 21  2  0
M  END
$$$$
