TES.pdb
     RDKit          3D

 23 22  0  0  1  0  0  0  0  0999 V2000
   12.9942  -10.2441  -13.0472 C   0  0  0  0  0  0  0  0  0  0  0  0
   13.2360  -11.6514  -12.5756 C   0  0  1  0  0  0  0  0  0  0  0  0
   12.4274  -12.5361  -13.2728 O   0  0  0  0  0  0  0  0  0  0  0  0
   14.7026  -12.0143  -12.6981 C   0  0  2  0  0  0  0  0  0  0  0  0
   14.8434  -13.3909  -12.2586 N   0  0  0  0  0  0  0  0  0  0  0  0
   15.5568  -11.0878  -11.9198 C   0  0  0  0  0  0  0  0  0  0  0  0
   15.4300  -11.0830  -10.6810 O   0  0  0  0  0  0  0  0  0  0  0  0
   16.4914  -10.2244  -12.4978 N   0  0  0  0  0  0  0  0  0  0  0  0
   17.3223   -9.2781  -11.8354 C   0  0  1  0  0  0  0  0  0  0  0  0
   18.4889   -8.7762  -12.5842 C   0  0  0  0  0  0  0  0  0  0  0  0
   19.3808   -7.8442  -11.8255 C   0  0  0  0  0  0  0  0  0  0  0  0
   20.5776   -7.4340  -12.6043 C   0  0  0  0  0  0  0  0  0  0  0  0
   20.9435   -6.2629  -12.7776 O   0  0  0  0  0  0  0  0  0  0  0  0
   16.4862   -8.0984  -11.3907 C   0  0  0  0  0  0  0  0  0  0  0  0
   15.7287   -7.6033  -12.2351 O   0  0  0  0  0  0  0  0  0  0  0  0
   21.3752   -8.4258  -13.2021 O   0  0  0  0  0  0  0  0  0  0  0  0
   14.6544   -5.5341   -7.6914 O   0  0  0  0  0  0  0  0  0  0  0  0
   15.4459   -6.5664   -8.1407 C   0  0  0  0  0  0  0  0  0  0  0  0
   15.7698   -6.4745   -9.6181 C   0  0  2  0  0  0  0  0  0  0  0  0
   16.5689   -7.5864  -10.0665 N   0  0  0  0  0  0  0  0  0  0  0  0
   16.3225   -5.1622   -9.9869 C   0  0  0  0  0  0  0  0  0  0  0  0
   15.5086   -4.0555  -10.0034 O   0  0  0  0  0  0  0  0  0  0  0  0
   17.5247   -5.0516  -10.2836 O   0  0  0  0  0  0  0  0  0  0  0  0
  2  1  1  6
  2  4  1  0
  3  2  1  0
  4  6  1  0
  4  5  1  1
  6  7  2  0
  8  6  1  0
  8  9  1  0
  9 14  1  0
  9 10  1  6
 11 12  1  0
 11 10  1  0
 12 13  2  0
 12 16  1  0
 14 20  1  0
 14 15  2  0
 18 17  1  0
 19 18  1  1
 20 19  1  0
 21 19  1  0
 21 22  1  0
 23 21  2  0
M  END
$$$$
