TES.pdb
     RDKit          3D

 23 22  0  0  1  0  0  0  0  0999 V2000
   13.4936  -10.0758  -13.3416 C   0  0  0  0  0  0  0  0  0  0  0  0
   14.0586  -11.4680  -13.4041 C   0  0  1  0  0  0  0  0  0  0  0  0
   13.2772  -12.2659  -14.2259 O   0  0  0  0  0  0  0  0  0  0  0  0
   15.5048  -11.4408  -13.8571 C   0  0  2  0  0  0  0  0  0  0  0  0
   15.9599  -12.8178  -13.9268 N   0  0  0  0  0  0  0  0  0  0  0  0
   16.3410  -10.6198  -12.9513 C   0  0  0  0  0  0  0  0  0  0  0  0
   16.6328  -11.0968  -11.8386 O   0  0  0  0  0  0  0  0  0  0  0  0
   16.8170   -9.3467  -13.2766 N   0  0  0  0  0  0  0  0  0  0  0  0
   17.5731   -8.4677  -12.4520 C   0  0  1  0  0  0  0  0  0  0  0  0
   18.6796   -7.7367  -13.0960 C   0  0  0  0  0  0  0  0  0  0  0  0
   19.9495   -8.5124  -13.2548 C   0  0  0  0  0  0  0  0  0  0  0  0
   20.9877   -7.7655  -14.0106 C   0  0  0  0  0  0  0  0  0  0  0  0
   21.4899   -8.1365  -15.0810 O   0  0  0  0  0  0  0  0  0  0  0  0
   16.6452   -7.4673  -11.7988 C   0  0  0  0  0  0  0  0  0  0  0  0
   15.6755   -7.0882  -12.4682 O   0  0  0  0  0  0  0  0  0  0  0  0
   21.4564   -6.5424  -13.4989 O   0  0  0  0  0  0  0  0  0  0  0  0
   14.4262   -7.6883   -9.0052 O   0  0  0  0  0  0  0  0  0  0  0  0
   14.5707   -6.5562   -9.7743 C   0  0  0  0  0  0  0  0  0  0  0  0
   15.9976   -6.0495   -9.8334 C   0  0  2  0  0  0  0  0  0  0  0  0
   16.8783   -6.9887  -10.4801 N   0  0  0  0  0  0  0  0  0  0  0  0
   16.4812   -5.5917   -8.5219 C   0  0  0  0  0  0  0  0  0  0  0  0
   15.8082   -4.5996   -7.8510 O   0  0  0  0  0  0  0  0  0  0  0  0
   17.4977   -6.1005   -8.0185 O   0  0  0  0  0  0  0  0  0  0  0  0
  2  1  1  6
  2  4  1  0
  3  2  1  0
  4  6  1  0
  4  5  1  1
  6  7  2  0
  8  6  1  0
  8  9  1  0
  9 14  1  0
  9 10  1  6
 11 12  1  0
 11 10  1  0
 12 13  2  0
 12 16  1  0
 14 20  1  0
 14 15  2  0
 18 17  1  0
 19 18  1  1
 20 19  1  0
 21 19  1  0
 21 22  1  0
 23 21  2  0
M  END
$$$$
