TES.pdb
     RDKit          3D

 23 22  0  0  1  0  0  0  0  0999 V2000
   18.6067   -9.4327  -17.5035 C   0  0  0  0  0  0  0  0  0  0  0  0
   18.8909  -10.7385  -16.8140 C   0  0  1  0  0  0  0  0  0  0  0  0
   18.0475  -11.7283  -17.2953 O   0  0  0  0  0  0  0  0  0  0  0  0
   20.3500  -11.1200  -16.9668 C   0  0  2  0  0  0  0  0  0  0  0  0
   20.5269  -12.4103  -16.3249 N   0  0  0  0  0  0  0  0  0  0  0  0
   21.2432  -10.0844  -16.3980 C   0  0  0  0  0  0  0  0  0  0  0  0
   21.2365   -9.9263  -15.1628 O   0  0  0  0  0  0  0  0  0  0  0  0
   22.0875   -9.2804  -17.1686 N   0  0  0  0  0  0  0  0  0  0  0  0
   22.8979   -8.1989  -16.7234 C   0  0  1  0  0  0  0  0  0  0  0  0
   24.0751   -7.8656  -17.5459 C   0  0  0  0  0  0  0  0  0  0  0  0
   24.8448   -6.6622  -17.0998 C   0  0  0  0  0  0  0  0  0  0  0  0
   26.0757   -6.4387  -17.9011 C   0  0  0  0  0  0  0  0  0  0  0  0
   27.1653   -6.9923  -17.6963 O   0  0  0  0  0  0  0  0  0  0  0  0
   22.0443   -6.9592  -16.5720 C   0  0  0  0  0  0  0  0  0  0  0  0
   21.3145   -6.6660  -17.5277 O   0  0  0  0  0  0  0  0  0  0  0  0
   26.0334   -5.5371  -18.9793 O   0  0  0  0  0  0  0  0  0  0  0  0
   19.2176   -6.1332  -14.1327 O   0  0  0  0  0  0  0  0  0  0  0  0
   19.7116   -5.5515  -15.2780 C   0  0  0  0  0  0  0  0  0  0  0  0
   21.1515   -5.0978  -15.1470 C   0  0  2  0  0  0  0  0  0  0  0  0
   22.0808   -6.1721  -15.3881 N   0  0  0  0  0  0  0  0  0  0  0  0
   21.3959   -4.3752  -13.8894 C   0  0  0  0  0  0  0  0  0  0  0  0
   22.4029   -4.7833  -13.0486 O   0  0  0  0  0  0  0  0  0  0  0  0
   20.6937   -3.3955  -13.5852 O   0  0  0  0  0  0  0  0  0  0  0  0
  2  1  1  6
  2  4  1  0
  3  2  1  0
  4  6  1  0
  4  5  1  1
  6  7  2  0
  8  6  1  0
  8  9  1  0
  9 14  1  0
  9 10  1  6
 11 12  1  0
 11 10  1  0
 12 13  2  0
 12 16  1  0
 14 20  1  0
 14 15  2  0
 18 17  1  0
 19 18  1  1
 20 19  1  0
 21 19  1  0
 21 22  1  0
 23 21  2  0
M  END
$$$$
