TES.pdb
     RDKit          3D

 23 22  0  0  1  0  0  0  0  0999 V2000
   14.2532   -4.4367   -8.5981 C   0  0  0  0  0  0  0  0  0  0  0  0
   15.3346   -5.3030   -9.1824 C   0  0  1  0  0  0  0  0  0  0  0  0
   16.5823   -4.8401   -8.7932 O   0  0  0  0  0  0  0  0  0  0  0  0
   15.1276   -6.7541   -8.7961 C   0  0  2  0  0  0  0  0  0  0  0  0
   15.2867   -6.8427   -7.3556 N   0  0  0  0  0  0  0  0  0  0  0  0
   16.0635   -7.6460   -9.5188 C   0  0  0  0  0  0  0  0  0  0  0  0
   17.0593   -8.0667   -8.9005 O   0  0  0  0  0  0  0  0  0  0  0  0
   15.8898   -8.0381  -10.8489 N   0  0  0  0  0  0  0  0  0  0  0  0
   16.7487   -8.8624  -11.6283 C   0  0  1  0  0  0  0  0  0  0  0  0
   16.1052   -9.7580  -12.6068 C   0  0  0  0  0  0  0  0  0  0  0  0
   17.0448  -10.5592  -13.4523 C   0  0  0  0  0  0  0  0  0  0  0  0
   16.3401  -11.5103  -14.3500 C   0  0  0  0  0  0  0  0  0  0  0  0
   15.1465  -11.4288  -14.6725 O   0  0  0  0  0  0  0  0  0  0  0  0
   17.7570   -7.9971  -12.3514 C   0  0  0  0  0  0  0  0  0  0  0  0
   17.3383   -6.9339  -12.8271 O   0  0  0  0  0  0  0  0  0  0  0  0
   17.0539  -12.5948  -14.8900 O   0  0  0  0  0  0  0  0  0  0  0  0
   22.3071   -7.6322  -14.1425 O   0  0  0  0  0  0  0  0  0  0  0  0
   21.3775   -8.3524  -13.4274 C   0  0  0  0  0  0  0  0  0  0  0  0
   20.0879   -7.5942  -13.1862 C   0  0  2  0  0  0  0  0  0  0  0  0
   19.1184   -8.3890  -12.4762 N   0  0  0  0  0  0  0  0  0  0  0  0
   19.5635   -6.9810  -14.4161 C   0  0  0  0  0  0  0  0  0  0  0  0
   19.7856   -5.6486  -14.6666 O   0  0  0  0  0  0  0  0  0  0  0  0
   18.9198   -7.6656  -15.2301 O   0  0  0  0  0  0  0  0  0  0  0  0
  2  1  1  1
  2  4  1  0
  3  2  1  0
  4  6  1  0
  4  5  1  1
  6  7  2  0
  8  6  1  0
  8  9  1  0
  9 14  1  0
  9 10  1  6
 11 12  1  0
 11 10  1  0
 12 13  2  0
 12 16  1  0
 14 20  1  0
 14 15  2  0
 18 17  1  0
 19 18  1  6
 20 19  1  0
 21 19  1  0
 21 22  1  0
 23 21  2  0
M  END
$$$$
