TES.pdb
     RDKit          3D

 23 22  0  0  1  0  0  0  0  0999 V2000
   23.3841  -12.3066  -14.8526 C   0  0  0  0  0  0  0  0  0  0  0  0
   23.8497  -10.8922  -15.0624 C   0  0  1  0  0  0  0  0  0  0  0  0
   24.4270  -10.7585  -16.3160 O   0  0  0  0  0  0  0  0  0  0  0  0
   22.7077   -9.9156  -14.8624 C   0  0  2  0  0  0  0  0  0  0  0  0
   21.7063  -10.2122  -15.8710 N   0  0  0  0  0  0  0  0  0  0  0  0
   23.1760   -8.5123  -14.9338 C   0  0  0  0  0  0  0  0  0  0  0  0
   23.8991   -8.0935  -14.0105 O   0  0  0  0  0  0  0  0  0  0  0  0
   22.8517   -7.6387  -15.9754 N   0  0  0  0  0  0  0  0  0  0  0  0
   23.2586   -6.2839  -16.1282 C   0  0  1  0  0  0  0  0  0  0  0  0
   23.8764   -5.9146  -17.4148 C   0  0  0  0  0  0  0  0  0  0  0  0
   25.1493   -6.6312  -17.7401 C   0  0  0  0  0  0  0  0  0  0  0  0
   25.7239   -6.2163  -19.0458 C   0  0  0  0  0  0  0  0  0  0  0  0
   25.5451   -6.8087  -20.1194 O   0  0  0  0  0  0  0  0  0  0  0  0
   22.0779   -5.3723  -15.8768 C   0  0  0  0  0  0  0  0  0  0  0  0
   20.9738   -5.7704  -16.2700 O   0  0  0  0  0  0  0  0  0  0  0  0
   26.5360   -5.0696  -19.1002 O   0  0  0  0  0  0  0  0  0  0  0  0
   19.1427   -3.4127  -13.3584 O   0  0  0  0  0  0  0  0  0  0  0  0
   20.1855   -4.1500  -13.8714 C   0  0  0  0  0  0  0  0  0  0  0  0
   21.1074   -3.3443  -14.7642 C   0  0  2  0  0  0  0  0  0  0  0  0
   22.2324   -4.1203  -15.2202 N   0  0  0  0  0  0  0  0  0  0  0  0
   21.4827   -2.0566  -14.1605 C   0  0  0  0  0  0  0  0  0  0  0  0
   20.5123   -1.1326  -13.8572 O   0  0  0  0  0  0  0  0  0  0  0  0
   22.6763   -1.8020  -13.9235 O   0  0  0  0  0  0  0  0  0  0  0  0
  2  1  1  6
  2  4  1  0
  3  2  1  0
  4  6  1  0
  4  5  1  6
  6  7  2  0
  8  6  1  0
  8  9  1  0
  9 14  1  0
  9 10  1  6
 11 12  1  0
 11 10  1  0
 12 13  2  0
 12 16  1  0
 14 20  1  0
 14 15  2  0
 18 17  1  0
 19 18  1  1
 20 19  1  0
 21 19  1  0
 21 22  1  0
 23 21  2  0
M  END
$$$$
