TES.pdb
     RDKit          3D

 23 22  0  0  1  0  0  0  0  0999 V2000
   18.3422  -10.1836  -16.8566 C   0  0  0  0  0  0  0  0  0  0  0  0
   19.1433  -11.4165  -16.5410 C   0  0  1  0  0  0  0  0  0  0  0  0
   18.3657  -12.5511  -16.7158 O   0  0  0  0  0  0  0  0  0  0  0  0
   20.4057  -11.4656  -17.3786 C   0  0  2  0  0  0  0  0  0  0  0  0
   21.0956  -12.6990  -17.0453 N   0  0  0  0  0  0  0  0  0  0  0  0
   21.2526  -10.2716  -17.1526 C   0  0  0  0  0  0  0  0  0  0  0  0
   21.9062  -10.2150  -16.0941 O   0  0  0  0  0  0  0  0  0  0  0  0
   21.3567   -9.2122  -18.0581 N   0  0  0  0  0  0  0  0  0  0  0  0
   22.0193   -7.9682  -17.8635 C   0  0  1  0  0  0  0  0  0  0  0  0
   22.1178   -7.0755  -19.0326 C   0  0  0  0  0  0  0  0  0  0  0  0
   22.7482   -5.7443  -18.7674 C   0  0  0  0  0  0  0  0  0  0  0  0
   22.7765   -4.8728  -19.9702 C   0  0  0  0  0  0  0  0  0  0  0  0
   22.6797   -3.6376  -19.9531 O   0  0  0  0  0  0  0  0  0  0  0  0
   21.3546   -7.2154  -16.7322 C   0  0  0  0  0  0  0  0  0  0  0  0
   20.1182   -7.1614  -16.7504 O   0  0  0  0  0  0  0  0  0  0  0  0
   22.9227   -5.4641  -21.2376 O   0  0  0  0  0  0  0  0  0  0  0  0
   20.7670   -6.5475  -12.2810 O   0  0  0  0  0  0  0  0  0  0  0  0
   21.2700   -7.0753  -13.4482 C   0  0  0  0  0  0  0  0  0  0  0  0
   21.5060   -6.0347  -14.5241 C   0  0  2  0  0  0  0  0  0  0  0  0
   22.1161   -6.6015  -15.6998 N   0  0  0  0  0  0  0  0  0  0  0  0
   22.2057   -4.8483  -14.0080 C   0  0  0  0  0  0  0  0  0  0  0  0
   23.3781   -4.4351  -14.5931 O   0  0  0  0  0  0  0  0  0  0  0  0
   21.7389   -4.2180  -13.0435 O   0  0  0  0  0  0  0  0  0  0  0  0
  2  1  1  6
  2  4  1  0
  3  2  1  0
  4  6  1  0
  4  5  1  1
  6  7  2  0
  8  6  1  0
  8  9  1  0
  9 14  1  0
  9 10  1  6
 11 12  1  0
 11 10  1  0
 12 13  2  0
 12 16  1  0
 14 20  1  0
 14 15  2  0
 18 17  1  0
 19 18  1  1
 20 19  1  0
 21 19  1  0
 21 22  1  0
 23 21  2  0
M  END
$$$$
