TES.pdb
     RDKit          3D

 23 22  0  0  1  0  0  0  0  0999 V2000
   17.7232  -12.2935  -17.9043 C   0  0  0  0  0  0  0  0  0  0  0  0
   17.7605  -10.9346  -17.2613 C   0  0  1  0  0  0  0  0  0  0  0  0
   16.5125  -10.3349  -17.3353 O   0  0  0  0  0  0  0  0  0  0  0  0
   18.2542  -11.0305  -15.8314 C   0  0  2  0  0  0  0  0  0  0  0  0
   17.3013  -11.8469  -15.1009 N   0  0  0  0  0  0  0  0  0  0  0  0
   18.4232   -9.6896  -15.2254 C   0  0  0  0  0  0  0  0  0  0  0  0
   17.5087   -9.2623  -14.4961 O   0  0  0  0  0  0  0  0  0  0  0  0
   19.5469   -8.8835  -15.4271 N   0  0  0  0  0  0  0  0  0  0  0  0
   19.7655   -7.5645  -14.9405 C   0  0  1  0  0  0  0  0  0  0  0  0
   21.1580   -7.0806  -14.9290 C   0  0  0  0  0  0  0  0  0  0  0  0
   21.3542   -5.7158  -14.3472 C   0  0  0  0  0  0  0  0  0  0  0  0
   22.7860   -5.3293  -14.2603 C   0  0  0  0  0  0  0  0  0  0  0  0
   23.2028   -4.2449  -13.8293 O   0  0  0  0  0  0  0  0  0  0  0  0
   18.9191   -6.5901  -15.7296 C   0  0  0  0  0  0  0  0  0  0  0  0
   18.5793   -6.9421  -16.8665 O   0  0  0  0  0  0  0  0  0  0  0  0
   23.7660   -6.2408  -14.6918 O   0  0  0  0  0  0  0  0  0  0  0  0
   15.3652   -4.3763  -16.7868 O   0  0  0  0  0  0  0  0  0  0  0  0
   16.3169   -5.1964  -16.2250 C   0  0  0  0  0  0  0  0  0  0  0  0
   17.5895   -4.4662  -15.8460 C   0  0  2  0  0  0  0  0  0  0  0  0
   18.5344   -5.3325  -15.1884 N   0  0  0  0  0  0  0  0  0  0  0  0
   17.3198   -3.2200  -15.1127 C   0  0  0  0  0  0  0  0  0  0  0  0
   17.8306   -3.0433  -13.8497 O   0  0  0  0  0  0  0  0  0  0  0  0
   16.6306   -2.3257  -15.6331 O   0  0  0  0  0  0  0  0  0  0  0  0
  2  1  1  1
  2  4  1  0
  3  2  1  0
  4  6  1  0
  4  5  1  1
  6  7  2  0
  8  6  1  0
  8  9  1  0
  9 14  1  0
  9 10  1  6
 11 12  1  0
 11 10  1  0
 12 13  2  0
 12 16  1  0
 14 20  1  0
 14 15  2  0
 18 17  1  0
 19 18  1  1
 20 19  1  0
 21 19  1  0
 21 22  1  0
 23 21  2  0
M  END
$$$$
