TES.pdb
     RDKit          3D

 23 22  0  0  1  0  0  0  0  0999 V2000
   17.2514  -11.4272  -13.2655 C   0  0  0  0  0  0  0  0  0  0  0  0
   15.8755  -11.6818  -12.7147 C   0  0  1  0  0  0  0  0  0  0  0  0
   15.6220  -13.0442  -12.6689 O   0  0  0  0  0  0  0  0  0  0  0  0
   15.7135  -11.0338  -11.3540 C   0  0  2  0  0  0  0  0  0  0  0  0
   14.3690  -11.3310  -10.8932 N   0  0  0  0  0  0  0  0  0  0  0  0
   15.9761   -9.5773  -11.4127 C   0  0  0  0  0  0  0  0  0  0  0  0
   15.2488   -8.8851  -12.1493 O   0  0  0  0  0  0  0  0  0  0  0  0
   16.9902   -8.9426  -10.6902 N   0  0  0  0  0  0  0  0  0  0  0  0
   17.4084   -7.5864  -10.7929 C   0  0  1  0  0  0  0  0  0  0  0  0
   17.2261   -6.7406   -9.5992 C   0  0  0  0  0  0  0  0  0  0  0  0
   15.8142   -6.3332   -9.3157 C   0  0  0  0  0  0  0  0  0  0  0  0
   15.7063   -5.3994   -8.1653 C   0  0  0  0  0  0  0  0  0  0  0  0
   14.6562   -5.1350   -7.5629 O   0  0  0  0  0  0  0  0  0  0  0  0
   18.8631   -7.5380  -11.2050 C   0  0  0  0  0  0  0  0  0  0  0  0
   19.5675   -8.5004  -10.8740 O   0  0  0  0  0  0  0  0  0  0  0  0
   16.8649   -4.7512   -7.7020 O   0  0  0  0  0  0  0  0  0  0  0  0
   21.9448   -7.6537  -14.2875 O   0  0  0  0  0  0  0  0  0  0  0  0
   20.7457   -7.6083  -13.6135 C   0  0  0  0  0  0  0  0  0  0  0  0
   20.6750   -6.4933  -12.5899 C   0  0  2  0  0  0  0  0  0  0  0  0
   19.3917   -6.4394  -11.9371 N   0  0  0  0  0  0  0  0  0  0  0  0
   21.1128   -5.2019  -13.1413 C   0  0  0  0  0  0  0  0  0  0  0  0
   22.4386   -4.8462  -13.0848 O   0  0  0  0  0  0  0  0  0  0  0  0
   20.2861   -4.4311  -13.6590 O   0  0  0  0  0  0  0  0  0  0  0  0
  2  1  1  1
  2  4  1  0
  3  2  1  0
  4  6  1  0
  4  5  1  6
  6  7  2  0
  8  6  1  0
  8  9  1  0
  9 14  1  0
  9 10  1  1
 11 12  1  0
 11 10  1  0
 12 13  2  0
 12 16  1  0
 14 20  1  0
 14 15  2  0
 18 17  1  0
 19 18  1  6
 20 19  1  0
 21 19  1  0
 21 22  1  0
 23 21  2  0
M  END
$$$$
