TES.pdb
     RDKit          3D

 23 22  0  0  1  0  0  0  0  0999 V2000
   14.0649   -8.8409  -12.2907 C   0  0  0  0  0  0  0  0  0  0  0  0
   15.4706   -8.3232  -12.4229 C   0  0  1  0  0  0  0  0  0  0  0  0
   15.5980   -7.1088  -11.7658 O   0  0  0  0  0  0  0  0  0  0  0  0
   16.4689   -9.3445  -11.9151 C   0  0  2  0  0  0  0  0  0  0  0  0
   16.2260   -9.5140  -10.4937 N   0  0  0  0  0  0  0  0  0  0  0  0
   17.8618   -8.9286  -12.1995 C   0  0  0  0  0  0  0  0  0  0  0  0
   18.5783   -8.6003  -11.2354 O   0  0  0  0  0  0  0  0  0  0  0  0
   18.4111   -8.8854  -13.4839 N   0  0  0  0  0  0  0  0  0  0  0  0
   19.7425   -8.5371  -13.8453 C   0  0  1  0  0  0  0  0  0  0  0  0
   20.3630   -9.3151  -14.9331 C   0  0  0  0  0  0  0  0  0  0  0  0
   21.8048   -9.0099  -15.1934 C   0  0  0  0  0  0  0  0  0  0  0  0
   22.3628   -9.7959  -16.3238 C   0  0  0  0  0  0  0  0  0  0  0  0
   22.5003  -11.0274  -16.3314 O   0  0  0  0  0  0  0  0  0  0  0  0
   19.7988   -7.0688  -14.2050 C   0  0  0  0  0  0  0  0  0  0  0  0
   18.8650   -6.6267  -14.8865 O   0  0  0  0  0  0  0  0  0  0  0  0
   22.7750   -9.1206  -17.4863 O   0  0  0  0  0  0  0  0  0  0  0  0
   22.1390   -2.7966  -13.6058 O   0  0  0  0  0  0  0  0  0  0  0  0
   22.1410   -4.1656  -13.4648 C   0  0  0  0  0  0  0  0  0  0  0  0
   20.9330   -4.8345  -14.0889 C   0  0  2  0  0  0  0  0  0  0  0  0
   20.8731   -6.2402  -13.7788 N   0  0  0  0  0  0  0  0  0  0  0  0
   20.8128   -4.5399  -15.5250 C   0  0  0  0  0  0  0  0  0  0  0  0
   19.8695   -3.6429  -15.9644 O   0  0  0  0  0  0  0  0  0  0  0  0
   21.5630   -5.1004  -16.3426 O   0  0  0  0  0  0  0  0  0  0  0  0
  2  1  1  1
  2  4  1  0
  3  2  1  0
  4  6  1  0
  4  5  1  1
  6  7  2  0
  8  6  1  0
  8  9  1  0
  9 14  1  0
  9 10  1  6
 11 12  1  0
 11 10  1  0
 12 13  2  0
 12 16  1  0
 14 20  1  0
 14 15  2  0
 18 17  1  0
 19 18  1  6
 20 19  1  0
 21 19  1  0
 21 22  1  0
 23 21  2  0
M  END
$$$$
