TES.pdb
     RDKit          3D

 23 22  0  0  1  0  0  0  0  0999 V2000
   24.9475  -13.1480  -17.4768 C   0  0  0  0  0  0  0  0  0  0  0  0
   23.8401  -12.1308  -17.4658 C   0  0  1  0  0  0  0  0  0  0  0  0
   22.6071  -12.7647  -17.4417 O   0  0  0  0  0  0  0  0  0  0  0  0
   24.0025  -11.1727  -16.3024 C   0  0  2  0  0  0  0  0  0  0  0  0
   23.9744  -11.9646  -15.0857 N   0  0  0  0  0  0  0  0  0  0  0  0
   22.9555  -10.1251  -16.3130 C   0  0  0  0  0  0  0  0  0  0  0  0
   22.9942   -9.2745  -17.2216 O   0  0  0  0  0  0  0  0  0  0  0  0
   21.9332  -10.0409  -15.3638 N   0  0  0  0  0  0  0  0  0  0  0  0
   20.9295   -9.0381  -15.2583 C   0  0  1  0  0  0  0  0  0  0  0  0
   19.6123   -9.4641  -14.7513 C   0  0  0  0  0  0  0  0  0  0  0  0
   18.8647  -10.4122  -15.6356 C   0  0  0  0  0  0  0  0  0  0  0  0
   17.5795  -10.8601  -15.0400 C   0  0  0  0  0  0  0  0  0  0  0  0
   17.3588  -11.9988  -14.6039 O   0  0  0  0  0  0  0  0  0  0  0  0
   21.4388   -7.9048  -14.3954 C   0  0  0  0  0  0  0  0  0  0  0  0
   22.4275   -8.1434  -13.6901 O   0  0  0  0  0  0  0  0  0  0  0  0
   16.5141   -9.9466  -14.9507 O   0  0  0  0  0  0  0  0  0  0  0  0
   23.5398   -4.2101  -14.8612 O   0  0  0  0  0  0  0  0  0  0  0  0
   22.7913   -5.3473  -15.0627 C   0  0  0  0  0  0  0  0  0  0  0  0
   21.5463   -5.4062  -14.2009 C   0  0  2  0  0  0  0  0  0  0  0  0
   20.8102   -6.6291  -14.3974 N   0  0  0  0  0  0  0  0  0  0  0  0
   20.7233   -4.1937  -14.3271 C   0  0  0  0  0  0  0  0  0  0  0  0
   20.8253   -3.1949  -13.3892 O   0  0  0  0  0  0  0  0  0  0  0  0
   19.9353   -4.0699  -15.2807 O   0  0  0  0  0  0  0  0  0  0  0  0
  2  1  1  1
  2  4  1  0
  3  2  1  0
  4  6  1  0
  4  5  1  1
  6  7  2  0
  8  6  1  0
  8  9  1  0
  9 14  1  0
  9 10  1  1
 11 12  1  0
 11 10  1  0
 12 13  2  0
 12 16  1  0
 14 20  1  0
 14 15  2  0
 18 17  1  0
 19 18  1  6
 20 19  1  0
 21 19  1  0
 21 22  1  0
 23 21  2  0
M  END
$$$$
