TES.pdb
     RDKit          3D

 23 22  0  0  1  0  0  0  0  0999 V2000
   13.1711  -21.1269    4.0726 C   0  0  0  0  0  0  0  0  0  0  0  0
   13.9383  -21.5899    2.8649 C   0  0  1  0  0  0  0  0  0  0  0  0
   13.1064  -22.2981    2.0111 O   0  0  0  0  0  0  0  0  0  0  0  0
   14.5958  -20.4173    2.1645 C   0  0  2  0  0  0  0  0  0  0  0  0
   15.1904  -20.9252    0.9412 N   0  0  0  0  0  0  0  0  0  0  0  0
   15.5914  -19.7537    3.0376 C   0  0  0  0  0  0  0  0  0  0  0  0
   16.7345  -20.2448    3.0928 O   0  0  0  0  0  0  0  0  0  0  0  0
   15.3182  -18.6132    3.7977 N   0  0  0  0  0  0  0  0  0  0  0  0
   16.2308  -17.8590    4.5868 C   0  0  1  0  0  0  0  0  0  0  0  0
   16.0131  -16.4022    4.6478 C   0  0  0  0  0  0  0  0  0  0  0  0
   17.0317  -15.6374    5.4336 C   0  0  0  0  0  0  0  0  0  0  0  0
   16.8462  -14.1667    5.3358 C   0  0  0  0  0  0  0  0  0  0  0  0
   17.5724  -13.3228    5.8797 O   0  0  0  0  0  0  0  0  0  0  0  0
   16.2494  -18.4068    5.9968 C   0  0  0  0  0  0  0  0  0  0  0  0
   15.1510  -18.6367    6.5190 O   0  0  0  0  0  0  0  0  0  0  0  0
   15.7751  -13.6633    4.5764 O   0  0  0  0  0  0  0  0  0  0  0  0
   17.3373  -21.4842    7.4368 O   0  0  0  0  0  0  0  0  0  0  0  0
   18.0924  -20.5462    8.1030 C   0  0  0  0  0  0  0  0  0  0  0  0
   17.5101  -19.1489    8.0345 C   0  0  2  0  0  0  0  0  0  0  0  0
   17.4707  -18.6453    6.6851 N   0  0  0  0  0  0  0  0  0  0  0  0
   18.1493  -18.2313    8.9899 C   0  0  0  0  0  0  0  0  0  0  0  0
   18.1815  -18.5464   10.3268 O   0  0  0  0  0  0  0  0  0  0  0  0
   18.6611  -17.1709    8.5908 O   0  0  0  0  0  0  0  0  0  0  0  0
  2  1  1  1
  2  4  1  0
  3  2  1  0
  4  6  1  0
  4  5  1  6
  6  7  2  0
  8  6  1  0
  8  9  1  0
  9 14  1  0
  9 10  1  1
 11 12  1  0
 11 10  1  0
 12 13  2  0
 12 16  1  0
 14 20  1  0
 14 15  2  0
 18 17  1  0
 19 18  1  6
 20 19  1  0
 21 19  1  0
 21 22  1  0
 23 21  2  0
M  END
$$$$
