TES.pdb
     RDKit          3D

 23 22  0  0  1  0  0  0  0  0999 V2000
   17.8797  -11.5882  -14.2278 C   0  0  0  0  0  0  0  0  0  0  0  0
   18.3606  -12.1958  -15.5166 C   0  0  1  0  0  0  0  0  0  0  0  0
   17.9770  -13.5261  -15.5919 O   0  0  0  0  0  0  0  0  0  0  0  0
   17.8614  -11.3985  -16.7053 C   0  0  2  0  0  0  0  0  0  0  0  0
   18.2988  -12.0926  -17.9032 N   0  0  0  0  0  0  0  0  0  0  0  0
   18.3448   -9.9992  -16.6608 C   0  0  0  0  0  0  0  0  0  0  0  0
   19.4773   -9.7610  -17.1206 O   0  0  0  0  0  0  0  0  0  0  0  0
   17.6026   -8.9388  -16.1336 N   0  0  0  0  0  0  0  0  0  0  0  0
   18.0112   -7.5838  -15.9872 C   0  0  1  0  0  0  0  0  0  0  0  0
   16.9434   -6.5772  -15.8466 C   0  0  0  0  0  0  0  0  0  0  0  0
   17.4105   -5.1570  -15.7792 C   0  0  0  0  0  0  0  0  0  0  0  0
   16.3060   -4.2019  -15.5056 C   0  0  0  0  0  0  0  0  0  0  0  0
   15.5859   -3.6839  -16.3709 O   0  0  0  0  0  0  0  0  0  0  0  0
   18.9490   -7.4655  -14.8061 C   0  0  0  0  0  0  0  0  0  0  0  0
   18.8389   -8.3229  -13.9202 O   0  0  0  0  0  0  0  0  0  0  0  0
   16.0324   -3.8384  -14.1750 O   0  0  0  0  0  0  0  0  0  0  0  0
   22.9427   -7.7829  -13.1553 O   0  0  0  0  0  0  0  0  0  0  0  0
   21.8360   -7.7368  -13.9719 C   0  0  0  0  0  0  0  0  0  0  0  0
   21.0237   -6.4678  -13.8100 C   0  0  2  0  0  0  0  0  0  0  0  0
   19.9089   -6.4197  -14.7214 N   0  0  0  0  0  0  0  0  0  0  0  0
   21.8639   -5.2609  -13.8389 C   0  0  0  0  0  0  0  0  0  0  0  0
   22.5259   -4.8587  -12.7043 O   0  0  0  0  0  0  0  0  0  0  0  0
   21.9770   -4.6034  -14.8880 O   0  0  0  0  0  0  0  0  0  0  0  0
  2  1  1  1
  2  4  1  0
  3  2  1  0
  4  6  1  0
  4  5  1  6
  6  7  2  0
  8  6  1  0
  8  9  1  0
  9 14  1  0
  9 10  1  1
 11 12  1  0
 11 10  1  0
 12 13  2  0
 12 16  1  0
 14 20  1  0
 14 15  2  0
 18 17  1  0
 19 18  1  6
 20 19  1  0
 21 19  1  0
 21 22  1  0
 23 21  2  0
M  END
$$$$
