TES.pdb
     RDKit          3D

 23 22  0  0  1  0  0  0  0  0999 V2000
   14.1804   -9.1549  -12.3654 C   0  0  0  0  0  0  0  0  0  0  0  0
   15.5595   -8.6154  -12.6269 C   0  0  1  0  0  0  0  0  0  0  0  0
   15.6412   -7.2919  -12.2218 O   0  0  0  0  0  0  0  0  0  0  0  0
   16.6095   -9.4757  -11.9522 C   0  0  2  0  0  0  0  0  0  0  0  0
   16.3470   -9.4348  -10.5247 N   0  0  0  0  0  0  0  0  0  0  0  0
   17.9789   -9.0185  -12.2830 C   0  0  0  0  0  0  0  0  0  0  0  0
   18.5995   -8.3707  -11.4194 O   0  0  0  0  0  0  0  0  0  0  0  0
   18.6076   -9.2737  -13.5049 N   0  0  0  0  0  0  0  0  0  0  0  0
   19.9387   -8.9398  -13.8806 C   0  0  1  0  0  0  0  0  0  0  0  0
   20.5893   -9.8126  -14.8747 C   0  0  0  0  0  0  0  0  0  0  0  0
   19.9005   -9.8930  -16.2009 C   0  0  0  0  0  0  0  0  0  0  0  0
   20.6642  -10.6876  -17.1971 C   0  0  0  0  0  0  0  0  0  0  0  0
   20.9106  -10.3237  -18.3557 O   0  0  0  0  0  0  0  0  0  0  0  0
   19.9765   -7.5147  -14.3866 C   0  0  0  0  0  0  0  0  0  0  0  0
   18.9429   -7.0839  -14.9140 O   0  0  0  0  0  0  0  0  0  0  0  0
   21.1574  -11.9516  -16.8280 O   0  0  0  0  0  0  0  0  0  0  0  0
   22.1386   -4.6002  -12.6050 O   0  0  0  0  0  0  0  0  0  0  0  0
   22.2556   -4.5460  -13.9752 C   0  0  0  0  0  0  0  0  0  0  0  0
   21.1884   -5.3409  -14.7001 C   0  0  2  0  0  0  0  0  0  0  0  0
   21.1438   -6.7123  -14.2604 N   0  0  0  0  0  0  0  0  0  0  0  0
   21.2771   -5.1906  -16.1606 C   0  0  0  0  0  0  0  0  0  0  0  0
   20.7413   -4.0819  -16.7696 O   0  0  0  0  0  0  0  0  0  0  0  0
   21.8362   -6.0644  -16.8457 O   0  0  0  0  0  0  0  0  0  0  0  0
  2  1  1  1
  2  4  1  0
  3  2  1  0
  4  6  1  0
  4  5  1  1
  6  7  2  0
  8  6  1  0
  8  9  1  0
  9 14  1  0
  9 10  1  6
 11 12  1  0
 11 10  1  0
 12 13  2  0
 12 16  1  0
 14 20  1  0
 14 15  2  0
 18 17  1  0
 19 18  1  1
 20 19  1  0
 21 19  1  0
 21 22  1  0
 23 21  2  0
M  END
$$$$
