TES.pdb
     RDKit          3D

 23 22  0  0  1  0  0  0  0  0999 V2000
   16.7936   -9.5690  -15.4587 C   0  0  0  0  0  0  0  0  0  0  0  0
   17.5130  -10.8809  -15.3074 C   0  0  1  0  0  0  0  0  0  0  0  0
   16.6001  -11.9132  -15.1537 O   0  0  0  0  0  0  0  0  0  0  0  0
   18.4423  -11.1221  -16.4803 C   0  0  2  0  0  0  0  0  0  0  0  0
   19.0271  -12.4391  -16.3022 N   0  0  0  0  0  0  0  0  0  0  0  0
   19.4713  -10.0617  -16.5834 C   0  0  0  0  0  0  0  0  0  0  0  0
   20.4751  -10.1534  -15.8520 O   0  0  0  0  0  0  0  0  0  0  0  0
   19.3764   -8.9710  -17.4519 N   0  0  0  0  0  0  0  0  0  0  0  0
   20.2861   -7.8845  -17.5807 C   0  0  1  0  0  0  0  0  0  0  0  0
   20.1855   -7.0730  -18.8074 C   0  0  0  0  0  0  0  0  0  0  0  0
   21.2373   -6.0199  -18.9635 C   0  0  0  0  0  0  0  0  0  0  0  0
   21.1068   -5.2624  -20.2348 C   0  0  0  0  0  0  0  0  0  0  0  0
   21.7868   -5.4612  -21.2515 O   0  0  0  0  0  0  0  0  0  0  0  0
   20.1528   -6.9715  -16.3820 C   0  0  0  0  0  0  0  0  0  0  0  0
   19.0289   -6.8848  -15.8707 O   0  0  0  0  0  0  0  0  0  0  0  0
   20.1490   -4.2366  -20.3224 O   0  0  0  0  0  0  0  0  0  0  0  0
   21.1611   -6.5254  -12.2053 O   0  0  0  0  0  0  0  0  0  0  0  0
   21.0609   -6.9187  -13.5203 C   0  0  0  0  0  0  0  0  0  0  0  0
   21.3303   -5.7977  -14.5036 C   0  0  2  0  0  0  0  0  0  0  0  0
   21.2665   -6.2502  -15.8700 N   0  0  0  0  0  0  0  0  0  0  0  0
   22.5605   -5.0581  -14.1824 C   0  0  0  0  0  0  0  0  0  0  0  0
   22.6231   -4.2934  -13.0428 O   0  0  0  0  0  0  0  0  0  0  0  0
   23.5444   -5.1234  -14.9394 O   0  0  0  0  0  0  0  0  0  0  0  0
  2  1  1  6
  2  4  1  0
  3  2  1  0
  4  6  1  0
  4  5  1  1
  6  7  2  0
  8  6  1  0
  8  9  1  0
  9 14  1  0
  9 10  1  6
 11 12  1  0
 11 10  1  0
 12 13  2  0
 12 16  1  0
 14 20  1  0
 14 15  2  0
 18 17  1  0
 19 18  1  1
 20 19  1  0
 21 19  1  0
 21 22  1  0
 23 21  2  0
M  END
$$$$
