VGI.pdb
     RDKit          3D

 20 19  0  0  1  0  0  0  0  0999 V2000
    8.5232  -13.3127   18.5759 C   0  0  0  0  0  0  0  0  0  0  0  0
    8.4604  -13.7640   20.0341 C   0  0  1  0  0  0  0  0  0  0  0  0
    7.7140  -12.7342   20.8438 C   0  0  0  0  0  0  0  0  0  0  0  0
    7.6850  -15.0623   20.0575 C   0  0  2  0  0  0  0  0  0  0  0  0
    6.5045  -15.0186   19.2534 N   0  0  0  0  0  0  0  0  0  0  0  0
    7.3643  -15.5095   21.4241 C   0  0  0  0  0  0  0  0  0  0  0  0
    6.3267  -15.1636   22.0447 O   0  0  0  0  0  0  0  0  0  0  0  0
    8.2653  -16.3794   22.0925 N   0  0  0  0  0  0  0  0  0  0  0  0
    8.0449  -16.8482   23.4269 C   0  0  0  0  0  0  0  0  0  0  0  0
    8.7871  -16.0112   24.4356 C   0  0  0  0  0  0  0  0  0  0  0  0
   10.0236  -15.8966   24.2845 O   0  0  0  0  0  0  0  0  0  0  0  0
    6.1551  -11.9287   26.8999 C   0  0  0  0  0  0  0  0  0  0  0  0
    7.2208  -12.7633   26.2698 C   0  0  0  0  0  0  0  0  0  0  0  0
    8.0692  -13.5837   27.1684 C   0  0  2  0  0  0  0  0  0  0  0  0
    8.9106  -12.7024   28.0805 C   0  0  0  0  0  0  0  0  0  0  0  0
    8.8677  -14.6495   26.5155 C   0  0  2  0  0  0  0  0  0  0  0  0
    8.1356  -15.3782   25.5077 N   0  0  0  0  0  0  0  0  0  0  0  0
    9.5314  -15.5025   27.5188 C   0  0  0  0  0  0  0  0  0  0  0  0
    9.2282  -16.8273   27.7208 O   0  0  0  0  0  0  0  0  0  0  0  0
   10.4280  -14.9975   28.2396 O   0  0  0  0  0  0  0  0  0  0  0  0
  2  1  1  6
  2  3  1  0
  4  2  1  0
  4  5  1  6
  6  4  1  0
  6  8  1  0
  7  6  2  0
  9  8  1  0
  9 10  1  0
 10 17  1  0
 11 10  2  0
 12 13  1  0
 14 13  1  0
 14 15  1  6
 16 14  1  0
 16 17  1  1
 18 19  1  0
 18 16  1  0
 20 18  2  0
M  END
$$$$
