VGI.pdb
     RDKit          3D

 20 19  0  0  1  0  0  0  0  0999 V2000
    8.2283  -18.9786   21.5239 C   0  0  0  0  0  0  0  0  0  0  0  0
    9.6184  -18.8718   20.8993 C   0  0  1  0  0  0  0  0  0  0  0  0
    9.9526  -20.1655   20.2008 C   0  0  0  0  0  0  0  0  0  0  0  0
    9.5533  -17.7629   19.8731 C   0  0  2  0  0  0  0  0  0  0  0  0
   10.7229  -17.6942   19.0550 N   0  0  0  0  0  0  0  0  0  0  0  0
    9.2627  -16.4488   20.4722 C   0  0  0  0  0  0  0  0  0  0  0  0
   10.1518  -15.6380   20.8377 O   0  0  0  0  0  0  0  0  0  0  0  0
    7.9097  -16.0600   20.6547 N   0  0  0  0  0  0  0  0  0  0  0  0
    7.5335  -14.8442   21.3099 C   0  0  0  0  0  0  0  0  0  0  0  0
    7.7853  -14.9159   22.7932 C   0  0  0  0  0  0  0  0  0  0  0  0
    8.1276  -16.0240   23.2621 O   0  0  0  0  0  0  0  0  0  0  0  0
    7.0820  -11.4979   28.0131 C   0  0  0  0  0  0  0  0  0  0  0  0
    7.4848  -12.7251   27.2643 C   0  0  0  0  0  0  0  0  0  0  0  0
    7.2342  -12.7487   25.8024 C   0  0  2  0  0  0  0  0  0  0  0  0
    5.7566  -12.5466   25.4980 C   0  0  0  0  0  0  0  0  0  0  0  0
    7.8143  -13.8949   25.0611 C   0  0  2  0  0  0  0  0  0  0  0  0
    7.6468  -13.7964   23.6311 N   0  0  0  0  0  0  0  0  0  0  0  0
    7.3685  -15.1771   25.6373 C   0  0  0  0  0  0  0  0  0  0  0  0
    6.1870  -15.7965   25.3083 O   0  0  0  0  0  0  0  0  0  0  0  0
    8.1041  -15.7452   26.4826 O   0  0  0  0  0  0  0  0  0  0  0  0
  2  1  1  6
  2  3  1  0
  4  2  1  0
  4  5  1  1
  6  4  1  0
  6  8  1  0
  7  6  2  0
  9  8  1  0
  9 10  1  0
 10 17  1  0
 11 10  2  0
 12 13  1  0
 14 13  1  0
 14 15  1  1
 16 14  1  0
 16 17  1  6
 18 19  1  0
 18 16  1  0
 20 18  2  0
M  END
$$$$
