VGI.pdb
     RDKit          3D

 20 19  0  0  1  0  0  0  0  0999 V2000
    9.9055  -18.9451   21.5295 C   0  0  0  0  0  0  0  0  0  0  0  0
    9.8614  -18.6749   20.0265 C   0  0  1  0  0  0  0  0  0  0  0  0
   10.2747  -19.9198   19.2832 C   0  0  0  0  0  0  0  0  0  0  0  0
    8.4248  -18.3520   19.6817 C   0  0  2  0  0  0  0  0  0  0  0  0
    8.2040  -18.2366   18.2745 N   0  0  0  0  0  0  0  0  0  0  0  0
    7.9254  -17.1570   20.3837 C   0  0  0  0  0  0  0  0  0  0  0  0
    8.2150  -15.9801   20.0481 O   0  0  0  0  0  0  0  0  0  0  0  0
    7.0689  -17.3245   21.5033 N   0  0  0  0  0  0  0  0  0  0  0  0
    6.5237  -16.2216   22.2348 C   0  0  0  0  0  0  0  0  0  0  0  0
    7.4717  -15.7458   23.3043 C   0  0  0  0  0  0  0  0  0  0  0  0
    8.6622  -16.1208   23.2210 O   0  0  0  0  0  0  0  0  0  0  0  0
    6.2967  -11.6831   27.4619 C   0  0  0  0  0  0  0  0  0  0  0  0
    6.3966  -12.8420   26.5260 C   0  0  0  0  0  0  0  0  0  0  0  0
    7.6274  -12.9560   25.7059 C   0  0  2  0  0  0  0  0  0  0  0  0
    7.6047  -11.9700   24.5465 C   0  0  0  0  0  0  0  0  0  0  0  0
    7.9992  -14.3264   25.2775 C   0  0  2  0  0  0  0  0  0  0  0  0
    7.0552  -14.9156   24.3587 N   0  0  0  0  0  0  0  0  0  0  0  0
    8.3242  -15.1737   26.4399 C   0  0  0  0  0  0  0  0  0  0  0  0
    9.3878  -14.9486   27.2800 O   0  0  0  0  0  0  0  0  0  0  0  0
    7.5926  -16.1653   26.6852 O   0  0  0  0  0  0  0  0  0  0  0  0
  2  1  1  1
  2  3  1  0
  4  2  1  0
  4  5  1  6
  6  4  1  0
  6  8  1  0
  7  6  2  0
  9  8  1  0
  9 10  1  0
 10 17  1  0
 11 10  2  0
 12 13  1  0
 14 13  1  0
 14 15  1  6
 16 14  1  0
 16 17  1  1
 18 19  1  0
 18 16  1  0
 20 18  2  0
M  END
$$$$
