VGI.pdb
     RDKit          3D

 20 19  0  0  1  0  0  0  0  0999 V2000
    7.3424  -22.3392   24.8690 C   0  0  0  0  0  0  0  0  0  0  0  0
    6.4508  -21.6918   25.9273 C   0  0  1  0  0  0  0  0  0  0  0  0
    6.3671  -22.5962   27.1307 C   0  0  0  0  0  0  0  0  0  0  0  0
    7.1206  -20.3976   26.3320 C   0  0  2  0  0  0  0  0  0  0  0  0
    6.4763  -19.7609   27.4372 N   0  0  0  0  0  0  0  0  0  0  0  0
    7.2693  -19.4575   25.2076 C   0  0  0  0  0  0  0  0  0  0  0  0
    8.2850  -19.4118   24.4674 O   0  0  0  0  0  0  0  0  0  0  0  0
    6.2175  -18.5455   24.9298 N   0  0  0  0  0  0  0  0  0  0  0  0
    6.2196  -17.6839   23.7867 C   0  0  0  0  0  0  0  0  0  0  0  0
    6.9575  -16.4004   24.0643 C   0  0  0  0  0  0  0  0  0  0  0  0
    7.1752  -15.6443   23.0918 O   0  0  0  0  0  0  0  0  0  0  0  0
    5.3664  -12.4776   26.6114 C   0  0  0  0  0  0  0  0  0  0  0  0
    6.2438  -13.3260   25.7515 C   0  0  0  0  0  0  0  0  0  0  0  0
    7.5140  -13.8154   26.3411 C   0  0  2  0  0  0  0  0  0  0  0  0
    8.4356  -12.6561   26.6925 C   0  0  0  0  0  0  0  0  0  0  0  0
    8.2113  -14.8858   25.5876 C   0  0  2  0  0  0  0  0  0  0  0  0
    7.3909  -16.0499   25.3542 N   0  0  0  0  0  0  0  0  0  0  0  0
    9.5273  -15.1807   26.1840 C   0  0  0  0  0  0  0  0  0  0  0  0
   10.6398  -14.3920   26.0162 O   0  0  0  0  0  0  0  0  0  0  0  0
    9.6512  -16.2139   26.8880 O   0  0  0  0  0  0  0  0  0  0  0  0
  2  1  1  6
  2  3  1  0
  4  2  1  0
  4  5  1  1
  6  4  1  0
  6  8  1  0
  7  6  2  0
  9  8  1  0
  9 10  1  0
 10 17  1  0
 11 10  2  0
 12 13  1  0
 14 13  1  0
 14 15  1  6
 16 14  1  0
 16 17  1  1
 18 19  1  0
 18 16  1  0
 20 18  2  0
M  END
$$$$
