VGI.pdb
     RDKit          3D

 20 19  0  0  1  0  0  0  0  0999 V2000
    7.5944  -12.3096   19.3895 C   0  0  0  0  0  0  0  0  0  0  0  0
    7.7041  -13.6138   18.6015 C   0  0  1  0  0  0  0  0  0  0  0  0
    8.5598  -13.3890   17.3807 C   0  0  0  0  0  0  0  0  0  0  0  0
    8.3908  -14.6143   19.5042 C   0  0  2  0  0  0  0  0  0  0  0  0
    8.4881  -15.9145   18.9193 N   0  0  0  0  0  0  0  0  0  0  0  0
    7.7748  -14.6924   20.8402 C   0  0  0  0  0  0  0  0  0  0  0  0
    7.7171  -13.7223   21.6384 O   0  0  0  0  0  0  0  0  0  0  0  0
    7.2104  -15.9232   21.2666 N   0  0  0  0  0  0  0  0  0  0  0  0
    6.5527  -16.0791   22.5283 C   0  0  0  0  0  0  0  0  0  0  0  0
    7.4985  -15.8432   23.6767 C   0  0  0  0  0  0  0  0  0  0  0  0
    8.7178  -15.7696   23.4072 O   0  0  0  0  0  0  0  0  0  0  0  0
    5.8718  -12.0784   26.8816 C   0  0  0  0  0  0  0  0  0  0  0  0
    6.6132  -13.1099   26.0970 C   0  0  0  0  0  0  0  0  0  0  0  0
    7.3564  -14.1449   26.8565 C   0  0  2  0  0  0  0  0  0  0  0  0
    8.3845  -13.5103   27.7822 C   0  0  0  0  0  0  0  0  0  0  0  0
    7.9241  -15.2571   26.0561 C   0  0  2  0  0  0  0  0  0  0  0  0
    7.0491  -15.7089   25.0013 N   0  0  0  0  0  0  0  0  0  0  0  0
    8.4277  -16.3333   26.9295 C   0  0  0  0  0  0  0  0  0  0  0  0
    9.6870  -16.3497   27.4787 O   0  0  0  0  0  0  0  0  0  0  0  0
    7.6690  -17.2998   27.1921 O   0  0  0  0  0  0  0  0  0  0  0  0
  2  1  1  1
  2  3  1  0
  4  2  1  0
  4  5  1  6
  6  4  1  0
  6  8  1  0
  7  6  2  0
  9  8  1  0
  9 10  1  0
 10 17  1  0
 11 10  2  0
 12 13  1  0
 14 13  1  0
 14 15  1  6
 16 14  1  0
 16 17  1  6
 18 19  1  0
 18 16  1  0
 20 18  2  0
M  END
$$$$
