VGI.pdb
     RDKit          3D

 20 19  0  0  1  0  0  0  0  0999 V2000
    7.4615  -12.6144   18.7472 C   0  0  0  0  0  0  0  0  0  0  0  0
    8.2909  -13.2201   19.8782 C   0  0  1  0  0  0  0  0  0  0  0  0
    7.7481  -12.7483   21.2033 C   0  0  0  0  0  0  0  0  0  0  0  0
    8.1260  -14.7207   19.7869 C   0  0  2  0  0  0  0  0  0  0  0  0
    6.7615  -15.1357   19.8762 N   0  0  0  0  0  0  0  0  0  0  0  0
    8.9526  -15.4452   20.7677 C   0  0  0  0  0  0  0  0  0  0  0  0
   10.2097  -15.4113   20.7795 O   0  0  0  0  0  0  0  0  0  0  0  0
    8.3114  -16.2299   21.7618 N   0  0  0  0  0  0  0  0  0  0  0  0
    9.0342  -16.9856   22.7393 C   0  0  0  0  0  0  0  0  0  0  0  0
    9.3496  -16.1556   23.9560 C   0  0  0  0  0  0  0  0  0  0  0  0
   10.5495  -16.0807   24.3017 O   0  0  0  0  0  0  0  0  0  0  0  0
    5.6001  -12.5968   26.8314 C   0  0  0  0  0  0  0  0  0  0  0  0
    6.3921  -13.7678   26.3513 C   0  0  0  0  0  0  0  0  0  0  0  0
    7.8397  -13.5602   26.1026 C   0  0  2  0  0  0  0  0  0  0  0  0
    8.0631  -12.5383   24.9970 C   0  0  0  0  0  0  0  0  0  0  0  0
    8.6498  -14.7879   25.9122 C   0  0  2  0  0  0  0  0  0  0  0  0
    8.3519  -15.4864   24.6850 N   0  0  0  0  0  0  0  0  0  0  0  0
    8.6144  -15.6369   27.1174 C   0  0  0  0  0  0  0  0  0  0  0  0
    9.1396  -15.2671   28.3320 O   0  0  0  0  0  0  0  0  0  0  0  0
    8.0762  -16.7695   27.0402 O   0  0  0  0  0  0  0  0  0  0  0  0
  2  1  1  6
  2  3  1  0
  4  2  1  0
  4  5  1  1
  6  4  1  0
  6  8  1  0
  7  6  2  0
  9  8  1  0
  9 10  1  0
 10 17  1  0
 11 10  2  0
 12 13  1  0
 14 13  1  0
 14 15  1  6
 16 14  1  0
 16 17  1  6
 18 19  1  0
 18 16  1  0
 20 18  2  0
M  END
$$$$
