VGI.pdb
     RDKit          3D

 20 19  0  0  1  0  0  0  0  0999 V2000
    5.7243  -22.0203   23.6916 C   0  0  0  0  0  0  0  0  0  0  0  0
    6.5728  -20.9975   22.9379 C   0  0  1  0  0  0  0  0  0  0  0  0
    5.8420  -20.5629   21.6929 C   0  0  0  0  0  0  0  0  0  0  0  0
    6.7355  -19.8044   23.8529 C   0  0  2  0  0  0  0  0  0  0  0  0
    5.4867  -19.2309   24.2449 N   0  0  0  0  0  0  0  0  0  0  0  0
    7.6251  -18.7732   23.2912 C   0  0  0  0  0  0  0  0  0  0  0  0
    8.8618  -18.9336   23.1284 O   0  0  0  0  0  0  0  0  0  0  0  0
    7.0728  -17.5232   22.9069 N   0  0  0  0  0  0  0  0  0  0  0  0
    7.8603  -16.4656   22.3498 C   0  0  0  0  0  0  0  0  0  0  0  0
    8.4293  -15.5763   23.4241 C   0  0  0  0  0  0  0  0  0  0  0  0
    9.3181  -14.7647   23.0831 O   0  0  0  0  0  0  0  0  0  0  0  0
    5.4850  -12.4800   26.0782 C   0  0  0  0  0  0  0  0  0  0  0  0
    6.6648  -13.1766   25.4851 C   0  0  0  0  0  0  0  0  0  0  0  0
    7.5780  -13.8879   26.4128 C   0  0  2  0  0  0  0  0  0  0  0  0
    8.2249  -12.9191   27.3924 C   0  0  0  0  0  0  0  0  0  0  0  0
    8.5635  -14.8004   25.7835 C   0  0  2  0  0  0  0  0  0  0  0  0
    7.9932  -15.6409   24.7584 N   0  0  0  0  0  0  0  0  0  0  0  0
    9.3362  -15.5300   26.8059 C   0  0  0  0  0  0  0  0  0  0  0  0
   10.5181  -15.0783   27.3415 O   0  0  0  0  0  0  0  0  0  0  0  0
    8.8983  -16.6332   27.2177 O   0  0  0  0  0  0  0  0  0  0  0  0
  2  1  1  1
  2  3  1  0
  4  2  1  0
  4  5  1  6
  6  4  1  0
  6  8  1  0
  7  6  2  0
  9  8  1  0
  9 10  1  0
 10 17  1  0
 11 10  2  0
 12 13  1  0
 14 13  1  0
 14 15  1  6
 16 14  1  0
 16 17  1  6
 18 19  1  0
 18 16  1  0
 20 18  2  0
M  END
$$$$
