VGI.pdb
     RDKit          3D

 20 19  0  0  1  0  0  0  0  0999 V2000
    7.0535  -17.6660   18.1270 C   0  0  0  0  0  0  0  0  0  0  0  0
    8.0228  -18.7182   18.6630 C   0  0  1  0  0  0  0  0  0  0  0  0
    8.8252  -19.2862   17.5198 C   0  0  0  0  0  0  0  0  0  0  0  0
    8.9593  -18.0069   19.6139 C   0  0  2  0  0  0  0  0  0  0  0  0
   10.0711  -18.8145   20.0060 N   0  0  0  0  0  0  0  0  0  0  0  0
    8.2676  -17.4682   20.7977 C   0  0  0  0  0  0  0  0  0  0  0  0
    8.0465  -18.1369   21.8396 O   0  0  0  0  0  0  0  0  0  0  0  0
    7.8190  -16.1215   20.7789 N   0  0  0  0  0  0  0  0  0  0  0  0
    6.9864  -15.5668   21.8026 C   0  0  0  0  0  0  0  0  0  0  0  0
    7.7871  -15.1897   23.0214 C   0  0  0  0  0  0  0  0  0  0  0  0
    9.0305  -15.3055   22.9469 O   0  0  0  0  0  0  0  0  0  0  0  0
    5.7060  -11.2629   26.2569 C   0  0  0  0  0  0  0  0  0  0  0  0
    6.5341  -12.2047   25.4468 C   0  0  0  0  0  0  0  0  0  0  0  0
    7.2571  -13.2783   26.1715 C   0  0  2  0  0  0  0  0  0  0  0  0
    8.1520  -12.6977   27.2571 C   0  0  0  0  0  0  0  0  0  0  0  0
    7.9625  -14.2726   25.3268 C   0  0  2  0  0  0  0  0  0  0  0  0
    7.1811  -14.7255   24.2012 N   0  0  0  0  0  0  0  0  0  0  0  0
    8.5281  -15.3583   26.1489 C   0  0  0  0  0  0  0  0  0  0  0  0
    9.8052  -15.3515   26.6555 O   0  0  0  0  0  0  0  0  0  0  0  0
    7.8086  -16.3557   26.4062 O   0  0  0  0  0  0  0  0  0  0  0  0
  2  1  1  6
  2  3  1  0
  4  2  1  0
  4  5  1  1
  6  4  1  0
  6  8  1  0
  7  6  2  0
  9  8  1  0
  9 10  1  0
 10 17  1  0
 11 10  2  0
 12 13  1  0
 14 13  1  0
 14 15  1  1
 16 14  1  0
 16 17  1  6
 18 19  1  0
 18 16  1  0
 20 18  2  0
M  END
$$$$
