VGI.pdb
     RDKit          3D

 20 19  0  0  1  0  0  0  0  0999 V2000
    8.3257  -20.3838   18.8152 C   0  0  0  0  0  0  0  0  0  0  0  0
    8.6683  -18.9018   18.9573 C   0  0  1  0  0  0  0  0  0  0  0  0
    7.6265  -18.0779   18.2437 C   0  0  0  0  0  0  0  0  0  0  0  0
    8.6201  -18.5809   20.4344 C   0  0  2  0  0  0  0  0  0  0  0  0
    7.4122  -19.0205   21.0589 N   0  0  0  0  0  0  0  0  0  0  0  0
    8.8588  -17.1547   20.7155 C   0  0  0  0  0  0  0  0  0  0  0  0
    9.9663  -16.5858   20.5387 O   0  0  0  0  0  0  0  0  0  0  0  0
    7.7907  -16.3636   21.2139 N   0  0  0  0  0  0  0  0  0  0  0  0
    7.9377  -14.9770   21.5375 C   0  0  0  0  0  0  0  0  0  0  0  0
    8.4805  -14.7896   22.9300 C   0  0  0  0  0  0  0  0  0  0  0  0
    9.7244  -14.7802   23.0623 O   0  0  0  0  0  0  0  0  0  0  0  0
    5.5510  -11.5318   26.0336 C   0  0  0  0  0  0  0  0  0  0  0  0
    6.6581  -12.2818   25.3696 C   0  0  0  0  0  0  0  0  0  0  0  0
    7.2810  -13.3955   26.1258 C   0  0  2  0  0  0  0  0  0  0  0  0
    7.9419  -12.8885   27.3998 C   0  0  0  0  0  0  0  0  0  0  0  0
    8.1662  -14.2957   25.3474 C   0  0  2  0  0  0  0  0  0  0  0  0
    7.6410  -14.6306   24.0456 N   0  0  0  0  0  0  0  0  0  0  0  0
    8.5770  -15.4600   26.1538 C   0  0  0  0  0  0  0  0  0  0  0  0
    9.6836  -15.4773   26.9681 O   0  0  0  0  0  0  0  0  0  0  0  0
    7.8822  -16.5053   26.0992 O   0  0  0  0  0  0  0  0  0  0  0  0
  2  1  1  1
  2  3  1  0
  4  2  1  0
  4  5  1  6
  6  4  1  0
  6  8  1  0
  7  6  2  0
  9  8  1  0
  9 10  1  0
 10 17  1  0
 11 10  2  0
 12 13  1  0
 14 13  1  0
 14 15  1  1
 16 14  1  0
 16 17  1  6
 18 19  1  0
 18 16  1  0
 20 18  2  0
M  END
$$$$
