VGI.pdb
     RDKit          3D

 20 19  0  0  1  0  0  0  0  0999 V2000
    8.5831  -13.0234   17.9420 C   0  0  0  0  0  0  0  0  0  0  0  0
    7.8490  -13.2955   19.2539 C   0  0  1  0  0  0  0  0  0  0  0  0
    6.4342  -13.7225   18.9550 C   0  0  0  0  0  0  0  0  0  0  0  0
    8.5729  -14.4370   19.9322 C   0  0  2  0  0  0  0  0  0  0  0  0
    8.5737  -15.6350   19.1531 N   0  0  0  0  0  0  0  0  0  0  0  0
    8.0696  -14.7033   21.2908 C   0  0  0  0  0  0  0  0  0  0  0  0
    8.0514  -13.8431   22.2080 O   0  0  0  0  0  0  0  0  0  0  0  0
    7.5740  -15.9973   21.5995 N   0  0  0  0  0  0  0  0  0  0  0  0
    7.0956  -16.3547   22.9004 C   0  0  0  0  0  0  0  0  0  0  0  0
    7.9822  -15.8021   23.9856 C   0  0  0  0  0  0  0  0  0  0  0  0
    9.2181  -15.8763   23.8072 O   0  0  0  0  0  0  0  0  0  0  0  0
    5.8381  -11.9019   27.0712 C   0  0  0  0  0  0  0  0  0  0  0  0
    6.8365  -12.6808   26.2804 C   0  0  0  0  0  0  0  0  0  0  0  0
    7.6862  -13.6501   27.0144 C   0  0  2  0  0  0  0  0  0  0  0  0
    8.6840  -12.9319   27.9118 C   0  0  0  0  0  0  0  0  0  0  0  0
    8.3217  -14.7100   26.1943 C   0  0  2  0  0  0  0  0  0  0  0  0
    7.4616  -15.2240   25.1558 N   0  0  0  0  0  0  0  0  0  0  0  0
    8.9278  -15.7476   27.0490 C   0  0  0  0  0  0  0  0  0  0  0  0
    8.4896  -17.0487   27.1039 O   0  0  0  0  0  0  0  0  0  0  0  0
    9.9027  -15.4340   27.7769 O   0  0  0  0  0  0  0  0  0  0  0  0
  2  1  1  6
  2  3  1  0
  4  2  1  0
  4  5  1  6
  6  4  1  0
  6  8  1  0
  7  6  2  0
  9  8  1  0
  9 10  1  0
 10 17  1  0
 11 10  2  0
 12 13  1  0
 14 13  1  0
 14 15  1  6
 16 14  1  0
 16 17  1  6
 18 19  1  0
 18 16  1  0
 20 18  2  0
M  END
$$$$
