VMT.pdb
     RDKit          3D

 23 22  0  0  1  0  0  0  0  0999 V2000
   18.5038  -14.3522  -19.4081 C   0  0  0  0  0  0  0  0  0  0  0  0
   19.0027  -13.3267  -18.4222 C   0  0  2  0  0  0  0  0  0  0  0  0
   19.1933  -12.0233  -19.1851 C   0  0  0  0  0  0  0  0  0  0  0  0
   20.3376  -13.6938  -17.8417 C   0  0  2  0  0  0  0  0  0  0  0  0
   20.2108  -14.9831  -17.2058 N   0  0  0  0  0  0  0  0  0  0  0  0
   20.8447  -12.6895  -16.8708 C   0  0  0  0  0  0  0  0  0  0  0  0
   20.2605  -12.4694  -15.7656 O   0  0  0  0  0  0  0  0  0  0  0  0
   27.0389  -10.3721  -15.7077 C   0  0  0  0  0  0  0  0  0  0  0  0
   26.4392  -12.0814  -15.5797 S   0  0  0  0  0  0  0  0  0  0  0  0
   24.6418  -12.0157  -15.4137 C   0  0  0  0  0  0  0  0  0  0  0  0
   24.1033  -10.9153  -16.3065 C   0  0  0  0  0  0  0  0  0  0  0  0
   22.5886  -10.9695  -16.2293 C   0  0  2  0  0  0  0  0  0  0  0  0
   22.0117  -11.9199  -17.1260 N   0  0  0  0  0  0  0  0  0  0  0  0
   22.0983   -9.5837  -16.4360 C   0  0  0  0  0  0  0  0  0  0  0  0
   22.3909   -9.0459  -17.5405 O   0  0  0  0  0  0  0  0  0  0  0  0
   19.0552   -8.1724  -17.3604 C   0  0  0  0  0  0  0  0  0  0  0  0
   19.4479   -7.4263  -16.1050 C   0  0  1  0  0  0  0  0  0  0  0  0
   18.6844   -7.8502  -15.0455 O   0  0  0  0  0  0  0  0  0  0  0  0
   20.9362   -7.4916  -15.8482 C   0  0  2  0  0  0  0  0  0  0  0  0
   21.3496   -8.8525  -15.5052 N   0  0  0  0  0  0  0  0  0  0  0  0
   21.3007   -6.5500  -14.7752 C   0  0  0  0  0  0  0  0  0  0  0  0
   21.2204   -5.1936  -14.9868 O   0  0  0  0  0  0  0  0  0  0  0  0
   21.6831   -6.9820  -13.6724 O   0  0  0  0  0  0  0  0  0  0  0  0
  2  1  1  6
  2  4  1  0
  2  3  1  0
  4  6  1  0
  4  5  1  1
  6 13  1  0
  6  7  2  0
  8  9  1  0
 10  9  1  0
 11 10  1  0
 12 14  1  0
 12 11  1  6
 13 12  1  0
 14 15  2  0
 17 16  1  6
 17 18  1  0
 17 19  1  0
 19 20  1  1
 20 14  1  0
 21 19  1  0
 22 21  1  0
 23 21  2  0
M  END
$$$$
