VMT.pdb
     RDKit          3D

 23 22  0  0  1  0  0  0  0  0999 V2000
   19.3957  -14.7631  -19.0238 C   0  0  0  0  0  0  0  0  0  0  0  0
   19.6834  -13.5226  -18.2170 C   0  0  2  0  0  0  0  0  0  0  0  0
   19.9868  -12.4035  -19.2033 C   0  0  0  0  0  0  0  0  0  0  0  0
   20.8945  -13.6768  -17.3435 C   0  0  2  0  0  0  0  0  0  0  0  0
   20.6810  -14.8110  -16.4768 N   0  0  0  0  0  0  0  0  0  0  0  0
   21.1884  -12.4629  -16.5383 C   0  0  0  0  0  0  0  0  0  0  0  0
   20.4346  -12.0888  -15.5881 O   0  0  0  0  0  0  0  0  0  0  0  0
   27.0628  -12.3507  -16.1603 C   0  0  0  0  0  0  0  0  0  0  0  0
   26.4870  -11.2097  -14.8703 S   0  0  0  0  0  0  0  0  0  0  0  0
   24.6810  -11.2392  -14.8853 C   0  0  0  0  0  0  0  0  0  0  0  0
   24.1800  -10.2713  -15.9389 C   0  0  0  0  0  0  0  0  0  0  0  0
   22.6812  -10.4734  -16.0640 C   0  0  2  0  0  0  0  0  0  0  0  0
   22.3295  -11.6537  -16.7877 N   0  0  0  0  0  0  0  0  0  0  0  0
   22.1277   -9.2283  -16.6530 C   0  0  0  0  0  0  0  0  0  0  0  0
   22.2671   -9.0896  -17.9004 O   0  0  0  0  0  0  0  0  0  0  0  0
   19.0974   -5.3644  -16.7025 C   0  0  0  0  0  0  0  0  0  0  0  0
   19.6153   -6.6308  -16.0583 C   0  0  1  0  0  0  0  0  0  0  0  0
   18.6444   -7.6014  -16.0777 O   0  0  0  0  0  0  0  0  0  0  0  0
   20.9317   -7.0736  -16.6550 C   0  0  2  0  0  0  0  0  0  0  0  0
   21.4762   -8.2215  -15.9294 N   0  0  0  0  0  0  0  0  0  0  0  0
   21.8869   -5.9517  -16.6482 C   0  0  0  0  0  0  0  0  0  0  0  0
   21.8761   -5.0264  -17.6653 O   0  0  0  0  0  0  0  0  0  0  0  0
   22.7074   -5.8396  -15.7191 O   0  0  0  0  0  0  0  0  0  0  0  0
  2  1  1  6
  2  4  1  0
  2  3  1  0
  4  6  1  0
  4  5  1  1
  6 13  1  0
  6  7  2  0
  8  9  1  0
 10  9  1  0
 11 10  1  0
 12 14  1  0
 12 11  1  6
 13 12  1  0
 14 15  2  0
 17 16  1  6
 17 18  1  0
 17 19  1  0
 19 20  1  1
 20 14  1  0
 21 19  1  0
 22 21  1  0
 23 21  2  0
M  END
$$$$
