VMT.pdb
     RDKit          3D

 23 22  0  0  1  0  0  0  0  0999 V2000
   28.6507  -18.6865  -17.0179 C   0  0  0  0  0  0  0  0  0  0  0  0
   27.5209  -19.2427  -16.1891 C   0  0  2  0  0  0  0  0  0  0  0  0
   27.0985  -18.1530  -15.2136 C   0  0  0  0  0  0  0  0  0  0  0  0
   27.9431  -20.4262  -15.3678 C   0  0  2  0  0  0  0  0  0  0  0  0
   28.3283  -21.4842  -16.2707 N   0  0  0  0  0  0  0  0  0  0  0  0
   26.8805  -20.9006  -14.4437 C   0  0  0  0  0  0  0  0  0  0  0  0
   25.8840  -21.5712  -14.8540 O   0  0  0  0  0  0  0  0  0  0  0  0
   26.0571  -19.2925   -7.7980 C   0  0  0  0  0  0  0  0  0  0  0  0
   25.7247  -21.0610   -8.0422 S   0  0  0  0  0  0  0  0  0  0  0  0
   25.2409  -21.2898   -9.7674 C   0  0  0  0  0  0  0  0  0  0  0  0
   26.3262  -20.7267  -10.6635 C   0  0  0  0  0  0  0  0  0  0  0  0
   25.9421  -21.0465  -12.0964 C   0  0  2  0  0  0  0  0  0  0  0  0
   26.9213  -20.6297  -13.0493 N   0  0  0  0  0  0  0  0  0  0  0  0
   24.6008  -20.4528  -12.3242 C   0  0  0  0  0  0  0  0  0  0  0  0
   24.5479  -19.1920  -12.3709 O   0  0  0  0  0  0  0  0  0  0  0  0
   22.0332  -22.1050  -14.8447 C   0  0  0  0  0  0  0  0  0  0  0  0
   22.0187  -20.6516  -14.4271 C   0  0  1  0  0  0  0  0  0  0  0  0
   20.8915  -20.0333  -14.9090 O   0  0  0  0  0  0  0  0  0  0  0  0
   22.2142  -20.4873  -12.9371 C   0  0  2  0  0  0  0  0  0  0  0  0
   23.4183  -21.1856  -12.4865 N   0  0  0  0  0  0  0  0  0  0  0  0
   21.0259  -20.9807  -12.2191 C   0  0  0  0  0  0  0  0  0  0  0  0
   19.7900  -20.4301  -12.4643 O   0  0  0  0  0  0  0  0  0  0  0  0
   21.1394  -21.8993  -11.3870 O   0  0  0  0  0  0  0  0  0  0  0  0
  2  1  1  1
  2  4  1  0
  2  3  1  0
  4  6  1  0
  4  5  1  6
  6 13  1  0
  6  7  2  0
  8  9  1  0
 10  9  1  0
 11 10  1  0
 12 14  1  0
 12 11  1  1
 13 12  1  0
 14 15  2  0
 17 16  1  1
 17 18  1  0
 17 19  1  0
 19 20  1  1
 20 14  1  0
 21 19  1  0
 22 21  1  0
 23 21  2  0
M  END
$$$$
