VMT.pdb
     RDKit          3D

 23 22  0  0  1  0  0  0  0  0999 V2000
   16.3687  -21.8809  -11.9403 C   0  0  0  0  0  0  0  0  0  0  0  0
   17.5654  -20.9714  -12.0567 C   0  0  2  0  0  0  0  0  0  0  0  0
   17.1774  -19.8331  -12.9899 C   0  0  0  0  0  0  0  0  0  0  0  0
   18.7486  -21.6594  -12.6733 C   0  0  2  0  0  0  0  0  0  0  0  0
   18.9569  -22.9054  -11.9753 N   0  0  0  0  0  0  0  0  0  0  0  0
   19.9847  -20.8356  -12.6345 C   0  0  0  0  0  0  0  0  0  0  0  0
   20.2765  -20.1094  -11.6352 O   0  0  0  0  0  0  0  0  0  0  0  0
   27.2027  -21.3331  -11.6473 C   0  0  0  0  0  0  0  0  0  0  0  0
   25.4961  -21.9531  -11.6178 S   0  0  0  0  0  0  0  0  0  0  0  0
   24.5048  -20.8655  -12.6652 C   0  0  0  0  0  0  0  0  0  0  0  0
   23.0764  -21.3724  -12.6912 C   0  0  0  0  0  0  0  0  0  0  0  0
   22.2890  -20.4616  -13.6152 C   0  0  2  0  0  0  0  0  0  0  0  0
   20.9086  -20.8153  -13.7140 N   0  0  0  0  0  0  0  0  0  0  0  0
   22.9965  -20.4586  -14.9202 C   0  0  0  0  0  0  0  0  0  0  0  0
   23.0119  -21.5526  -15.5506 O   0  0  0  0  0  0  0  0  0  0  0  0
   22.5692  -17.7742  -17.8667 C   0  0  0  0  0  0  0  0  0  0  0  0
   24.0116  -18.1205  -17.5726 C   0  0  1  0  0  0  0  0  0  0  0  0
   24.6262  -17.0753  -16.9284 O   0  0  0  0  0  0  0  0  0  0  0  0
   24.1420  -19.4424  -16.8511 C   0  0  2  0  0  0  0  0  0  0  0  0
   23.6329  -19.3450  -15.4829 N   0  0  0  0  0  0  0  0  0  0  0  0
   25.5498  -19.8774  -16.8538 C   0  0  0  0  0  0  0  0  0  0  0  0
   26.1686  -20.2143  -18.0347 O   0  0  0  0  0  0  0  0  0  0  0  0
   26.1828  -19.9407  -15.7841 O   0  0  0  0  0  0  0  0  0  0  0  0
  2  1  1  6
  2  4  1  0
  2  3  1  0
  4  6  1  0
  4  5  1  1
  6 13  1  0
  6  7  2  0
  8  9  1  0
 10  9  1  0
 11 10  1  0
 12 14  1  0
 12 11  1  1
 13 12  1  0
 14 15  2  0
 17 16  1  1
 17 18  1  0
 17 19  1  0
 19 20  1  1
 20 14  1  0
 21 19  1  0
 22 21  1  0
 23 21  2  0
M  END
$$$$
