VMT.pdb
     RDKit          3D

 23 22  0  0  1  0  0  0  0  0999 V2000
   21.7378  -21.5599  -15.3445 C   0  0  0  0  0  0  0  0  0  0  0  0
   21.1794  -21.9879  -14.0112 C   0  0  2  0  0  0  0  0  0  0  0  0
   19.7207  -22.3626  -14.2327 C   0  0  0  0  0  0  0  0  0  0  0  0
   21.1980  -20.8780  -13.0006 C   0  0  2  0  0  0  0  0  0  0  0  0
   20.3079  -19.8387  -13.4595 N   0  0  0  0  0  0  0  0  0  0  0  0
   22.5580  -20.3251  -12.7701 C   0  0  0  0  0  0  0  0  0  0  0  0
   22.9671  -19.2799  -13.3627 O   0  0  0  0  0  0  0  0  0  0  0  0
   26.6671  -19.8435   -7.3718 C   0  0  0  0  0  0  0  0  0  0  0  0
   27.4738  -20.8889   -8.6184 S   0  0  0  0  0  0  0  0  0  0  0  0
   26.7993  -20.4314  -10.2303 C   0  0  0  0  0  0  0  0  0  0  0  0
   25.4413  -21.0831  -10.4004 C   0  0  0  0  0  0  0  0  0  0  0  0
   24.8329  -20.5361  -11.6786 C   0  0  2  0  0  0  0  0  0  0  0  0
   23.4756  -20.9361  -11.8735 N   0  0  0  0  0  0  0  0  0  0  0  0
   25.7350  -20.9345  -12.7882 C   0  0  0  0  0  0  0  0  0  0  0  0
   25.7749  -22.1666  -13.0616 O   0  0  0  0  0  0  0  0  0  0  0  0
   26.2616  -18.9763  -16.3843 C   0  0  0  0  0  0  0  0  0  0  0  0
   27.5195  -19.4523  -15.6929 C   0  0  1  0  0  0  0  0  0  0  0  0
   28.1931  -18.3853  -15.1514 O   0  0  0  0  0  0  0  0  0  0  0  0
   27.2388  -20.5610  -14.7044 C   0  0  2  0  0  0  0  0  0  0  0  0
   26.5258  -20.0506  -13.5332 N   0  0  0  0  0  0  0  0  0  0  0  0
   28.5014  -21.2073  -14.3055 C   0  0  0  0  0  0  0  0  0  0  0  0
   29.2488  -21.8978  -15.2304 O   0  0  0  0  0  0  0  0  0  0  0  0
   28.8945  -21.1290  -13.1272 O   0  0  0  0  0  0  0  0  0  0  0  0
  2  1  1  6
  2  4  1  0
  2  3  1  0
  4  6  1  0
  4  5  1  6
  6 13  1  0
  6  7  2  0
  8  9  1  0
 10  9  1  0
 11 10  1  0
 12 14  1  0
 12 11  1  1
 13 12  1  0
 14 15  2  0
 17 16  1  1
 17 18  1  0
 17 19  1  0
 19 20  1  1
 20 14  1  0
 21 19  1  0
 22 21  1  0
 23 21  2  0
M  END
$$$$
