VMT.pdb
     RDKit          3D

 23 22  0  0  1  0  0  0  0  0999 V2000
   16.8681  -14.6436  -18.0491 C   0  0  0  0  0  0  0  0  0  0  0  0
   17.1729  -13.5179  -17.0938 C   0  0  2  0  0  0  0  0  0  0  0  0
   15.8558  -12.8203  -16.7842 C   0  0  0  0  0  0  0  0  0  0  0  0
   18.0834  -12.4875  -17.6962 C   0  0  2  0  0  0  0  0  0  0  0  0
   19.0111  -13.1647  -18.5701 N   0  0  0  0  0  0  0  0  0  0  0  0
   18.8211  -11.6972  -16.6767 C   0  0  0  0  0  0  0  0  0  0  0  0
   18.2458  -11.2228  -15.6495 O   0  0  0  0  0  0  0  0  0  0  0  0
   25.1128  -11.9338  -15.1837 C   0  0  0  0  0  0  0  0  0  0  0  0
   24.8833  -10.1389  -15.0311 S   0  0  0  0  0  0  0  0  0  0  0  0
   23.1067   -9.8141  -15.0571 C   0  0  0  0  0  0  0  0  0  0  0  0
   22.4575  -10.7021  -16.1001 C   0  0  0  0  0  0  0  0  0  0  0  0
   20.9551  -10.5333  -15.9674 C   0  0  2  0  0  0  0  0  0  0  0  0
   20.2115  -11.4290  -16.7953 N   0  0  0  0  0  0  0  0  0  0  0  0
   20.6594   -9.1017  -16.2254 C   0  0  0  0  0  0  0  0  0  0  0  0
   20.8669   -8.6909  -17.4013 O   0  0  0  0  0  0  0  0  0  0  0  0
   18.2911   -4.9212  -15.5625 C   0  0  0  0  0  0  0  0  0  0  0  0
   18.5085   -6.4055  -15.3716 C   0  0  1  0  0  0  0  0  0  0  0  0
   17.5702   -7.1150  -16.0798 O   0  0  0  0  0  0  0  0  0  0  0  0
   19.9333   -6.8133  -15.6696 C   0  0  2  0  0  0  0  0  0  0  0  0
   20.1762   -8.1995  -15.2693 N   0  0  0  0  0  0  0  0  0  0  0  0
   20.8680   -5.9019  -14.9863 C   0  0  0  0  0  0  0  0  0  0  0  0
   21.2312   -4.7132  -15.5746 O   0  0  0  0  0  0  0  0  0  0  0  0
   21.3316   -6.2075  -13.8725 O   0  0  0  0  0  0  0  0  0  0  0  0
  2  1  1  6
  2  4  1  0
  2  3  1  0
  4  6  1  0
  4  5  1  6
  6 13  1  0
  6  7  2  0
  8  9  1  0
 10  9  1  0
 11 10  1  0
 12 14  1  0
 12 11  1  6
 13 12  1  0
 14 15  2  0
 17 16  1  6
 17 18  1  0
 17 19  1  0
 19 20  1  1
 20 14  1  0
 21 19  1  0
 22 21  1  0
 23 21  2  0
M  END
$$$$
