VMT.pdb
     RDKit          3D

 23 22  0  0  1  0  0  0  0  0999 V2000
   20.6296  -10.5466  -19.4616 C   0  0  0  0  0  0  0  0  0  0  0  0
   22.0072  -10.0379  -19.1208 C   0  0  2  0  0  0  0  0  0  0  0  0
   22.9746  -10.6495  -20.1245 C   0  0  0  0  0  0  0  0  0  0  0  0
   22.4568  -10.4749  -17.7568 C   0  0  2  0  0  0  0  0  0  0  0  0
   22.5923  -11.9117  -17.7681 N   0  0  0  0  0  0  0  0  0  0  0  0
   21.5268  -10.0549  -16.6765 C   0  0  0  0  0  0  0  0  0  0  0  0
   20.5250  -10.7586  -16.3418 O   0  0  0  0  0  0  0  0  0  0  0  0
   22.7074  -10.8218  -10.7161 C   0  0  0  0  0  0  0  0  0  0  0  0
   22.2774   -9.1810  -11.3643 S   0  0  0  0  0  0  0  0  0  0  0  0
   21.6444   -9.4078  -13.0408 C   0  0  0  0  0  0  0  0  0  0  0  0
   21.3709   -8.0485  -13.6535 C   0  0  0  0  0  0  0  0  0  0  0  0
   20.7769   -8.2832  -15.0302 C   0  0  2  0  0  0  0  0  0  0  0  0
   21.7078   -8.8421  -15.9584 N   0  0  0  0  0  0  0  0  0  0  0  0
   20.1985   -6.9902  -15.4744 C   0  0  0  0  0  0  0  0  0  0  0  0
   21.0021   -6.1683  -15.9971 O   0  0  0  0  0  0  0  0  0  0  0  0
   16.0725   -6.3971  -16.0144 C   0  0  0  0  0  0  0  0  0  0  0  0
   17.1335   -5.6905  -16.8280 C   0  0  1  0  0  0  0  0  0  0  0  0
   16.6046   -4.5722  -17.4239 O   0  0  0  0  0  0  0  0  0  0  0  0
   18.3810   -5.4177  -16.0190 C   0  0  2  0  0  0  0  0  0  0  0  0
   18.8497   -6.6332  -15.3529 N   0  0  0  0  0  0  0  0  0  0  0  0
   18.1167   -4.3530  -15.0354 C   0  0  0  0  0  0  0  0  0  0  0  0
   17.9147   -3.0585  -15.4530 O   0  0  0  0  0  0  0  0  0  0  0  0
   18.0760   -4.6245  -13.8214 O   0  0  0  0  0  0  0  0  0  0  0  0
  2  1  1  6
  2  4  1  0
  2  3  1  0
  4  6  1  0
  4  5  1  6
  6 13  1  0
  6  7  2  0
  8  9  1  0
 10  9  1  0
 11 10  1  0
 12 14  1  0
 12 11  1  1
 13 12  1  0
 14 15  2  0
 17 16  1  1
 17 18  1  0
 17 19  1  0
 19 20  1  1
 20 14  1  0
 21 19  1  0
 22 21  1  0
 23 21  2  0
M  END
$$$$
