VMT.pdb
     RDKit          3D

 23 22  0  0  1  0  0  0  0  0999 V2000
   12.3672  -13.8498  -13.5401 C   0  0  0  0  0  0  0  0  0  0  0  0
   13.3127  -12.9924  -12.7380 C   0  0  2  0  0  0  0  0  0  0  0  0
   12.6746  -11.6164  -12.6094 C   0  0  0  0  0  0  0  0  0  0  0  0
   14.6334  -12.8003  -13.4254 C   0  0  2  0  0  0  0  0  0  0  0  0
   15.2179  -14.1014  -13.6454 N   0  0  0  0  0  0  0  0  0  0  0  0
   15.5691  -11.9400  -12.6557 C   0  0  0  0  0  0  0  0  0  0  0  0
   16.3258  -12.4115  -11.7522 O   0  0  0  0  0  0  0  0  0  0  0  0
   21.4408   -7.3109  -12.5986 C   0  0  0  0  0  0  0  0  0  0  0  0
   20.0688   -7.9357  -13.6109 S   0  0  0  0  0  0  0  0  0  0  0  0
   18.7743   -8.4986  -12.4840 C   0  0  0  0  0  0  0  0  0  0  0  0
   17.6974   -9.2059  -13.2826 C   0  0  0  0  0  0  0  0  0  0  0  0
   16.6377   -9.6719  -12.3013 C   0  0  2  0  0  0  0  0  0  0  0  0
   15.6686  -10.5417  -12.8886 N   0  0  0  0  0  0  0  0  0  0  0  0
   16.0500   -8.4523  -11.6926 C   0  0  0  0  0  0  0  0  0  0  0  0
   15.2357   -7.8061  -12.4096 O   0  0  0  0  0  0  0  0  0  0  0  0
   15.0498   -5.4695   -7.8632 C   0  0  0  0  0  0  0  0  0  0  0  0
   15.7165   -6.7169   -8.3985 C   0  0  1  0  0  0  0  0  0  0  0  0
   15.2470   -7.8243   -7.7363 O   0  0  0  0  0  0  0  0  0  0  0  0
   15.6103   -6.8160   -9.9031 C   0  0  2  0  0  0  0  0  0  0  0  0
   16.3352   -7.9841  -10.4038 N   0  0  0  0  0  0  0  0  0  0  0  0
   16.1203   -5.5806  -10.5233 C   0  0  0  0  0  0  0  0  0  0  0  0
   15.2823   -4.5089  -10.7236 O   0  0  0  0  0  0  0  0  0  0  0  0
   17.3138   -5.5050  -10.8679 O   0  0  0  0  0  0  0  0  0  0  0  0
  2  1  1  6
  2  4  1  0
  2  3  1  0
  4  6  1  0
  4  5  1  1
  6 13  1  0
  6  7  2  0
  8  9  1  0
 10  9  1  0
 11 10  1  0
 12 14  1  0
 12 11  1  6
 13 12  1  0
 14 15  2  0
 17 16  1  1
 17 18  1  0
 17 19  1  0
 19 20  1  6
 20 14  1  0
 21 19  1  0
 22 21  1  0
 23 21  2  0
M  END
$$$$
