VMT.pdb
     RDKit          3D

 23 22  0  0  1  0  0  0  0  0999 V2000
   17.0081   -8.8988  -16.5109 C   0  0  0  0  0  0  0  0  0  0  0  0
   17.7419   -9.8187  -17.4532 C   0  0  2  0  0  0  0  0  0  0  0  0
   16.6928  -10.5368  -18.2904 C   0  0  0  0  0  0  0  0  0  0  0  0
   18.5224  -10.8762  -16.7278 C   0  0  2  0  0  0  0  0  0  0  0  0
   17.5972  -11.6563  -15.9414 N   0  0  0  0  0  0  0  0  0  0  0  0
   19.5905  -10.3165  -15.8592 C   0  0  0  0  0  0  0  0  0  0  0  0
   19.4426  -10.1997  -14.6040 O   0  0  0  0  0  0  0  0  0  0  0  0
   26.0387  -11.2969  -14.6409 C   0  0  0  0  0  0  0  0  0  0  0  0
   25.9093   -9.6689  -15.4348 S   0  0  0  0  0  0  0  0  0  0  0  0
   24.2516   -9.0328  -15.1032 C   0  0  0  0  0  0  0  0  0  0  0  0
   23.2657   -9.7165  -16.0297 C   0  0  0  0  0  0  0  0  0  0  0  0
   21.8761   -9.2497  -15.6372 C   0  0  2  0  0  0  0  0  0  0  0  0
   20.8364   -9.8812  -16.3859 N   0  0  0  0  0  0  0  0  0  0  0  0
   21.8732   -7.7694  -15.7479 C   0  0  0  0  0  0  0  0  0  0  0  0
   22.1111   -7.2938  -16.8933 O   0  0  0  0  0  0  0  0  0  0  0  0
   19.3890   -5.2686  -15.9998 C   0  0  0  0  0  0  0  0  0  0  0  0
   20.2730   -4.8518  -14.8458 C   0  0  1  0  0  0  0  0  0  0  0  0
   19.6450   -5.1110  -13.6526 O   0  0  0  0  0  0  0  0  0  0  0  0
   21.6582   -5.4486  -14.9477 C   0  0  2  0  0  0  0  0  0  0  0  0
   21.6290   -6.8880  -14.6872 N   0  0  0  0  0  0  0  0  0  0  0  0
   22.5669   -4.7672  -14.0091 C   0  0  0  0  0  0  0  0  0  0  0  0
   23.1183   -5.4566  -12.9548 O   0  0  0  0  0  0  0  0  0  0  0  0
   22.8376   -3.5631  -14.1696 O   0  0  0  0  0  0  0  0  0  0  0  0
  2  1  1  1
  2  4  1  0
  2  3  1  0
  4  6  1  0
  4  5  1  1
  6 13  1  0
  6  7  2  0
  8  9  1  0
 10  9  1  0
 11 10  1  0
 12 14  1  0
 12 11  1  6
 13 12  1  0
 14 15  2  0
 17 16  1  6
 17 18  1  0
 17 19  1  0
 19 20  1  1
 20 14  1  0
 21 19  1  0
 22 21  1  0
 23 21  2  0
M  END
$$$$
