VMT.pdb
     RDKit          3D

 23 22  0  0  1  0  0  0  0  0999 V2000
   17.5933  -12.0038  -20.3566 C   0  0  0  0  0  0  0  0  0  0  0  0
   18.2969  -11.4244  -19.1558 C   0  0  2  0  0  0  0  0  0  0  0  0
   18.6684   -9.9889  -19.5000 C   0  0  0  0  0  0  0  0  0  0  0  0
   19.5759  -12.1442  -18.8401 C   0  0  2  0  0  0  0  0  0  0  0  0
   19.2515  -13.5114  -18.5105 N   0  0  0  0  0  0  0  0  0  0  0  0
   20.3378  -11.5149  -17.7302 C   0  0  0  0  0  0  0  0  0  0  0  0
   19.9790  -11.6321  -16.5184 O   0  0  0  0  0  0  0  0  0  0  0  0
   26.5653  -11.2959  -14.7123 C   0  0  0  0  0  0  0  0  0  0  0  0
   26.2452  -10.1108  -16.0506 S   0  0  0  0  0  0  0  0  0  0  0  0
   24.4951   -9.6699  -15.9788 C   0  0  0  0  0  0  0  0  0  0  0  0
   23.7921  -10.2390  -17.1953 C   0  0  0  0  0  0  0  0  0  0  0  0
   22.2988  -10.1122  -16.9564 C   0  0  2  0  0  0  0  0  0  0  0  0
   21.5104  -10.7471  -17.9644 N   0  0  0  0  0  0  0  0  0  0  0  0
   22.0102   -8.6645  -16.8005 C   0  0  0  0  0  0  0  0  0  0  0  0
   22.2213   -7.9399  -17.8129 O   0  0  0  0  0  0  0  0  0  0  0  0
   18.9514   -7.2454  -14.7477 C   0  0  0  0  0  0  0  0  0  0  0  0
   19.7199   -6.4173  -15.7530 C   0  0  1  0  0  0  0  0  0  0  0  0
   19.3476   -5.0989  -15.6619 O   0  0  0  0  0  0  0  0  0  0  0  0
   21.2117   -6.6380  -15.6479 C   0  0  2  0  0  0  0  0  0  0  0  0
   21.5301   -8.0659  -15.6288 N   0  0  0  0  0  0  0  0  0  0  0  0
   21.7324   -5.9716  -14.4414 C   0  0  0  0  0  0  0  0  0  0  0  0
   21.6536   -4.6044  -14.3164 O   0  0  0  0  0  0  0  0  0  0  0  0
   22.2459   -6.6470  -13.5308 O   0  0  0  0  0  0  0  0  0  0  0  0
  2  1  1  6
  2  4  1  0
  2  3  1  0
  4  6  1  0
  4  5  1  1
  6 13  1  0
  6  7  2  0
  8  9  1  0
 10  9  1  0
 11 10  1  0
 12 14  1  0
 12 11  1  6
 13 12  1  0
 14 15  2  0
 17 16  1  1
 17 18  1  0
 17 19  1  0
 19 20  1  1
 20 14  1  0
 21 19  1  0
 22 21  1  0
 23 21  2  0
M  END
$$$$
