VMT.pdb
     RDKit          3D

 23 22  0  0  1  0  0  0  0  0999 V2000
   22.0728  -21.7742  -15.1304 C   0  0  0  0  0  0  0  0  0  0  0  0
   21.0529  -21.1025  -14.2465 C   0  0  2  0  0  0  0  0  0  0  0  0
   19.7053  -21.7444  -14.5449 C   0  0  0  0  0  0  0  0  0  0  0  0
   20.9156  -19.6373  -14.5432 C   0  0  2  0  0  0  0  0  0  0  0  0
   20.4350  -19.4970  -15.8969 N   0  0  0  0  0  0  0  0  0  0  0  0
   22.1869  -18.8878  -14.3689 C   0  0  0  0  0  0  0  0  0  0  0  0
   22.7038  -18.6993  -13.2251 O   0  0  0  0  0  0  0  0  0  0  0  0
   27.7657  -19.6308  -13.7862 C   0  0  0  0  0  0  0  0  0  0  0  0
   28.0284  -18.2426  -14.9271 S   0  0  0  0  0  0  0  0  0  0  0  0
   26.4718  -17.3339  -15.0448 C   0  0  0  0  0  0  0  0  0  0  0  0
   25.3515  -18.3101  -15.3445 C   0  0  0  0  0  0  0  0  0  0  0  0
   24.0581  -17.5172  -15.3846 C   0  0  2  0  0  0  0  0  0  0  0  0
   22.8942  -18.3406  -15.4733 N   0  0  0  0  0  0  0  0  0  0  0  0
   24.1847  -16.5453  -16.4994 C   0  0  0  0  0  0  0  0  0  0  0  0
   24.1977  -17.0300  -17.6653 O   0  0  0  0  0  0  0  0  0  0  0  0
   22.3965  -12.8253  -16.8972 C   0  0  0  0  0  0  0  0  0  0  0  0
   23.8730  -12.9038  -17.2145 C   0  0  1  0  0  0  0  0  0  0  0  0
   24.6032  -12.3150  -16.2119 O   0  0  0  0  0  0  0  0  0  0  0  0
   24.3095  -14.3143  -17.5387 C   0  0  2  0  0  0  0  0  0  0  0  0
   24.2881  -15.1573  -16.3430 N   0  0  0  0  0  0  0  0  0  0  0  0
   25.6545  -14.2962  -18.1399 C   0  0  0  0  0  0  0  0  0  0  0  0
   26.7530  -14.6474  -17.3909 O   0  0  0  0  0  0  0  0  0  0  0  0
   25.7990  -13.9620  -19.3300 O   0  0  0  0  0  0  0  0  0  0  0  0
  2  1  1  6
  2  4  1  0
  2  3  1  0
  4  6  1  0
  4  5  1  6
  6 13  1  0
  6  7  2  0
  8  9  1  0
 10  9  1  0
 11 10  1  0
 12 14  1  0
 12 11  1  6
 13 12  1  0
 14 15  2  0
 17 16  1  1
 17 18  1  0
 17 19  1  0
 19 20  1  1
 20 14  1  0
 21 19  1  0
 22 21  1  0
 23 21  2  0
M  END
$$$$
