VMT.pdb
     RDKit          3D

 23 22  0  0  1  0  0  0  0  0999 V2000
   18.0039  -11.4473  -20.4781 C   0  0  0  0  0  0  0  0  0  0  0  0
   18.6675  -10.8723  -19.2527 C   0  0  2  0  0  0  0  0  0  0  0  0
   19.1697   -9.4835  -19.6218 C   0  0  0  0  0  0  0  0  0  0  0  0
   19.8638  -11.6707  -18.8225 C   0  0  2  0  0  0  0  0  0  0  0  0
   19.4254  -13.0150  -18.5332 N   0  0  0  0  0  0  0  0  0  0  0  0
   20.5554  -11.0904  -17.6421 C   0  0  0  0  0  0  0  0  0  0  0  0
   20.0397  -11.1149  -16.4826 O   0  0  0  0  0  0  0  0  0  0  0  0
   27.2753   -9.1599  -16.4454 C   0  0  0  0  0  0  0  0  0  0  0  0
   26.3904  -10.2973  -15.3404 S   0  0  0  0  0  0  0  0  0  0  0  0
   24.6443   -9.8361  -15.3711 C   0  0  0  0  0  0  0  0  0  0  0  0
   24.0500  -10.2402  -16.7058 C   0  0  0  0  0  0  0  0  0  0  0  0
   22.5694   -9.9100  -16.6614 C   0  0  2  0  0  0  0  0  0  0  0  0
   21.8325  -10.4760  -17.7463 N   0  0  0  0  0  0  0  0  0  0  0  0
   22.4615   -8.4319  -16.5768 C   0  0  0  0  0  0  0  0  0  0  0  0
   22.7622   -7.7885  -17.6208 O   0  0  0  0  0  0  0  0  0  0  0  0
   20.3370   -4.3439  -15.3910 C   0  0  0  0  0  0  0  0  0  0  0  0
   20.4917   -5.8395  -15.5526 C   0  0  1  0  0  0  0  0  0  0  0  0
   19.8128   -6.2666  -16.6670 O   0  0  0  0  0  0  0  0  0  0  0  0
   21.9414   -6.2668  -15.5211 C   0  0  2  0  0  0  0  0  0  0  0  0
   22.0568   -7.7230  -15.4387 N   0  0  0  0  0  0  0  0  0  0  0  0
   22.6279   -5.6243  -14.3867 C   0  0  0  0  0  0  0  0  0  0  0  0
   23.3373   -4.4615  -14.5746 O   0  0  0  0  0  0  0  0  0  0  0  0
   22.5666   -6.1348  -13.2532 O   0  0  0  0  0  0  0  0  0  0  0  0
  2  1  1  6
  2  4  1  0
  2  3  1  0
  4  6  1  0
  4  5  1  1
  6 13  1  0
  6  7  2  0
  8  9  1  0
 10  9  1  0
 11 10  1  0
 12 14  1  0
 12 11  1  6
 13 12  1  0
 14 15  2  0
 17 16  1  6
 17 18  1  0
 17 19  1  0
 19 20  1  1
 20 14  1  0
 21 19  1  0
 22 21  1  0
 23 21  2  0
M  END
$$$$
