VMT.pdb
     RDKit          3D

 23 22  0  0  1  0  0  0  0  0999 V2000
   21.7664  -21.5386  -14.8402 C   0  0  0  0  0  0  0  0  0  0  0  0
   21.1746  -21.1178  -13.5191 C   0  0  2  0  0  0  0  0  0  0  0  0
   19.6797  -20.9277  -13.7348 C   0  0  0  0  0  0  0  0  0  0  0  0
   21.7190  -19.8028  -13.0417 C   0  0  2  0  0  0  0  0  0  0  0  0
   21.4351  -18.8079  -14.0480 N   0  0  0  0  0  0  0  0  0  0  0  0
   23.1772  -19.8461  -12.7588 C   0  0  0  0  0  0  0  0  0  0  0  0
   24.0328  -19.3770  -13.5704 O   0  0  0  0  0  0  0  0  0  0  0  0
   26.6510  -18.9641   -7.1355 C   0  0  0  0  0  0  0  0  0  0  0  0
   27.0360  -20.6471   -7.6985 S   0  0  0  0  0  0  0  0  0  0  0  0
   26.7885  -20.6917   -9.4872 C   0  0  0  0  0  0  0  0  0  0  0  0
   25.3153  -20.9004   -9.7770 C   0  0  0  0  0  0  0  0  0  0  0  0
   25.0786  -20.5117  -11.2247 C   0  0  2  0  0  0  0  0  0  0  0  0
   23.6943  -20.4153  -11.5638 N   0  0  0  0  0  0  0  0  0  0  0  0
   25.8282  -21.4844  -12.0586 C   0  0  0  0  0  0  0  0  0  0  0  0
   25.6384  -22.7058  -11.8001 O   0  0  0  0  0  0  0  0  0  0  0  0
   24.8437  -23.2510  -14.3323 C   0  0  0  0  0  0  0  0  0  0  0  0
   25.9438  -22.4620  -15.0063 C   0  0  1  0  0  0  0  0  0  0  0  0
   25.4213  -21.3459  -15.6116 O   0  0  0  0  0  0  0  0  0  0  0  0
   27.0881  -22.1651  -14.0642 C   0  0  2  0  0  0  0  0  0  0  0  0
   26.7120  -21.1409  -13.0894 N   0  0  0  0  0  0  0  0  0  0  0  0
   28.2725  -21.7436  -14.8326 C   0  0  0  0  0  0  0  0  0  0  0  0
   28.9501  -22.6499  -15.6139 O   0  0  0  0  0  0  0  0  0  0  0  0
   28.6626  -20.5630  -14.7756 O   0  0  0  0  0  0  0  0  0  0  0  0
  2  1  1  6
  2  4  1  0
  2  3  1  0
  4  6  1  0
  4  5  1  6
  6 13  1  0
  6  7  2  0
  8  9  1  0
 10  9  1  0
 11 10  1  0
 12 14  1  0
 12 11  1  1
 13 12  1  0
 14 15  2  0
 17 16  1  1
 17 18  1  0
 17 19  1  0
 19 20  1  1
 20 14  1  0
 21 19  1  0
 22 21  1  0
 23 21  2  0
M  END
$$$$
