YTS.pdb
     RDKit          3D

 26 26  0  0  1  0  0  0  0  0999 V2000
   10.4412  -14.1152   31.1896 O   0  0  0  0  0  0  0  0  0  0  0  0
   10.2445  -14.5648   29.8967 C   0  0  0  0  0  0  0  0  0  0  0  0
   10.4620  -15.8791   29.5139 C   0  0  0  0  0  0  0  0  0  0  0  0
   10.2599  -16.3062   28.2210 C   0  0  0  0  0  0  0  0  0  0  0  0
    9.8277  -15.4351   27.2413 C   0  0  0  0  0  0  0  0  0  0  0  0
    9.6055  -15.8529   25.8400 C   0  0  0  0  0  0  0  0  0  0  0  0
    8.1559  -15.7887   25.4243 C   0  0  2  0  0  0  0  0  0  0  0  0
    7.3358  -16.6347   26.2755 N   0  0  0  0  0  0  0  0  0  0  0  0
    7.9116  -16.1618   24.0260 C   0  0  0  0  0  0  0  0  0  0  0  0
    7.2860  -17.2253   23.6964 O   0  0  0  0  0  0  0  0  0  0  0  0
    9.6104  -14.1289   27.6157 C   0  0  0  0  0  0  0  0  0  0  0  0
    9.8149  -13.6929   28.9284 C   0  0  0  0  0  0  0  0  0  0  0  0
    7.4480  -14.9211   19.3514 C   0  0  0  0  0  0  0  0  0  0  0  0
    7.7425  -14.5020   20.7759 C   0  0  1  0  0  0  0  0  0  0  0  0
    6.5162  -13.9458   21.2271 O   0  0  0  0  0  0  0  0  0  0  0  0
    8.0827  -15.7158   21.5853 C   0  0  2  0  0  0  0  0  0  0  0  0
    8.3593  -15.3579   22.9726 N   0  0  0  0  0  0  0  0  0  0  0  0
    9.2631  -16.4031   21.0700 C   0  0  0  0  0  0  0  0  0  0  0  0
   10.4218  -15.9243   21.3786 O   0  0  0  0  0  0  0  0  0  0  0  0
   11.5941  -20.2243   19.3043 O   0  0  0  0  0  0  0  0  0  0  0  0
   10.3361  -19.6891   19.6109 C   0  0  0  0  0  0  0  0  0  0  0  0
   10.5703  -18.2593   20.0493 C   0  0  2  0  0  0  0  0  0  0  0  0
    9.3189  -17.5519   20.2609 N   0  0  0  0  0  0  0  0  0  0  0  0
   11.3016  -17.5794   18.9598 C   0  0  0  0  0  0  0  0  0  0  0  0
   12.6603  -17.7817   18.8136 O   0  0  0  0  0  0  0  0  0  0  0  0
   10.7374  -16.8111   18.1436 O   0  0  0  0  0  0  0  0  0  0  0  0
  2  1  1  0
  2  3  2  0
  4  3  1  0
  5  4  2  0
  6  5  1  0
  7  6  1  0
  7  9  1  0
  7  8  1  1
  9 10  2  0
  9 17  1  0
 11 12  2  0
 11  5  1  0
 12  2  1  0
 14 13  1  6
 14 15  1  0
 16 14  1  0
 16 17  1  1
 18 16  1  0
 18 19  2  0
 20 21  1  0
 22 21  1  6
 22 23  1  0
 23 18  1  0
 24 22  1  0
 25 24  1  0
 26 24  2  0
M  END
$$$$
