YTS.pdb
     RDKit          3D

 26 26  0  0  1  0  0  0  0  0999 V2000
    5.6629  -10.3153   27.6487 O   0  0  0  0  0  0  0  0  0  0  0  0
    6.2994  -11.4032   27.0800 C   0  0  0  0  0  0  0  0  0  0  0  0
    6.7132  -12.5036   27.8142 C   0  0  0  0  0  0  0  0  0  0  0  0
    7.3455  -13.5768   27.2282 C   0  0  0  0  0  0  0  0  0  0  0  0
    7.5966  -13.6028   25.8712 C   0  0  0  0  0  0  0  0  0  0  0  0
    8.2790  -14.7333   25.2050 C   0  0  0  0  0  0  0  0  0  0  0  0
    7.3297  -15.6549   24.4786 C   0  0  2  0  0  0  0  0  0  0  0  0
    6.5260  -16.4165   25.4205 N   0  0  0  0  0  0  0  0  0  0  0  0
    7.9842  -16.5951   23.5611 C   0  0  0  0  0  0  0  0  0  0  0  0
    8.0608  -17.8477   23.7979 O   0  0  0  0  0  0  0  0  0  0  0  0
    7.1880  -12.5129   25.1373 C   0  0  0  0  0  0  0  0  0  0  0  0
    6.5456  -11.4217   25.7304 C   0  0  0  0  0  0  0  0  0  0  0  0
    7.3667  -16.1538   19.8911 C   0  0  0  0  0  0  0  0  0  0  0  0
    8.8000  -16.6312   19.9874 C   0  0  1  0  0  0  0  0  0  0  0  0
    9.5654  -15.4655   19.7196 O   0  0  0  0  0  0  0  0  0  0  0  0
    9.0664  -17.1095   21.3818 C   0  0  2  0  0  0  0  0  0  0  0  0
    8.5637  -16.1567   22.3659 N   0  0  0  0  0  0  0  0  0  0  0  0
   10.4933  -17.2850   21.6361 C   0  0  0  0  0  0  0  0  0  0  0  0
   11.1675  -16.2543   22.0236 O   0  0  0  0  0  0  0  0  0  0  0  0
   12.2631  -20.7301   22.1793 O   0  0  0  0  0  0  0  0  0  0  0  0
   13.0761  -19.6811   22.6284 C   0  0  0  0  0  0  0  0  0  0  0  0
   12.6808  -18.4566   21.8312 C   0  0  2  0  0  0  0  0  0  0  0  0
   11.2621  -18.4565   21.5175 N   0  0  0  0  0  0  0  0  0  0  0  0
   13.4307  -18.4994   20.5584 C   0  0  0  0  0  0  0  0  0  0  0  0
   14.8120  -18.5078   20.5748 O   0  0  0  0  0  0  0  0  0  0  0  0
   12.8627  -18.5293   19.4398 O   0  0  0  0  0  0  0  0  0  0  0  0
  2  1  1  0
  2  3  2  0
  4  3  1  0
  5  4  2  0
  6  5  1  0
  7  6  1  0
  7  9  1  0
  7  8  1  1
  9 10  2  0
  9 17  1  0
 11 12  2  0
 11  5  1  0
 12  2  1  0
 14 13  1  1
 14 15  1  0
 16 14  1  0
 16 17  1  1
 18 16  1  0
 18 19  2  0
 20 21  1  0
 22 21  1  1
 22 23  1  0
 23 18  1  0
 24 22  1  0
 25 24  1  0
 26 24  2  0
M  END
$$$$
