YTS.pdb
     RDKit          3D

 26 26  0  0  1  0  0  0  0  0999 V2000
    5.7064  -10.4984   28.5113 O   0  0  0  0  0  0  0  0  0  0  0  0
    6.2334  -11.4971   27.7131 C   0  0  0  0  0  0  0  0  0  0  0  0
    5.6176  -11.9388   26.5525 C   0  0  0  0  0  0  0  0  0  0  0  0
    6.1594  -12.9348   25.7718 C   0  0  0  0  0  0  0  0  0  0  0  0
    7.3506  -13.5417   26.1151 C   0  0  0  0  0  0  0  0  0  0  0  0
    7.9618  -14.6194   25.3072 C   0  0  0  0  0  0  0  0  0  0  0  0
    6.9475  -15.4413   24.5496 C   0  0  2  0  0  0  0  0  0  0  0  0
    6.1255  -16.2183   25.4625 N   0  0  0  0  0  0  0  0  0  0  0  0
    7.5288  -16.3538   23.5580 C   0  0  0  0  0  0  0  0  0  0  0  0
    7.3660  -17.6194   23.6081 O   0  0  0  0  0  0  0  0  0  0  0  0
    7.9663  -13.1072   27.2664 C   0  0  0  0  0  0  0  0  0  0  0  0
    7.4179  -12.0958   28.0609 C   0  0  0  0  0  0  0  0  0  0  0  0
    7.0763  -15.4700   20.0353 C   0  0  0  0  0  0  0  0  0  0  0  0
    8.4692  -16.0617   20.0714 C   0  0  1  0  0  0  0  0  0  0  0  0
    9.3218  -14.9307   19.9694 O   0  0  0  0  0  0  0  0  0  0  0  0
    8.6797  -16.7444   21.3881 C   0  0  2  0  0  0  0  0  0  0  0  0
    8.3004  -15.8727   22.4951 N   0  0  0  0  0  0  0  0  0  0  0  0
   10.0751  -17.1224   21.5909 C   0  0  0  0  0  0  0  0  0  0  0  0
   10.7831  -16.4038   22.3966 O   0  0  0  0  0  0  0  0  0  0  0  0
   11.7638  -20.3189   20.0096 O   0  0  0  0  0  0  0  0  0  0  0  0
   12.5303  -19.9133   21.1101 C   0  0  0  0  0  0  0  0  0  0  0  0
   12.1561  -18.4734   21.3899 C   0  0  2  0  0  0  0  0  0  0  0  0
   10.7799  -18.1951   21.0161 N   0  0  0  0  0  0  0  0  0  0  0  0
   13.0360  -17.6217   20.5625 C   0  0  0  0  0  0  0  0  0  0  0  0
   14.4025  -17.6460   20.7634 O   0  0  0  0  0  0  0  0  0  0  0  0
   12.5937  -16.8613   19.6675 O   0  0  0  0  0  0  0  0  0  0  0  0
  2  1  1  0
  2  3  2  0
  4  3  1  0
  5  4  2  0
  6  5  1  0
  7  6  1  0
  7  9  1  0
  7  8  1  1
  9 10  2  0
  9 17  1  0
 11 12  2  0
 11  5  1  0
 12  2  1  0
 14 13  1  1
 14 15  1  0
 16 14  1  0
 16 17  1  1
 18 16  1  0
 18 19  2  0
 20 21  1  0
 22 21  1  6
 22 23  1  0
 23 18  1  0
 24 22  1  0
 25 24  1  0
 26 24  2  0
M  END
$$$$
