YTS.pdb
     RDKit          3D

 26 26  0  0  1  0  0  0  0  0999 V2000
    6.1253  -10.6371   28.7340 O   0  0  0  0  0  0  0  0  0  0  0  0
    6.5376  -11.4719   27.7115 C   0  0  0  0  0  0  0  0  0  0  0  0
    7.8128  -12.0112   27.6459 C   0  0  0  0  0  0  0  0  0  0  0  0
    8.2031  -12.8406   26.6189 C   0  0  0  0  0  0  0  0  0  0  0  0
    7.3324  -13.1736   25.6009 C   0  0  0  0  0  0  0  0  0  0  0  0
    7.7151  -14.0553   24.4767 C   0  0  0  0  0  0  0  0  0  0  0  0
    6.8462  -15.2844   24.3640 C   0  0  2  0  0  0  0  0  0  0  0  0
    6.8663  -16.0471   25.6013 N   0  0  0  0  0  0  0  0  0  0  0  0
    7.2089  -16.1812   23.2604 C   0  0  0  0  0  0  0  0  0  0  0  0
    6.3466  -16.6543   22.4458 O   0  0  0  0  0  0  0  0  0  0  0  0
    6.0651  -12.6408   25.6609 C   0  0  0  0  0  0  0  0  0  0  0  0
    5.6665  -11.7983   26.7031 C   0  0  0  0  0  0  0  0  0  0  0  0
    7.2712  -15.3868   20.9874 C   0  0  0  0  0  0  0  0  0  0  0  0
    8.6498  -15.9388   20.6934 C   0  0  1  0  0  0  0  0  0  0  0  0
    9.5036  -14.8124   20.8315 O   0  0  0  0  0  0  0  0  0  0  0  0
    8.9953  -16.9722   21.7213 C   0  0  2  0  0  0  0  0  0  0  0  0
    8.5365  -16.5659   23.0455 N   0  0  0  0  0  0  0  0  0  0  0  0
   10.4354  -17.1950   21.8097 C   0  0  0  0  0  0  0  0  0  0  0  0
   11.1502  -16.2919   22.3932 O   0  0  0  0  0  0  0  0  0  0  0  0
   11.8277  -20.6075   20.8592 O   0  0  0  0  0  0  0  0  0  0  0  0
   12.8341  -20.0714   21.6734 C   0  0  0  0  0  0  0  0  0  0  0  0
   12.4746  -18.6193   21.9049 C   0  0  2  0  0  0  0  0  0  0  0  0
   11.1784  -18.2911   21.3362 N   0  0  0  0  0  0  0  0  0  0  0  0
   13.4956  -17.7990   21.2202 C   0  0  0  0  0  0  0  0  0  0  0  0
   14.8180  -17.8808   21.6111 O   0  0  0  0  0  0  0  0  0  0  0  0
   13.2146  -17.0151   20.2814 O   0  0  0  0  0  0  0  0  0  0  0  0
  2  1  1  0
  2  3  2  0
  4  3  1  0
  5  4  2  0
  6  5  1  0
  7  6  1  0
  7  9  1  0
  7  8  1  1
  9 10  2  0
  9 17  1  0
 11 12  2  0
 11  5  1  0
 12  2  1  0
 14 13  1  1
 14 15  1  0
 16 14  1  0
 16 17  1  1
 18 16  1  0
 18 19  2  0
 20 21  1  0
 22 21  1  6
 22 23  1  0
 23 18  1  0
 24 22  1  0
 25 24  1  0
 26 24  2  0
M  END
$$$$
