YTS.pdb
     RDKit          3D

 26 26  0  0  1  0  0  0  0  0999 V2000
    5.6973  -10.3680   28.5157 O   0  0  0  0  0  0  0  0  0  0  0  0
    6.2525  -11.3146   27.6744 C   0  0  0  0  0  0  0  0  0  0  0  0
    5.6608  -11.7051   26.4834 C   0  0  0  0  0  0  0  0  0  0  0  0
    6.2305  -12.6497   25.6600 C   0  0  0  0  0  0  0  0  0  0  0  0
    7.4272  -13.2540   25.9888 C   0  0  0  0  0  0  0  0  0  0  0  0
    8.0681  -14.2776   25.1350 C   0  0  0  0  0  0  0  0  0  0  0  0
    7.1025  -15.3268   24.6398 C   0  0  2  0  0  0  0  0  0  0  0  0
    6.6111  -16.1384   25.7411 N   0  0  0  0  0  0  0  0  0  0  0  0
    7.6552  -16.2208   23.6155 C   0  0  0  0  0  0  0  0  0  0  0  0
    7.6466  -17.4924   23.7341 O   0  0  0  0  0  0  0  0  0  0  0  0
    8.0191  -12.8703   27.1702 C   0  0  0  0  0  0  0  0  0  0  0  0
    7.4422  -11.9110   28.0081 C   0  0  0  0  0  0  0  0  0  0  0  0
    6.9404  -15.3802   20.0599 C   0  0  0  0  0  0  0  0  0  0  0  0
    8.3243  -15.9927   20.0242 C   0  0  1  0  0  0  0  0  0  0  0  0
    9.1810  -14.8839   19.7937 O   0  0  0  0  0  0  0  0  0  0  0  0
    8.6261  -16.6042   21.3580 C   0  0  2  0  0  0  0  0  0  0  0  0
    8.2261  -15.7145   22.4432 N   0  0  0  0  0  0  0  0  0  0  0  0
   10.0503  -16.8788   21.5237 C   0  0  0  0  0  0  0  0  0  0  0  0
   10.7865  -15.9527   22.0408 O   0  0  0  0  0  0  0  0  0  0  0  0
   11.6202  -20.4039   21.8006 O   0  0  0  0  0  0  0  0  0  0  0  0
   12.5086  -19.4126   22.2379 C   0  0  0  0  0  0  0  0  0  0  0  0
   12.1820  -18.1619   21.4501 C   0  0  2  0  0  0  0  0  0  0  0  0
   10.7568  -18.0485   21.1915 N   0  0  0  0  0  0  0  0  0  0  0  0
   12.8760  -18.2677   20.1495 C   0  0  0  0  0  0  0  0  0  0  0  0
   14.2538  -18.3592   20.1114 O   0  0  0  0  0  0  0  0  0  0  0  0
   12.2624  -18.2787   19.0549 O   0  0  0  0  0  0  0  0  0  0  0  0
  2  1  1  0
  2  3  2  0
  4  3  1  0
  5  4  2  0
  6  5  1  0
  7  6  1  0
  7  9  1  0
  7  8  1  1
  9 10  2  0
  9 17  1  0
 11 12  2  0
 11  5  1  0
 12  2  1  0
 14 13  1  1
 14 15  1  0
 16 14  1  0
 16 17  1  1
 18 16  1  0
 18 19  2  0
 20 21  1  0
 22 21  1  1
 22 23  1  0
 23 18  1  0
 24 22  1  0
 25 24  1  0
 26 24  2  0
M  END
$$$$
