YTS.pdb
     RDKit          3D

 26 26  0  0  1  0  0  0  0  0999 V2000
   -2.8790  -20.1618   21.9429 O   0  0  0  0  0  0  0  0  0  0  0  0
   -1.5786  -20.4193   22.3368 C   0  0  0  0  0  0  0  0  0  0  0  0
   -1.0810  -21.7021   22.5035 C   0  0  0  0  0  0  0  0  0  0  0  0
    0.2173  -21.9365   22.8964 C   0  0  0  0  0  0  0  0  0  0  0  0
    1.0872  -20.8937   23.1434 C   0  0  0  0  0  0  0  0  0  0  0  0
    2.4866  -21.1034   23.5737 C   0  0  0  0  0  0  0  0  0  0  0  0
    3.4817  -20.9586   22.4480 C   0  0  2  0  0  0  0  0  0  0  0  0
    3.1746  -21.8780   21.3648 N   0  0  0  0  0  0  0  0  0  0  0  0
    4.8792  -21.1625   22.8473 C   0  0  0  0  0  0  0  0  0  0  0  0
    5.4047  -22.3222   22.9467 O   0  0  0  0  0  0  0  0  0  0  0  0
    0.5984  -19.6178   22.9797 C   0  0  0  0  0  0  0  0  0  0  0  0
   -0.7200  -19.3774   22.5806 C   0  0  0  0  0  0  0  0  0  0  0  0
    7.6691  -19.3871   21.1878 C   0  0  0  0  0  0  0  0  0  0  0  0
    7.9661  -19.2784   22.6682 C   0  0  1  0  0  0  0  0  0  0  0  0
    7.5543  -17.9609   23.0018 O   0  0  0  0  0  0  0  0  0  0  0  0
    7.1343  -20.2784   23.4114 C   0  0  2  0  0  0  0  0  0  0  0  0
    5.7140  -20.0797   23.1423 N   0  0  0  0  0  0  0  0  0  0  0  0
    7.3211  -20.1790   24.8559 C   0  0  0  0  0  0  0  0  0  0  0  0
    6.6071  -19.3158   25.4978 O   0  0  0  0  0  0  0  0  0  0  0  0
    7.9074  -22.9271   27.4039 O   0  0  0  0  0  0  0  0  0  0  0  0
    7.5539  -21.6731   27.9195 C   0  0  0  0  0  0  0  0  0  0  0  0
    8.2984  -20.6427   27.0977 C   0  0  2  0  0  0  0  0  0  0  0  0
    8.1952  -20.9162   25.6744 N   0  0  0  0  0  0  0  0  0  0  0  0
    9.7244  -20.7245   27.4770 C   0  0  0  0  0  0  0  0  0  0  0  0
   10.6841  -20.9233   26.5035 O   0  0  0  0  0  0  0  0  0  0  0  0
   10.1149  -20.6201   28.6651 O   0  0  0  0  0  0  0  0  0  0  0  0
  2  1  1  0
  2  3  2  0
  4  3  1  0
  5  4  2  0
  6  5  1  0
  7  6  1  0
  7  9  1  0
  7  8  1  6
  9 10  2  0
  9 17  1  0
 11 12  2  0
 11  5  1  0
 12  2  1  0
 14 13  1  6
 14 15  1  0
 16 14  1  0
 16 17  1  1
 18 16  1  0
 18 19  2  0
 20 21  1  0
 22 21  1  1
 22 23  1  0
 23 18  1  0
 24 22  1  0
 25 24  1  0
 26 24  2  0
M  END
$$$$
