YTS.pdb
     RDKit          3D

 26 26  0  0  1  0  0  0  0  0999 V2000
    5.0778  -10.8364   28.2747 O   0  0  0  0  0  0  0  0  0  0  0  0
    5.8526  -11.6299   27.4486 C   0  0  0  0  0  0  0  0  0  0  0  0
    7.1606  -11.9781   27.7472 C   0  0  0  0  0  0  0  0  0  0  0  0
    7.9149  -12.7695   26.9108 C   0  0  0  0  0  0  0  0  0  0  0  0
    7.3955  -13.2547   25.7276 C   0  0  0  0  0  0  0  0  0  0  0  0
    8.1750  -14.1018   24.7989 C   0  0  0  0  0  0  0  0  0  0  0  0
    7.5935  -15.4839   24.6260 C   0  0  2  0  0  0  0  0  0  0  0  0
    7.3686  -16.1154   25.9158 N   0  0  0  0  0  0  0  0  0  0  0  0
    8.4110  -16.3846   23.8049 C   0  0  0  0  0  0  0  0  0  0  0  0
    8.9075  -17.4700   24.2591 O   0  0  0  0  0  0  0  0  0  0  0  0
    6.0974  -12.9121   25.4260 C   0  0  0  0  0  0  0  0  0  0  0  0
    5.3293  -12.1084   26.2741 C   0  0  0  0  0  0  0  0  0  0  0  0
    7.3085  -17.1031   20.2831 C   0  0  0  0  0  0  0  0  0  0  0  0
    8.8192  -17.0297   20.2201 C   0  0  1  0  0  0  0  0  0  0  0  0
    9.0736  -15.7664   19.6236 O   0  0  0  0  0  0  0  0  0  0  0  0
    9.3716  -17.0591   21.6122 C   0  0  2  0  0  0  0  0  0  0  0  0
    8.6891  -16.0922   22.4656 N   0  0  0  0  0  0  0  0  0  0  0  0
   10.7952  -16.7368   21.6423 C   0  0  0  0  0  0  0  0  0  0  0  0
   11.1300  -15.4908   21.6920 O   0  0  0  0  0  0  0  0  0  0  0  0
   13.5527  -18.5297   23.4824 O   0  0  0  0  0  0  0  0  0  0  0  0
   13.8829  -17.2524   23.0107 C   0  0  0  0  0  0  0  0  0  0  0  0
   13.2543  -17.1224   21.6398 C   0  0  2  0  0  0  0  0  0  0  0  0
   11.8893  -17.6201   21.6269 N   0  0  0  0  0  0  0  0  0  0  0  0
   14.0516  -17.9495   20.7101 C   0  0  0  0  0  0  0  0  0  0  0  0
   13.4326  -18.9303   19.9597 O   0  0  0  0  0  0  0  0  0  0  0  0
   15.2894  -17.8018   20.5657 O   0  0  0  0  0  0  0  0  0  0  0  0
  2  1  1  0
  2  3  2  0
  4  3  1  0
  5  4  2  0
  6  5  1  0
  7  6  1  0
  7  9  1  0
  7  8  1  1
  9 10  2  0
  9 17  1  0
 11 12  2  0
 11  5  1  0
 12  2  1  0
 14 13  1  1
 14 15  1  0
 16 14  1  0
 16 17  1  1
 18 16  1  0
 18 19  2  0
 20 21  1  0
 22 21  1  1
 22 23  1  0
 23 18  1  0
 24 22  1  0
 25 24  1  0
 26 24  2  0
M  END
$$$$
