YTS.pdb
     RDKit          3D

 26 26  0  0  1  0  0  0  0  0999 V2000
    5.4770  -10.8236   28.4338 O   0  0  0  0  0  0  0  0  0  0  0  0
    6.0754  -11.7223   27.5698 C   0  0  0  0  0  0  0  0  0  0  0  0
    5.7290  -11.8271   26.2318 C   0  0  0  0  0  0  0  0  0  0  0  0
    6.3374  -12.7289   25.3883 C   0  0  0  0  0  0  0  0  0  0  0  0
    7.3280  -13.5754   25.8438 C   0  0  0  0  0  0  0  0  0  0  0  0
    8.0009  -14.5624   24.9717 C   0  0  0  0  0  0  0  0  0  0  0  0
    7.0608  -15.6084   24.4235 C   0  0  2  0  0  0  0  0  0  0  0  0
    6.4835  -16.3990   25.4980 N   0  0  0  0  0  0  0  0  0  0  0  0
    7.6743  -16.5227   23.4531 C   0  0  0  0  0  0  0  0  0  0  0  0
    7.7915  -17.7763   23.6668 O   0  0  0  0  0  0  0  0  0  0  0  0
    7.6758  -13.4759   27.1714 C   0  0  0  0  0  0  0  0  0  0  0  0
    7.0592  -12.5606   28.0300 C   0  0  0  0  0  0  0  0  0  0  0  0
    9.0078  -17.4077   18.8236 C   0  0  0  0  0  0  0  0  0  0  0  0
    8.4505  -16.4327   19.8387 C   0  0  1  0  0  0  0  0  0  0  0  0
    7.0633  -16.3853   19.5386 O   0  0  0  0  0  0  0  0  0  0  0  0
    8.6578  -16.9844   21.2159 C   0  0  2  0  0  0  0  0  0  0  0  0
    8.1670  -16.0568   22.2296 N   0  0  0  0  0  0  0  0  0  0  0  0
   10.0685  -17.2313   21.4991 C   0  0  0  0  0  0  0  0  0  0  0  0
   10.8317  -16.2085   21.6952 O   0  0  0  0  0  0  0  0  0  0  0  0
   11.5977  -20.8019   22.0370 O   0  0  0  0  0  0  0  0  0  0  0  0
   12.5087  -19.8686   22.5493 C   0  0  0  0  0  0  0  0  0  0  0  0
   12.1449  -18.5312   21.9408 C   0  0  2  0  0  0  0  0  0  0  0  0
   10.7353  -18.4658   21.5944 N   0  0  0  0  0  0  0  0  0  0  0  0
   12.9290  -18.3863   20.6964 C   0  0  0  0  0  0  0  0  0  0  0  0
   14.3075  -18.3219   20.7566 O   0  0  0  0  0  0  0  0  0  0  0  0
   12.3929  -18.3174   19.5638 O   0  0  0  0  0  0  0  0  0  0  0  0
  2  1  1  0
  2  3  2  0
  4  3  1  0
  5  4  2  0
  6  5  1  0
  7  6  1  0
  7  9  1  0
  7  8  1  1
  9 10  2  0
  9 17  1  0
 11 12  2  0
 11  5  1  0
 12  2  1  0
 14 13  1  6
 14 15  1  0
 16 14  1  0
 16 17  1  1
 18 16  1  0
 18 19  2  0
 20 21  1  0
 22 21  1  6
 22 23  1  0
 23 18  1  0
 24 22  1  0
 25 24  1  0
 26 24  2  0
M  END
$$$$
