YTS.pdb
     RDKit          3D

 26 26  0  0  1  0  0  0  0  0999 V2000
    8.1045  -11.5888   17.5683 O   0  0  0  0  0  0  0  0  0  0  0  0
    8.2575  -12.4066   18.6730 C   0  0  0  0  0  0  0  0  0  0  0  0
    9.4859  -12.6499   19.2671 C   0  0  0  0  0  0  0  0  0  0  0  0
    9.6162  -13.4676   20.3667 C   0  0  0  0  0  0  0  0  0  0  0  0
    8.5182  -14.0860   20.9299 C   0  0  0  0  0  0  0  0  0  0  0  0
    8.6172  -14.9768   22.1065 C   0  0  0  0  0  0  0  0  0  0  0  0
    9.4846  -16.1878   21.8628 C   0  0  2  0  0  0  0  0  0  0  0  0
    9.1158  -16.8467   20.6208 N   0  0  0  0  0  0  0  0  0  0  0  0
    9.4516  -17.1814   22.9425 C   0  0  0  0  0  0  0  0  0  0  0  0
    8.3656  -17.5559   23.5006 O   0  0  0  0  0  0  0  0  0  0  0  0
    7.2961  -13.8482   20.3440 C   0  0  0  0  0  0  0  0  0  0  0  0
    7.1613  -13.0179   19.2271 C   0  0  0  0  0  0  0  0  0  0  0  0
    9.8123  -20.5231   22.7769 C   0  0  0  0  0  0  0  0  0  0  0  0
   10.8995  -20.1698   23.7692 C   0  0  1  0  0  0  0  0  0  0  0  0
   12.0661  -20.0525   22.9680 O   0  0  0  0  0  0  0  0  0  0  0  0
   10.5782  -18.8506   24.4020 C   0  0  2  0  0  0  0  0  0  0  0  0
   10.6259  -17.7739   23.4182 N   0  0  0  0  0  0  0  0  0  0  0  0
   11.5195  -18.5104   25.4647 C   0  0  0  0  0  0  0  0  0  0  0  0
   12.4942  -17.7149   25.1745 O   0  0  0  0  0  0  0  0  0  0  0  0
   11.2461  -19.8594   29.1320 O   0  0  0  0  0  0  0  0  0  0  0  0
   12.2677  -18.9005   29.1398 C   0  0  0  0  0  0  0  0  0  0  0  0
   12.6232  -18.6365   27.6922 C   0  0  2  0  0  0  0  0  0  0  0  0
   11.5134  -18.9383   26.8043 N   0  0  0  0  0  0  0  0  0  0  0  0
   13.7446  -19.5340   27.3442 C   0  0  0  0  0  0  0  0  0  0  0  0
   14.9677  -19.3787   27.9671 O   0  0  0  0  0  0  0  0  0  0  0  0
   13.6383  -20.4497   26.4926 O   0  0  0  0  0  0  0  0  0  0  0  0
  2  1  1  0
  2  3  2  0
  4  3  1  0
  5  4  2  0
  6  5  1  0
  7  6  1  0
  7  9  1  0
  7  8  1  6
  9 10  2  0
  9 17  1  0
 11 12  2  0
 11  5  1  0
 12  2  1  0
 14 13  1  6
 14 15  1  0
 16 14  1  0
 16 17  1  6
 18 16  1  0
 18 19  2  0
 20 21  1  0
 22 21  1  1
 22 23  1  0
 23 18  1  0
 24 22  1  0
 25 24  1  0
 26 24  2  0
M  END
$$$$
