YTS.pdb
     RDKit          3D

 26 26  0  0  1  0  0  0  0  0999 V2000
    2.5862  -23.6462   23.8821 O   0  0  0  0  0  0  0  0  0  0  0  0
    3.5842  -22.9049   23.2765 C   0  0  0  0  0  0  0  0  0  0  0  0
    4.3190  -23.3692   22.1968 C   0  0  0  0  0  0  0  0  0  0  0  0
    5.3086  -22.6148   21.6083 C   0  0  0  0  0  0  0  0  0  0  0  0
    5.6141  -21.3515   22.0731 C   0  0  0  0  0  0  0  0  0  0  0  0
    6.6742  -20.5126   21.4731 C   0  0  0  0  0  0  0  0  0  0  0  0
    6.1452  -19.2447   20.8478 C   0  0  2  0  0  0  0  0  0  0  0  0
    5.4814  -19.5283   19.5861 N   0  0  0  0  0  0  0  0  0  0  0  0
    7.1649  -18.2154   20.6143 C   0  0  0  0  0  0  0  0  0  0  0  0
    7.6604  -17.9865   19.4597 O   0  0  0  0  0  0  0  0  0  0  0  0
    4.8879  -20.8855   23.1450 C   0  0  0  0  0  0  0  0  0  0  0  0
    3.8822  -21.6500   23.7443 C   0  0  0  0  0  0  0  0  0  0  0  0
    6.7354  -14.7081   21.1643 C   0  0  0  0  0  0  0  0  0  0  0  0
    8.0109  -15.0279   21.9140 C   0  0  1  0  0  0  0  0  0  0  0  0
    7.5851  -15.1794   23.2603 O   0  0  0  0  0  0  0  0  0  0  0  0
    8.5695  -16.3214   21.4052 C   0  0  2  0  0  0  0  0  0  0  0  0
    7.6494  -17.4246   21.6614 N   0  0  0  0  0  0  0  0  0  0  0  0
    9.8390  -16.6571   22.0431 C   0  0  0  0  0  0  0  0  0  0  0  0
    9.8261  -17.5444   22.9809 O   0  0  0  0  0  0  0  0  0  0  0  0
   13.5220  -16.3750   20.4576 O   0  0  0  0  0  0  0  0  0  0  0  0
   13.5698  -16.1021   21.8311 C   0  0  0  0  0  0  0  0  0  0  0  0
   12.2982  -16.6663   22.4280 C   0  0  2  0  0  0  0  0  0  0  0  0
   11.1163  -16.1359   21.7700 N   0  0  0  0  0  0  0  0  0  0  0  0
   12.2568  -16.2525   23.8461 C   0  0  0  0  0  0  0  0  0  0  0  0
   13.2230  -16.7065   24.7228 O   0  0  0  0  0  0  0  0  0  0  0  0
   11.3683  -15.4930   24.3031 O   0  0  0  0  0  0  0  0  0  0  0  0
  2  1  1  0
  2  3  2  0
  4  3  1  0
  5  4  2  0
  6  5  1  0
  7  6  1  0
  7  9  1  0
  7  8  1  6
  9 10  2  0
  9 17  1  0
 11 12  2  0
 11  5  1  0
 12  2  1  0
 14 13  1  6
 14 15  1  0
 16 14  1  0
 16 17  1  1
 18 16  1  0
 18 19  2  0
 20 21  1  0
 22 21  1  6
 22 23  1  0
 23 18  1  0
 24 22  1  0
 25 24  1  0
 26 24  2  0
M  END
$$$$
