YTS.pdb
     RDKit          3D

 26 26  0  0  1  0  0  0  0  0999 V2000
    8.1615  -11.4051   18.1276 O   0  0  0  0  0  0  0  0  0  0  0  0
    8.2065  -12.3479   19.1382 C   0  0  0  0  0  0  0  0  0  0  0  0
    9.2348  -12.4113   20.0654 C   0  0  0  0  0  0  0  0  0  0  0  0
    9.2604  -13.3583   21.0641 C   0  0  0  0  0  0  0  0  0  0  0  0
    8.2532  -14.2942   21.1857 C   0  0  0  0  0  0  0  0  0  0  0  0
    8.2475  -15.3316   22.2398 C   0  0  0  0  0  0  0  0  0  0  0  0
    9.2239  -16.4519   21.9753 C   0  0  2  0  0  0  0  0  0  0  0  0
    9.0159  -17.0178   20.6526 N   0  0  0  0  0  0  0  0  0  0  0  0
    9.1747  -17.5405   22.9585 C   0  0  0  0  0  0  0  0  0  0  0  0
    8.2650  -18.4367   22.9485 O   0  0  0  0  0  0  0  0  0  0  0  0
    7.2298  -14.2361   20.2676 C   0  0  0  0  0  0  0  0  0  0  0  0
    7.2017  -13.2751   19.2525 C   0  0  0  0  0  0  0  0  0  0  0  0
   11.8317  -19.9320   23.4917 C   0  0  0  0  0  0  0  0  0  0  0  0
   10.4655  -20.0583   24.1313 C   0  0  1  0  0  0  0  0  0  0  0  0
   10.6169  -21.1328   25.0474 O   0  0  0  0  0  0  0  0  0  0  0  0
   10.1503  -18.7948   24.8717 C   0  0  2  0  0  0  0  0  0  0  0  0
   10.1367  -17.6492   23.9680 N   0  0  0  0  0  0  0  0  0  0  0  0
   11.1317  -18.5136   25.9153 C   0  0  0  0  0  0  0  0  0  0  0  0
   11.8116  -17.4198   25.8241 O   0  0  0  0  0  0  0  0  0  0  0  0
   10.5116  -18.0588   29.4111 O   0  0  0  0  0  0  0  0  0  0  0  0
   11.6766  -17.5835   28.7947 C   0  0  0  0  0  0  0  0  0  0  0  0
   12.3082  -18.7675   28.0941 C   0  0  2  0  0  0  0  0  0  0  0  0
   11.4499  -19.2893   27.0443 N   0  0  0  0  0  0  0  0  0  0  0  0
   12.4920  -19.8298   29.1050 C   0  0  0  0  0  0  0  0  0  0  0  0
   11.8633  -21.0490   28.9425 O   0  0  0  0  0  0  0  0  0  0  0  0
   13.2063  -19.6758   30.1253 O   0  0  0  0  0  0  0  0  0  0  0  0
  2  1  1  0
  2  3  2  0
  4  3  1  0
  5  4  2  0
  6  5  1  0
  7  6  1  0
  7  9  1  0
  7  8  1  6
  9 10  2  0
  9 17  1  0
 11 12  2  0
 11  5  1  0
 12  2  1  0
 14 13  1  1
 14 15  1  0
 16 14  1  0
 16 17  1  6
 18 16  1  0
 18 19  2  0
 20 21  1  0
 22 21  1  1
 22 23  1  0
 23 18  1  0
 24 22  1  0
 25 24  1  0
 26 24  2  0
M  END
$$$$
