YTS.pdb
     RDKit          3D

 26 26  0  0  1  0  0  0  0  0999 V2000
    5.2191  -10.6787   28.3831 O   0  0  0  0  0  0  0  0  0  0  0  0
    5.9024  -11.5689   27.5751 C   0  0  0  0  0  0  0  0  0  0  0  0
    5.5782  -11.7816   26.2444 C   0  0  0  0  0  0  0  0  0  0  0  0
    6.2716  -12.6729   25.4572 C   0  0  0  0  0  0  0  0  0  0  0  0
    7.3297  -13.3997   25.9647 C   0  0  0  0  0  0  0  0  0  0  0  0
    8.0952  -14.3716   25.1541 C   0  0  0  0  0  0  0  0  0  0  0  0
    7.2312  -15.4523   24.5509 C   0  0  2  0  0  0  0  0  0  0  0  0
    6.6814  -16.3127   25.5856 N   0  0  0  0  0  0  0  0  0  0  0  0
    7.9180  -16.2941   23.5643 C   0  0  0  0  0  0  0  0  0  0  0  0
    8.2036  -17.5193   23.7842 O   0  0  0  0  0  0  0  0  0  0  0  0
    7.6558  -13.1927   27.2854 C   0  0  0  0  0  0  0  0  0  0  0  0
    6.9529  -12.2879   28.0869 C   0  0  0  0  0  0  0  0  0  0  0  0
    9.2667  -16.9909   18.8912 C   0  0  0  0  0  0  0  0  0  0  0  0
    8.6150  -16.0928   19.9208 C   0  0  1  0  0  0  0  0  0  0  0  0
    7.2330  -16.1543   19.5996 O   0  0  0  0  0  0  0  0  0  0  0  0
    8.8488  -16.6606   21.2872 C   0  0  2  0  0  0  0  0  0  0  0  0
    8.2979  -15.7864   22.3175 N   0  0  0  0  0  0  0  0  0  0  0  0
   10.2705  -16.8278   21.5737 C   0  0  0  0  0  0  0  0  0  0  0  0
   10.9434  -15.7806   21.9163 O   0  0  0  0  0  0  0  0  0  0  0  0
   12.0241  -20.2313   22.3961 O   0  0  0  0  0  0  0  0  0  0  0  0
   12.8169  -19.1419   22.7807 C   0  0  0  0  0  0  0  0  0  0  0  0
   12.4497  -17.9953   21.8632 C   0  0  2  0  0  0  0  0  0  0  0  0
   11.0354  -18.0071   21.5304 N   0  0  0  0  0  0  0  0  0  0  0  0
   13.2156  -18.1712   20.6115 C   0  0  0  0  0  0  0  0  0  0  0  0
   14.5966  -18.1663   20.6446 O   0  0  0  0  0  0  0  0  0  0  0  0
   12.6616  -18.3280   19.4964 O   0  0  0  0  0  0  0  0  0  0  0  0
  2  1  1  0
  2  3  2  0
  4  3  1  0
  5  4  2  0
  6  5  1  0
  7  6  1  0
  7  9  1  0
  7  8  1  1
  9 10  2  0
  9 17  1  0
 11 12  2  0
 11  5  1  0
 12  2  1  0
 14 13  1  6
 14 15  1  0
 16 14  1  0
 16 17  1  1
 18 16  1  0
 18 19  2  0
 20 21  1  0
 22 21  1  1
 22 23  1  0
 23 18  1  0
 24 22  1  0
 25 24  1  0
 26 24  2  0
M  END
$$$$
