AGE.pdb
     RDKit          3D

 19 18  0  0  1  0  0  0  0  0999 V2000
    6.9665  -14.0222   18.0520 C   0  0  0  0  0  0  0  0  0  0  0  0
    7.6912  -14.9730   18.9729 C   0  0  2  0  0  0  0  0  0  0  0  0
    6.8776  -16.0643   19.4187 N   0  0  0  0  0  0  0  0  0  0  0  0
    8.1370  -14.1842   20.1699 C   0  0  0  0  0  0  0  0  0  0  0  0
    9.0304  -13.2921   20.0545 O   0  0  0  0  0  0  0  0  0  0  0  0
    7.5933  -14.3950   21.4523 N   0  0  0  0  0  0  0  0  0  0  0  0
    7.9478  -13.5387   22.5447 C   0  0  0  0  0  0  0  0  0  0  0  0
    9.0551  -14.1501   23.3614 C   0  0  0  0  0  0  0  0  0  0  0  0
    9.4753  -13.5980   24.4206 O   0  0  0  0  0  0  0  0  0  0  0  0
    9.6734  -15.3634   22.9832 N   0  0  0  0  0  0  0  0  0  0  0  0
   10.7024  -16.0267   23.7834 C   0  0  1  0  0  0  0  0  0  0  0  0
   10.3128  -17.4646   23.8643 C   0  0  0  0  0  0  0  0  0  0  0  0
   11.3054  -18.3595   24.5453 C   0  0  0  0  0  0  0  0  0  0  0  0
   10.7622  -19.7358   24.5349 C   0  0  0  0  0  0  0  0  0  0  0  0
   10.7983  -20.4345   23.4969 O   0  0  0  0  0  0  0  0  0  0  0  0
   12.0087  -15.7928   23.1550 C   0  0  0  0  0  0  0  0  0  0  0  0
   12.0747  -15.4751   21.9497 O   0  0  0  0  0  0  0  0  0  0  0  0
   10.2017  -20.2830   25.6724 O   0  0  0  0  0  0  0  0  0  0  0  0
   13.1945  -15.9104   23.8509 O   0  0  0  0  0  0  0  0  0  0  0  0
  2  3  1  0
  2  1  1  6
  4  2  1  0
  5  4  2  0
  6  4  1  0
  7  6  1  0
  8 10  1  0
  8  7  1  0
  9  8  2  0
 11 16  1  0
 11 10  1  0
 11 12  1  6
 12 13  1  0
 13 14  1  0
 14 15  2  0
 14 18  1  0
 16 19  1  0
 17 16  2  0
M  END
$$$$
