AGE.pdb
     RDKit          3D

 19 18  0  0  1  0  0  0  0  0999 V2000
    8.1873  -12.0719   19.3049 C   0  0  0  0  0  0  0  0  0  0  0  0
    8.0108  -13.5661   19.1893 C   0  0  2  0  0  0  0  0  0  0  0  0
    6.8093  -13.9459   18.5082 N   0  0  0  0  0  0  0  0  0  0  0  0
    7.9701  -14.1212   20.5835 C   0  0  0  0  0  0  0  0  0  0  0  0
    6.9362  -13.9756   21.3025 O   0  0  0  0  0  0  0  0  0  0  0  0
    9.0585  -14.8163   21.1464 N   0  0  0  0  0  0  0  0  0  0  0  0
    8.9647  -15.3768   22.4614 C   0  0  0  0  0  0  0  0  0  0  0  0
   10.2036  -16.1656   22.7924 C   0  0  0  0  0  0  0  0  0  0  0  0
   10.7434  -16.9331   21.9422 O   0  0  0  0  0  0  0  0  0  0  0  0
   10.8172  -16.0855   24.0630 N   0  0  0  0  0  0  0  0  0  0  0  0
   11.9633  -16.9042   24.4572 C   0  0  1  0  0  0  0  0  0  0  0  0
   13.1096  -15.9667   24.6381 C   0  0  0  0  0  0  0  0  0  0  0  0
   14.4480  -16.6194   24.8185 C   0  0  0  0  0  0  0  0  0  0  0  0
   15.1955  -16.4878   23.5483 C   0  0  0  0  0  0  0  0  0  0  0  0
   16.4192  -16.2240   23.5455 O   0  0  0  0  0  0  0  0  0  0  0  0
   11.6075  -17.6583   25.6658 C   0  0  0  0  0  0  0  0  0  0  0  0
   10.7205  -17.2292   26.4320 O   0  0  0  0  0  0  0  0  0  0  0  0
   14.5595  -16.6531   22.3336 O   0  0  0  0  0  0  0  0  0  0  0  0
   12.2224  -18.8470   26.0021 O   0  0  0  0  0  0  0  0  0  0  0  0
  2  3  1  0
  2  1  1  1
  4  2  1  0
  5  4  2  0
  6  4  1  0
  7  6  1  0
  8 10  1  0
  8  7  1  0
  9  8  2  0
 11 16  1  0
 11 10  1  0
 11 12  1  1
 12 13  1  0
 13 14  1  0
 14 15  2  0
 14 18  1  0
 16 19  1  0
 17 16  2  0
M  END
$$$$
