AGE.pdb
     RDKit          3D

 19 18  0  0  1  0  0  0  0  0999 V2000
    9.3463  -13.6220   18.6684 C   0  0  0  0  0  0  0  0  0  0  0  0
    7.9128  -13.8912   19.0555 C   0  0  2  0  0  0  0  0  0  0  0  0
    7.0176  -12.8333   18.6934 N   0  0  0  0  0  0  0  0  0  0  0  0
    7.8767  -14.0637   20.5463 C   0  0  0  0  0  0  0  0  0  0  0  0
    7.6313  -13.0752   21.3012 O   0  0  0  0  0  0  0  0  0  0  0  0
    8.1093  -15.3086   21.1634 N   0  0  0  0  0  0  0  0  0  0  0  0
    7.8946  -15.4771   22.5697 C   0  0  0  0  0  0  0  0  0  0  0  0
    9.2040  -15.4617   23.3127 C   0  0  0  0  0  0  0  0  0  0  0  0
   10.2977  -15.2345   22.7167 O   0  0  0  0  0  0  0  0  0  0  0  0
    9.2707  -15.7001   24.7041 N   0  0  0  0  0  0  0  0  0  0  0  0
   10.5190  -15.6792   25.4661 C   0  0  1  0  0  0  0  0  0  0  0  0
   10.1337  -15.6289   26.9065 C   0  0  0  0  0  0  0  0  0  0  0  0
   11.2781  -15.6404   27.8761 C   0  0  0  0  0  0  0  0  0  0  0  0
   10.7231  -15.4937   29.2399 C   0  0  0  0  0  0  0  0  0  0  0  0
    9.4870  -15.4408   29.4299 O   0  0  0  0  0  0  0  0  0  0  0  0
   11.3134  -16.8577   25.0976 C   0  0  0  0  0  0  0  0  0  0  0  0
   10.7440  -17.9033   24.7227 O   0  0  0  0  0  0  0  0  0  0  0  0
   11.5576  -15.4117   30.3373 O   0  0  0  0  0  0  0  0  0  0  0  0
   12.6924  -16.8637   25.1476 O   0  0  0  0  0  0  0  0  0  0  0  0
  2  3  1  0
  2  1  1  1
  4  2  1  0
  5  4  2  0
  6  4  1  0
  7  6  1  0
  8 10  1  0
  8  7  1  0
  9  8  2  0
 11 16  1  0
 11 10  1  0
 11 12  1  1
 12 13  1  0
 13 14  1  0
 14 15  2  0
 14 18  1  0
 16 19  1  0
 17 16  2  0
M  END
$$$$
