AGE.pdb
     RDKit          3D

 19 18  0  0  1  0  0  0  0  0999 V2000
    9.5781  -13.0090   18.4298 C   0  0  0  0  0  0  0  0  0  0  0  0
    8.3524  -13.6466   19.0367 C   0  0  2  0  0  0  0  0  0  0  0  0
    7.1720  -12.8455   18.9087 N   0  0  0  0  0  0  0  0  0  0  0  0
    8.6345  -13.8590   20.4958 C   0  0  0  0  0  0  0  0  0  0  0  0
    8.0645  -13.1404   21.3711 O   0  0  0  0  0  0  0  0  0  0  0  0
    9.5285  -14.8479   20.9511 N   0  0  0  0  0  0  0  0  0  0  0  0
    9.6851  -15.1005   22.3524 C   0  0  0  0  0  0  0  0  0  0  0  0
   10.7780  -16.1079   22.5919 C   0  0  0  0  0  0  0  0  0  0  0  0
   10.5753  -17.3488   22.4426 O   0  0  0  0  0  0  0  0  0  0  0  0
   12.0748  -15.7150   22.9934 N   0  0  0  0  0  0  0  0  0  0  0  0
   13.1213  -16.6623   23.3764 C   0  0  1  0  0  0  0  0  0  0  0  0
   14.4189  -15.9413   23.2270 C   0  0  0  0  0  0  0  0  0  0  0  0
   14.6861  -15.3804   21.8617 C   0  0  0  0  0  0  0  0  0  0  0  0
   16.0327  -14.7674   21.8751 C   0  0  0  0  0  0  0  0  0  0  0  0
   16.7203  -14.7462   22.9208 O   0  0  0  0  0  0  0  0  0  0  0  0
   12.8502  -17.1349   24.7398 C   0  0  0  0  0  0  0  0  0  0  0  0
   13.4995  -18.0913   25.2107 O   0  0  0  0  0  0  0  0  0  0  0  0
   16.5635  -14.2030   20.7318 O   0  0  0  0  0  0  0  0  0  0  0  0
   11.8885  -16.5578   25.5438 O   0  0  0  0  0  0  0  0  0  0  0  0
  2  3  1  0
  2  1  1  1
  4  2  1  0
  5  4  2  0
  6  4  1  0
  7  6  1  0
  8 10  1  0
  8  7  1  0
  9  8  2  0
 11 16  1  0
 11 10  1  0
 11 12  1  1
 12 13  1  0
 13 14  1  0
 14 15  2  0
 14 18  1  0
 16 19  1  0
 17 16  2  0
M  END
$$$$
