AGE.pdb
     RDKit          3D

 19 18  0  0  1  0  0  0  0  0999 V2000
    7.6245  -12.7592   19.0156 C   0  0  0  0  0  0  0  0  0  0  0  0
    7.7989  -14.1805   19.4918 C   0  0  2  0  0  0  0  0  0  0  0  0
    6.5830  -14.9375   19.4800 N   0  0  0  0  0  0  0  0  0  0  0  0
    8.3153  -14.1205   20.9001 C   0  0  0  0  0  0  0  0  0  0  0  0
    9.5219  -13.8056   21.1286 O   0  0  0  0  0  0  0  0  0  0  0  0
    7.4982  -14.4059   22.0117 N   0  0  0  0  0  0  0  0  0  0  0  0
    8.0031  -14.2612   23.3445 C   0  0  0  0  0  0  0  0  0  0  0  0
    8.6374  -15.5433   23.8145 C   0  0  0  0  0  0  0  0  0  0  0  0
    8.0300  -16.6507   23.7255 O   0  0  0  0  0  0  0  0  0  0  0  0
    9.9346  -15.5679   24.3747 N   0  0  0  0  0  0  0  0  0  0  0  0
   10.5648  -16.7811   24.8944 C   0  0  1  0  0  0  0  0  0  0  0  0
   12.0205  -16.6650   24.5888 C   0  0  0  0  0  0  0  0  0  0  0  0
   12.3652  -16.5997   23.1305 C   0  0  0  0  0  0  0  0  0  0  0  0
   13.8397  -16.5735   23.0101 C   0  0  0  0  0  0  0  0  0  0  0  0
   14.5478  -17.4335   23.5808 O   0  0  0  0  0  0  0  0  0  0  0  0
   10.2586  -16.8925   26.3261 C   0  0  0  0  0  0  0  0  0  0  0  0
    9.8119  -15.9069   26.9484 O   0  0  0  0  0  0  0  0  0  0  0  0
   14.4705  -15.5975   22.2638 O   0  0  0  0  0  0  0  0  0  0  0  0
   10.4459  -18.0631   27.0324 O   0  0  0  0  0  0  0  0  0  0  0  0
  2  3  1  0
  2  1  1  1
  4  2  1  0
  5  4  2  0
  6  4  1  0
  7  6  1  0
  8 10  1  0
  8  7  1  0
  9  8  2  0
 11 16  1  0
 11 10  1  0
 11 12  1  1
 12 13  1  0
 13 14  1  0
 14 15  2  0
 14 18  1  0
 16 19  1  0
 17 16  2  0
M  END
$$$$
