AGE.pdb
     RDKit          3D

 19 18  0  0  1  0  0  0  0  0999 V2000
    6.5817  -14.7976   21.7844 C   0  0  0  0  0  0  0  0  0  0  0  0
    7.3435  -15.9696   21.2160 C   0  0  2  0  0  0  0  0  0  0  0  0
    7.6798  -16.9587   22.1960 N   0  0  0  0  0  0  0  0  0  0  0  0
    8.6118  -15.4321   20.6193 C   0  0  0  0  0  0  0  0  0  0  0  0
    8.5716  -14.6577   19.6163 O   0  0  0  0  0  0  0  0  0  0  0  0
    9.8812  -15.7574   21.1365 N   0  0  0  0  0  0  0  0  0  0  0  0
   11.0648  -15.1588   20.5952 C   0  0  0  0  0  0  0  0  0  0  0  0
   12.2724  -15.5378   21.4104 C   0  0  0  0  0  0  0  0  0  0  0  0
   13.4184  -15.0669   21.1494 O   0  0  0  0  0  0  0  0  0  0  0  0
   12.1814  -16.4338   22.4996 N   0  0  0  0  0  0  0  0  0  0  0  0
   13.3177  -16.7853   23.3507 C   0  0  1  0  0  0  0  0  0  0  0  0
   12.7559  -17.5125   24.5261 C   0  0  0  0  0  0  0  0  0  0  0  0
   11.7934  -16.7256   25.3654 C   0  0  0  0  0  0  0  0  0  0  0  0
   11.2086  -17.6412   26.3698 C   0  0  0  0  0  0  0  0  0  0  0  0
   10.8961  -18.8148   26.0667 O   0  0  0  0  0  0  0  0  0  0  0  0
   14.2720  -17.5710   22.5583 C   0  0  0  0  0  0  0  0  0  0  0  0
   15.4135  -17.8047   23.0063 O   0  0  0  0  0  0  0  0  0  0  0  0
   10.9932  -17.2216   27.6679 O   0  0  0  0  0  0  0  0  0  0  0  0
   13.9588  -18.0748   21.3125 O   0  0  0  0  0  0  0  0  0  0  0  0
  2  3  1  0
  2  1  1  1
  4  2  1  0
  5  4  2  0
  6  4  1  0
  7  6  1  0
  8 10  1  0
  8  7  1  0
  9  8  2  0
 11 16  1  0
 11 10  1  0
 11 12  1  1
 12 13  1  0
 13 14  1  0
 14 15  2  0
 14 18  1  0
 16 19  1  0
 17 16  2  0
M  END
$$$$
