AGE.pdb
     RDKit          3D

 19 18  0  0  1  0  0  0  0  0999 V2000
    8.3709  -15.8115   15.2439 C   0  0  0  0  0  0  0  0  0  0  0  0
    7.8211  -14.5493   15.8618 C   0  0  2  0  0  0  0  0  0  0  0  0
    8.4579  -13.3583   15.3847 N   0  0  0  0  0  0  0  0  0  0  0  0
    8.0329  -14.6478   17.3447 C   0  0  0  0  0  0  0  0  0  0  0  0
    7.5263  -15.6053   18.0033 O   0  0  0  0  0  0  0  0  0  0  0  0
    8.7902  -13.6987   18.0592 N   0  0  0  0  0  0  0  0  0  0  0  0
    9.0682  -13.8862   19.4519 C   0  0  0  0  0  0  0  0  0  0  0  0
   10.3281  -14.6891   19.6389 C   0  0  0  0  0  0  0  0  0  0  0  0
   10.9887  -15.1195   18.6482 O   0  0  0  0  0  0  0  0  0  0  0  0
   10.8277  -14.9977   20.9243 N   0  0  0  0  0  0  0  0  0  0  0  0
   12.1100  -15.6634   21.1517 C   0  0  1  0  0  0  0  0  0  0  0  0
   13.1685  -14.6694   20.8090 C   0  0  0  0  0  0  0  0  0  0  0  0
   13.4285  -14.4910   19.3426 C   0  0  0  0  0  0  0  0  0  0  0  0
   14.8768  -14.2486   19.1614 C   0  0  0  0  0  0  0  0  0  0  0  0
   15.6568  -14.2459   20.1404 O   0  0  0  0  0  0  0  0  0  0  0  0
   12.1547  -16.1331   22.5421 C   0  0  0  0  0  0  0  0  0  0  0  0
   11.3516  -15.6774   23.3821 O   0  0  0  0  0  0  0  0  0  0  0  0
   15.4032  -14.0191   17.9053 O   0  0  0  0  0  0  0  0  0  0  0  0
   13.0642  -17.0768   22.9739 O   0  0  0  0  0  0  0  0  0  0  0  0
  2  3  1  0
  2  1  1  6
  4  2  1  0
  5  4  2  0
  6  4  1  0
  7  6  1  0
  8 10  1  0
  8  7  1  0
  9  8  2  0
 11 16  1  0
 11 10  1  0
 11 12  1  1
 12 13  1  0
 13 14  1  0
 14 15  2  0
 14 18  1  0
 16 19  1  0
 17 16  2  0
M  END
$$$$
