AGE.pdb
     RDKit          3D

 19 18  0  0  1  0  0  0  0  0999 V2000
    6.5713  -14.9181   19.2734 C   0  0  0  0  0  0  0  0  0  0  0  0
    7.4227  -13.7214   18.9266 C   0  0  2  0  0  0  0  0  0  0  0  0
    7.8238  -13.6878   17.5520 N   0  0  0  0  0  0  0  0  0  0  0  0
    8.6522  -13.7829   19.7858 C   0  0  0  0  0  0  0  0  0  0  0  0
    9.7881  -14.0004   19.2664 O   0  0  0  0  0  0  0  0  0  0  0  0
    8.6014  -13.6051   21.1824 N   0  0  0  0  0  0  0  0  0  0  0  0
    9.8037  -13.5983   21.9611 C   0  0  0  0  0  0  0  0  0  0  0  0
   10.2328  -15.0039   22.2883 C   0  0  0  0  0  0  0  0  0  0  0  0
    9.5658  -16.0055   21.8944 O   0  0  0  0  0  0  0  0  0  0  0  0
   11.3951  -15.2674   23.0479 N   0  0  0  0  0  0  0  0  0  0  0  0
   11.8691  -16.6169   23.3533 C   0  0  1  0  0  0  0  0  0  0  0  0
   13.3534  -16.5261   23.4734 C   0  0  0  0  0  0  0  0  0  0  0  0
   14.0771  -16.1673   22.2094 C   0  0  0  0  0  0  0  0  0  0  0  0
   15.5254  -16.1231   22.5090 C   0  0  0  0  0  0  0  0  0  0  0  0
   16.3753  -16.2986   21.6069 O   0  0  0  0  0  0  0  0  0  0  0  0
   11.1956  -17.0865   24.5706 C   0  0  0  0  0  0  0  0  0  0  0  0
   11.3952  -18.2458   24.9880 O   0  0  0  0  0  0  0  0  0  0  0  0
   15.9745  -15.8866   23.7934 O   0  0  0  0  0  0  0  0  0  0  0  0
   10.3320  -16.2875   25.2916 O   0  0  0  0  0  0  0  0  0  0  0  0
  2  3  1  0
  2  1  1  6
  4  2  1  0
  5  4  2  0
  6  4  1  0
  7  6  1  0
  8 10  1  0
  8  7  1  0
  9  8  2  0
 11 16  1  0
 11 10  1  0
 11 12  1  1
 12 13  1  0
 13 14  1  0
 14 15  2  0
 14 18  1  0
 16 19  1  0
 17 16  2  0
M  END
$$$$
