AGE.pdb
     RDKit          3D

 19 18  0  0  1  0  0  0  0  0999 V2000
    7.5396  -13.0623   18.3979 C   0  0  0  0  0  0  0  0  0  0  0  0
    7.0303  -14.0525   19.4164 C   0  0  2  0  0  0  0  0  0  0  0  0
    6.7002  -13.4545   20.6754 N   0  0  0  0  0  0  0  0  0  0  0  0
    8.1144  -15.0676   19.6348 C   0  0  0  0  0  0  0  0  0  0  0  0
    8.4463  -15.8626   18.7046 O   0  0  0  0  0  0  0  0  0  0  0  0
    8.8000  -15.1815   20.8602 N   0  0  0  0  0  0  0  0  0  0  0  0
    9.8244  -16.1676   21.0341 C   0  0  0  0  0  0  0  0  0  0  0  0
   10.4920  -16.0096   22.3743 C   0  0  0  0  0  0  0  0  0  0  0  0
   10.1985  -15.0515   23.1483 O   0  0  0  0  0  0  0  0  0  0  0  0
   11.4735  -16.9204   22.8266 N   0  0  0  0  0  0  0  0  0  0  0  0
   12.1608  -16.7917   24.1112 C   0  0  1  0  0  0  0  0  0  0  0  0
   12.3343  -18.1768   24.6379 C   0  0  0  0  0  0  0  0  0  0  0  0
   11.0696  -18.8643   25.0596 C   0  0  0  0  0  0  0  0  0  0  0  0
   11.4347  -20.1721   25.6477 C   0  0  0  0  0  0  0  0  0  0  0  0
   12.4399  -20.8007   25.2461 O   0  0  0  0  0  0  0  0  0  0  0  0
   13.4203  -16.0677   23.8989 C   0  0  0  0  0  0  0  0  0  0  0  0
   13.9161  -15.9974   22.7555 O   0  0  0  0  0  0  0  0  0  0  0  0
   10.6735  -20.7309   26.6555 O   0  0  0  0  0  0  0  0  0  0  0  0
   14.0977  -15.4467   24.9284 O   0  0  0  0  0  0  0  0  0  0  0  0
  2  3  1  0
  2  1  1  6
  4  2  1  0
  5  4  2  0
  6  4  1  0
  7  6  1  0
  8 10  1  0
  8  7  1  0
  9  8  2  0
 11 16  1  0
 11 10  1  0
 11 12  1  6
 12 13  1  0
 13 14  1  0
 14 15  2  0
 14 18  1  0
 16 19  1  0
 17 16  2  0
M  END
$$$$
