VGL.pdb
     RDKit          3D

 20 19  0  0  1  0  0  0  0  0999 V2000
   19.6798  -21.3320  -16.8740 C   0  0  0  0  0  0  0  0  0  0  0  0
   19.5365  -19.9187  -16.3663 C   0  0  1  0  0  0  0  0  0  0  0  0
   19.9126  -19.9260  -14.8950 C   0  0  0  0  0  0  0  0  0  0  0  0
   20.5186  -19.0398  -17.0935 C   0  0  2  0  0  0  0  0  0  0  0  0
   21.8765  -19.4597  -16.9571 N   0  0  0  0  0  0  0  0  0  0  0  0
   20.3561  -17.6513  -16.5315 C   0  0  0  0  0  0  0  0  0  0  0  0
   19.2692  -17.0284  -16.6494 O   0  0  0  0  0  0  0  0  0  0  0  0
   21.4137  -16.9952  -15.8520 N   0  0  0  0  0  0  0  0  0  0  0  0
   21.2376  -15.6741  -15.3554 C   0  0  0  0  0  0  0  0  0  0  0  0
   22.2795  -14.7256  -15.7822 C   0  0  0  0  0  0  0  0  0  0  0  0
   22.2060  -13.5350  -15.3903 O   0  0  0  0  0  0  0  0  0  0  0  0
   27.1020  -16.5952  -16.0599 C   0  0  0  0  0  0  0  0  0  0  0  0
   25.8811  -15.7329  -15.8614 C   0  0  1  0  0  0  0  0  0  0  0  0
   26.0512  -14.9218  -14.5753 C   0  0  0  0  0  0  0  0  0  0  0  0
   25.6963  -14.8563  -17.0434 C   0  0  0  0  0  0  0  0  0  0  0  0
   24.4031  -14.1287  -17.0276 C   0  0  2  0  0  0  0  0  0  0  0  0
   23.3644  -15.0887  -16.6151 N   0  0  0  0  0  0  0  0  0  0  0  0
   24.0569  -13.6039  -18.3509 C   0  0  0  0  0  0  0  0  0  0  0  0
   24.7623  -12.6936  -18.8508 O   0  0  0  0  0  0  0  0  0  0  0  0
   22.9931  -14.0485  -19.1009 O   0  0  0  0  0  0  0  0  0  0  0  0
  2  1  1  6
  3  2  1  0
  4  5  1  1
  4  2  1  0
  6  4  1  0
  6  7  2  0
  8  6  1  0
  9  8  1  0
  9 10  1  0
 10 17  1  0
 10 11  2  0
 13 15  1  0
 13 12  1  6
 14 13  1  0
 16 15  1  6
 16 18  1  0
 17 16  1  0
 18 20  1  0
 19 18  2  0
M  END
$$$$
