VGL.pdb
     RDKit          3D

 20 19  0  0  1  0  0  0  0  0999 V2000
   19.5284  -11.8533  -18.8113 C   0  0  0  0  0  0  0  0  0  0  0  0
   18.5711  -12.5883  -17.9063 C   0  0  1  0  0  0  0  0  0  0  0  0
   18.6853  -14.0672  -18.2322 C   0  0  0  0  0  0  0  0  0  0  0  0
   19.0048  -12.3914  -16.4783 C   0  0  2  0  0  0  0  0  0  0  0  0
   18.3280  -13.2390  -15.5498 N   0  0  0  0  0  0  0  0  0  0  0  0
   18.7367  -10.9480  -16.1393 C   0  0  0  0  0  0  0  0  0  0  0  0
   17.5598  -10.5112  -16.0528 O   0  0  0  0  0  0  0  0  0  0  0  0
   19.7921  -10.0302  -15.9057 N   0  0  0  0  0  0  0  0  0  0  0  0
   19.5149   -8.6456  -15.7358 C   0  0  0  0  0  0  0  0  0  0  0  0
   20.6957   -7.8300  -15.4076 C   0  0  0  0  0  0  0  0  0  0  0  0
   21.8117   -8.3979  -15.3138 O   0  0  0  0  0  0  0  0  0  0  0  0
   20.9860   -2.8912  -17.3719 C   0  0  0  0  0  0  0  0  0  0  0  0
   21.3239   -4.2859  -16.9092 C   0  0  1  0  0  0  0  0  0  0  0  0
   22.5230   -4.7968  -17.7105 C   0  0  0  0  0  0  0  0  0  0  0  0
   21.6029   -4.2707  -15.4526 C   0  0  0  0  0  0  0  0  0  0  0  0
   21.8333   -5.6258  -14.8933 C   0  0  2  0  0  0  0  0  0  0  0  0
   20.6371   -6.4327  -15.1914 N   0  0  0  0  0  0  0  0  0  0  0  0
   22.0247   -5.5907  -13.4413 C   0  0  0  0  0  0  0  0  0  0  0  0
   21.1271   -6.0534  -12.6953 O   0  0  0  0  0  0  0  0  0  0  0  0
   23.1424   -5.0783  -12.8246 O   0  0  0  0  0  0  0  0  0  0  0  0
  2  1  1  6
  3  2  1  0
  4  5  1  1
  4  2  1  0
  6  4  1  0
  6  7  2  0
  8  6  1  0
  9  8  1  0
  9 10  1  0
 10 17  1  0
 10 11  2  0
 13 15  1  0
 13 12  1  6
 14 13  1  0
 16 15  1  1
 16 18  1  0
 17 16  1  0
 18 20  1  0
 19 18  2  0
M  END
$$$$
