VGL.pdb
     RDKit          3D

 20 19  0  0  1  0  0  0  0  0999 V2000
   17.5718  -14.6478  -20.6652 C   0  0  0  0  0  0  0  0  0  0  0  0
   17.9614  -13.1985  -20.5115 C   0  0  1  0  0  0  0  0  0  0  0  0
   17.0241  -12.3829  -21.3848 C   0  0  0  0  0  0  0  0  0  0  0  0
   17.7416  -12.7859  -19.0807 C   0  0  2  0  0  0  0  0  0  0  0  0
   16.3917  -12.9354  -18.6401 N   0  0  0  0  0  0  0  0  0  0  0  0
   18.1534  -11.3401  -18.9787 C   0  0  0  0  0  0  0  0  0  0  0  0
   17.3275  -10.4152  -19.1919 O   0  0  0  0  0  0  0  0  0  0  0  0
   19.4789  -10.9662  -18.6407 N   0  0  0  0  0  0  0  0  0  0  0  0
   19.8567   -9.5951  -18.6275 C   0  0  0  0  0  0  0  0  0  0  0  0
   19.9726   -9.0144  -17.2797 C   0  0  0  0  0  0  0  0  0  0  0  0
   19.0004   -9.1227  -16.4925 O   0  0  0  0  0  0  0  0  0  0  0  0
   23.6783  -10.4331  -14.2081 C   0  0  0  0  0  0  0  0  0  0  0  0
   22.3402   -9.8680  -14.6130 C   0  0  1  0  0  0  0  0  0  0  0  0
   21.3217  -10.1686  -13.5115 C   0  0  0  0  0  0  0  0  0  0  0  0
   22.4712   -8.4110  -14.8573 C   0  0  0  0  0  0  0  0  0  0  0  0
   21.2510   -7.8122  -15.4529 C   0  0  2  0  0  0  0  0  0  0  0  0
   21.1287   -8.3375  -16.8239 N   0  0  0  0  0  0  0  0  0  0  0  0
   21.3366   -6.3511  -15.5170 C   0  0  0  0  0  0  0  0  0  0  0  0
   21.5382   -5.7990  -16.6264 O   0  0  0  0  0  0  0  0  0  0  0  0
   21.2069   -5.5240  -14.4256 O   0  0  0  0  0  0  0  0  0  0  0  0
  2  1  1  1
  3  2  1  0
  4  5  1  6
  4  2  1  0
  6  4  1  0
  6  7  2  0
  8  6  1  0
  9  8  1  0
  9 10  1  0
 10 17  1  0
 10 11  2  0
 13 15  1  0
 13 12  1  1
 14 13  1  0
 16 15  1  6
 16 18  1  0
 17 16  1  0
 18 20  1  0
 19 18  2  0
M  END
$$$$
