VGL.pdb
     RDKit          3D

 20 19  0  0  1  0  0  0  0  0999 V2000
   24.6183  -19.1007  -14.9493 C   0  0  0  0  0  0  0  0  0  0  0  0
   24.2284  -19.7651  -13.6522 C   0  0  1  0  0  0  0  0  0  0  0  0
   23.8369  -21.1961  -13.9766 C   0  0  0  0  0  0  0  0  0  0  0  0
   25.4304  -19.8051  -12.7468 C   0  0  2  0  0  0  0  0  0  0  0  0
   26.5431  -20.5090  -13.2992 N   0  0  0  0  0  0  0  0  0  0  0  0
   24.9888  -20.4722  -11.4700 C   0  0  0  0  0  0  0  0  0  0  0  0
   24.0084  -20.0323  -10.8154 O   0  0  0  0  0  0  0  0  0  0  0  0
   25.6555  -21.6143  -10.9582 N   0  0  0  0  0  0  0  0  0  0  0  0
   25.2615  -22.1775   -9.7131 C   0  0  0  0  0  0  0  0  0  0  0  0
   25.5827  -21.3417   -8.5445 C   0  0  0  0  0  0  0  0  0  0  0  0
   24.6890  -21.1391   -7.6861 O   0  0  0  0  0  0  0  0  0  0  0  0
   30.1382  -21.2746   -4.9580 C   0  0  0  0  0  0  0  0  0  0  0  0
   28.7776  -20.6893   -5.2406 C   0  0  1  0  0  0  0  0  0  0  0  0
   28.6715  -19.3272   -4.5519 C   0  0  0  0  0  0  0  0  0  0  0  0
   28.5797  -20.5807   -6.7064 C   0  0  0  0  0  0  0  0  0  0  0  0
   27.2260  -20.0959   -7.0732 C   0  0  2  0  0  0  0  0  0  0  0  0
   26.8526  -20.7524   -8.3383 N   0  0  0  0  0  0  0  0  0  0  0  0
   27.2026  -18.6449   -7.2738 C   0  0  0  0  0  0  0  0  0  0  0  0
   27.2279  -18.1893   -8.4434 O   0  0  0  0  0  0  0  0  0  0  0  0
   27.1515  -17.7273   -6.2503 O   0  0  0  0  0  0  0  0  0  0  0  0
  2  1  1  6
  3  2  1  0
  4  5  1  6
  4  2  1  0
  6  4  1  0
  6  7  2  0
  8  6  1  0
  9  8  1  0
  9 10  1  0
 10 17  1  0
 10 11  2  0
 13 15  1  0
 13 12  1  6
 14 13  1  0
 16 15  1  6
 16 18  1  0
 17 16  1  0
 18 20  1  0
 19 18  2  0
M  END
$$$$
