VGL.pdb
     RDKit          3D

 20 19  0  0  1  0  0  0  0  0999 V2000
   13.8726  -11.9694  -16.5860 C   0  0  0  0  0  0  0  0  0  0  0  0
   14.6814  -10.7208  -16.8364 C   0  0  1  0  0  0  0  0  0  0  0  0
   14.3342   -9.7293  -15.7397 C   0  0  0  0  0  0  0  0  0  0  0  0
   16.1436  -11.0570  -16.7142 C   0  0  2  0  0  0  0  0  0  0  0  0
   16.4857  -11.6964  -15.4843 N   0  0  0  0  0  0  0  0  0  0  0  0
   16.8984   -9.7591  -16.8407 C   0  0  0  0  0  0  0  0  0  0  0  0
   16.8253   -9.0672  -17.8890 O   0  0  0  0  0  0  0  0  0  0  0  0
   17.7159   -9.2687  -15.7908 N   0  0  0  0  0  0  0  0  0  0  0  0
   18.2592   -7.9560  -15.8576 C   0  0  0  0  0  0  0  0  0  0  0  0
   19.0293   -7.5607  -14.6668 C   0  0  0  0  0  0  0  0  0  0  0  0
   18.5067   -7.7121  -13.5351 O   0  0  0  0  0  0  0  0  0  0  0  0
   23.4206   -7.8114  -15.2519 C   0  0  0  0  0  0  0  0  0  0  0  0
   22.3829   -8.6142  -14.5089 C   0  0  1  0  0  0  0  0  0  0  0  0
   22.9530  -10.0013  -14.2060 C   0  0  0  0  0  0  0  0  0  0  0  0
   21.9953   -7.8970  -13.2699 C   0  0  0  0  0  0  0  0  0  0  0  0
   21.1306   -6.7194  -13.5294 C   0  0  2  0  0  0  0  0  0  0  0  0
   20.3339   -7.0165  -14.7326 N   0  0  0  0  0  0  0  0  0  0  0  0
   21.9180   -5.5089  -13.7761 C   0  0  0  0  0  0  0  0  0  0  0  0
   21.8397   -4.9468  -14.8960 O   0  0  0  0  0  0  0  0  0  0  0  0
   22.7526   -4.9312  -12.8478 O   0  0  0  0  0  0  0  0  0  0  0  0
  2  1  1  1
  3  2  1  0
  4  5  1  1
  4  2  1  0
  6  4  1  0
  6  7  2  0
  8  6  1  0
  9  8  1  0
  9 10  1  0
 10 17  1  0
 10 11  2  0
 13 15  1  0
 13 12  1  1
 14 13  1  0
 16 15  1  6
 16 18  1  0
 17 16  1  0
 18 20  1  0
 19 18  2  0
M  END
$$$$
