VGL.pdb
     RDKit          3D

 20 19  0  0  1  0  0  0  0  0999 V2000
   19.9081  -15.5576  -17.7183 C   0  0  0  0  0  0  0  0  0  0  0  0
   19.1392  -14.2613  -17.6531 C   0  0  1  0  0  0  0  0  0  0  0  0
   17.7824  -14.5073  -18.2894 C   0  0  0  0  0  0  0  0  0  0  0  0
   18.9173  -13.9006  -16.2086 C   0  0  2  0  0  0  0  0  0  0  0  0
   18.2925  -14.9344  -15.4473 N   0  0  0  0  0  0  0  0  0  0  0  0
   18.0525  -12.6668  -16.1981 C   0  0  0  0  0  0  0  0  0  0  0  0
   16.8112  -12.7479  -16.0092 O   0  0  0  0  0  0  0  0  0  0  0  0
   18.5988  -11.3737  -16.3992 N   0  0  0  0  0  0  0  0  0  0  0  0
   17.7665  -10.2230  -16.3225 C   0  0  0  0  0  0  0  0  0  0  0  0
   18.4856   -8.9474  -16.4737 C   0  0  0  0  0  0  0  0  0  0  0  0
   19.7314   -8.9739  -16.6286 O   0  0  0  0  0  0  0  0  0  0  0  0
   15.8775   -4.7420  -18.6939 C   0  0  0  0  0  0  0  0  0  0  0  0
   17.0040   -5.7031  -18.4096 C   0  0  1  0  0  0  0  0  0  0  0  0
   18.0457   -5.5892  -19.5244 C   0  0  0  0  0  0  0  0  0  0  0  0
   17.5877   -5.4029  -17.0796 C   0  0  0  0  0  0  0  0  0  0  0  0
   18.5723   -6.4209  -16.6366 C   0  0  2  0  0  0  0  0  0  0  0  0
   17.8419   -7.6873  -16.4534 N   0  0  0  0  0  0  0  0  0  0  0  0
   19.2004   -6.0543  -15.3648 C   0  0  0  0  0  0  0  0  0  0  0  0
   18.6838   -6.4510  -14.2915 O   0  0  0  0  0  0  0  0  0  0  0  0
   20.3410   -5.2924  -15.2613 O   0  0  0  0  0  0  0  0  0  0  0  0
  2  1  1  1
  3  2  1  0
  4  5  1  1
  4  2  1  0
  6  4  1  0
  6  7  2  0
  8  6  1  0
  9  8  1  0
  9 10  1  0
 10 17  1  0
 10 11  2  0
 13 15  1  0
 13 12  1  6
 14 13  1  0
 16 15  1  1
 16 18  1  0
 17 16  1  0
 18 20  1  0
 19 18  2  0
M  END
$$$$
