VGL.pdb
     RDKit          3D

 20 19  0  0  1  0  0  0  0  0999 V2000
   16.4688  -12.7464  -16.5169 C   0  0  0  0  0  0  0  0  0  0  0  0
   17.2953  -14.0020  -16.6453 C   0  0  1  0  0  0  0  0  0  0  0  0
   16.3345  -15.1781  -16.6466 C   0  0  0  0  0  0  0  0  0  0  0  0
   18.0072  -13.9810  -17.9715 C   0  0  2  0  0  0  0  0  0  0  0  0
   18.5115  -15.2549  -18.3735 N   0  0  0  0  0  0  0  0  0  0  0  0
   19.1448  -13.0023  -17.8370 C   0  0  0  0  0  0  0  0  0  0  0  0
   20.2688  -13.3711  -17.4084 O   0  0  0  0  0  0  0  0  0  0  0  0
   18.9957  -11.6358  -18.1855 N   0  0  0  0  0  0  0  0  0  0  0  0
   20.1059  -10.7501  -18.1088 C   0  0  0  0  0  0  0  0  0  0  0  0
   20.4034  -10.2725  -16.7484 C   0  0  0  0  0  0  0  0  0  0  0  0
   19.5564  -10.4704  -15.8428 O   0  0  0  0  0  0  0  0  0  0  0  0
   25.3118  -10.8618  -14.9706 C   0  0  0  0  0  0  0  0  0  0  0  0
   23.8093  -10.7798  -15.0681 C   0  0  1  0  0  0  0  0  0  0  0  0
   23.1936  -11.7457  -14.0538 C   0  0  0  0  0  0  0  0  0  0  0  0
   23.3730   -9.3823  -14.8308 C   0  0  0  0  0  0  0  0  0  0  0  0
   21.9148   -9.1901  -15.0275 C   0  0  2  0  0  0  0  0  0  0  0  0
   21.6004   -9.5989  -16.4077 N   0  0  0  0  0  0  0  0  0  0  0  0
   21.5212   -7.7898  -14.8527 C   0  0  0  0  0  0  0  0  0  0  0  0
   21.5100   -7.2980  -13.6976 O   0  0  0  0  0  0  0  0  0  0  0  0
   21.1578   -6.9578  -15.8860 O   0  0  0  0  0  0  0  0  0  0  0  0
  2  1  1  6
  3  2  1  0
  4  5  1  1
  4  2  1  0
  6  4  1  0
  6  7  2  0
  8  6  1  0
  9  8  1  0
  9 10  1  0
 10 17  1  0
 10 11  2  0
 13 15  1  0
 13 12  1  1
 14 13  1  0
 16 15  1  6
 16 18  1  0
 17 16  1  0
 18 20  1  0
 19 18  2  0
M  END
$$$$
