VGL.pdb
     RDKit          3D

 20 19  0  0  1  0  0  0  0  0999 V2000
   17.0738  -15.8782  -16.6314 C   0  0  0  0  0  0  0  0  0  0  0  0
   17.0444  -14.3973  -16.9177 C   0  0  1  0  0  0  0  0  0  0  0  0
   17.4410  -13.6811  -15.6386 C   0  0  0  0  0  0  0  0  0  0  0  0
   18.0786  -14.0849  -17.9659 C   0  0  2  0  0  0  0  0  0  0  0  0
   19.3422  -14.7067  -17.7302 N   0  0  0  0  0  0  0  0  0  0  0  0
   18.2427  -12.5872  -17.9797 C   0  0  0  0  0  0  0  0  0  0  0  0
   17.2665  -11.8313  -18.2219 O   0  0  0  0  0  0  0  0  0  0  0  0
   19.4949  -11.9736  -17.7222 N   0  0  0  0  0  0  0  0  0  0  0  0
   19.6091  -10.5561  -17.7024 C   0  0  0  0  0  0  0  0  0  0  0  0
   20.0858  -10.0073  -16.4222 C   0  0  0  0  0  0  0  0  0  0  0  0
   19.4223  -10.2426  -15.3826 O   0  0  0  0  0  0  0  0  0  0  0  0
   25.2032  -10.4084  -15.4529 C   0  0  0  0  0  0  0  0  0  0  0  0
   23.7000  -10.3505  -15.3493 C   0  0  1  0  0  0  0  0  0  0  0  0
   23.2413  -11.3173  -14.2558 C   0  0  0  0  0  0  0  0  0  0  0  0
   23.2763   -8.9580  -15.0645 C   0  0  0  0  0  0  0  0  0  0  0  0
   21.8019   -8.8036  -14.9997 C   0  0  2  0  0  0  0  0  0  0  0  0
   21.2588   -9.2246  -16.3030 N   0  0  0  0  0  0  0  0  0  0  0  0
   21.4097   -7.4133  -14.7559 C   0  0  0  0  0  0  0  0  0  0  0  0
   21.0954   -6.6873  -15.7307 O   0  0  0  0  0  0  0  0  0  0  0  0
   21.3582   -6.8356  -13.5086 O   0  0  0  0  0  0  0  0  0  0  0  0
  2  1  1  1
  3  2  1  0
  4  5  1  1
  4  2  1  0
  6  4  1  0
  6  7  2  0
  8  6  1  0
  9  8  1  0
  9 10  1  0
 10 17  1  0
 10 11  2  0
 13 15  1  0
 13 12  1  1
 14 13  1  0
 16 15  1  6
 16 18  1  0
 17 16  1  0
 18 20  1  0
 19 18  2  0
M  END
$$$$
