VGL.pdb
     RDKit          3D

 20 19  0  0  1  0  0  0  0  0999 V2000
   22.7772  -23.4712  -15.0119 C   0  0  0  0  0  0  0  0  0  0  0  0
   21.5410  -23.4213  -15.8752 C   0  0  1  0  0  0  0  0  0  0  0  0
   20.7991  -24.7319  -15.6794 C   0  0  0  0  0  0  0  0  0  0  0  0
   20.6537  -22.3069  -15.3886 C   0  0  2  0  0  0  0  0  0  0  0  0
   19.3792  -22.2647  -16.0308 N   0  0  0  0  0  0  0  0  0  0  0  0
   21.3952  -21.0203  -15.6434 C   0  0  0  0  0  0  0  0  0  0  0  0
   21.6809  -20.6586  -16.8142 O   0  0  0  0  0  0  0  0  0  0  0  0
   21.7981  -20.1711  -14.5815 N   0  0  0  0  0  0  0  0  0  0  0  0
   22.5528  -18.9956  -14.8493 C   0  0  0  0  0  0  0  0  0  0  0  0
   23.8958  -18.9908  -14.2464 C   0  0  0  0  0  0  0  0  0  0  0  0
   24.1469  -18.1548  -13.3438 O   0  0  0  0  0  0  0  0  0  0  0  0
   25.2749  -22.0225  -11.0895 C   0  0  0  0  0  0  0  0  0  0  0  0
   25.2163  -20.8373  -12.0198 C   0  0  1  0  0  0  0  0  0  0  0  0
   25.3043  -19.5533  -11.1925 C   0  0  0  0  0  0  0  0  0  0  0  0
   26.3170  -20.9296  -13.0096 C   0  0  0  0  0  0  0  0  0  0  0  0
   26.2673  -19.8552  -14.0320 C   0  0  2  0  0  0  0  0  0  0  0  0
   24.9228  -19.8840  -14.6339 N   0  0  0  0  0  0  0  0  0  0  0  0
   27.2587  -20.0638  -15.0903 C   0  0  0  0  0  0  0  0  0  0  0  0
   26.8652  -20.2551  -16.2670 O   0  0  0  0  0  0  0  0  0  0  0  0
   28.6184  -20.0626  -14.8821 O   0  0  0  0  0  0  0  0  0  0  0  0
  2  1  1  1
  3  2  1  0
  4  5  1  6
  4  2  1  0
  6  4  1  0
  6  7  2  0
  8  6  1  0
  9  8  1  0
  9 10  1  0
 10 17  1  0
 10 11  2  0
 13 15  1  0
 13 12  1  1
 14 13  1  0
 16 15  1  1
 16 18  1  0
 17 16  1  0
 18 20  1  0
 19 18  2  0
M  END
$$$$
