VGL.pdb
     RDKit          3D

 20 19  0  0  1  0  0  0  0  0999 V2000
   25.6201  -26.5678  -18.6034 C   0  0  0  0  0  0  0  0  0  0  0  0
   26.9832  -26.9989  -18.1220 C   0  0  1  0  0  0  0  0  0  0  0  0
   27.8423  -27.2389  -19.3512 C   0  0  0  0  0  0  0  0  0  0  0  0
   27.5992  -25.8724  -17.3362 C   0  0  2  0  0  0  0  0  0  0  0  0
   28.9611  -26.1017  -16.9737 N   0  0  0  0  0  0  0  0  0  0  0  0
   26.7632  -25.7029  -16.0942 C   0  0  0  0  0  0  0  0  0  0  0  0
   26.9025  -26.4742  -15.1099 O   0  0  0  0  0  0  0  0  0  0  0  0
   25.7928  -24.6747  -15.9852 N   0  0  0  0  0  0  0  0  0  0  0  0
   25.0440  -24.5186  -14.7861 C   0  0  0  0  0  0  0  0  0  0  0  0
   23.5852  -24.5828  -14.9735 C   0  0  0  0  0  0  0  0  0  0  0  0
   23.1355  -24.7904  -16.1273 O   0  0  0  0  0  0  0  0  0  0  0  0
   20.4478  -26.9050  -11.2471 C   0  0  0  0  0  0  0  0  0  0  0  0
   21.0743  -26.4492  -12.5406 C   0  0  1  0  0  0  0  0  0  0  0  0
   20.6853  -27.4271  -13.6511 C   0  0  0  0  0  0  0  0  0  0  0  0
   20.6311  -25.0671  -12.8457 C   0  0  0  0  0  0  0  0  0  0  0  0
   21.2042  -24.5413  -14.1095 C   0  0  2  0  0  0  0  0  0  0  0  0
   22.6598  -24.4217  -13.9150 N   0  0  0  0  0  0  0  0  0  0  0  0
   20.6663  -23.2203  -14.4437 C   0  0  0  0  0  0  0  0  0  0  0  0
   21.3405  -22.1981  -14.1669 O   0  0  0  0  0  0  0  0  0  0  0  0
   19.4506  -23.0163  -15.0541 O   0  0  0  0  0  0  0  0  0  0  0  0
  2  1  1  6
  3  2  1  0
  4  5  1  1
  4  2  1  0
  6  4  1  0
  6  7  2  0
  8  6  1  0
  9  8  1  0
  9 10  1  0
 10 17  1  0
 10 11  2  0
 13 15  1  0
 13 12  1  1
 14 13  1  0
 16 15  1  1
 16 18  1  0
 17 16  1  0
 18 20  1  0
 19 18  2  0
M  END
$$$$
