WAF.pdb
     RDKit          3D

 31 33  0  0  1  0  0  0  0  0999 V2000
   27.2250  -21.7549  -10.5200 N   0  0  0  0  0  0  0  0  0  0  0  0
   26.3639  -21.2755   -9.5000 C   0  0  1  0  0  0  0  0  0  0  0  0
   26.7082  -19.9007   -9.0180 C   0  0  0  0  0  0  0  0  0  0  0  0
   27.9772  -19.9560   -8.2574 C   0  0  0  0  0  0  0  0  0  0  0  0
   29.2647  -19.9382   -8.8084 C   0  0  0  0  0  0  0  0  0  0  0  0
   30.1767  -19.9677   -7.8303 N   0  0  0  0  0  0  0  0  0  0  0  0
   29.5424  -20.0054   -6.6358 C   0  0  0  0  0  0  0  0  0  0  0  0
   30.0120  -20.0519   -5.3400 C   0  0  0  0  0  0  0  0  0  0  0  0
   29.1034  -20.0930   -4.3006 C   0  0  0  0  0  0  0  0  0  0  0  0
   27.7496  -20.0886   -4.5344 C   0  0  0  0  0  0  0  0  0  0  0  0
   27.2969  -20.0415   -5.8380 C   0  0  0  0  0  0  0  0  0  0  0  0
   28.1772  -19.9989   -6.8928 C   0  0  0  0  0  0  0  0  0  0  0  0
   24.9610  -21.2640  -10.0407 C   0  0  0  0  0  0  0  0  0  0  0  0
   24.7374  -21.1572  -11.2578 O   0  0  0  0  0  0  0  0  0  0  0  0
   21.5340  -21.7486   -8.4243 C   0  0  0  0  0  0  0  0  0  0  0  0
   22.5058  -21.4812   -9.5248 C   0  0  2  0  0  0  0  0  0  0  0  0
   23.8736  -21.3783   -9.1320 N   0  0  0  0  0  0  0  0  0  0  0  0
   22.0837  -20.3349  -10.3995 C   0  0  0  0  0  0  0  0  0  0  0  0
   22.3845  -19.1309  -10.1097 O   0  0  0  0  0  0  0  0  0  0  0  0
   21.3329  -20.5893  -11.5775 N   0  0  0  0  0  0  0  0  0  0  0  0
   20.9365  -19.5212  -12.4560 C   0  0  1  0  0  0  0  0  0  0  0  0
   21.3897  -19.7348  -13.8736 C   0  0  0  0  0  0  0  0  0  0  0  0
   22.8186  -19.7059  -14.1102 C   0  0  0  0  0  0  0  0  0  0  0  0
   23.5953  -20.8228  -13.9909 C   0  0  0  0  0  0  0  0  0  0  0  0
   24.9743  -20.7914  -14.2177 C   0  0  0  0  0  0  0  0  0  0  0  0
   25.5871  -19.6212  -14.5702 C   0  0  0  0  0  0  0  0  0  0  0  0
   24.8130  -18.4699  -14.6974 C   0  0  0  0  0  0  0  0  0  0  0  0
   23.4371  -18.5273  -14.4656 C   0  0  0  0  0  0  0  0  0  0  0  0
   19.4530  -19.3827  -12.5202 C   0  0  0  0  0  0  0  0  0  0  0  0
   18.7717  -20.3454  -12.0923 O   0  0  0  0  0  0  0  0  0  0  0  0
   18.7917  -18.2747  -13.0150 O   0  0  0  0  0  0  0  0  0  0  0  0
  2  1  1  6
  2 13  1  0
  2  3  1  0
  3  4  1  0
  4 12  1  0
  4  5  2  0
  5  6  1  0
  7  6  1  0
  7  8  2  0
  9  8  1  0
 10  9  2  0
 11 12  2  0
 11 10  1  0
 12  7  1  0
 13 14  2  0
 16 15  1  1
 16 18  1  0
 17 13  1  0
 17 16  1  0
 18 20  1  0
 18 19  2  0
 20 21  1  0
 21 29  1  0
 21 22  1  6
 23 24  2  0
 23 22  1  0
 25 24  1  0
 26 25  2  0
 27 28  2  0
 27 26  1  0
 28 23  1  0
 29 30  2  0
 29 31  1  0
M  END
$$$$
