WAF.pdb
     RDKit          3D

 31 33  0  0  1  0  0  0  0  0999 V2000
   22.1310  -21.1333  -13.4530 N   0  0  0  0  0  0  0  0  0  0  0  0
   21.5127  -20.4557  -12.3713 C   0  0  1  0  0  0  0  0  0  0  0  0
   20.0963  -20.0541  -12.6429 C   0  0  0  0  0  0  0  0  0  0  0  0
   20.0838  -18.9649  -13.6457 C   0  0  0  0  0  0  0  0  0  0  0  0
   20.2160  -19.1243  -15.0308 C   0  0  0  0  0  0  0  0  0  0  0  0
   20.1258  -17.9341  -15.6346 N   0  0  0  0  0  0  0  0  0  0  0  0
   19.9372  -16.9765  -14.6975 C   0  0  0  0  0  0  0  0  0  0  0  0
   19.7913  -15.6083  -14.7893 C   0  0  0  0  0  0  0  0  0  0  0  0
   19.6189  -14.8751  -13.6316 C   0  0  0  0  0  0  0  0  0  0  0  0
   19.5910  -15.4816  -12.3992 C   0  0  0  0  0  0  0  0  0  0  0  0
   19.7385  -16.8525  -12.3258 C   0  0  0  0  0  0  0  0  0  0  0  0
   19.9106  -17.6085  -13.4608 C   0  0  0  0  0  0  0  0  0  0  0  0
   21.5391  -21.3652  -11.1743 C   0  0  0  0  0  0  0  0  0  0  0  0
   21.2728  -22.5742  -11.2743 O   0  0  0  0  0  0  0  0  0  0  0  0
   22.4734  -20.8997   -7.5074 C   0  0  0  0  0  0  0  0  0  0  0  0
   21.8044  -21.5421   -8.6764 C   0  0  2  0  0  0  0  0  0  0  0  0
   21.8773  -20.8208   -9.9053 N   0  0  0  0  0  0  0  0  0  0  0  0
   20.4025  -21.9845   -8.3659 C   0  0  0  0  0  0  0  0  0  0  0  0
   19.4004  -21.2327   -8.5997 O   0  0  0  0  0  0  0  0  0  0  0  0
   20.1798  -23.2673   -7.7993 N   0  0  0  0  0  0  0  0  0  0  0  0
   18.8549  -23.7150   -7.4616 C   0  0  1  0  0  0  0  0  0  0  0  0
   18.3057  -24.7057   -8.4501 C   0  0  0  0  0  0  0  0  0  0  0  0
   18.0353  -24.2106   -9.7844 C   0  0  0  0  0  0  0  0  0  0  0  0
   16.8963  -23.5190  -10.0833 C   0  0  0  0  0  0  0  0  0  0  0  0
   16.6370  -23.0443  -11.3724 C   0  0  0  0  0  0  0  0  0  0  0  0
   17.5336  -23.2658  -12.3804 C   0  0  0  0  0  0  0  0  0  0  0  0
   18.7022  -23.9694  -12.0968 C   0  0  0  0  0  0  0  0  0  0  0  0
   18.9382  -24.4331  -10.8008 C   0  0  0  0  0  0  0  0  0  0  0  0
   18.8264  -24.4026   -6.1385 C   0  0  0  0  0  0  0  0  0  0  0  0
   19.9323  -24.7110   -5.6326 O   0  0  0  0  0  0  0  0  0  0  0  0
   17.6730  -24.7164   -5.4451 O   0  0  0  0  0  0  0  0  0  0  0  0
  2  1  1  6
  2 13  1  0
  2  3  1  0
  3  4  1  0
  4 12  1  0
  4  5  2  0
  5  6  1  0
  7  6  1  0
  7  8  2  0
  9  8  1  0
 10  9  2  0
 11 12  2  0
 11 10  1  0
 12  7  1  0
 13 14  2  0
 16 15  1  1
 16 18  1  0
 17 13  1  0
 17 16  1  0
 18 20  1  0
 18 19  2  0
 20 21  1  0
 21 29  1  0
 21 22  1  6
 23 24  2  0
 23 22  1  0
 25 24  1  0
 26 25  2  0
 27 28  2  0
 27 26  1  0
 28 23  1  0
 29 30  2  0
 29 31  1  0
M  END
$$$$
