WAF.pdb
     RDKit          3D

 31 33  0  0  1  0  0  0  0  0999 V2000
   26.7103  -19.7674  -12.0027 N   0  0  0  0  0  0  0  0  0  0  0  0
   27.3021  -20.2965  -10.8274 C   0  0  1  0  0  0  0  0  0  0  0  0
   26.3079  -20.7542   -9.8060 C   0  0  0  0  0  0  0  0  0  0  0  0
   26.4593  -19.9373   -8.5805 C   0  0  0  0  0  0  0  0  0  0  0  0
   25.9320  -18.6555   -8.3792 C   0  0  0  0  0  0  0  0  0  0  0  0
   26.2332  -18.2298   -7.1474 N   0  0  0  0  0  0  0  0  0  0  0  0
   26.9486  -19.1864   -6.5120 C   0  0  0  0  0  0  0  0  0  0  0  0
   27.5002  -19.2437   -5.2494 C   0  0  0  0  0  0  0  0  0  0  0  0
   28.2004  -20.3742   -4.8763 C   0  0  0  0  0  0  0  0  0  0  0  0
   28.3555  -21.4347   -5.7358 C   0  0  0  0  0  0  0  0  0  0  0  0
   27.7964  -21.3606   -6.9961 C   0  0  0  0  0  0  0  0  0  0  0  0
   27.0933  -20.2489   -7.3952 C   0  0  0  0  0  0  0  0  0  0  0  0
   28.1643  -21.4629  -11.2233 C   0  0  0  0  0  0  0  0  0  0  0  0
   27.6858  -22.5987  -11.3766 O   0  0  0  0  0  0  0  0  0  0  0  0
   31.9711  -21.7488  -11.2491 C   0  0  0  0  0  0  0  0  0  0  0  0
   30.5840  -21.9720  -10.7463 C   0  0  2  0  0  0  0  0  0  0  0  0
   29.5558  -21.2515  -11.4242 N   0  0  0  0  0  0  0  0  0  0  0  0
   30.4823  -21.8274   -9.2542 C   0  0  0  0  0  0  0  0  0  0  0  0
   30.7129  -20.7153   -8.6763 O   0  0  0  0  0  0  0  0  0  0  0  0
   30.1218  -22.9496   -8.4625 N   0  0  0  0  0  0  0  0  0  0  0  0
   30.4978  -23.0379   -7.0766 C   0  0  1  0  0  0  0  0  0  0  0  0
   29.5201  -22.3517   -6.1634 C   0  0  0  0  0  0  0  0  0  0  0  0
   29.6985  -20.9267   -5.9733 C   0  0  0  0  0  0  0  0  0  0  0  0
   30.8827  -20.3026   -6.2437 C   0  0  0  0  0  0  0  0  0  0  0  0
   31.0526  -18.9277   -6.0572 C   0  0  0  0  0  0  0  0  0  0  0  0
   30.0189  -18.1636   -5.5918 C   0  0  0  0  0  0  0  0  0  0  0  0
   28.8021  -18.7806   -5.3097 C   0  0  0  0  0  0  0  0  0  0  0  0
   28.6575  -20.1559   -5.5046 C   0  0  0  0  0  0  0  0  0  0  0  0
   30.5624  -24.4537   -6.6126 C   0  0  0  0  0  0  0  0  0  0  0  0
   30.3173  -25.3437   -7.4623 O   0  0  0  0  0  0  0  0  0  0  0  0
   30.8715  -24.8404   -5.3223 O   0  0  0  0  0  0  0  0  0  0  0  0
  2  1  1  6
  2 13  1  0
  2  3  1  0
  3  4  1  0
  4 12  1  0
  4  5  2  0
  5  6  1  0
  7  6  1  0
  7  8  2  0
  9  8  1  0
 10  9  2  0
 11 12  2  0
 11 10  1  0
 12  7  1  0
 13 14  2  0
 16 15  1  6
 16 18  1  0
 17 13  1  0
 17 16  1  0
 18 20  1  0
 18 19  2  0
 20 21  1  0
 21 29  1  0
 21 22  1  1
 23 24  2  0
 23 22  1  0
 25 24  1  0
 26 25  2  0
 27 28  2  0
 27 26  1  0
 28 23  1  0
 29 30  2  0
 29 31  1  0
M  END
$$$$
