WAF.pdb
     RDKit          3D

 31 33  0  0  1  0  0  0  0  0999 V2000
   25.2378  -18.7664  -14.1092 N   0  0  0  0  0  0  0  0  0  0  0  0
   26.4038  -19.1591  -13.4036 C   0  0  1  0  0  0  0  0  0  0  0  0
   27.6073  -18.3263  -13.7183 C   0  0  0  0  0  0  0  0  0  0  0  0
   27.8008  -18.2870  -15.1856 C   0  0  0  0  0  0  0  0  0  0  0  0
   28.0037  -19.3966  -16.0158 C   0  0  0  0  0  0  0  0  0  0  0  0
   28.1066  -18.9976  -17.2885 N   0  0  0  0  0  0  0  0  0  0  0  0
   27.9796  -17.6516  -17.3411 C   0  0  0  0  0  0  0  0  0  0  0  0
   28.0158  -16.7594  -18.3920 C   0  0  0  0  0  0  0  0  0  0  0  0
   27.8615  -15.4120  -18.1308 C   0  0  0  0  0  0  0  0  0  0  0  0
   27.6744  -14.9492  -16.8508 C   0  0  0  0  0  0  0  0  0  0  0  0
   27.6406  -15.8565  -15.8106 C   0  0  0  0  0  0  0  0  0  0  0  0
   27.7901  -17.2035  -16.0400 C   0  0  0  0  0  0  0  0  0  0  0  0
   26.1146  -19.0587  -11.9315 C   0  0  0  0  0  0  0  0  0  0  0  0
   26.4283  -18.0503  -11.2777 O   0  0  0  0  0  0  0  0  0  0  0  0
   24.3309  -21.2224   -9.3696 C   0  0  0  0  0  0  0  0  0  0  0  0
   25.4061  -20.3151   -9.8673 C   0  0  2  0  0  0  0  0  0  0  0  0
   25.4680  -20.1459  -11.2828 N   0  0  0  0  0  0  0  0  0  0  0  0
   26.7505  -20.6391   -9.2800 C   0  0  0  0  0  0  0  0  0  0  0  0
   27.6367  -21.2626   -9.9506 O   0  0  0  0  0  0  0  0  0  0  0  0
   27.0490  -20.2456   -7.9488 N   0  0  0  0  0  0  0  0  0  0  0  0
   27.7792  -21.1099   -7.0602 C   0  0  1  0  0  0  0  0  0  0  0  0
   29.0635  -20.4961   -6.5762 C   0  0  0  0  0  0  0  0  0  0  0  0
   29.0032  -19.7615   -5.3291 C   0  0  0  0  0  0  0  0  0  0  0  0
   29.4738  -20.2828   -4.1579 C   0  0  0  0  0  0  0  0  0  0  0  0
   29.4122  -19.5724   -2.9555 C   0  0  0  0  0  0  0  0  0  0  0  0
   28.8699  -18.3179   -2.9246 C   0  0  0  0  0  0  0  0  0  0  0  0
   28.3839  -17.7673   -4.1085 C   0  0  0  0  0  0  0  0  0  0  0  0
   28.4571  -18.4972   -5.2969 C   0  0  0  0  0  0  0  0  0  0  0  0
   26.9936  -21.4290   -5.8334 C   0  0  0  0  0  0  0  0  0  0  0  0
   25.9465  -20.7660   -5.6386 O   0  0  0  0  0  0  0  0  0  0  0  0
   27.3432  -22.3967   -4.9108 O   0  0  0  0  0  0  0  0  0  0  0  0
  2  1  1  6
  2 13  1  0
  2  3  1  0
  3  4  1  0
  4 12  1  0
  4  5  2  0
  5  6  1  0
  7  6  1  0
  7  8  2  0
  9  8  1  0
 10  9  2  0
 11 12  2  0
 11 10  1  0
 12  7  1  0
 13 14  2  0
 16 15  1  6
 16 18  1  0
 17 13  1  0
 17 16  1  0
 18 20  1  0
 18 19  2  0
 20 21  1  0
 21 29  1  0
 21 22  1  1
 23 24  2  0
 23 22  1  0
 25 24  1  0
 26 25  2  0
 27 28  2  0
 27 26  1  0
 28 23  1  0
 29 30  2  0
 29 31  1  0
M  END
$$$$
