WAF.pdb
     RDKit          3D

 31 33  0  0  1  0  0  0  0  0999 V2000
   21.2685  -19.8558  -15.9217 N   0  0  0  0  0  0  0  0  0  0  0  0
   22.4054  -19.1027  -16.3112 C   0  0  1  0  0  0  0  0  0  0  0  0
   22.5105  -17.7743  -15.6290 C   0  0  0  0  0  0  0  0  0  0  0  0
   21.3809  -16.9179  -16.0562 C   0  0  0  0  0  0  0  0  0  0  0  0
   20.2088  -16.6826  -15.3266 C   0  0  0  0  0  0  0  0  0  0  0  0
   19.4206  -15.8343  -15.9964 N   0  0  0  0  0  0  0  0  0  0  0  0
   20.0262  -15.4910  -17.1565 C   0  0  0  0  0  0  0  0  0  0  0  0
   19.6417  -14.6650  -18.1917 C   0  0  0  0  0  0  0  0  0  0  0  0
   20.4852  -14.5134  -19.2748 C   0  0  0  0  0  0  0  0  0  0  0  0
   21.6918  -15.1672  -19.3377 C   0  0  0  0  0  0  0  0  0  0  0  0
   22.0611  -15.9902  -18.2924 C   0  0  0  0  0  0  0  0  0  0  0  0
   21.2430  -16.1598  -17.2009 C   0  0  0  0  0  0  0  0  0  0  0  0
   23.6324  -19.9111  -15.9929 C   0  0  0  0  0  0  0  0  0  0  0  0
   23.7693  -20.4743  -14.8943 O   0  0  0  0  0  0  0  0  0  0  0  0
   26.7573  -20.8892  -17.9454 C   0  0  0  0  0  0  0  0  0  0  0  0
   25.9440  -20.5829  -16.7324 C   0  0  2  0  0  0  0  0  0  0  0  0
   24.6524  -20.0278  -16.9764 N   0  0  0  0  0  0  0  0  0  0  0  0
   26.7111  -19.7945  -15.7089 C   0  0  0  0  0  0  0  0  0  0  0  0
   26.7360  -18.5206  -15.7322 O   0  0  0  0  0  0  0  0  0  0  0  0
   27.4270  -20.4757  -14.6893 N   0  0  0  0  0  0  0  0  0  0  0  0
   28.1655  -19.7555  -13.6864 C   0  0  1  0  0  0  0  0  0  0  0  0
   27.2769  -18.9793  -12.7545 C   0  0  0  0  0  0  0  0  0  0  0  0
   26.3656  -19.7499  -11.9333 C   0  0  0  0  0  0  0  0  0  0  0  0
   26.6529  -20.0703  -10.6373 C   0  0  0  0  0  0  0  0  0  0  0  0
   25.7725  -20.8160   -9.8480 C   0  0  0  0  0  0  0  0  0  0  0  0
   24.5832  -21.2487  -10.3649 C   0  0  0  0  0  0  0  0  0  0  0  0
   24.2705  -20.9326  -11.6852 C   0  0  0  0  0  0  0  0  0  0  0  0
   25.1668  -20.1862  -12.4531 C   0  0  0  0  0  0  0  0  0  0  0  0
   28.9586  -20.6747  -12.8203 C   0  0  0  0  0  0  0  0  0  0  0  0
   29.7312  -20.1459  -11.9853 O   0  0  0  0  0  0  0  0  0  0  0  0
   28.8956  -22.0540  -12.8801 O   0  0  0  0  0  0  0  0  0  0  0  0
  2  1  1  1
  2 13  1  0
  2  3  1  0
  3  4  1  0
  4 12  1  0
  4  5  2  0
  5  6  1  0
  7  6  1  0
  7  8  2  0
  9  8  1  0
 10  9  2  0
 11 12  2  0
 11 10  1  0
 12  7  1  0
 13 14  2  0
 16 15  1  6
 16 18  1  0
 17 13  1  0
 17 16  1  0
 18 20  1  0
 18 19  2  0
 20 21  1  0
 21 29  1  0
 21 22  1  1
 23 24  2  0
 23 22  1  0
 25 24  1  0
 26 25  2  0
 27 28  2  0
 27 26  1  0
 28 23  1  0
 29 30  2  0
 29 31  1  0
M  END
$$$$
