WAF.pdb
     RDKit          3D

 31 33  0  0  1  0  0  0  0  0999 V2000
   24.3755  -20.6434  -17.8509 N   0  0  0  0  0  0  0  0  0  0  0  0
   25.1277  -19.7224  -17.0780 C   0  0  1  0  0  0  0  0  0  0  0  0
   24.3430  -18.5279  -16.6324 C   0  0  0  0  0  0  0  0  0  0  0  0
   23.9320  -17.7458  -17.8204 C   0  0  0  0  0  0  0  0  0  0  0  0
   22.6201  -17.5888  -18.2850 C   0  0  0  0  0  0  0  0  0  0  0  0
   22.6121  -16.7921  -19.3595 N   0  0  0  0  0  0  0  0  0  0  0  0
   23.8799  -16.4075  -19.6338 C   0  0  0  0  0  0  0  0  0  0  0  0
   24.4101  -15.6059  -20.6228 C   0  0  0  0  0  0  0  0  0  0  0  0
   25.7751  -15.3974  -20.6545 C   0  0  0  0  0  0  0  0  0  0  0  0
   26.6073  -15.9713  -19.7241 C   0  0  0  0  0  0  0  0  0  0  0  0
   26.0595  -16.7709  -18.7408 C   0  0  0  0  0  0  0  0  0  0  0  0
   24.7047  -16.9958  -18.6832 C   0  0  0  0  0  0  0  0  0  0  0  0
   25.6453  -20.4442  -15.8648 C   0  0  0  0  0  0  0  0  0  0  0  0
   24.8900  -21.1077  -15.1354 O   0  0  0  0  0  0  0  0  0  0  0  0
   29.1036  -20.9395  -14.3392 C   0  0  0  0  0  0  0  0  0  0  0  0
   27.6141  -20.8502  -14.3481 C   0  0  2  0  0  0  0  0  0  0  0  0
   27.0300  -20.3597  -15.5540 N   0  0  0  0  0  0  0  0  0  0  0  0
   27.0721  -20.1493  -13.1347 C   0  0  0  0  0  0  0  0  0  0  0  0
   26.9992  -18.8783  -13.0776 O   0  0  0  0  0  0  0  0  0  0  0  0
   26.6289  -20.9120  -12.0220 N   0  0  0  0  0  0  0  0  0  0  0  0
   26.2361  -20.2790  -10.7912 C   0  0  1  0  0  0  0  0  0  0  0  0
   24.9873  -19.4540  -10.9336 C   0  0  0  0  0  0  0  0  0  0  0  0
   23.8738  -20.0742  -11.6220 C   0  0  0  0  0  0  0  0  0  0  0  0
   23.5967  -19.8129  -12.9335 C   0  0  0  0  0  0  0  0  0  0  0  0
   22.5201  -20.4113  -13.5945 C   0  0  0  0  0  0  0  0  0  0  0  0
   21.7061  -21.2867  -12.9313 C   0  0  0  0  0  0  0  0  0  0  0  0
   21.9712  -21.5672  -11.5926 C   0  0  0  0  0  0  0  0  0  0  0  0
   23.0530  -20.9567  -10.9546 C   0  0  0  0  0  0  0  0  0  0  0  0
   25.9423  -21.2806   -9.7261 C   0  0  0  0  0  0  0  0  0  0  0  0
   25.5574  -20.8373   -8.6174 O   0  0  0  0  0  0  0  0  0  0  0  0
   26.0660  -22.6481   -9.8832 O   0  0  0  0  0  0  0  0  0  0  0  0
  2  1  1  1
  2 13  1  0
  2  3  1  0
  3  4  1  0
  4 12  1  0
  4  5  2  0
  5  6  1  0
  7  6  1  0
  7  8  2  0
  9  8  1  0
 10  9  2  0
 11 12  2  0
 11 10  1  0
 12  7  1  0
 13 14  2  0
 16 15  1  6
 16 18  1  0
 17 13  1  0
 17 16  1  0
 18 20  1  0
 18 19  2  0
 20 21  1  0
 21 29  1  0
 21 22  1  6
 23 24  2  0
 23 22  1  0
 25 24  1  0
 26 25  2  0
 27 28  2  0
 27 26  1  0
 28 23  1  0
 29 30  2  0
 29 31  1  0
M  END
$$$$
