WAF.pdb
     RDKit          3D

 31 33  0  0  1  0  0  0  0  0999 V2000
   27.2807  -21.2060  -15.6550 N   0  0  0  0  0  0  0  0  0  0  0  0
   27.1741  -20.5086  -14.4246 C   0  0  1  0  0  0  0  0  0  0  0  0
   26.5639  -19.1477  -14.5546 C   0  0  0  0  0  0  0  0  0  0  0  0
   27.4358  -18.3033  -15.4025 C   0  0  0  0  0  0  0  0  0  0  0  0
   28.4115  -18.7677  -16.2934 C   0  0  0  0  0  0  0  0  0  0  0  0
   28.9846  -17.7328  -16.9176 N   0  0  0  0  0  0  0  0  0  0  0  0
   28.4247  -16.5839  -16.4737 C   0  0  0  0  0  0  0  0  0  0  0  0
   28.6563  -15.2608  -16.7860 C   0  0  0  0  0  0  0  0  0  0  0  0
   27.9174  -14.2839  -16.1479 C   0  0  0  0  0  0  0  0  0  0  0  0
   26.9628  -14.6059  -15.2138 C   0  0  0  0  0  0  0  0  0  0  0  0
   26.7439  -15.9356  -14.9133 C   0  0  0  0  0  0  0  0  0  0  0  0
   27.4630  -16.9299  -15.5328 C   0  0  0  0  0  0  0  0  0  0  0  0
   26.3300  -21.3328  -13.4924 C   0  0  0  0  0  0  0  0  0  0  0  0
   25.4477  -22.0945  -13.9211 O   0  0  0  0  0  0  0  0  0  0  0  0
   25.9948  -21.2899   -9.6847 C   0  0  0  0  0  0  0  0  0  0  0  0
   25.5432  -21.4133  -11.1016 C   0  0  2  0  0  0  0  0  0  0  0  0
   26.5540  -21.2314  -12.0922 N   0  0  0  0  0  0  0  0  0  0  0  0
   24.3190  -20.5910  -11.3893 C   0  0  0  0  0  0  0  0  0  0  0  0
   24.3536  -19.3172  -11.3706 O   0  0  0  0  0  0  0  0  0  0  0  0
   23.0919  -21.2391  -11.6898 N   0  0  0  0  0  0  0  0  0  0  0  0
   21.8828  -20.4886  -11.9012 C   0  0  1  0  0  0  0  0  0  0  0  0
   21.9850  -19.5340  -13.0582 C   0  0  0  0  0  0  0  0  0  0  0  0
   22.3252  -20.1064  -14.3448 C   0  0  0  0  0  0  0  0  0  0  0  0
   23.4666  -19.7630  -15.0113 C   0  0  0  0  0  0  0  0  0  0  0  0
   23.7911  -20.3153  -16.2538 C   0  0  0  0  0  0  0  0  0  0  0  0
   22.9585  -21.2277  -16.8398 C   0  0  0  0  0  0  0  0  0  0  0  0
   21.7887  -21.5919  -16.1766 C   0  0  0  0  0  0  0  0  0  0  0  0
   21.4870  -21.0259  -14.9361 C   0  0  0  0  0  0  0  0  0  0  0  0
   20.7282  -21.3803  -12.2107 C   0  0  0  0  0  0  0  0  0  0  0  0
   19.5980  -20.8417  -12.2923 O   0  0  0  0  0  0  0  0  0  0  0  0
   20.8252  -22.7443  -12.4104 O   0  0  0  0  0  0  0  0  0  0  0  0
  2  1  1  6
  2 13  1  0
  2  3  1  0
  3  4  1  0
  4 12  1  0
  4  5  2  0
  5  6  1  0
  7  6  1  0
  7  8  2  0
  9  8  1  0
 10  9  2  0
 11 12  2  0
 11 10  1  0
 12  7  1  0
 13 14  2  0
 16 15  1  1
 16 18  1  0
 17 13  1  0
 17 16  1  0
 18 20  1  0
 18 19  2  0
 20 21  1  0
 21 29  1  0
 21 22  1  6
 23 24  2  0
 23 22  1  0
 25 24  1  0
 26 25  2  0
 27 28  2  0
 27 26  1  0
 28 23  1  0
 29 30  2  0
 29 31  1  0
M  END
$$$$
