WAF.pdb
     RDKit          3D

 31 33  0  0  1  0  0  0  0  0999 V2000
   22.9273  -21.2775  -11.3174 N   0  0  0  0  0  0  0  0  0  0  0  0
   24.2215  -20.8631  -11.7234 C   0  0  1  0  0  0  0  0  0  0  0  0
   24.2840  -19.4361  -12.1716 C   0  0  0  0  0  0  0  0  0  0  0  0
   23.4368  -19.2668  -13.3739 C   0  0  0  0  0  0  0  0  0  0  0  0
   22.2243  -18.5681  -13.4307 C   0  0  0  0  0  0  0  0  0  0  0  0
   21.7474  -18.5889  -14.6803 N   0  0  0  0  0  0  0  0  0  0  0  0
   22.6020  -19.2816  -15.4678 C   0  0  0  0  0  0  0  0  0  0  0  0
   22.5741  -19.5970  -16.8100 C   0  0  0  0  0  0  0  0  0  0  0  0
   23.6071  -20.3426  -17.3434 C   0  0  0  0  0  0  0  0  0  0  0  0
   24.6542  -20.7724  -16.5646 C   0  0  0  0  0  0  0  0  0  0  0  0
   24.6662  -20.4475  -15.2228 C   0  0  0  0  0  0  0  0  0  0  0  0
   23.6526  -19.7059  -14.6641 C   0  0  0  0  0  0  0  0  0  0  0  0
   25.1573  -21.0491  -10.5613 C   0  0  0  0  0  0  0  0  0  0  0  0
   24.7580  -20.9608   -9.3885 O   0  0  0  0  0  0  0  0  0  0  0  0
   28.6464  -22.4696  -10.2526 C   0  0  0  0  0  0  0  0  0  0  0  0
   27.4879  -21.6387   -9.8117 C   0  0  2  0  0  0  0  0  0  0  0  0
   26.5263  -21.3317  -10.8202 N   0  0  0  0  0  0  0  0  0  0  0  0
   27.9134  -20.4161   -9.0491 C   0  0  0  0  0  0  0  0  0  0  0  0
   27.5274  -19.2508   -9.3911 O   0  0  0  0  0  0  0  0  0  0  0  0
   28.7645  -20.5527   -7.9207 N   0  0  0  0  0  0  0  0  0  0  0  0
   29.2478  -19.4016   -7.2058 C   0  0  1  0  0  0  0  0  0  0  0  0
   28.1385  -18.5651   -6.6313 C   0  0  0  0  0  0  0  0  0  0  0  0
   27.4998  -19.0678   -5.4322 C   0  0  0  0  0  0  0  0  0  0  0  0
   27.7333  -18.5201   -4.2032 C   0  0  0  0  0  0  0  0  0  0  0  0
   27.1173  -19.0087   -3.0474 C   0  0  0  0  0  0  0  0  0  0  0  0
   26.2520  -20.0645   -3.1228 C   0  0  0  0  0  0  0  0  0  0  0  0
   25.9998  -20.6380   -4.3672 C   0  0  0  0  0  0  0  0  0  0  0  0
   26.6276  -20.1315   -5.5071 C   0  0  0  0  0  0  0  0  0  0  0  0
   30.1040  -19.7914   -6.0487 C   0  0  0  0  0  0  0  0  0  0  0  0
   30.5877  -18.8618   -5.3589 O   0  0  0  0  0  0  0  0  0  0  0  0
   30.3934  -21.0955   -5.6944 O   0  0  0  0  0  0  0  0  0  0  0  0
  2  1  1  1
  2 13  1  0
  2  3  1  0
  3  4  1  0
  4 12  1  0
  4  5  2  0
  5  6  1  0
  7  6  1  0
  7  8  2  0
  9  8  1  0
 10  9  2  0
 11 12  2  0
 11 10  1  0
 12  7  1  0
 13 14  2  0
 16 15  1  6
 16 18  1  0
 17 13  1  0
 17 16  1  0
 18 20  1  0
 18 19  2  0
 20 21  1  0
 21 29  1  0
 21 22  1  1
 23 24  2  0
 23 22  1  0
 25 24  1  0
 26 25  2  0
 27 28  2  0
 27 26  1  0
 28 23  1  0
 29 30  2  0
 29 31  1  0
M  END
$$$$
