WAF.pdb
     RDKit          3D

 31 33  0  0  1  0  0  0  0  0999 V2000
   26.2905  -19.5176  -11.9945 N   0  0  0  0  0  0  0  0  0  0  0  0
   26.1515  -20.9242  -11.8776 C   0  0  1  0  0  0  0  0  0  0  0  0
   25.6285  -21.3693  -10.5473 C   0  0  0  0  0  0  0  0  0  0  0  0
   26.4527  -20.7671   -9.4750 C   0  0  0  0  0  0  0  0  0  0  0  0
   25.9761  -19.9823   -8.4174 C   0  0  0  0  0  0  0  0  0  0  0  0
   26.9907  -19.6346   -7.6180 N   0  0  0  0  0  0  0  0  0  0  0  0
   28.1377  -20.1611   -8.1055 C   0  0  0  0  0  0  0  0  0  0  0  0
   29.4442  -20.0968   -7.6687 C   0  0  0  0  0  0  0  0  0  0  0  0
   30.4249  -20.7426   -8.3958 C   0  0  0  0  0  0  0  0  0  0  0  0
   30.1228  -21.4426   -9.5387 C   0  0  0  0  0  0  0  0  0  0  0  0
   28.8096  -21.4967   -9.9616 C   0  0  0  0  0  0  0  0  0  0  0  0
   27.8119  -20.8649   -9.2581 C   0  0  0  0  0  0  0  0  0  0  0  0
   25.2086  -21.3911  -12.9516 C   0  0  0  0  0  0  0  0  0  0  0  0
   24.2178  -20.7181  -13.2803 O   0  0  0  0  0  0  0  0  0  0  0  0
   25.2367  -24.3264  -15.3836 C   0  0  0  0  0  0  0  0  0  0  0  0
   24.6445  -23.1845  -14.6270 C   0  0  2  0  0  0  0  0  0  0  0  0
   25.4648  -22.6305  -13.5993 N   0  0  0  0  0  0  0  0  0  0  0  0
   23.2532  -23.4760  -14.1407 C   0  0  0  0  0  0  0  0  0  0  0  0
   23.0387  -23.9229  -12.9667 O   0  0  0  0  0  0  0  0  0  0  0  0
   22.1465  -23.2513  -15.0015 N   0  0  0  0  0  0  0  0  0  0  0  0
   20.7952  -23.4451  -14.5471 C   0  0  1  0  0  0  0  0  0  0  0  0
   20.1887  -22.1943  -13.9742 C   0  0  0  0  0  0  0  0  0  0  0  0
   20.4124  -20.9673  -14.7110 C   0  0  0  0  0  0  0  0  0  0  0  0
   21.4005  -20.0881  -14.3708 C   0  0  0  0  0  0  0  0  0  0  0  0
   21.6126  -18.9036  -15.0823 C   0  0  0  0  0  0  0  0  0  0  0  0
   20.8217  -18.5934  -16.1534 C   0  0  0  0  0  0  0  0  0  0  0  0
   19.8077  -19.4768  -16.5173 C   0  0  0  0  0  0  0  0  0  0  0  0
   19.6161  -20.6538  -15.7905 C   0  0  0  0  0  0  0  0  0  0  0  0
   19.8942  -23.8606  -15.6605 C   0  0  0  0  0  0  0  0  0  0  0  0
   20.3731  -23.8385  -16.8198 O   0  0  0  0  0  0  0  0  0  0  0  0
   18.5824  -24.2631  -15.4960 O   0  0  0  0  0  0  0  0  0  0  0  0
  2  1  1  1
  2 13  1  0
  2  3  1  0
  3  4  1  0
  4 12  1  0
  4  5  2  0
  5  6  1  0
  7  6  1  0
  7  8  2  0
  9  8  1  0
 10  9  2  0
 11 12  2  0
 11 10  1  0
 12  7  1  0
 13 14  2  0
 16 15  1  1
 16 18  1  0
 17 13  1  0
 17 16  1  0
 18 20  1  0
 18 19  2  0
 20 21  1  0
 21 29  1  0
 21 22  1  6
 23 24  2  0
 23 22  1  0
 25 24  1  0
 26 25  2  0
 27 28  2  0
 27 26  1  0
 28 23  1  0
 29 30  2  0
 29 31  1  0
M  END
$$$$
