WAF.pdb
     RDKit          3D

 31 33  0  0  1  0  0  0  0  0999 V2000
   23.3823  -16.2401  -16.8156 N   0  0  0  0  0  0  0  0  0  0  0  0
   23.9194  -17.4838  -16.3958 C   0  0  1  0  0  0  0  0  0  0  0  0
   24.7215  -17.3986  -15.1346 C   0  0  0  0  0  0  0  0  0  0  0  0
   25.9491  -16.6117  -15.3917 C   0  0  0  0  0  0  0  0  0  0  0  0
   26.1454  -15.2660  -15.0571 C   0  0  0  0  0  0  0  0  0  0  0  0
   27.3807  -14.8882  -15.4046 N   0  0  0  0  0  0  0  0  0  0  0  0
   28.0230  -15.9391  -15.9644 C   0  0  0  0  0  0  0  0  0  0  0  0
   29.2914  -16.0759  -16.4883 C   0  0  0  0  0  0  0  0  0  0  0  0
   29.6713  -17.2969  -17.0101 C   0  0  0  0  0  0  0  0  0  0  0  0
   28.8128  -18.3695  -17.0163 C   0  0  0  0  0  0  0  0  0  0  0  0
   27.5467  -18.2150  -16.4877 C   0  0  0  0  0  0  0  0  0  0  0  0
   27.1408  -17.0122  -15.9604 C   0  0  0  0  0  0  0  0  0  0  0  0
   22.7769  -18.4374  -16.1817 C   0  0  0  0  0  0  0  0  0  0  0  0
   21.8249  -18.1500  -15.4374 O   0  0  0  0  0  0  0  0  0  0  0  0
   21.6841  -21.6833  -17.8053 C   0  0  0  0  0  0  0  0  0  0  0  0
   21.8028  -20.7044  -16.6853 C   0  0  2  0  0  0  0  0  0  0  0  0
   22.7951  -19.6923  -16.8496 N   0  0  0  0  0  0  0  0  0  0  0  0
   21.8985  -21.3736  -15.3435 C   0  0  0  0  0  0  0  0  0  0  0  0
   22.9964  -21.8638  -14.9213 O   0  0  0  0  0  0  0  0  0  0  0  0
   20.7450  -21.4664  -14.5208 N   0  0  0  0  0  0  0  0  0  0  0  0
   20.7786  -22.1642  -13.2631 C   0  0  1  0  0  0  0  0  0  0  0  0
   21.2644  -21.3016  -12.1316 C   0  0  0  0  0  0  0  0  0  0  0  0
   20.5229  -20.0831  -11.8787 C   0  0  0  0  0  0  0  0  0  0  0  0
   19.4585  -20.0471  -11.0240 C   0  0  0  0  0  0  0  0  0  0  0  0
   18.7434  -18.8703  -10.7836 C   0  0  0  0  0  0  0  0  0  0  0  0
   19.0999  -17.7085  -11.4099 C   0  0  0  0  0  0  0  0  0  0  0  0
   20.1831  -17.7233  -12.2860 C   0  0  0  0  0  0  0  0  0  0  0  0
   20.8814  -18.9119  -12.5092 C   0  0  0  0  0  0  0  0  0  0  0  0
   19.4233  -22.6382  -12.8599 C   0  0  0  0  0  0  0  0  0  0  0  0
   19.3525  -23.3558  -11.8333 O   0  0  0  0  0  0  0  0  0  0  0  0
   18.2567  -22.3395  -13.5380 O   0  0  0  0  0  0  0  0  0  0  0  0
  2  1  1  1
  2 13  1  0
  2  3  1  0
  3  4  1  0
  4 12  1  0
  4  5  2  0
  5  6  1  0
  7  6  1  0
  7  8  2  0
  9  8  1  0
 10  9  2  0
 11 12  2  0
 11 10  1  0
 12  7  1  0
 13 14  2  0
 16 15  1  6
 16 18  1  0
 17 13  1  0
 17 16  1  0
 18 20  1  0
 18 19  2  0
 20 21  1  0
 21 29  1  0
 21 22  1  1
 23 24  2  0
 23 22  1  0
 25 24  1  0
 26 25  2  0
 27 28  2  0
 27 26  1  0
 28 23  1  0
 29 30  2  0
 29 31  1  0
M  END
$$$$
