WAF.pdb
     RDKit          3D

 31 33  0  0  1  0  0  0  0  0999 V2000
   18.0570  -10.0182  -19.8319 N   0  0  0  0  0  0  0  0  0  0  0  0
   19.1740   -9.2752  -19.3715 C   0  0  1  0  0  0  0  0  0  0  0  0
   19.8450   -8.4714  -20.4414 C   0  0  0  0  0  0  0  0  0  0  0  0
   20.4836   -9.3901  -21.4111 C   0  0  0  0  0  0  0  0  0  0  0  0
   19.9339   -9.8069  -22.6300 C   0  0  0  0  0  0  0  0  0  0  0  0
   20.7965  -10.6075  -23.2659 N   0  0  0  0  0  0  0  0  0  0  0  0
   21.9115  -10.7434  -22.5117 C   0  0  0  0  0  0  0  0  0  0  0  0
   23.0777  -11.4538  -22.7042 C   0  0  0  0  0  0  0  0  0  0  0  0
   24.0576  -11.4066  -21.7320 C   0  0  0  0  0  0  0  0  0  0  0  0
   23.8909  -10.6696  -20.5847 C   0  0  0  0  0  0  0  0  0  0  0  0
   22.7171   -9.9643  -20.4083 C   0  0  0  0  0  0  0  0  0  0  0  0
   21.7245   -9.9912  -21.3588 C   0  0  0  0  0  0  0  0  0  0  0  0
   18.7018   -8.3451  -18.2887 C   0  0  0  0  0  0  0  0  0  0  0  0
   17.7958   -7.5206  -18.4935 O   0  0  0  0  0  0  0  0  0  0  0  0
   19.4685   -8.0109  -14.5730 C   0  0  0  0  0  0  0  0  0  0  0  0
   18.9852   -7.5629  -15.9118 C   0  0  2  0  0  0  0  0  0  0  0  0
   19.3111   -8.4184  -17.0063 N   0  0  0  0  0  0  0  0  0  0  0  0
   19.3284   -6.1283  -16.1974 C   0  0  0  0  0  0  0  0  0  0  0  0
   20.5161   -5.7749  -16.4950 O   0  0  0  0  0  0  0  0  0  0  0  0
   18.3133   -5.1374  -16.1367 N   0  0  0  0  0  0  0  0  0  0  0  0
   18.5738   -3.7763  -16.5232 C   0  0  1  0  0  0  0  0  0  0  0  0
   17.8540   -3.3810  -17.7827 C   0  0  0  0  0  0  0  0  0  0  0  0
   18.3930   -3.8915  -19.0266 C   0  0  0  0  0  0  0  0  0  0  0  0
   19.5341   -3.3877  -19.5824 C   0  0  0  0  0  0  0  0  0  0  0  0
   20.0507   -3.8807  -20.7842 C   0  0  0  0  0  0  0  0  0  0  0  0
   19.4138   -4.8963  -21.4415 C   0  0  0  0  0  0  0  0  0  0  0  0
   18.2479   -5.4246  -20.8916 C   0  0  0  0  0  0  0  0  0  0  0  0
   17.7521   -4.9148  -19.6897 C   0  0  0  0  0  0  0  0  0  0  0  0
   18.1246   -2.8116  -15.4785 C   0  0  0  0  0  0  0  0  0  0  0  0
   17.4664   -3.2777  -14.5175 O   0  0  0  0  0  0  0  0  0  0  0  0
   18.3853   -1.4546  -15.5034 O   0  0  0  0  0  0  0  0  0  0  0  0
  2  1  1  6
  2 13  1  0
  2  3  1  0
  3  4  1  0
  4 12  1  0
  4  5  2  0
  5  6  1  0
  7  6  1  0
  7  8  2  0
  9  8  1  0
 10  9  2  0
 11 12  2  0
 11 10  1  0
 12  7  1  0
 13 14  2  0
 16 15  1  1
 16 18  1  0
 17 13  1  0
 17 16  1  0
 18 20  1  0
 18 19  2  0
 20 21  1  0
 21 29  1  0
 21 22  1  6
 23 24  2  0
 23 22  1  0
 25 24  1  0
 26 25  2  0
 27 28  2  0
 27 26  1  0
 28 23  1  0
 29 30  2  0
 29 31  1  0
M  END
$$$$
