IYL.pdb
     RDKit          3D

 29 29  0  0  1  0  0  0  0  0999 V2000
   29.0917  -18.0701  -17.4163 C   0  0  0  0  0  0  0  0  0  0  0  0
   28.3155  -19.1663  -16.7314 C   0  0  0  0  0  0  0  0  0  0  0  0
   27.5861  -18.6561  -15.4859 C   0  0  2  0  0  0  0  0  0  0  0  0
   28.5708  -18.1156  -14.4740 C   0  0  0  0  0  0  0  0  0  0  0  0
   26.7776  -19.8081  -14.9493 C   0  0  2  0  0  0  0  0  0  0  0  0
   26.0137  -20.3778  -16.0419 N   0  0  0  0  0  0  0  0  0  0  0  0
   25.9342  -19.4331  -13.8073 C   0  0  0  0  0  0  0  0  0  0  0  0
   25.0192  -18.5816  -13.9070 O   0  0  0  0  0  0  0  0  0  0  0  0
   23.6051  -25.2425  -14.0093 O   0  0  0  0  0  0  0  0  0  0  0  0
   23.6741  -23.9751  -13.4015 C   0  0  0  0  0  0  0  0  0  0  0  0
   24.8977  -23.3518  -13.2565 C   0  0  0  0  0  0  0  0  0  0  0  0
   24.9817  -22.1165  -12.6677 C   0  0  0  0  0  0  0  0  0  0  0  0
   23.8699  -21.4476  -12.1986 C   0  0  0  0  0  0  0  0  0  0  0  0
   23.9632  -20.1608  -11.5208 C   0  0  0  0  0  0  0  0  0  0  0  0
   25.3570  -19.6868  -11.3465 C   0  0  2  0  0  0  0  0  0  0  0  0
   26.1514  -20.0459  -12.5496 N   0  0  0  0  0  0  0  0  0  0  0  0
   26.0734  -20.2498  -10.2217 C   0  0  0  0  0  0  0  0  0  0  0  0
   26.4970  -21.4611  -10.3200 O   0  0  0  0  0  0  0  0  0  0  0  0
   22.6635  -22.0797  -12.3482 C   0  0  0  0  0  0  0  0  0  0  0  0
   22.5538  -23.3317  -12.9432 C   0  0  0  0  0  0  0  0  0  0  0  0
   29.6290  -20.8140   -6.0204 C   0  0  0  0  0  0  0  0  0  0  0  0
   28.2831  -20.1571   -5.7589 C   0  0  1  0  0  0  0  0  0  0  0  0
   28.5268  -19.1488   -4.6322 C   0  0  0  0  0  0  0  0  0  0  0  0
   27.7605  -19.4670   -6.9844 C   0  0  0  0  0  0  0  0  0  0  0  0
   26.9583  -20.3798   -7.8633 C   0  0  2  0  0  0  0  0  0  0  0  0
   26.3942  -19.6373   -8.9912 N   0  0  0  0  0  0  0  0  0  0  0  0
   25.9976  -21.1911   -7.1240 C   0  0  0  0  0  0  0  0  0  0  0  0
   24.6248  -21.0074   -7.2797 O   0  0  0  0  0  0  0  0  0  0  0  0
   26.3177  -22.0979   -6.3055 O   0  0  0  0  0  0  0  0  0  0  0  0
  2  1  1  0
  3  4  1  1
  3  2  1  0
  5  6  1  6
  5  3  1  0
  7  8  2  0
  7  5  1  0
  9 10  1  0
 10 20  2  0
 10 11  1  0
 11 12  2  0
 12 13  1  0
 13 14  1  0
 15 14  1  6
 15 16  1  0
 15 17  1  0
 16  7  1  0
 17 18  2  0
 19 13  2  0
 20 19  1  0
 22 21  1  6
 22 24  1  0
 23 22  1  0
 25 24  1  1
 25 27  1  0
 26 17  1  0
 26 25  1  0
 27 29  2  0
 27 28  1  0
M  END
$$$$
