IYL.pdb
     RDKit          3D

 29 29  0  0  1  0  0  0  0  0999 V2000
   20.8711  -20.3695  -21.2670 C   0  0  0  0  0  0  0  0  0  0  0  0
   20.5165  -21.1100  -20.0024 C   0  0  0  0  0  0  0  0  0  0  0  0
   21.0849  -20.4207  -18.7593 C   0  0  2  0  0  0  0  0  0  0  0  0
   22.5951  -20.3762  -18.8168 C   0  0  0  0  0  0  0  0  0  0  0  0
   20.5728  -21.1811  -17.5642 C   0  0  2  0  0  0  0  0  0  0  0  0
   19.1250  -21.2147  -17.6307 N   0  0  0  0  0  0  0  0  0  0  0  0
   21.0663  -20.6446  -16.2895 C   0  0  0  0  0  0  0  0  0  0  0  0
   20.6357  -19.5696  -15.8088 O   0  0  0  0  0  0  0  0  0  0  0  0
   25.4480  -20.5024   -8.5330 O   0  0  0  0  0  0  0  0  0  0  0  0
   24.7571  -20.8213   -9.7170 C   0  0  0  0  0  0  0  0  0  0  0  0
   23.4322  -20.4576   -9.8547 C   0  0  0  0  0  0  0  0  0  0  0  0
   22.7455  -20.7596  -11.0023 C   0  0  0  0  0  0  0  0  0  0  0  0
   23.3318  -21.4299  -12.0561 C   0  0  0  0  0  0  0  0  0  0  0  0
   22.5882  -21.8028  -13.2528 C   0  0  0  0  0  0  0  0  0  0  0  0
   22.6934  -20.8067  -14.3456 C   0  0  2  0  0  0  0  0  0  0  0  0
   22.0588  -21.3549  -15.5720 N   0  0  0  0  0  0  0  0  0  0  0  0
   24.0399  -20.4408  -14.7314 C   0  0  0  0  0  0  0  0  0  0  0  0
   24.7677  -21.3335  -15.3055 O   0  0  0  0  0  0  0  0  0  0  0  0
   24.6463  -21.7854  -11.9035 C   0  0  0  0  0  0  0  0  0  0  0  0
   25.3631  -21.4888  -10.7496 C   0  0  0  0  0  0  0  0  0  0  0  0
   29.3956  -20.1684  -13.4613 C   0  0  0  0  0  0  0  0  0  0  0  0
   28.4605  -19.4305  -14.4060 C   0  0  1  0  0  0  0  0  0  0  0  0
   28.7790  -19.9657  -15.8052 C   0  0  0  0  0  0  0  0  0  0  0  0
   27.0216  -19.6762  -14.0590 C   0  0  0  0  0  0  0  0  0  0  0  0
   26.0757  -18.9740  -14.9871 C   0  0  2  0  0  0  0  0  0  0  0  0
   24.6908  -19.1987  -14.5711 N   0  0  0  0  0  0  0  0  0  0  0  0
   26.3430  -19.2476  -16.3947 C   0  0  0  0  0  0  0  0  0  0  0  0
   26.7591  -20.5079  -16.8199 O   0  0  0  0  0  0  0  0  0  0  0  0
   26.2256  -18.3932  -17.3172 O   0  0  0  0  0  0  0  0  0  0  0  0
  2  1  1  0
  3  4  1  6
  3  2  1  0
  5  6  1  1
  5  3  1  0
  7  8  2  0
  7  5  1  0
  9 10  1  0
 10 20  2  0
 10 11  1  0
 11 12  2  0
 12 13  1  0
 13 14  1  0
 15 14  1  1
 15 16  1  0
 15 17  1  0
 16  7  1  0
 17 18  2  0
 19 13  2  0
 20 19  1  0
 22 21  1  1
 22 24  1  0
 23 22  1  0
 25 24  1  1
 25 27  1  0
 26 17  1  0
 26 25  1  0
 27 29  2  0
 27 28  1  0
M  END
$$$$
