IYL.pdb
     RDKit          3D

 29 29  0  0  1  0  0  0  0  0999 V2000
   15.9343  -16.1101  -19.7916 C   0  0  0  0  0  0  0  0  0  0  0  0
   16.5126  -15.3717  -18.6111 C   0  0  0  0  0  0  0  0  0  0  0  0
   17.0435  -13.9912  -19.0061 C   0  0  2  0  0  0  0  0  0  0  0  0
   18.1033  -14.1130  -20.0775 C   0  0  0  0  0  0  0  0  0  0  0  0
   17.5627  -13.3453  -17.7483 C   0  0  2  0  0  0  0  0  0  0  0  0
   16.5549  -13.4824  -16.7153 N   0  0  0  0  0  0  0  0  0  0  0  0
   17.9776  -11.9512  -17.9497 C   0  0  0  0  0  0  0  0  0  0  0  0
   18.8015  -11.6236  -18.8362 O   0  0  0  0  0  0  0  0  0  0  0  0
   13.4615   -8.6164  -21.9664 O   0  0  0  0  0  0  0  0  0  0  0  0
   14.2512   -8.6279  -20.8016 C   0  0  0  0  0  0  0  0  0  0  0  0
   13.9543   -9.5114  -19.7828 C   0  0  0  0  0  0  0  0  0  0  0  0
   14.7146   -9.5361  -18.6422 C   0  0  0  0  0  0  0  0  0  0  0  0
   15.7930   -8.6953  -18.4582 C   0  0  0  0  0  0  0  0  0  0  0  0
   16.5671   -8.6799  -17.2234 C   0  0  0  0  0  0  0  0  0  0  0  0
   17.7968   -9.5050  -17.2892 C   0  0  2  0  0  0  0  0  0  0  0  0
   17.4365  -10.9368  -17.1234 N   0  0  0  0  0  0  0  0  0  0  0  0
   18.7897   -9.2307  -16.2720 C   0  0  0  0  0  0  0  0  0  0  0  0
   18.8147   -9.9883  -15.2320 O   0  0  0  0  0  0  0  0  0  0  0  0
   16.0739   -7.8235  -19.4773 C   0  0  0  0  0  0  0  0  0  0  0  0
   15.3176   -7.7813  -20.6434 C   0  0  0  0  0  0  0  0  0  0  0  0
   21.8026   -9.5756  -12.5814 C   0  0  0  0  0  0  0  0  0  0  0  0
   22.4919   -9.4380  -13.9295 C   0  0  1  0  0  0  0  0  0  0  0  0
   23.4400  -10.6362  -14.0336 C   0  0  0  0  0  0  0  0  0  0  0  0
   21.5019   -9.4454  -15.0569 C   0  0  0  0  0  0  0  0  0  0  0  0
   20.7990   -8.1303  -15.2168 C   0  0  2  0  0  0  0  0  0  0  0  0
   19.7761   -8.2212  -16.2594 N   0  0  0  0  0  0  0  0  0  0  0  0
   21.7143   -7.0030  -15.3555 C   0  0  0  0  0  0  0  0  0  0  0  0
   22.4504   -6.5316  -14.2699 O   0  0  0  0  0  0  0  0  0  0  0  0
   21.9098   -6.3778  -16.4351 O   0  0  0  0  0  0  0  0  0  0  0  0
  2  1  1  0
  3  4  1  6
  3  2  1  0
  5  6  1  1
  5  3  1  0
  7  8  2  0
  7  5  1  0
  9 10  1  0
 10 20  2  0
 10 11  1  0
 11 12  2  0
 12 13  1  0
 13 14  1  0
 15 14  1  1
 15 16  1  0
 15 17  1  0
 16  7  1  0
 17 18  2  0
 19 13  2  0
 20 19  1  0
 22 21  1  1
 22 24  1  0
 23 22  1  0
 25 24  1  6
 25 27  1  0
 26 17  1  0
 26 25  1  0
 27 29  2  0
 27 28  1  0
M  END
$$$$
