IYL.pdb
     RDKit          3D

 29 29  0  0  1  0  0  0  0  0999 V2000
   26.3781  -20.5395  -17.2610 C   0  0  0  0  0  0  0  0  0  0  0  0
   26.3380  -19.5188  -16.1520 C   0  0  0  0  0  0  0  0  0  0  0  0
   26.0256  -20.1601  -14.7975 C   0  0  2  0  0  0  0  0  0  0  0  0
   24.9479  -19.3841  -14.0749 C   0  0  0  0  0  0  0  0  0  0  0  0
   27.3192  -20.2092  -14.0275 C   0  0  2  0  0  0  0  0  0  0  0  0
   28.2621  -21.0222  -14.7704 N   0  0  0  0  0  0  0  0  0  0  0  0
   27.1452  -20.6698  -12.6441 C   0  0  0  0  0  0  0  0  0  0  0  0
   26.9990  -21.8822  -12.3599 O   0  0  0  0  0  0  0  0  0  0  0  0
   27.6521  -20.7399   -3.8619 O   0  0  0  0  0  0  0  0  0  0  0  0
   27.6864  -20.3399   -5.2108 C   0  0  0  0  0  0  0  0  0  0  0  0
   26.5695  -19.7622   -5.7815 C   0  0  0  0  0  0  0  0  0  0  0  0
   26.5872  -19.3659   -7.0938 C   0  0  0  0  0  0  0  0  0  0  0  0
   27.6996  -19.5221   -7.8949 C   0  0  0  0  0  0  0  0  0  0  0  0
   27.7020  -19.1547   -9.3053 C   0  0  0  0  0  0  0  0  0  0  0  0
   26.9874  -20.1257  -10.1679 C   0  0  2  0  0  0  0  0  0  0  0  0
   27.1413  -19.7245  -11.5902 N   0  0  0  0  0  0  0  0  0  0  0  0
   25.5614  -20.2316   -9.9428 C   0  0  0  0  0  0  0  0  0  0  0  0
   24.8375  -19.1882  -10.1515 O   0  0  0  0  0  0  0  0  0  0  0  0
   28.7991  -20.0982   -7.3147 C   0  0  0  0  0  0  0  0  0  0  0  0
   28.8048  -20.5068   -5.9856 C   0  0  0  0  0  0  0  0  0  0  0  0
   21.9653  -22.6903  -12.5478 C   0  0  0  0  0  0  0  0  0  0  0  0
   22.6029  -21.6893  -11.5976 C   0  0  1  0  0  0  0  0  0  0  0  0
   21.7347  -20.4303  -11.6793 C   0  0  0  0  0  0  0  0  0  0  0  0
   22.6452  -22.2143  -10.1927 C   0  0  0  0  0  0  0  0  0  0  0  0
   23.3831  -21.3030   -9.2577 C   0  0  2  0  0  0  0  0  0  0  0  0
   24.8217  -21.3573   -9.5209 N   0  0  0  0  0  0  0  0  0  0  0  0
   23.0102  -21.4898   -7.8600 C   0  0  0  0  0  0  0  0  0  0  0  0
   21.7062  -21.2635   -7.4232 O   0  0  0  0  0  0  0  0  0  0  0  0
   23.8113  -21.8586   -6.9562 O   0  0  0  0  0  0  0  0  0  0  0  0
  2  1  1  0
  3  4  1  1
  3  2  1  0
  5  6  1  6
  5  3  1  0
  7  8  2  0
  7  5  1  0
  9 10  1  0
 10 20  2  0
 10 11  1  0
 11 12  2  0
 12 13  1  0
 13 14  1  0
 15 14  1  1
 15 16  1  0
 15 17  1  0
 16  7  1  0
 17 18  2  0
 19 13  2  0
 20 19  1  0
 22 21  1  6
 22 24  1  0
 23 22  1  0
 25 24  1  6
 25 27  1  0
 26 17  1  0
 26 25  1  0
 27 29  2  0
 27 28  1  0
M  END
$$$$
