IYL.pdb
     RDKit          3D

 29 29  0  0  1  0  0  0  0  0999 V2000
   25.5202  -16.9294  -20.9913 C   0  0  0  0  0  0  0  0  0  0  0  0
   26.5730  -17.5010  -20.0758 C   0  0  0  0  0  0  0  0  0  0  0  0
   25.9545  -18.2654  -18.9025 C   0  0  2  0  0  0  0  0  0  0  0  0
   25.0136  -17.3759  -18.1219 C   0  0  0  0  0  0  0  0  0  0  0  0
   27.0957  -18.7787  -18.0640 C   0  0  2  0  0  0  0  0  0  0  0  0
   27.9888  -19.5331  -18.9213 N   0  0  0  0  0  0  0  0  0  0  0  0
   26.6477  -19.5507  -16.8980 C   0  0  0  0  0  0  0  0  0  0  0  0
   26.0917  -20.6685  -17.0138 O   0  0  0  0  0  0  0  0  0  0  0  0
   25.2901  -21.1430   -8.1911 O   0  0  0  0  0  0  0  0  0  0  0  0
   25.7431  -20.6839   -9.4420 C   0  0  0  0  0  0  0  0  0  0  0  0
   26.3702  -21.5598  -10.3058 C   0  0  0  0  0  0  0  0  0  0  0  0
   26.8161  -21.1286  -11.5284 C   0  0  0  0  0  0  0  0  0  0  0  0
   26.6645  -19.8232  -11.9487 C   0  0  0  0  0  0  0  0  0  0  0  0
   27.1887  -19.3491  -13.2233 C   0  0  0  0  0  0  0  0  0  0  0  0
   26.3395  -19.7151  -14.3819 C   0  0  2  0  0  0  0  0  0  0  0  0
   26.8451  -19.0267  -15.5976 N   0  0  0  0  0  0  0  0  0  0  0  0
   24.9435  -19.3474  -14.2755 C   0  0  0  0  0  0  0  0  0  0  0  0
   24.5973  -18.1702  -14.6637 O   0  0  0  0  0  0  0  0  0  0  0  0
   26.0418  -18.9660  -11.0798 C   0  0  0  0  0  0  0  0  0  0  0  0
   25.5804  -19.3809   -9.8355 C   0  0  0  0  0  0  0  0  0  0  0  0
   20.5887  -18.4859  -16.9256 C   0  0  0  0  0  0  0  0  0  0  0  0
   21.8533  -18.4031  -16.0857 C   0  0  1  0  0  0  0  0  0  0  0  0
   21.4999  -17.5104  -14.8925 C   0  0  0  0  0  0  0  0  0  0  0  0
   22.2948  -19.7596  -15.6209 C   0  0  0  0  0  0  0  0  0  0  0  0
   22.4721  -19.8309  -14.1334 C   0  0  2  0  0  0  0  0  0  0  0  0
   23.8661  -20.1245  -13.7985 N   0  0  0  0  0  0  0  0  0  0  0  0
   21.4923  -20.6906  -13.4788 C   0  0  0  0  0  0  0  0  0  0  0  0
   20.3333  -20.1643  -12.9111 O   0  0  0  0  0  0  0  0  0  0  0  0
   21.6080  -21.9436  -13.3728 O   0  0  0  0  0  0  0  0  0  0  0  0
  2  1  1  0
  3  4  1  1
  3  2  1  0
  5  6  1  6
  5  3  1  0
  7  8  2  0
  7  5  1  0
  9 10  1  0
 10 20  2  0
 10 11  1  0
 11 12  2  0
 12 13  1  0
 13 14  1  0
 15 14  1  1
 15 16  1  0
 15 17  1  0
 16  7  1  0
 17 18  2  0
 19 13  2  0
 20 19  1  0
 22 21  1  6
 22 24  1  0
 23 22  1  0
 25 24  1  6
 25 27  1  0
 26 17  1  0
 26 25  1  0
 27 29  2  0
 27 28  1  0
M  END
$$$$
