IYL.pdb
     RDKit          3D

 29 29  0  0  1  0  0  0  0  0999 V2000
   30.4881  -18.1172  -19.4128 C   0  0  0  0  0  0  0  0  0  0  0  0
   29.7574  -18.9682  -18.4053 C   0  0  0  0  0  0  0  0  0  0  0  0
   28.5663  -18.2285  -17.7909 C   0  0  2  0  0  0  0  0  0  0  0  0
   29.0117  -16.9274  -17.1626 C   0  0  0  0  0  0  0  0  0  0  0  0
   27.9346  -19.1661  -16.7955 C   0  0  2  0  0  0  0  0  0  0  0  0
   27.9252  -20.4987  -17.3661 N   0  0  0  0  0  0  0  0  0  0  0  0
   26.6013  -18.7286  -16.3629 C   0  0  0  0  0  0  0  0  0  0  0  0
   26.4083  -17.6101  -15.8303 O   0  0  0  0  0  0  0  0  0  0  0  0
   17.7348  -18.4652  -15.9192 O   0  0  0  0  0  0  0  0  0  0  0  0
   19.0898  -18.6838  -16.2303 C   0  0  0  0  0  0  0  0  0  0  0  0
   19.9173  -17.6062  -16.4770 C   0  0  0  0  0  0  0  0  0  0  0  0
   21.2399  -17.8021  -16.7801 C   0  0  0  0  0  0  0  0  0  0  0  0
   21.7995  -19.0611  -16.8535 C   0  0  0  0  0  0  0  0  0  0  0  0
   23.1907  -19.2746  -17.2319 C   0  0  0  0  0  0  0  0  0  0  0  0
   24.1268  -19.2300  -16.0833 C   0  0  2  0  0  0  0  0  0  0  0  0
   25.4917  -19.5881  -16.5485 N   0  0  0  0  0  0  0  0  0  0  0  0
   23.8307  -20.1420  -14.9989 C   0  0  0  0  0  0  0  0  0  0  0  0
   23.9581  -21.4037  -15.2184 O   0  0  0  0  0  0  0  0  0  0  0  0
   20.9654  -20.1200  -16.6078 C   0  0  0  0  0  0  0  0  0  0  0  0
   19.6212  -19.9455  -16.2974 C   0  0  0  0  0  0  0  0  0  0  0  0
   25.9830  -20.7299  -10.3455 C   0  0  0  0  0  0  0  0  0  0  0  0
   25.2278  -20.8673  -11.6578 C   0  0  1  0  0  0  0  0  0  0  0  0
   25.5938  -22.2510  -12.2029 C   0  0  0  0  0  0  0  0  0  0  0  0
   23.7458  -20.7524  -11.4544 C   0  0  0  0  0  0  0  0  0  0  0  0
   22.9766  -20.8613  -12.7372 C   0  0  2  0  0  0  0  0  0  0  0  0
   23.4159  -19.8363  -13.6848 N   0  0  0  0  0  0  0  0  0  0  0  0
   21.5334  -20.9306  -12.5375 C   0  0  0  0  0  0  0  0  0  0  0  0
   20.9095  -22.1243  -12.1793 O   0  0  0  0  0  0  0  0  0  0  0  0
   20.7520  -19.9474  -12.6696 O   0  0  0  0  0  0  0  0  0  0  0  0
  2  1  1  0
  3  4  1  1
  3  2  1  0
  5  6  1  6
  5  3  1  0
  7  8  2  0
  7  5  1  0
  9 10  1  0
 10 20  2  0
 10 11  1  0
 11 12  2  0
 12 13  1  0
 13 14  1  0
 15 14  1  6
 15 16  1  0
 15 17  1  0
 16  7  1  0
 17 18  2  0
 19 13  2  0
 20 19  1  0
 22 21  1  1
 22 24  1  0
 23 22  1  0
 25 24  1  1
 25 27  1  0
 26 17  1  0
 26 25  1  0
 27 29  2  0
 27 28  1  0
M  END
$$$$
