IYL.pdb
     RDKit          3D

 29 29  0  0  1  0  0  0  0  0999 V2000
   29.6298  -18.8474  -17.1451 C   0  0  0  0  0  0  0  0  0  0  0  0
   28.5423  -19.7852  -16.6856 C   0  0  0  0  0  0  0  0  0  0  0  0
   27.8846  -19.3047  -15.3895 C   0  0  2  0  0  0  0  0  0  0  0  0
   28.9237  -19.0808  -14.3143 C   0  0  0  0  0  0  0  0  0  0  0  0
   26.8662  -20.3450  -15.0033 C   0  0  2  0  0  0  0  0  0  0  0  0
   25.9994  -20.5799  -16.1414 N   0  0  0  0  0  0  0  0  0  0  0  0
   26.1193  -19.9924  -13.7892 C   0  0  0  0  0  0  0  0  0  0  0  0
   25.4728  -18.9225  -13.6928 O   0  0  0  0  0  0  0  0  0  0  0  0
   20.2078  -19.5562  -15.1792 O   0  0  0  0  0  0  0  0  0  0  0  0
   21.1749  -19.9890  -14.2530 C   0  0  0  0  0  0  0  0  0  0  0  0
   22.0012  -21.0485  -14.5716 C   0  0  0  0  0  0  0  0  0  0  0  0
   22.9492  -21.4814  -13.6808 C   0  0  0  0  0  0  0  0  0  0  0  0
   23.1213  -20.8926  -12.4451 C   0  0  0  0  0  0  0  0  0  0  0  0
   24.0889  -21.3876  -11.4740 C   0  0  0  0  0  0  0  0  0  0  0  0
   25.3488  -20.6069  -11.4479 C   0  0  2  0  0  0  0  0  0  0  0  0
   26.1217  -20.8810  -12.6869 N   0  0  0  0  0  0  0  0  0  0  0  0
   26.2469  -20.9046  -10.3522 C   0  0  0  0  0  0  0  0  0  0  0  0
   26.9333  -21.9915  -10.4117 O   0  0  0  0  0  0  0  0  0  0  0  0
   22.2929  -19.8437  -12.1430 C   0  0  0  0  0  0  0  0  0  0  0  0
   21.3253  -19.3867  -13.0309 C   0  0  0  0  0  0  0  0  0  0  0  0
   28.8241  -18.2475   -6.0627 C   0  0  0  0  0  0  0  0  0  0  0  0
   28.3734  -19.2700   -7.0936 C   0  0  1  0  0  0  0  0  0  0  0  0
   29.3512  -20.4421   -6.9690 C   0  0  0  0  0  0  0  0  0  0  0  0
   26.9661  -19.7239   -6.8394 C   0  0  0  0  0  0  0  0  0  0  0  0
   26.4918  -20.7273   -7.8481 C   0  0  2  0  0  0  0  0  0  0  0  0
   26.4943  -20.1430   -9.1899 N   0  0  0  0  0  0  0  0  0  0  0  0
   25.2433  -21.3783   -7.4675 C   0  0  0  0  0  0  0  0  0  0  0  0
   25.2127  -22.3635   -6.4821 O   0  0  0  0  0  0  0  0  0  0  0  0
   24.1210  -21.1145   -7.9828 O   0  0  0  0  0  0  0  0  0  0  0  0
  2  1  1  0
  3  4  1  1
  3  2  1  0
  5  6  1  6
  5  3  1  0
  7  8  2  0
  7  5  1  0
  9 10  1  0
 10 20  2  0
 10 11  1  0
 11 12  2  0
 12 13  1  0
 13 14  1  0
 15 14  1  1
 15 16  1  0
 15 17  1  0
 16  7  1  0
 17 18  2  0
 19 13  2  0
 20 19  1  0
 22 21  1  1
 22 24  1  0
 23 22  1  0
 25 24  1  1
 25 27  1  0
 26 17  1  0
 26 25  1  0
 27 29  2  0
 27 28  1  0
M  END
$$$$
