IYL.pdb
     RDKit          3D

 29 29  0  0  1  0  0  0  0  0999 V2000
   15.8724  -23.2089    3.8345 C   0  0  0  0  0  0  0  0  0  0  0  0
   15.6115  -21.8098    3.3369 C   0  0  0  0  0  0  0  0  0  0  0  0
   16.6740  -20.8227    3.8268 C   0  0  2  0  0  0  0  0  0  0  0  0
   16.6726  -20.7420    5.3366 C   0  0  0  0  0  0  0  0  0  0  0  0
   16.3745  -19.4979    3.1756 C   0  0  2  0  0  0  0  0  0  0  0  0
   16.3122  -19.6981    1.7412 N   0  0  0  0  0  0  0  0  0  0  0  0
   17.3238  -18.4445    3.5571 C   0  0  0  0  0  0  0  0  0  0  0  0
   18.4582  -18.3490    3.0318 O   0  0  0  0  0  0  0  0  0  0  0  0
   20.1152  -10.6005    6.4073 O   0  0  0  0  0  0  0  0  0  0  0  0
   19.3384  -11.7123    6.0321 C   0  0  0  0  0  0  0  0  0  0  0  0
   18.5798  -12.3683    6.9813 C   0  0  0  0  0  0  0  0  0  0  0  0
   17.8166  -13.4522    6.6316 C   0  0  0  0  0  0  0  0  0  0  0  0
   17.7697  -13.9333    5.3394 C   0  0  0  0  0  0  0  0  0  0  0  0
   17.0047  -15.1197    4.9769 C   0  0  0  0  0  0  0  0  0  0  0  0
   17.8268  -16.3511    4.9052 C   0  0  2  0  0  0  0  0  0  0  0  0
   16.9573  -17.5015    4.5475 N   0  0  0  0  0  0  0  0  0  0  0  0
   18.4935  -16.7309    6.1328 C   0  0  0  0  0  0  0  0  0  0  0  0
   17.8250  -17.4086    6.9988 O   0  0  0  0  0  0  0  0  0  0  0  0
   18.5290  -13.2727    4.4095 C   0  0  0  0  0  0  0  0  0  0  0  0
   19.3096  -12.1708    4.7406 C   0  0  0  0  0  0  0  0  0  0  0  0
   22.5668  -18.7339    9.1758 C   0  0  0  0  0  0  0  0  0  0  0  0
   22.4601  -17.2181    9.1282 C   0  0  1  0  0  0  0  0  0  0  0  0
   23.8933  -16.6977    9.2716 C   0  0  0  0  0  0  0  0  0  0  0  0
   21.8521  -16.7496    7.8390 C   0  0  0  0  0  0  0  0  0  0  0  0
   20.3579  -16.8774    7.8252 C   0  0  2  0  0  0  0  0  0  0  0  0
   19.8218  -16.4633    6.5280 N   0  0  0  0  0  0  0  0  0  0  0  0
   19.7174  -16.2543    8.9781 C   0  0  0  0  0  0  0  0  0  0  0  0
   19.1220  -17.0223    9.9772 O   0  0  0  0  0  0  0  0  0  0  0  0
   19.6488  -15.0068    9.1620 O   0  0  0  0  0  0  0  0  0  0  0  0
  2  1  1  0
  3  4  1  1
  3  2  1  0
  5  6  1  6
  5  3  1  0
  7  8  2  0
  7  5  1  0
  9 10  1  0
 10 20  2  0
 10 11  1  0
 11 12  2  0
 12 13  1  0
 13 14  1  0
 15 14  1  1
 15 16  1  0
 15 17  1  0
 16  7  1  0
 17 18  2  0
 19 13  2  0
 20 19  1  0
 22 21  1  6
 22 24  1  0
 23 22  1  0
 25 24  1  6
 25 27  1  0
 26 17  1  0
 26 25  1  0
 27 29  2  0
 27 28  1  0
M  END
$$$$
