IYL.pdb
     RDKit          3D

 29 29  0  0  1  0  0  0  0  0999 V2000
   30.2634  -16.7315  -18.6467 C   0  0  0  0  0  0  0  0  0  0  0  0
   29.4594  -17.9913  -18.4472 C   0  0  0  0  0  0  0  0  0  0  0  0
   28.3753  -17.8132  -17.3812 C   0  0  2  0  0  0  0  0  0  0  0  0
   28.9914  -17.4594  -16.0466 C   0  0  0  0  0  0  0  0  0  0  0  0
   27.5914  -19.0986  -17.3348 C   0  0  2  0  0  0  0  0  0  0  0  0
   27.1064  -19.3860  -18.6704 N   0  0  0  0  0  0  0  0  0  0  0  0
   26.5147  -19.0772  -16.3365 C   0  0  0  0  0  0  0  0  0  0  0  0
   25.6426  -18.1765  -16.3177 O   0  0  0  0  0  0  0  0  0  0  0  0
   19.7765  -20.9405  -11.3944 O   0  0  0  0  0  0  0  0  0  0  0  0
   20.8843  -20.9592  -12.2621 C   0  0  0  0  0  0  0  0  0  0  0  0
   21.7622  -22.0245  -12.2275 C   0  0  0  0  0  0  0  0  0  0  0  0
   22.8455  -22.0583  -13.0672 C   0  0  0  0  0  0  0  0  0  0  0  0
   23.1084  -21.0492  -13.9705 C   0  0  0  0  0  0  0  0  0  0  0  0
   24.2903  -21.0552  -14.8233 C   0  0  0  0  0  0  0  0  0  0  0  0
   25.3669  -20.1562  -14.3437 C   0  0  2  0  0  0  0  0  0  0  0  0
   26.4490  -20.1006  -15.3604 N   0  0  0  0  0  0  0  0  0  0  0  0
   26.0098  -20.5528  -13.1089 C   0  0  0  0  0  0  0  0  0  0  0  0
   26.5337  -21.7269  -13.0503 O   0  0  0  0  0  0  0  0  0  0  0  0
   22.2292  -19.9984  -13.9917 C   0  0  0  0  0  0  0  0  0  0  0  0
   21.1233  -19.9430  -13.1505 C   0  0  0  0  0  0  0  0  0  0  0  0
   28.2872  -21.1338   -8.3183 C   0  0  0  0  0  0  0  0  0  0  0  0
   27.2272  -20.0441   -8.3005 C   0  0  1  0  0  0  0  0  0  0  0  0
   27.7471  -18.9768   -7.3331 C   0  0  0  0  0  0  0  0  0  0  0  0
   27.0132  -19.4624   -9.6669 C   0  0  0  0  0  0  0  0  0  0  0  0
   26.3829  -20.4367  -10.6170 C   0  0  2  0  0  0  0  0  0  0  0  0
   26.1584  -19.8079  -11.9192 N   0  0  0  0  0  0  0  0  0  0  0  0
   25.2189  -21.1142  -10.0568 C   0  0  0  0  0  0  0  0  0  0  0  0
   23.9449  -20.5564  -10.1470 O   0  0  0  0  0  0  0  0  0  0  0  0
   25.2655  -22.2263   -9.4605 O   0  0  0  0  0  0  0  0  0  0  0  0
  2  1  1  0
  3  4  1  1
  3  2  1  0
  5  6  1  6
  5  3  1  0
  7  8  2  0
  7  5  1  0
  9 10  1  0
 10 20  2  0
 10 11  1  0
 11 12  2  0
 12 13  1  0
 13 14  1  0
 15 14  1  6
 15 16  1  0
 15 17  1  0
 16  7  1  0
 17 18  2  0
 19 13  2  0
 20 19  1  0
 22 21  1  6
 22 24  1  0
 23 22  1  0
 25 24  1  1
 25 27  1  0
 26 17  1  0
 26 25  1  0
 27 29  2  0
 27 28  1  0
M  END
$$$$
