GQK.pdb
     RDKit          3D

 23 22  0  0  1  0  0  0  0  0999 V2000
    5.1594  -19.0995   21.2705 N   0  0  0  0  0  0  0  0  0  0  0  0
    4.8692  -18.5166   22.5417 C   0  0  0  0  0  0  0  0  0  0  0  0
    5.9750  -17.7011   23.0898 C   0  0  0  0  0  0  0  0  0  0  0  0
    7.1184  -17.8814   22.5867 O   0  0  0  0  0  0  0  0  0  0  0  0
    5.7262  -12.7523   26.9439 N   0  0  0  0  0  0  0  0  0  0  0  0
    7.0980  -12.8263   26.6482 C   0  0  0  0  0  0  0  0  0  0  0  0
    7.8849  -11.9164   26.9909 O   0  0  0  0  0  0  0  0  0  0  0  0
    7.6360  -14.0013   25.9158 C   0  0  0  0  0  0  0  0  0  0  0  0
    6.5220  -14.8976   25.4291 C   0  0  0  0  0  0  0  0  0  0  0  0
    7.0189  -16.0648   24.6191 C   0  0  2  0  0  0  0  0  0  0  0  0
    5.8585  -16.7497   24.1162 N   0  0  0  0  0  0  0  0  0  0  0  0
    7.8734  -16.9054   25.4872 C   0  0  0  0  0  0  0  0  0  0  0  0
    7.2115  -17.5504   26.3517 O   0  0  0  0  0  0  0  0  0  0  0  0
    9.2486  -17.0152   25.4143 N   0  0  0  0  0  0  0  0  0  0  0  0
   10.0191  -17.9921   26.1519 C   0  0  1  0  0  0  0  0  0  0  0  0
   11.2296  -18.2877   25.3077 C   0  0  0  0  0  0  0  0  0  0  0  0
   12.2352  -19.2113   25.9195 C   0  0  0  0  0  0  0  0  0  0  0  0
   13.3558  -19.3469   24.8915 C   0  0  0  0  0  0  0  0  0  0  0  0
   14.4735  -20.2118   25.4131 C   0  0  0  0  0  0  0  0  0  0  0  0
   15.5806  -20.1932   24.4742 N   0  0  0  0  0  0  0  0  0  0  0  0
   10.3772  -17.5297   27.5121 C   0  0  0  0  0  0  0  0  0  0  0  0
   10.6841  -18.2663   28.4699 O   0  0  0  0  0  0  0  0  0  0  0  0
   10.3930  -16.1518   27.8104 O   0  0  0  0  0  0  0  0  0  0  0  0
  2  1  1  0
  3 11  1  0
  3  2  1  0
  4  3  2  0
  6  5  1  0
  7  6  2  0
  8  6  1  0
 10  9  1  1
  9  8  1  0
 10 12  1  0
 10 11  1  0
 12 14  1  0
 13 12  2  0
 14 15  1  0
 15 21  1  0
 15 16  1  6
 16 17  1  0
 18 19  1  0
 18 17  1  0
 19 20  1  0
 21 23  1  0
 22 21  2  0
M  END
$$$$
