GQK.pdb
     RDKit          3D

 23 22  0  0  1  0  0  0  0  0999 V2000
    0.2967  -23.4092   18.8550 N   0  0  0  0  0  0  0  0  0  0  0  0
    0.9494  -22.1814   19.1812 C   0  0  0  0  0  0  0  0  0  0  0  0
    2.3921  -22.1685   18.8553 C   0  0  0  0  0  0  0  0  0  0  0  0
    3.0288  -23.2410   19.0488 O   0  0  0  0  0  0  0  0  0  0  0  0
    5.6284  -17.9470   15.5576 N   0  0  0  0  0  0  0  0  0  0  0  0
    6.6028  -18.9322   15.7916 C   0  0  0  0  0  0  0  0  0  0  0  0
    7.7333  -18.8648   15.2605 O   0  0  0  0  0  0  0  0  0  0  0  0
    6.2971  -20.0797   16.6839 C   0  0  0  0  0  0  0  0  0  0  0  0
    4.8766  -20.0118   17.1926 C   0  0  0  0  0  0  0  0  0  0  0  0
    4.5168  -21.1688   18.0855 C   0  0  2  0  0  0  0  0  0  0  0  0
    3.1070  -21.0694   18.3520 N   0  0  0  0  0  0  0  0  0  0  0  0
    5.3564  -21.0982   19.3022 C   0  0  0  0  0  0  0  0  0  0  0  0
    4.9847  -20.1920   20.1037 O   0  0  0  0  0  0  0  0  0  0  0  0
    6.4423  -21.9026   19.5894 N   0  0  0  0  0  0  0  0  0  0  0  0
    7.2194  -21.8033   20.8053 C   0  0  1  0  0  0  0  0  0  0  0  0
    8.1488  -22.9871   20.8003 C   0  0  0  0  0  0  0  0  0  0  0  0
    9.0193  -23.1313   22.0086 C   0  0  0  0  0  0  0  0  0  0  0  0
    9.8165  -24.4160   21.7967 C   0  0  0  0  0  0  0  0  0  0  0  0
   10.7136  -24.7021   22.9726 C   0  0  0  0  0  0  0  0  0  0  0  0
   11.3633  -25.9870   22.7865 N   0  0  0  0  0  0  0  0  0  0  0  0
    7.9429  -20.5165   20.9183 C   0  0  0  0  0  0  0  0  0  0  0  0
    8.1139  -19.8721   21.9717 O   0  0  0  0  0  0  0  0  0  0  0  0
    8.5110  -19.9205   19.7738 O   0  0  0  0  0  0  0  0  0  0  0  0
  2  1  1  0
  3 11  1  0
  3  2  1  0
  4  3  2  0
  6  5  1  0
  7  6  2  0
  8  6  1  0
 10  9  1  6
  9  8  1  0
 10 12  1  0
 10 11  1  0
 12 14  1  0
 13 12  2  0
 14 15  1  0
 15 21  1  0
 15 16  1  6
 16 17  1  0
 18 19  1  0
 18 17  1  0
 19 20  1  0
 21 23  1  0
 22 21  2  0
M  END
$$$$
