GQK.pdb
     RDKit          3D

 23 22  0  0  1  0  0  0  0  0999 V2000
   -7.6921  -24.8313   21.1882 N   0  0  0  0  0  0  0  0  0  0  0  0
   -8.5156  -24.7907   22.3544 C   0  0  0  0  0  0  0  0  0  0  0  0
   -7.7650  -24.9433   23.6198 C   0  0  0  0  0  0  0  0  0  0  0  0
   -7.3396  -26.0999   23.8930 O   0  0  0  0  0  0  0  0  0  0  0  0
   -4.6691  -20.6687   26.8580 N   0  0  0  0  0  0  0  0  0  0  0  0
   -4.5054  -21.7898   27.6893 C   0  0  0  0  0  0  0  0  0  0  0  0
   -3.8078  -21.7318   28.7259 O   0  0  0  0  0  0  0  0  0  0  0  0
   -5.1676  -23.0732   27.3417 C   0  0  0  0  0  0  0  0  0  0  0  0
   -5.9728  -22.9448   26.0703 C   0  0  0  0  0  0  0  0  0  0  0  0
   -6.7611  -24.1854   25.7467 C   0  0  2  0  0  0  0  0  0  0  0  0
   -7.4885  -23.9153   24.5357 N   0  0  0  0  0  0  0  0  0  0  0  0
   -7.6303  -24.5007   26.9023 C   0  0  0  0  0  0  0  0  0  0  0  0
   -8.6493  -23.7533   26.9690 O   0  0  0  0  0  0  0  0  0  0  0  0
   -7.4076  -25.4882   27.8425 N   0  0  0  0  0  0  0  0  0  0  0  0
   -8.2942  -25.7581   28.9530 C   0  0  1  0  0  0  0  0  0  0  0  0
   -7.8118  -27.0462   29.5641 C   0  0  0  0  0  0  0  0  0  0  0  0
   -8.6402  -27.5777   30.6910 C   0  0  0  0  0  0  0  0  0  0  0  0
   -8.0081  -28.9121   31.0793 C   0  0  0  0  0  0  0  0  0  0  0  0
   -8.7673  -29.5697   32.2020 C   0  0  0  0  0  0  0  0  0  0  0  0
   -8.2472  -30.9072   32.4220 N   0  0  0  0  0  0  0  0  0  0  0  0
   -8.3382  -24.6489   29.9326 C   0  0  0  0  0  0  0  0  0  0  0  0
   -7.3455  -24.0979   30.4476 O   0  0  0  0  0  0  0  0  0  0  0  0
   -9.5774  -24.1265   30.3560 O   0  0  0  0  0  0  0  0  0  0  0  0
  2  1  1  0
  3 11  1  0
  3  2  1  0
  4  3  2  0
  6  5  1  0
  7  6  2  0
  8  6  1  0
 10  9  1  1
  9  8  1  0
 10 12  1  0
 10 11  1  0
 12 14  1  0
 13 12  2  0
 14 15  1  0
 15 21  1  0
 15 16  1  1
 16 17  1  0
 18 19  1  0
 18 17  1  0
 19 20  1  0
 21 23  1  0
 22 21  2  0
M  END
$$$$
