GQK.pdb
     RDKit          3D

 23 22  0  0  1  0  0  0  0  0999 V2000
    7.6029  -16.0860   18.8398 N   0  0  0  0  0  0  0  0  0  0  0  0
    6.8255  -15.9426   20.0294 C   0  0  0  0  0  0  0  0  0  0  0  0
    7.5484  -15.2816   21.1378 C   0  0  0  0  0  0  0  0  0  0  0  0
    8.7662  -15.0133   20.9428 O   0  0  0  0  0  0  0  0  0  0  0  0
    5.4805  -13.1691   26.8765 N   0  0  0  0  0  0  0  0  0  0  0  0
    6.5559  -12.3694   26.4537 C   0  0  0  0  0  0  0  0  0  0  0  0
    6.7118  -11.2083   26.8922 O   0  0  0  0  0  0  0  0  0  0  0  0
    7.5323  -12.9009   25.4686 C   0  0  0  0  0  0  0  0  0  0  0  0
    6.8461  -13.7477   24.4229 C   0  0  0  0  0  0  0  0  0  0  0  0
    7.7953  -14.2802   23.3832 C   0  0  2  0  0  0  0  0  0  0  0  0
    6.9957  -14.9305   22.3802 N   0  0  0  0  0  0  0  0  0  0  0  0
    8.7592  -15.1837   24.0504 C   0  0  0  0  0  0  0  0  0  0  0  0
    8.3347  -16.3722   24.1441 O   0  0  0  0  0  0  0  0  0  0  0  0
   10.0008  -14.8292   24.5416 N   0  0  0  0  0  0  0  0  0  0  0  0
   10.9737  -15.7794   25.0345 C   0  0  1  0  0  0  0  0  0  0  0  0
   10.2711  -16.5754   26.1012 C   0  0  0  0  0  0  0  0  0  0  0  0
   11.0609  -17.6984   26.6961 C   0  0  0  0  0  0  0  0  0  0  0  0
   10.1798  -18.2922   27.7924 C   0  0  0  0  0  0  0  0  0  0  0  0
   10.8877  -19.4065   28.5181 C   0  0  0  0  0  0  0  0  0  0  0  0
    9.9696  -20.0420   29.4460 N   0  0  0  0  0  0  0  0  0  0  0  0
   11.5298  -16.6365   23.9629 C   0  0  0  0  0  0  0  0  0  0  0  0
   10.8624  -17.3339   23.1739 O   0  0  0  0  0  0  0  0  0  0  0  0
   12.9241  -16.7102   23.7668 O   0  0  0  0  0  0  0  0  0  0  0  0
  2  1  1  0
  3 11  1  0
  3  2  1  0
  4  3  2  0
  6  5  1  0
  7  6  2  0
  8  6  1  0
 10  9  1  1
  9  8  1  0
 10 12  1  0
 10 11  1  0
 12 14  1  0
 13 12  2  0
 14 15  1  0
 15 21  1  0
 15 16  1  1
 16 17  1  0
 18 19  1  0
 18 17  1  0
 19 20  1  0
 21 23  1  0
 22 21  2  0
M  END
$$$$
