GQK.pdb
     RDKit          3D

 23 22  0  0  1  0  0  0  0  0999 V2000
    7.4680  -22.5191   19.1163 N   0  0  0  0  0  0  0  0  0  0  0  0
    8.0993  -21.2984   19.5054 C   0  0  0  0  0  0  0  0  0  0  0  0
    9.5767  -21.3698   19.5203 C   0  0  0  0  0  0  0  0  0  0  0  0
   10.1060  -22.0062   20.4732 O   0  0  0  0  0  0  0  0  0  0  0  0
   15.0453  -22.5342   17.5904 N   0  0  0  0  0  0  0  0  0  0  0  0
   14.3579  -21.5605   16.8460 C   0  0  0  0  0  0  0  0  0  0  0  0
   14.0624  -21.7514   15.6456 O   0  0  0  0  0  0  0  0  0  0  0  0
   13.9696  -20.2768   17.4846 C   0  0  0  0  0  0  0  0  0  0  0  0
   12.4675  -20.1359   17.5567 C   0  0  0  0  0  0  0  0  0  0  0  0
   11.8609  -20.8971   18.7048 C   0  0  2  0  0  0  0  0  0  0  0  0
   10.4330  -20.7921   18.5688 N   0  0  0  0  0  0  0  0  0  0  0  0
   12.3794  -20.3272   19.9684 C   0  0  0  0  0  0  0  0  0  0  0  0
   11.9237  -19.1715   20.2096 O   0  0  0  0  0  0  0  0  0  0  0  0
   13.2673  -20.9382   20.8326 N   0  0  0  0  0  0  0  0  0  0  0  0
   13.7450  -20.3341   22.0570 C   0  0  1  0  0  0  0  0  0  0  0  0
   12.9938  -21.0099   23.1725 C   0  0  0  0  0  0  0  0  0  0  0  0
   13.4198  -20.6379   24.5577 C   0  0  0  0  0  0  0  0  0  0  0  0
   12.5653  -21.4847   25.4977 C   0  0  0  0  0  0  0  0  0  0  0  0
   12.9926  -21.3085   26.9315 C   0  0  0  0  0  0  0  0  0  0  0  0
   12.2041  -22.1799   27.7839 N   0  0  0  0  0  0  0  0  0  0  0  0
   15.2129  -20.4453   22.2149 C   0  0  0  0  0  0  0  0  0  0  0  0
   15.9299  -21.3334   21.7135 O   0  0  0  0  0  0  0  0  0  0  0  0
   15.9166  -19.4954   22.9834 O   0  0  0  0  0  0  0  0  0  0  0  0
  2  1  1  0
  3 11  1  0
  3  2  1  0
  4  3  2  0
  6  5  1  0
  7  6  2  0
  8  6  1  0
 10  9  1  6
  9  8  1  0
 10 12  1  0
 10 11  1  0
 12 14  1  0
 13 12  2  0
 14 15  1  0
 15 21  1  0
 15 16  1  1
 16 17  1  0
 18 19  1  0
 18 17  1  0
 19 20  1  0
 21 23  1  0
 22 21  2  0
M  END
$$$$
