GQK.pdb
     RDKit          3D

 23 22  0  0  1  0  0  0  0  0999 V2000
    4.3156  -19.1529   22.6248 N   0  0  0  0  0  0  0  0  0  0  0  0
    4.5304  -17.7449   22.5179 C   0  0  0  0  0  0  0  0  0  0  0  0
    5.8708  -17.3835   22.0073 C   0  0  0  0  0  0  0  0  0  0  0  0
    6.7046  -18.3230   21.8828 O   0  0  0  0  0  0  0  0  0  0  0  0
    6.8520  -12.5919   18.8357 N   0  0  0  0  0  0  0  0  0  0  0  0
    7.6564  -13.6071   18.2906 C   0  0  0  0  0  0  0  0  0  0  0  0
    7.9232  -13.6370   17.0689 O   0  0  0  0  0  0  0  0  0  0  0  0
    8.2059  -14.6701   19.1707 C   0  0  0  0  0  0  0  0  0  0  0  0
    7.7015  -14.5210   20.5865 C   0  0  0  0  0  0  0  0  0  0  0  0
    7.6674  -15.8246   21.3380 C   0  0  2  0  0  0  0  0  0  0  0  0
    6.2894  -16.0909   21.6521 N   0  0  0  0  0  0  0  0  0  0  0  0
    8.5336  -15.6981   22.5314 C   0  0  0  0  0  0  0  0  0  0  0  0
    8.0996  -14.8514   23.3659 O   0  0  0  0  0  0  0  0  0  0  0  0
    9.7018  -16.3971   22.7668 N   0  0  0  0  0  0  0  0  0  0  0  0
   10.5117  -16.2363   23.9543 C   0  0  1  0  0  0  0  0  0  0  0  0
   10.2923  -17.4779   24.7762 C   0  0  0  0  0  0  0  0  0  0  0  0
   11.0913  -17.5681   26.0380 C   0  0  0  0  0  0  0  0  0  0  0  0
   10.7989  -18.9497   26.6183 C   0  0  0  0  0  0  0  0  0  0  0  0
   11.5459  -19.1694   27.9079 C   0  0  0  0  0  0  0  0  0  0  0  0
   11.1582  -20.4451   28.4824 N   0  0  0  0  0  0  0  0  0  0  0  0
   11.9414  -16.0079   23.6450 C   0  0  0  0  0  0  0  0  0  0  0  0
   12.8358  -15.7786   24.4827 O   0  0  0  0  0  0  0  0  0  0  0  0
   12.3915  -16.0428   22.3093 O   0  0  0  0  0  0  0  0  0  0  0  0
  2  1  1  0
  3 11  1  0
  3  2  1  0
  4  3  2  0
  6  5  1  0
  7  6  2  0
  8  6  1  0
 10  9  1  1
  9  8  1  0
 10 12  1  0
 10 11  1  0
 12 14  1  0
 13 12  2  0
 14 15  1  0
 15 21  1  0
 15 16  1  1
 16 17  1  0
 18 19  1  0
 18 17  1  0
 19 20  1  0
 21 23  1  0
 22 21  2  0
M  END
$$$$
