GQK.pdb
     RDKit          3D

 23 22  0  0  1  0  0  0  0  0999 V2000
    3.3421  -19.2986   20.6433 N   0  0  0  0  0  0  0  0  0  0  0  0
    3.5144  -18.0430   21.3020 C   0  0  0  0  0  0  0  0  0  0  0  0
    4.9267  -17.7081   21.5866 C   0  0  0  0  0  0  0  0  0  0  0  0
    5.7096  -18.6755   21.7971 O   0  0  0  0  0  0  0  0  0  0  0  0
    7.9808  -12.4720   20.3982 N   0  0  0  0  0  0  0  0  0  0  0  0
    8.0139  -13.5871   19.5435 C   0  0  0  0  0  0  0  0  0  0  0  0
    8.3300  -13.4711   18.3388 O   0  0  0  0  0  0  0  0  0  0  0  0
    7.6692  -14.9334   20.0679 C   0  0  0  0  0  0  0  0  0  0  0  0
    7.2478  -14.8630   21.5166 C   0  0  0  0  0  0  0  0  0  0  0  0
    6.8208  -16.1963   22.0693 C   0  0  2  0  0  0  0  0  0  0  0  0
    5.4648  -16.4120   21.6415 N   0  0  0  0  0  0  0  0  0  0  0  0
    6.9802  -16.1645   23.5404 C   0  0  0  0  0  0  0  0  0  0  0  0
    5.8801  -16.0283   24.1509 O   0  0  0  0  0  0  0  0  0  0  0  0
    8.1719  -16.2646   24.2320 N   0  0  0  0  0  0  0  0  0  0  0  0
    8.3650  -17.1156   25.3856 C   0  0  1  0  0  0  0  0  0  0  0  0
    8.1097  -18.5208   24.9107 C   0  0  0  0  0  0  0  0  0  0  0  0
    7.1434  -19.3155   25.7313 C   0  0  0  0  0  0  0  0  0  0  0  0
    7.0510  -20.6826   25.0580 C   0  0  0  0  0  0  0  0  0  0  0  0
    6.2162  -21.6367   25.8717 C   0  0  0  0  0  0  0  0  0  0  0  0
    6.2238  -22.9457   25.2438 N   0  0  0  0  0  0  0  0  0  0  0  0
    9.7056  -16.9589   25.9941 C   0  0  0  0  0  0  0  0  0  0  0  0
   10.7834  -16.9122   25.3693 O   0  0  0  0  0  0  0  0  0  0  0  0
    9.8396  -16.8452   27.3931 O   0  0  0  0  0  0  0  0  0  0  0  0
  2  1  1  0
  3 11  1  0
  3  2  1  0
  4  3  2  0
  6  5  1  0
  7  6  2  0
  8  6  1  0
 10  9  1  6
  9  8  1  0
 10 12  1  0
 10 11  1  0
 12 14  1  0
 13 12  2  0
 14 15  1  0
 15 21  1  0
 15 16  1  6
 16 17  1  0
 18 19  1  0
 18 17  1  0
 19 20  1  0
 21 23  1  0
 22 21  2  0
M  END
$$$$
