GQK.pdb
     RDKit          3D

 23 22  0  0  1  0  0  0  0  0999 V2000
    5.4103  -19.9885   21.2155 N   0  0  0  0  0  0  0  0  0  0  0  0
    5.4503  -18.6538   21.7225 C   0  0  0  0  0  0  0  0  0  0  0  0
    6.7148  -17.9434   21.4318 C   0  0  0  0  0  0  0  0  0  0  0  0
    7.7467  -18.6554   21.2854 O   0  0  0  0  0  0  0  0  0  0  0  0
    8.1614  -12.0864   19.2633 N   0  0  0  0  0  0  0  0  0  0  0  0
    8.0509  -13.2425   18.4720 C   0  0  0  0  0  0  0  0  0  0  0  0
    7.7225  -13.1742   17.2670 O   0  0  0  0  0  0  0  0  0  0  0  0
    8.3265  -14.5760   19.0656 C   0  0  0  0  0  0  0  0  0  0  0  0
    7.9605  -14.6072   20.5306 C   0  0  0  0  0  0  0  0  0  0  0  0
    8.1632  -15.9603   21.1578 C   0  0  2  0  0  0  0  0  0  0  0  0
    6.8610  -16.5524   21.3061 N   0  0  0  0  0  0  0  0  0  0  0  0
    8.8809  -15.7780   22.4392 C   0  0  0  0  0  0  0  0  0  0  0  0
    8.0998  -15.6793   23.4300 O   0  0  0  0  0  0  0  0  0  0  0  0
   10.2512  -15.7118   22.6021 N   0  0  0  0  0  0  0  0  0  0  0  0
   10.9544  -16.2577   23.7422 C   0  0  1  0  0  0  0  0  0  0  0  0
   10.6343  -17.7282   23.7607 C   0  0  0  0  0  0  0  0  0  0  0  0
   11.3596  -18.5353   24.7908 C   0  0  0  0  0  0  0  0  0  0  0  0
   10.8250  -19.9590   24.6567 C   0  0  0  0  0  0  0  0  0  0  0  0
   11.4203  -20.8665   25.7014 C   0  0  0  0  0  0  0  0  0  0  0  0
   10.8446  -22.1934   25.5773 N   0  0  0  0  0  0  0  0  0  0  0  0
   12.4110  -15.9964   23.6946 C   0  0  0  0  0  0  0  0  0  0  0  0
   13.1043  -15.9470   22.6597 O   0  0  0  0  0  0  0  0  0  0  0  0
   13.1300  -15.7743   24.8869 O   0  0  0  0  0  0  0  0  0  0  0  0
  2  1  1  0
  3 11  1  0
  3  2  1  0
  4  3  2  0
  6  5  1  0
  7  6  2  0
  8  6  1  0
 10  9  1  1
  9  8  1  0
 10 12  1  0
 10 11  1  0
 12 14  1  0
 13 12  2  0
 14 15  1  0
 15 21  1  0
 15 16  1  6
 16 17  1  0
 18 19  1  0
 18 17  1  0
 19 20  1  0
 21 23  1  0
 22 21  2  0
M  END
$$$$
