GQK.pdb
     RDKit          3D

 23 22  0  0  1  0  0  0  0  0999 V2000
    8.7138  -12.7222   18.8475 N   0  0  0  0  0  0  0  0  0  0  0  0
    7.9287  -13.7283   19.4889 C   0  0  0  0  0  0  0  0  0  0  0  0
    8.1341  -13.8020   20.9519 C   0  0  0  0  0  0  0  0  0  0  0  0
    9.3263  -13.7457   21.3626 O   0  0  0  0  0  0  0  0  0  0  0  0
    6.3089  -13.8384   26.7473 N   0  0  0  0  0  0  0  0  0  0  0  0
    6.6327  -12.5263   26.3622 C   0  0  0  0  0  0  0  0  0  0  0  0
    6.8392  -11.6333   27.2134 O   0  0  0  0  0  0  0  0  0  0  0  0
    6.7348  -12.1806   24.9212 C   0  0  0  0  0  0  0  0  0  0  0  0
    6.2963  -13.3346   24.0510 C   0  0  0  0  0  0  0  0  0  0  0  0
    7.4386  -13.9830   23.3161 C   0  0  2  0  0  0  0  0  0  0  0  0
    7.1197  -13.9285   21.9148 N   0  0  0  0  0  0  0  0  0  0  0  0
    7.6047  -15.3598   23.8331 C   0  0  0  0  0  0  0  0  0  0  0  0
    6.7278  -16.1590   23.3928 O   0  0  0  0  0  0  0  0  0  0  0  0
    8.5868  -15.7886   24.7050 N   0  0  0  0  0  0  0  0  0  0  0  0
    8.6188  -17.1081   25.2967 C   0  0  1  0  0  0  0  0  0  0  0  0
    9.7116  -17.0715   26.3309 C   0  0  0  0  0  0  0  0  0  0  0  0
    9.8965  -18.3283   27.1215 C   0  0  0  0  0  0  0  0  0  0  0  0
   11.0498  -18.0501   28.0824 C   0  0  0  0  0  0  0  0  0  0  0  0
   11.3857  -19.2700   28.8999 C   0  0  0  0  0  0  0  0  0  0  0  0
   12.4318  -18.9436   29.8522 N   0  0  0  0  0  0  0  0  0  0  0  0
    7.3133  -17.5110   25.8672 C   0  0  0  0  0  0  0  0  0  0  0  0
    6.5114  -16.7526   26.4468 O   0  0  0  0  0  0  0  0  0  0  0  0
    6.8839  -18.8509   25.7765 O   0  0  0  0  0  0  0  0  0  0  0  0
  2  1  1  0
  3 11  1  0
  3  2  1  0
  4  3  2  0
  6  5  1  0
  7  6  2  0
  8  6  1  0
 10  9  1  1
  9  8  1  0
 10 12  1  0
 10 11  1  0
 12 14  1  0
 13 12  2  0
 14 15  1  0
 15 21  1  0
 15 16  1  1
 16 17  1  0
 18 19  1  0
 18 17  1  0
 19 20  1  0
 21 23  1  0
 22 21  2  0
M  END
$$$$
