GQK.pdb
     RDKit          3D

 23 22  0  0  1  0  0  0  0  0999 V2000
    9.5014  -23.3300   22.7121 N   0  0  0  0  0  0  0  0  0  0  0  0
    9.8646  -24.3567   23.6361 C   0  0  0  0  0  0  0  0  0  0  0  0
    9.7657  -23.9453   25.0535 C   0  0  0  0  0  0  0  0  0  0  0  0
    9.5782  -22.7174   25.2778 O   0  0  0  0  0  0  0  0  0  0  0  0
    8.7629  -27.4379   30.1337 N   0  0  0  0  0  0  0  0  0  0  0  0
    8.9659  -26.1731   30.7117 C   0  0  0  0  0  0  0  0  0  0  0  0
    8.8781  -26.0039   31.9480 O   0  0  0  0  0  0  0  0  0  0  0  0
    9.2912  -25.0079   29.8498 C   0  0  0  0  0  0  0  0  0  0  0  0
    9.4344  -25.4218   28.4043 C   0  0  0  0  0  0  0  0  0  0  0  0
    9.8147  -24.2792   27.5014 C   0  0  2  0  0  0  0  0  0  0  0  0
    9.8624  -24.8017   26.1623 N   0  0  0  0  0  0  0  0  0  0  0  0
   11.1054  -23.7253   27.9679 C   0  0  0  0  0  0  0  0  0  0  0  0
   12.1045  -24.3236   27.4723 O   0  0  0  0  0  0  0  0  0  0  0  0
   11.2688  -22.6738   28.8489 N   0  0  0  0  0  0  0  0  0  0  0  0
   12.5548  -22.1228   29.2163 C   0  0  1  0  0  0  0  0  0  0  0  0
   12.3394  -20.6422   29.3793 C   0  0  0  0  0  0  0  0  0  0  0  0
   12.8762  -20.0456   30.6421 C   0  0  0  0  0  0  0  0  0  0  0  0
   12.6054  -18.5464   30.5424 C   0  0  0  0  0  0  0  0  0  0  0  0
   13.1901  -17.8066   31.7172 C   0  0  0  0  0  0  0  0  0  0  0  0
   12.9223  -16.3865   31.5790 N   0  0  0  0  0  0  0  0  0  0  0  0
   13.1191  -22.7498   30.4331 C   0  0  0  0  0  0  0  0  0  0  0  0
   14.3332  -22.8985   30.6745 O   0  0  0  0  0  0  0  0  0  0  0  0
   12.2623  -23.2370   31.4413 O   0  0  0  0  0  0  0  0  0  0  0  0
  2  1  1  0
  3 11  1  0
  3  2  1  0
  4  3  2  0
  6  5  1  0
  7  6  2  0
  8  6  1  0
 10  9  1  1
  9  8  1  0
 10 12  1  0
 10 11  1  0
 12 14  1  0
 13 12  2  0
 14 15  1  0
 15 21  1  0
 15 16  1  1
 16 17  1  0
 18 19  1  0
 18 17  1  0
 19 20  1  0
 21 23  1  0
 22 21  2  0
M  END
$$$$
