GQK.pdb
     RDKit          3D

 23 22  0  0  1  0  0  0  0  0999 V2000
    7.4175  -15.9688   19.0797 N   0  0  0  0  0  0  0  0  0  0  0  0
    6.6270  -15.6820   20.2342 C   0  0  0  0  0  0  0  0  0  0  0  0
    7.4213  -15.2806   21.4157 C   0  0  0  0  0  0  0  0  0  0  0  0
    8.6738  -15.4120   21.3307 O   0  0  0  0  0  0  0  0  0  0  0  0
    5.5089  -12.2665   26.5956 N   0  0  0  0  0  0  0  0  0  0  0  0
    6.9079  -12.1996   26.7099 C   0  0  0  0  0  0  0  0  0  0  0  0
    7.4534  -11.5037   27.5947 O   0  0  0  0  0  0  0  0  0  0  0  0
    7.7658  -12.9645   25.7690 C   0  0  0  0  0  0  0  0  0  0  0  0
    6.9465  -13.5734   24.6558 C   0  0  0  0  0  0  0  0  0  0  0  0
    7.7752  -14.3730   23.6866 C   0  0  2  0  0  0  0  0  0  0  0  0
    6.9009  -14.7691   22.6156 N   0  0  0  0  0  0  0  0  0  0  0  0
    8.3745  -15.5134   24.4150 C   0  0  0  0  0  0  0  0  0  0  0  0
    7.5316  -16.4148   24.6955 O   0  0  0  0  0  0  0  0  0  0  0  0
    9.7009  -15.6388   24.7807 N   0  0  0  0  0  0  0  0  0  0  0  0
   10.2709  -16.8428   25.3443 C   0  0  1  0  0  0  0  0  0  0  0  0
   11.6388  -16.9793   24.7314 C   0  0  0  0  0  0  0  0  0  0  0  0
   12.4488  -18.1427   25.2097 C   0  0  0  0  0  0  0  0  0  0  0  0
   13.7657  -18.0779   24.4399 C   0  0  0  0  0  0  0  0  0  0  0  0
   14.7035  -19.1761   24.8688 C   0  0  0  0  0  0  0  0  0  0  0  0
   15.9879  -19.0009   24.2152 N   0  0  0  0  0  0  0  0  0  0  0  0
   10.3141  -16.8168   26.8240 C   0  0  0  0  0  0  0  0  0  0  0  0
   10.2232  -15.7956   27.5333 O   0  0  0  0  0  0  0  0  0  0  0  0
   10.4666  -18.0163   27.5493 O   0  0  0  0  0  0  0  0  0  0  0  0
  2  1  1  0
  3 11  1  0
  3  2  1  0
  4  3  2  0
  6  5  1  0
  7  6  2  0
  8  6  1  0
 10  9  1  1
  9  8  1  0
 10 12  1  0
 10 11  1  0
 12 14  1  0
 13 12  2  0
 14 15  1  0
 15 21  1  0
 15 16  1  6
 16 17  1  0
 18 19  1  0
 18 17  1  0
 19 20  1  0
 21 23  1  0
 22 21  2  0
M  END
$$$$
