GQK.pdb
     RDKit          3D

 23 22  0  0  1  0  0  0  0  0999 V2000
    4.9580  -18.7584   21.5892 N   0  0  0  0  0  0  0  0  0  0  0  0
    4.9605  -17.3576   21.8680 C   0  0  0  0  0  0  0  0  0  0  0  0
    6.2519  -16.6953   21.5821 C   0  0  0  0  0  0  0  0  0  0  0  0
    7.2188  -17.4444   21.2705 O   0  0  0  0  0  0  0  0  0  0  0  0
    7.6108  -13.4514   17.2697 N   0  0  0  0  0  0  0  0  0  0  0  0
    8.0111  -13.5191   18.6151 C   0  0  0  0  0  0  0  0  0  0  0  0
    9.1718  -13.8635   18.9293 O   0  0  0  0  0  0  0  0  0  0  0  0
    7.0479  -13.1778   19.6931 C   0  0  0  0  0  0  0  0  0  0  0  0
    7.6739  -13.3460   21.0573 C   0  0  0  0  0  0  0  0  0  0  0  0
    7.8185  -14.7881   21.4633 C   0  0  2  0  0  0  0  0  0  0  0  0
    6.4893  -15.3119   21.6282 N   0  0  0  0  0  0  0  0  0  0  0  0
    8.6357  -14.8463   22.6958 C   0  0  0  0  0  0  0  0  0  0  0  0
    8.0084  -14.4485   23.7204 O   0  0  0  0  0  0  0  0  0  0  0  0
    9.9460  -15.2752   22.7838 N   0  0  0  0  0  0  0  0  0  0  0  0
   10.5905  -15.6472   24.0242 C   0  0  1  0  0  0  0  0  0  0  0  0
    9.8025  -16.8085   24.5679 C   0  0  0  0  0  0  0  0  0  0  0  0
   10.3494  -17.4358   25.8114 C   0  0  0  0  0  0  0  0  0  0  0  0
    9.4755  -18.6585   26.0800 C   0  0  0  0  0  0  0  0  0  0  0  0
    9.9182  -19.3833   27.3243 C   0  0  0  0  0  0  0  0  0  0  0  0
    9.0617  -20.5342   27.5467 N   0  0  0  0  0  0  0  0  0  0  0  0
   12.0250  -15.9692   23.8493 C   0  0  0  0  0  0  0  0  0  0  0  0
   12.5385  -16.4526   22.8213 O   0  0  0  0  0  0  0  0  0  0  0  0
   12.9376  -15.7292   24.8969 O   0  0  0  0  0  0  0  0  0  0  0  0
  2  1  1  0
  3 11  1  0
  3  2  1  0
  4  3  2  0
  6  5  1  0
  7  6  2  0
  8  6  1  0
 10  9  1  1
  9  8  1  0
 10 12  1  0
 10 11  1  0
 12 14  1  0
 13 12  2  0
 14 15  1  0
 15 21  1  0
 15 16  1  6
 16 17  1  0
 18 19  1  0
 18 17  1  0
 19 20  1  0
 21 23  1  0
 22 21  2  0
M  END
$$$$
