GQK.pdb
     RDKit          3D

 23 22  0  0  1  0  0  0  0  0999 V2000
    7.6277  -18.7701   16.3784 N   0  0  0  0  0  0  0  0  0  0  0  0
    7.2386  -18.8916   17.7473 C   0  0  0  0  0  0  0  0  0  0  0  0
    7.8236  -17.8565   18.6273 C   0  0  0  0  0  0  0  0  0  0  0  0
    9.0831  -17.8169   18.6998 O   0  0  0  0  0  0  0  0  0  0  0  0
    7.8467  -12.1039   19.7166 N   0  0  0  0  0  0  0  0  0  0  0  0
    8.2936  -13.0841   20.6190 C   0  0  0  0  0  0  0  0  0  0  0  0
    9.5099  -13.3524   20.7345 O   0  0  0  0  0  0  0  0  0  0  0  0
    7.3138  -13.8222   21.4566 C   0  0  0  0  0  0  0  0  0  0  0  0
    6.7292  -14.9955   20.7062 C   0  0  0  0  0  0  0  0  0  0  0  0
    7.7777  -15.9459   20.1937 C   0  0  2  0  0  0  0  0  0  0  0  0
    7.0987  -16.9210   19.3834 N   0  0  0  0  0  0  0  0  0  0  0  0
    8.4860  -16.5297   21.3546 C   0  0  0  0  0  0  0  0  0  0  0  0
    7.7823  -17.3695   21.9880 O   0  0  0  0  0  0  0  0  0  0  0  0
    9.7733  -16.2304   21.7571 N   0  0  0  0  0  0  0  0  0  0  0  0
   10.4193  -16.8310   22.9035 C   0  0  1  0  0  0  0  0  0  0  0  0
   11.8794  -16.9289   22.5516 C   0  0  0  0  0  0  0  0  0  0  0  0
   12.7519  -17.5710   23.5836 C   0  0  0  0  0  0  0  0  0  0  0  0
   14.1438  -17.6504   22.9614 C   0  0  0  0  0  0  0  0  0  0  0  0
   15.1231  -18.3107   23.8964 C   0  0  0  0  0  0  0  0  0  0  0  0
   16.4161  -18.4223   23.2459 N   0  0  0  0  0  0  0  0  0  0  0  0
   10.1882  -16.0716   24.1532 C   0  0  0  0  0  0  0  0  0  0  0  0
    9.7930  -14.8911   24.2206 O   0  0  0  0  0  0  0  0  0  0  0  0
   10.4141  -16.6810   25.4044 O   0  0  0  0  0  0  0  0  0  0  0  0
  2  1  1  0
  3 11  1  0
  3  2  1  0
  4  3  2  0
  6  5  1  0
  7  6  2  0
  8  6  1  0
 10  9  1  1
  9  8  1  0
 10 12  1  0
 10 11  1  0
 12 14  1  0
 13 12  2  0
 14 15  1  0
 15 21  1  0
 15 16  1  6
 16 17  1  0
 18 19  1  0
 18 17  1  0
 19 20  1  0
 21 23  1  0
 22 21  2  0
M  END
$$$$
