GQK.pdb
     RDKit          3D

 23 22  0  0  1  0  0  0  0  0999 V2000
    4.5655  -19.3394   23.4865 N   0  0  0  0  0  0  0  0  0  0  0  0
    4.7315  -17.9231   23.4070 C   0  0  0  0  0  0  0  0  0  0  0  0
    5.9837  -17.5064   22.7389 C   0  0  0  0  0  0  0  0  0  0  0  0
    6.8079  -18.4191   22.4547 O   0  0  0  0  0  0  0  0  0  0  0  0
    8.2238  -12.0151   19.1190 N   0  0  0  0  0  0  0  0  0  0  0  0
    8.2576  -13.4167   19.0221 C   0  0  0  0  0  0  0  0  0  0  0  0
    7.9742  -13.9994   17.9522 O   0  0  0  0  0  0  0  0  0  0  0  0
    8.6352  -14.2324   20.2047 C   0  0  0  0  0  0  0  0  0  0  0  0
    7.4203  -14.6044   21.0212 C   0  0  0  0  0  0  0  0  0  0  0  0
    7.5910  -15.8977   21.7720 C   0  0  2  0  0  0  0  0  0  0  0  0
    6.3289  -16.1887   22.3971 N   0  0  0  0  0  0  0  0  0  0  0  0
    8.7050  -15.7360   22.7329 C   0  0  0  0  0  0  0  0  0  0  0  0
    8.4517  -14.8921   23.6412 O   0  0  0  0  0  0  0  0  0  0  0  0
    9.9149  -16.4018   22.6954 N   0  0  0  0  0  0  0  0  0  0  0  0
   10.9616  -16.2269   23.6783 C   0  0  1  0  0  0  0  0  0  0  0  0
   10.8873  -17.4292   24.5805 C   0  0  0  0  0  0  0  0  0  0  0  0
   10.7637  -17.1345   26.0422 C   0  0  0  0  0  0  0  0  0  0  0  0
   10.7115  -18.4925   26.7379 C   0  0  0  0  0  0  0  0  0  0  0  0
   10.5027  -18.3381   28.2218 C   0  0  0  0  0  0  0  0  0  0  0  0
   10.3847  -19.6489   28.8347 N   0  0  0  0  0  0  0  0  0  0  0  0
   12.2994  -16.0609   23.0659 C   0  0  0  0  0  0  0  0  0  0  0  0
   12.6031  -16.3661   21.8959 O   0  0  0  0  0  0  0  0  0  0  0  0
   13.3598  -15.5148   23.8178 O   0  0  0  0  0  0  0  0  0  0  0  0
  2  1  1  0
  3 11  1  0
  3  2  1  0
  4  3  2  0
  6  5  1  0
  7  6  2  0
  8  6  1  0
 10  9  1  1
  9  8  1  0
 10 12  1  0
 10 11  1  0
 12 14  1  0
 13 12  2  0
 14 15  1  0
 15 21  1  0
 15 16  1  1
 16 17  1  0
 18 19  1  0
 18 17  1  0
 19 20  1  0
 21 23  1  0
 22 21  2  0
M  END
$$$$
