CSF.pdb
     RDKit          3D

 24 24  0  0  1  0  0  0  0  0999 V2000
   29.1990  -16.3543  -17.7301 N   0  0  0  0  0  0  0  0  0  0  0  0
   28.4364  -17.6144  -17.7060 C   0  0  1  0  0  0  0  0  0  0  0  0
   29.4870  -18.7302  -17.8019 C   0  0  0  0  0  0  0  0  0  0  0  0
   29.7514  -19.2361  -19.4973 S   0  0  0  0  0  0  0  0  0  0  0  0
   27.7022  -17.6324  -16.4251 C   0  0  0  0  0  0  0  0  0  0  0  0
   28.1470  -17.1413  -15.3567 O   0  0  0  0  0  0  0  0  0  0  0  0
   23.6554  -18.2899  -16.3275 O   0  0  0  0  0  0  0  0  0  0  0  0
   24.2971  -17.6224  -15.2837 C   0  0  0  0  0  0  0  0  0  0  0  0
   25.6707  -18.2580  -15.0803 C   0  0  2  0  0  0  0  0  0  0  0  0
   26.3901  -18.2413  -16.3497 N   0  0  0  0  0  0  0  0  0  0  0  0
   25.5181  -19.6259  -14.5878 C   0  0  0  0  0  0  0  0  0  0  0  0
   25.4449  -20.6204  -15.3721 O   0  0  0  0  0  0  0  0  0  0  0  0
   25.4466  -19.9200  -13.2095 N   0  0  0  0  0  0  0  0  0  0  0  0
   25.1991  -21.2813  -12.7272 C   0  0  1  0  0  0  0  0  0  0  0  0
   26.3446  -21.6595  -11.8112 C   0  0  0  0  0  0  0  0  0  0  0  0
   26.2644  -20.9785  -10.5081 C   0  0  0  0  0  0  0  0  0  0  0  0
   26.7680  -19.6819  -10.3376 C   0  0  0  0  0  0  0  0  0  0  0  0
   26.6951  -19.0125   -9.1409 C   0  0  0  0  0  0  0  0  0  0  0  0
   26.1180  -19.5914   -8.0423 C   0  0  0  0  0  0  0  0  0  0  0  0
   25.6162  -20.8674   -8.1889 C   0  0  0  0  0  0  0  0  0  0  0  0
   25.6877  -21.5418   -9.3891 C   0  0  0  0  0  0  0  0  0  0  0  0
   23.8818  -21.3995  -12.0870 C   0  0  0  0  0  0  0  0  0  0  0  0
   23.1795  -20.2572  -11.7567 O   0  0  0  0  0  0  0  0  0  0  0  0
   23.3617  -22.5102  -11.8220 O   0  0  0  0  0  0  0  0  0  0  0  0
  2  5  1  0
  2  3  1  0
  2  1  1  1
  4  3  1  0
  5  6  2  0
  7  8  1  0
  9  8  1  6
  9 11  1  0
 10  9  1  0
 10  5  1  0
 11 12  2  0
 11 13  1  0
 13 14  1  0
 14 22  1  0
 14 15  1  1
 16 15  1  0
 16 17  2  0
 18 17  1  0
 19 18  2  0
 20 21  2  0
 20 19  1  0
 21 16  1  0
 22 24  2  0
 22 23  1  0
M  END
$$$$
