CSF.pdb
     RDKit          3D

 24 24  0  0  1  0  0  0  0  0999 V2000
   28.6632  -27.8968  -16.2666 N   0  0  0  0  0  0  0  0  0  0  0  0
   29.2149  -26.8319  -17.1221 C   0  0  1  0  0  0  0  0  0  0  0  0
   28.7242  -27.1522  -18.5415 C   0  0  0  0  0  0  0  0  0  0  0  0
   26.9381  -27.2178  -18.6171 S   0  0  0  0  0  0  0  0  0  0  0  0
   28.6722  -25.5596  -16.6057 C   0  0  0  0  0  0  0  0  0  0  0  0
   27.8234  -25.4850  -15.6813 O   0  0  0  0  0  0  0  0  0  0  0  0
   29.7837  -22.0998  -18.4621 O   0  0  0  0  0  0  0  0  0  0  0  0
   29.4554  -21.8960  -17.1213 C   0  0  0  0  0  0  0  0  0  0  0  0
   28.5618  -23.0475  -16.6657 C   0  0  2  0  0  0  0  0  0  0  0  0
   29.1155  -24.3006  -17.1680 N   0  0  0  0  0  0  0  0  0  0  0  0
   27.2006  -22.8464  -17.1591 C   0  0  0  0  0  0  0  0  0  0  0  0
   26.7778  -23.4045  -18.2172 O   0  0  0  0  0  0  0  0  0  0  0  0
   26.2757  -22.0213  -16.4844 N   0  0  0  0  0  0  0  0  0  0  0  0
   24.9180  -21.8134  -16.9950 C   0  0  1  0  0  0  0  0  0  0  0  0
   24.0219  -21.5184  -15.8101 C   0  0  0  0  0  0  0  0  0  0  0  0
   22.6280  -21.2689  -16.2140 C   0  0  0  0  0  0  0  0  0  0  0  0
   22.1452  -19.9635  -16.3778 C   0  0  0  0  0  0  0  0  0  0  0  0
   20.8562  -19.6962  -16.7687 C   0  0  0  0  0  0  0  0  0  0  0  0
   19.9701  -20.7097  -17.0196 C   0  0  0  0  0  0  0  0  0  0  0  0
   20.4254  -22.0019  -16.8639 C   0  0  0  0  0  0  0  0  0  0  0  0
   21.7189  -22.2734  -16.4720 C   0  0  0  0  0  0  0  0  0  0  0  0
   24.8798  -20.7666  -18.0255 C   0  0  0  0  0  0  0  0  0  0  0  0
   24.0192  -20.8967  -19.0976 O   0  0  0  0  0  0  0  0  0  0  0  0
   25.6082  -19.7463  -17.9729 O   0  0  0  0  0  0  0  0  0  0  0  0
  2  5  1  0
  2  3  1  0
  2  1  1  1
  4  3  1  0
  5  6  2  0
  7  8  1  0
  9  8  1  6
  9 11  1  0
 10  9  1  0
 10  5  1  0
 11 12  2  0
 11 13  1  0
 13 14  1  0
 14 22  1  0
 14 15  1  1
 16 15  1  0
 16 17  2  0
 18 17  1  0
 19 18  2  0
 20 21  2  0
 20 19  1  0
 21 16  1  0
 22 24  2  0
 22 23  1  0
M  END
$$$$
