CSF.pdb
     RDKit          3D

 24 24  0  0  1  0  0  0  0  0999 V2000
   28.8410  -21.3779  -17.4660 N   0  0  0  0  0  0  0  0  0  0  0  0
   28.4227  -22.1336  -16.2726 C   0  0  1  0  0  0  0  0  0  0  0  0
   29.7061  -22.7721  -15.7221 C   0  0  0  0  0  0  0  0  0  0  0  0
   30.0693  -24.3210  -16.5401 S   0  0  0  0  0  0  0  0  0  0  0  0
   27.8320  -21.1503  -15.3430 C   0  0  0  0  0  0  0  0  0  0  0  0
   28.2764  -19.9854  -15.1814 O   0  0  0  0  0  0  0  0  0  0  0  0
   23.9675  -21.1622  -14.6295 O   0  0  0  0  0  0  0  0  0  0  0  0
   24.7473  -20.0388  -14.3521 C   0  0  0  0  0  0  0  0  0  0  0  0
   26.0444  -20.5054  -13.6951 C   0  0  2  0  0  0  0  0  0  0  0  0
   26.6725  -21.5063  -14.5513 N   0  0  0  0  0  0  0  0  0  0  0  0
   25.7613  -21.0580  -12.3717 C   0  0  0  0  0  0  0  0  0  0  0  0
   25.5556  -22.2965  -12.1882 O   0  0  0  0  0  0  0  0  0  0  0  0
   25.7036  -20.2453  -11.2195 N   0  0  0  0  0  0  0  0  0  0  0  0
   25.1879  -20.7548   -9.9461 C   0  0  1  0  0  0  0  0  0  0  0  0
   25.5180  -19.7352   -8.8759 C   0  0  0  0  0  0  0  0  0  0  0  0
   26.8469  -19.9600   -8.2829 C   0  0  0  0  0  0  0  0  0  0  0  0
   27.2994  -19.1838   -7.2073 C   0  0  0  0  0  0  0  0  0  0  0  0
   28.5260  -19.3776   -6.6209 C   0  0  0  0  0  0  0  0  0  0  0  0
   29.3760  -20.3535   -7.0684 C   0  0  0  0  0  0  0  0  0  0  0  0
   28.9497  -21.1283   -8.1264 C   0  0  0  0  0  0  0  0  0  0  0  0
   27.7189  -20.9364   -8.7168 C   0  0  0  0  0  0  0  0  0  0  0  0
   23.7543  -21.0671  -10.0268 C   0  0  0  0  0  0  0  0  0  0  0  0
   23.1975  -21.9518   -9.1245 O   0  0  0  0  0  0  0  0  0  0  0  0
   23.0046  -20.5583  -10.8949 O   0  0  0  0  0  0  0  0  0  0  0  0
  2  5  1  0
  2  3  1  0
  2  1  1  6
  4  3  1  0
  5  6  2  0
  7  8  1  0
  9  8  1  6
  9 11  1  0
 10  9  1  0
 10  5  1  0
 11 12  2  0
 11 13  1  0
 13 14  1  0
 14 22  1  0
 14 15  1  1
 16 15  1  0
 16 17  2  0
 18 17  1  0
 19 18  2  0
 20 21  2  0
 20 19  1  0
 21 16  1  0
 22 24  2  0
 22 23  1  0
M  END
$$$$
