CSF.pdb
     RDKit          3D

 24 24  0  0  1  0  0  0  0  0999 V2000
   26.8464  -17.4018  -15.1272 N   0  0  0  0  0  0  0  0  0  0  0  0
   27.1841  -18.6937  -14.5051 C   0  0  1  0  0  0  0  0  0  0  0  0
   28.7181  -18.7302  -14.4453 C   0  0  0  0  0  0  0  0  0  0  0  0
   29.4256  -19.1334  -16.0382 S   0  0  0  0  0  0  0  0  0  0  0  0
   26.5622  -18.6863  -13.1660 C   0  0  0  0  0  0  0  0  0  0  0  0
   26.4772  -17.6637  -12.4397 O   0  0  0  0  0  0  0  0  0  0  0  0
   24.0975  -21.7037  -12.1644 O   0  0  0  0  0  0  0  0  0  0  0  0
   23.9703  -20.5171  -11.4413 C   0  0  0  0  0  0  0  0  0  0  0  0
   25.3535  -19.8829  -11.3129 C   0  0  2  0  0  0  0  0  0  0  0  0
   26.0053  -19.9060  -12.6182 N   0  0  0  0  0  0  0  0  0  0  0  0
   26.1455  -20.6120  -10.3239 C   0  0  0  0  0  0  0  0  0  0  0  0
   27.0425  -21.4442  -10.6595 O   0  0  0  0  0  0  0  0  0  0  0  0
   25.9601  -20.4297   -8.9369 N   0  0  0  0  0  0  0  0  0  0  0  0
   26.6648  -21.2563   -7.9534 C   0  0  1  0  0  0  0  0  0  0  0  0
   28.0843  -20.7381   -7.8505 C   0  0  0  0  0  0  0  0  0  0  0  0
   28.3684  -20.1493   -6.5312 C   0  0  0  0  0  0  0  0  0  0  0  0
   29.1021  -20.8543   -5.5675 C   0  0  0  0  0  0  0  0  0  0  0  0
   29.3982  -20.3285   -4.3339 C   0  0  0  0  0  0  0  0  0  0  0  0
   28.9827  -19.0715   -3.9842 C   0  0  0  0  0  0  0  0  0  0  0  0
   28.2589  -18.3610   -4.9184 C   0  0  0  0  0  0  0  0  0  0  0  0
   27.9604  -18.8859   -6.1576 C   0  0  0  0  0  0  0  0  0  0  0  0
   25.9623  -21.2824   -6.6631 C   0  0  0  0  0  0  0  0  0  0  0  0
   24.8551  -20.4792   -6.4734 O   0  0  0  0  0  0  0  0  0  0  0  0
   26.3327  -22.0123   -5.7120 O   0  0  0  0  0  0  0  0  0  0  0  0
  2  5  1  0
  2  3  1  0
  2  1  1  1
  4  3  1  0
  5  6  2  0
  7  8  1  0
  9  8  1  6
  9 11  1  0
 10  9  1  0
 10  5  1  0
 11 12  2  0
 11 13  1  0
 13 14  1  0
 14 22  1  0
 14 15  1  1
 16 15  1  0
 16 17  2  0
 18 17  1  0
 19 18  2  0
 20 21  2  0
 20 19  1  0
 21 16  1  0
 22 24  2  0
 22 23  1  0
M  END
$$$$
