CSF.pdb
     RDKit          3D

 24 24  0  0  1  0  0  0  0  0999 V2000
   25.9875  -17.3467  -15.1406 N   0  0  0  0  0  0  0  0  0  0  0  0
   26.9141  -18.3456  -14.5805 C   0  0  1  0  0  0  0  0  0  0  0  0
   28.1628  -17.5559  -14.1622 C   0  0  0  0  0  0  0  0  0  0  0  0
   29.2975  -17.3532  -15.5303 S   0  0  0  0  0  0  0  0  0  0  0  0
   26.2188  -18.9612  -13.4326 C   0  0  0  0  0  0  0  0  0  0  0  0
   25.4044  -18.3478  -12.6970 O   0  0  0  0  0  0  0  0  0  0  0  0
   24.4698  -22.4486  -13.3427 O   0  0  0  0  0  0  0  0  0  0  0  0
   25.4440  -22.4233  -12.3440 C   0  0  0  0  0  0  0  0  0  0  0  0
   25.7334  -20.9656  -11.9927 C   0  0  2  0  0  0  0  0  0  0  0  0
   26.4594  -20.3498  -13.0986 N   0  0  0  0  0  0  0  0  0  0  0  0
   26.5122  -20.8965  -10.7576 C   0  0  0  0  0  0  0  0  0  0  0  0
   27.7586  -21.1326  -10.7325 O   0  0  0  0  0  0  0  0  0  0  0  0
   25.9227  -20.5595   -9.5206 N   0  0  0  0  0  0  0  0  0  0  0  0
   26.6054  -20.8165   -8.2498 C   0  0  1  0  0  0  0  0  0  0  0  0
   27.4245  -19.5882   -7.9117 C   0  0  0  0  0  0  0  0  0  0  0  0
   28.0590  -19.6887   -6.5868 C   0  0  0  0  0  0  0  0  0  0  0  0
   27.7088  -18.8143   -5.5491 C   0  0  0  0  0  0  0  0  0  0  0  0
   28.2692  -18.8908   -4.2978 C   0  0  0  0  0  0  0  0  0  0  0  0
   29.2111  -19.8401   -4.0030 C   0  0  0  0  0  0  0  0  0  0  0  0
   29.5701  -20.7103   -5.0107 C   0  0  0  0  0  0  0  0  0  0  0  0
   29.0090  -20.6362   -6.2677 C   0  0  0  0  0  0  0  0  0  0  0  0
   25.6583  -21.1912   -7.1907 C   0  0  0  0  0  0  0  0  0  0  0  0
   26.1301  -21.7609   -6.0246 O   0  0  0  0  0  0  0  0  0  0  0  0
   24.4211  -21.0150   -7.3037 O   0  0  0  0  0  0  0  0  0  0  0  0
  2  5  1  0
  2  3  1  0
  2  1  1  1
  4  3  1  0
  5  6  2  0
  7  8  1  0
  9  8  1  6
  9 11  1  0
 10  9  1  0
 10  5  1  0
 11 12  2  0
 11 13  1  0
 13 14  1  0
 14 22  1  0
 14 15  1  1
 16 15  1  0
 16 17  2  0
 18 17  1  0
 19 18  2  0
 20 21  2  0
 20 19  1  0
 21 16  1  0
 22 24  2  0
 22 23  1  0
M  END
$$$$
