CSF.pdb
     RDKit          3D

 24 24  0  0  1  0  0  0  0  0999 V2000
   26.7704  -17.3341  -16.7444 N   0  0  0  0  0  0  0  0  0  0  0  0
   26.7509  -17.6074  -15.2970 C   0  0  1  0  0  0  0  0  0  0  0  0
   26.0990  -16.3734  -14.6565 C   0  0  0  0  0  0  0  0  0  0  0  0
   27.2413  -14.9993  -14.5724 S   0  0  0  0  0  0  0  0  0  0  0  0
   25.9489  -18.8337  -15.1154 C   0  0  0  0  0  0  0  0  0  0  0  0
   24.9328  -19.1131  -15.8010 O   0  0  0  0  0  0  0  0  0  0  0  0
   26.6499  -21.2971  -11.8195 O   0  0  0  0  0  0  0  0  0  0  0  0
   26.2038  -21.9460  -12.9714 C   0  0  0  0  0  0  0  0  0  0  0  0
   25.4449  -20.9351  -13.8282 C   0  0  2  0  0  0  0  0  0  0  0  0
   26.3183  -19.7982  -14.1000 N   0  0  0  0  0  0  0  0  0  0  0  0
   24.2329  -20.5045  -13.1337 C   0  0  0  0  0  0  0  0  0  0  0  0
   24.2686  -19.7096  -12.1454 O   0  0  0  0  0  0  0  0  0  0  0  0
   22.9509  -20.9460  -13.5248 N   0  0  0  0  0  0  0  0  0  0  0  0
   21.7362  -20.4498  -12.8723 C   0  0  1  0  0  0  0  0  0  0  0  0
   21.6632  -18.9562  -13.1126 C   0  0  0  0  0  0  0  0  0  0  0  0
   21.3872  -18.6313  -14.5220 C   0  0  0  0  0  0  0  0  0  0  0  0
   20.1307  -18.8829  -15.0895 C   0  0  0  0  0  0  0  0  0  0  0  0
   19.8353  -18.5775  -16.3953 C   0  0  0  0  0  0  0  0  0  0  0  0
   20.7705  -18.0045  -17.2152 C   0  0  0  0  0  0  0  0  0  0  0  0
   22.0137  -17.7489  -16.6761 C   0  0  0  0  0  0  0  0  0  0  0  0
   22.3131  -18.0540  -15.3655 C   0  0  0  0  0  0  0  0  0  0  0  0
   20.5405  -21.1700  -13.3314 C   0  0  0  0  0  0  0  0  0  0  0  0
   20.6655  -22.1594  -14.2866 O   0  0  0  0  0  0  0  0  0  0  0  0
   19.3941  -20.9187  -12.8874 O   0  0  0  0  0  0  0  0  0  0  0  0
  2  5  1  0
  2  3  1  0
  2  1  1  6
  4  3  1  0
  5  6  2  0
  7  8  1  0
  9  8  1  1
  9 11  1  0
 10  9  1  0
 10  5  1  0
 11 12  2  0
 11 13  1  0
 13 14  1  0
 14 22  1  0
 14 15  1  6
 16 15  1  0
 16 17  2  0
 18 17  1  0
 19 18  2  0
 20 21  2  0
 20 19  1  0
 21 16  1  0
 22 24  2  0
 22 23  1  0
M  END
$$$$
