CSF.pdb
     RDKit          3D

 24 24  0  0  1  0  0  0  0  0999 V2000
   23.2593  -12.0625  -17.8977 N   0  0  0  0  0  0  0  0  0  0  0  0
   23.2334  -11.6572  -16.4817 C   0  0  1  0  0  0  0  0  0  0  0  0
   24.7049  -11.4825  -16.0792 C   0  0  0  0  0  0  0  0  0  0  0  0
   25.4872  -13.0590  -15.7583 S   0  0  0  0  0  0  0  0  0  0  0  0
   22.4735  -10.3926  -16.4243 C   0  0  0  0  0  0  0  0  0  0  0  0
   22.6603   -9.4279  -17.2084 O   0  0  0  0  0  0  0  0  0  0  0  0
   19.8488   -9.7019  -13.2788 O   0  0  0  0  0  0  0  0  0  0  0  0
   19.4661   -9.1439  -14.4991 C   0  0  0  0  0  0  0  0  0  0  0  0
   20.7186   -8.9459  -15.3500 C   0  0  2  0  0  0  0  0  0  0  0  0
   21.4438  -10.2100  -15.4221 N   0  0  0  0  0  0  0  0  0  0  0  0
   21.5560   -7.8992  -14.7669 C   0  0  0  0  0  0  0  0  0  0  0  0
   22.6245   -8.1641  -14.1361 O   0  0  0  0  0  0  0  0  0  0  0  0
   21.2257   -6.5315  -14.8748 N   0  0  0  0  0  0  0  0  0  0  0  0
   22.1192   -5.4843  -14.3725 C   0  0  1  0  0  0  0  0  0  0  0  0
   23.3420   -5.4564  -15.2659 C   0  0  0  0  0  0  0  0  0  0  0  0
   23.0365   -4.9466  -16.6131 C   0  0  0  0  0  0  0  0  0  0  0  0
   22.8417   -5.8216  -17.6903 C   0  0  0  0  0  0  0  0  0  0  0  0
   22.5399   -5.3803  -18.9552 C   0  0  0  0  0  0  0  0  0  0  0  0
   22.4141   -4.0438  -19.2253 C   0  0  0  0  0  0  0  0  0  0  0  0
   22.6022   -3.1658  -18.1787 C   0  0  0  0  0  0  0  0  0  0  0  0
   22.9049   -3.6058  -16.9078 C   0  0  0  0  0  0  0  0  0  0  0  0
   21.4373   -4.1858  -14.2826 C   0  0  0  0  0  0  0  0  0  0  0  0
   22.0816   -3.1170  -13.6914 O   0  0  0  0  0  0  0  0  0  0  0  0
   20.2768   -4.0053  -14.7244 O   0  0  0  0  0  0  0  0  0  0  0  0
  2  5  1  0
  2  3  1  0
  2  1  1  6
  4  3  1  0
  5  6  2  0
  7  8  1  0
  9  8  1  1
  9 11  1  0
 10  9  1  0
 10  5  1  0
 11 12  2  0
 11 13  1  0
 13 14  1  0
 14 22  1  0
 14 15  1  6
 16 15  1  0
 16 17  2  0
 18 17  1  0
 19 18  2  0
 20 21  2  0
 20 19  1  0
 21 16  1  0
 22 24  2  0
 22 23  1  0
M  END
$$$$
