CSF.pdb
     RDKit          3D

 24 24  0  0  1  0  0  0  0  0999 V2000
   27.6745  -36.6083   -5.6536 N   0  0  0  0  0  0  0  0  0  0  0  0
   28.3766  -35.6344   -4.8001 C   0  0  1  0  0  0  0  0  0  0  0  0
   28.3924  -34.3246   -5.6015 C   0  0  0  0  0  0  0  0  0  0  0  0
   29.6575  -34.3465   -6.8661 S   0  0  0  0  0  0  0  0  0  0  0  0
   27.5912  -35.5301   -3.5542 C   0  0  0  0  0  0  0  0  0  0  0  0
   26.3369  -35.4502   -3.5225 O   0  0  0  0  0  0  0  0  0  0  0  0
   29.4049  -34.4676    0.0623 O   0  0  0  0  0  0  0  0  0  0  0  0
   28.4235  -35.4556    0.1513 C   0  0  0  0  0  0  0  0  0  0  0  0
   27.4913  -35.3155   -1.0501 C   0  0  2  0  0  0  0  0  0  0  0  0
   28.2640  -35.5151   -2.2717 N   0  0  0  0  0  0  0  0  0  0  0  0
   26.8642  -33.9951   -1.0421 C   0  0  0  0  0  0  0  0  0  0  0  0
   26.9775  -33.1892   -2.0154 O   0  0  0  0  0  0  0  0  0  0  0  0
   26.0927  -33.5411    0.0488 N   0  0  0  0  0  0  0  0  0  0  0  0
   25.4209  -32.2391    0.0245 C   0  0  1  0  0  0  0  0  0  0  0  0
   24.4661  -32.2367   -1.1512 C   0  0  0  0  0  0  0  0  0  0  0  0
   23.6626  -31.0044   -1.2142 C   0  0  0  0  0  0  0  0  0  0  0  0
   24.1186  -29.8788   -1.9136 C   0  0  0  0  0  0  0  0  0  0  0  0
   23.3876  -28.7199   -2.0055 C   0  0  0  0  0  0  0  0  0  0  0  0
   22.1605  -28.6101   -1.4076 C   0  0  0  0  0  0  0  0  0  0  0  0
   21.6936  -29.7067   -0.7141 C   0  0  0  0  0  0  0  0  0  0  0  0
   22.4249  -30.8715   -0.6204 C   0  0  0  0  0  0  0  0  0  0  0  0
   24.7642  -31.9430    1.3052 C   0  0  0  0  0  0  0  0  0  0  0  0
   24.1594  -32.9629    2.0129 O   0  0  0  0  0  0  0  0  0  0  0  0
   24.7272  -30.7856    1.7885 O   0  0  0  0  0  0  0  0  0  0  0  0
  2  5  1  0
  2  3  1  0
  2  1  1  6
  4  3  1  0
  5  6  2  0
  7  8  1  0
  9  8  1  1
  9 11  1  0
 10  9  1  0
 10  5  1  0
 11 12  2  0
 11 13  1  0
 13 14  1  0
 14 22  1  0
 14 15  1  6
 16 15  1  0
 16 17  2  0
 18 17  1  0
 19 18  2  0
 20 21  2  0
 20 19  1  0
 21 16  1  0
 22 24  2  0
 22 23  1  0
M  END
$$$$
