CSF.pdb
     RDKit          3D

 24 24  0  0  1  0  0  0  0  0999 V2000
   27.6909  -21.0255  -17.3326 N   0  0  0  0  0  0  0  0  0  0  0  0
   27.9067  -21.5598  -15.9768 C   0  0  1  0  0  0  0  0  0  0  0  0
   29.4297  -21.5744  -15.7806 C   0  0  0  0  0  0  0  0  0  0  0  0
   30.1409  -23.1328  -16.2961 S   0  0  0  0  0  0  0  0  0  0  0  0
   27.2223  -20.6354  -15.0510 C   0  0  0  0  0  0  0  0  0  0  0  0
   27.1243  -19.3970  -15.2441 O   0  0  0  0  0  0  0  0  0  0  0  0
   23.3091  -19.7023  -13.3662 O   0  0  0  0  0  0  0  0  0  0  0  0
   24.3556  -20.2838  -14.0829 C   0  0  0  0  0  0  0  0  0  0  0  0
   25.5760  -20.3657  -13.1685 C   0  0  2  0  0  0  0  0  0  0  0  0
   26.6147  -21.1420  -13.8377 N   0  0  0  0  0  0  0  0  0  0  0  0
   25.2044  -20.9831  -11.8967 C   0  0  0  0  0  0  0  0  0  0  0  0
   25.0000  -22.2305  -11.7871 O   0  0  0  0  0  0  0  0  0  0  0  0
   25.0545  -20.2268  -10.7148 N   0  0  0  0  0  0  0  0  0  0  0  0
   24.5902  -20.8378   -9.4664 C   0  0  1  0  0  0  0  0  0  0  0  0
   25.1154  -19.9978   -8.3208 C   0  0  0  0  0  0  0  0  0  0  0  0
   26.5781  -20.0963   -8.1822 C   0  0  0  0  0  0  0  0  0  0  0  0
   27.3123  -19.0931   -7.5354 C   0  0  0  0  0  0  0  0  0  0  0  0
   28.6745  -19.1614   -7.3751 C   0  0  0  0  0  0  0  0  0  0  0  0
   29.3881  -20.2301   -7.8482 C   0  0  0  0  0  0  0  0  0  0  0  0
   28.6843  -21.2283   -8.4882 C   0  0  0  0  0  0  0  0  0  0  0  0
   27.3169  -21.1627   -8.6503 C   0  0  0  0  0  0  0  0  0  0  0  0
   23.1292  -20.9935   -9.4488 C   0  0  0  0  0  0  0  0  0  0  0  0
   22.5270  -21.6565   -8.3977 O   0  0  0  0  0  0  0  0  0  0  0  0
   22.3955  -20.5453  -10.3627 O   0  0  0  0  0  0  0  0  0  0  0  0
  2  5  1  0
  2  3  1  0
  2  1  1  6
  4  3  1  0
  5  6  2  0
  7  8  1  0
  9  8  1  6
  9 11  1  0
 10  9  1  0
 10  5  1  0
 11 12  2  0
 11 13  1  0
 13 14  1  0
 14 22  1  0
 14 15  1  1
 16 15  1  0
 16 17  2  0
 18 17  1  0
 19 18  2  0
 20 21  2  0
 20 19  1  0
 21 16  1  0
 22 24  2  0
 22 23  1  0
M  END
$$$$
