CSF.pdb
     RDKit          3D

 24 24  0  0  1  0  0  0  0  0999 V2000
   18.4253  -12.7400  -15.8367 N   0  0  0  0  0  0  0  0  0  0  0  0
   18.5410  -11.5200  -16.6543 C   0  0  1  0  0  0  0  0  0  0  0  0
   17.4364  -11.6323  -17.7151 C   0  0  0  0  0  0  0  0  0  0  0  0
   17.4021  -10.1943  -18.7788 S   0  0  0  0  0  0  0  0  0  0  0  0
   18.3349  -10.3822  -15.7361 C   0  0  0  0  0  0  0  0  0  0  0  0
   17.2073   -9.8964  -15.4661 O   0  0  0  0  0  0  0  0  0  0  0  0
   18.7358   -7.7822  -12.1191 O   0  0  0  0  0  0  0  0  0  0  0  0
   18.9401   -8.9465  -12.8605 C   0  0  0  0  0  0  0  0  0  0  0  0
   19.2779   -8.5485  -14.2956 C   0  0  2  0  0  0  0  0  0  0  0  0
   19.4701   -9.7591  -15.0873 N   0  0  0  0  0  0  0  0  0  0  0  0
   20.4824   -7.7205  -14.3121 C   0  0  0  0  0  0  0  0  0  0  0  0
   21.6468   -8.2244  -14.3198 O   0  0  0  0  0  0  0  0  0  0  0  0
   20.4197   -6.3108  -14.3236 N   0  0  0  0  0  0  0  0  0  0  0  0
   21.6177   -5.4910  -14.5238 C   0  0  1  0  0  0  0  0  0  0  0  0
   22.2298   -5.8885  -15.8509 C   0  0  0  0  0  0  0  0  0  0  0  0
   23.3272   -4.9914  -16.2496 C   0  0  0  0  0  0  0  0  0  0  0  0
   24.5987   -5.1028  -15.6709 C   0  0  0  0  0  0  0  0  0  0  0  0
   25.6478   -4.2932  -16.0310 C   0  0  0  0  0  0  0  0  0  0  0  0
   25.4961   -3.3246  -16.9870 C   0  0  0  0  0  0  0  0  0  0  0  0
   24.2523   -3.1983  -17.5687 C   0  0  0  0  0  0  0  0  0  0  0  0
   23.1974   -4.0097  -17.2096 C   0  0  0  0  0  0  0  0  0  0  0  0
   21.3152   -4.0560  -14.4316 C   0  0  0  0  0  0  0  0  0  0  0  0
   22.2705   -3.1882  -13.9401 O   0  0  0  0  0  0  0  0  0  0  0  0
   20.2090   -3.5794  -14.7833 O   0  0  0  0  0  0  0  0  0  0  0  0
  2  5  1  0
  2  3  1  0
  2  1  1  1
  4  3  1  0
  5  6  2  0
  7  8  1  0
  9  8  1  1
  9 11  1  0
 10  9  1  0
 10  5  1  0
 11 12  2  0
 11 13  1  0
 13 14  1  0
 14 22  1  0
 14 15  1  6
 16 15  1  0
 16 17  2  0
 18 17  1  0
 19 18  2  0
 20 21  2  0
 20 19  1  0
 21 16  1  0
 22 24  2  0
 22 23  1  0
M  END
$$$$
