CSF.pdb
     RDKit          3D

 24 24  0  0  1  0  0  0  0  0999 V2000
   23.6867  -18.5394  -19.4713 N   0  0  0  0  0  0  0  0  0  0  0  0
   24.2736  -17.7426  -18.3801 C   0  0  1  0  0  0  0  0  0  0  0  0
   23.1084  -16.9338  -17.7918 C   0  0  0  0  0  0  0  0  0  0  0  0
   22.3813  -17.7635  -16.3836 S   0  0  0  0  0  0  0  0  0  0  0  0
   24.8398  -18.7082  -17.4173 C   0  0  0  0  0  0  0  0  0  0  0  0
   24.5048  -19.9187  -17.3614 O   0  0  0  0  0  0  0  0  0  0  0  0
   28.1118  -17.6614  -14.9835 O   0  0  0  0  0  0  0  0  0  0  0  0
   27.9533  -18.9581  -15.4739 C   0  0  0  0  0  0  0  0  0  0  0  0
   26.4585  -19.2549  -15.5714 C   0  0  2  0  0  0  0  0  0  0  0  0
   25.8417  -18.2788  -16.4636 N   0  0  0  0  0  0  0  0  0  0  0  0
   25.8524  -19.1995  -14.2423 C   0  0  0  0  0  0  0  0  0  0  0  0
   24.8977  -18.4097  -13.9692 O   0  0  0  0  0  0  0  0  0  0  0  0
   26.2925  -20.0247  -13.1856 N   0  0  0  0  0  0  0  0  0  0  0  0
   25.6827  -19.9580  -11.8548 C   0  0  1  0  0  0  0  0  0  0  0  0
   24.2288  -20.3587  -11.9951 C   0  0  0  0  0  0  0  0  0  0  0  0
   23.5248  -20.3639  -10.7019 C   0  0  0  0  0  0  0  0  0  0  0  0
   24.0176  -21.0960   -9.6132 C   0  0  0  0  0  0  0  0  0  0  0  0
   23.3947  -21.1097   -8.3895 C   0  0  0  0  0  0  0  0  0  0  0  0
   22.2451  -20.3974   -8.1746 C   0  0  0  0  0  0  0  0  0  0  0  0
   21.7434  -19.6702   -9.2334 C   0  0  0  0  0  0  0  0  0  0  0  0
   22.3666  -19.6542  -10.4629 C   0  0  0  0  0  0  0  0  0  0  0  0
   26.4176  -20.7750  -10.8793 C   0  0  0  0  0  0  0  0  0  0  0  0
   26.7392  -22.0817  -11.1892 O   0  0  0  0  0  0  0  0  0  0  0  0
   26.7680  -20.3298   -9.7597 O   0  0  0  0  0  0  0  0  0  0  0  0
  2  5  1  0
  2  3  1  0
  2  1  1  6
  4  3  1  0
  5  6  2  0
  7  8  1  0
  9  8  1  1
  9 11  1  0
 10  9  1  0
 10  5  1  0
 11 12  2  0
 11 13  1  0
 13 14  1  0
 14 22  1  0
 14 15  1  6
 16 15  1  0
 16 17  2  0
 18 17  1  0
 19 18  2  0
 20 21  2  0
 20 19  1  0
 21 16  1  0
 22 24  2  0
 22 23  1  0
M  END
$$$$
