CSF.pdb
     RDKit          3D

 24 24  0  0  1  0  0  0  0  0999 V2000
   27.3061  -20.0924  -16.8465 N   0  0  0  0  0  0  0  0  0  0  0  0
   26.0627  -20.2140  -17.6271 C   0  0  1  0  0  0  0  0  0  0  0  0
   25.9776  -21.6926  -18.0330 C   0  0  0  0  0  0  0  0  0  0  0  0
   27.5682  -22.3188  -18.5605 S   0  0  0  0  0  0  0  0  0  0  0  0
   24.9648  -19.8065  -16.7278 C   0  0  0  0  0  0  0  0  0  0  0  0
   25.0734  -19.7390  -15.4772 O   0  0  0  0  0  0  0  0  0  0  0  0
   21.5428  -18.6877  -18.4810 O   0  0  0  0  0  0  0  0  0  0  0  0
   21.6130  -18.1683  -17.1878 C   0  0  0  0  0  0  0  0  0  0  0  0
   22.6038  -19.0095  -16.3861 C   0  0  2  0  0  0  0  0  0  0  0  0
   23.6707  -19.4559  -17.2758 N   0  0  0  0  0  0  0  0  0  0  0  0
   21.9160  -20.1514  -15.7862 C   0  0  0  0  0  0  0  0  0  0  0  0
   21.7355  -21.2372  -16.4174 O   0  0  0  0  0  0  0  0  0  0  0  0
   21.4151  -20.1133  -14.4675 N   0  0  0  0  0  0  0  0  0  0  0  0
   20.6884  -21.2470  -13.8896 C   0  0  1  0  0  0  0  0  0  0  0  0
   21.4687  -21.7258  -12.6831 C   0  0  0  0  0  0  0  0  0  0  0  0
   22.7760  -22.2930  -13.0539 C   0  0  0  0  0  0  0  0  0  0  0  0
   23.9445  -21.5224  -12.9845 C   0  0  0  0  0  0  0  0  0  0  0  0
   25.1810  -22.0249  -13.3076 C   0  0  0  0  0  0  0  0  0  0  0  0
   25.3302  -23.3223  -13.7193 C   0  0  0  0  0  0  0  0  0  0  0  0
   24.1923  -24.0976  -13.7947 C   0  0  0  0  0  0  0  0  0  0  0  0
   22.9497  -23.5962  -13.4707 C   0  0  0  0  0  0  0  0  0  0  0  0
   19.2958  -20.8971  -13.5778 C   0  0  0  0  0  0  0  0  0  0  0  0
   18.4072  -21.8914  -13.2188 O   0  0  0  0  0  0  0  0  0  0  0  0
   18.8733  -19.7166  -13.6270 O   0  0  0  0  0  0  0  0  0  0  0  0
  2  5  1  0
  2  3  1  0
  2  1  1  1
  4  3  1  0
  5  6  2  0
  7  8  1  0
  9  8  1  6
  9 11  1  0
 10  9  1  0
 10  5  1  0
 11 12  2  0
 11 13  1  0
 13 14  1  0
 14 22  1  0
 14 15  1  1
 16 15  1  0
 16 17  2  0
 18 17  1  0
 19 18  2  0
 20 21  2  0
 20 19  1  0
 21 16  1  0
 22 24  2  0
 22 23  1  0
M  END
$$$$
