CSF.pdb
     RDKit          3D

 24 24  0  0  1  0  0  0  0  0999 V2000
   27.6539  -20.5653  -16.2893 N   0  0  0  0  0  0  0  0  0  0  0  0
   28.4658  -20.2658  -15.0972 C   0  0  1  0  0  0  0  0  0  0  0  0
   29.5556  -19.2965  -15.5774 C   0  0  0  0  0  0  0  0  0  0  0  0
   28.8771  -17.6856  -15.9582 S   0  0  0  0  0  0  0  0  0  0  0  0
   27.5512  -19.6521  -14.1138 C   0  0  0  0  0  0  0  0  0  0  0  0
   27.3847  -18.4120  -13.9921 O   0  0  0  0  0  0  0  0  0  0  0  0
   24.0570  -21.0917  -13.2849 O   0  0  0  0  0  0  0  0  0  0  0  0
   24.4675  -19.7972  -12.9643 C   0  0  0  0  0  0  0  0  0  0  0  0
   25.8348  -19.8807  -12.2894 C   0  0  2  0  0  0  0  0  0  0  0  0
   26.7817  -20.4902  -13.2175 N   0  0  0  0  0  0  0  0  0  0  0  0
   25.7357  -20.6644  -11.0594 C   0  0  0  0  0  0  0  0  0  0  0  0
   26.0653  -21.8887  -11.0117 O   0  0  0  0  0  0  0  0  0  0  0  0
   25.2702  -20.1029   -9.8514 N   0  0  0  0  0  0  0  0  0  0  0  0
   25.0584  -20.9227   -8.6555 C   0  0  1  0  0  0  0  0  0  0  0  0
   25.4095  -20.0758   -7.4499 C   0  0  0  0  0  0  0  0  0  0  0  0
   26.8638  -19.9802   -7.2403 C   0  0  0  0  0  0  0  0  0  0  0  0
   27.4273  -18.8867   -6.5690 C   0  0  0  0  0  0  0  0  0  0  0  0
   28.7771  -18.7743   -6.3428 C   0  0  0  0  0  0  0  0  0  0  0  0
   29.6474  -19.7413   -6.7704 C   0  0  0  0  0  0  0  0  0  0  0  0
   29.1130  -20.8258   -7.4335 C   0  0  0  0  0  0  0  0  0  0  0  0
   27.7584  -20.9416   -7.6617 C   0  0  0  0  0  0  0  0  0  0  0  0
   23.6943  -21.4665   -8.6045 C   0  0  0  0  0  0  0  0  0  0  0  0
   23.3620  -22.3832   -7.6267 O   0  0  0  0  0  0  0  0  0  0  0  0
   22.8067  -21.1300   -9.4251 O   0  0  0  0  0  0  0  0  0  0  0  0
  2  5  1  0
  2  3  1  0
  2  1  1  6
  4  3  1  0
  5  6  2  0
  7  8  1  0
  9  8  1  6
  9 11  1  0
 10  9  1  0
 10  5  1  0
 11 12  2  0
 11 13  1  0
 13 14  1  0
 14 22  1  0
 14 15  1  1
 16 15  1  0
 16 17  2  0
 18 17  1  0
 19 18  2  0
 20 21  2  0
 20 19  1  0
 21 16  1  0
 22 24  2  0
 22 23  1  0
M  END
$$$$
