CSF.pdb
     RDKit          3D

 24 24  0  0  1  0  0  0  0  0999 V2000
   18.2743  -12.3525  -16.8880 N   0  0  0  0  0  0  0  0  0  0  0  0
   17.6679  -11.2884  -16.0696 C   0  0  1  0  0  0  0  0  0  0  0  0
   17.7440  -11.7928  -14.6212 C   0  0  0  0  0  0  0  0  0  0  0  0
   16.2930  -12.7425  -14.1819 S   0  0  0  0  0  0  0  0  0  0  0  0
   18.4806  -10.0762  -16.2937 C   0  0  0  0  0  0  0  0  0  0  0  0
   19.7366  -10.0760  -16.3469 O   0  0  0  0  0  0  0  0  0  0  0  0
   16.7046   -6.2924  -16.2277 O   0  0  0  0  0  0  0  0  0  0  0  0
   17.7481   -6.4590  -17.1390 C   0  0  0  0  0  0  0  0  0  0  0  0
   18.6445   -7.5904  -16.6405 C   0  0  2  0  0  0  0  0  0  0  0  0
   17.8344   -8.7916  -16.4672 N   0  0  0  0  0  0  0  0  0  0  0  0
   19.2781   -7.2051  -15.3807 C   0  0  0  0  0  0  0  0  0  0  0  0
   18.7396   -7.4392  -14.2560 O   0  0  0  0  0  0  0  0  0  0  0  0
   20.5286   -6.5524  -15.3425 N   0  0  0  0  0  0  0  0  0  0  0  0
   21.1242   -6.1085  -14.0794 C   0  0  1  0  0  0  0  0  0  0  0  0
   22.3504   -6.9605  -13.8253 C   0  0  0  0  0  0  0  0  0  0  0  0
   23.2713   -6.9687  -14.9742 C   0  0  0  0  0  0  0  0  0  0  0  0
   24.0278   -5.8356  -15.3027 C   0  0  0  0  0  0  0  0  0  0  0  0
   24.9071   -5.8146  -16.3572 C   0  0  0  0  0  0  0  0  0  0  0  0
   25.0870   -6.9178  -17.1483 C   0  0  0  0  0  0  0  0  0  0  0  0
   24.3517   -8.0434  -16.8420 C   0  0  0  0  0  0  0  0  0  0  0  0
   23.4685   -8.0676  -15.7839 C   0  0  0  0  0  0  0  0  0  0  0  0
   21.4120   -4.6675  -14.0916 C   0  0  0  0  0  0  0  0  0  0  0  0
   21.8959   -4.0594  -12.9502 O   0  0  0  0  0  0  0  0  0  0  0  0
   21.2317   -3.9559  -15.1092 O   0  0  0  0  0  0  0  0  0  0  0  0
  2  5  1  0
  2  3  1  0
  2  1  1  6
  4  3  1  0
  5  6  2  0
  7  8  1  0
  9  8  1  1
  9 11  1  0
 10  9  1  0
 10  5  1  0
 11 12  2  0
 11 13  1  0
 13 14  1  0
 14 22  1  0
 14 15  1  6
 16 15  1  0
 16 17  2  0
 18 17  1  0
 19 18  2  0
 20 21  2  0
 20 19  1  0
 21 16  1  0
 22 24  2  0
 22 23  1  0
M  END
$$$$
