RQD.pdb
     RDKit          3D

 29 28  0  0  1  0  0  0  0  0999 V2000
    9.5858  -14.8350   15.9500 N   0  0  0  0  0  0  0  0  0  0  0  0
    8.2870  -14.5624   16.4737 C   0  0  0  0  0  0  0  0  0  0  0  0
    7.5129  -13.7521   15.8528 N   0  0  0  0  0  0  0  0  0  0  0  0
    7.8071  -15.1551   17.6638 N   0  0  0  0  0  0  0  0  0  0  0  0
    8.4753  -15.0243   18.9366 C   0  0  0  0  0  0  0  0  0  0  0  0
    8.4576  -13.5538   19.3173 C   0  0  0  0  0  0  0  0  0  0  0  0
    7.7500  -13.2990   20.5980 C   0  0  0  0  0  0  0  0  0  0  0  0
    7.6953  -14.5179   21.4715 C   0  0  2  0  0  0  0  0  0  0  0  0
    6.5256  -14.3553   22.3654 N   0  0  0  0  0  0  0  0  0  0  0  0
    8.8656  -14.5178   22.3780 C   0  0  0  0  0  0  0  0  0  0  0  0
    8.9812  -13.6276   23.2551 O   0  0  0  0  0  0  0  0  0  0  0  0
    6.5287  -13.5424   16.1104 N   0  0  0  0  0  0  0  0  0  0  0  0
   10.9051  -17.7605   26.4775 C   0  0  0  0  0  0  0  0  0  0  0  0
   10.7033  -18.4709   25.2740 O   0  0  0  0  0  0  0  0  0  0  0  0
   10.6084  -19.7140   25.2545 C   0  0  0  0  0  0  0  0  0  0  0  0
   10.6084  -17.6557   24.0156 C   0  0  0  0  0  0  0  0  0  0  0  0
   10.8139  -16.2195   24.3958 C   0  0  1  0  0  0  0  0  0  0  0  0
   11.0541  -15.4050   23.1569 N   0  0  0  0  0  0  0  0  0  0  0  0
    9.8939  -15.5060   22.2997 C   0  0  0  0  0  0  0  0  0  0  0  0
   12.2171  -15.8829   22.3649 O   0  0  0  0  0  0  0  0  0  0  0  0
   12.1983  -16.9601   21.7173 N   0  0  0  0  0  0  0  0  0  0  0  0
   13.4002  -15.0916   22.3368 C   0  0  1  0  0  0  0  0  0  0  0  0
   14.5644  -15.5373   21.6134 C   0  0  0  0  0  0  0  0  0  0  0  0
   15.2198  -14.3982   20.8820 C   0  0  0  0  0  0  0  0  0  0  0  0
   14.5088  -14.1003   19.6264 O   0  0  0  0  0  0  0  0  0  0  0  0
   13.5752  -14.8195   19.2150 C   0  0  0  0  0  0  0  0  0  0  0  0
   15.5123  -16.1803   22.5703 O   0  0  0  0  0  0  0  0  0  0  0  0
   16.6458  -16.8595   22.1287 O   0  0  0  0  0  0  0  0  0  0  0  0
   14.8502  -13.0014   18.8460 O   0  0  0  0  0  0  0  0  0  0  0  0
  1  2  1  0
  2  3  2  0
  4  5  1  0
  4  2  1  0
  6  5  1  0
  7  6  1  0
  8  7  1  0
  8  9  1  1
 10  8  1  0
 10 11  2  0
 12 13  1  0
 13 14  2  0
 15 16  1  0
 15 13  1  0
 17 16  1  1
 17 18  1  0
 18 10  1  0
 19 17  1  0
 20 19  2  0
 21 19  1  0
 22 21  1  0
 22 26  1  0
 22 23  1  6
 24 23  1  0
 24 25  2  0
 26 27  1  0
 28 24  1  0
 29 26  2  0
M  END
$$$$
