RQD.pdb
     RDKit          3D

 29 28  0  0  1  0  0  0  0  0999 V2000
    9.2572  -16.4770   14.6537 N   0  0  0  0  0  0  0  0  0  0  0  0
    7.9067  -16.0941   14.9091 C   0  0  0  0  0  0  0  0  0  0  0  0
    6.9554  -16.9004   14.6156 N   0  0  0  0  0  0  0  0  0  0  0  0
    7.5648  -14.8475   15.4808 N   0  0  0  0  0  0  0  0  0  0  0  0
    8.1766  -14.3358   16.6840 C   0  0  0  0  0  0  0  0  0  0  0  0
    7.9304  -15.3459   17.7916 C   0  0  0  0  0  0  0  0  0  0  0  0
    8.5982  -14.9773   19.0659 C   0  0  0  0  0  0  0  0  0  0  0  0
    7.9231  -13.8256   19.7510 C   0  0  2  0  0  0  0  0  0  0  0  0
    8.3998  -12.5901   19.0875 N   0  0  0  0  0  0  0  0  0  0  0  0
    8.4253  -13.7255   21.1400 C   0  0  0  0  0  0  0  0  0  0  0  0
    9.5780  -13.2811   21.3611 O   0  0  0  0  0  0  0  0  0  0  0  0
    5.9453  -16.7276   14.7855 N   0  0  0  0  0  0  0  0  0  0  0  0
    5.1682  -12.7902   26.1361 C   0  0  0  0  0  0  0  0  0  0  0  0
    6.4487  -12.7852   26.7312 O   0  0  0  0  0  0  0  0  0  0  0  0
    6.6277  -12.3838   27.8981 C   0  0  0  0  0  0  0  0  0  0  0  0
    7.5873  -13.2876   25.8896 C   0  0  0  0  0  0  0  0  0  0  0  0
    7.0399  -13.5800   24.5242 C   0  0  2  0  0  0  0  0  0  0  0  0
    8.1676  -13.9488   23.6031 N   0  0  0  0  0  0  0  0  0  0  0  0
    7.6418  -14.1203   22.2670 C   0  0  0  0  0  0  0  0  0  0  0  0
    8.8249  -15.2288   23.9743 O   0  0  0  0  0  0  0  0  0  0  0  0
    8.5214  -16.3254   23.4402 N   0  0  0  0  0  0  0  0  0  0  0  0
    9.8386  -15.2152   24.9738 C   0  0  2  0  0  0  0  0  0  0  0  0
   10.4303  -16.4455   25.4359 C   0  0  0  0  0  0  0  0  0  0  0  0
    9.3761  -17.4662   25.7654 C   0  0  0  0  0  0  0  0  0  0  0  0
    9.5605  -17.9917   27.1296 O   0  0  0  0  0  0  0  0  0  0  0  0
   10.1761  -17.3467   28.0031 C   0  0  0  0  0  0  0  0  0  0  0  0
   11.3663  -16.9551   24.3909 O   0  0  0  0  0  0  0  0  0  0  0  0
   11.0992  -16.7971   23.0328 O   0  0  0  0  0  0  0  0  0  0  0  0
    9.0538  -19.2322   27.5006 O   0  0  0  0  0  0  0  0  0  0  0  0
  1  2  1  0
  2  3  2  0
  4  5  1  0
  4  2  1  0
  6  5  1  0
  7  6  1  0
  8  7  1  0
  8  9  1  6
 10  8  1  0
 10 11  2  0
 12 13  1  0
 13 14  2  0
 15 16  1  0
 15 13  1  0
 17 16  1  6
 17 18  1  0
 18 10  1  0
 19 17  1  0
 20 19  2  0
 21 19  1  0
 22 21  1  0
 22 26  1  0
 22 23  1  1
 24 23  1  0
 24 25  2  0
 26 27  1  0
 28 24  1  0
 29 26  2  0
M  END
$$$$
