RQD.pdb
     RDKit          3D

 29 28  0  0  1  0  0  0  0  0999 V2000
    8.8873  -17.2824   13.9872 N   0  0  0  0  0  0  0  0  0  0  0  0
    8.4221  -16.2459   14.8503 C   0  0  0  0  0  0  0  0  0  0  0  0
    7.3437  -15.6184   14.5595 N   0  0  0  0  0  0  0  0  0  0  0  0
    9.1061  -15.8744   16.0301 N   0  0  0  0  0  0  0  0  0  0  0  0
    8.7480  -16.3663   17.3391 C   0  0  0  0  0  0  0  0  0  0  0  0
    7.9538  -15.2770   18.0393 C   0  0  0  0  0  0  0  0  0  0  0  0
    8.6458  -14.7406   19.2389 C   0  0  0  0  0  0  0  0  0  0  0  0
    7.7773  -13.8047   20.0273 C   0  0  2  0  0  0  0  0  0  0  0  0
    7.9649  -12.4536   19.4502 N   0  0  0  0  0  0  0  0  0  0  0  0
    8.3030  -13.7018   21.4073 C   0  0  0  0  0  0  0  0  0  0  0  0
    9.4647  -13.2705   21.6069 O   0  0  0  0  0  0  0  0  0  0  0  0
    6.8976  -14.8844   15.1437 N   0  0  0  0  0  0  0  0  0  0  0  0
    5.6481  -11.6979   26.3082 C   0  0  0  0  0  0  0  0  0  0  0  0
    6.6352  -12.4428   26.9898 O   0  0  0  0  0  0  0  0  0  0  0  0
    6.6502  -12.5273   28.2337 C   0  0  0  0  0  0  0  0  0  0  0  0
    7.6685  -13.1300   26.1429 C   0  0  0  0  0  0  0  0  0  0  0  0
    7.0899  -13.2845   24.7678 C   0  0  2  0  0  0  0  0  0  0  0  0
    8.0990  -13.9462   23.8735 N   0  0  0  0  0  0  0  0  0  0  0  0
    7.5329  -14.0792   22.5495 C   0  0  0  0  0  0  0  0  0  0  0  0
    8.4650  -15.3141   24.3242 O   0  0  0  0  0  0  0  0  0  0  0  0
    7.6648  -16.2819   24.2684 N   0  0  0  0  0  0  0  0  0  0  0  0
    9.7726  -15.5400   24.8398 C   0  0  1  0  0  0  0  0  0  0  0  0
   10.1572  -16.8433   25.3199 C   0  0  0  0  0  0  0  0  0  0  0  0
   11.6408  -17.0542   25.1928 C   0  0  0  0  0  0  0  0  0  0  0  0
   12.0523  -17.0597   23.7779 O   0  0  0  0  0  0  0  0  0  0  0  0
   11.3941  -17.6632   22.9060 C   0  0  0  0  0  0  0  0  0  0  0  0
    9.7115  -16.9883   26.7371 O   0  0  0  0  0  0  0  0  0  0  0  0
   10.2622  -16.2161   27.7575 O   0  0  0  0  0  0  0  0  0  0  0  0
   13.1949  -16.3896   23.3553 O   0  0  0  0  0  0  0  0  0  0  0  0
  1  2  1  0
  2  3  2  0
  4  5  1  0
  4  2  1  0
  6  5  1  0
  7  6  1  0
  8  7  1  0
  8  9  1  6
 10  8  1  0
 10 11  2  0
 12 13  1  0
 13 14  2  0
 15 16  1  0
 15 13  1  0
 17 16  1  6
 17 18  1  0
 18 10  1  0
 19 17  1  0
 20 19  2  0
 21 19  1  0
 22 21  1  0
 22 26  1  0
 22 23  1  1
 24 23  1  0
 24 25  2  0
 26 27  1  0
 28 24  1  0
 29 26  2  0
M  END
$$$$
