RQD.pdb
     RDKit          3D

 29 28  0  0  1  0  0  0  0  0999 V2000
    8.0748  -13.7262   14.4353 N   0  0  0  0  0  0  0  0  0  0  0  0
    7.4407  -13.6624   15.7119 C   0  0  0  0  0  0  0  0  0  0  0  0
    7.0937  -12.5250   16.1885 N   0  0  0  0  0  0  0  0  0  0  0  0
    7.1728  -14.8140   16.4863 N   0  0  0  0  0  0  0  0  0  0  0  0
    6.6369  -14.7584   17.8255 C   0  0  0  0  0  0  0  0  0  0  0  0
    7.3284  -15.8356   18.6436 C   0  0  0  0  0  0  0  0  0  0  0  0
    7.7604  -15.3548   19.9807 C   0  0  0  0  0  0  0  0  0  0  0  0
    6.9143  -15.9119   21.0877 C   0  0  2  0  0  0  0  0  0  0  0  0
    5.6005  -15.2325   21.0096 N   0  0  0  0  0  0  0  0  0  0  0  0
    7.4799  -15.4909   22.3893 C   0  0  0  0  0  0  0  0  0  0  0  0
    6.8813  -14.6373   23.0882 O   0  0  0  0  0  0  0  0  0  0  0  0
    6.6593  -12.3691   17.1191 N   0  0  0  0  0  0  0  0  0  0  0  0
    7.0581  -17.7769   27.2549 C   0  0  0  0  0  0  0  0  0  0  0  0
    8.0778  -18.3424   26.4585 O   0  0  0  0  0  0  0  0  0  0  0  0
    8.7815  -19.2869   26.8678 C   0  0  0  0  0  0  0  0  0  0  0  0
    8.2748  -17.7504   25.0918 C   0  0  0  0  0  0  0  0  0  0  0  0
    8.2518  -16.2583   25.2425 C   0  0  1  0  0  0  0  0  0  0  0  0
    9.1588  -15.6394   24.2176 N   0  0  0  0  0  0  0  0  0  0  0  0
    8.7035  -16.0223   22.8996 C   0  0  0  0  0  0  0  0  0  0  0  0
   10.5671  -16.0984   24.3365 O   0  0  0  0  0  0  0  0  0  0  0  0
   11.1957  -16.0792   25.4249 N   0  0  0  0  0  0  0  0  0  0  0  0
   11.2328  -16.5794   23.1737 C   0  0  2  0  0  0  0  0  0  0  0  0
   12.6327  -16.9193   23.2171 C   0  0  0  0  0  0  0  0  0  0  0  0
   13.4861  -15.6917   23.3794 C   0  0  0  0  0  0  0  0  0  0  0  0
   14.9180  -16.0344   23.3199 O   0  0  0  0  0  0  0  0  0  0  0  0
   15.3832  -16.7518   22.4106 C   0  0  0  0  0  0  0  0  0  0  0  0
   12.8618  -17.8864   24.3307 O   0  0  0  0  0  0  0  0  0  0  0  0
   13.9602  -18.7435   24.3380 O   0  0  0  0  0  0  0  0  0  0  0  0
   15.8123  -15.5703   24.2779 O   0  0  0  0  0  0  0  0  0  0  0  0
  1  2  1  0
  2  3  2  0
  4  5  1  0
  4  2  1  0
  6  5  1  0
  7  6  1  0
  8  7  1  0
  8  9  1  6
 10  8  1  0
 10 11  2  0
 12 13  1  0
 13 14  2  0
 15 16  1  0
 15 13  1  0
 17 16  1  6
 17 18  1  0
 18 10  1  0
 19 17  1  0
 20 19  2  0
 21 19  1  0
 22 21  1  0
 22 26  1  0
 22 23  1  6
 24 23  1  0
 24 25  2  0
 26 27  1  0
 28 24  1  0
 29 26  2  0
M  END
$$$$
