RQD.pdb
     RDKit          3D

 29 28  0  0  1  0  0  0  0  0999 V2000
    7.7356  -15.2295   12.5639 N   0  0  0  0  0  0  0  0  0  0  0  0
    8.0157  -14.7468   13.8770 C   0  0  0  0  0  0  0  0  0  0  0  0
    7.8875  -13.4977   14.1313 N   0  0  0  0  0  0  0  0  0  0  0  0
    8.4335  -15.5963   14.9265 N   0  0  0  0  0  0  0  0  0  0  0  0
    9.1688  -15.1278   16.0770 C   0  0  0  0  0  0  0  0  0  0  0  0
    8.1864  -14.9926   17.2279 C   0  0  0  0  0  0  0  0  0  0  0  0
    8.8314  -14.5341   18.4846 C   0  0  0  0  0  0  0  0  0  0  0  0
    7.8512  -14.4008   19.6129 C   0  0  2  0  0  0  0  0  0  0  0  0
    7.0599  -13.1758   19.3538 N   0  0  0  0  0  0  0  0  0  0  0  0
    8.5883  -14.1159   20.8646 C   0  0  0  0  0  0  0  0  0  0  0  0
    8.9088  -12.9367   21.1509 O   0  0  0  0  0  0  0  0  0  0  0  0
    8.1197  -13.0400   15.0344 N   0  0  0  0  0  0  0  0  0  0  0  0
    5.5426  -15.0962   25.3951 C   0  0  0  0  0  0  0  0  0  0  0  0
    6.9268  -14.8225   25.4485 O   0  0  0  0  0  0  0  0  0  0  0  0
    7.4337  -14.1881   26.3947 C   0  0  0  0  0  0  0  0  0  0  0  0
    7.7613  -15.3332   24.3083 C   0  0  0  0  0  0  0  0  0  0  0  0
    8.8100  -14.2996   24.0228 C   0  0  1  0  0  0  0  0  0  0  0  0
    9.7373  -14.8109   22.9575 N   0  0  0  0  0  0  0  0  0  0  0  0
    8.9612  -15.1437   21.7837 C   0  0  0  0  0  0  0  0  0  0  0  0
   10.4590  -16.0459   23.3605 O   0  0  0  0  0  0  0  0  0  0  0  0
    9.9191  -17.1809   23.3450 N   0  0  0  0  0  0  0  0  0  0  0  0
   11.8151  -15.9421   23.7809 C   0  0  1  0  0  0  0  0  0  0  0  0
   12.5507  -17.1145   24.1827 C   0  0  0  0  0  0  0  0  0  0  0  0
   14.0329  -16.8604   24.1628 C   0  0  0  0  0  0  0  0  0  0  0  0
   14.4652  -16.3699   22.8423 O   0  0  0  0  0  0  0  0  0  0  0  0
   13.9668  -16.8075   21.7850 C   0  0  0  0  0  0  0  0  0  0  0  0
   12.0933  -17.5314   25.5410 O   0  0  0  0  0  0  0  0  0  0  0  0
   12.5303  -18.7181   26.1255 O   0  0  0  0  0  0  0  0  0  0  0  0
   15.4494  -15.3955   22.7204 O   0  0  0  0  0  0  0  0  0  0  0  0
  1  2  1  0
  2  3  2  0
  4  5  1  0
  4  2  1  0
  6  5  1  0
  7  6  1  0
  8  7  1  0
  8  9  1  6
 10  8  1  0
 10 11  2  0
 12 13  1  0
 13 14  2  0
 15 16  1  0
 15 13  1  0
 17 16  1  6
 17 18  1  0
 18 10  1  0
 19 17  1  0
 20 19  2  0
 21 19  1  0
 22 21  1  0
 22 26  1  0
 22 23  1  1
 24 23  1  0
 24 25  2  0
 26 27  1  0
 28 24  1  0
 29 26  2  0
M  END
$$$$
