RQD.pdb
     RDKit          3D

 29 28  0  0  1  0  0  0  0  0999 V2000
    7.1345  -12.7009   17.5461 N   0  0  0  0  0  0  0  0  0  0  0  0
    7.8355  -12.7099   18.7888 C   0  0  0  0  0  0  0  0  0  0  0  0
    7.7106  -11.7192   19.5915 N   0  0  0  0  0  0  0  0  0  0  0  0
    8.6733  -13.7783   19.1816 N   0  0  0  0  0  0  0  0  0  0  0  0
    8.8280  -14.9868   18.4074 C   0  0  0  0  0  0  0  0  0  0  0  0
    7.6223  -15.8686   18.6839 C   0  0  0  0  0  0  0  0  0  0  0  0
    7.9413  -17.0200   19.5661 C   0  0  0  0  0  0  0  0  0  0  0  0
    7.0489  -17.0795   20.7710 C   0  0  2  0  0  0  0  0  0  0  0  0
    5.8328  -16.2992   20.4454 N   0  0  0  0  0  0  0  0  0  0  0  0
    7.6858  -16.3387   21.8832 C   0  0  0  0  0  0  0  0  0  0  0  0
    7.4299  -15.1222   22.0561 O   0  0  0  0  0  0  0  0  0  0  0  0
    8.2544  -11.5799   20.4655 N   0  0  0  0  0  0  0  0  0  0  0  0
    7.7697  -13.0396   26.2935 C   0  0  0  0  0  0  0  0  0  0  0  0
    6.8776  -13.6711   25.3995 O   0  0  0  0  0  0  0  0  0  0  0  0
    5.6424  -13.6230   25.5626 C   0  0  0  0  0  0  0  0  0  0  0  0
    7.4892  -14.4053   24.2402 C   0  0  0  0  0  0  0  0  0  0  0  0
    7.9655  -15.7324   24.7515 C   0  0  2  0  0  0  0  0  0  0  0  0
    9.1175  -16.2061   23.9120 N   0  0  0  0  0  0  0  0  0  0  0  0
    8.5996  -16.9572   22.7901 C   0  0  0  0  0  0  0  0  0  0  0  0
   10.0378  -17.1116   24.6479 O   0  0  0  0  0  0  0  0  0  0  0  0
    9.7115  -18.2764   24.9896 N   0  0  0  0  0  0  0  0  0  0  0  0
   11.3407  -16.6438   24.9801 C   0  0  1  0  0  0  0  0  0  0  0  0
   12.2981  -17.5210   25.6054 C   0  0  0  0  0  0  0  0  0  0  0  0
   13.7041  -17.0301   25.3957 C   0  0  0  0  0  0  0  0  0  0  0  0
   14.0443  -17.0039   23.9623 O   0  0  0  0  0  0  0  0  0  0  0  0
   13.2438  -17.4017   23.0912 C   0  0  0  0  0  0  0  0  0  0  0  0
   11.9767  -17.6314   27.0588 O   0  0  0  0  0  0  0  0  0  0  0  0
   10.9953  -16.8394   27.6510 O   0  0  0  0  0  0  0  0  0  0  0  0
   15.2755  -16.5328   23.5204 O   0  0  0  0  0  0  0  0  0  0  0  0
  1  2  1  0
  2  3  2  0
  4  5  1  0
  4  2  1  0
  6  5  1  0
  7  6  1  0
  8  7  1  0
  8  9  1  6
 10  8  1  0
 10 11  2  0
 12 13  1  0
 13 14  2  0
 15 16  1  0
 15 13  1  0
 17 16  1  6
 17 18  1  0
 18 10  1  0
 19 17  1  0
 20 19  2  0
 21 19  1  0
 22 21  1  0
 22 26  1  0
 22 23  1  1
 24 23  1  0
 24 25  2  0
 26 27  1  0
 28 24  1  0
 29 26  2  0
M  END
$$$$
