RQD.pdb
     RDKit          3D

 29 28  0  0  1  0  0  0  0  0999 V2000
    7.9960  -12.7848   17.6126 N   0  0  0  0  0  0  0  0  0  0  0  0
    8.0898  -12.7299   19.0352 C   0  0  0  0  0  0  0  0  0  0  0  0
    8.4618  -11.6429   19.6021 N   0  0  0  0  0  0  0  0  0  0  0  0
    7.7856  -13.8361   19.8607 N   0  0  0  0  0  0  0  0  0  0  0  0
    7.2111  -15.0618   19.3591 C   0  0  0  0  0  0  0  0  0  0  0  0
    5.9746  -15.3641   20.1883 C   0  0  0  0  0  0  0  0  0  0  0  0
    6.2735  -15.5088   21.6359 C   0  0  0  0  0  0  0  0  0  0  0  0
    6.9355  -16.8175   21.9534 C   0  0  2  0  0  0  0  0  0  0  0  0
    5.8566  -17.8217   22.1003 N   0  0  0  0  0  0  0  0  0  0  0  0
    7.5577  -16.7336   23.2941 C   0  0  0  0  0  0  0  0  0  0  0  0
    6.9481  -16.1707   24.2358 O   0  0  0  0  0  0  0  0  0  0  0  0
    8.6327  -11.5220   20.6195 N   0  0  0  0  0  0  0  0  0  0  0  0
    6.8370  -19.3666   27.3713 C   0  0  0  0  0  0  0  0  0  0  0  0
    8.0154  -18.9300   28.0152 O   0  0  0  0  0  0  0  0  0  0  0  0
    8.2401  -19.1854   29.2148 C   0  0  0  0  0  0  0  0  0  0  0  0
    8.9873  -18.1413   27.1842 C   0  0  0  0  0  0  0  0  0  0  0  0
    8.4003  -18.0128   25.8101 C   0  0  1  0  0  0  0  0  0  0  0  0
    9.3565  -17.2627   24.9273 N   0  0  0  0  0  0  0  0  0  0  0  0
    8.8494  -17.2754   23.5732 C   0  0  0  0  0  0  0  0  0  0  0  0
   10.7098  -17.8751   24.8857 O   0  0  0  0  0  0  0  0  0  0  0  0
   10.8887  -19.1158   24.7936 N   0  0  0  0  0  0  0  0  0  0  0  0
   11.8501  -17.0253   24.9527 C   0  0  1  0  0  0  0  0  0  0  0  0
   13.1804  -17.5760   24.8905 C   0  0  0  0  0  0  0  0  0  0  0  0
   14.1903  -16.5204   24.5334 C   0  0  0  0  0  0  0  0  0  0  0  0
   13.9833  -16.0381   23.1565 O   0  0  0  0  0  0  0  0  0  0  0  0
   14.3454  -14.8982   22.7996 C   0  0  0  0  0  0  0  0  0  0  0  0
   13.5040  -18.2099   26.2025 O   0  0  0  0  0  0  0  0  0  0  0  0
   14.6928  -18.9085   26.4016 O   0  0  0  0  0  0  0  0  0  0  0  0
   13.3739  -16.8368   22.1953 O   0  0  0  0  0  0  0  0  0  0  0  0
  1  2  1  0
  2  3  2  0
  4  5  1  0
  4  2  1  0
  6  5  1  0
  7  6  1  0
  8  7  1  0
  8  9  1  1
 10  8  1  0
 10 11  2  0
 12 13  1  0
 13 14  2  0
 15 16  1  0
 15 13  1  0
 17 16  1  1
 17 18  1  0
 18 10  1  0
 19 17  1  0
 20 19  2  0
 21 19  1  0
 22 21  1  0
 22 26  1  0
 22 23  1  1
 24 23  1  0
 24 25  2  0
 26 27  1  0
 28 24  1  0
 29 26  2  0
M  END
$$$$
