RQD.pdb
     RDKit          3D

 29 28  0  0  1  0  0  0  0  0999 V2000
    8.4846  -11.6705   18.8026 N   0  0  0  0  0  0  0  0  0  0  0  0
    9.0369  -12.9850   18.7506 C   0  0  0  0  0  0  0  0  0  0  0  0
    9.8002  -13.3112   17.7747 N   0  0  0  0  0  0  0  0  0  0  0  0
    8.7776  -13.9586   19.7419 N   0  0  0  0  0  0  0  0  0  0  0  0
    7.5750  -13.9723   20.5402 C   0  0  0  0  0  0  0  0  0  0  0  0
    7.9916  -14.0382   21.9996 C   0  0  0  0  0  0  0  0  0  0  0  0
    9.0122  -15.0851   22.2603 C   0  0  0  0  0  0  0  0  0  0  0  0
    8.3959  -16.4199   22.5609 C   0  0  2  0  0  0  0  0  0  0  0  0
    8.0135  -16.4056   23.9918 N   0  0  0  0  0  0  0  0  0  0  0  0
    9.4360  -17.4683   22.4589 C   0  0  0  0  0  0  0  0  0  0  0  0
   10.0767  -17.8194   23.4794 O   0  0  0  0  0  0  0  0  0  0  0  0
   10.2250  -14.2479   17.6293 N   0  0  0  0  0  0  0  0  0  0  0  0
   10.2615  -21.6104   18.0006 C   0  0  0  0  0  0  0  0  0  0  0  0
   11.4526  -21.8583   18.7172 O   0  0  0  0  0  0  0  0  0  0  0  0
   12.2190  -22.7932   18.4116 C   0  0  0  0  0  0  0  0  0  0  0  0
   11.7530  -20.9401   19.8678 C   0  0  0  0  0  0  0  0  0  0  0  0
   10.6252  -19.9558   19.9614 C   0  0  1  0  0  0  0  0  0  0  0  0
   10.8116  -19.0980   21.1803 N   0  0  0  0  0  0  0  0  0  0  0  0
    9.7526  -18.1144   21.2251 C   0  0  0  0  0  0  0  0  0  0  0  0
   12.0948  -18.3486   21.1714 O   0  0  0  0  0  0  0  0  0  0  0  0
   13.2070  -18.9087   21.3422 N   0  0  0  0  0  0  0  0  0  0  0  0
   12.0660  -16.9408   20.9614 C   0  0  1  0  0  0  0  0  0  0  0  0
   13.2686  -16.2255   20.6161 C   0  0  0  0  0  0  0  0  0  0  0  0
   12.9890  -15.1462   19.6067 C   0  0  0  0  0  0  0  0  0  0  0  0
   14.1979  -14.3460   19.3433 O   0  0  0  0  0  0  0  0  0  0  0  0
   15.3394  -14.7764   19.6072 C   0  0  0  0  0  0  0  0  0  0  0  0
   13.8687  -15.6584   21.8596 O   0  0  0  0  0  0  0  0  0  0  0  0
   15.1461  -15.1025   21.8651 O   0  0  0  0  0  0  0  0  0  0  0  0
   14.1155  -13.0742   18.7876 O   0  0  0  0  0  0  0  0  0  0  0  0
  1  2  1  0
  2  3  2  0
  4  5  1  0
  4  2  1  0
  6  5  1  0
  7  6  1  0
  8  7  1  0
  8  9  1  1
 10  8  1  0
 10 11  2  0
 12 13  1  0
 13 14  2  0
 15 16  1  0
 15 13  1  0
 17 16  1  1
 17 18  1  0
 18 10  1  0
 19 17  1  0
 20 19  2  0
 21 19  1  0
 22 21  1  0
 22 26  1  0
 22 23  1  1
 24 23  1  0
 24 25  2  0
 26 27  1  0
 28 24  1  0
 29 26  2  0
M  END
$$$$
