RQD.pdb
     RDKit          3D

 29 28  0  0  1  0  0  0  0  0999 V2000
   10.9703  -12.9349   19.3536 N   0  0  0  0  0  0  0  0  0  0  0  0
    9.7163  -12.3559   18.9963 C   0  0  0  0  0  0  0  0  0  0  0  0
    9.4229  -11.1796   19.4104 N   0  0  0  0  0  0  0  0  0  0  0  0
    8.7685  -13.0302   18.1932 N   0  0  0  0  0  0  0  0  0  0  0  0
    7.6468  -13.7577   18.7374 C   0  0  0  0  0  0  0  0  0  0  0  0
    8.1945  -14.7914   19.7065 C   0  0  0  0  0  0  0  0  0  0  0  0
    7.1279  -15.6024   20.3470 C   0  0  0  0  0  0  0  0  0  0  0  0
    7.6841  -16.6845   21.2252 C   0  0  2  0  0  0  0  0  0  0  0  0
    6.5291  -17.4448   21.7562 N   0  0  0  0  0  0  0  0  0  0  0  0
    8.3098  -16.0683   22.4169 C   0  0  0  0  0  0  0  0  0  0  0  0
    9.3976  -15.4517   22.3077 O   0  0  0  0  0  0  0  0  0  0  0  0
    8.5289  -10.6826   19.2290 N   0  0  0  0  0  0  0  0  0  0  0  0
    6.2282  -13.2361   27.1897 C   0  0  0  0  0  0  0  0  0  0  0  0
    6.6989  -12.6387   26.0000 O   0  0  0  0  0  0  0  0  0  0  0  0
    6.4533  -11.4482   25.7225 C   0  0  0  0  0  0  0  0  0  0  0  0
    7.5114  -13.5079   25.0827 C   0  0  0  0  0  0  0  0  0  0  0  0
    7.6364  -14.8529   25.7344 C   0  0  2  0  0  0  0  0  0  0  0  0
    8.4862  -15.7460   24.8762 N   0  0  0  0  0  0  0  0  0  0  0  0
    7.7207  -16.1441   23.7158 C   0  0  0  0  0  0  0  0  0  0  0  0
    8.8987  -16.9945   25.5686 O   0  0  0  0  0  0  0  0  0  0  0  0
    8.6197  -18.1376   25.1263 N   0  0  0  0  0  0  0  0  0  0  0  0
    9.6390  -16.8948   26.7805 C   0  0  1  0  0  0  0  0  0  0  0  0
   10.5017  -17.9688   27.2040 C   0  0  0  0  0  0  0  0  0  0  0  0
   11.5533  -18.2623   26.1698 C   0  0  0  0  0  0  0  0  0  0  0  0
   12.4779  -19.3082   26.6414 O   0  0  0  0  0  0  0  0  0  0  0  0
   12.0628  -20.3683   27.1529 C   0  0  0  0  0  0  0  0  0  0  0  0
   11.1195  -17.6060   28.5134 O   0  0  0  0  0  0  0  0  0  0  0  0
   10.8049  -16.4144   29.1631 O   0  0  0  0  0  0  0  0  0  0  0  0
   13.8558  -19.1559   26.5348 O   0  0  0  0  0  0  0  0  0  0  0  0
  1  2  1  0
  2  3  2  0
  4  5  1  0
  4  2  1  0
  6  5  1  0
  7  6  1  0
  8  7  1  0
  8  9  1  1
 10  8  1  0
 10 11  2  0
 12 13  1  0
 13 14  2  0
 15 16  1  0
 15 13  1  0
 17 16  1  6
 17 18  1  0
 18 10  1  0
 19 17  1  0
 20 19  2  0
 21 19  1  0
 22 21  1  0
 22 26  1  0
 22 23  1  1
 24 23  1  0
 24 25  2  0
 26 27  1  0
 28 24  1  0
 29 26  2  0
M  END
$$$$
