RQD.pdb
     RDKit          3D

 29 28  0  0  1  0  0  0  0  0999 V2000
   10.1895  -26.6949   13.6017 N   0  0  0  0  0  0  0  0  0  0  0  0
   10.0124  -26.9197   14.9994 C   0  0  0  0  0  0  0  0  0  0  0  0
   10.1892  -28.0950   15.4775 N   0  0  0  0  0  0  0  0  0  0  0  0
    9.6462  -25.8893   15.8950 N   0  0  0  0  0  0  0  0  0  0  0  0
    9.1013  -24.6241   15.4634 C   0  0  0  0  0  0  0  0  0  0  0  0
    9.9572  -23.5238   16.0672 C   0  0  0  0  0  0  0  0  0  0  0  0
   10.0499  -23.6130   17.5468 C   0  0  0  0  0  0  0  0  0  0  0  0
    9.1932  -22.5907   18.2344 C   0  0  2  0  0  0  0  0  0  0  0  0
   10.0273  -21.3800   18.4139 N   0  0  0  0  0  0  0  0  0  0  0  0
    8.8970  -23.0519   19.6095 C   0  0  0  0  0  0  0  0  0  0  0  0
    8.9853  -22.2528   20.5732 O   0  0  0  0  0  0  0  0  0  0  0  0
   10.2129  -28.3373   16.4874 N   0  0  0  0  0  0  0  0  0  0  0  0
    6.2873  -28.2383   21.5342 C   0  0  0  0  0  0  0  0  0  0  0  0
    6.3104  -27.5341   22.7579 O   0  0  0  0  0  0  0  0  0  0  0  0
    5.9556  -28.0671   23.8278 C   0  0  0  0  0  0  0  0  0  0  0  0
    6.7838  -26.1091   22.7089 C   0  0  0  0  0  0  0  0  0  0  0  0
    7.1592  -25.8105   21.2879 C   0  0  2  0  0  0  0  0  0  0  0  0
    8.2654  -24.7945   21.2671 N   0  0  0  0  0  0  0  0  0  0  0  0
    8.5064  -24.3951   19.8984 C   0  0  0  0  0  0  0  0  0  0  0  0
    9.5500  -25.3248   21.7931 O   0  0  0  0  0  0  0  0  0  0  0  0
    9.7697  -25.4700   23.0223 N   0  0  0  0  0  0  0  0  0  0  0  0
   10.5737  -25.6832   20.8710 C   0  0  1  0  0  0  0  0  0  0  0  0
   11.8241  -26.2275   21.3374 C   0  0  0  0  0  0  0  0  0  0  0  0
   12.8831  -26.1483   20.2725 C   0  0  0  0  0  0  0  0  0  0  0  0
   12.6467  -27.1516   19.2196 O   0  0  0  0  0  0  0  0  0  0  0  0
   11.8138  -28.0699   19.3640 C   0  0  0  0  0  0  0  0  0  0  0  0
   12.2419  -25.4947   22.5688 O   0  0  0  0  0  0  0  0  0  0  0  0
   12.5221  -26.1657   23.7572 O   0  0  0  0  0  0  0  0  0  0  0  0
   13.3446  -27.1155   18.0176 O   0  0  0  0  0  0  0  0  0  0  0  0
  1  2  1  0
  2  3  2  0
  4  5  1  0
  4  2  1  0
  6  5  1  0
  7  6  1  0
  8  7  1  0
  8  9  1  1
 10  8  1  0
 10 11  2  0
 12 13  1  0
 13 14  2  0
 15 16  1  0
 15 13  1  0
 17 16  1  1
 17 18  1  0
 18 10  1  0
 19 17  1  0
 20 19  2  0
 21 19  1  0
 22 21  1  0
 22 26  1  0
 22 23  1  1
 24 23  1  0
 24 25  2  0
 26 27  1  0
 28 24  1  0
 29 26  2  0
M  END
$$$$
