RQD.pdb
     RDKit          3D

 29 28  0  0  1  0  0  0  0  0999 V2000
    8.5115  -13.2849   15.5699 N   0  0  0  0  0  0  0  0  0  0  0  0
    8.1653  -14.5046   16.2242 C   0  0  0  0  0  0  0  0  0  0  0  0
    7.8451  -15.5283   15.5237 N   0  0  0  0  0  0  0  0  0  0  0  0
    8.1604  -14.6379   17.6314 N   0  0  0  0  0  0  0  0  0  0  0  0
    8.2399  -13.5124   18.5318 C   0  0  0  0  0  0  0  0  0  0  0  0
    6.9587  -13.4837   19.3476 C   0  0  0  0  0  0  0  0  0  0  0  0
    7.0533  -14.2818   20.5965 C   0  0  0  0  0  0  0  0  0  0  0  0
    8.4739  -14.5832   20.9743 C   0  0  2  0  0  0  0  0  0  0  0  0
    8.8143  -15.8890   20.3638 N   0  0  0  0  0  0  0  0  0  0  0  0
    8.5480  -14.8185   22.4339 C   0  0  0  0  0  0  0  0  0  0  0  0
    8.3805  -13.8657   23.2336 O   0  0  0  0  0  0  0  0  0  0  0  0
    7.9062  -15.5931   14.4888 N   0  0  0  0  0  0  0  0  0  0  0  0
    6.4728  -19.4571   25.2023 C   0  0  0  0  0  0  0  0  0  0  0  0
    5.8230  -18.4124   24.5094 O   0  0  0  0  0  0  0  0  0  0  0  0
    4.6377  -18.5116   24.1355 C   0  0  0  0  0  0  0  0  0  0  0  0
    6.6297  -17.1731   24.2438 C   0  0  0  0  0  0  0  0  0  0  0  0
    7.9872  -17.3849   24.8454 C   0  0  2  0  0  0  0  0  0  0  0  0
    8.8997  -16.2692   24.4227 N   0  0  0  0  0  0  0  0  0  0  0  0
    8.8076  -16.1089   22.9886 C   0  0  0  0  0  0  0  0  0  0  0  0
   10.3275  -16.5377   24.7348 O   0  0  0  0  0  0  0  0  0  0  0  0
   10.7850  -16.4911   25.9047 N   0  0  0  0  0  0  0  0  0  0  0  0
   11.2141  -16.8608   23.6689 C   0  0  1  0  0  0  0  0  0  0  0  0
   12.6227  -17.0408   23.9148 C   0  0  0  0  0  0  0  0  0  0  0  0
   13.0851  -18.3984   23.4622 C   0  0  0  0  0  0  0  0  0  0  0  0
   12.5416  -19.4565   24.3318 O   0  0  0  0  0  0  0  0  0  0  0  0
   12.3266  -19.2614   25.5458 C   0  0  0  0  0  0  0  0  0  0  0  0
   13.3778  -15.9554   23.2221 O   0  0  0  0  0  0  0  0  0  0  0  0
   14.7568  -15.8193   23.3669 O   0  0  0  0  0  0  0  0  0  0  0  0
   12.2449  -20.7200   23.8332 O   0  0  0  0  0  0  0  0  0  0  0  0
  1  2  1  0
  2  3  2  0
  4  5  1  0
  4  2  1  0
  6  5  1  0
  7  6  1  0
  8  7  1  0
  8  9  1  6
 10  8  1  0
 10 11  2  0
 12 13  1  0
 13 14  2  0
 15 16  1  0
 15 13  1  0
 17 16  1  1
 17 18  1  0
 18 10  1  0
 19 17  1  0
 20 19  2  0
 21 19  1  0
 22 21  1  0
 22 26  1  0
 22 23  1  1
 24 23  1  0
 24 25  2  0
 26 27  1  0
 28 24  1  0
 29 26  2  0
M  END
$$$$
