RQD.pdb
     RDKit          3D

 29 28  0  0  1  0  0  0  0  0999 V2000
    5.4660  -18.2372   15.2208 N   0  0  0  0  0  0  0  0  0  0  0  0
    6.5155  -17.3634   15.6340 C   0  0  0  0  0  0  0  0  0  0  0  0
    6.5674  -16.1726   15.1644 N   0  0  0  0  0  0  0  0  0  0  0  0
    7.5153  -17.7566   16.5525 N   0  0  0  0  0  0  0  0  0  0  0  0
    8.4528  -16.8318   17.1437 C   0  0  0  0  0  0  0  0  0  0  0  0
    7.6641  -15.8718   18.0177 C   0  0  0  0  0  0  0  0  0  0  0  0
    8.5001  -14.7741   18.5671 C   0  0  0  0  0  0  0  0  0  0  0  0
    7.7072  -13.8232   19.4150 C   0  0  2  0  0  0  0  0  0  0  0  0
    7.9150  -12.4687   18.8528 N   0  0  0  0  0  0  0  0  0  0  0  0
    8.3050  -13.7658   20.7680 C   0  0  0  0  0  0  0  0  0  0  0  0
    9.5021  -13.4172   20.9120 O   0  0  0  0  0  0  0  0  0  0  0  0
    7.2484  -15.4418   15.4494 N   0  0  0  0  0  0  0  0  0  0  0  0
    5.3969  -12.7886   26.0108 C   0  0  0  0  0  0  0  0  0  0  0  0
    6.7165  -12.8285   26.5116 O   0  0  0  0  0  0  0  0  0  0  0  0
    6.9901  -12.4540   27.6690 C   0  0  0  0  0  0  0  0  0  0  0  0
    7.7773  -13.3446   25.5813 C   0  0  0  0  0  0  0  0  0  0  0  0
    7.1407  -13.5321   24.2363 C   0  0  2  0  0  0  0  0  0  0  0  0
    8.1859  -13.9564   23.2445 N   0  0  0  0  0  0  0  0  0  0  0  0
    7.5668  -14.0964   21.9452 C   0  0  0  0  0  0  0  0  0  0  0  0
    8.7983  -15.2698   23.5731 O   0  0  0  0  0  0  0  0  0  0  0  0
    8.2215  -16.3624   23.3416 N   0  0  0  0  0  0  0  0  0  0  0  0
   10.0889  -15.2945   24.1735 C   0  0  1  0  0  0  0  0  0  0  0  0
   10.7743  -16.5438   24.3892 C   0  0  0  0  0  0  0  0  0  0  0  0
   12.1566  -16.5153   23.7973 C   0  0  0  0  0  0  0  0  0  0  0  0
   12.8934  -17.7496   24.1213 O   0  0  0  0  0  0  0  0  0  0  0  0
   12.3291  -18.7313   24.6464 C   0  0  0  0  0  0  0  0  0  0  0  0
   10.8209  -16.8240   25.8545 O   0  0  0  0  0  0  0  0  0  0  0  0
   10.1803  -15.9982   26.7757 O   0  0  0  0  0  0  0  0  0  0  0  0
   14.2523  -17.8711   23.8537 O   0  0  0  0  0  0  0  0  0  0  0  0
  1  2  1  0
  2  3  2  0
  4  5  1  0
  4  2  1  0
  6  5  1  0
  7  6  1  0
  8  7  1  0
  8  9  1  6
 10  8  1  0
 10 11  2  0
 12 13  1  0
 13 14  2  0
 15 16  1  0
 15 13  1  0
 17 16  1  6
 17 18  1  0
 18 10  1  0
 19 17  1  0
 20 19  2  0
 21 19  1  0
 22 21  1  0
 22 26  1  0
 22 23  1  1
 24 23  1  0
 24 25  2  0
 26 27  1  0
 28 24  1  0
 29 26  2  0
M  END
$$$$
