RQD.pdb
     RDKit          3D

 29 28  0  0  1  0  0  0  0  0999 V2000
    6.5625  -13.4533   16.6487 N   0  0  0  0  0  0  0  0  0  0  0  0
    7.2898  -14.3752   15.8383 C   0  0  0  0  0  0  0  0  0  0  0  0
    6.6937  -14.9798   14.8790 N   0  0  0  0  0  0  0  0  0  0  0  0
    8.6592  -14.6559   16.0478 N   0  0  0  0  0  0  0  0  0  0  0  0
    9.2584  -14.7326   17.3589 C   0  0  0  0  0  0  0  0  0  0  0  0
    8.1485  -15.0153   18.3568 C   0  0  0  0  0  0  0  0  0  0  0  0
    8.6312  -15.0477   19.7610 C   0  0  0  0  0  0  0  0  0  0  0  0
    8.0204  -13.9632   20.5991 C   0  0  2  0  0  0  0  0  0  0  0  0
    8.5577  -12.6771   20.0979 N   0  0  0  0  0  0  0  0  0  0  0  0
    8.5338  -14.0726   21.9832 C   0  0  0  0  0  0  0  0  0  0  0  0
    9.7034  -13.7043   22.2508 O   0  0  0  0  0  0  0  0  0  0  0  0
    7.1392  -15.6442   14.2164 N   0  0  0  0  0  0  0  0  0  0  0  0
    5.3612  -13.0834   26.8933 C   0  0  0  0  0  0  0  0  0  0  0  0
    6.1965  -12.0870   26.3426 O   0  0  0  0  0  0  0  0  0  0  0  0
    6.0306  -10.8779   26.5977 C   0  0  0  0  0  0  0  0  0  0  0  0
    7.2969  -12.5545   25.4327 C   0  0  0  0  0  0  0  0  0  0  0  0
    7.1823  -14.0457   25.3208 C   0  0  2  0  0  0  0  0  0  0  0  0
    8.2559  -14.5612   24.4055 N   0  0  0  0  0  0  0  0  0  0  0  0
    7.7427  -14.5901   23.0539 C   0  0  0  0  0  0  0  0  0  0  0  0
    8.6821  -15.9465   24.7335 O   0  0  0  0  0  0  0  0  0  0  0  0
    8.0099  -16.9569   24.4061 N   0  0  0  0  0  0  0  0  0  0  0  0
    9.8992  -16.1395   25.4465 C   0  0  1  0  0  0  0  0  0  0  0  0
   10.3055  -17.4586   25.8613 C   0  0  0  0  0  0  0  0  0  0  0  0
   11.7744  -17.6758   25.6227 C   0  0  0  0  0  0  0  0  0  0  0  0
   12.1004  -17.5443   24.1918 O   0  0  0  0  0  0  0  0  0  0  0  0
   11.4195  -18.1068   23.3098 C   0  0  0  0  0  0  0  0  0  0  0  0
    9.9605  -17.6409   27.3020 O   0  0  0  0  0  0  0  0  0  0  0  0
    9.4463  -16.5961   28.0667 O   0  0  0  0  0  0  0  0  0  0  0  0
   13.1839  -16.7849   23.7645 O   0  0  0  0  0  0  0  0  0  0  0  0
  1  2  1  0
  2  3  2  0
  4  5  1  0
  4  2  1  0
  6  5  1  0
  7  6  1  0
  8  7  1  0
  8  9  1  6
 10  8  1  0
 10 11  2  0
 12 13  1  0
 13 14  2  0
 15 16  1  0
 15 13  1  0
 17 16  1  6
 17 18  1  0
 18 10  1  0
 19 17  1  0
 20 19  2  0
 21 19  1  0
 22 21  1  0
 22 26  1  0
 22 23  1  1
 24 23  1  0
 24 25  2  0
 26 27  1  0
 28 24  1  0
 29 26  2  0
M  END
$$$$
