RQD.pdb
     RDKit          3D

 29 28  0  0  1  0  0  0  0  0999 V2000
    9.1780  -12.7254   20.8869 N   0  0  0  0  0  0  0  0  0  0  0  0
    8.4611  -11.8239   20.0450 C   0  0  0  0  0  0  0  0  0  0  0  0
    8.7585  -10.5778   20.0558 N   0  0  0  0  0  0  0  0  0  0  0  0
    7.4225  -12.2488   19.1856 N   0  0  0  0  0  0  0  0  0  0  0  0
    6.9343  -13.6068   19.1477 C   0  0  0  0  0  0  0  0  0  0  0  0
    7.7381  -14.3563   18.0990 C   0  0  0  0  0  0  0  0  0  0  0  0
    9.0126  -14.9017   18.6316 C   0  0  0  0  0  0  0  0  0  0  0  0
    9.8839  -15.4728   17.5516 C   0  0  2  0  0  0  0  0  0  0  0  0
    9.1615  -16.6350   16.9847 N   0  0  0  0  0  0  0  0  0  0  0  0
   11.1020  -16.0485   18.1649 C   0  0  0  0  0  0  0  0  0  0  0  0
   11.2009  -17.2900   18.3205 O   0  0  0  0  0  0  0  0  0  0  0  0
    8.2451   -9.8315   19.5474 N   0  0  0  0  0  0  0  0  0  0  0  0
   17.1319  -14.6524   17.7341 C   0  0  0  0  0  0  0  0  0  0  0  0
   16.1356  -13.6614   17.8726 O   0  0  0  0  0  0  0  0  0  0  0  0
   16.2510  -12.5375   17.3452 C   0  0  0  0  0  0  0  0  0  0  0  0
   14.9274  -14.0268   18.6876 C   0  0  0  0  0  0  0  0  0  0  0  0
   14.5719  -15.4444   18.3506 C   0  0  1  0  0  0  0  0  0  0  0  0
   13.3752  -15.8634   19.1558 N   0  0  0  0  0  0  0  0  0  0  0  0
   12.1959  -15.2390   18.5986 C   0  0  0  0  0  0  0  0  0  0  0  0
   13.4554  -15.4395   20.5778 O   0  0  0  0  0  0  0  0  0  0  0  0
   12.8433  -14.4346   21.0200 N   0  0  0  0  0  0  0  0  0  0  0  0
   14.2560  -16.1996   21.4765 C   0  0  1  0  0  0  0  0  0  0  0  0
   13.8545  -16.3736   22.8497 C   0  0  0  0  0  0  0  0  0  0  0  0
   12.4562  -16.9194   22.9429 C   0  0  0  0  0  0  0  0  0  0  0  0
   12.0865  -17.1833   24.3447 O   0  0  0  0  0  0  0  0  0  0  0  0
   12.8873  -16.9876   25.2819 C   0  0  0  0  0  0  0  0  0  0  0  0
   14.8314  -17.2745   23.5295 O   0  0  0  0  0  0  0  0  0  0  0  0
   15.5208  -16.8734   24.6717 O   0  0  0  0  0  0  0  0  0  0  0  0
   10.8255  -17.6625   24.6813 O   0  0  0  0  0  0  0  0  0  0  0  0
  1  2  1  0
  2  3  2  0
  4  5  1  0
  4  2  1  0
  6  5  1  0
  7  6  1  0
  8  7  1  0
  8  9  1  1
 10  8  1  0
 10 11  2  0
 12 13  1  0
 13 14  2  0
 15 16  1  0
 15 13  1  0
 17 16  1  6
 17 18  1  0
 18 10  1  0
 19 17  1  0
 20 19  2  0
 21 19  1  0
 22 21  1  0
 22 26  1  0
 22 23  1  1
 24 23  1  0
 24 25  2  0
 26 27  1  0
 28 24  1  0
 29 26  2  0
M  END
$$$$
