RQD.pdb
     RDKit          3D

 29 28  0  0  1  0  0  0  0  0999 V2000
    7.7181  -12.4917   17.6051 N   0  0  0  0  0  0  0  0  0  0  0  0
    8.2803  -13.8025   17.5657 C   0  0  0  0  0  0  0  0  0  0  0  0
    8.8547  -14.2113   16.4960 N   0  0  0  0  0  0  0  0  0  0  0  0
    8.2330  -14.6838   18.6697 N   0  0  0  0  0  0  0  0  0  0  0  0
    7.0128  -15.2932   19.1423 C   0  0  0  0  0  0  0  0  0  0  0  0
    6.7683  -14.7976   20.5574 C   0  0  0  0  0  0  0  0  0  0  0  0
    8.0090  -14.3283   21.2254 C   0  0  0  0  0  0  0  0  0  0  0  0
    8.6757  -15.4144   22.0176 C   0  0  2  0  0  0  0  0  0  0  0  0
    7.6960  -16.5178   22.1456 N   0  0  0  0  0  0  0  0  0  0  0  0
    8.8931  -14.9404   23.4031 C   0  0  0  0  0  0  0  0  0  0  0  0
    9.6888  -13.9959   23.6267 O   0  0  0  0  0  0  0  0  0  0  0  0
    9.3083  -15.1376   16.3722 N   0  0  0  0  0  0  0  0  0  0  0  0
    7.2168  -12.4239   27.4542 C   0  0  0  0  0  0  0  0  0  0  0  0
    6.3284  -12.6365   26.3774 O   0  0  0  0  0  0  0  0  0  0  0  0
    5.6080  -11.7217   25.9315 C   0  0  0  0  0  0  0  0  0  0  0  0
    6.2925  -14.0204   25.7937 C   0  0  0  0  0  0  0  0  0  0  0  0
    7.2236  -14.8725   26.6039 C   0  0  2  0  0  0  0  0  0  0  0  0
    8.5160  -15.0469   25.8587 N   0  0  0  0  0  0  0  0  0  0  0  0
    8.2247  -15.5209   24.5239 C   0  0  0  0  0  0  0  0  0  0  0  0
    9.4158  -16.0502   26.4847 O   0  0  0  0  0  0  0  0  0  0  0  0
    9.7021  -16.0324   27.7085 N   0  0  0  0  0  0  0  0  0  0  0  0
    9.9769  -17.0729   25.6685 C   0  0  1  0  0  0  0  0  0  0  0  0
   10.9214  -18.0136   26.2163 C   0  0  0  0  0  0  0  0  0  0  0  0
   10.2688  -19.3392   26.4970 C   0  0  0  0  0  0  0  0  0  0  0  0
   11.2495  -20.3096   27.0144 O   0  0  0  0  0  0  0  0  0  0  0  0
   12.4306  -19.9842   27.2533 C   0  0  0  0  0  0  0  0  0  0  0  0
   12.0616  -18.1647   25.2650 O   0  0  0  0  0  0  0  0  0  0  0  0
   13.3564  -18.4177   25.7126 O   0  0  0  0  0  0  0  0  0  0  0  0
   10.8973  -21.6322   27.2587 O   0  0  0  0  0  0  0  0  0  0  0  0
  1  2  1  0
  2  3  2  0
  4  5  1  0
  4  2  1  0
  6  5  1  0
  7  6  1  0
  8  7  1  0
  8  9  1  1
 10  8  1  0
 10 11  2  0
 12 13  1  0
 13 14  2  0
 15 16  1  0
 15 13  1  0
 17 16  1  6
 17 18  1  0
 18 10  1  0
 19 17  1  0
 20 19  2  0
 21 19  1  0
 22 21  1  0
 22 26  1  0
 22 23  1  6
 24 23  1  0
 24 25  2  0
 26 27  1  0
 28 24  1  0
 29 26  2  0
M  END
$$$$
