RQD.pdb
     RDKit          3D

 29 28  0  0  1  0  0  0  0  0999 V2000
   12.1586  -20.7313   14.7749 N   0  0  0  0  0  0  0  0  0  0  0  0
   10.8294  -20.7540   15.2931 C   0  0  0  0  0  0  0  0  0  0  0  0
    9.8834  -20.2011   14.6294 N   0  0  0  0  0  0  0  0  0  0  0  0
   10.5032  -21.3689   16.5232 N   0  0  0  0  0  0  0  0  0  0  0  0
   11.4693  -22.0650   17.3393 C   0  0  0  0  0  0  0  0  0  0  0  0
   12.4138  -21.0273   17.9212 C   0  0  0  0  0  0  0  0  0  0  0  0
   13.4975  -21.6294   18.7391 C   0  0  0  0  0  0  0  0  0  0  0  0
   13.8236  -20.8047   19.9495 C   0  0  2  0  0  0  0  0  0  0  0  0
   13.3380  -19.4317   19.6791 N   0  0  0  0  0  0  0  0  0  0  0  0
   15.2934  -20.6694   20.0626 C   0  0  0  0  0  0  0  0  0  0  0  0
   16.0298  -21.6763   19.9242 O   0  0  0  0  0  0  0  0  0  0  0  0
    8.8902  -20.1456   14.9286 N   0  0  0  0  0  0  0  0  0  0  0  0
   19.4839  -16.2037   19.3031 C   0  0  0  0  0  0  0  0  0  0  0  0
   19.9916  -17.4071   18.7663 O   0  0  0  0  0  0  0  0  0  0  0  0
   21.0814  -17.4470   18.1619 C   0  0  0  0  0  0  0  0  0  0  0  0
   19.1540  -18.6394   18.9585 C   0  0  0  0  0  0  0  0  0  0  0  0
   17.8881  -18.2181   19.6437 C   0  0  2  0  0  0  0  0  0  0  0  0
   17.3659  -19.3576   20.4714 N   0  0  0  0  0  0  0  0  0  0  0  0
   15.9282  -19.4178   20.3283 C   0  0  0  0  0  0  0  0  0  0  0  0
   17.6476  -19.1979   21.9218 O   0  0  0  0  0  0  0  0  0  0  0  0
   17.0243  -19.8369   22.8067 N   0  0  0  0  0  0  0  0  0  0  0  0
   18.6628  -18.2860   22.3275 C   0  0  1  0  0  0  0  0  0  0  0  0
   18.9796  -18.1137   23.7229 C   0  0  0  0  0  0  0  0  0  0  0  0
   20.3786  -17.5921   23.9030 C   0  0  0  0  0  0  0  0  0  0  0  0
   21.3664  -18.6769   23.7673 O   0  0  0  0  0  0  0  0  0  0  0  0
   21.0579  -19.8718   23.9548 C   0  0  0  0  0  0  0  0  0  0  0  0
   17.9777  -17.1932   24.3368 O   0  0  0  0  0  0  0  0  0  0  0  0
   17.9401  -16.9680   25.7111 O   0  0  0  0  0  0  0  0  0  0  0  0
   22.6873  -18.4124   23.4231 O   0  0  0  0  0  0  0  0  0  0  0  0
  1  2  1  0
  2  3  2  0
  4  5  1  0
  4  2  1  0
  6  5  1  0
  7  6  1  0
  8  7  1  0
  8  9  1  6
 10  8  1  0
 10 11  2  0
 12 13  1  0
 13 14  2  0
 15 16  1  0
 15 13  1  0
 17 16  1  6
 17 18  1  0
 18 10  1  0
 19 17  1  0
 20 19  2  0
 21 19  1  0
 22 21  1  0
 22 26  1  0
 22 23  1  1
 24 23  1  0
 24 25  2  0
 26 27  1  0
 28 24  1  0
 29 26  2  0
M  END
$$$$
