VCF.pdb
     RDKit          3D

 25 25  0  0  1  0  0  0  0  0999 V2000
   29.8129  -23.1249  -19.1744 C   0  0  0  0  0  0  0  0  0  0  0  0
   29.6259  -22.2076  -18.0226 C   0  0  1  0  0  0  0  0  0  0  0  0
   29.3041  -20.7962  -18.4556 C   0  0  0  0  0  0  0  0  0  0  0  0
   28.4611  -22.6782  -17.1535 C   0  0  2  0  0  0  0  0  0  0  0  0
   27.2087  -22.4519  -17.8853 N   0  0  0  0  0  0  0  0  0  0  0  0
   28.4116  -21.8001  -15.9634 C   0  0  0  0  0  0  0  0  0  0  0  0
   29.3190  -21.9198  -15.0898 O   0  0  0  0  0  0  0  0  0  0  0  0
   27.4225  -20.8170  -15.7099 N   0  0  0  0  0  0  0  0  0  0  0  0
   27.4433  -20.0780  -14.4733 C   0  0  1  0  0  0  0  0  0  0  0  0
   27.1717  -18.6017  -14.7934 C   0  0  0  0  0  0  0  0  0  0  0  0
   26.8852  -17.7540  -13.2278 S   0  0  0  0  0  0  0  0  0  0  0  0
   26.3542  -20.5237  -13.5705 C   0  0  0  0  0  0  0  0  0  0  0  0
   25.1541  -20.6680  -13.9544 O   0  0  0  0  0  0  0  0  0  0  0  0
   26.6108  -20.8154  -12.2064 N   0  0  0  0  0  0  0  0  0  0  0  0
   25.5913  -21.3336  -11.3026 C   0  0  1  0  0  0  0  0  0  0  0  0
   26.3447  -22.0411  -10.2011 C   0  0  0  0  0  0  0  0  0  0  0  0
   27.0536  -21.1270   -9.2973 C   0  0  0  0  0  0  0  0  0  0  0  0
   26.3234  -20.2822   -8.4941 C   0  0  0  0  0  0  0  0  0  0  0  0
   26.9935  -19.4157   -7.6292 C   0  0  0  0  0  0  0  0  0  0  0  0
   28.3632  -19.4414   -7.6151 C   0  0  0  0  0  0  0  0  0  0  0  0
   29.1130  -20.2855   -8.4175 C   0  0  0  0  0  0  0  0  0  0  0  0
   28.4290  -21.1219   -9.2531 C   0  0  0  0  0  0  0  0  0  0  0  0
   24.7763  -20.2590  -10.7175 C   0  0  0  0  0  0  0  0  0  0  0  0
   23.4988  -20.5062  -10.1701 O   0  0  0  0  0  0  0  0  0  0  0  0
   25.1328  -19.0574  -10.6533 O   0  0  0  0  0  0  0  0  0  0  0  0
  2  4  1  0
  2  1  1  6
  3  2  1  0
  4  5  1  6
  4  6  1  0
  6  7  2  0
  8  6  1  0
  8  9  1  0
  9 12  1  0
  9 10  1  6
 11 10  1  0
 12 14  1  0
 13 12  2  0
 14 15  1  0
 15 16  1  1
 16 17  1  0
 17 18  2  0
 18 19  1  0
 20 19  2  0
 21 20  1  0
 22 21  2  0
 22 17  1  0
 23 15  1  0
 24 23  1  0
 25 23  2  0
M  END
$$$$
