VCF.pdb
     RDKit          3D

 25 25  0  0  1  0  0  0  0  0999 V2000
   21.7633    5.6204   -8.3983 C   0  0  0  0  0  0  0  0  0  0  0  0
   20.7953    5.6384   -9.5233 C   0  0  1  0  0  0  0  0  0  0  0  0
   19.9143    6.8658   -9.5065 C   0  0  0  0  0  0  0  0  0  0  0  0
   21.5354    5.6456  -10.8596 C   0  0  2  0  0  0  0  0  0  0  0  0
   20.5504    5.5277  -11.9418 N   0  0  0  0  0  0  0  0  0  0  0  0
   22.3631    4.4202  -10.9157 C   0  0  0  0  0  0  0  0  0  0  0  0
   22.1172    3.5695  -11.8194 O   0  0  0  0  0  0  0  0  0  0  0  0
   23.4280    4.1084  -10.0338 N   0  0  0  0  0  0  0  0  0  0  0  0
   24.3235    3.0229  -10.3429 C   0  0  1  0  0  0  0  0  0  0  0  0
   25.0995    3.3901  -11.6151 C   0  0  0  0  0  0  0  0  0  0  0  0
   26.1822    2.0022  -12.0064 S   0  0  0  0  0  0  0  0  0  0  0  0
   25.3304    2.8434   -9.2688 C   0  0  0  0  0  0  0  0  0  0  0  0
   25.9829    3.8074   -8.7653 O   0  0  0  0  0  0  0  0  0  0  0  0
   25.6159    1.5572   -8.7439 N   0  0  0  0  0  0  0  0  0  0  0  0
   26.5704    1.3368   -7.6644 C   0  0  1  0  0  0  0  0  0  0  0  0
   26.3124   -0.0678   -7.1726 C   0  0  0  0  0  0  0  0  0  0  0  0
   27.0539   -0.4050   -5.9514 C   0  0  0  0  0  0  0  0  0  0  0  0
   28.3283   -0.9107   -6.0620 C   0  0  0  0  0  0  0  0  0  0  0  0
   29.0389   -1.2271   -4.9031 C   0  0  0  0  0  0  0  0  0  0  0  0
   28.4333   -1.0196   -3.6918 C   0  0  0  0  0  0  0  0  0  0  0  0
   27.1512   -0.5115   -3.5634 C   0  0  0  0  0  0  0  0  0  0  0  0
   26.4811   -0.2114   -4.7153 C   0  0  0  0  0  0  0  0  0  0  0  0
   27.9612    1.4378   -8.1299 C   0  0  0  0  0  0  0  0  0  0  0  0
   28.9574    2.0847   -7.3671 O   0  0  0  0  0  0  0  0  0  0  0  0
   28.3775    0.9708   -9.2179 O   0  0  0  0  0  0  0  0  0  0  0  0
  2  4  1  0
  2  1  1  1
  3  2  1  0
  4  5  1  6
  4  6  1  0
  6  7  2  0
  8  6  1  0
  8  9  1  0
  9 12  1  0
  9 10  1  6
 11 10  1  0
 12 14  1  0
 13 12  2  0
 14 15  1  0
 15 16  1  6
 16 17  1  0
 17 18  2  0
 18 19  1  0
 20 19  2  0
 21 20  1  0
 22 21  2  0
 22 17  1  0
 23 15  1  0
 24 23  1  0
 25 23  2  0
M  END
$$$$
