VCF.pdb
     RDKit          3D

 25 25  0  0  1  0  0  0  0  0999 V2000
   23.0322  -12.4992  -17.2401 C   0  0  0  0  0  0  0  0  0  0  0  0
   22.3562  -13.3571  -18.2451 C   0  0  1  0  0  0  0  0  0  0  0  0
   22.5037  -14.8295  -17.9393 C   0  0  0  0  0  0  0  0  0  0  0  0
   20.8578  -13.0610  -18.2732 C   0  0  2  0  0  0  0  0  0  0  0  0
   20.2533  -13.8063  -19.3842 N   0  0  0  0  0  0  0  0  0  0  0  0
   20.6944  -11.6264  -18.5975 C   0  0  0  0  0  0  0  0  0  0  0  0
   20.7496  -11.2745  -19.8116 O   0  0  0  0  0  0  0  0  0  0  0  0
   20.4751  -10.5918  -17.6538 N   0  0  0  0  0  0  0  0  0  0  0  0
   20.2606   -9.2404  -18.1049 C   0  0  1  0  0  0  0  0  0  0  0  0
   19.0145   -9.2272  -19.0010 C   0  0  0  0  0  0  0  0  0  0  0  0
   18.7399   -7.5216  -19.5182 S   0  0  0  0  0  0  0  0  0  0  0  0
   19.9715   -8.3394  -16.9629 C   0  0  0  0  0  0  0  0  0  0  0  0
   19.0550   -8.5686  -16.1167 O   0  0  0  0  0  0  0  0  0  0  0  0
   20.7234   -7.1540  -16.7603 N   0  0  0  0  0  0  0  0  0  0  0  0
   20.4959   -6.2549  -15.6357 C   0  0  1  0  0  0  0  0  0  0  0  0
   21.7392   -6.3462  -14.7829 C   0  0  0  0  0  0  0  0  0  0  0  0
   21.9210   -7.6596  -14.1532 C   0  0  0  0  0  0  0  0  0  0  0  0
   22.8700   -8.5173  -14.6590 C   0  0  0  0  0  0  0  0  0  0  0  0
   23.0499   -9.7647  -14.0595 C   0  0  0  0  0  0  0  0  0  0  0  0
   22.2673  -10.0876  -12.9823 C   0  0  0  0  0  0  0  0  0  0  0  0
   21.3075   -9.2357  -12.4612 C   0  0  0  0  0  0  0  0  0  0  0  0
   21.1548   -8.0221  -13.0691 C   0  0  0  0  0  0  0  0  0  0  0  0
   20.3104   -4.8633  -16.0720 C   0  0  0  0  0  0  0  0  0  0  0  0
   20.0268   -3.8268  -15.1566 O   0  0  0  0  0  0  0  0  0  0  0  0
   20.3854   -4.4812  -17.2651 O   0  0  0  0  0  0  0  0  0  0  0  0
  2  4  1  0
  2  1  1  1
  3  2  1  0
  4  5  1  6
  4  6  1  0
  6  7  2  0
  8  6  1  0
  8  9  1  0
  9 12  1  0
  9 10  1  6
 11 10  1  0
 12 14  1  0
 13 12  2  0
 14 15  1  0
 15 16  1  1
 16 17  1  0
 17 18  2  0
 18 19  1  0
 20 19  2  0
 21 20  1  0
 22 21  2  0
 22 17  1  0
 23 15  1  0
 24 23  1  0
 25 23  2  0
M  END
$$$$
