VCF.pdb
     RDKit          3D

 25 25  0  0  1  0  0  0  0  0999 V2000
   29.7549  -20.0486  -17.0420 C   0  0  0  0  0  0  0  0  0  0  0  0
   28.7415  -19.4509  -16.1371 C   0  0  1  0  0  0  0  0  0  0  0  0
   28.0681  -18.2418  -16.7436 C   0  0  0  0  0  0  0  0  0  0  0  0
   27.6387  -20.4634  -15.8335 C   0  0  2  0  0  0  0  0  0  0  0  0
   26.7549  -20.5585  -17.0019 N   0  0  0  0  0  0  0  0  0  0  0  0
   26.8169  -19.9092  -14.7347 C   0  0  0  0  0  0  0  0  0  0  0  0
   26.3598  -18.7359  -14.8587 O   0  0  0  0  0  0  0  0  0  0  0  0
   26.4871  -20.5873  -13.5345 N   0  0  0  0  0  0  0  0  0  0  0  0
   25.6560  -19.9432  -12.5496 C   0  0  1  0  0  0  0  0  0  0  0  0
   24.2341  -19.8387  -13.1178 C   0  0  0  0  0  0  0  0  0  0  0  0
   23.7337  -21.4945  -13.6276 S   0  0  0  0  0  0  0  0  0  0  0  0
   25.5612  -20.7631  -11.3173 C   0  0  0  0  0  0  0  0  0  0  0  0
   25.6189  -22.0300  -11.3241 O   0  0  0  0  0  0  0  0  0  0  0  0
   25.3981  -20.1543  -10.0467 N   0  0  0  0  0  0  0  0  0  0  0  0
   25.2492  -20.9202   -8.8154 C   0  0  1  0  0  0  0  0  0  0  0  0
   25.6139  -19.9710   -7.6984 C   0  0  0  0  0  0  0  0  0  0  0  0
   27.0560  -19.9089   -7.4316 C   0  0  0  0  0  0  0  0  0  0  0  0
   27.5645  -18.8226   -6.7583 C   0  0  0  0  0  0  0  0  0  0  0  0
   28.9343  -18.7625   -6.4975 C   0  0  0  0  0  0  0  0  0  0  0  0
   29.7241  -19.7965   -6.9265 C   0  0  0  0  0  0  0  0  0  0  0  0
   29.2279  -20.8970   -7.6057 C   0  0  0  0  0  0  0  0  0  0  0  0
   27.8836  -20.9273   -7.8459 C   0  0  0  0  0  0  0  0  0  0  0  0
   23.8690  -21.3874   -8.6209 C   0  0  0  0  0  0  0  0  0  0  0  0
   23.5310  -22.3136   -7.6106 O   0  0  0  0  0  0  0  0  0  0  0  0
   22.8928  -21.0154   -9.3165 O   0  0  0  0  0  0  0  0  0  0  0  0
  2  4  1  0
  2  1  1  6
  3  2  1  0
  4  5  1  6
  4  6  1  0
  6  7  2  0
  8  6  1  0
  8  9  1  0
  9 12  1  0
  9 10  1  6
 11 10  1  0
 12 14  1  0
 13 12  2  0
 14 15  1  0
 15 16  1  1
 16 17  1  0
 17 18  2  0
 18 19  1  0
 20 19  2  0
 21 20  1  0
 22 21  2  0
 22 17  1  0
 23 15  1  0
 24 23  1  0
 25 23  2  0
M  END
$$$$
