VCF.pdb
     RDKit          3D

 25 25  0  0  1  0  0  0  0  0999 V2000
   28.9030  -18.7173  -17.2619 C   0  0  0  0  0  0  0  0  0  0  0  0
   27.8597  -18.7160  -16.2062 C   0  0  1  0  0  0  0  0  0  0  0  0
   26.6231  -19.4813  -16.6164 C   0  0  0  0  0  0  0  0  0  0  0  0
   28.3887  -19.3814  -14.9369 C   0  0  2  0  0  0  0  0  0  0  0  0
   28.4839  -20.8276  -15.1704 N   0  0  0  0  0  0  0  0  0  0  0  0
   27.3689  -19.1972  -13.8805 C   0  0  0  0  0  0  0  0  0  0  0  0
   26.5043  -18.2859  -14.0319 O   0  0  0  0  0  0  0  0  0  0  0  0
   27.2695  -19.9652  -12.6934 N   0  0  0  0  0  0  0  0  0  0  0  0
   26.0861  -19.8765  -11.8763 C   0  0  1  0  0  0  0  0  0  0  0  0
   24.9326  -20.5530  -12.6297 C   0  0  0  0  0  0  0  0  0  0  0  0
   23.4470  -20.3622  -11.6256 S   0  0  0  0  0  0  0  0  0  0  0  0
   26.2603  -20.6241  -10.6073 C   0  0  0  0  0  0  0  0  0  0  0  0
   26.5293  -21.8628  -10.5664 O   0  0  0  0  0  0  0  0  0  0  0  0
   26.1311  -19.9735   -9.3536 N   0  0  0  0  0  0  0  0  0  0  0  0
   26.2325  -20.6786   -8.0819 C   0  0  1  0  0  0  0  0  0  0  0  0
   26.4365  -19.6072   -7.0369 C   0  0  0  0  0  0  0  0  0  0  0  0
   27.7231  -19.7100   -6.3377 C   0  0  0  0  0  0  0  0  0  0  0  0
   28.4060  -18.5582   -6.0227 C   0  0  0  0  0  0  0  0  0  0  0  0
   29.6268  -18.6514   -5.3528 C   0  0  0  0  0  0  0  0  0  0  0  0
   30.1000  -19.8968   -5.0333 C   0  0  0  0  0  0  0  0  0  0  0  0
   29.4250  -21.0658   -5.3435 C   0  0  0  0  0  0  0  0  0  0  0  0
   28.2331  -20.9424   -5.9990 C   0  0  0  0  0  0  0  0  0  0  0  0
   25.0085  -21.4308   -7.7700 C   0  0  0  0  0  0  0  0  0  0  0  0
   24.9402  -22.3241   -6.6791 O   0  0  0  0  0  0  0  0  0  0  0  0
   23.9425  -21.3491   -8.4274 O   0  0  0  0  0  0  0  0  0  0  0  0
  2  4  1  0
  2  1  1  6
  3  2  1  0
  4  5  1  6
  4  6  1  0
  6  7  2  0
  8  6  1  0
  8  9  1  0
  9 12  1  0
  9 10  1  6
 11 10  1  0
 12 14  1  0
 13 12  2  0
 14 15  1  0
 15 16  1  1
 16 17  1  0
 17 18  2  0
 18 19  1  0
 20 19  2  0
 21 20  1  0
 22 21  2  0
 22 17  1  0
 23 15  1  0
 24 23  1  0
 25 23  2  0
M  END
$$$$
