VCF.pdb
     RDKit          3D

 25 25  0  0  1  0  0  0  0  0999 V2000
   18.0696  -10.3136  -17.1304 C   0  0  0  0  0  0  0  0  0  0  0  0
   18.9503  -11.4738  -17.4154 C   0  0  1  0  0  0  0  0  0  0  0  0
   18.1847  -12.7744  -17.4903 C   0  0  0  0  0  0  0  0  0  0  0  0
   19.6452  -11.2935  -18.7638 C   0  0  2  0  0  0  0  0  0  0  0  0
   20.4619  -12.4833  -19.0333 N   0  0  0  0  0  0  0  0  0  0  0  0
   20.5900  -10.1626  -18.6290 C   0  0  0  0  0  0  0  0  0  0  0  0
   21.7414  -10.2768  -19.1411 O   0  0  0  0  0  0  0  0  0  0  0  0
   20.3161   -8.9391  -17.9680 N   0  0  0  0  0  0  0  0  0  0  0  0
   21.1585   -7.7931  -18.1978 C   0  0  1  0  0  0  0  0  0  0  0  0
   20.9191   -7.3033  -19.6326 C   0  0  0  0  0  0  0  0  0  0  0  0
   21.9644   -5.8567  -19.8903 S   0  0  0  0  0  0  0  0  0  0  0  0
   20.7871   -6.6728  -17.2996 C   0  0  0  0  0  0  0  0  0  0  0  0
   19.6147   -6.1925  -17.2425 O   0  0  0  0  0  0  0  0  0  0  0  0
   21.7473   -6.0742  -16.4445 N   0  0  0  0  0  0  0  0  0  0  0  0
   21.4000   -5.0758  -15.4408 C   0  0  1  0  0  0  0  0  0  0  0  0
   21.9385   -5.6075  -14.1336 C   0  0  0  0  0  0  0  0  0  0  0  0
   21.2131   -6.7834  -13.6377 C   0  0  0  0  0  0  0  0  0  0  0  0
   20.1494   -6.6013  -12.7847 C   0  0  0  0  0  0  0  0  0  0  0  0
   19.4534   -7.7163  -12.3155 C   0  0  0  0  0  0  0  0  0  0  0  0
   19.8612   -8.9580  -12.7267 C   0  0  0  0  0  0  0  0  0  0  0  0
   20.9300   -9.1583  -13.5847 C   0  0  0  0  0  0  0  0  0  0  0  0
   21.5912   -8.0479  -14.0269 C   0  0  0  0  0  0  0  0  0  0  0  0
   22.0185   -3.7724  -15.7235 C   0  0  0  0  0  0  0  0  0  0  0  0
   21.7028   -2.6192  -14.9731 O   0  0  0  0  0  0  0  0  0  0  0  0
   22.8602   -3.5723  -16.6327 O   0  0  0  0  0  0  0  0  0  0  0  0
  2  4  1  0
  2  1  1  6
  3  2  1  0
  4  5  1  1
  4  6  1  0
  6  7  2  0
  8  6  1  0
  8  9  1  0
  9 12  1  0
  9 10  1  6
 11 10  1  0
 12 14  1  0
 13 12  2  0
 14 15  1  0
 15 16  1  1
 16 17  1  0
 17 18  2  0
 18 19  1  0
 20 19  2  0
 21 20  1  0
 22 21  2  0
 22 17  1  0
 23 15  1  0
 24 23  1  0
 25 23  2  0
M  END
$$$$
