VCF.pdb
     RDKit          3D

 25 25  0  0  1  0  0  0  0  0999 V2000
   28.4734  -22.9108  -16.9565 C   0  0  0  0  0  0  0  0  0  0  0  0
   29.2087  -21.8929  -17.7478 C   0  0  1  0  0  0  0  0  0  0  0  0
   29.3415  -22.2788  -19.2027 C   0  0  0  0  0  0  0  0  0  0  0  0
   28.4685  -20.5571  -17.7122 C   0  0  2  0  0  0  0  0  0  0  0  0
   29.2760  -19.5546  -18.4179 N   0  0  0  0  0  0  0  0  0  0  0  0
   28.4064  -20.1211  -16.2994 C   0  0  0  0  0  0  0  0  0  0  0  0
   29.3502  -19.4098  -15.8477 O   0  0  0  0  0  0  0  0  0  0  0  0
   27.3645  -20.4320  -15.3900 N   0  0  0  0  0  0  0  0  0  0  0  0
   27.4139  -19.9294  -14.0406 C   0  0  1  0  0  0  0  0  0  0  0  0
   27.2817  -18.4012  -14.0940 C   0  0  0  0  0  0  0  0  0  0  0  0
   25.8331  -18.0197  -15.0978 S   0  0  0  0  0  0  0  0  0  0  0  0
   26.2644  -20.4272  -13.2467 C   0  0  0  0  0  0  0  0  0  0  0  0
   25.0878  -20.5121  -13.7126 O   0  0  0  0  0  0  0  0  0  0  0  0
   26.4319  -20.8404  -11.9003 N   0  0  0  0  0  0  0  0  0  0  0  0
   25.3570  -21.4344  -11.1150 C   0  0  1  0  0  0  0  0  0  0  0  0
   26.0204  -22.0116   -9.8870 C   0  0  0  0  0  0  0  0  0  0  0  0
   26.6693  -21.0007   -9.0434 C   0  0  0  0  0  0  0  0  0  0  0  0
   28.0187  -20.7766   -9.1876 C   0  0  0  0  0  0  0  0  0  0  0  0
   28.6384  -19.8122   -8.3915 C   0  0  0  0  0  0  0  0  0  0  0  0
   27.8713  -19.1217   -7.4906 C   0  0  0  0  0  0  0  0  0  0  0  0
   26.5118  -19.3354   -7.3329 C   0  0  0  0  0  0  0  0  0  0  0  0
   25.9339  -20.2854   -8.1262 C   0  0  0  0  0  0  0  0  0  0  0  0
   24.3605  -20.4358  -10.7015 C   0  0  0  0  0  0  0  0  0  0  0  0
   23.0783  -20.8080  -10.2431 O   0  0  0  0  0  0  0  0  0  0  0  0
   24.5541  -19.1959  -10.7180 O   0  0  0  0  0  0  0  0  0  0  0  0
  2  4  1  0
  2  1  1  1
  3  2  1  0
  4  5  1  6
  4  6  1  0
  6  7  2  0
  8  6  1  0
  8  9  1  0
  9 12  1  0
  9 10  1  6
 11 10  1  0
 12 14  1  0
 13 12  2  0
 14 15  1  0
 15 16  1  1
 16 17  1  0
 17 18  2  0
 18 19  1  0
 20 19  2  0
 21 20  1  0
 22 21  2  0
 22 17  1  0
 23 15  1  0
 24 23  1  0
 25 23  2  0
M  END
$$$$
