VCF.pdb
     RDKit          3D

 25 25  0  0  1  0  0  0  0  0999 V2000
   21.5010  -16.7905  -24.2146 C   0  0  0  0  0  0  0  0  0  0  0  0
   22.5768  -17.8078  -24.1103 C   0  0  1  0  0  0  0  0  0  0  0  0
   23.3265  -17.9897  -25.4094 C   0  0  0  0  0  0  0  0  0  0  0  0
   23.6059  -17.3859  -23.0631 C   0  0  2  0  0  0  0  0  0  0  0  0
   24.5826  -18.4700  -22.9022 N   0  0  0  0  0  0  0  0  0  0  0  0
   22.8993  -17.2674  -21.7683 C   0  0  0  0  0  0  0  0  0  0  0  0
   22.6300  -18.3270  -21.1313 O   0  0  0  0  0  0  0  0  0  0  0  0
   22.4914  -16.0517  -21.1645 N   0  0  0  0  0  0  0  0  0  0  0  0
   21.8269  -16.0709  -19.8863 C   0  0  1  0  0  0  0  0  0  0  0  0
   22.0696  -14.7194  -19.2004 C   0  0  0  0  0  0  0  0  0  0  0  0
   21.1849  -14.7451  -17.6293 S   0  0  0  0  0  0  0  0  0  0  0  0
   20.3592  -16.2044  -20.0532 C   0  0  0  0  0  0  0  0  0  0  0  0
   19.6772  -15.4435  -20.8045 O   0  0  0  0  0  0  0  0  0  0  0  0
   19.6353  -17.2113  -19.3651 N   0  0  0  0  0  0  0  0  0  0  0  0
   18.2007  -17.4088  -19.5321 C   0  0  1  0  0  0  0  0  0  0  0  0
   18.0568  -18.6344  -20.4032 C   0  0  0  0  0  0  0  0  0  0  0  0
   18.5588  -19.8615  -19.7732 C   0  0  0  0  0  0  0  0  0  0  0  0
   19.8270  -20.2983  -20.0782 C   0  0  0  0  0  0  0  0  0  0  0  0
   20.3103  -21.4614  -19.4770 C   0  0  0  0  0  0  0  0  0  0  0  0
   19.4952  -22.1271  -18.5998 C   0  0  0  0  0  0  0  0  0  0  0  0
   18.2161  -21.7008  -18.2822 C   0  0  0  0  0  0  0  0  0  0  0  0
   17.7713  -20.5594  -18.8864 C   0  0  0  0  0  0  0  0  0  0  0  0
   17.5243  -17.6462  -18.2486 C   0  0  0  0  0  0  0  0  0  0  0  0
   18.2304  -17.6657  -17.0264 O   0  0  0  0  0  0  0  0  0  0  0  0
   16.2916  -17.8476  -18.1265 O   0  0  0  0  0  0  0  0  0  0  0  0
  2  4  1  0
  2  1  1  6
  3  2  1  0
  4  5  1  1
  4  6  1  0
  6  7  2  0
  8  6  1  0
  8  9  1  0
  9 12  1  0
  9 10  1  6
 11 10  1  0
 12 14  1  0
 13 12  2  0
 14 15  1  0
 15 16  1  6
 16 17  1  0
 17 18  2  0
 18 19  1  0
 20 19  2  0
 21 20  1  0
 22 21  2  0
 22 17  1  0
 23 15  1  0
 24 23  1  0
 25 23  2  0
M  END
$$$$
