VCF.pdb
     RDKit          3D

 25 25  0  0  1  0  0  0  0  0999 V2000
   16.8913  -13.3876  -16.3845 C   0  0  0  0  0  0  0  0  0  0  0  0
   18.0947  -12.5403  -16.1920 C   0  0  1  0  0  0  0  0  0  0  0  0
   18.4371  -12.3477  -14.7330 C   0  0  0  0  0  0  0  0  0  0  0  0
   19.3115  -13.1904  -16.8480 C   0  0  2  0  0  0  0  0  0  0  0  0
   19.5909  -14.4591  -16.1643 N   0  0  0  0  0  0  0  0  0  0  0  0
   20.4760  -12.3143  -16.5907 C   0  0  0  0  0  0  0  0  0  0  0  0
   21.6191  -12.8476  -16.4915 O   0  0  0  0  0  0  0  0  0  0  0  0
   20.4264  -10.9053  -16.4451 N   0  0  0  0  0  0  0  0  0  0  0  0
   21.6309  -10.1258  -16.5764 C   0  0  1  0  0  0  0  0  0  0  0  0
   22.2587  -10.4413  -17.9409 C   0  0  0  0  0  0  0  0  0  0  0  0
   23.7538   -9.4442  -18.0905 S   0  0  0  0  0  0  0  0  0  0  0  0
   21.3263   -8.6743  -16.5749 C   0  0  0  0  0  0  0  0  0  0  0  0
   20.5217   -8.1363  -17.3945 O   0  0  0  0  0  0  0  0  0  0  0  0
   21.9342   -7.8021  -15.6361 N   0  0  0  0  0  0  0  0  0  0  0  0
   21.6575   -6.3717  -15.5901 C   0  0  1  0  0  0  0  0  0  0  0  0
   22.3031   -5.8723  -14.3191 C   0  0  0  0  0  0  0  0  0  0  0  0
   22.1267   -4.4315  -14.1010 C   0  0  0  0  0  0  0  0  0  0  0  0
   21.0150   -3.9898  -13.4220 C   0  0  0  0  0  0  0  0  0  0  0  0
   20.8465   -2.6211  -13.2074 C   0  0  0  0  0  0  0  0  0  0  0  0
   21.8033   -1.7651  -13.6859 C   0  0  0  0  0  0  0  0  0  0  0  0
   22.9280   -2.1935  -14.3715 C   0  0  0  0  0  0  0  0  0  0  0  0
   23.0650   -3.5386  -14.5658 C   0  0  0  0  0  0  0  0  0  0  0  0
   22.2385   -5.6611  -16.7384 C   0  0  0  0  0  0  0  0  0  0  0  0
   21.5674   -4.5922  -17.3707 O   0  0  0  0  0  0  0  0  0  0  0  0
   23.3533   -5.9329  -17.2468 O   0  0  0  0  0  0  0  0  0  0  0  0
  2  4  1  0
  2  1  1  1
  3  2  1  0
  4  5  1  1
  4  6  1  0
  6  7  2  0
  8  6  1  0
  8  9  1  0
  9 12  1  0
  9 10  1  6
 11 10  1  0
 12 14  1  0
 13 12  2  0
 14 15  1  0
 15 16  1  1
 16 17  1  0
 17 18  2  0
 18 19  1  0
 20 19  2  0
 21 20  1  0
 22 21  2  0
 22 17  1  0
 23 15  1  0
 24 23  1  0
 25 23  2  0
M  END
$$$$
