VCF.pdb
     RDKit          3D

 25 25  0  0  1  0  0  0  0  0999 V2000
   28.7164  -21.1253  -14.1185 C   0  0  0  0  0  0  0  0  0  0  0  0
   27.9759  -20.2618  -15.0720 C   0  0  1  0  0  0  0  0  0  0  0  0
   28.2263  -20.6455  -16.5118 C   0  0  0  0  0  0  0  0  0  0  0  0
   26.4711  -20.3834  -14.8390 C   0  0  2  0  0  0  0  0  0  0  0  0
   25.7773  -19.5014  -15.7855 N   0  0  0  0  0  0  0  0  0  0  0  0
   26.1860  -19.8501  -13.4884 C   0  0  0  0  0  0  0  0  0  0  0  0
   25.9827  -18.6076  -13.3633 O   0  0  0  0  0  0  0  0  0  0  0  0
   26.1164  -20.6199  -12.3003 N   0  0  0  0  0  0  0  0  0  0  0  0
   25.7713  -19.9874  -11.0526 C   0  0  1  0  0  0  0  0  0  0  0  0
   24.3066  -19.5358  -11.1341 C   0  0  0  0  0  0  0  0  0  0  0  0
   23.3014  -21.0098  -11.3962 S   0  0  0  0  0  0  0  0  0  0  0  0
   25.8564  -20.9505   -9.9281 C   0  0  0  0  0  0  0  0  0  0  0  0
   25.4553  -22.1506  -10.0143 O   0  0  0  0  0  0  0  0  0  0  0  0
   26.4022  -20.5651   -8.6770 N   0  0  0  0  0  0  0  0  0  0  0  0
   26.4989  -21.4744   -7.5418 C   0  0  1  0  0  0  0  0  0  0  0  0
   27.9297  -21.3822   -7.0665 C   0  0  0  0  0  0  0  0  0  0  0  0
   28.1497  -20.3205   -6.0770 C   0  0  0  0  0  0  0  0  0  0  0  0
   28.2927  -20.6613   -4.7521 C   0  0  0  0  0  0  0  0  0  0  0  0
   28.5078  -19.6553   -3.8089 C   0  0  0  0  0  0  0  0  0  0  0  0
   28.5682  -18.3577   -4.2443 C   0  0  0  0  0  0  0  0  0  0  0  0
   28.4260  -17.9979   -5.5743 C   0  0  0  0  0  0  0  0  0  0  0  0
   28.2167  -19.0045   -6.4736 C   0  0  0  0  0  0  0  0  0  0  0  0
   25.5998  -21.0847   -6.4459 C   0  0  0  0  0  0  0  0  0  0  0  0
   25.4267  -21.8921   -5.3010 O   0  0  0  0  0  0  0  0  0  0  0  0
   24.9232  -20.0277   -6.4294 O   0  0  0  0  0  0  0  0  0  0  0  0
  2  4  1  0
  2  1  1  1
  3  2  1  0
  4  5  1  6
  4  6  1  0
  6  7  2  0
  8  6  1  0
  8  9  1  0
  9 12  1  0
  9 10  1  6
 11 10  1  0
 12 14  1  0
 13 12  2  0
 14 15  1  0
 15 16  1  1
 16 17  1  0
 17 18  2  0
 18 19  1  0
 20 19  2  0
 21 20  1  0
 22 21  2  0
 22 17  1  0
 23 15  1  0
 24 23  1  0
 25 23  2  0
M  END
$$$$
