VCF.pdb
     RDKit          3D

 25 25  0  0  1  0  0  0  0  0999 V2000
   28.2570  -17.8983  -17.3115 C   0  0  0  0  0  0  0  0  0  0  0  0
   28.0001  -18.6426  -16.0533 C   0  0  1  0  0  0  0  0  0  0  0  0
   26.5362  -18.9648  -15.8624 C   0  0  0  0  0  0  0  0  0  0  0  0
   28.7468  -19.9753  -16.0637 C   0  0  2  0  0  0  0  0  0  0  0  0
   28.1932  -20.8146  -17.1333 N   0  0  0  0  0  0  0  0  0  0  0  0
   28.4396  -20.6666  -14.7918 C   0  0  0  0  0  0  0  0  0  0  0  0
   27.3863  -21.3646  -14.7262 O   0  0  0  0  0  0  0  0  0  0  0  0
   29.2345  -20.6187  -13.6193 N   0  0  0  0  0  0  0  0  0  0  0  0
   28.7562  -21.2208  -12.4009 C   0  0  1  0  0  0  0  0  0  0  0  0
   29.9501  -21.3949  -11.4523 C   0  0  0  0  0  0  0  0  0  0  0  0
   30.6583  -19.7606  -11.1707 S   0  0  0  0  0  0  0  0  0  0  0  0
   27.7927  -20.3289  -11.7110 C   0  0  0  0  0  0  0  0  0  0  0  0
   27.8151  -19.0662  -11.8268 O   0  0  0  0  0  0  0  0  0  0  0  0
   26.7797  -20.8591  -10.8718 N   0  0  0  0  0  0  0  0  0  0  0  0
   25.8911  -20.0204  -10.0770 C   0  0  1  0  0  0  0  0  0  0  0  0
   25.0530  -19.2554  -11.0739 C   0  0  0  0  0  0  0  0  0  0  0  0
   24.2175  -20.1174  -11.9186 C   0  0  0  0  0  0  0  0  0  0  0  0
   24.7364  -20.6043  -13.0958 C   0  0  0  0  0  0  0  0  0  0  0  0
   23.9473  -21.4289  -13.8990 C   0  0  0  0  0  0  0  0  0  0  0  0
   22.6766  -21.7226  -13.4792 C   0  0  0  0  0  0  0  0  0  0  0  0
   22.1392  -21.2404  -12.2972 C   0  0  0  0  0  0  0  0  0  0  0  0
   22.9356  -20.4361  -11.5326 C   0  0  0  0  0  0  0  0  0  0  0  0
   25.0074  -20.8175   -9.2139 C   0  0  0  0  0  0  0  0  0  0  0  0
   25.0712  -22.2273   -9.1810 O   0  0  0  0  0  0  0  0  0  0  0  0
   24.1398  -20.3301   -8.4490 O   0  0  0  0  0  0  0  0  0  0  0  0
  2  4  1  0
  2  1  1  6
  3  2  1  0
  4  5  1  6
  4  6  1  0
  6  7  2  0
  8  6  1  0
  8  9  1  0
  9 12  1  0
  9 10  1  1
 11 10  1  0
 12 14  1  0
 13 12  2  0
 14 15  1  0
 15 16  1  6
 16 17  1  0
 17 18  2  0
 18 19  1  0
 20 19  2  0
 21 20  1  0
 22 21  2  0
 22 17  1  0
 23 15  1  0
 24 23  1  0
 25 23  2  0
M  END
$$$$
