VCF.pdb
     RDKit          3D

 25 25  0  0  1  0  0  0  0  0999 V2000
   21.2926  -13.5606  -20.1228 C   0  0  0  0  0  0  0  0  0  0  0  0
   21.0629  -12.4775  -19.1342 C   0  0  1  0  0  0  0  0  0  0  0  0
   19.6808  -11.8773  -19.2468 C   0  0  0  0  0  0  0  0  0  0  0  0
   21.1928  -13.0209  -17.7125 C   0  0  2  0  0  0  0  0  0  0  0  0
   20.1194  -13.9957  -17.4832 N   0  0  0  0  0  0  0  0  0  0  0  0
   20.9399  -11.8978  -16.7827 C   0  0  0  0  0  0  0  0  0  0  0  0
   19.7624  -11.7269  -16.3526 O   0  0  0  0  0  0  0  0  0  0  0  0
   21.9162  -10.9804  -16.3197 N   0  0  0  0  0  0  0  0  0  0  0  0
   21.5503   -9.9575  -15.3732 C   0  0  1  0  0  0  0  0  0  0  0  0
   22.7718   -9.6620  -14.4921 C   0  0  0  0  0  0  0  0  0  0  0  0
   22.2688   -8.4403  -13.2647 S   0  0  0  0  0  0  0  0  0  0  0  0
   21.2103   -8.6909  -16.0658 C   0  0  0  0  0  0  0  0  0  0  0  0
   21.9517   -8.1672  -16.9516 O   0  0  0  0  0  0  0  0  0  0  0  0
   20.0141   -7.9918  -15.7625 N   0  0  0  0  0  0  0  0  0  0  0  0
   19.6738   -6.7079  -16.3630 C   0  0  1  0  0  0  0  0  0  0  0  0
   18.2077   -6.7985  -16.7150 C   0  0  0  0  0  0  0  0  0  0  0  0
   17.6886   -5.5924  -17.3713 C   0  0  0  0  0  0  0  0  0  0  0  0
   16.8819   -4.7378  -16.6566 C   0  0  0  0  0  0  0  0  0  0  0  0
   16.3910   -3.5870  -17.2752 C   0  0  0  0  0  0  0  0  0  0  0  0
   16.7351   -3.3530  -18.5805 C   0  0  0  0  0  0  0  0  0  0  0  0
   17.5459   -4.2034  -19.3139 C   0  0  0  0  0  0  0  0  0  0  0  0
   18.0109   -5.3212  -18.6814 C   0  0  0  0  0  0  0  0  0  0  0  0
   19.8781   -5.5915  -15.4286 C   0  0  0  0  0  0  0  0  0  0  0  0
   20.3916   -4.3475  -15.8546 O   0  0  0  0  0  0  0  0  0  0  0  0
   19.6216   -5.6418  -14.2011 O   0  0  0  0  0  0  0  0  0  0  0  0
  2  4  1  0
  2  1  1  6
  3  2  1  0
  4  5  1  1
  4  6  1  0
  6  7  2  0
  8  6  1  0
  8  9  1  0
  9 12  1  0
  9 10  1  1
 11 10  1  0
 12 14  1  0
 13 12  2  0
 14 15  1  0
 15 16  1  1
 16 17  1  0
 17 18  2  0
 18 19  1  0
 20 19  2  0
 21 20  1  0
 22 21  2  0
 22 17  1  0
 23 15  1  0
 24 23  1  0
 25 23  2  0
M  END
$$$$
