IAW.pdb
     RDKit          3D

 28 29  0  0  1  0  0  0  0  0999 V2000
   30.8265  -18.7117  -13.6421 C   0  0  0  0  0  0  0  0  0  0  0  0
   30.1731  -19.1596  -14.8923 C   0  0  0  0  0  0  0  0  0  0  0  0
   28.8368  -19.7845  -14.8105 C   0  0  2  0  0  0  0  0  0  0  0  0
   28.8681  -21.0127  -13.8972 C   0  0  0  0  0  0  0  0  0  0  0  0
   28.0910  -20.0171  -16.0537 C   0  0  2  0  0  0  0  0  0  0  0  0
   28.2613  -18.7891  -16.9119 N   0  0  0  0  0  0  0  0  0  0  0  0
   26.6927  -20.3947  -16.0267 C   0  0  0  0  0  0  0  0  0  0  0  0
   25.7255  -19.5732  -15.9824 O   0  0  0  0  0  0  0  0  0  0  0  0
   24.8173  -23.6578  -16.2637 C   0  0  0  0  0  0  0  0  0  0  0  0
   24.9058  -22.2011  -15.8511 C   0  0  2  0  0  0  0  0  0  0  0  0
   26.2476  -21.7667  -16.0482 N   0  0  0  0  0  0  0  0  0  0  0  0
   24.4478  -22.1073  -14.4479 C   0  0  0  0  0  0  0  0  0  0  0  0
   23.2161  -22.2319  -14.1856 O   0  0  0  0  0  0  0  0  0  0  0  0
   25.2970  -21.8837  -13.3477 N   0  0  0  0  0  0  0  0  0  0  0  0
   24.8385  -21.7826  -11.9556 C   0  0  1  0  0  0  0  0  0  0  0  0
   26.0992  -21.8133  -11.1382 C   0  0  0  0  0  0  0  0  0  0  0  0
   26.1382  -20.9756   -9.9442 C   0  0  0  0  0  0  0  0  0  0  0  0
   25.0481  -20.2577   -9.4885 C   0  0  0  0  0  0  0  0  0  0  0  0
   25.4337  -19.5802   -8.3997 N   0  0  0  0  0  0  0  0  0  0  0  0
   26.7155  -19.8286   -8.1349 C   0  0  0  0  0  0  0  0  0  0  0  0
   27.5115  -19.3639   -7.1160 C   0  0  0  0  0  0  0  0  0  0  0  0
   28.8120  -19.7811   -7.0425 C   0  0  0  0  0  0  0  0  0  0  0  0
   29.2884  -20.6549   -7.9906 C   0  0  0  0  0  0  0  0  0  0  0  0
   28.4920  -21.1140   -9.0029 C   0  0  0  0  0  0  0  0  0  0  0  0
   27.1779  -20.7012   -9.0903 C   0  0  0  0  0  0  0  0  0  0  0  0
   24.0150  -20.6229  -11.7121 C   0  0  0  0  0  0  0  0  0  0  0  0
   22.9260  -20.6922  -10.8587 O   0  0  0  0  0  0  0  0  0  0  0  0
   24.2580  -19.5266  -12.2612 O   0  0  0  0  0  0  0  0  0  0  0  0
  2  1  1  0
  2  3  1  0
  3  5  1  0
  3  4  1  6
  5  6  1  6
  5  7  1  0
  7  8  2  0
 10  9  1  1
 11  7  1  0
 11 10  1  0
 12 13  2  0
 12 10  1  0
 14 12  1  0
 15 14  1  0
 15 16  1  1
 17 25  1  0
 17 16  1  0
 18 17  2  0
 19 18  1  0
 19 20  1  0
 20 21  1  0
 20 25  2  0
 21 22  2  0
 22 23  1  0
 24 23  2  0
 25 24  1  0
 26 15  1  0
 27 26  1  0
 28 26  2  0
M  END
$$$$
