IAW.pdb
     RDKit          3D

 28 29  0  0  1  0  0  0  0  0999 V2000
   24.0237  -16.8897  -16.4401 C   0  0  0  0  0  0  0  0  0  0  0  0
   25.2505  -17.7158  -16.3828 C   0  0  0  0  0  0  0  0  0  0  0  0
   25.4771  -18.5690  -15.1982 C   0  0  2  0  0  0  0  0  0  0  0  0
   25.3787  -17.7461  -13.9110 C   0  0  0  0  0  0  0  0  0  0  0  0
   26.6221  -19.4883  -15.2013 C   0  0  2  0  0  0  0  0  0  0  0  0
   26.5746  -20.2548  -16.4988 N   0  0  0  0  0  0  0  0  0  0  0  0
   26.8430  -20.4103  -14.1059 C   0  0  0  0  0  0  0  0  0  0  0  0
   26.0906  -21.3954  -13.8308 O   0  0  0  0  0  0  0  0  0  0  0  0
   29.6510  -21.0374  -11.6933 C   0  0  0  0  0  0  0  0  0  0  0  0
   28.1834  -21.1321  -12.0641 C   0  0  2  0  0  0  0  0  0  0  0  0
   27.9602  -20.3023  -13.1996 N   0  0  0  0  0  0  0  0  0  0  0  0
   27.3975  -20.7399  -10.8741 C   0  0  0  0  0  0  0  0  0  0  0  0
   27.0040  -19.5431  -10.7549 O   0  0  0  0  0  0  0  0  0  0  0  0
   27.0414  -21.6170   -9.8323 N   0  0  0  0  0  0  0  0  0  0  0  0
   26.3150  -21.2115   -8.6212 C   0  0  1  0  0  0  0  0  0  0  0  0
   26.6119  -19.7457   -8.4743 C   0  0  0  0  0  0  0  0  0  0  0  0
   27.2978  -19.3248   -7.2572 C   0  0  0  0  0  0  0  0  0  0  0  0
   27.2515  -18.0310   -6.7722 C   0  0  0  0  0  0  0  0  0  0  0  0
   28.0070  -17.9833   -5.6677 N   0  0  0  0  0  0  0  0  0  0  0  0
   28.5342  -19.1816   -5.4205 C   0  0  0  0  0  0  0  0  0  0  0  0
   29.3523  -19.5905   -4.3953 C   0  0  0  0  0  0  0  0  0  0  0  0
   29.7556  -20.8965   -4.3443 C   0  0  0  0  0  0  0  0  0  0  0  0
   29.3313  -21.7658   -5.3208 C   0  0  0  0  0  0  0  0  0  0  0  0
   28.5174  -21.3535   -6.3393 C   0  0  0  0  0  0  0  0  0  0  0  0
   28.1030  -20.0386   -6.4042 C   0  0  0  0  0  0  0  0  0  0  0  0
   24.9058  -21.5175   -8.6755 C   0  0  0  0  0  0  0  0  0  0  0  0
   24.1950  -21.3813   -9.8566 O   0  0  0  0  0  0  0  0  0  0  0  0
   24.2873  -21.9125   -7.6637 O   0  0  0  0  0  0  0  0  0  0  0  0
  2  1  1  0
  2  3  1  0
  3  5  1  0
  3  4  1  1
  5  6  1  6
  5  7  1  0
  7  8  2  0
 10  9  1  1
 11  7  1  0
 11 10  1  0
 12 13  2  0
 12 10  1  0
 14 12  1  0
 15 14  1  0
 15 16  1  6
 17 25  1  0
 17 16  1  0
 18 17  2  0
 19 18  1  0
 19 20  1  0
 20 21  1  0
 20 25  2  0
 21 22  2  0
 22 23  1  0
 24 23  2  0
 25 24  1  0
 26 15  1  0
 27 26  1  0
 28 26  2  0
M  END
$$$$
