IAW.pdb
     RDKit          3D

 28 29  0  0  1  0  0  0  0  0999 V2000
   29.7068  -20.1361  -15.9386 C   0  0  0  0  0  0  0  0  0  0  0  0
   28.7554  -19.0201  -16.1386 C   0  0  0  0  0  0  0  0  0  0  0  0
   27.8214  -18.6790  -15.0458 C   0  0  2  0  0  0  0  0  0  0  0  0
   28.5720  -18.0544  -13.8668 C   0  0  0  0  0  0  0  0  0  0  0  0
   26.8327  -19.6802  -14.6265 C   0  0  2  0  0  0  0  0  0  0  0  0
   26.1097  -20.1395  -15.8674 N   0  0  0  0  0  0  0  0  0  0  0  0
   25.8663  -19.3868  -13.5878 C   0  0  0  0  0  0  0  0  0  0  0  0
   25.0774  -18.3919  -13.5984 O   0  0  0  0  0  0  0  0  0  0  0  0
   23.3992  -20.0989  -11.8048 C   0  0  0  0  0  0  0  0  0  0  0  0
   24.8271  -19.9221  -11.3251 C   0  0  2  0  0  0  0  0  0  0  0  0
   25.6980  -20.2091  -12.4146 N   0  0  0  0  0  0  0  0  0  0  0  0
   25.0179  -20.8106  -10.1581 C   0  0  0  0  0  0  0  0  0  0  0  0
   25.4667  -21.9806  -10.3336 O   0  0  0  0  0  0  0  0  0  0  0  0
   24.7315  -20.4487   -8.8283 N   0  0  0  0  0  0  0  0  0  0  0  0
   24.9035  -21.3398   -7.6729 C   0  0  1  0  0  0  0  0  0  0  0  0
   25.2445  -20.4212   -6.5334 C   0  0  0  0  0  0  0  0  0  0  0  0
   26.5994  -19.8812   -6.4970 C   0  0  0  0  0  0  0  0  0  0  0  0
   27.1374  -19.1198   -7.5180 C   0  0  0  0  0  0  0  0  0  0  0  0
   28.3968  -18.8165   -7.1789 N   0  0  0  0  0  0  0  0  0  0  0  0
   28.6922  -19.3447   -5.9920 C   0  0  0  0  0  0  0  0  0  0  0  0
   29.8530  -19.2753   -5.2602 C   0  0  0  0  0  0  0  0  0  0  0  0
   29.9111  -19.8939   -4.0418 C   0  0  0  0  0  0  0  0  0  0  0  0
   28.8058  -20.5690   -3.5813 C   0  0  0  0  0  0  0  0  0  0  0  0
   27.6532  -20.6353   -4.3139 C   0  0  0  0  0  0  0  0  0  0  0  0
   27.5799  -20.0166   -5.5454 C   0  0  0  0  0  0  0  0  0  0  0  0
   23.7531  -22.1744   -7.4236 C   0  0  0  0  0  0  0  0  0  0  0  0
   23.8368  -23.2618   -6.5696 O   0  0  0  0  0  0  0  0  0  0  0  0
   22.6521  -21.9427   -7.9682 O   0  0  0  0  0  0  0  0  0  0  0  0
  2  1  1  0
  2  3  1  0
  3  5  1  0
  3  4  1  1
  5  6  1  6
  5  7  1  0
  7  8  2  0
 10  9  1  6
 11  7  1  0
 11 10  1  0
 12 13  2  0
 12 10  1  0
 14 12  1  0
 15 14  1  0
 15 16  1  1
 17 25  1  0
 17 16  1  0
 18 17  2  0
 19 18  1  0
 19 20  1  0
 20 21  1  0
 20 25  2  0
 21 22  2  0
 22 23  1  0
 24 23  2  0
 25 24  1  0
 26 15  1  0
 27 26  1  0
 28 26  2  0
M  END
$$$$
