IAW.pdb
     RDKit          3D

 28 29  0  0  1  0  0  0  0  0999 V2000
   30.0482  -17.3454  -16.2337 C   0  0  0  0  0  0  0  0  0  0  0  0
   29.4837  -18.5094  -16.9527 C   0  0  0  0  0  0  0  0  0  0  0  0
   28.2554  -19.1407  -16.4278 C   0  0  2  0  0  0  0  0  0  0  0  0
   28.4435  -19.5602  -14.9676 C   0  0  0  0  0  0  0  0  0  0  0  0
   27.5928  -20.1717  -17.2365 C   0  0  2  0  0  0  0  0  0  0  0  0
   27.5245  -19.6531  -18.6507 N   0  0  0  0  0  0  0  0  0  0  0  0
   26.2999  -20.7031  -16.8563 C   0  0  0  0  0  0  0  0  0  0  0  0
   25.2012  -20.0775  -16.9739 O   0  0  0  0  0  0  0  0  0  0  0  0
   24.9270  -24.0700  -16.1106 C   0  0  0  0  0  0  0  0  0  0  0  0
   24.8859  -22.5742  -15.8632 C   0  0  2  0  0  0  0  0  0  0  0  0
   26.1246  -22.0207  -16.2957 N   0  0  0  0  0  0  0  0  0  0  0  0
   24.6097  -22.3684  -14.4248 C   0  0  0  0  0  0  0  0  0  0  0  0
   25.2029  -23.0866  -13.5682 O   0  0  0  0  0  0  0  0  0  0  0  0
   23.7132  -21.4094  -13.9167 N   0  0  0  0  0  0  0  0  0  0  0  0
   23.2504  -21.3659  -12.5230 C   0  0  1  0  0  0  0  0  0  0  0  0
   23.8921  -20.1342  -11.9489 C   0  0  0  0  0  0  0  0  0  0  0  0
   25.2272  -20.2837  -11.3796 C   0  0  0  0  0  0  0  0  0  0  0  0
   26.3693  -20.3976  -12.1503 C   0  0  0  0  0  0  0  0  0  0  0  0
   27.4077  -20.5494  -11.3186 N   0  0  0  0  0  0  0  0  0  0  0  0
   26.9882  -20.5379  -10.0541 C   0  0  0  0  0  0  0  0  0  0  0  0
   27.7041  -20.6471   -8.8866 C   0  0  0  0  0  0  0  0  0  0  0  0
   27.0427  -20.5886   -7.6909 C   0  0  0  0  0  0  0  0  0  0  0  0
   25.6783  -20.4220   -7.6890 C   0  0  0  0  0  0  0  0  0  0  0  0
   24.9705  -20.3144   -8.8540 C   0  0  0  0  0  0  0  0  0  0  0  0
   25.6243  -20.3722  -10.0681 C   0  0  0  0  0  0  0  0  0  0  0  0
   21.8126  -21.3836  -12.4016 C   0  0  0  0  0  0  0  0  0  0  0  0
   21.2064  -21.5136  -11.1629 O   0  0  0  0  0  0  0  0  0  0  0  0
   21.0745  -21.2830  -13.4054 O   0  0  0  0  0  0  0  0  0  0  0  0
  2  1  1  0
  2  3  1  0
  3  5  1  0
  3  4  1  1
  5  6  1  6
  5  7  1  0
  7  8  2  0
 10  9  1  1
 11  7  1  0
 11 10  1  0
 12 13  2  0
 12 10  1  0
 14 12  1  0
 15 14  1  0
 15 16  1  6
 17 25  1  0
 17 16  1  0
 18 17  2  0
 19 18  1  0
 19 20  1  0
 20 21  1  0
 20 25  2  0
 21 22  2  0
 22 23  1  0
 24 23  2  0
 25 24  1  0
 26 15  1  0
 27 26  1  0
 28 26  2  0
M  END
$$$$
