IAW.pdb
     RDKit          3D

 28 29  0  0  1  0  0  0  0  0999 V2000
   29.2152  -17.3181  -18.2352 C   0  0  0  0  0  0  0  0  0  0  0  0
   29.2598  -18.2551  -17.0903 C   0  0  0  0  0  0  0  0  0  0  0  0
   28.2339  -18.1346  -16.0340 C   0  0  2  0  0  0  0  0  0  0  0  0
   28.1738  -16.7020  -15.4980 C   0  0  0  0  0  0  0  0  0  0  0  0
   28.1987  -19.1442  -14.9684 C   0  0  2  0  0  0  0  0  0  0  0  0
   28.3453  -20.4926  -15.6270 N   0  0  0  0  0  0  0  0  0  0  0  0
   27.1065  -19.1895  -14.0178 C   0  0  0  0  0  0  0  0  0  0  0  0
   26.6872  -18.1914  -13.3543 O   0  0  0  0  0  0  0  0  0  0  0  0
   24.2554  -21.4578  -13.4655 C   0  0  0  0  0  0  0  0  0  0  0  0
   25.2419  -20.4793  -12.8575 C   0  0  2  0  0  0  0  0  0  0  0  0
   26.3699  -20.3942  -13.7224 N   0  0  0  0  0  0  0  0  0  0  0  0
   25.5670  -20.9620  -11.4977 C   0  0  0  0  0  0  0  0  0  0  0  0
   26.5989  -21.6726  -11.3198 O   0  0  0  0  0  0  0  0  0  0  0  0
   24.7979  -20.6866  -10.3514 N   0  0  0  0  0  0  0  0  0  0  0  0
   25.0945  -21.2094   -9.0107 C   0  0  1  0  0  0  0  0  0  0  0  0
   26.3916  -20.5545   -8.6271 C   0  0  0  0  0  0  0  0  0  0  0  0
   26.8043  -20.6633   -7.2318 C   0  0  0  0  0  0  0  0  0  0  0  0
   26.2927  -21.6100   -6.3638 C   0  0  0  0  0  0  0  0  0  0  0  0
   26.8588  -21.4121   -5.1665 N   0  0  0  0  0  0  0  0  0  0  0  0
   27.7076  -20.3869   -5.2243 C   0  0  0  0  0  0  0  0  0  0  0  0
   28.5079  -19.8485   -4.2459 C   0  0  0  0  0  0  0  0  0  0  0  0
   29.3200  -18.7922   -4.5549 C   0  0  0  0  0  0  0  0  0  0  0  0
   29.3139  -18.2970   -5.8372 C   0  0  0  0  0  0  0  0  0  0  0  0
   28.5151  -18.8363   -6.8071 C   0  0  0  0  0  0  0  0  0  0  0  0
   27.6899  -19.9020   -6.5098 C   0  0  0  0  0  0  0  0  0  0  0  0
   24.0274  -20.9857   -8.0655 C   0  0  0  0  0  0  0  0  0  0  0  0
   23.9095  -21.7697   -6.9296 O   0  0  0  0  0  0  0  0  0  0  0  0
   23.1816  -20.0825   -8.2422 O   0  0  0  0  0  0  0  0  0  0  0  0
  2  1  1  0
  2  3  1  0
  3  5  1  0
  3  4  1  1
  5  6  1  6
  5  7  1  0
  7  8  2  0
 10  9  1  6
 11  7  1  0
 11 10  1  0
 12 13  2  0
 12 10  1  0
 14 12  1  0
 15 14  1  0
 15 16  1  1
 17 25  1  0
 17 16  1  0
 18 17  2  0
 19 18  1  0
 19 20  1  0
 20 21  1  0
 20 25  2  0
 21 22  2  0
 22 23  1  0
 24 23  2  0
 25 24  1  0
 26 15  1  0
 27 26  1  0
 28 26  2  0
M  END
$$$$
