IAW.pdb
     RDKit          3D

 28 29  0  0  1  0  0  0  0  0999 V2000
   25.2217  -16.8659  -14.9706 C   0  0  0  0  0  0  0  0  0  0  0  0
   24.7362  -18.2500  -15.1686 C   0  0  0  0  0  0  0  0  0  0  0  0
   25.2071  -19.3059  -14.2488 C   0  0  2  0  0  0  0  0  0  0  0  0
   24.5336  -19.1724  -12.8805 C   0  0  0  0  0  0  0  0  0  0  0  0
   26.6494  -19.5632  -14.1518 C   0  0  2  0  0  0  0  0  0  0  0  0
   27.1563  -19.7930  -15.5531 N   0  0  0  0  0  0  0  0  0  0  0  0
   27.1671  -20.5961  -13.2777 C   0  0  0  0  0  0  0  0  0  0  0  0
   26.7529  -21.7962  -13.2569 O   0  0  0  0  0  0  0  0  0  0  0  0
   30.0757  -20.8277  -10.9011 C   0  0  0  0  0  0  0  0  0  0  0  0
   28.7375  -21.3274  -11.4108 C   0  0  2  0  0  0  0  0  0  0  0  0
   28.2249  -20.3633  -12.3249 N   0  0  0  0  0  0  0  0  0  0  0  0
   27.8702  -21.5553  -10.2346 C   0  0  0  0  0  0  0  0  0  0  0  0
   28.1849  -22.4460   -9.3926 O   0  0  0  0  0  0  0  0  0  0  0  0
   26.6874  -20.8400   -9.9685 N   0  0  0  0  0  0  0  0  0  0  0  0
   25.7952  -21.1094   -8.8327 C   0  0  1  0  0  0  0  0  0  0  0  0
   25.7444  -19.8127   -8.0748 C   0  0  0  0  0  0  0  0  0  0  0  0
   26.9719  -19.3790   -7.4160 C   0  0  0  0  0  0  0  0  0  0  0  0
   27.7120  -18.2900   -7.8375 C   0  0  0  0  0  0  0  0  0  0  0  0
   28.7819  -18.1914   -7.0383 N   0  0  0  0  0  0  0  0  0  0  0  0
   28.7639  -19.1621   -6.1259 C   0  0  0  0  0  0  0  0  0  0  0  0
   29.6467  -19.4321   -5.1083 C   0  0  0  0  0  0  0  0  0  0  0  0
   29.4022  -20.4902   -4.2767 C   0  0  0  0  0  0  0  0  0  0  0  0
   28.2790  -21.2557   -4.4812 C   0  0  0  0  0  0  0  0  0  0  0  0
   27.4039  -20.9828   -5.4959 C   0  0  0  0  0  0  0  0  0  0  0  0
   27.6378  -19.9188   -6.3433 C   0  0  0  0  0  0  0  0  0  0  0  0
   24.4988  -21.6006   -9.2335 C   0  0  0  0  0  0  0  0  0  0  0  0
   23.5610  -21.9818   -8.2880 O   0  0  0  0  0  0  0  0  0  0  0  0
   24.1848  -21.6965  -10.4395 O   0  0  0  0  0  0  0  0  0  0  0  0
  2  1  1  0
  2  3  1  0
  3  5  1  0
  3  4  1  1
  5  6  1  6
  5  7  1  0
  7  8  2  0
 10  9  1  1
 11  7  1  0
 11 10  1  0
 12 13  2  0
 12 10  1  0
 14 12  1  0
 15 14  1  0
 15 16  1  6
 17 25  1  0
 17 16  1  0
 18 17  2  0
 19 18  1  0
 19 20  1  0
 20 21  1  0
 20 25  2  0
 21 22  2  0
 22 23  1  0
 24 23  2  0
 25 24  1  0
 26 15  1  0
 27 26  1  0
 28 26  2  0
M  END
$$$$
