IAW.pdb
     RDKit          3D

 28 29  0  0  1  0  0  0  0  0999 V2000
   27.7859  -20.0844   -2.8050 C   0  0  0  0  0  0  0  0  0  0  0  0
   27.2543  -19.7307   -4.1403 C   0  0  0  0  0  0  0  0  0  0  0  0
   28.1996  -19.5943   -5.2674 C   0  0  2  0  0  0  0  0  0  0  0  0
   29.2168  -18.4844   -4.9902 C   0  0  0  0  0  0  0  0  0  0  0  0
   27.6642  -19.5490   -6.6339 C   0  0  2  0  0  0  0  0  0  0  0  0
   26.9771  -18.2170   -6.7992 N   0  0  0  0  0  0  0  0  0  0  0  0
   26.8017  -20.6002   -7.1338 C   0  0  0  0  0  0  0  0  0  0  0  0
   26.7643  -21.7820   -6.6710 O   0  0  0  0  0  0  0  0  0  0  0  0
   23.9022  -21.4328   -7.3875 C   0  0  0  0  0  0  0  0  0  0  0  0
   24.8266  -21.2981   -8.5823 C   0  0  2  0  0  0  0  0  0  0  0  0
   25.8807  -20.4089   -8.2274 N   0  0  0  0  0  0  0  0  0  0  0  0
   24.0117  -20.8323   -9.7253 C   0  0  0  0  0  0  0  0  0  0  0  0
   23.0751  -20.0051   -9.5257 O   0  0  0  0  0  0  0  0  0  0  0  0
   24.1996  -21.2476  -11.0571 N   0  0  0  0  0  0  0  0  0  0  0  0
   24.3498  -20.3317  -12.1961 C   0  0  1  0  0  0  0  0  0  0  0  0
   25.4986  -19.4403  -11.8166 C   0  0  0  0  0  0  0  0  0  0  0  0
   26.6772  -19.4723  -12.6761 C   0  0  0  0  0  0  0  0  0  0  0  0
   26.8113  -18.6853  -13.8048 C   0  0  0  0  0  0  0  0  0  0  0  0
   27.9874  -18.9836  -14.3713 N   0  0  0  0  0  0  0  0  0  0  0  0
   28.6135  -19.9215  -13.6619 C   0  0  0  0  0  0  0  0  0  0  0  0
   29.8381  -20.5103  -13.8652 C   0  0  0  0  0  0  0  0  0  0  0  0
   30.2816  -21.4507  -12.9766 C   0  0  0  0  0  0  0  0  0  0  0  0
   29.4898  -21.7819  -11.9028 C   0  0  0  0  0  0  0  0  0  0  0  0
   28.2716  -21.1931  -11.7055 C   0  0  0  0  0  0  0  0  0  0  0  0
   27.8107  -20.2430  -12.5941 C   0  0  0  0  0  0  0  0  0  0  0  0
   24.5339  -21.0153  -13.4536 C   0  0  0  0  0  0  0  0  0  0  0  0
   24.1337  -20.4312  -14.6441 O   0  0  0  0  0  0  0  0  0  0  0  0
   25.0573  -22.1491  -13.5061 O   0  0  0  0  0  0  0  0  0  0  0  0
  2  1  1  0
  2  3  1  0
  3  5  1  0
  3  4  1  1
  5  6  1  1
  5  7  1  0
  7  8  2  0
 10  9  1  1
 11  7  1  0
 11 10  1  0
 12 13  2  0
 12 10  1  0
 14 12  1  0
 15 14  1  0
 15 16  1  1
 17 25  1  0
 17 16  1  0
 18 17  2  0
 19 18  1  0
 19 20  1  0
 20 21  1  0
 20 25  2  0
 21 22  2  0
 22 23  1  0
 24 23  2  0
 25 24  1  0
 26 15  1  0
 27 26  1  0
 28 26  2  0
M  END
$$$$
