IAW.pdb
     RDKit          3D

 28 29  0  0  1  0  0  0  0  0999 V2000
   30.3998  -22.3097  -17.9893 C   0  0  0  0  0  0  0  0  0  0  0  0
   29.5547  -21.1452  -18.3363 C   0  0  0  0  0  0  0  0  0  0  0  0
   28.4615  -20.7629  -17.4189 C   0  0  2  0  0  0  0  0  0  0  0  0
   27.6260  -21.9861  -17.0323 C   0  0  0  0  0  0  0  0  0  0  0  0
   27.6393  -19.5929  -17.7523 C   0  0  2  0  0  0  0  0  0  0  0  0
   28.5832  -18.4584  -18.0611 N   0  0  0  0  0  0  0  0  0  0  0  0
   26.6043  -19.1261  -16.8525 C   0  0  0  0  0  0  0  0  0  0  0  0
   26.8198  -18.4855  -15.7775 O   0  0  0  0  0  0  0  0  0  0  0  0
   22.8368  -19.0776  -16.9454 C   0  0  0  0  0  0  0  0  0  0  0  0
   24.1487  -19.0100  -16.1873 C   0  0  2  0  0  0  0  0  0  0  0  0
   25.1983  -19.3444  -17.0896 N   0  0  0  0  0  0  0  0  0  0  0  0
   24.0417  -19.9252  -15.0302 C   0  0  0  0  0  0  0  0  0  0  0  0
   24.3337  -21.1480  -15.1749 O   0  0  0  0  0  0  0  0  0  0  0  0
   23.6287  -19.5338  -13.7427 N   0  0  0  0  0  0  0  0  0  0  0  0
   23.5478  -20.4396  -12.5887 C   0  0  1  0  0  0  0  0  0  0  0  0
   24.3079  -19.7355  -11.5002 C   0  0  0  0  0  0  0  0  0  0  0  0
   25.7358  -19.5261  -11.7147 C   0  0  0  0  0  0  0  0  0  0  0  0
   26.2562  -18.3687  -12.2633 C   0  0  0  0  0  0  0  0  0  0  0  0
   27.5842  -18.5193  -12.3464 N   0  0  0  0  0  0  0  0  0  0  0  0
   27.9405  -19.7146  -11.8779 C   0  0  0  0  0  0  0  0  0  0  0  0
   29.1873  -20.2798  -11.7607 C   0  0  0  0  0  0  0  0  0  0  0  0
   29.3037  -21.5326  -11.2246 C   0  0  0  0  0  0  0  0  0  0  0  0
   28.1694  -22.1935  -10.8169 C   0  0  0  0  0  0  0  0  0  0  0  0
   26.9308  -21.6265  -10.9364 C   0  0  0  0  0  0  0  0  0  0  0  0
   26.7978  -20.3632  -11.4760 C   0  0  0  0  0  0  0  0  0  0  0  0
   22.1924  -20.7782  -12.2270 C   0  0  0  0  0  0  0  0  0  0  0  0
   21.9207  -21.9047  -11.4682 O   0  0  0  0  0  0  0  0  0  0  0  0
   21.2278  -20.0689  -12.5858 O   0  0  0  0  0  0  0  0  0  0  0  0
  2  1  1  0
  2  3  1  0
  3  5  1  0
  3  4  1  6
  5  6  1  1
  5  7  1  0
  7  8  2  0
 10  9  1  6
 11  7  1  0
 11 10  1  0
 12 13  2  0
 12 10  1  0
 14 12  1  0
 15 14  1  0
 15 16  1  1
 17 25  1  0
 17 16  1  0
 18 17  2  0
 19 18  1  0
 19 20  1  0
 20 21  1  0
 20 25  2  0
 21 22  2  0
 22 23  1  0
 24 23  2  0
 25 24  1  0
 26 15  1  0
 27 26  1  0
 28 26  2  0
M  END
$$$$
