IAW.pdb
     RDKit          3D

 28 29  0  0  1  0  0  0  0  0999 V2000
   30.8514  -19.0579  -18.9863 C   0  0  0  0  0  0  0  0  0  0  0  0
   29.4805  -18.5000  -18.9981 C   0  0  0  0  0  0  0  0  0  0  0  0
   28.7191  -18.4608  -17.7326 C   0  0  2  0  0  0  0  0  0  0  0  0
   28.8180  -19.8009  -16.9991 C   0  0  0  0  0  0  0  0  0  0  0  0
   27.3547  -17.9186  -17.7483 C   0  0  2  0  0  0  0  0  0  0  0  0
   27.4195  -16.5680  -18.4155 N   0  0  0  0  0  0  0  0  0  0  0  0
   26.5771  -17.8163  -16.5303 C   0  0  0  0  0  0  0  0  0  0  0  0
   27.0225  -17.3740  -15.4265 O   0  0  0  0  0  0  0  0  0  0  0  0
   22.9480  -18.3374  -15.6615 C   0  0  0  0  0  0  0  0  0  0  0  0
   24.4040  -18.2017  -15.2592 C   0  0  2  0  0  0  0  0  0  0  0  0
   25.1929  -18.2131  -16.4447 N   0  0  0  0  0  0  0  0  0  0  0  0
   24.7128  -19.3067  -14.3258 C   0  0  0  0  0  0  0  0  0  0  0  0
   25.1251  -20.4117  -14.7843 O   0  0  0  0  0  0  0  0  0  0  0  0
   24.5809  -19.2257  -12.9267 N   0  0  0  0  0  0  0  0  0  0  0  0
   24.7980  -20.3520  -12.0086 C   0  0  1  0  0  0  0  0  0  0  0  0
   26.0859  -20.0255  -11.3063 C   0  0  0  0  0  0  0  0  0  0  0  0
   26.2184  -20.4656   -9.9215 C   0  0  0  0  0  0  0  0  0  0  0  0
   25.8092  -21.7107   -9.4816 C   0  0  0  0  0  0  0  0  0  0  0  0
   26.0456  -21.7749   -8.1651 N   0  0  0  0  0  0  0  0  0  0  0  0
   26.5862  -20.6338   -7.7400 C   0  0  0  0  0  0  0  0  0  0  0  0
   26.9980  -20.2684   -6.4812 C   0  0  0  0  0  0  0  0  0  0  0  0
   27.5471  -19.0301   -6.2926 C   0  0  0  0  0  0  0  0  0  0  0  0
   27.6726  -18.1834   -7.3681 C   0  0  0  0  0  0  0  0  0  0  0  0
   27.2607  -18.5520   -8.6188 C   0  0  0  0  0  0  0  0  0  0  0  0
   26.7041  -19.7981   -8.8243 C   0  0  0  0  0  0  0  0  0  0  0  0
   23.6882  -20.5772  -11.1142 C   0  0  0  0  0  0  0  0  0  0  0  0
   23.4262  -21.8415  -10.6126 O   0  0  0  0  0  0  0  0  0  0  0  0
   22.9336  -19.6432  -10.7671 O   0  0  0  0  0  0  0  0  0  0  0  0
  2  1  1  0
  2  3  1  0
  3  5  1  0
  3  4  1  6
  5  6  1  1
  5  7  1  0
  7  8  2  0
 10  9  1  6
 11  7  1  0
 11 10  1  0
 12 13  2  0
 12 10  1  0
 14 12  1  0
 15 14  1  0
 15 16  1  1
 17 25  1  0
 17 16  1  0
 18 17  2  0
 19 18  1  0
 19 20  1  0
 20 21  1  0
 20 25  2  0
 21 22  2  0
 22 23  1  0
 24 23  2  0
 25 24  1  0
 26 15  1  0
 27 26  1  0
 28 26  2  0
M  END
$$$$
