IAW.pdb
     RDKit          3D

 28 29  0  0  1  0  0  0  0  0999 V2000
   25.3426  -14.4391  -16.8440 C   0  0  0  0  0  0  0  0  0  0  0  0
   26.5227  -15.3294  -16.7691 C   0  0  0  0  0  0  0  0  0  0  0  0
   26.4184  -16.5827  -15.9938 C   0  0  2  0  0  0  0  0  0  0  0  0
   26.7616  -16.3394  -14.5219 C   0  0  0  0  0  0  0  0  0  0  0  0
   27.0436  -17.7975  -16.5319 C   0  0  2  0  0  0  0  0  0  0  0  0
   26.5522  -17.9617  -17.9479 N   0  0  0  0  0  0  0  0  0  0  0  0
   26.9371  -19.0637  -15.8361 C   0  0  0  0  0  0  0  0  0  0  0  0
   25.8949  -19.7887  -15.8154 O   0  0  0  0  0  0  0  0  0  0  0  0
   29.3421  -21.3480  -14.0749 C   0  0  0  0  0  0  0  0  0  0  0  0
   27.9373  -20.8145  -14.2803 C   0  0  2  0  0  0  0  0  0  0  0  0
   28.0232  -19.6411  -15.0826 N   0  0  0  0  0  0  0  0  0  0  0  0
   27.3495  -20.5820  -12.9431 C   0  0  0  0  0  0  0  0  0  0  0  0
   27.5968  -19.5006  -12.3342 O   0  0  0  0  0  0  0  0  0  0  0  0
   26.5124  -21.4940  -12.2733 N   0  0  0  0  0  0  0  0  0  0  0  0
   25.9347  -21.2632  -10.9422 C   0  0  1  0  0  0  0  0  0  0  0  0
   27.1227  -21.0835  -10.0396 C   0  0  0  0  0  0  0  0  0  0  0  0
   26.8594  -20.6443   -8.6733 C   0  0  0  0  0  0  0  0  0  0  0  0
   25.5910  -20.3625   -8.2010 C   0  0  0  0  0  0  0  0  0  0  0  0
   25.7103  -19.9613   -6.9291 N   0  0  0  0  0  0  0  0  0  0  0  0
   26.9913  -19.9726   -6.5628 C   0  0  0  0  0  0  0  0  0  0  0  0
   27.5663  -19.6538   -5.3564 C   0  0  0  0  0  0  0  0  0  0  0  0
   28.9223  -19.7618   -5.2148 C   0  0  0  0  0  0  0  0  0  0  0  0
   29.6745  -20.1870   -6.2839 C   0  0  0  0  0  0  0  0  0  0  0  0
   29.0971  -20.5026   -7.4826 C   0  0  0  0  0  0  0  0  0  0  0  0
   27.7300  -20.3978   -7.6405 C   0  0  0  0  0  0  0  0  0  0  0  0
   25.0067  -20.1586  -10.9101 C   0  0  0  0  0  0  0  0  0  0  0  0
   25.2747  -18.9864  -11.5977 O   0  0  0  0  0  0  0  0  0  0  0  0
   23.9388  -20.2257  -10.2640 O   0  0  0  0  0  0  0  0  0  0  0  0
  2  1  1  0
  2  3  1  0
  3  5  1  0
  3  4  1  1
  5  6  1  6
  5  7  1  0
  7  8  2  0
 10  9  1  1
 11  7  1  0
 11 10  1  0
 12 13  2  0
 12 10  1  0
 14 12  1  0
 15 14  1  0
 15 16  1  1
 17 25  1  0
 17 16  1  0
 18 17  2  0
 19 18  1  0
 19 20  1  0
 20 21  1  0
 20 25  2  0
 21 22  2  0
 22 23  1  0
 24 23  2  0
 25 24  1  0
 26 15  1  0
 27 26  1  0
 28 26  2  0
M  END
$$$$
