FWT.pdb
     RDKit          3D

 33 35  0  0  1  0  0  0  0  0999 V2000
   10.8753  -18.3176   26.9764 N   0  0  0  0  0  0  0  0  0  0  0  0
    9.6164  -18.3271   26.2825 C   0  0  1  0  0  0  0  0  0  0  0  0
    8.6845  -17.3897   27.0027 C   0  0  0  0  0  0  0  0  0  0  0  0
    9.3694  -16.2900   27.6857 C   0  0  0  0  0  0  0  0  0  0  0  0
    9.5772  -15.1018   27.0180 C   0  0  0  0  0  0  0  0  0  0  0  0
   10.2227  -14.0260   27.6197 C   0  0  0  0  0  0  0  0  0  0  0  0
   10.6816  -14.1182   28.9245 C   0  0  0  0  0  0  0  0  0  0  0  0
   10.4773  -15.2986   29.5932 C   0  0  0  0  0  0  0  0  0  0  0  0
    9.8318  -16.3638   28.9806 C   0  0  0  0  0  0  0  0  0  0  0  0
    9.7804  -17.7822   24.8861 C   0  0  0  0  0  0  0  0  0  0  0  0
   10.7690  -18.1862   24.1849 O   0  0  0  0  0  0  0  0  0  0  0  0
    8.8322  -16.8514   24.4225 N   0  0  0  0  0  0  0  0  0  0  0  0
    8.7207  -16.3663   23.0951 C   0  0  1  0  0  0  0  0  0  0  0  0
    7.7594  -15.2429   22.8851 C   0  0  0  0  0  0  0  0  0  0  0  0
    7.2004  -14.8202   24.1960 C   0  0  0  0  0  0  0  0  0  0  0  0
    6.6155  -15.6579   25.1459 C   0  0  0  0  0  0  0  0  0  0  0  0
    6.2522  -14.9341   26.2155 N   0  0  0  0  0  0  0  0  0  0  0  0
    6.5878  -13.6534   25.9780 C   0  0  0  0  0  0  0  0  0  0  0  0
    6.4195  -12.5178   26.7647 C   0  0  0  0  0  0  0  0  0  0  0  0
    6.8567  -11.3186   26.2553 C   0  0  0  0  0  0  0  0  0  0  0  0
    7.4447  -11.1946   25.0194 C   0  0  0  0  0  0  0  0  0  0  0  0
    7.6087  -12.3226   24.2452 C   0  0  0  0  0  0  0  0  0  0  0  0
    7.1860  -13.5468   24.7161 C   0  0  0  0  0  0  0  0  0  0  0  0
   10.0256  -16.1857   22.3762 C   0  0  0  0  0  0  0  0  0  0  0  0
   10.2602  -15.2620   21.5590 O   0  0  0  0  0  0  0  0  0  0  0  0
   13.5098  -15.4617   23.4667 C   0  0  0  0  0  0  0  0  0  0  0  0
   13.4661  -16.8364   22.8495 C   0  0  1  0  0  0  0  0  0  0  0  0
   13.4358  -17.8205   23.8227 O   0  0  0  0  0  0  0  0  0  0  0  0
   12.3537  -16.9776   21.8439 C   0  0  2  0  0  0  0  0  0  0  0  0
   11.0995  -17.0860   22.5965 N   0  0  0  0  0  0  0  0  0  0  0  0
   12.5866  -18.2127   21.0647 C   0  0  0  0  0  0  0  0  0  0  0  0
   11.8284  -19.2032   21.1802 O   0  0  0  0  0  0  0  0  0  0  0  0
   13.6666  -18.2572   20.1971 O   0  0  0  0  0  0  0  0  0  0  0  0
  2  1  1  1
  2  3  1  0
  3  4  1  0
  4  5  2  0
  5  6  1  0
  7  6  2  0
  8  7  1  0
  9  4  1  0
  9  8  2  0
 10 12  1  0
 10  2  1  0
 11 10  2  0
 13 12  1  0
 13 14  1  1
 15 23  1  0
 15 14  1  0
 16 15  2  0
 17 16  1  0
 17 18  1  0
 18 19  1  0
 18 23  2  0
 19 20  2  0
 20 21  1  0
 22 21  2  0
 23 22  1  0
 24 13  1  0
 25 24  2  0
 27 26  1  1
 27 28  1  0
 29 27  1  0
 29 30  1  1
 30 24  1  0
 31 33  1  0
 31 29  1  0
 32 31  2  0
M  END
$$$$
