FWT.pdb
     RDKit          3D

 33 35  0  0  1  0  0  0  0  0999 V2000
    6.0200  -16.4232   21.0871 N   0  0  0  0  0  0  0  0  0  0  0  0
    7.2240  -15.9320   21.7001 C   0  0  1  0  0  0  0  0  0  0  0  0
    7.2855  -14.4454   21.4719 C   0  0  0  0  0  0  0  0  0  0  0  0
    7.5775  -14.0754   20.0852 C   0  0  0  0  0  0  0  0  0  0  0  0
    7.3143  -12.7919   19.6562 C   0  0  0  0  0  0  0  0  0  0  0  0
    7.5722  -12.3883   18.3498 C   0  0  0  0  0  0  0  0  0  0  0  0
    8.1080  -13.2758   17.4296 C   0  0  0  0  0  0  0  0  0  0  0  0
    8.3718  -14.5544   17.8517 C   0  0  0  0  0  0  0  0  0  0  0  0
    8.1095  -14.9433   19.1581 C   0  0  0  0  0  0  0  0  0  0  0  0
    7.1763  -16.1366   23.1932 C   0  0  0  0  0  0  0  0  0  0  0  0
    6.3051  -15.4928   23.8706 O   0  0  0  0  0  0  0  0  0  0  0  0
    8.0981  -17.0305   23.7692 N   0  0  0  0  0  0  0  0  0  0  0  0
    9.1894  -16.6795   24.6032 C   0  0  1  0  0  0  0  0  0  0  0  0
    8.8922  -16.5710   26.0627 C   0  0  0  0  0  0  0  0  0  0  0  0
    7.7411  -15.6523   26.2648 C   0  0  0  0  0  0  0  0  0  0  0  0
    6.3938  -15.9810   26.1133 C   0  0  0  0  0  0  0  0  0  0  0  0
    5.6383  -14.9116   26.4058 N   0  0  0  0  0  0  0  0  0  0  0  0
    6.4643  -13.9044   26.7408 C   0  0  0  0  0  0  0  0  0  0  0  0
    6.1808  -12.5947   27.1166 C   0  0  0  0  0  0  0  0  0  0  0  0
    7.2421  -11.7681   27.3982 C   0  0  0  0  0  0  0  0  0  0  0  0
    8.5530  -12.1739   27.3253 C   0  0  0  0  0  0  0  0  0  0  0  0
    8.8273  -13.4719   26.9528 C   0  0  0  0  0  0  0  0  0  0  0  0
    7.7943  -14.3364   26.6622 C   0  0  0  0  0  0  0  0  0  0  0  0
   10.4725  -17.3968   24.3010 C   0  0  0  0  0  0  0  0  0  0  0  0
   10.7628  -18.5386   24.7345 O   0  0  0  0  0  0  0  0  0  0  0  0
   11.5622  -18.6596   21.1407 C   0  0  0  0  0  0  0  0  0  0  0  0
   12.6187  -17.6781   21.5797 C   0  0  1  0  0  0  0  0  0  0  0  0
   12.4837  -16.4694   20.9184 O   0  0  0  0  0  0  0  0  0  0  0  0
   12.6673  -17.5203   23.0769 C   0  0  2  0  0  0  0  0  0  0  0  0
   11.4570  -16.7944   23.4762 N   0  0  0  0  0  0  0  0  0  0  0  0
   13.8696  -16.7313   23.4216 C   0  0  0  0  0  0  0  0  0  0  0  0
   15.0160  -17.2293   23.3382 O   0  0  0  0  0  0  0  0  0  0  0  0
   13.7063  -15.4206   23.8419 O   0  0  0  0  0  0  0  0  0  0  0  0
  2  1  1  6
  2  3  1  0
  3  4  1  0
  4  5  2  0
  5  6  1  0
  7  6  2  0
  8  7  1  0
  9  4  1  0
  9  8  2  0
 10 12  1  0
 10  2  1  0
 11 10  2  0
 13 12  1  0
 13 14  1  1
 15 23  1  0
 15 14  1  0
 16 15  2  0
 17 16  1  0
 17 18  1  0
 18 19  1  0
 18 23  2  0
 19 20  2  0
 20 21  1  0
 22 21  2  0
 23 22  1  0
 24 13  1  0
 25 24  2  0
 27 26  1  1
 27 28  1  0
 29 27  1  0
 29 30  1  6
 30 24  1  0
 31 33  1  0
 31 29  1  0
 32 31  2  0
M  END
$$$$
