FWT.pdb
     RDKit          3D

 33 35  0  0  1  0  0  0  0  0999 V2000
   10.6823  -14.3472   21.3137 N   0  0  0  0  0  0  0  0  0  0  0  0
    9.5022  -14.8518   21.9613 C   0  0  1  0  0  0  0  0  0  0  0  0
    8.6875  -15.5862   20.9304 C   0  0  0  0  0  0  0  0  0  0  0  0
    8.1653  -14.7221   19.8695 C   0  0  0  0  0  0  0  0  0  0  0  0
    7.4583  -13.5873   20.2059 C   0  0  0  0  0  0  0  0  0  0  0  0
    6.9402  -12.7326   19.2378 C   0  0  0  0  0  0  0  0  0  0  0  0
    7.1217  -13.0002   17.8898 C   0  0  0  0  0  0  0  0  0  0  0  0
    7.8245  -14.1285   17.5499 C   0  0  0  0  0  0  0  0  0  0  0  0
    8.3359  -14.9723   18.5262 C   0  0  0  0  0  0  0  0  0  0  0  0
    9.8722  -15.8624   23.0174 C   0  0  0  0  0  0  0  0  0  0  0  0
   11.0807  -16.2729   23.0736 O   0  0  0  0  0  0  0  0  0  0  0  0
    8.8632  -16.3055   23.8927 N   0  0  0  0  0  0  0  0  0  0  0  0
    9.0627  -17.0206   25.1004 C   0  0  1  0  0  0  0  0  0  0  0  0
    7.9533  -16.9480   26.0975 C   0  0  0  0  0  0  0  0  0  0  0  0
    7.5296  -15.5327   26.2621 C   0  0  0  0  0  0  0  0  0  0  0  0
    6.3943  -14.9466   25.7018 C   0  0  0  0  0  0  0  0  0  0  0  0
    6.3173  -13.6643   26.0886 N   0  0  0  0  0  0  0  0  0  0  0  0
    7.3732  -13.4107   26.8823 C   0  0  0  0  0  0  0  0  0  0  0  0
    7.7526  -12.2379   27.5286 C   0  0  0  0  0  0  0  0  0  0  0  0
    8.9034  -12.2671   28.2793 C   0  0  0  0  0  0  0  0  0  0  0  0
    9.6847  -13.3892   28.4170 C   0  0  0  0  0  0  0  0  0  0  0  0
    9.3038  -14.5473   27.7749 C   0  0  0  0  0  0  0  0  0  0  0  0
    8.1563  -14.5646   27.0120 C   0  0  0  0  0  0  0  0  0  0  0  0
    9.6333  -18.3984   24.9326 C   0  0  0  0  0  0  0  0  0  0  0  0
    8.9616  -19.4059   24.6014 O   0  0  0  0  0  0  0  0  0  0  0  0
   12.3772  -19.6186   22.7089 C   0  0  0  0  0  0  0  0  0  0  0  0
   12.7720  -19.9073   24.1348 C   0  0  1  0  0  0  0  0  0  0  0  0
   13.7320  -19.0138   24.5782 O   0  0  0  0  0  0  0  0  0  0  0  0
   11.5814  -19.9861   25.0541 C   0  0  2  0  0  0  0  0  0  0  0  0
   11.0152  -18.6364   25.1476 N   0  0  0  0  0  0  0  0  0  0  0  0
   12.0504  -20.4333   26.3834 C   0  0  0  0  0  0  0  0  0  0  0  0
   12.4178  -21.6153   26.5758 O   0  0  0  0  0  0  0  0  0  0  0  0
   12.0770  -19.5157   27.4218 O   0  0  0  0  0  0  0  0  0  0  0  0
  2  1  1  6
  2  3  1  0
  3  4  1  0
  4  5  2  0
  5  6  1  0
  7  6  2  0
  8  7  1  0
  9  4  1  0
  9  8  2  0
 10 12  1  0
 10  2  1  0
 11 10  2  0
 13 12  1  0
 13 14  1  6
 15 23  1  0
 15 14  1  0
 16 15  2  0
 17 16  1  0
 17 18  1  0
 18 19  1  0
 18 23  2  0
 19 20  2  0
 20 21  1  0
 22 21  2  0
 23 22  1  0
 24 13  1  0
 25 24  2  0
 27 26  1  6
 27 28  1  0
 29 27  1  0
 29 30  1  1
 30 24  1  0
 31 33  1  0
 31 29  1  0
 32 31  2  0
M  END
$$$$
