FWT.pdb
     RDKit          3D

 33 35  0  0  1  0  0  0  0  0999 V2000
    8.1937  -17.2896   21.1671 N   0  0  0  0  0  0  0  0  0  0  0  0
    9.5425  -16.8483   21.3961 C   0  0  1  0  0  0  0  0  0  0  0  0
    9.7836  -15.6346   20.5389 C   0  0  0  0  0  0  0  0  0  0  0  0
    8.7145  -14.6369   20.6191 C   0  0  0  0  0  0  0  0  0  0  0  0
    8.7802  -13.5079   19.8305 C   0  0  0  0  0  0  0  0  0  0  0  0
    7.7921  -12.5290   19.8680 C   0  0  0  0  0  0  0  0  0  0  0  0
    6.6988  -12.6616   20.7100 C   0  0  0  0  0  0  0  0  0  0  0  0
    6.6288  -13.7833   21.4969 C   0  0  0  0  0  0  0  0  0  0  0  0
    7.6219  -14.7520   21.4492 C   0  0  0  0  0  0  0  0  0  0  0  0
    9.7164  -16.4060   22.8271 C   0  0  0  0  0  0  0  0  0  0  0  0
   10.5942  -15.5155   23.0889 O   0  0  0  0  0  0  0  0  0  0  0  0
    8.8994  -16.9989   23.8076 N   0  0  0  0  0  0  0  0  0  0  0  0
    9.2189  -17.1455   25.1810 C   0  0  1  0  0  0  0  0  0  0  0  0
    8.0923  -16.9502   26.1418 C   0  0  0  0  0  0  0  0  0  0  0  0
    7.3212  -15.7385   25.7583 C   0  0  0  0  0  0  0  0  0  0  0  0
    6.1014  -15.7236   25.0814 C   0  0  0  0  0  0  0  0  0  0  0  0
    5.6891  -14.4556   24.9333 N   0  0  0  0  0  0  0  0  0  0  0  0
    6.6117  -13.6552   25.4965 C   0  0  0  0  0  0  0  0  0  0  0  0
    6.6567  -12.2682   25.6020 C   0  0  0  0  0  0  0  0  0  0  0  0
    7.7438  -11.7114   26.2320 C   0  0  0  0  0  0  0  0  0  0  0  0
    8.7741  -12.4555   26.7550 C   0  0  0  0  0  0  0  0  0  0  0  0
    8.7238  -13.8283   26.6477 C   0  0  0  0  0  0  0  0  0  0  0  0
    7.6520  -14.4301   26.0246 C   0  0  0  0  0  0  0  0  0  0  0  0
   10.0904  -18.3234   25.5053 C   0  0  0  0  0  0  0  0  0  0  0  0
    9.9689  -19.4578   24.9815 O   0  0  0  0  0  0  0  0  0  0  0  0
   13.3145  -19.3887   24.9093 C   0  0  0  0  0  0  0  0  0  0  0  0
   13.2656  -19.2961   26.4131 C   0  0  1  0  0  0  0  0  0  0  0  0
   13.9423  -18.1770   26.8673 O   0  0  0  0  0  0  0  0  0  0  0  0
   11.8597  -19.3827   26.9468 C   0  0  2  0  0  0  0  0  0  0  0  0
   11.1361  -18.2049   26.4566 N   0  0  0  0  0  0  0  0  0  0  0  0
   11.9222  -19.3618   28.4242 C   0  0  0  0  0  0  0  0  0  0  0  0
   11.5237  -18.3680   29.0745 O   0  0  0  0  0  0  0  0  0  0  0  0
   12.4330  -20.4688   29.0834 O   0  0  0  0  0  0  0  0  0  0  0  0
  2  1  1  1
  2  3  1  0
  3  4  1  0
  4  5  2  0
  5  6  1  0
  7  6  2  0
  8  7  1  0
  9  4  1  0
  9  8  2  0
 10 12  1  0
 10  2  1  0
 11 10  2  0
 13 12  1  0
 13 14  1  1
 15 23  1  0
 15 14  1  0
 16 15  2  0
 17 16  1  0
 17 18  1  0
 18 19  1  0
 18 23  2  0
 19 20  2  0
 20 21  1  0
 22 21  2  0
 23 22  1  0
 24 13  1  0
 25 24  2  0
 27 26  1  6
 27 28  1  0
 29 27  1  0
 29 30  1  6
 30 24  1  0
 31 33  1  0
 31 29  1  0
 32 31  2  0
M  END
$$$$
