FWT.pdb
     RDKit          3D

 33 35  0  0  1  0  0  0  0  0999 V2000
   11.1698  -16.9342   19.1170 N   0  0  0  0  0  0  0  0  0  0  0  0
   10.2630  -15.9873   19.7065 C   0  0  1  0  0  0  0  0  0  0  0  0
    8.9575  -16.0722   18.9620 C   0  0  0  0  0  0  0  0  0  0  0  0
    8.3229  -14.7714   18.7383 C   0  0  0  0  0  0  0  0  0  0  0  0
    8.0232  -13.9685   19.8183 C   0  0  0  0  0  0  0  0  0  0  0  0
    7.4200  -12.7244   19.6619 C   0  0  0  0  0  0  0  0  0  0  0  0
    7.0986  -12.2495   18.3998 C   0  0  0  0  0  0  0  0  0  0  0  0
    7.3949  -13.0448   17.3217 C   0  0  0  0  0  0  0  0  0  0  0  0
    7.9967  -14.2839   17.4925 C   0  0  0  0  0  0  0  0  0  0  0  0
    9.9677  -16.3609   21.1372 C   0  0  0  0  0  0  0  0  0  0  0  0
   10.8472  -17.0176   21.7911 O   0  0  0  0  0  0  0  0  0  0  0  0
    8.7323  -15.9662   21.6835 N   0  0  0  0  0  0  0  0  0  0  0  0
    8.4251  -15.8677   23.0640 C   0  0  1  0  0  0  0  0  0  0  0  0
    7.1066  -15.2527   23.4010 C   0  0  0  0  0  0  0  0  0  0  0  0
    7.0271  -15.0291   24.8684 C   0  0  0  0  0  0  0  0  0  0  0  0
    6.6631  -15.9786   25.8235 C   0  0  0  0  0  0  0  0  0  0  0  0
    6.7312  -15.4302   27.0460 N   0  0  0  0  0  0  0  0  0  0  0  0
    7.1288  -14.1534   26.9019 C   0  0  0  0  0  0  0  0  0  0  0  0
    7.3443  -13.1642   27.8569 C   0  0  0  0  0  0  0  0  0  0  0  0
    7.7456  -11.9267   27.4139 C   0  0  0  0  0  0  0  0  0  0  0  0
    7.9404  -11.6284   26.0866 C   0  0  0  0  0  0  0  0  0  0  0  0
    7.7256  -12.6121   25.1458 C   0  0  0  0  0  0  0  0  0  0  0  0
    7.3234  -13.8683   25.5445 C   0  0  0  0  0  0  0  0  0  0  0  0
    8.7433  -17.0920   23.8715 C   0  0  0  0  0  0  0  0  0  0  0  0
    8.1286  -18.1822   23.7741 O   0  0  0  0  0  0  0  0  0  0  0  0
   11.5419  -19.2043   23.7228 C   0  0  0  0  0  0  0  0  0  0  0  0
   11.5307  -18.6935   25.1411 C   0  0  1  0  0  0  0  0  0  0  0  0
   12.4790  -17.7015   25.3225 O   0  0  0  0  0  0  0  0  0  0  0  0
   10.1550  -18.2724   25.5873 C   0  0  2  0  0  0  0  0  0  0  0  0
    9.7977  -17.0745   24.8203 N   0  0  0  0  0  0  0  0  0  0  0  0
   10.2128  -17.9531   27.0301 C   0  0  0  0  0  0  0  0  0  0  0  0
   10.3753  -18.8534   27.8859 O   0  0  0  0  0  0  0  0  0  0  0  0
   10.0830  -16.6305   27.4236 O   0  0  0  0  0  0  0  0  0  0  0  0
  2  1  1  6
  2  3  1  0
  3  4  1  0
  4  5  2  0
  5  6  1  0
  7  6  2  0
  8  7  1  0
  9  4  1  0
  9  8  2  0
 10 12  1  0
 10  2  1  0
 11 10  2  0
 13 12  1  0
 13 14  1  6
 15 23  1  0
 15 14  1  0
 16 15  2  0
 17 16  1  0
 17 18  1  0
 18 19  1  0
 18 23  2  0
 19 20  2  0
 20 21  1  0
 22 21  2  0
 23 22  1  0
 24 13  1  0
 25 24  2  0
 27 26  1  6
 27 28  1  0
 29 27  1  0
 29 30  1  6
 30 24  1  0
 31 33  1  0
 31 29  1  0
 32 31  2  0
M  END
$$$$
