FWT.pdb
     RDKit          3D

 33 35  0  0  1  0  0  0  0  0999 V2000
    8.1398  -16.3720   18.4321 N   0  0  0  0  0  0  0  0  0  0  0  0
    8.3608  -17.3006   19.5071 C   0  0  1  0  0  0  0  0  0  0  0  0
    9.3573  -18.3253   19.0351 C   0  0  0  0  0  0  0  0  0  0  0  0
    8.9465  -19.0268   17.8168 C   0  0  0  0  0  0  0  0  0  0  0  0
    9.7174  -20.0657   17.3400 C   0  0  0  0  0  0  0  0  0  0  0  0
    9.3731  -20.7649   16.1874 C   0  0  0  0  0  0  0  0  0  0  0  0
    8.2307  -20.4335   15.4755 C   0  0  0  0  0  0  0  0  0  0  0  0
    7.4603  -19.4003   15.9458 C   0  0  0  0  0  0  0  0  0  0  0  0
    7.8158  -18.7113   17.0972 C   0  0  0  0  0  0  0  0  0  0  0  0
    8.9881  -16.6015   20.6866 C   0  0  0  0  0  0  0  0  0  0  0  0
   10.2626  -16.5611   20.7658 O   0  0  0  0  0  0  0  0  0  0  0  0
    8.1347  -16.0257   21.6461 N   0  0  0  0  0  0  0  0  0  0  0  0
    8.5415  -15.3304   22.8127 C   0  0  1  0  0  0  0  0  0  0  0  0
    7.6160  -14.2632   23.2972 C   0  0  0  0  0  0  0  0  0  0  0  0
    7.7387  -14.1364   24.7732 C   0  0  0  0  0  0  0  0  0  0  0  0
    8.3937  -15.0301   25.6208 C   0  0  0  0  0  0  0  0  0  0  0  0
    8.3263  -14.5789   26.8825 N   0  0  0  0  0  0  0  0  0  0  0  0
    7.6449  -13.4194   26.8682 C   0  0  0  0  0  0  0  0  0  0  0  0
    7.2992  -12.5653   27.9113 C   0  0  0  0  0  0  0  0  0  0  0  0
    6.5801  -11.4364   27.5995 C   0  0  0  0  0  0  0  0  0  0  0  0
    6.1931  -11.1193   26.3196 C   0  0  0  0  0  0  0  0  0  0  0  0
    6.5386  -11.9687   25.2910 C   0  0  0  0  0  0  0  0  0  0  0  0
    7.2603  -13.1121   25.5570 C   0  0  0  0  0  0  0  0  0  0  0  0
    9.0868  -16.1986   23.9085 C   0  0  0  0  0  0  0  0  0  0  0  0
    8.4485  -17.1312   24.4551 O   0  0  0  0  0  0  0  0  0  0  0  0
   13.5790  -17.8732   25.1076 C   0  0  0  0  0  0  0  0  0  0  0  0
   12.6246  -16.8863   24.4850 C   0  0  1  0  0  0  0  0  0  0  0  0
   12.7639  -16.8567   23.1080 O   0  0  0  0  0  0  0  0  0  0  0  0
   11.2008  -17.1130   24.9213 C   0  0  2  0  0  0  0  0  0  0  0  0
   10.4036  -15.9991   24.3971 N   0  0  0  0  0  0  0  0  0  0  0  0
   11.1629  -17.1131   26.3996 C   0  0  0  0  0  0  0  0  0  0  0  0
   11.3437  -16.0587   27.0514 O   0  0  0  0  0  0  0  0  0  0  0  0
   10.9221  -18.3087   27.0580 O   0  0  0  0  0  0  0  0  0  0  0  0
  2  1  1  6
  2  3  1  0
  3  4  1  0
  4  5  2  0
  5  6  1  0
  7  6  2  0
  8  7  1  0
  9  4  1  0
  9  8  2  0
 10 12  1  0
 10  2  1  0
 11 10  2  0
 13 12  1  0
 13 14  1  1
 15 23  1  0
 15 14  1  0
 16 15  2  0
 17 16  1  0
 17 18  1  0
 18 19  1  0
 18 23  2  0
 19 20  2  0
 20 21  1  0
 22 21  2  0
 23 22  1  0
 24 13  1  0
 25 24  2  0
 27 26  1  6
 27 28  1  0
 29 27  1  0
 29 30  1  6
 30 24  1  0
 31 33  1  0
 31 29  1  0
 32 31  2  0
M  END
$$$$
