FWT.pdb
     RDKit          3D

 33 35  0  0  1  0  0  0  0  0999 V2000
    8.1214  -16.1679   21.6048 N   0  0  0  0  0  0  0  0  0  0  0  0
    9.4568  -15.7156   21.8849 C   0  0  1  0  0  0  0  0  0  0  0  0
    9.4769  -14.2173   21.7412 C   0  0  0  0  0  0  0  0  0  0  0  0
    8.6133  -13.7181   20.6689 C   0  0  0  0  0  0  0  0  0  0  0  0
    7.5926  -12.8425   20.9725 C   0  0  0  0  0  0  0  0  0  0  0  0
    6.7432  -12.3386   19.9924 C   0  0  0  0  0  0  0  0  0  0  0  0
    6.9000  -12.7068   18.6652 C   0  0  0  0  0  0  0  0  0  0  0  0
    7.9143  -13.5781   18.3579 C   0  0  0  0  0  0  0  0  0  0  0  0
    8.7544  -14.0729   19.3459 C   0  0  0  0  0  0  0  0  0  0  0  0
    9.8255  -16.0158   23.3158 C   0  0  0  0  0  0  0  0  0  0  0  0
   10.9057  -15.5206   23.7851 O   0  0  0  0  0  0  0  0  0  0  0  0
    8.9577  -16.8304   24.0666 N   0  0  0  0  0  0  0  0  0  0  0  0
    9.1838  -17.2934   25.3873 C   0  0  1  0  0  0  0  0  0  0  0  0
    8.0461  -17.1365   26.3420 C   0  0  0  0  0  0  0  0  0  0  0  0
    7.3220  -15.8732   26.0433 C   0  0  0  0  0  0  0  0  0  0  0  0
    6.1101  -15.7649   25.3609 C   0  0  0  0  0  0  0  0  0  0  0  0
    5.7442  -14.4754   25.3036 N   0  0  0  0  0  0  0  0  0  0  0  0
    6.6891  -13.7521   25.9307 C   0  0  0  0  0  0  0  0  0  0  0  0
    6.7820  -12.3791   26.1382 C   0  0  0  0  0  0  0  0  0  0  0  0
    7.8820  -11.9094   26.8151 C   0  0  0  0  0  0  0  0  0  0  0  0
    8.8803  -12.7263   27.2890 C   0  0  0  0  0  0  0  0  0  0  0  0
    8.7826  -14.0849   27.0807 C   0  0  0  0  0  0  0  0  0  0  0  0
    7.6963  -14.6005   26.4075 C   0  0  0  0  0  0  0  0  0  0  0  0
    9.8710  -18.6242   25.4818 C   0  0  0  0  0  0  0  0  0  0  0  0
    9.4966  -19.6575   24.8750 O   0  0  0  0  0  0  0  0  0  0  0  0
   13.3963  -18.7577   24.8500 C   0  0  0  0  0  0  0  0  0  0  0  0
   12.6255  -20.0400   25.0352 C   0  0  1  0  0  0  0  0  0  0  0  0
   13.4605  -21.1412   24.9541 O   0  0  0  0  0  0  0  0  0  0  0  0
   11.7933  -20.0317   26.2907 C   0  0  2  0  0  0  0  0  0  0  0  0
   11.0238  -18.7831   26.2931 N   0  0  0  0  0  0  0  0  0  0  0  0
   12.7067  -20.0675   27.4531 C   0  0  0  0  0  0  0  0  0  0  0  0
   12.7796  -19.1025   28.2486 O   0  0  0  0  0  0  0  0  0  0  0  0
   13.4878  -21.1955   27.6500 O   0  0  0  0  0  0  0  0  0  0  0  0
  2  1  1  1
  2  3  1  0
  3  4  1  0
  4  5  2  0
  5  6  1  0
  7  6  2  0
  8  7  1  0
  9  4  1  0
  9  8  2  0
 10 12  1  0
 10  2  1  0
 11 10  2  0
 13 12  1  0
 13 14  1  6
 15 23  1  0
 15 14  1  0
 16 15  2  0
 17 16  1  0
 17 18  1  0
 18 19  1  0
 18 23  2  0
 19 20  2  0
 20 21  1  0
 22 21  2  0
 23 22  1  0
 24 13  1  0
 25 24  2  0
 27 26  1  1
 27 28  1  0
 29 27  1  0
 29 30  1  1
 30 24  1  0
 31 33  1  0
 31 29  1  0
 32 31  2  0
M  END
$$$$
