FWT.pdb
     RDKit          3D

 33 35  0  0  1  0  0  0  0  0999 V2000
    5.3159  -19.8758   24.0994 N   0  0  0  0  0  0  0  0  0  0  0  0
    6.4438  -19.8228   23.2097 C   0  0  1  0  0  0  0  0  0  0  0  0
    5.9490  -20.1135   21.8181 C   0  0  0  0  0  0  0  0  0  0  0  0
    5.5378  -21.5050   21.6194 C   0  0  0  0  0  0  0  0  0  0  0  0
    5.0861  -21.9083   20.3808 C   0  0  0  0  0  0  0  0  0  0  0  0
    4.6830  -23.2178   20.1382 C   0  0  0  0  0  0  0  0  0  0  0  0
    4.7240  -24.1673   21.1473 C   0  0  0  0  0  0  0  0  0  0  0  0
    5.1726  -23.7710   22.3818 C   0  0  0  0  0  0  0  0  0  0  0  0
    5.5718  -22.4612   22.6097 C   0  0  0  0  0  0  0  0  0  0  0  0
    7.0249  -18.4317   23.1781 C   0  0  0  0  0  0  0  0  0  0  0  0
    6.2981  -17.4758   22.7419 O   0  0  0  0  0  0  0  0  0  0  0  0
    8.3450  -18.2547   23.6325 N   0  0  0  0  0  0  0  0  0  0  0  0
    8.7793  -17.2888   24.5749 C   0  0  1  0  0  0  0  0  0  0  0  0
    7.8992  -17.0903   25.7649 C   0  0  0  0  0  0  0  0  0  0  0  0
    7.2144  -15.7752   25.6583 C   0  0  0  0  0  0  0  0  0  0  0  0
    5.9766  -15.5421   25.0585 C   0  0  0  0  0  0  0  0  0  0  0  0
    5.6620  -14.2431   25.1755 N   0  0  0  0  0  0  0  0  0  0  0  0
    6.6650  -13.6353   25.8340 C   0  0  0  0  0  0  0  0  0  0  0  0
    6.8244  -12.3018   26.1994 C   0  0  0  0  0  0  0  0  0  0  0  0
    7.9742  -11.9571   26.8687 C   0  0  0  0  0  0  0  0  0  0  0  0
    8.9594  -12.8603   27.1882 C   0  0  0  0  0  0  0  0  0  0  0  0
    8.7957  -14.1791   26.8240 C   0  0  0  0  0  0  0  0  0  0  0  0
    7.6580  -14.5704   26.1521 C   0  0  0  0  0  0  0  0  0  0  0  0
   10.2414  -17.3440   24.9089 C   0  0  0  0  0  0  0  0  0  0  0  0
   10.7247  -18.0077   25.8586 O   0  0  0  0  0  0  0  0  0  0  0  0
   12.1581  -16.7798   21.4469 C   0  0  0  0  0  0  0  0  0  0  0  0
   13.0438  -16.4947   22.6330 C   0  0  1  0  0  0  0  0  0  0  0  0
   13.2634  -15.1355   22.7774 O   0  0  0  0  0  0  0  0  0  0  0  0
   12.5353  -17.1397   23.8957 C   0  0  2  0  0  0  0  0  0  0  0  0
   11.1845  -16.6207   24.1345 N   0  0  0  0  0  0  0  0  0  0  0  0
   13.4314  -16.7539   25.0070 C   0  0  0  0  0  0  0  0  0  0  0  0
   14.6383  -17.0897   25.0113 O   0  0  0  0  0  0  0  0  0  0  0  0
   12.9101  -16.0084   26.0528 O   0  0  0  0  0  0  0  0  0  0  0  0
  2  1  1  1
  2  3  1  0
  3  4  1  0
  4  5  2  0
  5  6  1  0
  7  6  2  0
  8  7  1  0
  9  4  1  0
  9  8  2  0
 10 12  1  0
 10  2  1  0
 11 10  2  0
 13 12  1  0
 13 14  1  1
 15 23  1  0
 15 14  1  0
 16 15  2  0
 17 16  1  0
 17 18  1  0
 18 19  1  0
 18 23  2  0
 19 20  2  0
 20 21  1  0
 22 21  2  0
 23 22  1  0
 24 13  1  0
 25 24  2  0
 27 26  1  6
 27 28  1  0
 29 27  1  0
 29 30  1  1
 30 24  1  0
 31 33  1  0
 31 29  1  0
 32 31  2  0
M  END
$$$$
