FWT.pdb
     RDKit          3D

 33 35  0  0  1  0  0  0  0  0999 V2000
   11.3031  -17.5077   19.4780 N   0  0  0  0  0  0  0  0  0  0  0  0
   10.5872  -16.3327   19.8944 C   0  0  1  0  0  0  0  0  0  0  0  0
    9.4261  -16.1419   18.9556 C   0  0  0  0  0  0  0  0  0  0  0  0
    8.6639  -14.9165   19.2051 C   0  0  0  0  0  0  0  0  0  0  0  0
    7.3113  -14.9992   19.4592 C   0  0  0  0  0  0  0  0  0  0  0  0
    6.5405  -13.8666   19.7021 C   0  0  0  0  0  0  0  0  0  0  0  0
    7.1168  -12.6059   19.6956 C   0  0  0  0  0  0  0  0  0  0  0  0
    8.4625  -12.5182   19.4430 C   0  0  0  0  0  0  0  0  0  0  0  0
    9.2194  -13.6566   19.2024 C   0  0  0  0  0  0  0  0  0  0  0  0
   10.0008  -16.5326   21.2691 C   0  0  0  0  0  0  0  0  0  0  0  0
    9.8253  -17.7257   21.6909 O   0  0  0  0  0  0  0  0  0  0  0  0
    9.6742  -15.3898   22.0226 N   0  0  0  0  0  0  0  0  0  0  0  0
    9.0565  -15.3815   23.2986 C   0  0  1  0  0  0  0  0  0  0  0  0
    7.6965  -14.7682   23.3658 C   0  0  0  0  0  0  0  0  0  0  0  0
    7.3083  -14.5836   24.7888 C   0  0  0  0  0  0  0  0  0  0  0  0
    6.6747  -15.5297   25.5948 C   0  0  0  0  0  0  0  0  0  0  0  0
    6.5074  -15.0257   26.8269 N   0  0  0  0  0  0  0  0  0  0  0  0
    7.0163  -13.7807   26.8339 C   0  0  0  0  0  0  0  0  0  0  0  0
    7.0831  -12.8411   27.8584 C   0  0  0  0  0  0  0  0  0  0  0  0
    7.6594  -11.6265   27.5732 C   0  0  0  0  0  0  0  0  0  0  0  0
    8.1653  -11.3045   26.3367 C   0  0  0  0  0  0  0  0  0  0  0  0
    8.0965  -12.2390   25.3264 C   0  0  0  0  0  0  0  0  0  0  0  0
    7.5279  -13.4709   25.5674 C   0  0  0  0  0  0  0  0  0  0  0  0
    9.1782  -16.6641   24.0684 C   0  0  0  0  0  0  0  0  0  0  0  0
    8.3982  -17.6398   23.9437 O   0  0  0  0  0  0  0  0  0  0  0  0
   11.6788  -19.3477   24.2036 C   0  0  0  0  0  0  0  0  0  0  0  0
   11.6355  -18.6942   25.5614 C   0  0  1  0  0  0  0  0  0  0  0  0
   12.7002  -17.8260   25.7324 O   0  0  0  0  0  0  0  0  0  0  0  0
   10.3052  -18.0464   25.8431 C   0  0  2  0  0  0  0  0  0  0  0  0
   10.2240  -16.8419   25.0102 N   0  0  0  0  0  0  0  0  0  0  0  0
   10.2624  -17.6778   27.2746 C   0  0  0  0  0  0  0  0  0  0  0  0
   10.2770  -16.4780   27.6344 O   0  0  0  0  0  0  0  0  0  0  0  0
   10.2056  -18.6899   28.2198 O   0  0  0  0  0  0  0  0  0  0  0  0
  2  1  1  6
  2  3  1  0
  3  4  1  0
  4  5  2  0
  5  6  1  0
  7  6  2  0
  8  7  1  0
  9  4  1  0
  9  8  2  0
 10 12  1  0
 10  2  1  0
 11 10  2  0
 13 12  1  0
 13 14  1  6
 15 23  1  0
 15 14  1  0
 16 15  2  0
 17 16  1  0
 17 18  1  0
 18 19  1  0
 18 23  2  0
 19 20  2  0
 20 21  1  0
 22 21  2  0
 23 22  1  0
 24 13  1  0
 25 24  2  0
 27 26  1  6
 27 28  1  0
 29 27  1  0
 29 30  1  6
 30 24  1  0
 31 33  1  0
 31 29  1  0
 32 31  2  0
M  END
$$$$
