FWT.pdb
     RDKit          3D

 33 35  0  0  1  0  0  0  0  0999 V2000
    7.1587  -17.8723   21.7325 N   0  0  0  0  0  0  0  0  0  0  0  0
    7.7227  -16.6130   21.3293 C   0  0  1  0  0  0  0  0  0  0  0  0
    6.6126  -15.5966   21.3035 C   0  0  0  0  0  0  0  0  0  0  0  0
    7.0310  -14.2819   20.8120 C   0  0  0  0  0  0  0  0  0  0  0  0
    7.3740  -14.1318   19.4851 C   0  0  0  0  0  0  0  0  0  0  0  0
    7.7787  -12.9056   18.9668 C   0  0  0  0  0  0  0  0  0  0  0  0
    7.8501  -11.7847   19.7793 C   0  0  0  0  0  0  0  0  0  0  0  0
    7.5099  -11.9290   21.1007 C   0  0  0  0  0  0  0  0  0  0  0  0
    7.1078  -13.1584   21.6043 C   0  0  0  0  0  0  0  0  0  0  0  0
    8.7225  -16.1325   22.3506 C   0  0  0  0  0  0  0  0  0  0  0  0
    9.5899  -15.2644   21.9950 O   0  0  0  0  0  0  0  0  0  0  0  0
    8.6505  -16.6666   23.6506 N   0  0  0  0  0  0  0  0  0  0  0  0
    9.6258  -16.5162   24.6684 C   0  0  1  0  0  0  0  0  0  0  0  0
    9.1047  -16.3597   26.0592 C   0  0  0  0  0  0  0  0  0  0  0  0
    7.9090  -15.4767   26.0417 C   0  0  0  0  0  0  0  0  0  0  0  0
    6.5861  -15.8916   25.8864 C   0  0  0  0  0  0  0  0  0  0  0  0
    5.7740  -14.8255   25.9501 N   0  0  0  0  0  0  0  0  0  0  0  0
    6.5400  -13.7366   26.1416 C   0  0  0  0  0  0  0  0  0  0  0  0
    6.1849  -12.3968   26.2673 C   0  0  0  0  0  0  0  0  0  0  0  0
    7.1956  -11.4836   26.4492 C   0  0  0  0  0  0  0  0  0  0  0  0
    8.5235  -11.8319   26.5112 C   0  0  0  0  0  0  0  0  0  0  0  0
    8.8688  -13.1600   26.3863 C   0  0  0  0  0  0  0  0  0  0  0  0
    7.8882  -14.1108   26.2035 C   0  0  0  0  0  0  0  0  0  0  0  0
   10.7969  -17.4489   24.5648 C   0  0  0  0  0  0  0  0  0  0  0  0
   10.9371  -18.4867   25.2570 O   0  0  0  0  0  0  0  0  0  0  0  0
   11.9146  -19.1208   21.3726 C   0  0  0  0  0  0  0  0  0  0  0  0
   13.0773  -18.3590   21.9558 C   0  0  1  0  0  0  0  0  0  0  0  0
   13.2984  -17.1793   21.2659 O   0  0  0  0  0  0  0  0  0  0  0  0
   12.9366  -18.1475   23.4405 C   0  0  2  0  0  0  0  0  0  0  0  0
   11.8423  -17.1918   23.6410 N   0  0  0  0  0  0  0  0  0  0  0  0
   14.2043  -17.5823   23.9509 C   0  0  0  0  0  0  0  0  0  0  0  0
   15.2442  -18.2780   24.0129 O   0  0  0  0  0  0  0  0  0  0  0  0
   14.2235  -16.2591   24.3630 O   0  0  0  0  0  0  0  0  0  0  0  0
  2  1  1  1
  2  3  1  0
  3  4  1  0
  4  5  2  0
  5  6  1  0
  7  6  2  0
  8  7  1  0
  9  4  1  0
  9  8  2  0
 10 12  1  0
 10  2  1  0
 11 10  2  0
 13 12  1  0
 13 14  1  1
 15 23  1  0
 15 14  1  0
 16 15  2  0
 17 16  1  0
 17 18  1  0
 18 19  1  0
 18 23  2  0
 19 20  2  0
 20 21  1  0
 22 21  2  0
 23 22  1  0
 24 13  1  0
 25 24  2  0
 27 26  1  6
 27 28  1  0
 29 27  1  0
 29 30  1  6
 30 24  1  0
 31 33  1  0
 31 29  1  0
 32 31  2  0
M  END
$$$$
