FWT.pdb
     RDKit          3D

 33 35  0  0  1  0  0  0  0  0999 V2000
    8.2405  -17.2741   21.2385 N   0  0  0  0  0  0  0  0  0  0  0  0
    9.5788  -16.8089   21.4816 C   0  0  1  0  0  0  0  0  0  0  0  0
    9.7763  -15.5391   20.6977 C   0  0  0  0  0  0  0  0  0  0  0  0
    8.7457  -14.5287   20.9463 C   0  0  0  0  0  0  0  0  0  0  0  0
    7.4189  -14.9030   20.9614 C   0  0  0  0  0  0  0  0  0  0  0  0
    6.4004  -13.9835   21.1922 C   0  0  0  0  0  0  0  0  0  0  0  0
    6.6934  -12.6473   21.4165 C   0  0  0  0  0  0  0  0  0  0  0  0
    8.0123  -12.2698   21.4024 C   0  0  0  0  0  0  0  0  0  0  0  0
    9.0182  -13.1978   21.1709 C   0  0  0  0  0  0  0  0  0  0  0  0
    9.7555  -16.4492   22.9352 C   0  0  0  0  0  0  0  0  0  0  0  0
   10.7215  -15.6791   23.2610 O   0  0  0  0  0  0  0  0  0  0  0  0
    8.8435  -16.9820   23.8652 N   0  0  0  0  0  0  0  0  0  0  0  0
    9.0715  -17.1482   25.2545 C   0  0  1  0  0  0  0  0  0  0  0  0
    7.9062  -16.8768   26.1482 C   0  0  0  0  0  0  0  0  0  0  0  0
    7.2266  -15.6301   25.7081 C   0  0  0  0  0  0  0  0  0  0  0  0
    6.0772  -15.5574   24.9209 C   0  0  0  0  0  0  0  0  0  0  0  0
    5.7350  -14.2715   24.7492 N   0  0  0  0  0  0  0  0  0  0  0  0
    6.6342  -13.5161   25.4048 C   0  0  0  0  0  0  0  0  0  0  0  0
    6.7282  -12.1331   25.5294 C   0  0  0  0  0  0  0  0  0  0  0  0
    7.7744  -11.6287   26.2641 C   0  0  0  0  0  0  0  0  0  0  0  0
    8.7186  -12.4205   26.8723 C   0  0  0  0  0  0  0  0  0  0  0  0
    8.6201  -13.7891   26.7455 C   0  0  0  0  0  0  0  0  0  0  0  0
    7.5866  -14.3392   26.0187 C   0  0  0  0  0  0  0  0  0  0  0  0
    9.8418  -18.3814   25.6259 C   0  0  0  0  0  0  0  0  0  0  0  0
    9.3456  -19.5330   25.6863 O   0  0  0  0  0  0  0  0  0  0  0  0
   12.6611  -19.9003   23.9375 C   0  0  0  0  0  0  0  0  0  0  0  0
   13.1335  -19.6128   25.3399 C   0  0  1  0  0  0  0  0  0  0  0  0
   13.9798  -18.5176   25.3675 O   0  0  0  0  0  0  0  0  0  0  0  0
   11.9921  -19.4912   26.3152 C   0  0  2  0  0  0  0  0  0  0  0  0
   11.2234  -18.3006   25.9373 N   0  0  0  0  0  0  0  0  0  0  0  0
   12.5567  -19.3217   27.6714 C   0  0  0  0  0  0  0  0  0  0  0  0
   12.4390  -18.2391   28.2905 O   0  0  0  0  0  0  0  0  0  0  0  0
   13.2239  -20.3892   28.2515 O   0  0  0  0  0  0  0  0  0  0  0  0
  2  1  1  1
  2  3  1  0
  3  4  1  0
  4  5  2  0
  5  6  1  0
  7  6  2  0
  8  7  1  0
  9  4  1  0
  9  8  2  0
 10 12  1  0
 10  2  1  0
 11 10  2  0
 13 12  1  0
 13 14  1  1
 15 23  1  0
 15 14  1  0
 16 15  2  0
 17 16  1  0
 17 18  1  0
 18 19  1  0
 18 23  2  0
 19 20  2  0
 20 21  1  0
 22 21  2  0
 23 22  1  0
 24 13  1  0
 25 24  2  0
 27 26  1  6
 27 28  1  0
 29 27  1  0
 29 30  1  6
 30 24  1  0
 31 33  1  0
 31 29  1  0
 32 31  2  0
M  END
$$$$
