FWT.pdb
     RDKit          3D

 33 35  0  0  1  0  0  0  0  0999 V2000
    6.5981  -18.5296   27.1664 N   0  0  0  0  0  0  0  0  0  0  0  0
    6.5653  -17.1629   26.7220 C   0  0  1  0  0  0  0  0  0  0  0  0
    7.2696  -16.3241   27.7547 C   0  0  0  0  0  0  0  0  0  0  0  0
    7.1879  -14.8846   27.4977 C   0  0  0  0  0  0  0  0  0  0  0  0
    5.9516  -14.2878   27.3700 C   0  0  0  0  0  0  0  0  0  0  0  0
    5.8175  -12.9247   27.1251 C   0  0  0  0  0  0  0  0  0  0  0  0
    6.9368  -12.1164   27.0007 C   0  0  0  0  0  0  0  0  0  0  0  0
    8.1694  -12.7056   27.1269 C   0  0  0  0  0  0  0  0  0  0  0  0
    8.2884  -14.0668   27.3712 C   0  0  0  0  0  0  0  0  0  0  0  0
    7.3415  -17.0073   25.4388 C   0  0  0  0  0  0  0  0  0  0  0  0
    8.3522  -17.7633   25.2406 O   0  0  0  0  0  0  0  0  0  0  0  0
    6.9124  -16.0324   24.5190 N   0  0  0  0  0  0  0  0  0  0  0  0
    7.5512  -15.7008   23.2976 C   0  0  1  0  0  0  0  0  0  0  0  0
    6.9388  -14.5835   22.5185 C   0  0  0  0  0  0  0  0  0  0  0  0
    7.2405  -14.7657   21.0744 C   0  0  0  0  0  0  0  0  0  0  0  0
    6.9986  -15.9177   20.3256 C   0  0  0  0  0  0  0  0  0  0  0  0
    7.3706  -15.7090   19.0536 N   0  0  0  0  0  0  0  0  0  0  0  0
    7.8455  -14.4537   18.9652 C   0  0  0  0  0  0  0  0  0  0  0  0
    8.3586  -13.7601   17.8731 C   0  0  0  0  0  0  0  0  0  0  0  0
    8.7857  -12.4703   18.0804 C   0  0  0  0  0  0  0  0  0  0  0  0
    8.7286  -11.8451   19.3028 C   0  0  0  0  0  0  0  0  0  0  0  0
    8.2193  -12.5370   20.3801 C   0  0  0  0  0  0  0  0  0  0  0  0
    7.7783  -13.8325   20.2186 C   0  0  0  0  0  0  0  0  0  0  0  0
    9.0492  -15.6395   23.3637 C   0  0  0  0  0  0  0  0  0  0  0  0
    9.6934  -14.7701   24.0003 O   0  0  0  0  0  0  0  0  0  0  0  0
   11.8065  -18.3933   24.2007 C   0  0  0  0  0  0  0  0  0  0  0  0
   11.8514  -17.8941   22.7790 C   0  0  1  0  0  0  0  0  0  0  0  0
   11.2481  -18.7918   21.9147 O   0  0  0  0  0  0  0  0  0  0  0  0
   11.3023  -16.4979   22.6445 C   0  0  2  0  0  0  0  0  0  0  0  0
    9.8398  -16.6011   22.6836 N   0  0  0  0  0  0  0  0  0  0  0  0
   11.7382  -15.9514   21.3414 C   0  0  0  0  0  0  0  0  0  0  0  0
   10.9306  -15.8182   20.3930 O   0  0  0  0  0  0  0  0  0  0  0  0
   13.0659  -15.5858   21.1848 O   0  0  0  0  0  0  0  0  0  0  0  0
  2  1  1  1
  2  3  1  0
  3  4  1  0
  4  5  2  0
  5  6  1  0
  7  6  2  0
  8  7  1  0
  9  4  1  0
  9  8  2  0
 10 12  1  0
 10  2  1  0
 11 10  2  0
 13 12  1  0
 13 14  1  1
 15 23  1  0
 15 14  1  0
 16 15  2  0
 17 16  1  0
 17 18  1  0
 18 19  1  0
 18 23  2  0
 19 20  2  0
 20 21  1  0
 22 21  2  0
 23 22  1  0
 24 13  1  0
 25 24  2  0
 27 26  1  1
 27 28  1  0
 29 27  1  0
 29 30  1  6
 30 24  1  0
 31 33  1  0
 31 29  1  0
 32 31  2  0
M  END
$$$$
