FWT.pdb
     RDKit          3D

 33 35  0  0  1  0  0  0  0  0999 V2000
    9.7853  -17.5805   20.2527 N   0  0  0  0  0  0  0  0  0  0  0  0
    9.1659  -16.6532   21.1600 C   0  0  1  0  0  0  0  0  0  0  0  0
    7.9534  -16.0788   20.4775 C   0  0  0  0  0  0  0  0  0  0  0  0
    7.5682  -14.7574   20.9780 C   0  0  0  0  0  0  0  0  0  0  0  0
    8.0531  -13.6280   20.3532 C   0  0  0  0  0  0  0  0  0  0  0  0
    7.7192  -12.3492   20.7882 C   0  0  0  0  0  0  0  0  0  0  0  0
    6.8788  -12.1706   21.8760 C   0  0  0  0  0  0  0  0  0  0  0  0
    6.3937  -13.2914   22.5012 C   0  0  0  0  0  0  0  0  0  0  0  0
    6.7351  -14.5612   22.0566 C   0  0  0  0  0  0  0  0  0  0  0  0
    8.6684  -17.3712   22.3890 C   0  0  0  0  0  0  0  0  0  0  0  0
    8.3828  -18.6131   22.2974 O   0  0  0  0  0  0  0  0  0  0  0  0
    8.5426  -16.6343   23.5814 N   0  0  0  0  0  0  0  0  0  0  0  0
    9.4353  -16.6716   24.6820 C   0  0  1  0  0  0  0  0  0  0  0  0
    8.8620  -16.2856   26.0059 C   0  0  0  0  0  0  0  0  0  0  0  0
    7.6740  -15.4173   25.7948 C   0  0  0  0  0  0  0  0  0  0  0  0
    6.3908  -15.8512   25.4612 C   0  0  0  0  0  0  0  0  0  0  0  0
    5.5692  -14.7935   25.3811 N   0  0  0  0  0  0  0  0  0  0  0  0
    6.2906  -13.6916   25.6540 C   0  0  0  0  0  0  0  0  0  0  0  0
    5.9100  -12.3534   25.6944 C   0  0  0  0  0  0  0  0  0  0  0  0
    6.8764  -11.4244   25.9973 C   0  0  0  0  0  0  0  0  0  0  0  0
    8.1843  -11.7557   26.2582 C   0  0  0  0  0  0  0  0  0  0  0  0
    8.5550  -13.0822   26.2169 C   0  0  0  0  0  0  0  0  0  0  0  0
    7.6189  -14.0484   25.9183 C   0  0  0  0  0  0  0  0  0  0  0  0
   10.3198  -17.8827   24.7381 C   0  0  0  0  0  0  0  0  0  0  0  0
    9.9247  -19.0564   24.5323 O   0  0  0  0  0  0  0  0  0  0  0  0
   11.4748  -19.8732   22.9959 C   0  0  0  0  0  0  0  0  0  0  0  0
   12.7549  -19.3284   23.5767 C   0  0  1  0  0  0  0  0  0  0  0  0
   13.2760  -18.3221   22.7815 O   0  0  0  0  0  0  0  0  0  0  0  0
   12.5991  -18.9115   25.0157 C   0  0  2  0  0  0  0  0  0  0  0  0
   11.7004  -17.7526   25.0369 N   0  0  0  0  0  0  0  0  0  0  0  0
   13.9304  -18.5313   25.5354 C   0  0  0  0  0  0  0  0  0  0  0  0
   14.2239  -17.3321   25.7471 O   0  0  0  0  0  0  0  0  0  0  0  0
   14.8561  -19.5319   25.7865 O   0  0  0  0  0  0  0  0  0  0  0  0
  2  1  1  6
  2  3  1  0
  3  4  1  0
  4  5  2  0
  5  6  1  0
  7  6  2  0
  8  7  1  0
  9  4  1  0
  9  8  2  0
 10 12  1  0
 10  2  1  0
 11 10  2  0
 13 12  1  0
 13 14  1  1
 15 23  1  0
 15 14  1  0
 16 15  2  0
 17 16  1  0
 17 18  1  0
 18 19  1  0
 18 23  2  0
 19 20  2  0
 20 21  1  0
 22 21  2  0
 23 22  1  0
 24 13  1  0
 25 24  2  0
 27 26  1  6
 27 28  1  0
 29 27  1  0
 29 30  1  6
 30 24  1  0
 31 33  1  0
 31 29  1  0
 32 31  2  0
M  END
$$$$
