CNC.pdb
     RDKit          3D

 21 20  0  0  1  0  0  0  0  0999 V2000
   17.1154  -13.2168  -15.2390 N   0  0  0  0  0  0  0  0  0  0  0  0
   16.6601  -11.8626  -15.2821 C   0  0  1  0  0  0  0  0  0  0  0  0
   15.1677  -11.8542  -14.9796 C   0  0  0  0  0  0  0  0  0  0  0  0
   14.2790  -12.5553  -16.3933 S   0  0  0  0  0  0  0  0  0  0  0  0
   17.3006  -11.0163  -14.2426 C   0  0  0  0  0  0  0  0  0  0  0  0
   17.4718  -11.5670  -13.1059 O   0  0  0  0  0  0  0  0  0  0  0  0
   20.1735   -5.8929  -12.7053 N   0  0  0  0  0  0  0  0  0  0  0  0
   20.0284   -7.2942  -12.7284 C   0  0  0  0  0  0  0  0  0  0  0  0
   20.4522   -7.9708  -11.7657 O   0  0  0  0  0  0  0  0  0  0  0  0
   19.3873   -7.9926  -13.8608 C   0  0  0  0  0  0  0  0  0  0  0  0
   18.3098   -8.9496  -13.3927 C   0  0  2  0  0  0  0  0  0  0  0  0
   17.7092   -9.6741  -14.4664 N   0  0  0  0  0  0  0  0  0  0  0  0
   17.2747   -8.1327  -12.7281 C   0  0  0  0  0  0  0  0  0  0  0  0
   16.4442   -7.4956  -13.3861 O   0  0  0  0  0  0  0  0  0  0  0  0
   17.2414   -8.0864  -11.3181 N   0  0  0  0  0  0  0  0  0  0  0  0
   16.3080   -7.3167  -10.5550 C   0  0  1  0  0  0  0  0  0  0  0  0
   15.9113   -8.1681   -9.3552 C   0  0  0  0  0  0  0  0  0  0  0  0
   14.8358   -7.2708   -8.2318 S   0  0  0  0  0  0  0  0  0  0  0  0
   16.9946   -6.1300  -10.0028 C   0  0  0  0  0  0  0  0  0  0  0  0
   16.3554   -4.9138   -9.7972 O   0  0  0  0  0  0  0  0  0  0  0  0
   18.2094   -6.1974   -9.6975 O   0  0  0  0  0  0  0  0  0  0  0  0
  2  1  1  1
  3  2  1  0
  4  3  1  0
  5 12  1  0
  5  2  1  0
  6  5  2  0
  7  8  1  0
  8  9  2  0
  8 10  1  0
 11 10  1  6
 11 13  1  0
 11 12  1  0
 13 15  1  0
 14 13  2  0
 15 16  1  0
 16 19  1  0
 16 17  1  1
 18 17  1  0
 19 20  1  0
 21 19  2  0
M  END
$$$$
