CNC.pdb
     RDKit          3D

 21 20  0  0  1  0  0  0  0  0999 V2000
   26.2833  -22.0623  -11.2852 N   0  0  0  0  0  0  0  0  0  0  0  0
   25.0614  -21.3282  -11.1805 C   0  0  1  0  0  0  0  0  0  0  0  0
   25.3027  -20.1334  -10.2678 C   0  0  0  0  0  0  0  0  0  0  0  0
   25.2346  -20.6883   -8.5452 S   0  0  0  0  0  0  0  0  0  0  0  0
   24.6206  -20.7729  -12.4859 C   0  0  0  0  0  0  0  0  0  0  0  0
   25.5333  -20.6249  -13.3633 O   0  0  0  0  0  0  0  0  0  0  0  0
   19.8401  -19.1535  -16.1158 N   0  0  0  0  0  0  0  0  0  0  0  0
   21.1078  -19.6302  -15.7275 C   0  0  0  0  0  0  0  0  0  0  0  0
   21.9797  -19.8355  -16.6002 O   0  0  0  0  0  0  0  0  0  0  0  0
   21.4407  -19.8962  -14.3134 C   0  0  0  0  0  0  0  0  0  0  0  0
   22.9356  -20.0273  -14.1037 C   0  0  2  0  0  0  0  0  0  0  0  0
   23.2751  -20.4181  -12.7732 N   0  0  0  0  0  0  0  0  0  0  0  0
   23.5217  -18.7000  -14.3774 C   0  0  0  0  0  0  0  0  0  0  0  0
   23.1422  -17.6957  -13.7641 O   0  0  0  0  0  0  0  0  0  0  0  0
   24.5316  -18.5873  -15.3565 N   0  0  0  0  0  0  0  0  0  0  0  0
   25.1346  -17.3545  -15.7598 C   0  0  1  0  0  0  0  0  0  0  0  0
   26.5724  -17.3816  -15.2561 C   0  0  0  0  0  0  0  0  0  0  0  0
   27.5751  -16.1177  -16.0442 S   0  0  0  0  0  0  0  0  0  0  0  0
   25.2207  -17.3163  -17.2347 C   0  0  0  0  0  0  0  0  0  0  0  0
   25.2363  -16.1321  -17.9610 O   0  0  0  0  0  0  0  0  0  0  0  0
   25.2838  -18.3875  -17.8844 O   0  0  0  0  0  0  0  0  0  0  0  0
  2  1  1  6
  3  2  1  0
  4  3  1  0
  5 12  1  0
  5  2  1  0
  6  5  2  0
  7  8  1  0
  8  9  2  0
  8 10  1  0
 11 10  1  1
 11 13  1  0
 11 12  1  0
 13 15  1  0
 14 13  2  0
 15 16  1  0
 16 19  1  0
 16 17  1  1
 18 17  1  0
 19 20  1  0
 21 19  2  0
M  END
$$$$
