CNC.pdb
     RDKit          3D

 21 20  0  0  1  0  0  0  0  0999 V2000
   18.2648  -24.6987  -16.0889 N   0  0  0  0  0  0  0  0  0  0  0  0
   19.4273  -23.8795  -15.9453 C   0  0  1  0  0  0  0  0  0  0  0  0
   20.0682  -23.7212  -17.3176 C   0  0  0  0  0  0  0  0  0  0  0  0
   21.6073  -22.7832  -17.1411 S   0  0  0  0  0  0  0  0  0  0  0  0
   19.0996  -22.5080  -15.4780 C   0  0  0  0  0  0  0  0  0  0  0  0
   18.4675  -21.7748  -16.3072 O   0  0  0  0  0  0  0  0  0  0  0  0
   17.5269  -22.3055  -11.2308 N   0  0  0  0  0  0  0  0  0  0  0  0
   17.5507  -21.1319  -12.0100 C   0  0  0  0  0  0  0  0  0  0  0  0
   16.4721  -20.6268  -12.3914 O   0  0  0  0  0  0  0  0  0  0  0  0
   18.8176  -20.4759  -12.3922 C   0  0  0  0  0  0  0  0  0  0  0  0
   19.1240  -20.6619  -13.8643 C   0  0  2  0  0  0  0  0  0  0  0  0
   19.4527  -22.0115  -14.1945 N   0  0  0  0  0  0  0  0  0  0  0  0
   20.2821  -19.7984  -14.1703 C   0  0  0  0  0  0  0  0  0  0  0  0
   21.4397  -20.2103  -14.0330 O   0  0  0  0  0  0  0  0  0  0  0  0
   20.0523  -18.4832  -14.6273 N   0  0  0  0  0  0  0  0  0  0  0  0
   21.0784  -17.5849  -15.0588 C   0  0  1  0  0  0  0  0  0  0  0  0
   21.7093  -18.2008  -16.3016 C   0  0  0  0  0  0  0  0  0  0  0  0
   22.8903  -17.0862  -17.0675 S   0  0  0  0  0  0  0  0  0  0  0  0
   20.4594  -16.3181  -15.5018 C   0  0  0  0  0  0  0  0  0  0  0  0
   21.0475  -15.0764  -15.2962 O   0  0  0  0  0  0  0  0  0  0  0  0
   19.3531  -16.3371  -16.0928 O   0  0  0  0  0  0  0  0  0  0  0  0
  2  1  1  6
  3  2  1  0
  4  3  1  0
  5 12  1  0
  5  2  1  0
  6  5  2  0
  7  8  1  0
  8  9  2  0
  8 10  1  0
 11 10  1  1
 11 13  1  0
 11 12  1  0
 13 15  1  0
 14 13  2  0
 15 16  1  0
 16 19  1  0
 16 17  1  6
 18 17  1  0
 19 20  1  0
 21 19  2  0
M  END
$$$$
