CNC.pdb
     RDKit          3D

 21 20  0  0  1  0  0  0  0  0999 V2000
   14.1378  -10.3595  -10.9996 N   0  0  0  0  0  0  0  0  0  0  0  0
   15.2085   -9.9915  -10.1270 C   0  0  1  0  0  0  0  0  0  0  0  0
   16.3761  -10.9343  -10.3853 C   0  0  0  0  0  0  0  0  0  0  0  0
   16.0016  -12.5464   -9.6499 S   0  0  0  0  0  0  0  0  0  0  0  0
   15.7128   -8.6204  -10.3962 C   0  0  0  0  0  0  0  0  0  0  0  0
   15.8352   -8.3048  -11.6251 O   0  0  0  0  0  0  0  0  0  0  0  0
   16.5069   -2.9148   -8.2288 N   0  0  0  0  0  0  0  0  0  0  0  0
   16.2871   -3.9576   -9.1505 C   0  0  0  0  0  0  0  0  0  0  0  0
   16.3540   -3.7174  -10.3760 O   0  0  0  0  0  0  0  0  0  0  0  0
   15.9783   -5.3335   -8.7113 C   0  0  0  0  0  0  0  0  0  0  0  0
   16.4023   -6.3600   -9.7420 C   0  0  2  0  0  0  0  0  0  0  0  0
   16.0474   -7.6929   -9.3732 N   0  0  0  0  0  0  0  0  0  0  0  0
   17.8718   -6.2692   -9.8535 C   0  0  0  0  0  0  0  0  0  0  0  0
   18.5914   -6.2978   -8.8486 O   0  0  0  0  0  0  0  0  0  0  0  0
   18.4541   -6.1489  -11.1333 N   0  0  0  0  0  0  0  0  0  0  0  0
   19.8514   -5.9582  -11.3726 C   0  0  1  0  0  0  0  0  0  0  0  0
   20.3839   -7.2675  -11.9418 C   0  0  0  0  0  0  0  0  0  0  0  0
   22.1094   -7.1302  -12.4186 S   0  0  0  0  0  0  0  0  0  0  0  0
   20.0278   -4.9495  -12.4383 C   0  0  0  0  0  0  0  0  0  0  0  0
   21.1589   -4.1497  -12.5431 O   0  0  0  0  0  0  0  0  0  0  0  0
   19.1306   -4.7883  -13.3001 O   0  0  0  0  0  0  0  0  0  0  0  0
  2  1  1  6
  3  2  1  0
  4  3  1  0
  5 12  1  0
  5  2  1  0
  6  5  2  0
  7  8  1  0
  8  9  2  0
  8 10  1  0
 11 10  1  1
 11 13  1  0
 11 12  1  0
 13 15  1  0
 14 13  2  0
 15 16  1  0
 16 19  1  0
 16 17  1  6
 18 17  1  0
 19 20  1  0
 21 19  2  0
M  END
$$$$
