CNC.pdb
     RDKit          3D

 21 20  0  0  1  0  0  0  0  0999 V2000
   16.6748  -11.4523  -16.7236 N   0  0  0  0  0  0  0  0  0  0  0  0
   17.2015  -11.0387  -15.4609 C   0  0  1  0  0  0  0  0  0  0  0  0
   18.5250  -11.7587  -15.2403 C   0  0  0  0  0  0  0  0  0  0  0  0
   18.1874  -13.4461  -14.6757 S   0  0  0  0  0  0  0  0  0  0  0  0
   17.5066   -9.5853  -15.4230 C   0  0  0  0  0  0  0  0  0  0  0  0
   18.1343   -9.1230  -16.4315 O   0  0  0  0  0  0  0  0  0  0  0  0
   17.0568   -4.7014  -15.2758 N   0  0  0  0  0  0  0  0  0  0  0  0
   16.3902   -5.1132  -14.1048 C   0  0  0  0  0  0  0  0  0  0  0  0
   15.6786   -4.2936  -13.4836 O   0  0  0  0  0  0  0  0  0  0  0  0
   16.5065   -6.4909  -13.5856 C   0  0  0  0  0  0  0  0  0  0  0  0
   17.4230   -7.3387  -14.4441 C   0  0  2  0  0  0  0  0  0  0  0  0
   17.1373   -8.7342  -14.3470 N   0  0  0  0  0  0  0  0  0  0  0  0
   18.7987   -7.0971  -13.9650 C   0  0  0  0  0  0  0  0  0  0  0  0
   19.2156   -7.6254  -12.9279 O   0  0  0  0  0  0  0  0  0  0  0  0
   19.6433   -6.2481  -14.7116 N   0  0  0  0  0  0  0  0  0  0  0  0
   21.0102   -5.9778  -14.3884 C   0  0  1  0  0  0  0  0  0  0  0  0
   21.8372   -6.3712  -15.6061 C   0  0  0  0  0  0  0  0  0  0  0  0
   23.5754   -5.9811  -15.3815 S   0  0  0  0  0  0  0  0  0  0  0  0
   21.1913   -4.5199  -14.2270 C   0  0  0  0  0  0  0  0  0  0  0  0
   22.0838   -3.9645  -13.3186 O   0  0  0  0  0  0  0  0  0  0  0  0
   20.5213   -3.7260  -14.9301 O   0  0  0  0  0  0  0  0  0  0  0  0
  2  1  1  6
  3  2  1  0
  4  3  1  0
  5 12  1  0
  5  2  1  0
  6  5  2  0
  7  8  1  0
  8  9  2  0
  8 10  1  0
 11 10  1  1
 11 13  1  0
 11 12  1  0
 13 15  1  0
 14 13  2  0
 15 16  1  0
 16 19  1  0
 16 17  1  6
 18 17  1  0
 19 20  1  0
 21 19  2  0
M  END
$$$$
