CNC.pdb
     RDKit          3D

 21 20  0  0  1  0  0  0  0  0999 V2000
   14.5482  -10.4642  -11.3672 N   0  0  0  0  0  0  0  0  0  0  0  0
   15.6636  -10.0830  -10.5587 C   0  0  1  0  0  0  0  0  0  0  0  0
   16.8781  -10.8763  -11.0219 C   0  0  0  0  0  0  0  0  0  0  0  0
   16.7463  -12.5699  -10.3940 S   0  0  0  0  0  0  0  0  0  0  0  0
   16.0164   -8.6490  -10.7203 C   0  0  0  0  0  0  0  0  0  0  0  0
   15.8889   -8.1747  -11.8965 O   0  0  0  0  0  0  0  0  0  0  0  0
   14.0257   -5.8499   -7.4911 N   0  0  0  0  0  0  0  0  0  0  0  0
   14.6998   -5.5802   -8.6986 C   0  0  0  0  0  0  0  0  0  0  0  0
   14.0363   -5.3533   -9.7341 O   0  0  0  0  0  0  0  0  0  0  0  0
   16.1743   -5.5569   -8.7794 C   0  0  0  0  0  0  0  0  0  0  0  0
   16.6890   -6.4387   -9.8989 C   0  0  2  0  0  0  0  0  0  0  0  0
   16.4706   -7.8281   -9.6533 N   0  0  0  0  0  0  0  0  0  0  0  0
   18.1415   -6.1929  -10.0006 C   0  0  0  0  0  0  0  0  0  0  0  0
   18.8267   -5.9892   -8.9919 O   0  0  0  0  0  0  0  0  0  0  0  0
   18.7474   -6.1938  -11.2751 N   0  0  0  0  0  0  0  0  0  0  0  0
   20.1504   -6.0365  -11.5049 C   0  0  1  0  0  0  0  0  0  0  0  0
   20.6056   -7.2528  -12.3017 C   0  0  0  0  0  0  0  0  0  0  0  0
   20.3884   -8.7737  -11.3725 S   0  0  0  0  0  0  0  0  0  0  0  0
   20.3701   -4.8686  -12.3836 C   0  0  0  0  0  0  0  0  0  0  0  0
   21.6322   -4.3605  -12.6649 O   0  0  0  0  0  0  0  0  0  0  0  0
   19.3896   -4.2919  -12.9122 O   0  0  0  0  0  0  0  0  0  0  0  0
  2  1  1  6
  3  2  1  0
  4  3  1  0
  5 12  1  0
  5  2  1  0
  6  5  2  0
  7  8  1  0
  8  9  2  0
  8 10  1  0
 11 10  1  1
 11 13  1  0
 11 12  1  0
 13 15  1  0
 14 13  2  0
 15 16  1  0
 16 19  1  0
 16 17  1  6
 18 17  1  0
 19 20  1  0
 21 19  2  0
M  END
$$$$
