CNC.pdb
     RDKit          3D

 21 20  0  0  1  0  0  0  0  0999 V2000
   16.5311  -11.5485  -16.0149 N   0  0  0  0  0  0  0  0  0  0  0  0
   17.5817  -11.2626  -16.9410 C   0  0  1  0  0  0  0  0  0  0  0  0
   17.0220  -10.3534  -18.0269 C   0  0  0  0  0  0  0  0  0  0  0  0
   15.6992  -11.2292  -18.9004 S   0  0  0  0  0  0  0  0  0  0  0  0
   18.7038  -10.5191  -16.3128 C   0  0  0  0  0  0  0  0  0  0  0  0
   18.3776   -9.6764  -15.4138 O   0  0  0  0  0  0  0  0  0  0  0  0
   23.1522   -8.6730  -14.6261 N   0  0  0  0  0  0  0  0  0  0  0  0
   23.4135   -9.9519  -15.1567 C   0  0  0  0  0  0  0  0  0  0  0  0
   24.5178  -10.4947  -14.9336 O   0  0  0  0  0  0  0  0  0  0  0  0
   22.4175  -10.6751  -15.9729 C   0  0  0  0  0  0  0  0  0  0  0  0
   21.0700   -9.9825  -15.9579 C   0  0  2  0  0  0  0  0  0  0  0  0
   20.0665  -10.7097  -16.6669 N   0  0  0  0  0  0  0  0  0  0  0  0
   21.2590   -8.6699  -16.6074 C   0  0  0  0  0  0  0  0  0  0  0  0
   21.5682   -8.5871  -17.8016 O   0  0  0  0  0  0  0  0  0  0  0  0
   21.0804   -7.4970  -15.8434 N   0  0  0  0  0  0  0  0  0  0  0  0
   21.2610   -6.1693  -16.3437 C   0  0  1  0  0  0  0  0  0  0  0  0
   19.8701   -5.5982  -16.5906 C   0  0  0  0  0  0  0  0  0  0  0  0
   19.9453   -3.9242  -17.2353 S   0  0  0  0  0  0  0  0  0  0  0  0
   21.8637   -5.3303  -15.2867 C   0  0  0  0  0  0  0  0  0  0  0  0
   22.6258   -4.2013  -15.5597 O   0  0  0  0  0  0  0  0  0  0  0  0
   21.6944   -5.6291  -14.0802 O   0  0  0  0  0  0  0  0  0  0  0  0
  2  1  1  1
  3  2  1  0
  4  3  1  0
  5 12  1  0
  5  2  1  0
  6  5  2  0
  7  8  1  0
  8  9  2  0
  8 10  1  0
 11 10  1  6
 11 13  1  0
 11 12  1  0
 13 15  1  0
 14 13  2  0
 15 16  1  0
 16 19  1  0
 16 17  1  1
 18 17  1  0
 19 20  1  0
 21 19  2  0
M  END
$$$$
