CNC.pdb
     RDKit          3D

 21 20  0  0  1  0  0  0  0  0999 V2000
   25.5726  -11.5605  -18.2685 N   0  0  0  0  0  0  0  0  0  0  0  0
   25.0688  -11.1204  -17.0054 C   0  0  1  0  0  0  0  0  0  0  0  0
   26.2429  -10.6183  -16.1756 C   0  0  0  0  0  0  0  0  0  0  0  0
   27.2598  -12.0333  -15.6824 S   0  0  0  0  0  0  0  0  0  0  0  0
   24.1319   -9.9751  -17.1371 C   0  0  0  0  0  0  0  0  0  0  0  0
   24.4230   -9.1198  -18.0362 O   0  0  0  0  0  0  0  0  0  0  0  0
   20.5119   -9.7390  -19.0595 N   0  0  0  0  0  0  0  0  0  0  0  0
   20.3262  -10.0954  -17.7090 C   0  0  0  0  0  0  0  0  0  0  0  0
   19.8939  -11.2351  -17.4293 O   0  0  0  0  0  0  0  0  0  0  0  0
   20.6281   -9.1591  -16.6075 C   0  0  0  0  0  0  0  0  0  0  0  0
   22.0825   -8.7342  -16.6148 C   0  0  2  0  0  0  0  0  0  0  0  0
   22.9747   -9.8116  -16.3290 N   0  0  0  0  0  0  0  0  0  0  0  0
   22.2292   -7.7011  -15.5701 C   0  0  0  0  0  0  0  0  0  0  0  0
   21.9989   -7.9566  -14.3825 O   0  0  0  0  0  0  0  0  0  0  0  0
   22.6407   -6.4041  -15.9443 N   0  0  0  0  0  0  0  0  0  0  0  0
   22.7768   -5.3050  -15.0390 C   0  0  1  0  0  0  0  0  0  0  0  0
   23.7370   -4.3158  -15.6879 C   0  0  0  0  0  0  0  0  0  0  0  0
   25.3821   -5.0115  -15.8714 S   0  0  0  0  0  0  0  0  0  0  0  0
   21.4809   -4.6027  -14.9303 C   0  0  0  0  0  0  0  0  0  0  0  0
   20.3780   -4.9252  -15.7111 O   0  0  0  0  0  0  0  0  0  0  0  0
   21.3440   -3.6696  -14.1033 O   0  0  0  0  0  0  0  0  0  0  0  0
  2  1  1  6
  3  2  1  0
  4  3  1  0
  5 12  1  0
  5  2  1  0
  6  5  2  0
  7  8  1  0
  8  9  2  0
  8 10  1  0
 11 10  1  1
 11 13  1  0
 11 12  1  0
 13 15  1  0
 14 13  2  0
 15 16  1  0
 16 19  1  0
 16 17  1  6
 18 17  1  0
 19 20  1  0
 21 19  2  0
M  END
$$$$
