CNC.pdb
     RDKit          3D

 21 20  0  0  1  0  0  0  0  0999 V2000
   27.9287  -19.2224  -14.9774 N   0  0  0  0  0  0  0  0  0  0  0  0
   27.0045  -19.8951  -15.8355 C   0  0  1  0  0  0  0  0  0  0  0  0
   27.0958  -21.3886  -15.5530 C   0  0  0  0  0  0  0  0  0  0  0  0
   28.7544  -21.9681  -15.9923 S   0  0  0  0  0  0  0  0  0  0  0  0
   25.5962  -19.5057  -15.5674 C   0  0  0  0  0  0  0  0  0  0  0  0
   25.2859  -19.3534  -14.3405 O   0  0  0  0  0  0  0  0  0  0  0  0
   24.2111  -16.2581  -16.9562 N   0  0  0  0  0  0  0  0  0  0  0  0
   23.1779  -16.8363  -17.7201 C   0  0  0  0  0  0  0  0  0  0  0  0
   22.7200  -16.2138  -18.7033 O   0  0  0  0  0  0  0  0  0  0  0  0
   22.6161  -18.1626  -17.3935 C   0  0  0  0  0  0  0  0  0  0  0  0
   23.3408  -18.8080  -16.2299 C   0  0  2  0  0  0  0  0  0  0  0  0
   24.6293  -19.3071  -16.5893 N   0  0  0  0  0  0  0  0  0  0  0  0
   22.5002  -19.9344  -15.7771 C   0  0  0  0  0  0  0  0  0  0  0  0
   22.4340  -20.9836  -16.4278 O   0  0  0  0  0  0  0  0  0  0  0  0
   21.7652  -19.8007  -14.5800 N   0  0  0  0  0  0  0  0  0  0  0  0
   20.9883  -20.8444  -13.9858 C   0  0  1  0  0  0  0  0  0  0  0  0
   21.1130  -20.6819  -12.4760 C   0  0  0  0  0  0  0  0  0  0  0  0
   20.5337  -19.0718  -11.9322 S   0  0  0  0  0  0  0  0  0  0  0  0
   19.5610  -20.6270  -14.3022 C   0  0  0  0  0  0  0  0  0  0  0  0
   18.5675  -21.5446  -13.9844 O   0  0  0  0  0  0  0  0  0  0  0  0
   19.2038  -19.5743  -14.8833 O   0  0  0  0  0  0  0  0  0  0  0  0
  2  1  1  1
  3  2  1  0
  4  3  1  0
  5 12  1  0
  5  2  1  0
  6  5  2  0
  7  8  1  0
  8  9  2  0
  8 10  1  0
 11 10  1  6
 11 13  1  0
 11 12  1  0
 13 15  1  0
 14 13  2  0
 15 16  1  0
 16 19  1  0
 16 17  1  1
 18 17  1  0
 19 20  1  0
 21 19  2  0
M  END
$$$$
