CNC.pdb
     RDKit          3D

 21 20  0  0  1  0  0  0  0  0999 V2000
   19.4054  -14.3862  -17.6309 N   0  0  0  0  0  0  0  0  0  0  0  0
   18.4656  -13.5295  -16.9782 C   0  0  1  0  0  0  0  0  0  0  0  0
   17.6582  -14.3705  -15.9985 C   0  0  0  0  0  0  0  0  0  0  0  0
   17.0712  -15.8582  -16.8482 S   0  0  0  0  0  0  0  0  0  0  0  0
   19.1279  -12.4721  -16.1720 C   0  0  0  0  0  0  0  0  0  0  0  0
   18.6480  -12.2793  -15.0070 O   0  0  0  0  0  0  0  0  0  0  0  0
   21.9230   -9.0161  -13.8788 N   0  0  0  0  0  0  0  0  0  0  0  0
   22.7861   -9.7775  -14.6914 C   0  0  0  0  0  0  0  0  0  0  0  0
   24.0231   -9.6360  -14.5738 O   0  0  0  0  0  0  0  0  0  0  0  0
   22.2720  -10.7433  -15.6835 C   0  0  0  0  0  0  0  0  0  0  0  0
   20.7621  -10.6833  -15.7949 C   0  0  2  0  0  0  0  0  0  0  0  0
   20.2289  -11.7045  -16.6383 N   0  0  0  0  0  0  0  0  0  0  0  0
   20.4300   -9.3648  -16.3707 C   0  0  0  0  0  0  0  0  0  0  0  0
   20.6027   -9.1311  -17.5725 O   0  0  0  0  0  0  0  0  0  0  0  0
   19.9064   -8.3625  -15.5266 N   0  0  0  0  0  0  0  0  0  0  0  0
   19.4982   -7.0644  -15.9674 C   0  0  1  0  0  0  0  0  0  0  0  0
   17.9899   -6.9847  -15.7666 C   0  0  0  0  0  0  0  0  0  0  0  0
   17.1169   -8.1332  -16.8355 S   0  0  0  0  0  0  0  0  0  0  0  0
   20.0824   -6.0426  -15.0735 C   0  0  0  0  0  0  0  0  0  0  0  0
   19.8576   -4.6809  -15.2326 O   0  0  0  0  0  0  0  0  0  0  0  0
   20.8180   -6.3942  -14.1202 O   0  0  0  0  0  0  0  0  0  0  0  0
  2  1  1  1
  3  2  1  0
  4  3  1  0
  5 12  1  0
  5  2  1  0
  6  5  2  0
  7  8  1  0
  8  9  2  0
  8 10  1  0
 11 10  1  6
 11 13  1  0
 11 12  1  0
 13 15  1  0
 14 13  2  0
 15 16  1  0
 16 19  1  0
 16 17  1  1
 18 17  1  0
 19 20  1  0
 21 19  2  0
M  END
$$$$
