CNC.pdb
     RDKit          3D

 21 20  0  0  1  0  0  0  0  0999 V2000
   17.3736  -11.5451  -14.6202 N   0  0  0  0  0  0  0  0  0  0  0  0
   17.4877  -10.4107  -15.4822 C   0  0  1  0  0  0  0  0  0  0  0  0
   16.3439   -9.4569  -15.1646 C   0  0  0  0  0  0  0  0  0  0  0  0
   14.7868  -10.2089  -15.7028 S   0  0  0  0  0  0  0  0  0  0  0  0
   18.7418   -9.6484  -15.2522 C   0  0  0  0  0  0  0  0  0  0  0  0
   18.9976   -9.3527  -14.0390 O   0  0  0  0  0  0  0  0  0  0  0  0
   23.9159  -10.2525  -16.3180 N   0  0  0  0  0  0  0  0  0  0  0  0
   22.5818  -10.1320  -16.7551 C   0  0  0  0  0  0  0  0  0  0  0  0
   21.9149  -11.1653  -16.9818 O   0  0  0  0  0  0  0  0  0  0  0  0
   21.9433   -8.8153  -16.9549 C   0  0  0  0  0  0  0  0  0  0  0  0
   20.8307   -8.5737  -15.9550 C   0  0  2  0  0  0  0  0  0  0  0  0
   19.6239   -9.2568  -16.2949 N   0  0  0  0  0  0  0  0  0  0  0  0
   20.5726   -7.1199  -15.9488 C   0  0  0  0  0  0  0  0  0  0  0  0
   19.7640   -6.6116  -16.7338 O   0  0  0  0  0  0  0  0  0  0  0  0
   21.2651   -6.3066  -15.0266 N   0  0  0  0  0  0  0  0  0  0  0  0
   21.0998   -4.8904  -14.9122 C   0  0  1  0  0  0  0  0  0  0  0  0
   20.8092   -4.5977  -13.4454 C   0  0  0  0  0  0  0  0  0  0  0  0
   20.6458   -2.8358  -13.1404 S   0  0  0  0  0  0  0  0  0  0  0  0
   22.3853   -4.2261  -15.2129 C   0  0  0  0  0  0  0  0  0  0  0  0
   22.4687   -2.9835  -15.8285 O   0  0  0  0  0  0  0  0  0  0  0  0
   23.4647   -4.7881  -14.9085 O   0  0  0  0  0  0  0  0  0  0  0  0
  2  1  1  1
  3  2  1  0
  4  3  1  0
  5 12  1  0
  5  2  1  0
  6  5  2  0
  7  8  1  0
  8  9  2  0
  8 10  1  0
 11 10  1  6
 11 13  1  0
 11 12  1  0
 13 15  1  0
 14 13  2  0
 15 16  1  0
 16 19  1  0
 16 17  1  1
 18 17  1  0
 19 20  1  0
 21 19  2  0
M  END
$$$$
