CNC.pdb
     RDKit          3D

 21 20  0  0  1  0  0  0  0  0999 V2000
   23.1030  -12.1692  -17.7657 N   0  0  0  0  0  0  0  0  0  0  0  0
   22.6465  -11.9142  -16.4354 C   0  0  1  0  0  0  0  0  0  0  0  0
   23.8500  -11.5242  -15.5878 C   0  0  0  0  0  0  0  0  0  0  0  0
   24.8773  -12.9911  -15.3181 S   0  0  0  0  0  0  0  0  0  0  0  0
   21.7024  -10.7691  -16.3702 C   0  0  0  0  0  0  0  0  0  0  0  0
   21.9335   -9.8119  -17.1796 O   0  0  0  0  0  0  0  0  0  0  0  0
   16.6146  -10.3143  -17.1751 N   0  0  0  0  0  0  0  0  0  0  0  0
   17.6499  -10.8299  -16.3704 C   0  0  0  0  0  0  0  0  0  0  0  0
   18.0761  -11.9858  -16.5854 O   0  0  0  0  0  0  0  0  0  0  0  0
   18.2507  -10.0428  -15.2746 C   0  0  0  0  0  0  0  0  0  0  0  0
   19.6737   -9.6317  -15.5937 C   0  0  2  0  0  0  0  0  0  0  0  0
   20.6008  -10.7110  -15.4748 N   0  0  0  0  0  0  0  0  0  0  0  0
   20.0392   -8.5777  -14.6263 C   0  0  0  0  0  0  0  0  0  0  0  0
   20.0960   -8.8152  -13.4143 O   0  0  0  0  0  0  0  0  0  0  0  0
   20.3273   -7.2815  -15.1041 N   0  0  0  0  0  0  0  0  0  0  0  0
   20.7407   -6.1880  -14.2799 C   0  0  1  0  0  0  0  0  0  0  0  0
   22.1728   -5.8528  -14.6778 C   0  0  0  0  0  0  0  0  0  0  0  0
   22.7836   -4.4087  -13.8031 S   0  0  0  0  0  0  0  0  0  0  0  0
   19.9351   -4.9954  -14.6161 C   0  0  0  0  0  0  0  0  0  0  0  0
   19.6055   -4.0182  -13.6852 O   0  0  0  0  0  0  0  0  0  0  0  0
   19.5178   -4.8341  -15.7880 O   0  0  0  0  0  0  0  0  0  0  0  0
  2  1  1  6
  3  2  1  0
  4  3  1  0
  5 12  1  0
  5  2  1  0
  6  5  2  0
  7  8  1  0
  8  9  2  0
  8 10  1  0
 11 10  1  1
 11 13  1  0
 11 12  1  0
 13 15  1  0
 14 13  2  0
 15 16  1  0
 16 19  1  0
 16 17  1  6
 18 17  1  0
 19 20  1  0
 21 19  2  0
M  END
$$$$
