ILV.pdb
     RDKit          3D

 24 23  0  0  1  0  0  0  0  0999 V2000
   26.9088  -16.2185  -19.5322 C   0  0  0  0  0  0  0  0  0  0  0  0
   26.7148  -16.0311  -18.0581 C   0  0  0  0  0  0  0  0  0  0  0  0
   26.8231  -17.3377  -17.3006 C   0  0  2  0  0  0  0  0  0  0  0  0
   25.7787  -18.2589  -17.9009 C   0  0  0  0  0  0  0  0  0  0  0  0
   26.5275  -17.1022  -15.8418 C   0  0  2  0  0  0  0  0  0  0  0  0
   27.3729  -16.1600  -15.2151 N   0  0  0  0  0  0  0  0  0  0  0  0
   26.5054  -18.3466  -15.0567 C   0  0  0  0  0  0  0  0  0  0  0  0
   25.7463  -19.2717  -15.3787 O   0  0  0  0  0  0  0  0  0  0  0  0
   29.5382  -21.6306  -13.5579 C   0  0  0  0  0  0  0  0  0  0  0  0
   29.8412  -20.2261  -13.0257 C   0  0  2  0  0  0  0  0  0  0  0  0
   31.0761  -20.2667  -12.1654 C   0  0  0  0  0  0  0  0  0  0  0  0
   28.6320  -19.7932  -12.2485 C   0  0  0  0  0  0  0  0  0  0  0  0
   27.3974  -19.5957  -13.0371 C   0  0  2  0  0  0  0  0  0  0  0  0
   27.3536  -18.4867  -13.9314 N   0  0  0  0  0  0  0  0  0  0  0  0
   26.1864  -19.5707  -12.1190 C   0  0  0  0  0  0  0  0  0  0  0  0
   25.9235  -18.5988  -11.3920 O   0  0  0  0  0  0  0  0  0  0  0  0
   22.6671  -20.3365  -13.0524 C   0  0  0  0  0  0  0  0  0  0  0  0
   22.9379  -21.1903  -11.8156 C   0  0  2  0  0  0  0  0  0  0  0  0
   21.7938  -21.0592  -10.8348 C   0  0  0  0  0  0  0  0  0  0  0  0
   24.1807  -20.6663  -11.1600 C   0  0  2  0  0  0  0  0  0  0  0  0
   25.3144  -20.6920  -12.0805 N   0  0  0  0  0  0  0  0  0  0  0  0
   24.4684  -21.5181   -9.9651 C   0  0  0  0  0  0  0  0  0  0  0  0
   23.9841  -21.1500   -8.7336 O   0  0  0  0  0  0  0  0  0  0  0  0
   25.1422  -22.5656  -10.0473 O   0  0  0  0  0  0  0  0  0  0  0  0
  1  2  1  0
  3  5  1  0
  3  2  1  0
  3  4  1  6
  5  6  1  1
  7  5  1  0
  7  8  2  0
 10  9  1  1
 11 10  1  0
 13 12  1  1
 12 10  1  0
 13 14  1  0
 14  7  1  0
 15 13  1  0
 16 15  2  0
 18 17  1  6
 18 20  1  0
 19 18  1  0
 20 22  1  0
 20 21  1  6
 21 15  1  0
 22 23  1  0
 24 22  2  0
M  END
$$$$
