ILV.pdb
     RDKit          3D

 24 23  0  0  1  0  0  0  0  0999 V2000
   25.3225  -18.1289  -14.1453 C   0  0  0  0  0  0  0  0  0  0  0  0
   25.4857  -19.5536  -13.7100 C   0  0  0  0  0  0  0  0  0  0  0  0
   26.1831  -19.6615  -12.3704 C   0  0  2  0  0  0  0  0  0  0  0  0
   27.5578  -19.0504  -12.5623 C   0  0  0  0  0  0  0  0  0  0  0  0
   26.3119  -21.1122  -11.9830 C   0  0  2  0  0  0  0  0  0  0  0  0
   25.0903  -21.8201  -11.9409 N   0  0  0  0  0  0  0  0  0  0  0  0
   27.0378  -21.3017  -10.7171 C   0  0  0  0  0  0  0  0  0  0  0  0
   26.4145  -21.3843   -9.6491 O   0  0  0  0  0  0  0  0  0  0  0  0
   33.0027  -22.3000   -9.1099 C   0  0  0  0  0  0  0  0  0  0  0  0
   31.5448  -22.2483   -8.6410 C   0  0  2  0  0  0  0  0  0  0  0  0
   31.1543  -23.5793   -8.0555 C   0  0  0  0  0  0  0  0  0  0  0  0
   30.7198  -21.9039   -9.8470 C   0  0  0  0  0  0  0  0  0  0  0  0
   29.2853  -21.6518   -9.5944 C   0  0  2  0  0  0  0  0  0  0  0  0
   28.4512  -21.3897  -10.7200 N   0  0  0  0  0  0  0  0  0  0  0  0
   29.1200  -20.5524   -8.5581 C   0  0  0  0  0  0  0  0  0  0  0  0
   29.1555  -19.3473   -8.8561 O   0  0  0  0  0  0  0  0  0  0  0  0
   27.2135  -18.7362   -4.6328 C   0  0  0  0  0  0  0  0  0  0  0  0
   27.3505  -19.9034   -5.6079 C   0  0  2  0  0  0  0  0  0  0  0  0
   27.2350  -21.2158   -4.8646 C   0  0  0  0  0  0  0  0  0  0  0  0
   28.7168  -19.8301   -6.2217 C   0  0  2  0  0  0  0  0  0  0  0  0
   28.9164  -20.9003   -7.1955 N   0  0  0  0  0  0  0  0  0  0  0  0
   29.7247  -19.9395   -5.1226 C   0  0  0  0  0  0  0  0  0  0  0  0
   30.0780  -18.8207   -4.4085 O   0  0  0  0  0  0  0  0  0  0  0  0
   30.2644  -21.0255   -4.8268 O   0  0  0  0  0  0  0  0  0  0  0  0
  1  2  1  0
  3  5  1  0
  3  2  1  0
  3  4  1  6
  5  6  1  1
  7  5  1  0
  7  8  2  0
 10  9  1  6
 11 10  1  0
 13 12  1  6
 12 10  1  0
 13 14  1  0
 14  7  1  0
 15 13  1  0
 16 15  2  0
 18 17  1  1
 18 20  1  0
 19 18  1  0
 20 22  1  0
 20 21  1  6
 21 15  1  0
 22 23  1  0
 24 22  2  0
M  END
$$$$
