ILV.pdb
     RDKit          3D

 24 23  0  0  1  0  0  0  0  0999 V2000
   16.4641  -15.5899  -18.1722 C   0  0  0  0  0  0  0  0  0  0  0  0
   17.6064  -14.7281  -18.6175 C   0  0  0  0  0  0  0  0  0  0  0  0
   17.8983  -13.6179  -17.6302 C   0  0  2  0  0  0  0  0  0  0  0  0
   16.6955  -12.6951  -17.6682 C   0  0  0  0  0  0  0  0  0  0  0  0
   19.1357  -12.8723  -18.0593 C   0  0  2  0  0  0  0  0  0  0  0  0
   20.2457  -13.6950  -18.3530 N   0  0  0  0  0  0  0  0  0  0  0  0
   19.5329  -11.8283  -17.1014 C   0  0  0  0  0  0  0  0  0  0  0  0
   18.7022  -11.3640  -16.3075 O   0  0  0  0  0  0  0  0  0  0  0  0
   22.8192  -11.6832  -13.9157 C   0  0  0  0  0  0  0  0  0  0  0  0
   23.3872  -11.6298  -15.3378 C   0  0  2  0  0  0  0  0  0  0  0  0
   24.8918  -11.6348  -15.2820 C   0  0  0  0  0  0  0  0  0  0  0  0
   22.8548  -10.3736  -15.9639 C   0  0  0  0  0  0  0  0  0  0  0  0
   21.4000  -10.3516  -16.2250 C   0  0  2  0  0  0  0  0  0  0  0  0
   20.8671  -11.3539  -17.0871 N   0  0  0  0  0  0  0  0  0  0  0  0
   20.9733   -8.9738  -16.7043 C   0  0  0  0  0  0  0  0  0  0  0  0
   21.1752   -8.5820  -17.8653 O   0  0  0  0  0  0  0  0  0  0  0  0
   17.6839   -7.5106  -16.8594 C   0  0  0  0  0  0  0  0  0  0  0  0
   18.4811   -6.4995  -16.0384 C   0  0  2  0  0  0  0  0  0  0  0  0
   18.1717   -5.0942  -16.5049 C   0  0  0  0  0  0  0  0  0  0  0  0
   19.9381   -6.7629  -16.2761 C   0  0  2  0  0  0  0  0  0  0  0  0
   20.3187   -8.0914  -15.8032 N   0  0  0  0  0  0  0  0  0  0  0  0
   20.7223   -5.7149  -15.5531 C   0  0  0  0  0  0  0  0  0  0  0  0
   20.9264   -4.4903  -16.1407 O   0  0  0  0  0  0  0  0  0  0  0  0
   21.2050   -5.9155  -14.4196 O   0  0  0  0  0  0  0  0  0  0  0  0
  1  2  1  0
  3  5  1  0
  3  2  1  0
  3  4  1  6
  5  6  1  1
  7  5  1  0
  7  8  2  0
 10  9  1  1
 11 10  1  0
 13 12  1  6
 12 10  1  0
 13 14  1  0
 14  7  1  0
 15 13  1  0
 16 15  2  0
 18 17  1  6
 18 20  1  0
 19 18  1  0
 20 22  1  0
 20 21  1  1
 21 15  1  0
 22 23  1  0
 24 22  2  0
M  END
$$$$
