ILV.pdb
     RDKit          3D

 24 23  0  0  1  0  0  0  0  0999 V2000
   26.3392  -21.2588   -8.3975 C   0  0  0  0  0  0  0  0  0  0  0  0
   26.0763  -21.6280   -9.8259 C   0  0  0  0  0  0  0  0  0  0  0  0
   25.4857  -20.4755  -10.6106 C   0  0  2  0  0  0  0  0  0  0  0  0
   24.1531  -20.1624   -9.9580 C   0  0  0  0  0  0  0  0  0  0  0  0
   25.2742  -20.8949  -12.0426 C   0  0  2  0  0  0  0  0  0  0  0  0
   26.2825  -21.7353  -12.5642 N   0  0  0  0  0  0  0  0  0  0  0  0
   25.0657  -19.7523  -12.9461 C   0  0  0  0  0  0  0  0  0  0  0  0
   24.0341  -19.0711  -12.8595 O   0  0  0  0  0  0  0  0  0  0  0  0
   28.3874  -16.8588  -17.3759 C   0  0  0  0  0  0  0  0  0  0  0  0
   27.0518  -16.9269  -16.6277 C   0  0  2  0  0  0  0  0  0  0  0  0
   26.7465  -15.5862  -16.0147 C   0  0  0  0  0  0  0  0  0  0  0  0
   27.1994  -17.9979  -15.5862 C   0  0  0  0  0  0  0  0  0  0  0  0
   25.9526  -18.4135  -14.9096 C   0  0  2  0  0  0  0  0  0  0  0  0
   26.0462  -19.4310  -13.9160 N   0  0  0  0  0  0  0  0  0  0  0  0
   24.8969  -18.7867  -15.9374 C   0  0  0  0  0  0  0  0  0  0  0  0
   24.9186  -19.8664  -16.5505 O   0  0  0  0  0  0  0  0  0  0  0  0
   21.1456  -18.7190  -15.5485 C   0  0  0  0  0  0  0  0  0  0  0  0
   21.4662  -17.8876  -16.7886 C   0  0  2  0  0  0  0  0  0  0  0  0
   20.5092  -18.2356  -17.9073 C   0  0  0  0  0  0  0  0  0  0  0  0
   22.8546  -18.2413  -17.2314 C   0  0  2  0  0  0  0  0  0  0  0  0
   23.8410  -17.8779  -16.2173 N   0  0  0  0  0  0  0  0  0  0  0  0
   23.1342  -17.5115  -18.5062 C   0  0  0  0  0  0  0  0  0  0  0  0
   23.1103  -18.1913  -19.6995 O   0  0  0  0  0  0  0  0  0  0  0  0
   23.3924  -16.2905  -18.5256 O   0  0  0  0  0  0  0  0  0  0  0  0
  1  2  1  0
  3  5  1  0
  3  2  1  0
  3  4  1  1
  5  6  1  6
  7  5  1  0
  7  8  2  0
 10  9  1  1
 11 10  1  0
 13 12  1  6
 12 10  1  0
 13 14  1  0
 14  7  1  0
 15 13  1  0
 16 15  2  0
 18 17  1  1
 18 20  1  0
 19 18  1  0
 20 22  1  0
 20 21  1  1
 21 15  1  0
 22 23  1  0
 24 22  2  0
M  END
$$$$
