ILV.pdb
     RDKit          3D

 24 23  0  0  1  0  0  0  0  0999 V2000
   22.9820  -20.6421   -7.2763 C   0  0  0  0  0  0  0  0  0  0  0  0
   24.2170  -20.9984   -8.0467 C   0  0  0  0  0  0  0  0  0  0  0  0
   24.1899  -20.4384   -9.4533 C   0  0  2  0  0  0  0  0  0  0  0  0
   22.9623  -21.0312  -10.1177 C   0  0  0  0  0  0  0  0  0  0  0  0
   25.4333  -20.8641  -10.1908 C   0  0  2  0  0  0  0  0  0  0  0  0
   26.6439  -20.5268   -9.5460 N   0  0  0  0  0  0  0  0  0  0  0  0
   25.4630  -20.3847  -11.5817 C   0  0  0  0  0  0  0  0  0  0  0  0
   25.6577  -19.1847  -11.8220 O   0  0  0  0  0  0  0  0  0  0  0  0
   28.3323  -22.1045  -16.0391 C   0  0  0  0  0  0  0  0  0  0  0  0
   27.4377  -21.0528  -15.3747 C   0  0  2  0  0  0  0  0  0  0  0  0
   28.1822  -20.3984  -14.2414 C   0  0  0  0  0  0  0  0  0  0  0  0
   26.2120  -21.7752  -14.8956 C   0  0  0  0  0  0  0  0  0  0  0  0
   25.2970  -20.9915  -14.0392 C   0  0  2  0  0  0  0  0  0  0  0  0
   25.2688  -21.2971  -12.6473 N   0  0  0  0  0  0  0  0  0  0  0  0
   23.8876  -21.0260  -14.6072 C   0  0  0  0  0  0  0  0  0  0  0  0
   23.0465  -21.8658  -14.2474 O   0  0  0  0  0  0  0  0  0  0  0  0
   22.4339  -17.7467  -16.7554 C   0  0  0  0  0  0  0  0  0  0  0  0
   21.5213  -18.7011  -15.9884 C   0  0  2  0  0  0  0  0  0  0  0  0
   21.4518  -18.2942  -14.5331 C   0  0  0  0  0  0  0  0  0  0  0  0
   22.1242  -20.0721  -16.0643 C   0  0  2  0  0  0  0  0  0  0  0  0
   23.5041  -20.0695  -15.5855 N   0  0  0  0  0  0  0  0  0  0  0  0
   22.0747  -20.5215  -17.4897 C   0  0  0  0  0  0  0  0  0  0  0  0
   20.8713  -20.8698  -18.0527 O   0  0  0  0  0  0  0  0  0  0  0  0
   23.1015  -20.5931  -18.1958 O   0  0  0  0  0  0  0  0  0  0  0  0
  1  2  1  0
  3  5  1  0
  3  2  1  0
  3  4  1  6
  5  6  1  1
  7  5  1  0
  7  8  2  0
 10  9  1  1
 11 10  1  0
 13 12  1  6
 12 10  1  0
 13 14  1  0
 14  7  1  0
 15 13  1  0
 16 15  2  0
 18 17  1  6
 18 20  1  0
 19 18  1  0
 20 22  1  0
 20 21  1  6
 21 15  1  0
 22 23  1  0
 24 22  2  0
M  END
$$$$
