ILV.pdb
     RDKit          3D

 24 23  0  0  1  0  0  0  0  0999 V2000
   27.6883  -17.2032  -20.6446 C   0  0  0  0  0  0  0  0  0  0  0  0
   27.0645  -16.9431  -19.3070 C   0  0  0  0  0  0  0  0  0  0  0  0
   27.3174  -18.0745  -18.3331 C   0  0  2  0  0  0  0  0  0  0  0  0
   26.7753  -19.3270  -18.9945 C   0  0  0  0  0  0  0  0  0  0  0  0
   26.5791  -17.8085  -17.0465 C   0  0  2  0  0  0  0  0  0  0  0  0
   26.8743  -16.5647  -16.4456 N   0  0  0  0  0  0  0  0  0  0  0  0
   26.7467  -18.8872  -16.0598 C   0  0  0  0  0  0  0  0  0  0  0  0
   26.3320  -20.0281  -16.3091 O   0  0  0  0  0  0  0  0  0  0  0  0
   30.1672  -20.0029  -11.0459 C   0  0  0  0  0  0  0  0  0  0  0  0
   28.9573  -20.4649  -11.8648 C   0  0  2  0  0  0  0  0  0  0  0  0
   29.1612  -21.8889  -12.3091 C   0  0  0  0  0  0  0  0  0  0  0  0
   28.8461  -19.5256  -13.0306 C   0  0  0  0  0  0  0  0  0  0  0  0
   27.5508  -19.5346  -13.7427 C   0  0  2  0  0  0  0  0  0  0  0  0
   27.3832  -18.6203  -14.8232 N   0  0  0  0  0  0  0  0  0  0  0  0
   26.4067  -19.3849  -12.7534 C   0  0  0  0  0  0  0  0  0  0  0  0
   26.1510  -18.3075  -12.1911 O   0  0  0  0  0  0  0  0  0  0  0  0
   23.2463  -22.1409  -12.6041 C   0  0  0  0  0  0  0  0  0  0  0  0
   23.1747  -20.6860  -12.1458 C   0  0  2  0  0  0  0  0  0  0  0  0
   22.9724  -19.7767  -13.3377 C   0  0  0  0  0  0  0  0  0  0  0  0
   24.4879  -20.3407  -11.5094 C   0  0  2  0  0  0  0  0  0  0  0  0
   25.5916  -20.5089  -12.4512 N   0  0  0  0  0  0  0  0  0  0  0  0
   24.6791  -21.2359  -10.3270 C   0  0  0  0  0  0  0  0  0  0  0  0
   23.9385  -21.0288   -9.1890 O   0  0  0  0  0  0  0  0  0  0  0  0
   25.4990  -22.1771  -10.3367 O   0  0  0  0  0  0  0  0  0  0  0  0
  1  2  1  0
  3  5  1  0
  3  2  1  0
  3  4  1  6
  5  6  1  1
  7  5  1  0
  7  8  2  0
 10  9  1  1
 11 10  1  0
 13 12  1  1
 12 10  1  0
 13 14  1  0
 14  7  1  0
 15 13  1  0
 16 15  2  0
 18 17  1  6
 18 20  1  0
 19 18  1  0
 20 22  1  0
 20 21  1  6
 21 15  1  0
 22 23  1  0
 24 22  2  0
M  END
$$$$
