ILV.pdb
     RDKit          3D

 24 23  0  0  1  0  0  0  0  0999 V2000
   23.2834  -19.9680  -14.2608 C   0  0  0  0  0  0  0  0  0  0  0  0
   24.6707  -20.2477  -13.7680 C   0  0  0  0  0  0  0  0  0  0  0  0
   24.6870  -20.6241  -12.3014 C   0  0  2  0  0  0  0  0  0  0  0  0
   24.1142  -19.4340  -11.5561 C   0  0  0  0  0  0  0  0  0  0  0  0
   26.1057  -20.8764  -11.8601 C   0  0  2  0  0  0  0  0  0  0  0  0
   26.7865  -21.8642  -12.6056 N   0  0  0  0  0  0  0  0  0  0  0  0
   26.2102  -21.1802  -10.4241 C   0  0  0  0  0  0  0  0  0  0  0  0
   25.9019  -22.3039  -10.0020 O   0  0  0  0  0  0  0  0  0  0  0  0
   28.1862  -18.1987   -5.3980 C   0  0  0  0  0  0  0  0  0  0  0  0
   27.8261  -19.5905   -5.9284 C   0  0  2  0  0  0  0  0  0  0  0  0
   28.8494  -20.5906   -5.4599 C   0  0  0  0  0  0  0  0  0  0  0  0
   27.7939  -19.4823   -7.4253 C   0  0  0  0  0  0  0  0  0  0  0  0
   26.7826  -20.3160   -8.1088 C   0  0  2  0  0  0  0  0  0  0  0  0
   26.6642  -20.1862   -9.5233 N   0  0  0  0  0  0  0  0  0  0  0  0
   25.4228  -20.1336   -7.4548 C   0  0  0  0  0  0  0  0  0  0  0  0
   24.7270  -19.1216   -7.6393 O   0  0  0  0  0  0  0  0  0  0  0  0
   21.2448  -21.8028   -6.1048 C   0  0  0  0  0  0  0  0  0  0  0  0
   22.6398  -22.0309   -6.6825 C   0  0  2  0  0  0  0  0  0  0  0  0
   23.1404  -23.4063   -6.3003 C   0  0  0  0  0  0  0  0  0  0  0  0
   23.5588  -21.0119   -6.0775 C   0  0  2  0  0  0  0  0  0  0  0  0
   24.9161  -21.1488   -6.5995 N   0  0  0  0  0  0  0  0  0  0  0  0
   23.5552  -21.2073   -4.5950 C   0  0  0  0  0  0  0  0  0  0  0  0
   24.7088  -21.5907   -3.9557 O   0  0  0  0  0  0  0  0  0  0  0  0
   22.5277  -21.0327   -3.9081 O   0  0  0  0  0  0  0  0  0  0  0  0
  1  2  1  0
  3  5  1  0
  3  2  1  0
  3  4  1  1
  5  6  1  6
  7  5  1  0
  7  8  2  0
 10  9  1  1
 11 10  1  0
 13 12  1  1
 12 10  1  0
 13 14  1  0
 14  7  1  0
 15 13  1  0
 16 15  2  0
 18 17  1  1
 18 20  1  0
 19 18  1  0
 20 22  1  0
 20 21  1  6
 21 15  1  0
 22 23  1  0
 24 22  2  0
M  END
$$$$
