ILV.pdb
     RDKit          3D

 24 23  0  0  1  0  0  0  0  0999 V2000
   28.1834  -17.3624  -16.6073 C   0  0  0  0  0  0  0  0  0  0  0  0
   28.6407  -18.2856  -15.5189 C   0  0  0  0  0  0  0  0  0  0  0  0
   27.4813  -18.9965  -14.8533 C   0  0  2  0  0  0  0  0  0  0  0  0
   26.6325  -17.9121  -14.2182 C   0  0  0  0  0  0  0  0  0  0  0  0
   28.0034  -19.9316  -13.7930 C   0  0  2  0  0  0  0  0  0  0  0  0
   28.9431  -20.8793  -14.2558 N   0  0  0  0  0  0  0  0  0  0  0  0
   26.9285  -20.6181  -13.0592 C   0  0  0  0  0  0  0  0  0  0  0  0
   26.3925  -21.6265  -13.5404 O   0  0  0  0  0  0  0  0  0  0  0  0
   27.1095  -21.5400   -8.6418 C   0  0  0  0  0  0  0  0  0  0  0  0
   26.6426  -20.0971   -8.8615 C   0  0  2  0  0  0  0  0  0  0  0  0
   26.4862  -19.4081   -7.5320 C   0  0  0  0  0  0  0  0  0  0  0  0
   25.3417  -20.1775   -9.6064 C   0  0  0  0  0  0  0  0  0  0  0  0
   25.4317  -20.6287  -11.0112 C   0  0  2  0  0  0  0  0  0  0  0  0
   26.5061  -20.1249  -11.8007 N   0  0  0  0  0  0  0  0  0  0  0  0
   24.1096  -20.3949  -11.7235 C   0  0  0  0  0  0  0  0  0  0  0  0
   23.7464  -19.2677  -12.0975 O   0  0  0  0  0  0  0  0  0  0  0  0
   23.1778  -22.1228  -14.8058 C   0  0  0  0  0  0  0  0  0  0  0  0
   21.9656  -22.3012  -13.8944 C   0  0  2  0  0  0  0  0  0  0  0  0
   20.6922  -22.0475  -14.6704 C   0  0  0  0  0  0  0  0  0  0  0  0
   22.0602  -21.2799  -12.8005 C   0  0  2  0  0  0  0  0  0  0  0  0
   23.2477  -21.4956  -11.9778 N   0  0  0  0  0  0  0  0  0  0  0  0
   20.8268  -21.3842  -11.9616 C   0  0  0  0  0  0  0  0  0  0  0  0
   19.6653  -20.7823  -12.3803 O   0  0  0  0  0  0  0  0  0  0  0  0
   20.8144  -22.0064  -10.8796 O   0  0  0  0  0  0  0  0  0  0  0  0
  1  2  1  0
  3  5  1  0
  3  2  1  0
  3  4  1  1
  5  6  1  6
  7  5  1  0
  7  8  2  0
 10  9  1  1
 11 10  1  0
 13 12  1  1
 12 10  1  0
 13 14  1  0
 14  7  1  0
 15 13  1  0
 16 15  2  0
 18 17  1  6
 18 20  1  0
 19 18  1  0
 20 22  1  0
 20 21  1  1
 21 15  1  0
 22 23  1  0
 24 22  2  0
M  END
$$$$
