ILV.pdb
     RDKit          3D

 24 23  0  0  1  0  0  0  0  0999 V2000
   28.3424  -17.3365  -17.3356 C   0  0  0  0  0  0  0  0  0  0  0  0
   28.6164  -18.3934  -16.3091 C   0  0  0  0  0  0  0  0  0  0  0  0
   27.3400  -18.9783  -15.7420 C   0  0  2  0  0  0  0  0  0  0  0  0
   26.6748  -17.8594  -14.9639 C   0  0  0  0  0  0  0  0  0  0  0  0
   27.6745  -20.1218  -14.8191 C   0  0  2  0  0  0  0  0  0  0  0  0
   28.4525  -21.1436  -15.4071 N   0  0  0  0  0  0  0  0  0  0  0  0
   26.4838  -20.7092  -14.1847 C   0  0  0  0  0  0  0  0  0  0  0  0
   25.8694  -21.6277  -14.7457 O   0  0  0  0  0  0  0  0  0  0  0  0
   25.9803  -20.4800   -8.5939 C   0  0  0  0  0  0  0  0  0  0  0  0
   25.8089  -21.2278   -9.9203 C   0  0  2  0  0  0  0  0  0  0  0  0
   27.1487  -21.3855  -10.5888 C   0  0  0  0  0  0  0  0  0  0  0  0
   24.8615  -20.4123  -10.7515 C   0  0  0  0  0  0  0  0  0  0  0  0
   24.8964  -20.6706  -12.2065 C   0  0  2  0  0  0  0  0  0  0  0  0
   26.0396  -20.2235  -12.9309 N   0  0  0  0  0  0  0  0  0  0  0  0
   23.6287  -20.1488  -12.8630 C   0  0  0  0  0  0  0  0  0  0  0  0
   23.3707  -18.9365  -12.9397 O   0  0  0  0  0  0  0  0  0  0  0  0
   21.4518  -22.5925  -15.4443 C   0  0  0  0  0  0  0  0  0  0  0  0
   21.4459  -21.0669  -15.5117 C   0  0  2  0  0  0  0  0  0  0  0  0
   22.6623  -20.5769  -16.2657 C   0  0  0  0  0  0  0  0  0  0  0  0
   21.5225  -20.5458  -14.1076 C   0  0  2  0  0  0  0  0  0  0  0  0
   22.6963  -21.0689  -13.4133 N   0  0  0  0  0  0  0  0  0  0  0  0
   20.2755  -20.9571  -13.3923 C   0  0  0  0  0  0  0  0  0  0  0  0
   19.0787  -20.3649  -13.7142 O   0  0  0  0  0  0  0  0  0  0  0  0
   20.2828  -21.8306  -12.5007 O   0  0  0  0  0  0  0  0  0  0  0  0
  1  2  1  0
  3  5  1  0
  3  2  1  0
  3  4  1  1
  5  6  1  6
  7  5  1  0
  7  8  2  0
 10  9  1  1
 11 10  1  0
 13 12  1  1
 12 10  1  0
 13 14  1  0
 14  7  1  0
 15 13  1  0
 16 15  2  0
 18 17  1  1
 18 20  1  0
 19 18  1  0
 20 22  1  0
 20 21  1  1
 21 15  1  0
 22 23  1  0
 24 22  2  0
M  END
$$$$
