ILV.pdb
     RDKit          3D

 24 23  0  0  1  0  0  0  0  0999 V2000
   20.8571  -20.2752  -17.9559 C   0  0  0  0  0  0  0  0  0  0  0  0
   21.7405  -19.4259  -17.0933 C   0  0  0  0  0  0  0  0  0  0  0  0
   22.5295  -20.2533  -16.1005 C   0  0  2  0  0  0  0  0  0  0  0  0
   21.5045  -20.9690  -15.2420 C   0  0  0  0  0  0  0  0  0  0  0  0
   23.3762  -19.3456  -15.2460 C   0  0  2  0  0  0  0  0  0  0  0  0
   24.1784  -18.4361  -15.9701 N   0  0  0  0  0  0  0  0  0  0  0  0
   24.2097  -20.0832  -14.2834 C   0  0  0  0  0  0  0  0  0  0  0  0
   23.7046  -20.9585  -13.5661 O   0  0  0  0  0  0  0  0  0  0  0  0
   30.2563  -20.1554  -12.7011 C   0  0  0  0  0  0  0  0  0  0  0  0
   28.8552  -20.6967  -12.3983 C   0  0  2  0  0  0  0  0  0  0  0  0
   28.8767  -22.2018  -12.4294 C   0  0  0  0  0  0  0  0  0  0  0  0
   27.9418  -20.1285  -13.4454 C   0  0  0  0  0  0  0  0  0  0  0  0
   26.4950  -20.3161  -13.2075 C   0  0  2  0  0  0  0  0  0  0  0  0
   25.5914  -19.7917  -14.1770 N   0  0  0  0  0  0  0  0  0  0  0  0
   26.1210  -19.8127  -11.8230 C   0  0  0  0  0  0  0  0  0  0  0  0
   26.0188  -18.6032  -11.5608 O   0  0  0  0  0  0  0  0  0  0  0  0
   24.1555  -20.5619   -7.4448 C   0  0  0  0  0  0  0  0  0  0  0  0
   24.6294  -21.2254   -8.7360 C   0  0  2  0  0  0  0  0  0  0  0  0
   25.4594  -22.4488   -8.4155 C   0  0  0  0  0  0  0  0  0  0  0  0
   25.5002  -20.2444   -9.4626 C   0  0  2  0  0  0  0  0  0  0  0  0
   25.8763  -20.7476  -10.7813 N   0  0  0  0  0  0  0  0  0  0  0  0
   26.7223  -20.0077   -8.6342 C   0  0  0  0  0  0  0  0  0  0  0  0
   26.6907  -19.0780   -7.6236 O   0  0  0  0  0  0  0  0  0  0  0  0
   27.7849  -20.6325   -8.8307 O   0  0  0  0  0  0  0  0  0  0  0  0
  1  2  1  0
  3  5  1  0
  3  2  1  0
  3  4  1  1
  5  6  1  6
  7  5  1  0
  7  8  2  0
 10  9  1  6
 11 10  1  0
 13 12  1  6
 12 10  1  0
 13 14  1  0
 14  7  1  0
 15 13  1  0
 16 15  2  0
 18 17  1  1
 18 20  1  0
 19 18  1  0
 20 22  1  0
 20 21  1  6
 21 15  1  0
 22 23  1  0
 24 22  2  0
M  END
$$$$
