ILV.pdb
     RDKit          3D

 24 23  0  0  1  0  0  0  0  0999 V2000
   20.0239  -20.4543  -11.6029 C   0  0  0  0  0  0  0  0  0  0  0  0
   21.3705  -20.4063  -12.2587 C   0  0  0  0  0  0  0  0  0  0  0  0
   22.4664  -20.9083  -11.3424 C   0  0  2  0  0  0  0  0  0  0  0  0
   22.4432  -20.0038  -10.1253 C   0  0  0  0  0  0  0  0  0  0  0  0
   23.7976  -20.8014  -12.0406 C   0  0  2  0  0  0  0  0  0  0  0  0
   23.8625  -21.4623  -13.2872 N   0  0  0  0  0  0  0  0  0  0  0  0
   24.9215  -21.2310  -11.1934 C   0  0  0  0  0  0  0  0  0  0  0  0
   24.9725  -22.3949  -10.7710 O   0  0  0  0  0  0  0  0  0  0  0  0
   28.8782  -22.2336  -11.8564 C   0  0  0  0  0  0  0  0  0  0  0  0
   28.7433  -20.7146  -12.0051 C   0  0  2  0  0  0  0  0  0  0  0  0
   30.0289  -20.1425  -12.5405 C   0  0  0  0  0  0  0  0  0  0  0  0
   28.4177  -20.1787  -10.6411 C   0  0  0  0  0  0  0  0  0  0  0  0
   27.1102  -20.5866  -10.0850 C   0  0  2  0  0  0  0  0  0  0  0  0
   25.9464  -20.3122  -10.8608 N   0  0  0  0  0  0  0  0  0  0  0  0
   26.9409  -20.0313   -8.6803 C   0  0  0  0  0  0  0  0  0  0  0  0
   26.2919  -18.9984   -8.4477 O   0  0  0  0  0  0  0  0  0  0  0  0
   27.7421  -20.3665   -3.8483 C   0  0  0  0  0  0  0  0  0  0  0  0
   28.0156  -21.0081   -5.2068 C   0  0  2  0  0  0  0  0  0  0  0  0
   29.5054  -21.1692   -5.4132 C   0  0  0  0  0  0  0  0  0  0  0  0
   27.4924  -20.0827   -6.2645 C   0  0  2  0  0  0  0  0  0  0  0  0
   27.5406  -20.7075   -7.5838 N   0  0  0  0  0  0  0  0  0  0  0  0
   28.3292  -18.8435   -6.2508 C   0  0  0  0  0  0  0  0  0  0  0  0
   28.1531  -17.9135   -5.2555 O   0  0  0  0  0  0  0  0  0  0  0  0
   29.1936  -18.6204   -7.1233 O   0  0  0  0  0  0  0  0  0  0  0  0
  1  2  1  0
  3  5  1  0
  3  2  1  0
  3  4  1  1
  5  6  1  6
  7  5  1  0
  7  8  2  0
 10  9  1  1
 11 10  1  0
 13 12  1  6
 12 10  1  0
 13 14  1  0
 14  7  1  0
 15 13  1  0
 16 15  2  0
 18 17  1  1
 18 20  1  0
 19 18  1  0
 20 22  1  0
 20 21  1  6
 21 15  1  0
 22 23  1  0
 24 22  2  0
M  END
$$$$
