ILV.pdb
     RDKit          3D

 24 23  0  0  1  0  0  0  0  0999 V2000
   22.9153  -20.1662  -12.7833 C   0  0  0  0  0  0  0  0  0  0  0  0
   24.3613  -20.1128  -12.3934 C   0  0  0  0  0  0  0  0  0  0  0  0
   24.5772  -20.5329  -10.9548 C   0  0  2  0  0  0  0  0  0  0  0  0
   23.7530  -19.5799  -10.1108 C   0  0  0  0  0  0  0  0  0  0  0  0
   26.0372  -20.4035  -10.6042 C   0  0  2  0  0  0  0  0  0  0  0  0
   26.9164  -21.0552  -11.4972 N   0  0  0  0  0  0  0  0  0  0  0  0
   26.3313  -20.8235   -9.2249 C   0  0  0  0  0  0  0  0  0  0  0  0
   26.3289  -22.0265   -8.9272 O   0  0  0  0  0  0  0  0  0  0  0  0
   29.7078  -20.4860   -6.1022 C   0  0  0  0  0  0  0  0  0  0  0  0
   29.1472  -19.1125   -6.4860 C   0  0  2  0  0  0  0  0  0  0  0  0
   29.9021  -18.0354   -5.7534 C   0  0  0  0  0  0  0  0  0  0  0  0
   27.6923  -19.1262   -6.1166 C   0  0  0  0  0  0  0  0  0  0  0  0
   26.8510  -20.0942   -6.8516 C   0  0  2  0  0  0  0  0  0  0  0  0
   26.6178  -19.8508   -8.2365 N   0  0  0  0  0  0  0  0  0  0  0  0
   25.5287  -20.2950   -6.1296 C   0  0  0  0  0  0  0  0  0  0  0  0
   24.5542  -19.5461   -6.3071 O   0  0  0  0  0  0  0  0  0  0  0  0
   24.7265  -23.8348   -3.9172 C   0  0  0  0  0  0  0  0  0  0  0  0
   23.6552  -22.9778   -4.5880 C   0  0  2  0  0  0  0  0  0  0  0  0
   23.5114  -23.3720   -6.0414 C   0  0  0  0  0  0  0  0  0  0  0  0
   24.1090  -21.5496   -4.5317 C   0  0  2  0  0  0  0  0  0  0  0  0
   25.3874  -21.3742   -5.2160 N   0  0  0  0  0  0  0  0  0  0  0  0
   24.2374  -21.1608   -3.0935 C   0  0  0  0  0  0  0  0  0  0  0  0
   23.1076  -20.9414   -2.3437 O   0  0  0  0  0  0  0  0  0  0  0  0
   25.3491  -21.0262   -2.5422 O   0  0  0  0  0  0  0  0  0  0  0  0
  1  2  1  0
  3  5  1  0
  3  2  1  0
  3  4  1  1
  5  6  1  6
  7  5  1  0
  7  8  2  0
 10  9  1  1
 11 10  1  0
 13 12  1  1
 12 10  1  0
 13 14  1  0
 14  7  1  0
 15 13  1  0
 16 15  2  0
 18 17  1  6
 18 20  1  0
 19 18  1  0
 20 22  1  0
 20 21  1  6
 21 15  1  0
 22 23  1  0
 24 22  2  0
M  END
$$$$
