ILV.pdb
     RDKit          3D

 24 23  0  0  1  0  0  0  0  0999 V2000
   29.1686  -18.3531  -17.3536 C   0  0  0  0  0  0  0  0  0  0  0  0
   28.7545  -18.0373  -15.9484 C   0  0  0  0  0  0  0  0  0  0  0  0
   27.9682  -19.1687  -15.3205 C   0  0  2  0  0  0  0  0  0  0  0  0
   28.1242  -20.3558  -16.2514 C   0  0  0  0  0  0  0  0  0  0  0  0
   26.5159  -18.7793  -15.2185 C   0  0  2  0  0  0  0  0  0  0  0  0
   26.2818  -17.5475  -14.5681 N   0  0  0  0  0  0  0  0  0  0  0  0
   25.6863  -19.8285  -14.6051 C   0  0  0  0  0  0  0  0  0  0  0  0
   25.5782  -20.9351  -15.1523 O   0  0  0  0  0  0  0  0  0  0  0  0
   26.2701  -21.9120  -10.9719 C   0  0  0  0  0  0  0  0  0  0  0  0
   25.7095  -20.5267  -10.6331 C   0  0  2  0  0  0  0  0  0  0  0  0
   25.7309  -20.3233   -9.1415 C   0  0  0  0  0  0  0  0  0  0  0  0
   24.3135  -20.4842  -11.1836 C   0  0  0  0  0  0  0  0  0  0  0  0
   24.2028  -20.4926  -12.6576 C   0  0  2  0  0  0  0  0  0  0  0  0
   25.0105  -19.5724  -13.3873 N   0  0  0  0  0  0  0  0  0  0  0  0
   22.7483  -20.3520  -13.0757 C   0  0  0  0  0  0  0  0  0  0  0  0
   22.1268  -19.2820  -12.9698 O   0  0  0  0  0  0  0  0  0  0  0  0
   21.3472  -21.8983  -16.3221 C   0  0  0  0  0  0  0  0  0  0  0  0
   20.3607  -22.2122  -15.1995 C   0  0  2  0  0  0  0  0  0  0  0  0
   18.9479  -21.9205  -15.6547 C   0  0  0  0  0  0  0  0  0  0  0  0
   20.6778  -21.3095  -14.0448 C   0  0  2  0  0  0  0  0  0  0  0  0
   22.0618  -21.4761  -13.6087 N   0  0  0  0  0  0  0  0  0  0  0  0
   19.7422  -21.6416  -12.9267 C   0  0  0  0  0  0  0  0  0  0  0  0
   18.6441  -20.8485  -12.6989 O   0  0  0  0  0  0  0  0  0  0  0  0
   19.9255  -22.6267  -12.1824 O   0  0  0  0  0  0  0  0  0  0  0  0
  1  2  1  0
  3  5  1  0
  3  2  1  0
  3  4  1  6
  5  6  1  1
  7  5  1  0
  7  8  2  0
 10  9  1  1
 11 10  1  0
 13 12  1  1
 12 10  1  0
 13 14  1  0
 14  7  1  0
 15 13  1  0
 16 15  2  0
 18 17  1  6
 18 20  1  0
 19 18  1  0
 20 22  1  0
 20 21  1  1
 21 15  1  0
 22 23  1  0
 24 22  2  0
M  END
$$$$
