TVW.pdb
     RDKit          3D

 29 30  0  0  1  0  0  0  0  0999 V2000
   10.1369  -12.9858   20.3451 C   0  0  0  0  0  0  0  0  0  0  0  0
    8.8432  -12.8565   19.6083 C   0  0  1  0  0  0  0  0  0  0  0  0
    9.0390  -11.8655   18.6193 O   0  0  0  0  0  0  0  0  0  0  0  0
    8.4634  -14.1150   18.8588 C   0  0  2  0  0  0  0  0  0  0  0  0
    7.2895  -13.9029   18.0559 N   0  0  0  0  0  0  0  0  0  0  0  0
    8.2466  -15.1886   19.8611 C   0  0  0  0  0  0  0  0  0  0  0  0
    7.2058  -15.1877   20.5601 O   0  0  0  0  0  0  0  0  0  0  0  0
    8.7940  -19.0916   19.5072 C   0  0  0  0  0  0  0  0  0  0  0  0
    9.6845  -18.5019   20.5958 C   0  0  2  0  0  0  0  0  0  0  0  0
    9.7854  -19.4684   21.7541 C   0  0  0  0  0  0  0  0  0  0  0  0
    9.1187  -17.1991   21.0995 C   0  0  2  0  0  0  0  0  0  0  0  0
    9.2174  -16.2224   20.0351 N   0  0  0  0  0  0  0  0  0  0  0  0
    9.8878  -16.6837   22.2801 C   0  0  0  0  0  0  0  0  0  0  0  0
   11.0647  -16.2283   22.1310 O   0  0  0  0  0  0  0  0  0  0  0  0
    9.3511  -16.6803   23.5852 N   0  0  0  0  0  0  0  0  0  0  0  0
   10.1547  -16.2077   24.7058 C   0  0  1  0  0  0  0  0  0  0  0  0
    9.8382  -14.7824   25.0357 C   0  0  0  0  0  0  0  0  0  0  0  0
    8.4400  -14.5118   25.4036 C   0  0  0  0  0  0  0  0  0  0  0  0
    7.4560  -15.5111   25.5602 C   0  0  0  0  0  0  0  0  0  0  0  0
    6.2986  -14.9587   25.9268 N   0  0  0  0  0  0  0  0  0  0  0  0
    6.4535  -13.6139   26.0270 C   0  0  0  0  0  0  0  0  0  0  0  0
    5.5395  -12.6423   26.3654 C   0  0  0  0  0  0  0  0  0  0  0  0
    5.9646  -11.3336   26.3806 C   0  0  0  0  0  0  0  0  0  0  0  0
    7.2772  -11.0441   26.0594 C   0  0  0  0  0  0  0  0  0  0  0  0
    8.1728  -12.0372   25.7242 C   0  0  0  0  0  0  0  0  0  0  0  0
    7.7853  -13.3471   25.7002 C   0  0  0  0  0  0  0  0  0  0  0  0
   10.1576  -17.1106   25.8585 C   0  0  0  0  0  0  0  0  0  0  0  0
    9.3056  -18.2051   25.8498 O   0  0  0  0  0  0  0  0  0  0  0  0
   10.8849  -16.9618   26.8740 O   0  0  0  0  0  0  0  0  0  0  0  0
  2  1  1  6
  2  3  1  0
  2  4  1  0
  4  6  1  0
  4  5  1  1
  6  7  2  0
  9 11  1  0
  9  8  1  6
 10  9  1  0
 11 12  1  6
 12  6  1  0
 13 15  1  0
 13 11  1  0
 14 13  2  0
 16 27  1  0
 16 15  1  0
 16 17  1  1
 18 19  2  0
 18 17  1  0
 20 19  1  0
 21 26  2  0
 21 20  1  0
 22 21  1  0
 23 24  1  0
 23 22  2  0
 24 25  2  0
 25 26  1  0
 26 18  1  0
 27 28  1  0
 29 27  2  0
M  END
$$$$
