TVW.pdb
     RDKit          3D

 29 30  0  0  1  0  0  0  0  0999 V2000
    8.4846  -12.1255   19.4800 C   0  0  0  0  0  0  0  0  0  0  0  0
    8.4393  -13.2880   20.4180 C   0  0  1  0  0  0  0  0  0  0  0  0
    7.4021  -13.0219   21.3411 O   0  0  0  0  0  0  0  0  0  0  0  0
    8.0578  -14.5828   19.7340 C   0  0  2  0  0  0  0  0  0  0  0  0
    6.7940  -14.4572   19.0597 N   0  0  0  0  0  0  0  0  0  0  0  0
    8.0149  -15.6447   20.7707 C   0  0  0  0  0  0  0  0  0  0  0  0
    6.9100  -16.0420   21.2104 O   0  0  0  0  0  0  0  0  0  0  0  0
   10.3215  -19.5852   22.5039 C   0  0  0  0  0  0  0  0  0  0  0  0
   10.1665  -18.3975   21.5599 C   0  0  2  0  0  0  0  0  0  0  0  0
   11.5121  -17.7474   21.3298 C   0  0  0  0  0  0  0  0  0  0  0  0
    9.2266  -17.3733   22.1418 C   0  0  2  0  0  0  0  0  0  0  0  0
    9.2249  -16.2160   21.2716 N   0  0  0  0  0  0  0  0  0  0  0  0
    9.6680  -16.9320   23.5061 C   0  0  0  0  0  0  0  0  0  0  0  0
   10.4707  -15.9558   23.6371 O   0  0  0  0  0  0  0  0  0  0  0  0
    9.2212  -17.5675   24.6842 N   0  0  0  0  0  0  0  0  0  0  0  0
    9.6472  -17.0746   25.9883 C   0  0  1  0  0  0  0  0  0  0  0  0
    8.4720  -16.6913   26.8324 C   0  0  0  0  0  0  0  0  0  0  0  0
    7.6159  -15.6289   26.2829 C   0  0  0  0  0  0  0  0  0  0  0  0
    6.4069  -15.8645   25.5944 C   0  0  0  0  0  0  0  0  0  0  0  0
    5.8451  -14.7054   25.2485 N   0  0  0  0  0  0  0  0  0  0  0  0
    6.6269  -13.6812   25.6752 C   0  0  0  0  0  0  0  0  0  0  0  0
    6.4545  -12.3225   25.5400 C   0  0  0  0  0  0  0  0  0  0  0  0
    7.4194  -11.4940   26.0655 C   0  0  0  0  0  0  0  0  0  0  0  0
    8.5138  -12.0477   26.7022 C   0  0  0  0  0  0  0  0  0  0  0  0
    8.6620  -13.4129   26.8242 C   0  0  0  0  0  0  0  0  0  0  0  0
    7.7229  -14.2649   26.3154 C   0  0  0  0  0  0  0  0  0  0  0  0
   10.6214  -17.9364   26.6608 C   0  0  0  0  0  0  0  0  0  0  0  0
   11.2532  -17.4640   27.8017 O   0  0  0  0  0  0  0  0  0  0  0  0
   10.9352  -19.0906   26.2713 O   0  0  0  0  0  0  0  0  0  0  0  0
  2  1  1  6
  2  3  1  0
  2  4  1  0
  4  6  1  0
  4  5  1  1
  6  7  2  0
  9 11  1  0
  9  8  1  1
 10  9  1  0
 11 12  1  6
 12  6  1  0
 13 15  1  0
 13 11  1  0
 14 13  2  0
 16 27  1  0
 16 15  1  0
 16 17  1  1
 18 19  2  0
 18 17  1  0
 20 19  1  0
 21 26  2  0
 21 20  1  0
 22 21  1  0
 23 24  1  0
 23 22  2  0
 24 25  2  0
 25 26  1  0
 26 18  1  0
 27 28  1  0
 29 27  2  0
M  END
$$$$
