TVW.pdb
     RDKit          3D

 29 30  0  0  1  0  0  0  0  0999 V2000
    5.6543  -20.2396   23.2739 C   0  0  0  0  0  0  0  0  0  0  0  0
    6.5976  -19.1563   22.8616 C   0  0  1  0  0  0  0  0  0  0  0  0
    7.9023  -19.6837   22.9968 O   0  0  0  0  0  0  0  0  0  0  0  0
    6.4577  -18.7760   21.4037 C   0  0  2  0  0  0  0  0  0  0  0  0
    6.6011  -19.9273   20.5542 N   0  0  0  0  0  0  0  0  0  0  0  0
    7.4887  -17.7507   21.1041 C   0  0  0  0  0  0  0  0  0  0  0  0
    8.5452  -18.0825   20.5161 O   0  0  0  0  0  0  0  0  0  0  0  0
    6.6251  -14.0143   19.8594 C   0  0  0  0  0  0  0  0  0  0  0  0
    7.5267  -14.0396   21.0892 C   0  0  2  0  0  0  0  0  0  0  0  0
    8.5442  -12.9248   21.0012 C   0  0  0  0  0  0  0  0  0  0  0  0
    8.2559  -15.3548   21.1884 C   0  0  2  0  0  0  0  0  0  0  0  0
    7.2853  -16.3881   21.4828 N   0  0  0  0  0  0  0  0  0  0  0  0
    9.2724  -15.3397   22.2918 C   0  0  0  0  0  0  0  0  0  0  0  0
   10.2962  -14.5914   22.2119 O   0  0  0  0  0  0  0  0  0  0  0  0
    9.1416  -16.1395   23.4470 N   0  0  0  0  0  0  0  0  0  0  0  0
   10.0954  -16.0062   24.5413 C   0  0  1  0  0  0  0  0  0  0  0  0
    9.8094  -14.7884   25.3632 C   0  0  0  0  0  0  0  0  0  0  0  0
    8.3903  -14.5441   25.6628 C   0  0  0  0  0  0  0  0  0  0  0  0
    7.3815  -15.5262   25.5672 C   0  0  0  0  0  0  0  0  0  0  0  0
    6.2068  -15.0113   25.9330 N   0  0  0  0  0  0  0  0  0  0  0  0
    6.3736  -13.7087   26.2763 C   0  0  0  0  0  0  0  0  0  0  0  0
    5.4502  -12.7831   26.7060 C   0  0  0  0  0  0  0  0  0  0  0  0
    5.8928  -11.5094   26.9805 C   0  0  0  0  0  0  0  0  0  0  0  0
    7.2314  -11.2076   26.8171 C   0  0  0  0  0  0  0  0  0  0  0  0
    8.1359  -12.1543   26.3854 C   0  0  0  0  0  0  0  0  0  0  0  0
    7.7316  -13.4288   26.1049 C   0  0  0  0  0  0  0  0  0  0  0  0
   10.2835  -17.2323   25.3193 C   0  0  0  0  0  0  0  0  0  0  0  0
   10.9207  -18.3096   24.7217 O   0  0  0  0  0  0  0  0  0  0  0  0
    9.8999  -17.3839   26.5078 O   0  0  0  0  0  0  0  0  0  0  0  0
  2  1  1  6
  2  3  1  0
  2  4  1  0
  4  6  1  0
  4  5  1  6
  6  7  2  0
  9 11  1  0
  9  8  1  6
 10  9  1  0
 11 12  1  1
 12  6  1  0
 13 15  1  0
 13 11  1  0
 14 13  2  0
 16 27  1  0
 16 15  1  0
 16 17  1  1
 18 19  2  0
 18 17  1  0
 20 19  1  0
 21 26  2  0
 21 20  1  0
 22 21  1  0
 23 24  1  0
 23 22  2  0
 24 25  2  0
 25 26  1  0
 26 18  1  0
 27 28  1  0
 29 27  2  0
M  END
$$$$
