TVW.pdb
     RDKit          3D

 29 30  0  0  1  0  0  0  0  0999 V2000
   10.1657  -12.9919   20.2605 C   0  0  0  0  0  0  0  0  0  0  0  0
    8.9064  -12.7262   19.5010 C   0  0  1  0  0  0  0  0  0  0  0  0
    9.2731  -11.9744   18.3613 O   0  0  0  0  0  0  0  0  0  0  0  0
    8.2608  -13.9877   18.9703 C   0  0  2  0  0  0  0  0  0  0  0  0
    7.0621  -13.6842   18.2363 N   0  0  0  0  0  0  0  0  0  0  0  0
    7.9767  -14.8707   20.1294 C   0  0  0  0  0  0  0  0  0  0  0  0
    6.9511  -14.6767   20.8241 O   0  0  0  0  0  0  0  0  0  0  0  0
    8.6050  -19.3374   22.0338 C   0  0  0  0  0  0  0  0  0  0  0  0
    8.8701  -18.2784   20.9689 C   0  0  2  0  0  0  0  0  0  0  0  0
   10.3230  -18.3232   20.5528 C   0  0  0  0  0  0  0  0  0  0  0  0
    8.5596  -16.9017   21.4975 C   0  0  2  0  0  0  0  0  0  0  0  0
    8.8653  -15.9399   20.4592 N   0  0  0  0  0  0  0  0  0  0  0  0
    9.3930  -16.5721   22.7006 C   0  0  0  0  0  0  0  0  0  0  0  0
   10.5450  -16.0541   22.5618 O   0  0  0  0  0  0  0  0  0  0  0  0
    8.9456  -16.8165   24.0165 N   0  0  0  0  0  0  0  0  0  0  0  0
    9.7745  -16.4367   25.1538 C   0  0  1  0  0  0  0  0  0  0  0  0
    8.9352  -16.0945   26.3450 C   0  0  0  0  0  0  0  0  0  0  0  0
    7.7650  -15.2458   26.0737 C   0  0  0  0  0  0  0  0  0  0  0  0
    6.4811  -15.7440   25.7660 C   0  0  0  0  0  0  0  0  0  0  0  0
    5.6258  -14.7335   25.6042 N   0  0  0  0  0  0  0  0  0  0  0  0
    6.2781  -13.5577   25.7897 C   0  0  0  0  0  0  0  0  0  0  0  0
    5.8087  -12.2660   25.7171 C   0  0  0  0  0  0  0  0  0  0  0  0
    6.6996  -11.2419   25.9428 C   0  0  0  0  0  0  0  0  0  0  0  0
    8.0176  -11.5419   26.2305 C   0  0  0  0  0  0  0  0  0  0  0  0
    8.4617  -12.8452   26.2976 C   0  0  0  0  0  0  0  0  0  0  0  0
    7.6044  -13.8866   26.0802 C   0  0  0  0  0  0  0  0  0  0  0  0
   10.8684  -17.3698   25.4308 C   0  0  0  0  0  0  0  0  0  0  0  0
   11.9299  -16.9390   26.2127 O   0  0  0  0  0  0  0  0  0  0  0  0
   10.9187  -18.5512   25.0014 O   0  0  0  0  0  0  0  0  0  0  0  0
  2  1  1  6
  2  3  1  0
  2  4  1  0
  4  6  1  0
  4  5  1  1
  6  7  2  0
  9 11  1  0
  9  8  1  1
 10  9  1  0
 11 12  1  6
 12  6  1  0
 13 15  1  0
 13 11  1  0
 14 13  2  0
 16 27  1  0
 16 15  1  0
 16 17  1  1
 18 19  2  0
 18 17  1  0
 20 19  1  0
 21 26  2  0
 21 20  1  0
 22 21  1  0
 23 24  1  0
 23 22  2  0
 24 25  2  0
 25 26  1  0
 26 18  1  0
 27 28  1  0
 29 27  2  0
M  END
$$$$
