TVW.pdb
     RDKit          3D

 29 30  0  0  1  0  0  0  0  0999 V2000
   10.8713  -13.8969   17.0355 C   0  0  0  0  0  0  0  0  0  0  0  0
   10.2848  -14.2648   18.3598 C   0  0  1  0  0  0  0  0  0  0  0  0
   10.7799  -13.3275   19.2952 O   0  0  0  0  0  0  0  0  0  0  0  0
    8.7786  -14.1253   18.3967 C   0  0  2  0  0  0  0  0  0  0  0  0
    8.3777  -12.7782   18.0931 N   0  0  0  0  0  0  0  0  0  0  0  0
    8.3208  -14.5344   19.7485 C   0  0  0  0  0  0  0  0  0  0  0  0
    8.0631  -13.6608   20.6101 O   0  0  0  0  0  0  0  0  0  0  0  0
    7.9722  -18.7003   20.5648 C   0  0  0  0  0  0  0  0  0  0  0  0
    6.9502  -17.7020   21.0985 C   0  0  2  0  0  0  0  0  0  0  0  0
    5.8211  -17.5448   20.1053 C   0  0  0  0  0  0  0  0  0  0  0  0
    7.5880  -16.3554   21.3243 C   0  0  2  0  0  0  0  0  0  0  0  0
    8.1733  -15.9178   20.0743 N   0  0  0  0  0  0  0  0  0  0  0  0
    8.6789  -16.4274   22.3517 C   0  0  0  0  0  0  0  0  0  0  0  0
    9.8868  -16.5967   21.9955 O   0  0  0  0  0  0  0  0  0  0  0  0
    8.4200  -16.3125   23.7342 N   0  0  0  0  0  0  0  0  0  0  0  0
    9.5129  -16.4092   24.6940 C   0  0  1  0  0  0  0  0  0  0  0  0
    9.5055  -15.2502   25.6412 C   0  0  0  0  0  0  0  0  0  0  0  0
    8.1796  -14.6973   25.9567 C   0  0  0  0  0  0  0  0  0  0  0  0
    7.0130  -15.4769   26.1067 C   0  0  0  0  0  0  0  0  0  0  0  0
    5.9790  -14.6955   26.4217 N   0  0  0  0  0  0  0  0  0  0  0  0
    6.3950  -13.4055   26.4929 C   0  0  0  0  0  0  0  0  0  0  0  0
    5.6834  -12.2622   26.7770 C   0  0  0  0  0  0  0  0  0  0  0  0
    6.3593  -11.0636   26.7728 C   0  0  0  0  0  0  0  0  0  0  0  0
    7.7112  -11.0494   26.4869 C   0  0  0  0  0  0  0  0  0  0  0  0
    8.4005  -12.2099   26.2060 C   0  0  0  0  0  0  0  0  0  0  0  0
    7.7615  -13.4175   26.2025 C   0  0  0  0  0  0  0  0  0  0  0  0
    9.6240  -17.7189   25.3393 C   0  0  0  0  0  0  0  0  0  0  0  0
   10.7718  -18.0108   26.0612 O   0  0  0  0  0  0  0  0  0  0  0  0
    8.7423  -18.6144   25.2827 O   0  0  0  0  0  0  0  0  0  0  0  0
  2  1  1  6
  2  3  1  0
  2  4  1  0
  4  6  1  0
  4  5  1  1
  6  7  2  0
  9 11  1  0
  9  8  1  6
 10  9  1  0
 11 12  1  6
 12  6  1  0
 13 15  1  0
 13 11  1  0
 14 13  2  0
 16 27  1  0
 16 15  1  0
 16 17  1  1
 18 19  2  0
 18 17  1  0
 20 19  1  0
 21 26  2  0
 21 20  1  0
 22 21  1  0
 23 24  1  0
 23 22  2  0
 24 25  2  0
 25 26  1  0
 26 18  1  0
 27 28  1  0
 29 27  2  0
M  END
$$$$
