TVW.pdb
     RDKit          3D

 29 30  0  0  1  0  0  0  0  0999 V2000
    4.4369  -19.7161   21.8279 C   0  0  0  0  0  0  0  0  0  0  0  0
    5.6413  -18.8319   21.8561 C   0  0  1  0  0  0  0  0  0  0  0  0
    6.7334  -19.6488   22.2286 O   0  0  0  0  0  0  0  0  0  0  0  0
    5.9933  -18.2716   20.4952 C   0  0  2  0  0  0  0  0  0  0  0  0
    6.3044  -19.3258   19.5680 N   0  0  0  0  0  0  0  0  0  0  0  0
    7.1430  -17.3489   20.6711 C   0  0  0  0  0  0  0  0  0  0  0  0
    8.3139  -17.7863   20.5725 O   0  0  0  0  0  0  0  0  0  0  0  0
    7.1202  -13.6869   19.1761 C   0  0  0  0  0  0  0  0  0  0  0  0
    7.5218  -13.6683   20.6473 C   0  0  2  0  0  0  0  0  0  0  0  0
    8.6239  -12.6563   20.8645 C   0  0  0  0  0  0  0  0  0  0  0  0
    8.0162  -15.0240   21.0819 C   0  0  2  0  0  0  0  0  0  0  0  0
    6.9237  -15.9655   20.9533 N   0  0  0  0  0  0  0  0  0  0  0  0
    8.4603  -15.0156   22.5149 C   0  0  0  0  0  0  0  0  0  0  0  0
    7.7187  -14.5101   23.4143 O   0  0  0  0  0  0  0  0  0  0  0  0
    9.6974  -15.5581   22.9230 N   0  0  0  0  0  0  0  0  0  0  0  0
   10.1402  -15.4132   24.3042 C   0  0  1  0  0  0  0  0  0  0  0  0
    9.1822  -16.0660   25.2510 C   0  0  0  0  0  0  0  0  0  0  0  0
    7.9568  -15.3051   25.5387 C   0  0  0  0  0  0  0  0  0  0  0  0
    6.6515  -15.8084   25.3532 C   0  0  0  0  0  0  0  0  0  0  0  0
    5.7531  -14.8979   25.7311 N   0  0  0  0  0  0  0  0  0  0  0  0
    6.3962  -13.7859   26.1694 C   0  0  0  0  0  0  0  0  0  0  0  0
    5.8854  -12.5998   26.6452 C   0  0  0  0  0  0  0  0  0  0  0  0
    6.7743  -11.6178   27.0183 C   0  0  0  0  0  0  0  0  0  0  0  0
    8.1312  -11.8535   26.9037 C   0  0  0  0  0  0  0  0  0  0  0  0
    8.6165  -13.0514   26.4242 C   0  0  0  0  0  0  0  0  0  0  0  0
    7.7627  -14.0487   26.0456 C   0  0  0  0  0  0  0  0  0  0  0  0
   11.5438  -15.7702   24.5198 C   0  0  0  0  0  0  0  0  0  0  0  0
   12.1054  -15.5420   25.7673 O   0  0  0  0  0  0  0  0  0  0  0  0
   12.2906  -16.2731   23.6412 O   0  0  0  0  0  0  0  0  0  0  0  0
  2  1  1  6
  2  3  1  0
  2  4  1  0
  4  6  1  0
  4  5  1  6
  6  7  2  0
  9 11  1  0
  9  8  1  6
 10  9  1  0
 11 12  1  1
 12  6  1  0
 13 15  1  0
 13 11  1  0
 14 13  2  0
 16 27  1  0
 16 15  1  0
 16 17  1  1
 18 19  2  0
 18 17  1  0
 20 19  1  0
 21 26  2  0
 21 20  1  0
 22 21  1  0
 23 24  1  0
 23 22  2  0
 24 25  2  0
 25 26  1  0
 26 18  1  0
 27 28  1  0
 29 27  2  0
M  END
$$$$
