TVW.pdb
     RDKit          3D

 29 30  0  0  1  0  0  0  0  0999 V2000
   11.0083  -20.0317   18.1418 C   0  0  0  0  0  0  0  0  0  0  0  0
   10.8438  -18.9840   19.1947 C   0  0  1  0  0  0  0  0  0  0  0  0
   11.9825  -19.0670   20.0284 O   0  0  0  0  0  0  0  0  0  0  0  0
   10.8475  -17.5787   18.6335 C   0  0  2  0  0  0  0  0  0  0  0  0
   12.0867  -17.2946   17.9618 N   0  0  0  0  0  0  0  0  0  0  0  0
   10.6165  -16.6420   19.7620 C   0  0  0  0  0  0  0  0  0  0  0  0
   11.5917  -16.0828   20.3172 O   0  0  0  0  0  0  0  0  0  0  0  0
    7.4237  -14.1381   19.8666 C   0  0  0  0  0  0  0  0  0  0  0  0
    7.5952  -14.9575   21.1414 C   0  0  2  0  0  0  0  0  0  0  0  0
    7.2404  -14.1133   22.3444 C   0  0  0  0  0  0  0  0  0  0  0  0
    9.0192  -15.4300   21.2837 C   0  0  2  0  0  0  0  0  0  0  0  0
    9.2899  -16.3746   20.2202 N   0  0  0  0  0  0  0  0  0  0  0  0
    9.2410  -16.1251   22.5946 C   0  0  0  0  0  0  0  0  0  0  0  0
    9.3383  -17.3912   22.6420 O   0  0  0  0  0  0  0  0  0  0  0  0
    9.3502  -15.4197   23.8119 N   0  0  0  0  0  0  0  0  0  0  0  0
    9.7070  -16.1248   25.0369 C   0  0  1  0  0  0  0  0  0  0  0  0
    9.5233  -15.2504   26.2378 C   0  0  0  0  0  0  0  0  0  0  0  0
    8.1782  -14.6798   26.4072 C   0  0  0  0  0  0  0  0  0  0  0  0
    6.9933  -15.4453   26.4428 C   0  0  0  0  0  0  0  0  0  0  0  0
    5.9413  -14.6493   26.6397 N   0  0  0  0  0  0  0  0  0  0  0  0
    6.3627  -13.3630   26.7402 C   0  0  0  0  0  0  0  0  0  0  0  0
    5.6388  -12.2091   26.9361 C   0  0  0  0  0  0  0  0  0  0  0  0
    6.3254  -11.0177   26.9897 C   0  0  0  0  0  0  0  0  0  0  0  0
    7.6999  -11.0212   26.8465 C   0  0  0  0  0  0  0  0  0  0  0  0
    8.4010  -12.1921   26.6515 C   0  0  0  0  0  0  0  0  0  0  0  0
    7.7518  -13.3929   26.5942 C   0  0  0  0  0  0  0  0  0  0  0  0
    9.1032  -17.4534   25.1561 C   0  0  0  0  0  0  0  0  0  0  0  0
    9.7109  -18.3900   25.9791 O   0  0  0  0  0  0  0  0  0  0  0  0
    8.0593  -17.8146   24.5542 O   0  0  0  0  0  0  0  0  0  0  0  0
  2  1  1  6
  2  3  1  0
  2  4  1  0
  4  6  1  0
  4  5  1  1
  6  7  2  0
  9 11  1  0
  9  8  1  6
 10  9  1  0
 11 12  1  6
 12  6  1  0
 13 15  1  0
 13 11  1  0
 14 13  2  0
 16 27  1  0
 16 15  1  0
 16 17  1  1
 18 19  2  0
 18 17  1  0
 20 19  1  0
 21 26  2  0
 21 20  1  0
 22 21  1  0
 23 24  1  0
 23 22  2  0
 24 25  2  0
 25 26  1  0
 26 18  1  0
 27 28  1  0
 29 27  2  0
M  END
$$$$
