TVW.pdb
     RDKit          3D

 29 30  0  0  1  0  0  0  0  0999 V2000
   10.6900  -13.3365   19.5644 C   0  0  0  0  0  0  0  0  0  0  0  0
    9.2985  -12.9186   19.2143 C   0  0  1  0  0  0  0  0  0  0  0  0
    9.4074  -12.0248   18.1244 O   0  0  0  0  0  0  0  0  0  0  0  0
    8.4449  -14.0663   18.7203 C   0  0  2  0  0  0  0  0  0  0  0  0
    7.1565  -13.6004   18.2838 N   0  0  0  0  0  0  0  0  0  0  0  0
    8.3191  -15.0447   19.8299 C   0  0  0  0  0  0  0  0  0  0  0  0
    7.4687  -14.8578   20.7321 O   0  0  0  0  0  0  0  0  0  0  0  0
    8.8999  -19.0754   19.3469 C   0  0  0  0  0  0  0  0  0  0  0  0
    9.7171  -18.4484   20.4716 C   0  0  2  0  0  0  0  0  0  0  0  0
    9.8073  -19.4088   21.6358 C   0  0  0  0  0  0  0  0  0  0  0  0
    9.0767  -17.1695   20.9466 C   0  0  2  0  0  0  0  0  0  0  0  0
    9.1619  -16.1975   19.8768 N   0  0  0  0  0  0  0  0  0  0  0  0
    9.7855  -16.6100   22.1447 C   0  0  0  0  0  0  0  0  0  0  0  0
   10.8361  -15.9099   22.0007 O   0  0  0  0  0  0  0  0  0  0  0  0
    9.3276  -16.8300   23.4613 N   0  0  0  0  0  0  0  0  0  0  0  0
   10.0603  -16.2761   24.5931 C   0  0  1  0  0  0  0  0  0  0  0  0
    9.6775  -14.8503   24.8403 C   0  0  0  0  0  0  0  0  0  0  0  0
    8.3316  -14.6421   25.3960 C   0  0  0  0  0  0  0  0  0  0  0  0
    7.3748  -15.6669   25.5557 C   0  0  0  0  0  0  0  0  0  0  0  0
    6.2674  -15.1749   26.1129 N   0  0  0  0  0  0  0  0  0  0  0  0
    6.4303  -13.8468   26.3413 C   0  0  0  0  0  0  0  0  0  0  0  0
    5.5604  -12.9313   26.8883 C   0  0  0  0  0  0  0  0  0  0  0  0
    5.9818  -11.6259   26.9972 C   0  0  0  0  0  0  0  0  0  0  0  0
    7.2470  -11.2837   26.5589 C   0  0  0  0  0  0  0  0  0  0  0  0
    8.0990  -12.2211   26.0149 C   0  0  0  0  0  0  0  0  0  0  0  0
    7.7140  -13.5263   25.8926 C   0  0  0  0  0  0  0  0  0  0  0  0
   10.0420  -17.1244   25.7865 C   0  0  0  0  0  0  0  0  0  0  0  0
    9.2591  -18.2693   25.7782 O   0  0  0  0  0  0  0  0  0  0  0  0
   10.6915  -16.8850   26.8368 O   0  0  0  0  0  0  0  0  0  0  0  0
  2  1  1  6
  2  3  1  0
  2  4  1  0
  4  6  1  0
  4  5  1  1
  6  7  2  0
  9 11  1  0
  9  8  1  6
 10  9  1  0
 11 12  1  6
 12  6  1  0
 13 15  1  0
 13 11  1  0
 14 13  2  0
 16 27  1  0
 16 15  1  0
 16 17  1  1
 18 19  2  0
 18 17  1  0
 20 19  1  0
 21 26  2  0
 21 20  1  0
 22 21  1  0
 23 24  1  0
 23 22  2  0
 24 25  2  0
 25 26  1  0
 26 18  1  0
 27 28  1  0
 29 27  2  0
M  END
$$$$
