TVW.pdb
     RDKit          3D

 29 30  0  0  1  0  0  0  0  0999 V2000
   10.5027  -19.1486   19.8247 C   0  0  0  0  0  0  0  0  0  0  0  0
   11.2361  -18.4263   18.7413 C   0  0  1  0  0  0  0  0  0  0  0  0
   11.4077  -19.3499   17.6847 O   0  0  0  0  0  0  0  0  0  0  0  0
   10.4433  -17.2773   18.1574 C   0  0  2  0  0  0  0  0  0  0  0  0
   11.0954  -16.7389   16.9945 N   0  0  0  0  0  0  0  0  0  0  0  0
   10.2920  -16.2491   19.2177 C   0  0  0  0  0  0  0  0  0  0  0  0
   11.2742  -15.5415   19.5441 O   0  0  0  0  0  0  0  0  0  0  0  0
    6.4351  -15.6548   20.9503 C   0  0  0  0  0  0  0  0  0  0  0  0
    7.5131  -14.5761   20.9681 C   0  0  2  0  0  0  0  0  0  0  0  0
    7.4093  -13.7279   19.7209 C   0  0  0  0  0  0  0  0  0  0  0  0
    8.8860  -15.1955   21.0202 C   0  0  2  0  0  0  0  0  0  0  0  0
    9.0345  -16.0617   19.8694 N   0  0  0  0  0  0  0  0  0  0  0  0
    9.0703  -16.0247   22.2568 C   0  0  0  0  0  0  0  0  0  0  0  0
    9.3419  -17.2626   22.1656 O   0  0  0  0  0  0  0  0  0  0  0  0
    8.9532  -15.4796   23.5532 N   0  0  0  0  0  0  0  0  0  0  0  0
    9.1992  -16.3140   24.7229 C   0  0  1  0  0  0  0  0  0  0  0  0
    9.1994  -15.4993   25.9786 C   0  0  0  0  0  0  0  0  0  0  0  0
    8.0097  -14.6609   26.1910 C   0  0  0  0  0  0  0  0  0  0  0  0
    6.6835  -15.1382   26.1226 C   0  0  0  0  0  0  0  0  0  0  0  0
    5.8284  -14.1507   26.3920 N   0  0  0  0  0  0  0  0  0  0  0  0
    6.5215  -13.0109   26.6428 C   0  0  0  0  0  0  0  0  0  0  0  0
    6.0658  -11.7508   26.9565 C   0  0  0  0  0  0  0  0  0  0  0  0
    6.9980  -10.7580   27.1540 C   0  0  0  0  0  0  0  0  0  0  0  0
    8.3418  -11.0567   27.0318 C   0  0  0  0  0  0  0  0  0  0  0  0
    8.7715  -12.3283   26.7169 C   0  0  0  0  0  0  0  0  0  0  0  0
    7.8737  -13.3382   26.5152 C   0  0  0  0  0  0  0  0  0  0  0  0
    8.3669  -17.5173   24.7811 C   0  0  0  0  0  0  0  0  0  0  0  0
    8.8143  -18.6019   25.5210 O   0  0  0  0  0  0  0  0  0  0  0  0
    7.2601  -17.6430   24.1965 O   0  0  0  0  0  0  0  0  0  0  0  0
  2  1  1  1
  2  3  1  0
  2  4  1  0
  4  6  1  0
  4  5  1  6
  6  7  2  0
  9 11  1  0
  9  8  1  6
 10  9  1  0
 11 12  1  6
 12  6  1  0
 13 15  1  0
 13 11  1  0
 14 13  2  0
 16 27  1  0
 16 15  1  0
 16 17  1  1
 18 19  2  0
 18 17  1  0
 20 19  1  0
 21 26  2  0
 21 20  1  0
 22 21  1  0
 23 24  1  0
 23 22  2  0
 24 25  2  0
 25 26  1  0
 26 18  1  0
 27 28  1  0
 29 27  2  0
M  END
$$$$
