DKS.pdb
     RDKit          3D

 24 23  0  0  1  0  0  0  0  0999 V2000
   11.0855  -18.1497   18.2640 N   0  0  0  0  0  0  0  0  0  0  0  0
   12.2342  -17.6019   18.9125 C   0  0  1  0  0  0  0  0  0  0  0  0
   13.0767  -16.8632   17.9197 C   0  0  0  0  0  0  0  0  0  0  0  0
   13.3787  -17.7645   16.7813 C   0  0  0  0  0  0  0  0  0  0  0  0
   13.8314  -17.3447   15.6827 O   0  0  0  0  0  0  0  0  0  0  0  0
   11.8911  -16.7665   20.0896 C   0  0  0  0  0  0  0  0  0  0  0  0
   12.8153  -16.1965   20.7196 O   0  0  0  0  0  0  0  0  0  0  0  0
   13.1628  -19.1358   16.9031 O   0  0  0  0  0  0  0  0  0  0  0  0
   10.5692  -16.5702   20.5517 N   0  0  0  0  0  0  0  0  0  0  0  0
   10.2185  -15.7912   21.7204 C   0  0  1  0  0  0  0  0  0  0  0  0
    8.7811  -15.3114   21.5464 C   0  0  0  0  0  0  0  0  0  0  0  0
    8.7749  -14.0294   20.7412 C   0  0  0  0  0  0  0  0  0  0  0  0
    7.6975  -14.1753   19.6693 C   0  0  0  0  0  0  0  0  0  0  0  0
    7.5826  -12.9041   18.8491 C   0  0  0  0  0  0  0  0  0  0  0  0
    6.4743  -13.0842   17.9368 N   0  0  0  0  0  0  0  0  0  0  0  0
   10.3630  -16.6228   22.9351 C   0  0  0  0  0  0  0  0  0  0  0  0
   10.1107  -17.8517   22.8491 O   0  0  0  0  0  0  0  0  0  0  0  0
   11.1763  -17.0515   27.6908 O   0  0  0  0  0  0  0  0  0  0  0  0
   11.1850  -16.2174   26.5954 C   0  0  0  0  0  0  0  0  0  0  0  0
   10.8717  -17.0028   25.3114 C   0  0  2  0  0  0  0  0  0  0  0  0
   10.7655  -16.1282   24.1846 N   0  0  0  0  0  0  0  0  0  0  0  0
    9.6182  -17.7352   25.5931 C   0  0  0  0  0  0  0  0  0  0  0  0
    8.5283  -17.2227   25.2671 O   0  0  0  0  0  0  0  0  0  0  0  0
    9.6290  -18.9680   26.2061 O   0  0  0  0  0  0  0  0  0  0  0  0
  2  1  1  6
  2  6  1  0
  2  3  1  0
  3  4  1  0
  4  5  2  0
  4  8  1  0
  6  7  2  0
  9 10  1  0
  9  6  1  0
 10 11  1  6
 11 12  1  0
 12 13  1  0
 13 14  1  0
 15 14  1  0
 16 17  2  0
 16 10  1  0
 18 19  1  0
 20 19  1  1
 20 22  1  0
 20 21  1  0
 21 16  1  0
 22 24  1  0
 23 22  2  0
M  END
$$$$
