DKS.pdb
     RDKit          3D

 24 23  0  0  1  0  0  0  0  0999 V2000
   13.1153  -17.1192   15.8952 N   0  0  0  0  0  0  0  0  0  0  0  0
   13.5501  -17.8834   17.0209 C   0  0  1  0  0  0  0  0  0  0  0  0
   14.9245  -17.4531   17.4294 C   0  0  0  0  0  0  0  0  0  0  0  0
   15.8432  -17.6233   16.2777 C   0  0  0  0  0  0  0  0  0  0  0  0
   16.2049  -18.7550   15.8573 O   0  0  0  0  0  0  0  0  0  0  0  0
   12.5905  -17.8454   18.1518 C   0  0  0  0  0  0  0  0  0  0  0  0
   11.9081  -16.8077   18.3344 O   0  0  0  0  0  0  0  0  0  0  0  0
   16.3423  -16.5040   15.6143 O   0  0  0  0  0  0  0  0  0  0  0  0
   12.3947  -18.9209   19.0487 N   0  0  0  0  0  0  0  0  0  0  0  0
   11.3988  -18.9389   20.0992 C   0  0  1  0  0  0  0  0  0  0  0  0
   11.1193  -20.3965   20.4514 C   0  0  0  0  0  0  0  0  0  0  0  0
   10.0570  -20.4569   21.5282 C   0  0  0  0  0  0  0  0  0  0  0  0
    9.7962  -21.9322   21.8221 C   0  0  0  0  0  0  0  0  0  0  0  0
    8.6284  -22.0894   22.7779 C   0  0  0  0  0  0  0  0  0  0  0  0
    8.4628  -23.5063   23.0191 N   0  0  0  0  0  0  0  0  0  0  0  0
   11.8988  -18.1899   21.2725 C   0  0  0  0  0  0  0  0  0  0  0  0
   13.1114  -18.3100   21.5833 O   0  0  0  0  0  0  0  0  0  0  0  0
    9.4270  -16.0402   23.7105 O   0  0  0  0  0  0  0  0  0  0  0  0
   10.7066  -15.5343   23.6615 C   0  0  0  0  0  0  0  0  0  0  0  0
   11.6889  -16.5903   23.1292 C   0  0  2  0  0  0  0  0  0  0  0  0
   11.1049  -17.3491   22.0667 N   0  0  0  0  0  0  0  0  0  0  0  0
   12.0491  -17.4194   24.2997 C   0  0  0  0  0  0  0  0  0  0  0  0
   12.6818  -16.8996   25.2411 O   0  0  0  0  0  0  0  0  0  0  0  0
   11.7015  -18.7497   24.3717 O   0  0  0  0  0  0  0  0  0  0  0  0
  2  1  1  6
  2  6  1  0
  2  3  1  0
  3  4  1  0
  4  5  2  0
  4  8  1  0
  6  7  2  0
  9 10  1  0
  9  6  1  0
 10 11  1  1
 11 12  1  0
 12 13  1  0
 13 14  1  0
 15 14  1  0
 16 17  2  0
 16 10  1  0
 18 19  1  0
 20 19  1  1
 20 22  1  0
 20 21  1  0
 21 16  1  0
 22 24  1  0
 23 22  2  0
M  END
$$$$
