DKS.pdb
     RDKit          3D

 24 23  0  0  1  0  0  0  0  0999 V2000
   15.4188  -18.6975   12.9203 N   0  0  0  0  0  0  0  0  0  0  0  0
   15.3625  -19.8935   13.6992 C   0  0  1  0  0  0  0  0  0  0  0  0
   16.7443  -20.4277   13.9142 C   0  0  0  0  0  0  0  0  0  0  0  0
   17.3345  -20.7761   12.5991 C   0  0  0  0  0  0  0  0  0  0  0  0
   16.9382  -21.7567   11.9137 O   0  0  0  0  0  0  0  0  0  0  0  0
   14.6229  -19.7201   14.9736 C   0  0  0  0  0  0  0  0  0  0  0  0
   14.6736  -18.6106   15.5589 O   0  0  0  0  0  0  0  0  0  0  0  0
   18.3707  -20.0055   12.0751 O   0  0  0  0  0  0  0  0  0  0  0  0
   13.8541  -20.7415   15.5778 N   0  0  0  0  0  0  0  0  0  0  0  0
   13.0748  -20.5725   16.7861 C   0  0  1  0  0  0  0  0  0  0  0  0
   11.8452  -21.4686   16.6766 C   0  0  0  0  0  0  0  0  0  0  0  0
   10.9802  -21.2844   17.9052 C   0  0  0  0  0  0  0  0  0  0  0  0
    9.7504  -22.1718   17.7280 C   0  0  0  0  0  0  0  0  0  0  0  0
    8.8652  -22.1120   18.9587 C   0  0  0  0  0  0  0  0  0  0  0  0
    7.8184  -23.0943   18.7789 N   0  0  0  0  0  0  0  0  0  0  0  0
   13.8963  -20.9305   17.9628 C   0  0  0  0  0  0  0  0  0  0  0  0
   14.5721  -21.9901   17.9174 O   0  0  0  0  0  0  0  0  0  0  0  0
   16.3416  -18.8989   19.5978 O   0  0  0  0  0  0  0  0  0  0  0  0
   15.7440  -19.4938   20.6862 C   0  0  0  0  0  0  0  0  0  0  0  0
   14.7712  -20.5964   20.2372 C   0  0  2  0  0  0  0  0  0  0  0  0
   13.9721  -20.1615   19.1336 N   0  0  0  0  0  0  0  0  0  0  0  0
   13.9692  -20.9264   21.4353 C   0  0  0  0  0  0  0  0  0  0  0  0
   14.5287  -21.4655   22.4116 O   0  0  0  0  0  0  0  0  0  0  0  0
   12.6214  -20.6517   21.4953 O   0  0  0  0  0  0  0  0  0  0  0  0
  2  1  1  1
  2  6  1  0
  2  3  1  0
  3  4  1  0
  4  5  2  0
  4  8  1  0
  6  7  2  0
  9 10  1  0
  9  6  1  0
 10 11  1  6
 11 12  1  0
 12 13  1  0
 13 14  1  0
 15 14  1  0
 16 17  2  0
 16 10  1  0
 18 19  1  0
 20 19  1  1
 20 22  1  0
 20 21  1  0
 21 16  1  0
 22 24  1  0
 23 22  2  0
M  END
$$$$
