DKS.pdb
     RDKit          3D

 24 23  0  0  1  0  0  0  0  0999 V2000
    9.5734  -15.9664   16.7213 N   0  0  0  0  0  0  0  0  0  0  0  0
    9.7456  -16.8444   17.8347 C   0  0  1  0  0  0  0  0  0  0  0  0
   11.1923  -16.9094   18.2141 C   0  0  0  0  0  0  0  0  0  0  0  0
   11.9590  -17.4909   17.0855 C   0  0  0  0  0  0  0  0  0  0  0  0
   11.5675  -18.5049   16.4479 O   0  0  0  0  0  0  0  0  0  0  0  0
    8.8783  -16.4953   18.9867 C   0  0  0  0  0  0  0  0  0  0  0  0
    8.8252  -15.2999   19.3665 O   0  0  0  0  0  0  0  0  0  0  0  0
   13.1647  -16.9131   16.6924 O   0  0  0  0  0  0  0  0  0  0  0  0
    8.0971  -17.4391   19.6927 N   0  0  0  0  0  0  0  0  0  0  0  0
    7.1320  -17.0996   20.7169 C   0  0  1  0  0  0  0  0  0  0  0  0
    6.0939  -18.2161   20.7675 C   0  0  0  0  0  0  0  0  0  0  0  0
    5.0649  -17.8955   21.8305 C   0  0  0  0  0  0  0  0  0  0  0  0
    4.0877  -19.0676   21.8801 C   0  0  0  0  0  0  0  0  0  0  0  0
    3.0195  -18.8299   22.9311 C   0  0  0  0  0  0  0  0  0  0  0  0
    2.1191  -19.9615   22.8872 N   0  0  0  0  0  0  0  0  0  0  0  0
    7.8192  -16.9467   22.0178 C   0  0  0  0  0  0  0  0  0  0  0  0
    8.7473  -17.7474   22.2989 O   0  0  0  0  0  0  0  0  0  0  0  0
    6.6503  -14.2293   24.9079 O   0  0  0  0  0  0  0  0  0  0  0  0
    8.0023  -14.4836   24.8519 C   0  0  0  0  0  0  0  0  0  0  0  0
    8.2743  -15.8300   24.1616 C   0  0  2  0  0  0  0  0  0  0  0  0
    7.5022  -15.9616   22.9648 N   0  0  0  0  0  0  0  0  0  0  0  0
    7.9540  -16.8624   25.1709 C   0  0  0  0  0  0  0  0  0  0  0  0
    7.0234  -17.6629   24.9474 O   0  0  0  0  0  0  0  0  0  0  0  0
    8.6599  -16.9583   26.3492 O   0  0  0  0  0  0  0  0  0  0  0  0
  2  1  1  6
  2  6  1  0
  2  3  1  0
  3  4  1  0
  4  5  2  0
  4  8  1  0
  6  7  2  0
  9 10  1  0
  9  6  1  0
 10 11  1  1
 11 12  1  0
 12 13  1  0
 13 14  1  0
 15 14  1  0
 16 17  2  0
 16 10  1  0
 18 19  1  0
 20 19  1  1
 20 22  1  0
 20 21  1  0
 21 16  1  0
 22 24  1  0
 23 22  2  0
M  END
$$$$
