DKS.pdb
     RDKit          3D

 24 23  0  0  1  0  0  0  0  0999 V2000
    8.3076  -19.3635   17.2977 N   0  0  0  0  0  0  0  0  0  0  0  0
    8.5855  -18.0575   17.8048 C   0  0  1  0  0  0  0  0  0  0  0  0
    8.4045  -17.0404   16.7213 C   0  0  0  0  0  0  0  0  0  0  0  0
    9.3180  -17.3664   15.5994 C   0  0  0  0  0  0  0  0  0  0  0  0
   10.1062  -18.3493   15.6273 O   0  0  0  0  0  0  0  0  0  0  0  0
    7.8001  -17.7291   19.0199 C   0  0  0  0  0  0  0  0  0  0  0  0
    7.9655  -16.6107   19.5659 O   0  0  0  0  0  0  0  0  0  0  0  0
    9.3265  -16.5708   14.4552 O   0  0  0  0  0  0  0  0  0  0  0  0
    6.8641  -18.6102   19.6089 N   0  0  0  0  0  0  0  0  0  0  0  0
    6.0257  -18.2756   20.7407 C   0  0  1  0  0  0  0  0  0  0  0  0
    4.8630  -19.2626   20.7672 C   0  0  0  0  0  0  0  0  0  0  0  0
    3.9622  -18.9441   21.9414 C   0  0  0  0  0  0  0  0  0  0  0  0
    2.8414  -19.9808   21.9441 C   0  0  0  0  0  0  0  0  0  0  0  0
    1.7954  -19.6358   22.9876 C   0  0  0  0  0  0  0  0  0  0  0  0
    0.7863  -20.6713   22.9382 N   0  0  0  0  0  0  0  0  0  0  0  0
    6.8191  -18.3479   21.9870 C   0  0  0  0  0  0  0  0  0  0  0  0
    7.5528  -19.3530   22.1685 O   0  0  0  0  0  0  0  0  0  0  0  0
    6.5365  -15.4969   24.9049 O   0  0  0  0  0  0  0  0  0  0  0  0
    7.7247  -16.1921   24.9309 C   0  0  0  0  0  0  0  0  0  0  0  0
    7.5935  -17.5217   24.1705 C   0  0  2  0  0  0  0  0  0  0  0  0
    6.8072  -17.3635   22.9862 N   0  0  0  0  0  0  0  0  0  0  0  0
    6.9977  -18.4708   25.1357 C   0  0  0  0  0  0  0  0  0  0  0  0
    5.9060  -19.0100   24.8630 O   0  0  0  0  0  0  0  0  0  0  0  0
    7.6214  -18.7710   26.3259 O   0  0  0  0  0  0  0  0  0  0  0  0
  2  1  1  6
  2  6  1  0
  2  3  1  0
  3  4  1  0
  4  5  2  0
  4  8  1  0
  6  7  2  0
  9 10  1  0
  9  6  1  0
 10 11  1  1
 11 12  1  0
 12 13  1  0
 13 14  1  0
 15 14  1  0
 16 17  2  0
 16 10  1  0
 18 19  1  0
 20 19  1  1
 20 22  1  0
 20 21  1  0
 21 16  1  0
 22 24  1  0
 23 22  2  0
M  END
$$$$
