DKS.pdb
     RDKit          3D

 24 23  0  0  1  0  0  0  0  0999 V2000
    6.7855  -16.7258   16.1431 N   0  0  0  0  0  0  0  0  0  0  0  0
    7.1733  -17.9937   16.6744 C   0  0  1  0  0  0  0  0  0  0  0  0
    8.5392  -18.3573   16.1810 C   0  0  0  0  0  0  0  0  0  0  0  0
    8.5243  -18.3783   14.6982 C   0  0  0  0  0  0  0  0  0  0  0  0
    8.9826  -17.4348   13.9997 O   0  0  0  0  0  0  0  0  0  0  0  0
    7.0757  -18.0559   18.1535 C   0  0  0  0  0  0  0  0  0  0  0  0
    7.2573  -17.0068   18.8187 O   0  0  0  0  0  0  0  0  0  0  0  0
    7.9878  -19.4731   14.0231 O   0  0  0  0  0  0  0  0  0  0  0  0
    6.7868  -19.2404   18.8699 N   0  0  0  0  0  0  0  0  0  0  0  0
    6.6286  -19.3089   20.3072 C   0  0  1  0  0  0  0  0  0  0  0  0
    5.7281  -20.4997   20.6206 C   0  0  0  0  0  0  0  0  0  0  0  0
    5.5731  -20.6294   22.1209 C   0  0  0  0  0  0  0  0  0  0  0  0
    4.6589  -21.8248   22.3780 C   0  0  0  0  0  0  0  0  0  0  0  0
    4.3454  -21.9506   23.8572 C   0  0  0  0  0  0  0  0  0  0  0  0
    3.5496  -23.1473   24.0239 N   0  0  0  0  0  0  0  0  0  0  0  0
    7.9537  -19.4552   20.9479 C   0  0  0  0  0  0  0  0  0  0  0  0
    8.7477  -20.3134   20.4848 O   0  0  0  0  0  0  0  0  0  0  0  0
    9.6424  -16.5611   23.2211 O   0  0  0  0  0  0  0  0  0  0  0  0
   10.4481  -17.5297   22.6659 C   0  0  0  0  0  0  0  0  0  0  0  0
    9.7025  -18.8712   22.5759 C   0  0  2  0  0  0  0  0  0  0  0  0
    8.3862  -18.6953   22.0448 N   0  0  0  0  0  0  0  0  0  0  0  0
    9.7016  -19.4148   23.9513 C   0  0  0  0  0  0  0  0  0  0  0  0
   10.7888  -19.7007   24.4925 O   0  0  0  0  0  0  0  0  0  0  0  0
    8.5287  -19.6115   24.6451 O   0  0  0  0  0  0  0  0  0  0  0  0
  2  1  1  1
  2  6  1  0
  2  3  1  0
  3  4  1  0
  4  5  2  0
  4  8  1  0
  6  7  2  0
  9 10  1  0
  9  6  1  0
 10 11  1  6
 11 12  1  0
 12 13  1  0
 13 14  1  0
 15 14  1  0
 16 17  2  0
 16 10  1  0
 18 19  1  0
 20 19  1  1
 20 22  1  0
 20 21  1  0
 21 16  1  0
 22 24  1  0
 23 22  2  0
M  END
$$$$
