DKS.pdb
     RDKit          3D

 24 23  0  0  1  0  0  0  0  0999 V2000
    9.0764  -17.9848   17.2570 N   0  0  0  0  0  0  0  0  0  0  0  0
    9.0937  -19.1534   18.0782 C   0  0  1  0  0  0  0  0  0  0  0  0
   10.5071  -19.5671   18.3471 C   0  0  0  0  0  0  0  0  0  0  0  0
   11.2184  -19.7148   17.0542 C   0  0  0  0  0  0  0  0  0  0  0  0
   10.7692  -20.4133   16.1063 O   0  0  0  0  0  0  0  0  0  0  0  0
    8.3077  -18.9954   19.3265 C   0  0  0  0  0  0  0  0  0  0  0  0
    8.3295  -17.8904   19.9220 O   0  0  0  0  0  0  0  0  0  0  0  0
   12.4350  -19.0661   16.8513 O   0  0  0  0  0  0  0  0  0  0  0  0
    7.5249  -20.0269   19.8947 N   0  0  0  0  0  0  0  0  0  0  0  0
    6.6904  -19.8691   21.0670 C   0  0  1  0  0  0  0  0  0  0  0  0
    5.5320  -20.8547   20.9504 C   0  0  0  0  0  0  0  0  0  0  0  0
    4.6666  -20.7594   22.1888 C   0  0  0  0  0  0  0  0  0  0  0  0
    3.5327  -21.7686   22.0253 C   0  0  0  0  0  0  0  0  0  0  0  0
    2.5979  -21.7218   23.2194 C   0  0  0  0  0  0  0  0  0  0  0  0
    1.5755  -22.7216   22.9998 N   0  0  0  0  0  0  0  0  0  0  0  0
    7.4897  -20.1227   22.2854 C   0  0  0  0  0  0  0  0  0  0  0  0
    8.2062  -21.1555   22.3234 O   0  0  0  0  0  0  0  0  0  0  0  0
    8.1896  -17.2913   25.1565 O   0  0  0  0  0  0  0  0  0  0  0  0
    9.0360  -18.3750   25.0874 C   0  0  0  0  0  0  0  0  0  0  0  0
    8.2943  -19.6110   24.5527 C   0  0  2  0  0  0  0  0  0  0  0  0
    7.5018  -19.2822   23.4084 N   0  0  0  0  0  0  0  0  0  0  0  0
    7.4886  -20.1093   25.6884 C   0  0  0  0  0  0  0  0  0  0  0  0
    8.0667  -20.4521   26.7396 O   0  0  0  0  0  0  0  0  0  0  0  0
    6.1172  -20.2026   25.6097 O   0  0  0  0  0  0  0  0  0  0  0  0
  2  1  1  1
  2  6  1  0
  2  3  1  0
  3  4  1  0
  4  5  2  0
  4  8  1  0
  6  7  2  0
  9 10  1  0
  9  6  1  0
 10 11  1  6
 11 12  1  0
 12 13  1  0
 13 14  1  0
 15 14  1  0
 16 17  2  0
 16 10  1  0
 18 19  1  0
 20 19  1  1
 20 22  1  0
 20 21  1  0
 21 16  1  0
 22 24  1  0
 23 22  2  0
M  END
$$$$
