LMQ.pdb
     RDKit          3D

 26 25  0  0  1  0  0  0  0  0999 V2000
   27.4093  -17.3865  -16.8175 C   0  0  0  0  0  0  0  0  0  0  0  0
   27.9720  -18.6753  -16.2898 C   0  0  1  0  0  0  0  0  0  0  0  0
   29.2315  -18.3856  -15.5343 C   0  0  0  0  0  0  0  0  0  0  0  0
   26.9605  -19.3382  -15.3795 C   0  0  0  0  0  0  0  0  0  0  0  0
   27.4865  -20.5927  -14.7604 C   0  0  2  0  0  0  0  0  0  0  0  0
   27.6747  -21.6012  -15.7591 N   0  0  0  0  0  0  0  0  0  0  0  0
   26.4927  -21.0386  -13.7352 C   0  0  0  0  0  0  0  0  0  0  0  0
   25.5514  -21.8072  -14.0530 O   0  0  0  0  0  0  0  0  0  0  0  0
   26.6093  -18.9049   -7.4139 C   0  0  0  0  0  0  0  0  0  0  0  0
   26.2035  -20.6660   -7.4065 S   0  0  0  0  0  0  0  0  0  0  0  0
   25.2302  -20.9987   -8.9296 C   0  0  0  0  0  0  0  0  0  0  0  0
   26.1558  -20.7451  -10.0768 C   0  0  0  0  0  0  0  0  0  0  0  0
   25.5798  -20.9954  -11.4247 C   0  0  2  0  0  0  0  0  0  0  0  0
   26.6020  -20.6021  -12.4055 N   0  0  0  0  0  0  0  0  0  0  0  0
   24.3876  -20.1737  -11.7529 C   0  0  0  0  0  0  0  0  0  0  0  0
   24.5951  -19.1593  -12.4613 O   0  0  0  0  0  0  0  0  0  0  0  0
   21.5793  -22.4133  -15.5721 N   0  0  0  0  0  0  0  0  0  0  0  0
   20.7109  -21.2635  -15.5080 C   0  0  0  0  0  0  0  0  0  0  0  0
   19.7625  -21.2421  -16.2903 O   0  0  0  0  0  0  0  0  0  0  0  0
   21.0321  -20.2254  -14.5223 C   0  0  0  0  0  0  0  0  0  0  0  0
   22.1349  -20.4634  -13.5779 C   0  0  0  0  0  0  0  0  0  0  0  0
   21.9300  -20.1395  -12.1394 C   0  0  2  0  0  0  0  0  0  0  0  0
   23.0890  -20.4518  -11.3340 N   0  0  0  0  0  0  0  0  0  0  0  0
   20.6456  -20.5114  -11.5458 C   0  0  0  0  0  0  0  0  0  0  0  0
   19.4587  -19.8609  -11.9119 O   0  0  0  0  0  0  0  0  0  0  0  0
   20.4952  -21.4242  -10.6702 O   0  0  0  0  0  0  0  0  0  0  0  0
  2  3  1  1
  2  1  1  0
  4  5  1  0
  4  2  1  0
  5  7  1  0
  5  6  1  6
  7  8  2  0
  9 10  1  0
 10 11  1  0
 12 11  1  0
 13 12  1  1
 13 14  1  0
 14  7  1  0
 15 13  1  0
 16 15  2  0
 17 18  1  0
 18 20  1  0
 18 19  2  0
 20 21  1  0
 22 21  1  6
 22 23  1  0
 22 24  1  0
 23 15  1  0
 24 25  1  0
 26 24  2  0
M  END
$$$$
