LMQ.pdb
     RDKit          3D

 26 25  0  0  1  0  0  0  0  0999 V2000
   20.9608  -10.8310  -24.1392 C   0  0  0  0  0  0  0  0  0  0  0  0
   21.9210   -9.8861  -23.4750 C   0  0  1  0  0  0  0  0  0  0  0  0
   21.7967   -8.5363  -24.1103 C   0  0  0  0  0  0  0  0  0  0  0  0
   21.6069   -9.7960  -21.9970 C   0  0  0  0  0  0  0  0  0  0  0  0
   22.4530   -8.7835  -21.2949 C   0  0  2  0  0  0  0  0  0  0  0  0
   23.8112   -9.2310  -21.2236 N   0  0  0  0  0  0  0  0  0  0  0  0
   21.8830   -8.5939  -19.9250 C   0  0  0  0  0  0  0  0  0  0  0  0
   20.6681   -8.3130  -19.7742 O   0  0  0  0  0  0  0  0  0  0  0  0
   23.0695  -11.0089  -12.6414 C   0  0  0  0  0  0  0  0  0  0  0  0
   23.3029  -11.1173  -14.4303 S   0  0  0  0  0  0  0  0  0  0  0  0
   22.4645   -9.6588  -15.1702 C   0  0  0  0  0  0  0  0  0  0  0  0
   22.7177   -9.7374  -16.6422 C   0  0  0  0  0  0  0  0  0  0  0  0
   22.1045   -8.6506  -17.4509 C   0  0  2  0  0  0  0  0  0  0  0  0
   22.7013   -8.7280  -18.7923 N   0  0  0  0  0  0  0  0  0  0  0  0
   22.4000   -7.2770  -16.9710 C   0  0  0  0  0  0  0  0  0  0  0  0
   23.5671   -6.8624  -17.1707 O   0  0  0  0  0  0  0  0  0  0  0  0
   19.5284   -2.8206  -18.5615 N   0  0  0  0  0  0  0  0  0  0  0  0
   18.8653   -3.2437  -17.3525 C   0  0  0  0  0  0  0  0  0  0  0  0
   17.6511   -3.0595  -17.2938 O   0  0  0  0  0  0  0  0  0  0  0  0
   19.6912   -3.8527  -16.3038 C   0  0  0  0  0  0  0  0  0  0  0  0
   21.1283   -4.0425  -16.5560 C   0  0  0  0  0  0  0  0  0  0  0  0
   21.8446   -5.1325  -15.8383 C   0  0  2  0  0  0  0  0  0  0  0  0
   21.4866   -6.4437  -16.3303 N   0  0  0  0  0  0  0  0  0  0  0  0
   21.9436   -5.0235  -14.3828 C   0  0  0  0  0  0  0  0  0  0  0  0
   22.4877   -3.8840  -13.7734 O   0  0  0  0  0  0  0  0  0  0  0  0
   21.5623   -5.9238  -13.5664 O   0  0  0  0  0  0  0  0  0  0  0  0
  2  3  1  6
  2  1  1  0
  4  5  1  0
  4  2  1  0
  5  7  1  0
  5  6  1  1
  7  8  2  0
  9 10  1  0
 10 11  1  0
 12 11  1  0
 13 12  1  1
 13 14  1  0
 14  7  1  0
 15 13  1  0
 16 15  2  0
 17 18  1  0
 18 20  1  0
 18 19  2  0
 20 21  1  0
 22 21  1  1
 22 23  1  0
 22 24  1  0
 23 15  1  0
 24 25  1  0
 26 24  2  0
M  END
$$$$
