LMQ.pdb
     RDKit          3D

 26 25  0  0  1  0  0  0  0  0999 V2000
   27.2801  -15.3122  -14.6692 C   0  0  0  0  0  0  0  0  0  0  0  0
   26.6197  -16.4723  -15.3578 C   0  0  1  0  0  0  0  0  0  0  0  0
   26.8789  -16.3790  -16.8293 C   0  0  0  0  0  0  0  0  0  0  0  0
   27.1748  -17.7711  -14.8136 C   0  0  0  0  0  0  0  0  0  0  0  0
   26.5650  -18.9696  -15.4659 C   0  0  2  0  0  0  0  0  0  0  0  0
   25.2880  -18.6392  -16.0227 N   0  0  0  0  0  0  0  0  0  0  0  0
   26.4306  -20.0306  -14.4201 C   0  0  0  0  0  0  0  0  0  0  0  0
   27.4415  -20.4464  -13.8014 O   0  0  0  0  0  0  0  0  0  0  0  0
   24.9680  -20.4271   -8.8174 C   0  0  0  0  0  0  0  0  0  0  0  0
   26.5812  -20.1000   -9.5638 S   0  0  0  0  0  0  0  0  0  0  0  0
   26.6241  -21.0009  -11.1651 C   0  0  0  0  0  0  0  0  0  0  0  0
   25.2608  -20.8510  -11.7619 C   0  0  0  0  0  0  0  0  0  0  0  0
   25.0471  -21.5703  -13.0457 C   0  0  2  0  0  0  0  0  0  0  0  0
   25.1714  -20.5734  -14.1192 N   0  0  0  0  0  0  0  0  0  0  0  0
   23.6929  -22.1557  -13.2116 C   0  0  0  0  0  0  0  0  0  0  0  0
   23.3061  -22.9194  -12.2945 O   0  0  0  0  0  0  0  0  0  0  0  0
   20.4906  -22.6138  -10.2366 N   0  0  0  0  0  0  0  0  0  0  0  0
   19.3642  -22.2057  -11.0398 C   0  0  0  0  0  0  0  0  0  0  0  0
   18.2463  -22.4425  -10.5859 O   0  0  0  0  0  0  0  0  0  0  0  0
   19.6474  -21.5484  -12.3205 C   0  0  0  0  0  0  0  0  0  0  0  0
   21.0491  -21.3836  -12.7365 C   0  0  0  0  0  0  0  0  0  0  0  0
   21.4255  -21.7175  -14.1376 C   0  0  2  0  0  0  0  0  0  0  0  0
   22.8488  -21.9160  -14.2930 N   0  0  0  0  0  0  0  0  0  0  0  0
   20.7884  -20.9450  -15.2042 C   0  0  0  0  0  0  0  0  0  0  0  0
   19.4502  -21.1631  -15.5614 O   0  0  0  0  0  0  0  0  0  0  0  0
   21.3722  -20.0397  -15.8840 O   0  0  0  0  0  0  0  0  0  0  0  0
  2  3  1  6
  2  1  1  0
  4  5  1  0
  4  2  1  0
  5  7  1  0
  5  6  1  1
  7  8  2  0
  9 10  1  0
 10 11  1  0
 12 11  1  0
 13 12  1  1
 13 14  1  0
 14  7  1  0
 15 13  1  0
 16 15  2  0
 17 18  1  0
 18 20  1  0
 18 19  2  0
 20 21  1  0
 22 21  1  1
 22 23  1  0
 22 24  1  0
 23 15  1  0
 24 25  1  0
 26 24  2  0
M  END
$$$$
