LMQ.pdb
     RDKit          3D

 26 25  0  0  1  0  0  0  0  0999 V2000
   24.8868  -18.3598  -17.9552 C   0  0  0  0  0  0  0  0  0  0  0  0
   23.4878  -18.3555  -17.4086 C   0  0  1  0  0  0  0  0  0  0  0  0
   22.5503  -18.8588  -18.4615 C   0  0  0  0  0  0  0  0  0  0  0  0
   23.4169  -19.2411  -16.1830 C   0  0  0  0  0  0  0  0  0  0  0  0
   22.0102  -19.5214  -15.7627 C   0  0  2  0  0  0  0  0  0  0  0  0
   21.4211  -18.3535  -15.1806 N   0  0  0  0  0  0  0  0  0  0  0  0
   22.0517  -20.6444  -14.7755 C   0  0  0  0  0  0  0  0  0  0  0  0
   22.6178  -21.7272  -15.0663 O   0  0  0  0  0  0  0  0  0  0  0  0
   22.9537  -19.7025   -8.9154 C   0  0  0  0  0  0  0  0  0  0  0  0
   24.2986  -20.6179   -9.7023 S   0  0  0  0  0  0  0  0  0  0  0  0
   23.7234  -21.0740  -11.3872 C   0  0  0  0  0  0  0  0  0  0  0  0
   22.2288  -21.0533  -11.3348 C   0  0  0  0  0  0  0  0  0  0  0  0
   21.5438  -21.5969  -12.5376 C   0  0  2  0  0  0  0  0  0  0  0  0
   21.4573  -20.4994  -13.5120 N   0  0  0  0  0  0  0  0  0  0  0  0
   20.1416  -22.0293  -12.3114 C   0  0  0  0  0  0  0  0  0  0  0  0
   19.2742  -21.1232  -12.3374 O   0  0  0  0  0  0  0  0  0  0  0  0
   18.7164  -24.3886   -7.2313 N   0  0  0  0  0  0  0  0  0  0  0  0
   17.4376  -24.6016   -7.8635 C   0  0  0  0  0  0  0  0  0  0  0  0
   16.5161  -24.9701   -7.1377 O   0  0  0  0  0  0  0  0  0  0  0  0
   17.3474  -24.3626   -9.3083 C   0  0  0  0  0  0  0  0  0  0  0  0
   18.5583  -23.9475  -10.0337 C   0  0  0  0  0  0  0  0  0  0  0  0
   18.4607  -23.6711  -11.4933 C   0  0  2  0  0  0  0  0  0  0  0  0
   19.7410  -23.3424  -12.0783 N   0  0  0  0  0  0  0  0  0  0  0  0
   17.3431  -22.8418  -11.9444 C   0  0  0  0  0  0  0  0  0  0  0  0
   16.2463  -23.4008  -12.6156 O   0  0  0  0  0  0  0  0  0  0  0  0
   17.2699  -21.5811  -11.7783 O   0  0  0  0  0  0  0  0  0  0  0  0
  2  3  1  6
  2  1  1  0
  4  5  1  0
  4  2  1  0
  5  7  1  0
  5  6  1  1
  7  8  2  0
  9 10  1  0
 10 11  1  0
 12 11  1  0
 13 12  1  1
 13 14  1  0
 14  7  1  0
 15 13  1  0
 16 15  2  0
 17 18  1  0
 18 20  1  0
 18 19  2  0
 20 21  1  0
 22 21  1  1
 22 23  1  0
 22 24  1  0
 23 15  1  0
 24 25  1  0
 26 24  2  0
M  END
$$$$
