LMQ.pdb
     RDKit          3D

 26 25  0  0  1  0  0  0  0  0999 V2000
   19.0825  -16.6093  -16.0989 C   0  0  0  0  0  0  0  0  0  0  0  0
   19.6416  -15.5874  -17.0471 C   0  0  1  0  0  0  0  0  0  0  0  0
   18.5236  -15.0100  -17.8582 C   0  0  0  0  0  0  0  0  0  0  0  0
   20.3359  -14.4928  -16.2653 C   0  0  0  0  0  0  0  0  0  0  0  0
   20.8612  -13.4071  -17.1479 C   0  0  2  0  0  0  0  0  0  0  0  0
   21.7426  -13.9503  -18.1369 N   0  0  0  0  0  0  0  0  0  0  0  0
   21.5802  -12.4275  -16.2756 C   0  0  0  0  0  0  0  0  0  0  0  0
   21.0929  -12.0815  -15.1708 O   0  0  0  0  0  0  0  0  0  0  0  0
   27.8823  -10.8240  -15.6808 C   0  0  0  0  0  0  0  0  0  0  0  0
   27.1959  -12.4574  -15.3239 S   0  0  0  0  0  0  0  0  0  0  0  0
   25.4106  -12.2208  -14.9574 C   0  0  0  0  0  0  0  0  0  0  0  0
   24.9309  -11.1618  -15.8985 C   0  0  0  0  0  0  0  0  0  0  0  0
   23.4726  -10.8765  -15.8432 C   0  0  2  0  0  0  0  0  0  0  0  0
   22.8085  -11.8839  -16.6834 N   0  0  0  0  0  0  0  0  0  0  0  0
   23.0739   -9.5663  -16.4163 C   0  0  0  0  0  0  0  0  0  0  0  0
   23.0556   -9.4949  -17.6688 O   0  0  0  0  0  0  0  0  0  0  0  0
   21.2777   -7.1851  -19.9733 N   0  0  0  0  0  0  0  0  0  0  0  0
   20.3944   -6.3012  -19.2530 C   0  0  0  0  0  0  0  0  0  0  0  0
   19.8311   -5.4268  -19.9088 O   0  0  0  0  0  0  0  0  0  0  0  0
   20.2457   -6.5195  -17.8098 C   0  0  0  0  0  0  0  0  0  0  0  0
   21.0022   -7.6118  -17.1779 C   0  0  0  0  0  0  0  0  0  0  0  0
   22.1272   -7.2704  -16.2646 C   0  0  2  0  0  0  0  0  0  0  0  0
   22.7288   -8.4425  -15.6699 N   0  0  0  0  0  0  0  0  0  0  0  0
   21.9298   -6.1450  -15.3508 C   0  0  0  0  0  0  0  0  0  0  0  0
   22.0389   -4.8194  -15.7943 O   0  0  0  0  0  0  0  0  0  0  0  0
   21.6553   -6.2634  -14.1126 O   0  0  0  0  0  0  0  0  0  0  0  0
  2  3  1  1
  2  1  1  0
  4  5  1  0
  4  2  1  0
  5  7  1  0
  5  6  1  6
  7  8  2  0
  9 10  1  0
 10 11  1  0
 12 11  1  0
 13 12  1  6
 13 14  1  0
 14  7  1  0
 15 13  1  0
 16 15  2  0
 17 18  1  0
 18 20  1  0
 18 19  2  0
 20 21  1  0
 22 21  1  1
 22 23  1  0
 22 24  1  0
 23 15  1  0
 24 25  1  0
 26 24  2  0
M  END
$$$$
