LMQ.pdb
     RDKit          3D

 26 25  0  0  1  0  0  0  0  0999 V2000
   12.0653  -12.6652    4.1125 C   0  0  0  0  0  0  0  0  0  0  0  0
   12.8311  -13.9326    4.3644 C   0  0  1  0  0  0  0  0  0  0  0  0
   11.9264  -15.1035    4.1375 C   0  0  0  0  0  0  0  0  0  0  0  0
   14.0191  -14.0045    3.4291 C   0  0  0  0  0  0  0  0  0  0  0  0
   14.9145  -12.8142    3.5520 C   0  0  2  0  0  0  0  0  0  0  0  0
   15.0376  -12.1497    2.2898 N   0  0  0  0  0  0  0  0  0  0  0  0
   16.2461  -13.3011    4.0286 C   0  0  0  0  0  0  0  0  0  0  0  0
   17.0431  -13.8567    3.2325 O   0  0  0  0  0  0  0  0  0  0  0  0
   22.1527  -11.2081    8.3675 C   0  0  0  0  0  0  0  0  0  0  0  0
   20.5270  -10.9503    7.6213 S   0  0  0  0  0  0  0  0  0  0  0  0
   19.9334  -12.5923    7.0478 C   0  0  0  0  0  0  0  0  0  0  0  0
   18.6213  -12.3464    6.3730 C   0  0  0  0  0  0  0  0  0  0  0  0
   17.9618  -13.5535    5.8080 C   0  0  2  0  0  0  0  0  0  0  0  0
   16.6193  -13.1419    5.3726 N   0  0  0  0  0  0  0  0  0  0  0  0
   17.7367  -14.6513    6.7818 C   0  0  0  0  0  0  0  0  0  0  0  0
   16.8749  -14.4347    7.6675 O   0  0  0  0  0  0  0  0  0  0  0  0
   16.1682  -20.3792    6.2643 N   0  0  0  0  0  0  0  0  0  0  0  0
   16.4733  -19.3278    5.3252 C   0  0  0  0  0  0  0  0  0  0  0  0
   16.1106  -19.5013    4.1633 O   0  0  0  0  0  0  0  0  0  0  0  0
   17.1860  -18.1504    5.8337 C   0  0  0  0  0  0  0  0  0  0  0  0
   17.5469  -18.1029    7.2593 C   0  0  0  0  0  0  0  0  0  0  0  0
   18.2010  -16.8767    7.7931 C   0  0  2  0  0  0  0  0  0  0  0  0
   18.4051  -15.8730    6.7731 N   0  0  0  0  0  0  0  0  0  0  0  0
   19.3245  -17.0630    8.7114 C   0  0  0  0  0  0  0  0  0  0  0  0
   19.2072  -17.8718    9.8506 O   0  0  0  0  0  0  0  0  0  0  0  0
   20.4690  -16.5228    8.5669 O   0  0  0  0  0  0  0  0  0  0  0  0
  2  3  1  6
  2  1  1  0
  4  5  1  0
  4  2  1  0
  5  7  1  0
  5  6  1  6
  7  8  2  0
  9 10  1  0
 10 11  1  0
 12 11  1  0
 13 12  1  1
 13 14  1  0
 14  7  1  0
 15 13  1  0
 16 15  2  0
 17 18  1  0
 18 20  1  0
 18 19  2  0
 20 21  1  0
 22 21  1  6
 22 23  1  0
 22 24  1  0
 23 15  1  0
 24 25  1  0
 26 24  2  0
M  END
$$$$
