LMQ.pdb
     RDKit          3D

 26 25  0  0  1  0  0  0  0  0999 V2000
   30.5101  -14.0239  -17.6575 C   0  0  0  0  0  0  0  0  0  0  0  0
   31.4708  -13.0777  -18.3191 C   0  0  1  0  0  0  0  0  0  0  0  0
   30.8929  -12.6284  -19.6250 C   0  0  0  0  0  0  0  0  0  0  0  0
   31.7119  -11.8845  -17.4194 C   0  0  0  0  0  0  0  0  0  0  0  0
   32.5870  -10.8556  -18.0591 C   0  0  2  0  0  0  0  0  0  0  0  0
   33.8661  -11.4154  -18.3761 N   0  0  0  0  0  0  0  0  0  0  0  0
   32.7274   -9.7220  -17.0933 C   0  0  0  0  0  0  0  0  0  0  0  0
   31.7121   -9.2140  -16.5559 O   0  0  0  0  0  0  0  0  0  0  0  0
   37.5278   -7.5256  -12.7732 C   0  0  0  0  0  0  0  0  0  0  0  0
   37.4761   -9.0827  -13.6892 S   0  0  0  0  0  0  0  0  0  0  0  0
   35.7498   -9.3000  -14.2812 C   0  0  0  0  0  0  0  0  0  0  0  0
   35.5010   -8.1887  -15.2508 C   0  0  0  0  0  0  0  0  0  0  0  0
   34.1206   -8.1222  -15.7998 C   0  0  2  0  0  0  0  0  0  0  0  0
   33.9972   -9.2135  -16.7772 N   0  0  0  0  0  0  0  0  0  0  0  0
   33.8125   -6.8831  -16.5574 C   0  0  0  0  0  0  0  0  0  0  0  0
   34.1573   -6.8742  -17.7636 O   0  0  0  0  0  0  0  0  0  0  0  0
   30.4405   -5.4723  -20.4025 N   0  0  0  0  0  0  0  0  0  0  0  0
   29.8139   -5.7554  -19.1346 C   0  0  0  0  0  0  0  0  0  0  0  0
   28.6599   -6.1784  -19.1700 O   0  0  0  0  0  0  0  0  0  0  0  0
   30.6016   -5.5152  -17.9204 C   0  0  0  0  0  0  0  0  0  0  0  0
   32.0073   -5.1034  -18.0589 C   0  0  0  0  0  0  0  0  0  0  0  0
   32.7459   -4.6540  -16.8470 C   0  0  2  0  0  0  0  0  0  0  0  0
   33.1820   -5.7609  -16.0260 N   0  0  0  0  0  0  0  0  0  0  0  0
   32.1944   -3.5169  -16.1101 C   0  0  0  0  0  0  0  0  0  0  0  0
   31.8056   -2.3419  -16.7691 O   0  0  0  0  0  0  0  0  0  0  0  0
   32.0277   -3.4903  -14.8476 O   0  0  0  0  0  0  0  0  0  0  0  0
  2  3  1  6
  2  1  1  0
  4  5  1  0
  4  2  1  0
  5  7  1  0
  5  6  1  1
  7  8  2  0
  9 10  1  0
 10 11  1  0
 12 11  1  0
 13 12  1  6
 13 14  1  0
 14  7  1  0
 15 13  1  0
 16 15  2  0
 17 18  1  0
 18 20  1  0
 18 19  2  0
 20 21  1  0
 22 21  1  6
 22 23  1  0
 22 24  1  0
 23 15  1  0
 24 25  1  0
 26 24  2  0
M  END
$$$$
