LMQ.pdb
     RDKit          3D

 26 25  0  0  1  0  0  0  0  0999 V2000
   17.2525  -21.8656   -8.0370 C   0  0  0  0  0  0  0  0  0  0  0  0
   18.5718  -22.5797   -7.9632 C   0  0  1  0  0  0  0  0  0  0  0  0
   18.5319  -23.7744   -8.8643 C   0  0  0  0  0  0  0  0  0  0  0  0
   19.6824  -21.6438   -8.3896 C   0  0  0  0  0  0  0  0  0  0  0  0
   21.0093  -22.3281   -8.4599 C   0  0  2  0  0  0  0  0  0  0  0  0
   21.3473  -22.8934   -7.1886 N   0  0  0  0  0  0  0  0  0  0  0  0
   22.0204  -21.3062   -8.8732 C   0  0  0  0  0  0  0  0  0  0  0  0
   21.7094  -20.3908   -9.6751 O   0  0  0  0  0  0  0  0  0  0  0  0
   27.1374  -18.9311   -5.5333 C   0  0  0  0  0  0  0  0  0  0  0  0
   27.8767  -19.8031   -6.9331 S   0  0  0  0  0  0  0  0  0  0  0  0
   26.6890  -19.6797   -8.3301 C   0  0  0  0  0  0  0  0  0  0  0  0
   25.4919  -20.4816   -7.9288 C   0  0  0  0  0  0  0  0  0  0  0  0
   24.3401  -20.4160   -8.8670 C   0  0  2  0  0  0  0  0  0  0  0  0
   23.3292  -21.3599   -8.3683 N   0  0  0  0  0  0  0  0  0  0  0  0
   24.6405  -20.8612  -10.2511 C   0  0  0  0  0  0  0  0  0  0  0  0
   24.6556  -22.1014  -10.4404 O   0  0  0  0  0  0  0  0  0  0  0  0
   20.6813  -22.2068  -13.0575 N   0  0  0  0  0  0  0  0  0  0  0  0
   21.4393  -22.0108  -14.2689 C   0  0  0  0  0  0  0  0  0  0  0  0
   20.9194  -22.3944  -15.3150 O   0  0  0  0  0  0  0  0  0  0  0  0
   22.7565  -21.3758  -14.1492 C   0  0  0  0  0  0  0  0  0  0  0  0
   23.2354  -20.9864  -12.8136 C   0  0  0  0  0  0  0  0  0  0  0  0
   24.5813  -20.3626  -12.6880 C   0  0  2  0  0  0  0  0  0  0  0  0
   24.8997  -20.0105  -11.3227 N   0  0  0  0  0  0  0  0  0  0  0  0
   24.9507  -19.3604  -13.6877 C   0  0  0  0  0  0  0  0  0  0  0  0
   25.4596  -19.7340  -14.9396 O   0  0  0  0  0  0  0  0  0  0  0  0
   24.8513  -18.1022  -13.5157 O   0  0  0  0  0  0  0  0  0  0  0  0
  2  3  1  6
  2  1  1  0
  4  5  1  0
  4  2  1  0
  5  7  1  0
  5  6  1  1
  7  8  2  0
  9 10  1  0
 10 11  1  0
 12 11  1  0
 13 12  1  1
 13 14  1  0
 14  7  1  0
 15 13  1  0
 16 15  2  0
 17 18  1  0
 18 20  1  0
 18 19  2  0
 20 21  1  0
 22 21  1  1
 22 23  1  0
 22 24  1  0
 23 15  1  0
 24 25  1  0
 26 24  2  0
M  END
$$$$
