LMQ.pdb
     RDKit          3D

 26 25  0  0  1  0  0  0  0  0999 V2000
   27.0143  -17.5473  -17.1323 C   0  0  0  0  0  0  0  0  0  0  0  0
   27.8411  -18.4248  -16.2365 C   0  0  1  0  0  0  0  0  0  0  0  0
   28.5674  -17.5673  -15.2475 C   0  0  0  0  0  0  0  0  0  0  0  0
   26.9427  -19.4053  -15.5134 C   0  0  0  0  0  0  0  0  0  0  0  0
   27.7030  -20.3010  -14.5895 C   0  0  2  0  0  0  0  0  0  0  0  0
   28.3989  -21.3085  -15.3316 N   0  0  0  0  0  0  0  0  0  0  0  0
   26.7166  -20.9188  -13.6499 C   0  0  0  0  0  0  0  0  0  0  0  0
   26.1588  -22.0068  -13.9374 O   0  0  0  0  0  0  0  0  0  0  0  0
   26.5795  -19.8565   -7.0241 C   0  0  0  0  0  0  0  0  0  0  0  0
   25.7194  -21.3064   -7.6756 S   0  0  0  0  0  0  0  0  0  0  0  0
   24.7197  -20.7380   -9.1092 C   0  0  0  0  0  0  0  0  0  0  0  0
   25.6999  -20.3427  -10.1676 C   0  0  0  0  0  0  0  0  0  0  0  0
   25.4449  -20.9167  -11.5154 C   0  0  2  0  0  0  0  0  0  0  0  0
   26.4038  -20.2879  -12.4355 N   0  0  0  0  0  0  0  0  0  0  0  0
   24.1056  -20.6097  -12.0779 C   0  0  0  0  0  0  0  0  0  0  0  0
   23.9315  -19.4329  -12.4765 O   0  0  0  0  0  0  0  0  0  0  0  0
   20.4857  -23.7154  -15.9359 N   0  0  0  0  0  0  0  0  0  0  0  0
   21.8892  -23.3940  -15.8498 C   0  0  0  0  0  0  0  0  0  0  0  0
   22.6138  -23.8368  -16.7390 O   0  0  0  0  0  0  0  0  0  0  0  0
   22.3283  -22.5727  -14.7161 C   0  0  0  0  0  0  0  0  0  0  0  0
   21.3110  -22.0077  -13.8157 C   0  0  0  0  0  0  0  0  0  0  0  0
   21.7533  -21.1503  -12.6819 C   0  0  2  0  0  0  0  0  0  0  0  0
   23.0595  -21.5224  -12.1871 N   0  0  0  0  0  0  0  0  0  0  0  0
   20.7642  -20.8445  -11.6483 C   0  0  0  0  0  0  0  0  0  0  0  0
   19.5117  -20.3062  -11.9758 O   0  0  0  0  0  0  0  0  0  0  0  0
   20.9465  -21.0286  -10.4012 O   0  0  0  0  0  0  0  0  0  0  0  0
  2  3  1  1
  2  1  1  0
  4  5  1  0
  4  2  1  0
  5  7  1  0
  5  6  1  6
  7  8  2  0
  9 10  1  0
 10 11  1  0
 12 11  1  0
 13 12  1  1
 13 14  1  0
 14  7  1  0
 15 13  1  0
 16 15  2  0
 17 18  1  0
 18 20  1  0
 18 19  2  0
 20 21  1  0
 22 21  1  1
 22 23  1  0
 22 24  1  0
 23 15  1  0
 24 25  1  0
 26 24  2  0
M  END
$$$$
