LMQ.pdb
     RDKit          3D

 26 25  0  0  1  0  0  0  0  0999 V2000
   21.1556  -18.0080  -18.5473 C   0  0  0  0  0  0  0  0  0  0  0  0
   22.1566  -17.6621  -17.4822 C   0  0  1  0  0  0  0  0  0  0  0  0
   21.6923  -16.4396  -16.7537 C   0  0  0  0  0  0  0  0  0  0  0  0
   22.2954  -18.8206  -16.5179 C   0  0  0  0  0  0  0  0  0  0  0  0
   23.7033  -19.0106  -16.0536 C   0  0  2  0  0  0  0  0  0  0  0  0
   24.5436  -19.3883  -17.1496 N   0  0  0  0  0  0  0  0  0  0  0  0
   23.6900  -20.0748  -15.0025 C   0  0  0  0  0  0  0  0  0  0  0  0
   24.0281  -21.2515  -15.2835 O   0  0  0  0  0  0  0  0  0  0  0  0
   27.3193  -20.8543  -10.9851 C   0  0  0  0  0  0  0  0  0  0  0  0
   25.9536  -21.9893  -10.6491 S   0  0  0  0  0  0  0  0  0  0  0  0
   24.4675  -20.9586  -10.3221 C   0  0  0  0  0  0  0  0  0  0  0  0
   24.2620  -20.1265  -11.5478 C   0  0  0  0  0  0  0  0  0  0  0  0
   23.4693  -20.7718  -12.6278 C   0  0  2  0  0  0  0  0  0  0  0  0
   23.2988  -19.7690  -13.6894 N   0  0  0  0  0  0  0  0  0  0  0  0
   22.0919  -21.1645  -12.2372 C   0  0  0  0  0  0  0  0  0  0  0  0
   21.3235  -20.2283  -11.9098 O   0  0  0  0  0  0  0  0  0  0  0  0
   19.4754  -23.6094   -8.0460 N   0  0  0  0  0  0  0  0  0  0  0  0
   18.3033  -23.1726   -8.7641 C   0  0  0  0  0  0  0  0  0  0  0  0
   17.2139  -23.4506   -8.2664 O   0  0  0  0  0  0  0  0  0  0  0  0
   18.5105  -22.4399  -10.0182 C   0  0  0  0  0  0  0  0  0  0  0  0
   19.8849  -22.2486  -10.5071 C   0  0  0  0  0  0  0  0  0  0  0  0
   20.2538  -22.7942  -11.8423 C   0  0  2  0  0  0  0  0  0  0  0  0
   21.6134  -22.4720  -12.2123 N   0  0  0  0  0  0  0  0  0  0  0  0
   19.2707  -22.6557  -12.9169 C   0  0  0  0  0  0  0  0  0  0  0  0
   17.9226  -22.9851  -12.7172 O   0  0  0  0  0  0  0  0  0  0  0  0
   19.5417  -22.2424  -14.0909 O   0  0  0  0  0  0  0  0  0  0  0  0
  2  3  1  1
  2  1  1  0
  4  5  1  0
  4  2  1  0
  5  7  1  0
  5  6  1  6
  7  8  2  0
  9 10  1  0
 10 11  1  0
 12 11  1  0
 13 12  1  1
 13 14  1  0
 14  7  1  0
 15 13  1  0
 16 15  2  0
 17 18  1  0
 18 20  1  0
 18 19  2  0
 20 21  1  0
 22 21  1  1
 22 23  1  0
 22 24  1  0
 23 15  1  0
 24 25  1  0
 26 24  2  0
M  END
$$$$
