LMQ.pdb
     RDKit          3D

 26 25  0  0  1  0  0  0  0  0999 V2000
   16.4984  -32.3706   -5.1854 C   0  0  0  0  0  0  0  0  0  0  0  0
   17.6486  -31.8931   -6.0251 C   0  0  1  0  0  0  0  0  0  0  0  0
   18.5446  -31.0372   -5.1851 C   0  0  0  0  0  0  0  0  0  0  0  0
   18.4173  -33.0824   -6.5599 C   0  0  0  0  0  0  0  0  0  0  0  0
   19.4719  -32.6850   -7.5415 C   0  0  2  0  0  0  0  0  0  0  0  0
   19.0466  -32.9776   -8.8770 N   0  0  0  0  0  0  0  0  0  0  0  0
   20.7133  -33.4466   -7.2001 C   0  0  0  0  0  0  0  0  0  0  0  0
   20.7628  -34.6907   -7.3656 O   0  0  0  0  0  0  0  0  0  0  0  0
   25.3884  -31.5416   -9.4454 C   0  0  0  0  0  0  0  0  0  0  0  0
   26.1440  -33.1462   -9.0978 S   0  0  0  0  0  0  0  0  0  0  0  0
   24.9980  -34.0479   -7.9792 C   0  0  0  0  0  0  0  0  0  0  0  0
   24.0960  -33.0121   -7.3871 C   0  0  0  0  0  0  0  0  0  0  0  0
   23.0760  -33.5274   -6.4356 C   0  0  2  0  0  0  0  0  0  0  0  0
   21.8373  -32.7776   -6.6904 N   0  0  0  0  0  0  0  0  0  0  0  0
   23.3875  -33.2913   -5.0033 C   0  0  0  0  0  0  0  0  0  0  0  0
   22.6707  -32.4460   -4.4152 O   0  0  0  0  0  0  0  0  0  0  0  0
   21.5907  -32.6856   -0.7458 N   0  0  0  0  0  0  0  0  0  0  0  0
   21.9280  -33.9842   -0.2164 C   0  0  0  0  0  0  0  0  0  0  0  0
   21.6674  -34.1834    0.9686 O   0  0  0  0  0  0  0  0  0  0  0  0
   22.5494  -34.9487   -1.1309 C   0  0  0  0  0  0  0  0  0  0  0  0
   22.8451  -34.5274   -2.5093 C   0  0  0  0  0  0  0  0  0  0  0  0
   24.2621  -34.2861   -2.8971 C   0  0  2  0  0  0  0  0  0  0  0  0
   24.3985  -33.9325   -4.2920 N   0  0  0  0  0  0  0  0  0  0  0  0
   25.2629  -35.2288   -2.3970 C   0  0  0  0  0  0  0  0  0  0  0  0
   26.0211  -36.0184   -3.2731 O   0  0  0  0  0  0  0  0  0  0  0  0
   25.5235  -35.4144   -1.1641 O   0  0  0  0  0  0  0  0  0  0  0  0
  2  3  1  1
  2  1  1  0
  4  5  1  0
  4  2  1  0
  5  7  1  0
  5  6  1  6
  7  8  2  0
  9 10  1  0
 10 11  1  0
 12 11  1  0
 13 12  1  6
 13 14  1  0
 14  7  1  0
 15 13  1  0
 16 15  2  0
 17 18  1  0
 18 20  1  0
 18 19  2  0
 20 21  1  0
 22 21  1  6
 22 23  1  0
 22 24  1  0
 23 15  1  0
 24 25  1  0
 26 24  2  0
M  END
$$$$
