VEG.pdb
     RDKit          3D

 21 20  0  0  1  0  0  0  0  0999 V2000
    7.5418  -13.7490   21.9810 C   0  0  0  0  0  0  0  0  0  0  0  0
    8.3395  -13.4671   20.7043 C   0  0  2  0  0  0  0  0  0  0  0  0
    7.7363  -12.3266   19.9348 C   0  0  0  0  0  0  0  0  0  0  0  0
    8.3175  -14.7130   19.8597 C   0  0  2  0  0  0  0  0  0  0  0  0
    6.9399  -14.9592   19.4907 N   0  0  0  0  0  0  0  0  0  0  0  0
    8.9111  -15.8492   20.5991 C   0  0  0  0  0  0  0  0  0  0  0  0
    8.1295  -16.6681   21.1466 O   0  0  0  0  0  0  0  0  0  0  0  0
   10.2941  -16.0780   20.7328 N   0  0  0  0  0  0  0  0  0  0  0  0
   10.8490  -17.2235   21.4872 C   0  0  1  0  0  0  0  0  0  0  0  0
   12.0561  -17.7631   20.8033 C   0  0  0  0  0  0  0  0  0  0  0  0
   11.8096  -18.3650   19.4530 C   0  0  0  0  0  0  0  0  0  0  0  0
   13.0284  -18.8209   18.7725 C   0  0  0  0  0  0  0  0  0  0  0  0
   14.1947  -18.7030   19.1878 O   0  0  0  0  0  0  0  0  0  0  0  0
   11.0617  -16.7523   22.8641 C   0  0  0  0  0  0  0  0  0  0  0  0
   11.7009  -15.6950   23.0657 O   0  0  0  0  0  0  0  0  0  0  0  0
   12.8587  -19.4541   17.5263 O   0  0  0  0  0  0  0  0  0  0  0  0
   10.5516  -17.4819   23.9559 N   0  0  0  0  0  0  0  0  0  0  0  0
   10.7450  -16.9465   25.2729 C   0  0  0  0  0  0  0  0  0  0  0  0
   11.8238  -17.6883   25.9670 C   0  0  0  0  0  0  0  0  0  0  0  0
   12.0797  -17.4492   27.3075 O   0  0  0  0  0  0  0  0  0  0  0  0
   12.4761  -18.5192   25.3031 O   0  0  0  0  0  0  0  0  0  0  0  0
  2  4  1  0
  2  1  1  1
  2  3  1  0
  4  5  1  1
  6  4  1  0
  6  7  2  0
  8  6  1  0
  9  8  1  0
  9 14  1  0
  9 10  1  6
 11 10  1  0
 12 13  2  0
 12 11  1  0
 14 15  2  0
 14 17  1  0
 16 12  1  0
 17 18  1  0
 19 20  1  0
 19 18  1  0
 21 19  2  0
M  END
$$$$
