VEG.pdb
     RDKit          3D

 21 20  0  0  1  0  0  0  0  0999 V2000
    7.1251  -13.1939   19.0834 C   0  0  0  0  0  0  0  0  0  0  0  0
    8.1880  -13.3261   20.1782 C   0  0  2  0  0  0  0  0  0  0  0  0
    9.0921  -12.1264   20.1968 C   0  0  0  0  0  0  0  0  0  0  0  0
    8.9970  -14.5628   19.8914 C   0  0  2  0  0  0  0  0  0  0  0  0
    8.0842  -15.6859   19.8974 N   0  0  0  0  0  0  0  0  0  0  0  0
   10.0794  -14.7151   20.8890 C   0  0  0  0  0  0  0  0  0  0  0  0
   11.0079  -13.8670   20.8844 O   0  0  0  0  0  0  0  0  0  0  0  0
   10.1425  -15.7464   21.8458 N   0  0  0  0  0  0  0  0  0  0  0  0
   11.2442  -15.8656   22.8260 C   0  0  1  0  0  0  0  0  0  0  0  0
   10.8818  -16.8260   23.9042 C   0  0  0  0  0  0  0  0  0  0  0  0
   11.9477  -17.0664   24.9302 C   0  0  0  0  0  0  0  0  0  0  0  0
   11.5711  -18.0390   25.9638 C   0  0  0  0  0  0  0  0  0  0  0  0
   10.5006  -18.6684   26.0313 O   0  0  0  0  0  0  0  0  0  0  0  0
   12.4511  -16.2060   22.0575 C   0  0  0  0  0  0  0  0  0  0  0  0
   12.3440  -16.8404   20.9837 O   0  0  0  0  0  0  0  0  0  0  0  0
   12.5163  -18.2824   26.9787 O   0  0  0  0  0  0  0  0  0  0  0  0
   13.7252  -15.8234   22.5213 N   0  0  0  0  0  0  0  0  0  0  0  0
   14.8609  -16.1306   21.7002 C   0  0  0  0  0  0  0  0  0  0  0  0
   16.0843  -15.5329   22.2851 C   0  0  0  0  0  0  0  0  0  0  0  0
   17.2946  -15.6359   21.6185 O   0  0  0  0  0  0  0  0  0  0  0  0
   15.9761  -14.9460   23.3807 O   0  0  0  0  0  0  0  0  0  0  0  0
  2  4  1  0
  2  1  1  6
  2  3  1  0
  4  5  1  1
  6  4  1  0
  6  7  2  0
  8  6  1  0
  9  8  1  0
  9 14  1  0
  9 10  1  1
 11 10  1  0
 12 13  2  0
 12 11  1  0
 14 15  2  0
 14 17  1  0
 16 12  1  0
 17 18  1  0
 19 20  1  0
 19 18  1  0
 21 19  2  0
M  END
$$$$
