VEG.pdb
     RDKit          3D

 21 20  0  0  1  0  0  0  0  0999 V2000
    7.0781  -12.5881   19.9479 C   0  0  0  0  0  0  0  0  0  0  0  0
    7.6474  -13.6524   20.8908 C   0  0  2  0  0  0  0  0  0  0  0  0
    8.8474  -13.1300   21.6285 C   0  0  0  0  0  0  0  0  0  0  0  0
    8.0452  -14.8427   20.0595 C   0  0  2  0  0  0  0  0  0  0  0  0
    6.8732  -15.2647   19.3226 N   0  0  0  0  0  0  0  0  0  0  0  0
    8.5826  -15.9187   20.9216 C   0  0  0  0  0  0  0  0  0  0  0  0
    7.7612  -16.6608   21.5181 O   0  0  0  0  0  0  0  0  0  0  0  0
    9.9537  -16.1704   21.1212 N   0  0  0  0  0  0  0  0  0  0  0  0
   10.4517  -17.2599   21.9895 C   0  0  1  0  0  0  0  0  0  0  0  0
   11.4982  -18.0510   21.2859 C   0  0  0  0  0  0  0  0  0  0  0  0
   10.9837  -19.0625   20.3068 C   0  0  0  0  0  0  0  0  0  0  0  0
   12.0389  -19.7584   19.5595 C   0  0  0  0  0  0  0  0  0  0  0  0
   12.6203  -20.8034   19.9013 O   0  0  0  0  0  0  0  0  0  0  0  0
   10.8775  -16.6287   23.2478 C   0  0  0  0  0  0  0  0  0  0  0  0
   11.3422  -15.4665   23.2322 O   0  0  0  0  0  0  0  0  0  0  0  0
   12.4307  -19.1850   18.3345 O   0  0  0  0  0  0  0  0  0  0  0  0
   10.7660  -17.3225   24.4688 N   0  0  0  0  0  0  0  0  0  0  0  0
   11.1386  -16.6338   25.6711 C   0  0  0  0  0  0  0  0  0  0  0  0
   10.9554  -17.5242   26.8414 C   0  0  0  0  0  0  0  0  0  0  0  0
   11.3312  -17.0970   28.1047 O   0  0  0  0  0  0  0  0  0  0  0  0
   10.4583  -18.6508   26.6407 O   0  0  0  0  0  0  0  0  0  0  0  0
  2  4  1  0
  2  1  1  6
  2  3  1  0
  4  5  1  1
  6  4  1  0
  6  7  2  0
  8  6  1  0
  9  8  1  0
  9 14  1  0
  9 10  1  6
 11 10  1  0
 12 13  2  0
 12 11  1  0
 14 15  2  0
 14 17  1  0
 16 12  1  0
 17 18  1  0
 19 20  1  0
 19 18  1  0
 21 19  2  0
M  END
$$$$
