VEG.pdb
     RDKit          3D

 21 20  0  0  1  0  0  0  0  0999 V2000
    7.1171  -12.9046   22.0218 C   0  0  0  0  0  0  0  0  0  0  0  0
    8.2338  -13.3359   21.0664 C   0  0  2  0  0  0  0  0  0  0  0  0
    8.0652  -12.6940   19.7186 C   0  0  0  0  0  0  0  0  0  0  0  0
    8.1689  -14.8330   20.9237 C   0  0  2  0  0  0  0  0  0  0  0  0
    6.8797  -15.1559   20.3506 N   0  0  0  0  0  0  0  0  0  0  0  0
    8.3789  -15.4867   22.2347 C   0  0  0  0  0  0  0  0  0  0  0  0
    7.3626  -15.8020   22.9048 O   0  0  0  0  0  0  0  0  0  0  0  0
    9.6409  -15.7811   22.7856 N   0  0  0  0  0  0  0  0  0  0  0  0
    9.8117  -16.5811   24.0185 C   0  0  1  0  0  0  0  0  0  0  0  0
   10.9237  -17.5576   23.8571 C   0  0  0  0  0  0  0  0  0  0  0  0
   10.5051  -18.9439   23.4703 C   0  0  0  0  0  0  0  0  0  0  0  0
   11.6273  -19.8639   23.2455 C   0  0  0  0  0  0  0  0  0  0  0  0
   12.8336  -19.6140   23.4167 O   0  0  0  0  0  0  0  0  0  0  0  0
    9.9710  -15.6202   25.1204 C   0  0  0  0  0  0  0  0  0  0  0  0
   10.8271  -14.7113   25.0316 O   0  0  0  0  0  0  0  0  0  0  0  0
   11.3046  -21.1571   22.7912 O   0  0  0  0  0  0  0  0  0  0  0  0
    9.1675  -15.7158   26.2737 N   0  0  0  0  0  0  0  0  0  0  0  0
    9.2629  -14.6683   27.2495 C   0  0  0  0  0  0  0  0  0  0  0  0
   10.1649  -15.0828   28.3498 C   0  0  0  0  0  0  0  0  0  0  0  0
   10.3121  -14.2778   29.4678 O   0  0  0  0  0  0  0  0  0  0  0  0
   10.7717  -16.1659   28.2253 O   0  0  0  0  0  0  0  0  0  0  0  0
  2  4  1  0
  2  1  1  1
  2  3  1  0
  4  5  1  1
  6  4  1  0
  6  7  2  0
  8  6  1  0
  9  8  1  0
  9 14  1  0
  9 10  1  6
 11 10  1  0
 12 13  2  0
 12 11  1  0
 14 15  2  0
 14 17  1  0
 16 12  1  0
 17 18  1  0
 19 20  1  0
 19 18  1  0
 21 19  2  0
M  END
$$$$
