VEG.pdb
     RDKit          3D

 21 20  0  0  1  0  0  0  0  0999 V2000
   -4.4054  -29.0628   28.2817 C   0  0  0  0  0  0  0  0  0  0  0  0
   -5.9067  -29.2806   28.4927 C   0  0  2  0  0  0  0  0  0  0  0  0
   -6.5456  -29.8501   27.2580 C   0  0  0  0  0  0  0  0  0  0  0  0
   -6.5277  -27.9472   28.8127 C   0  0  2  0  0  0  0  0  0  0  0  0
   -6.4380  -27.1325   27.6199 N   0  0  0  0  0  0  0  0  0  0  0  0
   -5.8466  -27.3241   29.9694 C   0  0  0  0  0  0  0  0  0  0  0  0
   -5.8846  -27.9293   31.0710 O   0  0  0  0  0  0  0  0  0  0  0  0
   -5.1569  -26.0974   29.9224 N   0  0  0  0  0  0  0  0  0  0  0  0
   -4.5180  -25.4896   31.1105 C   0  0  1  0  0  0  0  0  0  0  0  0
   -3.0430  -25.4096   30.9263 C   0  0  0  0  0  0  0  0  0  0  0  0
   -2.2616  -26.5351   31.5339 C   0  0  0  0  0  0  0  0  0  0  0  0
   -0.8100  -26.4244   31.3414 C   0  0  0  0  0  0  0  0  0  0  0  0
   -0.2181  -25.5692   30.6595 O   0  0  0  0  0  0  0  0  0  0  0  0
   -5.1961  -24.2043   31.3369 C   0  0  0  0  0  0  0  0  0  0  0  0
   -4.8163  -23.4585   32.2679 O   0  0  0  0  0  0  0  0  0  0  0  0
   -0.0099  -27.3818   31.9940 O   0  0  0  0  0  0  0  0  0  0  0  0
   -6.2687  -23.8075   30.5142 N   0  0  0  0  0  0  0  0  0  0  0  0
   -6.7875  -22.4799   30.6779 C   0  0  0  0  0  0  0  0  0  0  0  0
   -7.9706  -22.2883   29.8064 C   0  0  0  0  0  0  0  0  0  0  0  0
   -8.6830  -21.1008   29.8536 O   0  0  0  0  0  0  0  0  0  0  0  0
   -8.2880  -23.2247   29.0454 O   0  0  0  0  0  0  0  0  0  0  0  0
  2  4  1  0
  2  1  1  6
  2  3  1  0
  4  5  1  6
  6  4  1  0
  6  7  2  0
  8  6  1  0
  9  8  1  0
  9 14  1  0
  9 10  1  6
 11 10  1  0
 12 13  2  0
 12 11  1  0
 14 15  2  0
 14 17  1  0
 16 12  1  0
 17 18  1  0
 19 20  1  0
 19 18  1  0
 21 19  2  0
M  END
$$$$
