VEG.pdb
     RDKit          3D

 21 20  0  0  1  0  0  0  0  0999 V2000
    6.6976  -11.2201   26.3326 C   0  0  0  0  0  0  0  0  0  0  0  0
    7.0938  -12.6990   26.3756 C   0  0  2  0  0  0  0  0  0  0  0  0
    8.4863  -12.8977   25.8479 C   0  0  0  0  0  0  0  0  0  0  0  0
    6.1174  -13.4650   25.5236 C   0  0  2  0  0  0  0  0  0  0  0  0
    4.8072  -13.3008   26.1160 N   0  0  0  0  0  0  0  0  0  0  0  0
    6.5166  -14.8871   25.4317 C   0  0  0  0  0  0  0  0  0  0  0  0
    6.2532  -15.6367   26.4064 O   0  0  0  0  0  0  0  0  0  0  0  0
    7.1726  -15.4611   24.3258 N   0  0  0  0  0  0  0  0  0  0  0  0
    7.6644  -16.8565   24.3198 C   0  0  1  0  0  0  0  0  0  0  0  0
    7.8750  -17.3296   22.9241 C   0  0  0  0  0  0  0  0  0  0  0  0
    8.5310  -18.6712   22.7967 C   0  0  0  0  0  0  0  0  0  0  0  0
    8.6199  -19.1620   21.4155 C   0  0  0  0  0  0  0  0  0  0  0  0
    7.7493  -19.8041   20.8019 O   0  0  0  0  0  0  0  0  0  0  0  0
    8.8563  -16.8823   25.1811 C   0  0  0  0  0  0  0  0  0  0  0  0
    9.7716  -16.0481   24.9982 O   0  0  0  0  0  0  0  0  0  0  0  0
    9.8091  -18.8767   20.7175 O   0  0  0  0  0  0  0  0  0  0  0  0
    8.9744  -17.8381   26.2092 N   0  0  0  0  0  0  0  0  0  0  0  0
   10.0963  -17.7362   27.0978 C   0  0  0  0  0  0  0  0  0  0  0  0
   11.1601  -18.6792   26.6795 C   0  0  0  0  0  0  0  0  0  0  0  0
   12.3012  -18.8259   27.4516 O   0  0  0  0  0  0  0  0  0  0  0  0
   10.9844  -19.3204   25.6237 O   0  0  0  0  0  0  0  0  0  0  0  0
  2  4  1  0
  2  1  1  6
  2  3  1  0
  4  5  1  1
  6  4  1  0
  6  7  2  0
  8  6  1  0
  9  8  1  0
  9 14  1  0
  9 10  1  6
 11 10  1  0
 12 13  2  0
 12 11  1  0
 14 15  2  0
 14 17  1  0
 16 12  1  0
 17 18  1  0
 19 20  1  0
 19 18  1  0
 21 19  2  0
M  END
$$$$
