VEG.pdb
     RDKit          3D

 21 20  0  0  1  0  0  0  0  0999 V2000
    7.7732  -12.0420   24.8253 C   0  0  0  0  0  0  0  0  0  0  0  0
    6.3935  -12.2055   25.4699 C   0  0  2  0  0  0  0  0  0  0  0  0
    5.9375  -10.9186   26.0968 C   0  0  0  0  0  0  0  0  0  0  0  0
    6.4996  -13.2717   26.5272 C   0  0  2  0  0  0  0  0  0  0  0  0
    7.4502  -12.8067   27.5144 N   0  0  0  0  0  0  0  0  0  0  0  0
    6.9045  -14.5604   25.9228 C   0  0  0  0  0  0  0  0  0  0  0  0
    6.0893  -15.1327   25.1552 O   0  0  0  0  0  0  0  0  0  0  0  0
    8.1427  -15.1924   26.1478 N   0  0  0  0  0  0  0  0  0  0  0  0
    8.4600  -16.5426   25.6328 C   0  0  1  0  0  0  0  0  0  0  0  0
    8.6046  -16.5155   24.1514 C   0  0  0  0  0  0  0  0  0  0  0  0
    9.8347  -15.8269   23.6423 C   0  0  0  0  0  0  0  0  0  0  0  0
   10.3755  -16.4094   22.4076 C   0  0  0  0  0  0  0  0  0  0  0  0
   10.4430  -17.6196   22.1292 O   0  0  0  0  0  0  0  0  0  0  0  0
    9.6437  -17.0040   26.3738 C   0  0  0  0  0  0  0  0  0  0  0  0
   10.5611  -16.1956   26.6422 O   0  0  0  0  0  0  0  0  0  0  0  0
   10.8659  -15.5074   21.4439 O   0  0  0  0  0  0  0  0  0  0  0  0
    9.7518  -18.3477   26.7829 N   0  0  0  0  0  0  0  0  0  0  0  0
   10.6213  -18.6486   27.8838 C   0  0  0  0  0  0  0  0  0  0  0  0
   10.1368  -19.8544   28.5960 C   0  0  0  0  0  0  0  0  0  0  0  0
   10.8513  -20.3608   29.6698 O   0  0  0  0  0  0  0  0  0  0  0  0
    9.0797  -20.3804   28.1930 O   0  0  0  0  0  0  0  0  0  0  0  0
  2  4  1  0
  2  1  1  1
  2  3  1  0
  4  5  1  1
  6  4  1  0
  6  7  2  0
  8  6  1  0
  9  8  1  0
  9 14  1  0
  9 10  1  6
 11 10  1  0
 12 13  2  0
 12 11  1  0
 14 15  2  0
 14 17  1  0
 16 12  1  0
 17 18  1  0
 19 20  1  0
 19 18  1  0
 21 19  2  0
M  END
$$$$
