VEG.pdb
     RDKit          3D

 21 20  0  0  1  0  0  0  0  0999 V2000
    8.5610  -11.8464   18.9171 C   0  0  0  0  0  0  0  0  0  0  0  0
    8.5099  -13.3580   19.1585 C   0  0  2  0  0  0  0  0  0  0  0  0
    7.1173  -13.7993   19.5089 C   0  0  0  0  0  0  0  0  0  0  0  0
    9.4416  -13.6770   20.2971 C   0  0  2  0  0  0  0  0  0  0  0  0
   10.7784  -13.3200   19.8730 N   0  0  0  0  0  0  0  0  0  0  0  0
    9.3341  -15.1056   20.6680 C   0  0  0  0  0  0  0  0  0  0  0  0
    8.2263  -15.5218   21.0932 O   0  0  0  0  0  0  0  0  0  0  0  0
   10.3889  -16.0342   20.5777 N   0  0  0  0  0  0  0  0  0  0  0  0
   10.2389  -17.4581   20.9508 C   0  0  1  0  0  0  0  0  0  0  0  0
   10.6173  -18.3387   19.8117 C   0  0  0  0  0  0  0  0  0  0  0  0
   11.6693  -17.7852   18.8987 C   0  0  0  0  0  0  0  0  0  0  0  0
   12.0411  -18.6880   17.8019 C   0  0  0  0  0  0  0  0  0  0  0  0
   12.4998  -19.8384   17.9149 O   0  0  0  0  0  0  0  0  0  0  0  0
   11.0183  -17.6507   22.1830 C   0  0  0  0  0  0  0  0  0  0  0  0
   11.0275  -18.7707   22.7421 O   0  0  0  0  0  0  0  0  0  0  0  0
   11.8598  -18.2020   16.4928 O   0  0  0  0  0  0  0  0  0  0  0  0
   11.7536  -16.5846   22.7374 N   0  0  0  0  0  0  0  0  0  0  0  0
   12.4360  -16.8111   23.9790 C   0  0  0  0  0  0  0  0  0  0  0  0
   13.8917  -16.9494   23.7382 C   0  0  0  0  0  0  0  0  0  0  0  0
   14.7611  -17.1011   24.8063 O   0  0  0  0  0  0  0  0  0  0  0  0
   14.2888  -16.9233   22.5557 O   0  0  0  0  0  0  0  0  0  0  0  0
  2  4  1  0
  2  1  1  1
  2  3  1  0
  4  5  1  6
  6  4  1  0
  6  7  2  0
  8  6  1  0
  9  8  1  0
  9 14  1  0
  9 10  1  6
 11 10  1  0
 12 13  2  0
 12 11  1  0
 14 15  2  0
 14 17  1  0
 16 12  1  0
 17 18  1  0
 19 20  1  0
 19 18  1  0
 21 19  2  0
M  END
$$$$
