VEG.pdb
     RDKit          3D

 21 20  0  0  1  0  0  0  0  0999 V2000
    6.3765  -11.2825   27.0690 C   0  0  0  0  0  0  0  0  0  0  0  0
    7.1707  -12.5647   26.8023 C   0  0  2  0  0  0  0  0  0  0  0  0
    8.5044  -12.2520   26.1854 C   0  0  0  0  0  0  0  0  0  0  0  0
    6.3670  -13.4199   25.8596 C   0  0  2  0  0  0  0  0  0  0  0  0
    5.0720  -13.6335   26.4693 N   0  0  0  0  0  0  0  0  0  0  0  0
    7.0736  -14.6908   25.5849 C   0  0  0  0  0  0  0  0  0  0  0  0
    6.8156  -15.6785   26.3193 O   0  0  0  0  0  0  0  0  0  0  0  0
    8.0174  -14.8720   24.5557 N   0  0  0  0  0  0  0  0  0  0  0  0
    8.6625  -16.1743   24.2782 C   0  0  1  0  0  0  0  0  0  0  0  0
    9.1197  -16.2391   22.8630 C   0  0  0  0  0  0  0  0  0  0  0  0
   10.2035  -15.2706   22.4970 C   0  0  0  0  0  0  0  0  0  0  0  0
   10.8333  -15.5442   21.1990 C   0  0  0  0  0  0  0  0  0  0  0  0
   12.0424  -15.7499   20.9930 O   0  0  0  0  0  0  0  0  0  0  0  0
    9.7167  -16.3414   25.2900 C   0  0  0  0  0  0  0  0  0  0  0  0
   10.5187  -17.2981   25.1974 O   0  0  0  0  0  0  0  0  0  0  0  0
    9.9831  -15.5766   20.0770 O   0  0  0  0  0  0  0  0  0  0  0  0
    9.8297  -15.4333   26.3610 N   0  0  0  0  0  0  0  0  0  0  0  0
   10.9980  -15.5119   27.1901 C   0  0  0  0  0  0  0  0  0  0  0  0
   10.8265  -16.5771   28.2059 C   0  0  0  0  0  0  0  0  0  0  0  0
   11.3486  -16.4134   29.4789 O   0  0  0  0  0  0  0  0  0  0  0  0
   10.2042  -17.6047   27.8692 O   0  0  0  0  0  0  0  0  0  0  0  0
  2  4  1  0
  2  1  1  6
  2  3  1  0
  4  5  1  1
  6  4  1  0
  6  7  2  0
  8  6  1  0
  9  8  1  0
  9 14  1  0
  9 10  1  6
 11 10  1  0
 12 13  2  0
 12 11  1  0
 14 15  2  0
 14 17  1  0
 16 12  1  0
 17 18  1  0
 19 20  1  0
 19 18  1  0
 21 19  2  0
M  END
$$$$
