VEG.pdb
     RDKit          3D

 21 20  0  0  1  0  0  0  0  0999 V2000
    6.3360  -11.5444   26.8416 C   0  0  0  0  0  0  0  0  0  0  0  0
    7.1192  -12.8536   26.7062 C   0  0  2  0  0  0  0  0  0  0  0  0
    8.5233  -12.5936   26.2394 C   0  0  0  0  0  0  0  0  0  0  0  0
    6.4058  -13.7185   25.7018 C   0  0  2  0  0  0  0  0  0  0  0  0
    5.0686  -13.9498   26.2049 N   0  0  0  0  0  0  0  0  0  0  0  0
    7.1490  -14.9798   25.4855 C   0  0  0  0  0  0  0  0  0  0  0  0
    7.0680  -15.8700   26.3700 O   0  0  0  0  0  0  0  0  0  0  0  0
    7.9430  -15.2535   24.3552 N   0  0  0  0  0  0  0  0  0  0  0  0
    8.7618  -16.4792   24.2271 C   0  0  1  0  0  0  0  0  0  0  0  0
    8.9621  -16.8255   22.7933 C   0  0  0  0  0  0  0  0  0  0  0  0
   10.2812  -16.4115   22.2145 C   0  0  0  0  0  0  0  0  0  0  0  0
   10.4502  -16.7700   20.8005 C   0  0  0  0  0  0  0  0  0  0  0  0
   11.3849  -17.4289   20.3118 O   0  0  0  0  0  0  0  0  0  0  0  0
    9.9925  -16.2407   24.9963 C   0  0  0  0  0  0  0  0  0  0  0  0
   10.2885  -15.0761   25.3472 O   0  0  0  0  0  0  0  0  0  0  0  0
    9.4545  -16.3231   19.9107 O   0  0  0  0  0  0  0  0  0  0  0  0
   10.8392  -17.3128   25.3403 N   0  0  0  0  0  0  0  0  0  0  0  0
   10.3769  -18.2461   26.3272 C   0  0  0  0  0  0  0  0  0  0  0  0
   11.0133  -17.9571   27.6339 C   0  0  0  0  0  0  0  0  0  0  0  0
   12.3853  -17.7813   27.7145 O   0  0  0  0  0  0  0  0  0  0  0  0
   10.2729  -17.8812   28.6353 O   0  0  0  0  0  0  0  0  0  0  0  0
  2  4  1  0
  2  1  1  6
  2  3  1  0
  4  5  1  1
  6  4  1  0
  6  7  2  0
  8  6  1  0
  9  8  1  0
  9 14  1  0
  9 10  1  6
 11 10  1  0
 12 13  2  0
 12 11  1  0
 14 15  2  0
 14 17  1  0
 16 12  1  0
 17 18  1  0
 19 20  1  0
 19 18  1  0
 21 19  2  0
M  END
$$$$
