VEG.pdb
     RDKit          3D

 21 20  0  0  1  0  0  0  0  0999 V2000
    8.6374  -12.0490   19.7535 C   0  0  0  0  0  0  0  0  0  0  0  0
    8.3223  -13.3704   19.0462 C   0  0  2  0  0  0  0  0  0  0  0  0
    6.9743  -13.3177   18.3851 C   0  0  0  0  0  0  0  0  0  0  0  0
    8.3344  -14.4639   20.0806 C   0  0  2  0  0  0  0  0  0  0  0  0
    7.2561  -14.1927   21.0070 N   0  0  0  0  0  0  0  0  0  0  0  0
    9.6505  -14.5234   20.7545 C   0  0  0  0  0  0  0  0  0  0  0  0
    9.8677  -13.7166   21.6943 O   0  0  0  0  0  0  0  0  0  0  0  0
   10.6797  -15.4228   20.4159 N   0  0  0  0  0  0  0  0  0  0  0  0
   11.9816  -15.4544   21.1182 C   0  0  1  0  0  0  0  0  0  0  0  0
   11.9804  -16.5053   22.1726 C   0  0  0  0  0  0  0  0  0  0  0  0
   11.1204  -16.2128   23.3648 C   0  0  0  0  0  0  0  0  0  0  0  0
   11.1476  -17.2630   24.3909 C   0  0  0  0  0  0  0  0  0  0  0  0
   10.3052  -17.4416   25.2881 O   0  0  0  0  0  0  0  0  0  0  0  0
   13.0122  -15.6039   20.0797 C   0  0  0  0  0  0  0  0  0  0  0  0
   12.7688  -16.2856   19.0584 O   0  0  0  0  0  0  0  0  0  0  0  0
   12.2360  -18.1557   24.3544 O   0  0  0  0  0  0  0  0  0  0  0  0
   14.2696  -14.9859   20.2265 N   0  0  0  0  0  0  0  0  0  0  0  0
   15.3003  -15.3249   19.2878 C   0  0  0  0  0  0  0  0  0  0  0  0
   15.5704  -14.1731   18.3954 C   0  0  0  0  0  0  0  0  0  0  0  0
   16.8313  -13.5995   18.3640 O   0  0  0  0  0  0  0  0  0  0  0  0
   14.6309  -13.7535   17.6898 O   0  0  0  0  0  0  0  0  0  0  0  0
  2  4  1  0
  2  1  1  1
  2  3  1  0
  4  5  1  1
  6  4  1  0
  6  7  2  0
  8  6  1  0
  9  8  1  0
  9 14  1  0
  9 10  1  1
 11 10  1  0
 12 13  2  0
 12 11  1  0
 14 15  2  0
 14 17  1  0
 16 12  1  0
 17 18  1  0
 19 20  1  0
 19 18  1  0
 21 19  2  0
M  END
$$$$
