VEG.pdb
     RDKit          3D

 21 20  0  0  1  0  0  0  0  0999 V2000
    6.0719  -11.3401   26.6731 C   0  0  0  0  0  0  0  0  0  0  0  0
    6.8774  -12.6405   26.5956 C   0  0  2  0  0  0  0  0  0  0  0  0
    8.2772  -12.3776   26.1177 C   0  0  0  0  0  0  0  0  0  0  0  0
    6.1794  -13.5610   25.6304 C   0  0  2  0  0  0  0  0  0  0  0  0
    4.8923  -13.8911   26.2039 N   0  0  0  0  0  0  0  0  0  0  0  0
    7.0038  -14.7630   25.3746 C   0  0  0  0  0  0  0  0  0  0  0  0
    6.8484  -15.7554   26.1310 O   0  0  0  0  0  0  0  0  0  0  0  0
    7.9530  -14.8733   24.3403 N   0  0  0  0  0  0  0  0  0  0  0  0
    8.7103  -16.1164   24.0750 C   0  0  1  0  0  0  0  0  0  0  0  0
    9.3666  -16.0530   22.7404 C   0  0  0  0  0  0  0  0  0  0  0  0
   10.1751  -17.2589   22.3683 C   0  0  0  0  0  0  0  0  0  0  0  0
   10.8284  -17.1567   21.0571 C   0  0  0  0  0  0  0  0  0  0  0  0
   12.0410  -17.3022   20.8223 O   0  0  0  0  0  0  0  0  0  0  0  0
    9.6189  -16.3028   25.2165 C   0  0  0  0  0  0  0  0  0  0  0  0
   10.3930  -15.3775   25.5503 O   0  0  0  0  0  0  0  0  0  0  0  0
    9.9988  -16.8649   19.9574 O   0  0  0  0  0  0  0  0  0  0  0  0
    9.6236  -17.5142   25.9356 N   0  0  0  0  0  0  0  0  0  0  0  0
   10.4473  -17.5985   27.1073 C   0  0  0  0  0  0  0  0  0  0  0  0
   11.6572  -18.4037   26.8181 C   0  0  0  0  0  0  0  0  0  0  0  0
   12.2351  -19.1721   27.8159 O   0  0  0  0  0  0  0  0  0  0  0  0
   12.1208  -18.3586   25.6606 O   0  0  0  0  0  0  0  0  0  0  0  0
  2  4  1  0
  2  1  1  6
  2  3  1  0
  4  5  1  1
  6  4  1  0
  6  7  2  0
  8  6  1  0
  9  8  1  0
  9 14  1  0
  9 10  1  6
 11 10  1  0
 12 13  2  0
 12 11  1  0
 14 15  2  0
 14 17  1  0
 16 12  1  0
 17 18  1  0
 19 20  1  0
 19 18  1  0
 21 19  2  0
M  END
$$$$
