VEG.pdb
     RDKit          3D

 21 20  0  0  1  0  0  0  0  0999 V2000
    7.8265  -13.6422   22.0583 C   0  0  0  0  0  0  0  0  0  0  0  0
    8.2468  -13.5659   20.5875 C   0  0  2  0  0  0  0  0  0  0  0  0
    7.4756  -12.4993   19.8631 C   0  0  0  0  0  0  0  0  0  0  0  0
    7.9707  -14.9044   19.9567 C   0  0  2  0  0  0  0  0  0  0  0  0
    6.5700  -15.2002   20.1690 N   0  0  0  0  0  0  0  0  0  0  0  0
    8.8559  -15.9403   20.5340 C   0  0  0  0  0  0  0  0  0  0  0  0
    8.3535  -16.7579   21.3467 O   0  0  0  0  0  0  0  0  0  0  0  0
   10.2256  -16.0747   20.2361 N   0  0  0  0  0  0  0  0  0  0  0  0
   11.0607  -17.1706   20.7756 C   0  0  1  0  0  0  0  0  0  0  0  0
   12.2152  -17.4387   19.8750 C   0  0  0  0  0  0  0  0  0  0  0  0
   13.1802  -18.4755   20.3652 C   0  0  0  0  0  0  0  0  0  0  0  0
   14.3185  -18.7025   19.4657 C   0  0  0  0  0  0  0  0  0  0  0  0
   14.7524  -17.9123   18.6089 O   0  0  0  0  0  0  0  0  0  0  0  0
   11.4099  -16.7896   22.1525 C   0  0  0  0  0  0  0  0  0  0  0  0
   11.5811  -15.5827   22.4374 O   0  0  0  0  0  0  0  0  0  0  0  0
   14.9841  -19.9376   19.5859 O   0  0  0  0  0  0  0  0  0  0  0  0
   11.5528  -17.7726   23.1515 N   0  0  0  0  0  0  0  0  0  0  0  0
   11.9615  -17.3486   24.4598 C   0  0  0  0  0  0  0  0  0  0  0  0
   10.7877  -17.2904   25.3624 C   0  0  0  0  0  0  0  0  0  0  0  0
    9.5213  -17.5682   24.8736 O   0  0  0  0  0  0  0  0  0  0  0  0
   10.9883  -16.9867   26.5558 O   0  0  0  0  0  0  0  0  0  0  0  0
  2  4  1  0
  2  1  1  1
  2  3  1  0
  4  5  1  1
  6  4  1  0
  6  7  2  0
  8  6  1  0
  9  8  1  0
  9 14  1  0
  9 10  1  6
 11 10  1  0
 12 13  2  0
 12 11  1  0
 14 15  2  0
 14 17  1  0
 16 12  1  0
 17 18  1  0
 19 20  1  0
 19 18  1  0
 21 19  2  0
M  END
$$$$
