VEG.pdb
     RDKit          3D

 21 20  0  0  1  0  0  0  0  0999 V2000
    6.8571  -13.4458   21.1261 C   0  0  0  0  0  0  0  0  0  0  0  0
    8.1952  -13.2124   20.4185 C   0  0  2  0  0  0  0  0  0  0  0  0
    7.9839  -12.6485   19.0421 C   0  0  0  0  0  0  0  0  0  0  0  0
    8.9031  -14.5371   20.3176 C   0  0  2  0  0  0  0  0  0  0  0  0
    8.1122  -15.3834   19.4499 N   0  0  0  0  0  0  0  0  0  0  0  0
    9.0868  -15.1285   21.6616 C   0  0  0  0  0  0  0  0  0  0  0  0
    8.0669  -15.2850   22.3804 O   0  0  0  0  0  0  0  0  0  0  0  0
   10.3275  -15.5295   22.1934 N   0  0  0  0  0  0  0  0  0  0  0  0
   10.4527  -16.2729   23.4665 C   0  0  1  0  0  0  0  0  0  0  0  0
    9.7732  -17.5938   23.3685 C   0  0  0  0  0  0  0  0  0  0  0  0
   10.1827  -18.4374   22.1992 C   0  0  0  0  0  0  0  0  0  0  0  0
    9.5245  -19.7492   22.1516 C   0  0  0  0  0  0  0  0  0  0  0  0
    9.7893  -20.7351   22.8619 O   0  0  0  0  0  0  0  0  0  0  0  0
   11.8887  -16.3240   23.7801 C   0  0  0  0  0  0  0  0  0  0  0  0
   12.2624  -16.6937   24.9162 O   0  0  0  0  0  0  0  0  0  0  0  0
    8.4911  -19.9052   21.2078 O   0  0  0  0  0  0  0  0  0  0  0  0
   12.8450  -15.9601   22.8118 N   0  0  0  0  0  0  0  0  0  0  0  0
   14.0170  -15.2598   23.2527 C   0  0  0  0  0  0  0  0  0  0  0  0
   15.1074  -16.2239   23.5315 C   0  0  0  0  0  0  0  0  0  0  0  0
   16.3723  -15.7653   23.8624 O   0  0  0  0  0  0  0  0  0  0  0  0
   14.8394  -17.4401   23.4561 O   0  0  0  0  0  0  0  0  0  0  0  0
  2  4  1  0
  2  1  1  6
  2  3  1  0
  4  5  1  6
  6  4  1  0
  6  7  2  0
  8  6  1  0
  9  8  1  0
  9 14  1  0
  9 10  1  6
 11 10  1  0
 12 13  2  0
 12 11  1  0
 14 15  2  0
 14 17  1  0
 16 12  1  0
 17 18  1  0
 19 20  1  0
 19 18  1  0
 21 19  2  0
M  END
$$$$
