PYL.pdb
     RDKit          3D

 28 29  0  0  1  0  0  0  0  0999 V2000
    8.6196  -18.4327   19.5189 N   0  0  0  0  0  0  0  0  0  0  0  0
    8.4560  -18.7222   18.0897 C   0  0  0  0  0  0  0  0  0  0  0  0
    7.0033  -19.2212   18.0749 C   0  0  0  0  0  0  0  0  0  0  0  0
    6.3469  -18.1916   18.9970 C   0  0  0  0  0  0  0  0  0  0  0  0
    7.4865  -17.5942   19.7689 C   0  0  1  0  0  0  0  0  0  0  0  0
    7.1932  -17.4061   21.2087 C   0  0  0  0  0  0  0  0  0  0  0  0
    6.1741  -16.7306   21.5057 O   0  0  0  0  0  0  0  0  0  0  0  0
    5.1333  -23.3895   25.6547 O   0  0  0  0  0  0  0  0  0  0  0  0
    5.9161  -22.2686   25.3641 C   0  0  0  0  0  0  0  0  0  0  0  0
    5.7237  -21.5244   24.2266 C   0  0  0  0  0  0  0  0  0  0  0  0
    6.4963  -20.4206   23.9431 C   0  0  0  0  0  0  0  0  0  0  0  0
    7.5068  -20.0091   24.7957 C   0  0  0  0  0  0  0  0  0  0  0  0
    8.3361  -18.8378   24.5182 C   0  0  0  0  0  0  0  0  0  0  0  0
    7.7285  -17.8029   23.6331 C   0  0  2  0  0  0  0  0  0  0  0  0
    8.0001  -17.9464   22.2404 N   0  0  0  0  0  0  0  0  0  0  0  0
    8.1494  -16.4659   24.1573 C   0  0  0  0  0  0  0  0  0  0  0  0
    9.3406  -16.1261   23.9706 O   0  0  0  0  0  0  0  0  0  0  0  0
    7.6941  -20.7590   25.9331 C   0  0  0  0  0  0  0  0  0  0  0  0
    6.9249  -21.8699   26.2298 C   0  0  0  0  0  0  0  0  0  0  0  0
    5.6040  -11.4099   26.9127 C   0  0  0  0  0  0  0  0  0  0  0  0
    6.7675  -12.1496   26.3900 C   0  0  2  0  0  0  0  0  0  0  0  0
    7.5780  -11.2180   25.4702 C   0  0  0  0  0  0  0  0  0  0  0  0
    6.5883  -13.4736   25.7725 C   0  0  0  0  0  0  0  0  0  0  0  0
    7.7426  -14.3062   25.4257 C   0  0  2  0  0  0  0  0  0  0  0  0
    7.2904  -15.5859   24.8373 N   0  0  0  0  0  0  0  0  0  0  0  0
    8.6477  -14.6658   26.5104 C   0  0  0  0  0  0  0  0  0  0  0  0
    8.4705  -15.5355   27.3913 O   0  0  0  0  0  0  0  0  0  0  0  0
    9.8893  -13.9887   26.6366 O   0  0  0  0  0  0  0  0  0  0  0  0
  1  5  1  0
  2  3  1  0
  2  1  1  0
  3  4  1  0
  4  5  1  0
  5  6  1  1
  6  7  2  0
  9 10  2  0
  9  8  1  0
 11 10  1  0
 12 11  2  0
 13 12  1  0
 14 13  1  1
 14 16  1  0
 15  6  1  0
 15 14  1  0
 16 25  1  0
 16 17  2  0
 18 12  1  0
 18 19  2  0
 19  9  1  0
 21 20  1  6
 21 23  1  0
 22 21  1  0
 24 23  1  1
 24 26  1  0
 25 24  1  0
 26 27  2  0
 26 28  1  0
M  END
$$$$
