PYL.pdb
     RDKit          3D

 28 29  0  0  1  0  0  0  0  0999 V2000
    8.6230  -15.1806   19.3620 N   0  0  0  0  0  0  0  0  0  0  0  0
    8.4191  -14.4742   18.0922 C   0  0  0  0  0  0  0  0  0  0  0  0
    6.9852  -13.9604   18.2907 C   0  0  0  0  0  0  0  0  0  0  0  0
    7.0638  -13.4710   19.7383 C   0  0  0  0  0  0  0  0  0  0  0  0
    8.2631  -14.1691   20.3090 C   0  0  1  0  0  0  0  0  0  0  0  0
    8.0501  -14.6882   21.6801 C   0  0  0  0  0  0  0  0  0  0  0  0
    7.6616  -13.8689   22.5524 O   0  0  0  0  0  0  0  0  0  0  0  0
    7.4464  -20.1952   28.6732 O   0  0  0  0  0  0  0  0  0  0  0  0
    7.6307  -19.6675   27.3921 C   0  0  0  0  0  0  0  0  0  0  0  0
    6.5719  -19.2908   26.6034 C   0  0  0  0  0  0  0  0  0  0  0  0
    6.7565  -18.7713   25.3419 C   0  0  0  0  0  0  0  0  0  0  0  0
    8.0235  -18.6043   24.8087 C   0  0  0  0  0  0  0  0  0  0  0  0
    8.2440  -18.0501   23.4743 C   0  0  0  0  0  0  0  0  0  0  0  0
    7.9632  -16.5940   23.3178 C   0  0  2  0  0  0  0  0  0  0  0  0
    8.2633  -16.0426   22.0371 N   0  0  0  0  0  0  0  0  0  0  0  0
    8.6780  -15.8814   24.4227 C   0  0  0  0  0  0  0  0  0  0  0  0
    9.9244  -15.7917   24.3350 O   0  0  0  0  0  0  0  0  0  0  0  0
    9.0793  -18.9837   25.6039 C   0  0  0  0  0  0  0  0  0  0  0  0
    8.9077  -19.5069   26.8731 C   0  0  0  0  0  0  0  0  0  0  0  0
    7.9058  -11.6063   25.3352 C   0  0  0  0  0  0  0  0  0  0  0  0
    7.1383  -12.5396   26.1802 C   0  0  2  0  0  0  0  0  0  0  0  0
    6.0550  -11.7501   26.9378 C   0  0  0  0  0  0  0  0  0  0  0  0
    7.8373  -13.4710   27.0804 C   0  0  0  0  0  0  0  0  0  0  0  0
    8.7348  -14.5006   26.5508 C   0  0  2  0  0  0  0  0  0  0  0  0
    8.0328  -15.3165   25.5359 N   0  0  0  0  0  0  0  0  0  0  0  0
    9.2900  -15.4492   27.5082 C   0  0  0  0  0  0  0  0  0  0  0  0
    8.9296  -16.6306   27.7038 O   0  0  0  0  0  0  0  0  0  0  0  0
   10.3652  -15.0483   28.3443 O   0  0  0  0  0  0  0  0  0  0  0  0
  1  5  1  0
  2  3  1  0
  2  1  1  0
  3  4  1  0
  4  5  1  0
  5  6  1  1
  6  7  2  0
  9 10  2  0
  9  8  1  0
 11 10  1  0
 12 11  2  0
 13 12  1  0
 14 13  1  6
 14 16  1  0
 15  6  1  0
 15 14  1  0
 16 25  1  0
 16 17  2  0
 18 12  1  0
 18 19  2  0
 19  9  1  0
 21 20  1  1
 21 23  1  0
 22 21  1  0
 24 23  1  1
 24 26  1  0
 25 24  1  0
 26 27  2  0
 26 28  1  0
M  END
$$$$
