PYL.pdb
     RDKit          3D

 28 29  0  0  1  0  0  0  0  0999 V2000
    8.5766  -15.2068   19.1903 N   0  0  0  0  0  0  0  0  0  0  0  0
    8.3785  -14.5150   17.9115 C   0  0  0  0  0  0  0  0  0  0  0  0
    6.9695  -13.9415   18.1248 C   0  0  0  0  0  0  0  0  0  0  0  0
    7.0925  -13.4305   19.5617 C   0  0  0  0  0  0  0  0  0  0  0  0
    8.2732  -14.1655   20.1248 C   0  0  1  0  0  0  0  0  0  0  0  0
    8.0640  -14.6519   21.5084 C   0  0  0  0  0  0  0  0  0  0  0  0
    7.6225  -13.8261   22.3488 O   0  0  0  0  0  0  0  0  0  0  0  0
    7.2668  -20.0654   28.5577 O   0  0  0  0  0  0  0  0  0  0  0  0
    7.5443  -19.5406   27.2923 C   0  0  0  0  0  0  0  0  0  0  0  0
    6.5485  -19.2510   26.3927 C   0  0  0  0  0  0  0  0  0  0  0  0
    6.8250  -18.7339   25.1470 C   0  0  0  0  0  0  0  0  0  0  0  0
    8.1251  -18.4813   24.7430 C   0  0  0  0  0  0  0  0  0  0  0  0
    8.4423  -17.9279   23.4278 C   0  0  0  0  0  0  0  0  0  0  0  0
    8.0547  -16.5048   23.2079 C   0  0  2  0  0  0  0  0  0  0  0  0
    8.3368  -15.9826   21.9110 N   0  0  0  0  0  0  0  0  0  0  0  0
    8.6915  -15.6968   24.2946 C   0  0  0  0  0  0  0  0  0  0  0  0
    9.9107  -15.4351   24.1749 O   0  0  0  0  0  0  0  0  0  0  0  0
    9.1175  -18.7737   25.6490 C   0  0  0  0  0  0  0  0  0  0  0  0
    8.8534  -19.2933   26.9036 C   0  0  0  0  0  0  0  0  0  0  0  0
    7.1855  -11.5774   25.5404 C   0  0  0  0  0  0  0  0  0  0  0  0
    6.6651  -12.6949   26.3495 C   0  0  2  0  0  0  0  0  0  0  0  0
    5.5270  -12.1733   27.2460 C   0  0  0  0  0  0  0  0  0  0  0  0
    7.5878  -13.5497   27.1139 C   0  0  0  0  0  0  0  0  0  0  0  0
    8.6195  -14.3393   26.4372 C   0  0  2  0  0  0  0  0  0  0  0  0
    8.0027  -15.2238   25.4244 N   0  0  0  0  0  0  0  0  0  0  0  0
    9.4426  -15.2054   27.2722 C   0  0  0  0  0  0  0  0  0  0  0  0
    9.3499  -16.4454   27.4042 O   0  0  0  0  0  0  0  0  0  0  0  0
   10.4868  -14.6381   28.0493 O   0  0  0  0  0  0  0  0  0  0  0  0
  1  5  1  0
  2  3  1  0
  2  1  1  0
  3  4  1  0
  4  5  1  0
  5  6  1  1
  6  7  2  0
  9 10  2  0
  9  8  1  0
 11 10  1  0
 12 11  2  0
 13 12  1  0
 14 13  1  6
 14 16  1  0
 15  6  1  0
 15 14  1  0
 16 25  1  0
 16 17  2  0
 18 12  1  0
 18 19  2  0
 19  9  1  0
 21 20  1  1
 21 23  1  0
 22 21  1  0
 24 23  1  1
 24 26  1  0
 25 24  1  0
 26 27  2  0
 26 28  1  0
M  END
$$$$
