PYL.pdb
     RDKit          3D

 28 29  0  0  1  0  0  0  0  0999 V2000
    8.7570  -15.0919   19.1459 N   0  0  0  0  0  0  0  0  0  0  0  0
    8.6663  -14.3042   17.9112 C   0  0  0  0  0  0  0  0  0  0  0  0
    7.2668  -13.6932   18.0772 C   0  0  0  0  0  0  0  0  0  0  0  0
    7.3131  -13.2904   19.5526 C   0  0  0  0  0  0  0  0  0  0  0  0
    8.4288  -14.1085   20.1332 C   0  0  1  0  0  0  0  0  0  0  0  0
    8.1134  -14.6831   21.4617 C   0  0  0  0  0  0  0  0  0  0  0  0
    7.7330  -13.8866   22.3584 O   0  0  0  0  0  0  0  0  0  0  0  0
    7.0751  -20.4155   28.2099 O   0  0  0  0  0  0  0  0  0  0  0  0
    7.3240  -19.8515   26.9555 C   0  0  0  0  0  0  0  0  0  0  0  0
    6.3136  -19.5950   26.0620 C   0  0  0  0  0  0  0  0  0  0  0  0
    6.5618  -19.0391   24.8272 C   0  0  0  0  0  0  0  0  0  0  0  0
    7.8468  -18.7121   24.4282 C   0  0  0  0  0  0  0  0  0  0  0  0
    8.1337  -18.1165   23.1246 C   0  0  0  0  0  0  0  0  0  0  0  0
    7.8623  -16.6555   23.0007 C   0  0  2  0  0  0  0  0  0  0  0  0
    8.2222  -16.0654   21.7531 N   0  0  0  0  0  0  0  0  0  0  0  0
    8.5260  -15.9795   24.1592 C   0  0  0  0  0  0  0  0  0  0  0  0
    9.7695  -15.8384   24.1051 O   0  0  0  0  0  0  0  0  0  0  0  0
    8.8539  -18.9717   25.3279 C   0  0  0  0  0  0  0  0  0  0  0  0
    8.6182  -19.5297   26.5717 C   0  0  0  0  0  0  0  0  0  0  0  0
    7.7170  -11.6393   25.5338 C   0  0  0  0  0  0  0  0  0  0  0  0
    6.8681  -12.6780   26.1460 C   0  0  2  0  0  0  0  0  0  0  0  0
    5.7391  -11.9950   26.9396 C   0  0  0  0  0  0  0  0  0  0  0  0
    7.4760  -13.7674   26.9269 C   0  0  0  0  0  0  0  0  0  0  0  0
    8.4690  -14.6618   26.3270 C   0  0  2  0  0  0  0  0  0  0  0  0
    7.8364  -15.5022   25.2868 N   0  0  0  0  0  0  0  0  0  0  0  0
    9.1524  -15.5865   27.2230 C   0  0  0  0  0  0  0  0  0  0  0  0
    8.9573  -16.8162   27.3393 O   0  0  0  0  0  0  0  0  0  0  0  0
   10.1663  -15.0982   28.0887 O   0  0  0  0  0  0  0  0  0  0  0  0
  1  5  1  0
  2  3  1  0
  2  1  1  0
  3  4  1  0
  4  5  1  0
  5  6  1  1
  6  7  2  0
  9 10  2  0
  9  8  1  0
 11 10  1  0
 12 11  2  0
 13 12  1  0
 14 13  1  6
 14 16  1  0
 15  6  1  0
 15 14  1  0
 16 25  1  0
 16 17  2  0
 18 12  1  0
 18 19  2  0
 19  9  1  0
 21 20  1  1
 21 23  1  0
 22 21  1  0
 24 23  1  1
 24 26  1  0
 25 24  1  0
 26 27  2  0
 26 28  1  0
M  END
$$$$
