PYL.pdb
     RDKit          3D

 28 29  0  0  1  0  0  0  0  0999 V2000
    5.9860  -17.8816   21.4288 N   0  0  0  0  0  0  0  0  0  0  0  0
    5.0279  -18.6780   20.6538 C   0  0  0  0  0  0  0  0  0  0  0  0
    5.5915  -18.4846   19.2380 C   0  0  0  0  0  0  0  0  0  0  0  0
    7.0876  -18.6547   19.5093 C   0  0  0  0  0  0  0  0  0  0  0  0
    7.2324  -18.4291   20.9856 C   0  0  1  0  0  0  0  0  0  0  0  0
    8.4065  -17.6010   21.3466 C   0  0  0  0  0  0  0  0  0  0  0  0
    9.5451  -18.0836   21.1143 O   0  0  0  0  0  0  0  0  0  0  0  0
    7.5406  -13.8720   16.3020 O   0  0  0  0  0  0  0  0  0  0  0  0
    8.0216  -13.9499   17.6121 C   0  0  0  0  0  0  0  0  0  0  0  0
    9.1730  -14.6301   17.9229 C   0  0  0  0  0  0  0  0  0  0  0  0
    9.6445  -14.7049   19.2142 C   0  0  0  0  0  0  0  0  0  0  0  0
    8.9764  -14.0952   20.2627 C   0  0  0  0  0  0  0  0  0  0  0  0
    9.4607  -14.1568   21.6404 C   0  0  0  0  0  0  0  0  0  0  0  0
    9.4086  -15.4975   22.2912 C   0  0  2  0  0  0  0  0  0  0  0  0
    8.2969  -16.3149   21.9306 N   0  0  0  0  0  0  0  0  0  0  0  0
    9.4949  -15.2787   23.7691 C   0  0  0  0  0  0  0  0  0  0  0  0
   10.5574  -14.7871   24.2148 O   0  0  0  0  0  0  0  0  0  0  0  0
    7.8240  -13.4157   19.9443 C   0  0  0  0  0  0  0  0  0  0  0  0
    7.3394  -13.3327   18.6512 C   0  0  0  0  0  0  0  0  0  0  0  0
    8.1793  -12.0025   26.1739 C   0  0  0  0  0  0  0  0  0  0  0  0
    7.2020  -13.0667   25.8799 C   0  0  2  0  0  0  0  0  0  0  0  0
    5.7834  -12.5248   26.1347 C   0  0  0  0  0  0  0  0  0  0  0  0
    7.3666  -14.4072   26.4652 C   0  0  0  0  0  0  0  0  0  0  0  0
    8.5093  -15.2509   26.1072 C   0  0  2  0  0  0  0  0  0  0  0  0
    8.4612  -15.5913   24.6683 N   0  0  0  0  0  0  0  0  0  0  0  0
    8.6395  -16.5206   26.8114 C   0  0  0  0  0  0  0  0  0  0  0  0
    8.8761  -16.6948   28.0269 O   0  0  0  0  0  0  0  0  0  0  0  0
    8.4912  -17.7358   26.0922 O   0  0  0  0  0  0  0  0  0  0  0  0
  1  5  1  0
  2  3  1  0
  2  1  1  0
  3  4  1  0
  4  5  1  0
  5  6  1  6
  6  7  2  0
  9 10  2  0
  9  8  1  0
 11 10  1  0
 12 11  2  0
 13 12  1  0
 14 13  1  6
 14 16  1  0
 15  6  1  0
 15 14  1  0
 16 25  1  0
 16 17  2  0
 18 12  1  0
 18 19  2  0
 19  9  1  0
 21 20  1  1
 21 23  1  0
 22 21  1  0
 24 23  1  1
 24 26  1  0
 25 24  1  0
 26 27  2  0
 26 28  1  0
M  END
$$$$
