PYL.pdb
     RDKit          3D

 28 29  0  0  1  0  0  0  0  0999 V2000
    8.8509  -15.2283   19.1729 N   0  0  0  0  0  0  0  0  0  0  0  0
    8.8603  -14.5025   17.8977 C   0  0  0  0  0  0  0  0  0  0  0  0
    7.4079  -14.0043   17.8543 C   0  0  0  0  0  0  0  0  0  0  0  0
    7.2310  -13.5386   19.3010 C   0  0  0  0  0  0  0  0  0  0  0  0
    8.3221  -14.2360   20.0590 C   0  0  1  0  0  0  0  0  0  0  0  0
    7.8825  -14.7797   21.3650 C   0  0  0  0  0  0  0  0  0  0  0  0
    7.3122  -13.9858   22.1572 O   0  0  0  0  0  0  0  0  0  0  0  0
    7.1766  -20.1479   28.4534 O   0  0  0  0  0  0  0  0  0  0  0  0
    7.3757  -19.6483   27.1633 C   0  0  0  0  0  0  0  0  0  0  0  0
    6.3309  -19.4361   26.2982 C   0  0  0  0  0  0  0  0  0  0  0  0
    6.5301  -18.9438   25.0281 C   0  0  0  0  0  0  0  0  0  0  0  0
    7.7982  -18.6389   24.5631 C   0  0  0  0  0  0  0  0  0  0  0  0
    8.0333  -18.1103   23.2208 C   0  0  0  0  0  0  0  0  0  0  0  0
    7.7779  -16.6524   23.0395 C   0  0  2  0  0  0  0  0  0  0  0  0
    8.0764  -16.1304   21.7462 N   0  0  0  0  0  0  0  0  0  0  0  0
    8.5156  -15.9328   24.1246 C   0  0  0  0  0  0  0  0  0  0  0  0
    9.7424  -15.7438   23.9560 O   0  0  0  0  0  0  0  0  0  0  0  0
    8.8400  -18.8539   25.4347 C   0  0  0  0  0  0  0  0  0  0  0  0
    8.6537  -19.3479   26.7133 C   0  0  0  0  0  0  0  0  0  0  0  0
    7.5515  -11.6520   25.4453 C   0  0  0  0  0  0  0  0  0  0  0  0
    6.8424  -12.6862   26.2210 C   0  0  2  0  0  0  0  0  0  0  0  0
    5.8220  -12.0013   27.1487 C   0  0  0  0  0  0  0  0  0  0  0  0
    7.5997  -13.7207   26.9440 C   0  0  0  0  0  0  0  0  0  0  0  0
    8.5875  -14.5530   26.2530 C   0  0  2  0  0  0  0  0  0  0  0  0
    7.9120  -15.4654   25.3045 N   0  0  0  0  0  0  0  0  0  0  0  0
    9.4348  -15.4000   27.0835 C   0  0  0  0  0  0  0  0  0  0  0  0
   10.5235  -15.0951   27.6179 O   0  0  0  0  0  0  0  0  0  0  0  0
    9.0345  -16.7348   27.3552 O   0  0  0  0  0  0  0  0  0  0  0  0
  1  5  1  0
  2  3  1  0
  2  1  1  0
  3  4  1  0
  4  5  1  0
  5  6  1  1
  6  7  2  0
  9 10  2  0
  9  8  1  0
 11 10  1  0
 12 11  2  0
 13 12  1  0
 14 13  1  6
 14 16  1  0
 15  6  1  0
 15 14  1  0
 16 25  1  0
 16 17  2  0
 18 12  1  0
 18 19  2  0
 19  9  1  0
 21 20  1  1
 21 23  1  0
 22 21  1  0
 24 23  1  1
 24 26  1  0
 25 24  1  0
 26 27  2  0
 26 28  1  0
M  END
$$$$
