PYL.pdb
     RDKit          3D

 28 29  0  0  1  0  0  0  0  0999 V2000
    6.2067  -17.9286   21.2361 N   0  0  0  0  0  0  0  0  0  0  0  0
    5.3413  -18.7523   20.3842 C   0  0  0  0  0  0  0  0  0  0  0  0
    5.9530  -18.4593   19.0060 C   0  0  0  0  0  0  0  0  0  0  0  0
    7.4437  -18.5407   19.3411 C   0  0  0  0  0  0  0  0  0  0  0  0
    7.5064  -18.3715   20.8307 C   0  0  1  0  0  0  0  0  0  0  0  0
    8.6034  -17.4835   21.2808 C   0  0  0  0  0  0  0  0  0  0  0  0
    9.7812  -17.8563   21.0420 O   0  0  0  0  0  0  0  0  0  0  0  0
    7.7676  -13.6206   16.3794 O   0  0  0  0  0  0  0  0  0  0  0  0
    8.1766  -13.7229   17.7121 C   0  0  0  0  0  0  0  0  0  0  0  0
    9.3797  -14.2848   18.0606 C   0  0  0  0  0  0  0  0  0  0  0  0
    9.7799  -14.3841   19.3741 C   0  0  0  0  0  0  0  0  0  0  0  0
    8.9842  -13.9198   20.4078 C   0  0  0  0  0  0  0  0  0  0  0  0
    9.3905  -14.0096   21.8091 C   0  0  0  0  0  0  0  0  0  0  0  0
    9.4156  -15.3808   22.3947 C   0  0  2  0  0  0  0  0  0  0  0  0
    8.3801  -16.2577   21.9553 N   0  0  0  0  0  0  0  0  0  0  0  0
    9.4353  -15.2289   23.8833 C   0  0  0  0  0  0  0  0  0  0  0  0
   10.4910  -14.7977   24.4017 O   0  0  0  0  0  0  0  0  0  0  0  0
    7.7805  -13.3581   20.0517 C   0  0  0  0  0  0  0  0  0  0  0  0
    7.3665  -13.2522   18.7359 C   0  0  0  0  0  0  0  0  0  0  0  0
    7.8509  -12.2453   26.7608 C   0  0  0  0  0  0  0  0  0  0  0  0
    6.9457  -13.3159   26.3041 C   0  0  2  0  0  0  0  0  0  0  0  0
    5.4957  -12.9172   26.6347 C   0  0  0  0  0  0  0  0  0  0  0  0
    7.2050  -14.7158   26.6773 C   0  0  0  0  0  0  0  0  0  0  0  0
    8.3946  -15.4180   26.1898 C   0  0  2  0  0  0  0  0  0  0  0  0
    8.3471  -15.5401   24.7163 N   0  0  0  0  0  0  0  0  0  0  0  0
    8.6178  -16.7677   26.6931 C   0  0  0  0  0  0  0  0  0  0  0  0
    8.4930  -17.8428   26.0667 O   0  0  0  0  0  0  0  0  0  0  0  0
    9.0254  -16.9514   28.0407 O   0  0  0  0  0  0  0  0  0  0  0  0
  1  5  1  0
  2  3  1  0
  2  1  1  0
  3  4  1  0
  4  5  1  0
  5  6  1  6
  6  7  2  0
  9 10  2  0
  9  8  1  0
 11 10  1  0
 12 11  2  0
 13 12  1  0
 14 13  1  6
 14 16  1  0
 15  6  1  0
 15 14  1  0
 16 25  1  0
 16 17  2  0
 18 12  1  0
 18 19  2  0
 19  9  1  0
 21 20  1  1
 21 23  1  0
 22 21  1  0
 24 23  1  1
 24 26  1  0
 25 24  1  0
 26 27  2  0
 26 28  1  0
M  END
$$$$
