PYL.pdb
     RDKit          3D

 28 29  0  0  1  0  0  0  0  0999 V2000
    9.2669  -18.0623   19.5339 N   0  0  0  0  0  0  0  0  0  0  0  0
    9.3038  -18.2813   18.0835 C   0  0  0  0  0  0  0  0  0  0  0  0
    8.9737  -16.8668   17.5835 C   0  0  0  0  0  0  0  0  0  0  0  0
    9.8487  -16.0305   18.5195 C   0  0  0  0  0  0  0  0  0  0  0  0
   10.1477  -16.9423   19.6731 C   0  0  1  0  0  0  0  0  0  0  0  0
   10.0579  -16.2767   20.9935 C   0  0  0  0  0  0  0  0  0  0  0  0
   10.9008  -15.3767   21.2436 O   0  0  0  0  0  0  0  0  0  0  0  0
    6.3869  -11.5685   27.3454 O   0  0  0  0  0  0  0  0  0  0  0  0
    6.6370  -12.5385   26.3707 C   0  0  0  0  0  0  0  0  0  0  0  0
    7.2039  -12.2221   25.1610 C   0  0  0  0  0  0  0  0  0  0  0  0
    7.4493  -13.1798   24.2028 C   0  0  0  0  0  0  0  0  0  0  0  0
    7.1342  -14.5112   24.4162 C   0  0  0  0  0  0  0  0  0  0  0  0
    7.3902  -15.5459   23.4161 C   0  0  0  0  0  0  0  0  0  0  0  0
    8.8245  -15.8482   23.1422 C   0  0  2  0  0  0  0  0  0  0  0  0
    9.0799  -16.6091   21.9632 N   0  0  0  0  0  0  0  0  0  0  0  0
    9.3845  -16.4984   24.3682 C   0  0  0  0  0  0  0  0  0  0  0  0
    9.6100  -17.7293   24.3121 O   0  0  0  0  0  0  0  0  0  0  0  0
    6.5666  -14.8211   25.6299 C   0  0  0  0  0  0  0  0  0  0  0  0
    6.3150  -13.8686   26.6012 C   0  0  0  0  0  0  0  0  0  0  0  0
   10.6666  -13.2331   27.1475 C   0  0  0  0  0  0  0  0  0  0  0  0
    9.8091  -14.2127   27.8397 C   0  0  2  0  0  0  0  0  0  0  0  0
    9.4626  -13.6709   29.2387 C   0  0  0  0  0  0  0  0  0  0  0  0
   10.2054  -15.6287   27.9067 C   0  0  0  0  0  0  0  0  0  0  0  0
   10.4128  -16.4120   26.6864 C   0  0  2  0  0  0  0  0  0  0  0  0
    9.6662  -15.8096   25.5603 N   0  0  0  0  0  0  0  0  0  0  0  0
   10.0118  -17.8130   26.7244 C   0  0  0  0  0  0  0  0  0  0  0  0
   10.6610  -18.7772   27.1856 O   0  0  0  0  0  0  0  0  0  0  0  0
    8.7509  -18.1925   26.1934 O   0  0  0  0  0  0  0  0  0  0  0  0
  1  5  1  0
  2  3  1  0
  2  1  1  0
  3  4  1  0
  4  5  1  0
  5  6  1  1
  6  7  2  0
  9 10  2  0
  9  8  1  0
 11 10  1  0
 12 11  2  0
 13 12  1  0
 14 13  1  1
 14 16  1  0
 15  6  1  0
 15 14  1  0
 16 25  1  0
 16 17  2  0
 18 12  1  0
 18 19  2  0
 19  9  1  0
 21 20  1  1
 21 23  1  0
 22 21  1  0
 24 23  1  1
 24 26  1  0
 25 24  1  0
 26 27  2  0
 26 28  1  0
M  END
$$$$
