PYL.pdb
     RDKit          3D

 28 29  0  0  1  0  0  0  0  0999 V2000
    8.9041  -14.8190   19.2695 N   0  0  0  0  0  0  0  0  0  0  0  0
    8.7949  -14.0942   17.9983 C   0  0  0  0  0  0  0  0  0  0  0  0
    7.2844  -13.8170   17.9689 C   0  0  0  0  0  0  0  0  0  0  0  0
    7.0525  -13.3890   19.4194 C   0  0  0  0  0  0  0  0  0  0  0  0
    8.2414  -13.9200   20.1651 C   0  0  1  0  0  0  0  0  0  0  0  0
    7.8984  -14.5287   21.4714 C   0  0  0  0  0  0  0  0  0  0  0  0
    7.2002  -13.8420   22.2614 O   0  0  0  0  0  0  0  0  0  0  0  0
    7.4002  -20.2430   28.3096 O   0  0  0  0  0  0  0  0  0  0  0  0
    7.6318  -19.6570   27.0620 C   0  0  0  0  0  0  0  0  0  0  0  0
    6.6083  -19.1650   26.2904 C   0  0  0  0  0  0  0  0  0  0  0  0
    6.8394  -18.5881   25.0619 C   0  0  0  0  0  0  0  0  0  0  0  0
    8.1198  -18.4774   24.5462 C   0  0  0  0  0  0  0  0  0  0  0  0
    8.3898  -17.8643   23.2471 C   0  0  0  0  0  0  0  0  0  0  0  0
    8.0421  -16.4196   23.1224 C   0  0  2  0  0  0  0  0  0  0  0  0
    8.3183  -15.8263   21.8551 N   0  0  0  0  0  0  0  0  0  0  0  0
    8.7212  -15.6996   24.2449 C   0  0  0  0  0  0  0  0  0  0  0  0
    9.9571  -15.5205   24.1466 O   0  0  0  0  0  0  0  0  0  0  0  0
    9.1401  -18.9722   25.3242 C   0  0  0  0  0  0  0  0  0  0  0  0
    8.9216  -19.5540   26.5602 C   0  0  0  0  0  0  0  0  0  0  0  0
    7.5145  -11.6031   25.4134 C   0  0  0  0  0  0  0  0  0  0  0  0
    6.8983  -12.6212   26.2842 C   0  0  2  0  0  0  0  0  0  0  0  0
    5.8355  -11.9433   27.1684 C   0  0  0  0  0  0  0  0  0  0  0  0
    7.7433  -13.5279   27.0780 C   0  0  0  0  0  0  0  0  0  0  0  0
    8.7164  -14.4112   26.4309 C   0  0  2  0  0  0  0  0  0  0  0  0
    8.0539  -15.2214   25.3854 N   0  0  0  0  0  0  0  0  0  0  0  0
    9.4166  -15.3619   27.2858 C   0  0  0  0  0  0  0  0  0  0  0  0
    9.2385  -16.5979   27.3532 O   0  0  0  0  0  0  0  0  0  0  0  0
   10.4284  -14.8953   28.1658 O   0  0  0  0  0  0  0  0  0  0  0  0
  1  5  1  0
  2  3  1  0
  2  1  1  0
  3  4  1  0
  4  5  1  0
  5  6  1  1
  6  7  2  0
  9 10  2  0
  9  8  1  0
 11 10  1  0
 12 11  2  0
 13 12  1  0
 14 13  1  6
 14 16  1  0
 15  6  1  0
 15 14  1  0
 16 25  1  0
 16 17  2  0
 18 12  1  0
 18 19  2  0
 19  9  1  0
 21 20  1  1
 21 23  1  0
 22 21  1  0
 24 23  1  1
 24 26  1  0
 25 24  1  0
 26 27  2  0
 26 28  1  0
M  END
$$$$
