PYL.pdb
     RDKit          3D

 28 29  0  0  1  0  0  0  0  0999 V2000
    8.7946  -15.1423   19.4598 N   0  0  0  0  0  0  0  0  0  0  0  0
    8.6081  -14.4605   18.1739 C   0  0  0  0  0  0  0  0  0  0  0  0
    7.1310  -14.0549   18.2897 C   0  0  0  0  0  0  0  0  0  0  0  0
    7.0937  -13.5526   19.7346 C   0  0  0  0  0  0  0  0  0  0  0  0
    8.3089  -14.1553   20.3760 C   0  0  1  0  0  0  0  0  0  0  0  0
    8.0609  -14.6810   21.7387 C   0  0  0  0  0  0  0  0  0  0  0  0
    7.5769  -13.8848   22.5841 O   0  0  0  0  0  0  0  0  0  0  0  0
    7.3568  -20.2074   28.7077 O   0  0  0  0  0  0  0  0  0  0  0  0
    7.6275  -19.6641   27.4486 C   0  0  0  0  0  0  0  0  0  0  0  0
    8.9063  -19.3692   27.0454 C   0  0  0  0  0  0  0  0  0  0  0  0
    9.1699  -18.8343   25.8045 C   0  0  0  0  0  0  0  0  0  0  0  0
    8.1533  -18.5683   24.9028 C   0  0  0  0  0  0  0  0  0  0  0  0
    8.4095  -18.0057   23.5783 C   0  0  0  0  0  0  0  0  0  0  0  0
    8.0585  -16.5673   23.4011 C   0  0  2  0  0  0  0  0  0  0  0  0
    8.3425  -16.0173   22.1162 N   0  0  0  0  0  0  0  0  0  0  0  0
    8.7273  -15.8068   24.5029 C   0  0  0  0  0  0  0  0  0  0  0  0
    9.9610  -15.6155   24.4008 O   0  0  0  0  0  0  0  0  0  0  0  0
    6.8749  -18.8661   25.3130 C   0  0  0  0  0  0  0  0  0  0  0  0
    6.5964  -19.4038   26.5569 C   0  0  0  0  0  0  0  0  0  0  0  0
    7.9102  -11.5305   25.4037 C   0  0  0  0  0  0  0  0  0  0  0  0
    7.0820  -12.4645   26.1885 C   0  0  2  0  0  0  0  0  0  0  0  0
    5.9736  -11.6689   26.9020 C   0  0  0  0  0  0  0  0  0  0  0  0
    7.7149  -13.4251   27.1067 C   0  0  0  0  0  0  0  0  0  0  0  0
    8.6870  -14.4063   26.6185 C   0  0  2  0  0  0  0  0  0  0  0  0
    8.0526  -15.3040   25.6284 N   0  0  0  0  0  0  0  0  0  0  0  0
    9.2994  -15.2802   27.6116 C   0  0  0  0  0  0  0  0  0  0  0  0
   10.0813  -14.9546   28.5316 O   0  0  0  0  0  0  0  0  0  0  0  0
    9.0161  -16.6712   27.5865 O   0  0  0  0  0  0  0  0  0  0  0  0
  1  5  1  0
  2  3  1  0
  2  1  1  0
  3  4  1  0
  4  5  1  0
  5  6  1  1
  6  7  2  0
  9 10  2  0
  9  8  1  0
 11 10  1  0
 12 11  2  0
 13 12  1  0
 14 13  1  6
 14 16  1  0
 15  6  1  0
 15 14  1  0
 16 25  1  0
 16 17  2  0
 18 12  1  0
 18 19  2  0
 19  9  1  0
 21 20  1  1
 21 23  1  0
 22 21  1  0
 24 23  1  1
 24 26  1  0
 25 24  1  0
 26 27  2  0
 26 28  1  0
M  END
$$$$
