PYL.pdb
     RDKit          3D

 28 29  0  0  1  0  0  0  0  0999 V2000
    8.6031  -15.5076   19.5538 N   0  0  0  0  0  0  0  0  0  0  0  0
    8.4880  -14.8562   18.2441 C   0  0  0  0  0  0  0  0  0  0  0  0
    7.0293  -14.3782   18.3022 C   0  0  0  0  0  0  0  0  0  0  0  0
    6.9729  -13.8323   19.7304 C   0  0  0  0  0  0  0  0  0  0  0  0
    8.1381  -14.4722   20.4263 C   0  0  1  0  0  0  0  0  0  0  0  0
    7.8245  -14.9452   21.7947 C   0  0  0  0  0  0  0  0  0  0  0  0
    7.3464  -14.1044   22.5995 O   0  0  0  0  0  0  0  0  0  0  0  0
    7.5729  -19.9895   29.1486 O   0  0  0  0  0  0  0  0  0  0  0  0
    7.7375  -19.5399   27.8354 C   0  0  0  0  0  0  0  0  0  0  0  0
    8.9800  -19.3205   27.2941 C   0  0  0  0  0  0  0  0  0  0  0  0
    9.1390  -18.8778   26.0002 C   0  0  0  0  0  0  0  0  0  0  0  0
    8.0489  -18.6326   25.1824 C   0  0  0  0  0  0  0  0  0  0  0  0
    8.1934  -18.1674   23.8043 C   0  0  0  0  0  0  0  0  0  0  0  0
    7.8616  -16.7341   23.5611 C   0  0  2  0  0  0  0  0  0  0  0  0
    8.0384  -16.2793   22.2209 N   0  0  0  0  0  0  0  0  0  0  0  0
    8.6471  -15.9224   24.5428 C   0  0  0  0  0  0  0  0  0  0  0  0
    9.8754  -15.7977   24.3309 O   0  0  0  0  0  0  0  0  0  0  0  0
    6.8074  -18.8544   25.7310 C   0  0  0  0  0  0  0  0  0  0  0  0
    6.6338  -19.2992   27.0294 C   0  0  0  0  0  0  0  0  0  0  0  0
    7.5161  -11.6882   25.2676 C   0  0  0  0  0  0  0  0  0  0  0  0
    6.9835  -12.5873   26.3080 C   0  0  2  0  0  0  0  0  0  0  0  0
    5.9944  -11.8008   27.1876 C   0  0  0  0  0  0  0  0  0  0  0  0
    7.8996  -13.3901   27.1342 C   0  0  0  0  0  0  0  0  0  0  0  0
    8.8270  -14.3444   26.5217 C   0  0  2  0  0  0  0  0  0  0  0  0
    8.0861  -15.3025   25.6723 N   0  0  0  0  0  0  0  0  0  0  0  0
    9.6327  -15.1559   27.4257 C   0  0  0  0  0  0  0  0  0  0  0  0
   10.5983  -14.7816   28.1267 O   0  0  0  0  0  0  0  0  0  0  0  0
    9.3389  -16.5371   27.5729 O   0  0  0  0  0  0  0  0  0  0  0  0
  1  5  1  0
  2  3  1  0
  2  1  1  0
  3  4  1  0
  4  5  1  0
  5  6  1  1
  6  7  2  0
  9 10  2  0
  9  8  1  0
 11 10  1  0
 12 11  2  0
 13 12  1  0
 14 13  1  6
 14 16  1  0
 15  6  1  0
 15 14  1  0
 16 25  1  0
 16 17  2  0
 18 12  1  0
 18 19  2  0
 19  9  1  0
 21 20  1  1
 21 23  1  0
 22 21  1  0
 24 23  1  1
 24 26  1  0
 25 24  1  0
 26 27  2  0
 26 28  1  0
M  END
$$$$
