PYL.pdb
     RDKit          3D

 28 29  0  0  1  0  0  0  0  0999 V2000
    9.1359  -18.6597   19.6687 N   0  0  0  0  0  0  0  0  0  0  0  0
    9.1687  -19.0966   18.2683 C   0  0  0  0  0  0  0  0  0  0  0  0
    7.7339  -19.6221   18.1107 C   0  0  0  0  0  0  0  0  0  0  0  0
    6.9535  -18.5164   18.8246 C   0  0  0  0  0  0  0  0  0  0  0  0
    7.9752  -17.8218   19.6762 C   0  0  1  0  0  0  0  0  0  0  0  0
    7.4888  -17.4932   21.0364 C   0  0  0  0  0  0  0  0  0  0  0  0
    6.4418  -16.8007   21.1222 O   0  0  0  0  0  0  0  0  0  0  0  0
    5.1894  -23.7527   23.1050 O   0  0  0  0  0  0  0  0  0  0  0  0
    5.8297  -22.5566   23.4414 C   0  0  0  0  0  0  0  0  0  0  0  0
    5.1714  -21.5368   24.0828 C   0  0  0  0  0  0  0  0  0  0  0  0
    5.8048  -20.3599   24.4131 C   0  0  0  0  0  0  0  0  0  0  0  0
    7.1400  -20.1500   24.1121 C   0  0  0  0  0  0  0  0  0  0  0  0
    7.8346  -18.9112   24.4575 C   0  0  0  0  0  0  0  0  0  0  0  0
    7.6172  -17.7615   23.5330 C   0  0  2  0  0  0  0  0  0  0  0  0
    8.1446  -17.9204   22.2174 N   0  0  0  0  0  0  0  0  0  0  0  0
    8.1476  -16.5378   24.2118 C   0  0  0  0  0  0  0  0  0  0  0  0
    9.3382  -16.2246   23.9807 O   0  0  0  0  0  0  0  0  0  0  0  0
    7.7932  -21.1755   23.4697 C   0  0  0  0  0  0  0  0  0  0  0  0
    7.1687  -22.3630   23.1324 C   0  0  0  0  0  0  0  0  0  0  0  0
    6.0426  -11.7895   27.7523 C   0  0  0  0  0  0  0  0  0  0  0  0
    7.1453  -12.5162   27.0963 C   0  0  2  0  0  0  0  0  0  0  0  0
    8.0284  -11.5058   26.3413 C   0  0  0  0  0  0  0  0  0  0  0  0
    6.8635  -13.6956   26.2621 C   0  0  0  0  0  0  0  0  0  0  0  0
    7.9467  -14.5626   25.7918 C   0  0  2  0  0  0  0  0  0  0  0  0
    7.3901  -15.7346   25.0812 N   0  0  0  0  0  0  0  0  0  0  0  0
    8.8474  -15.1022   26.8030 C   0  0  0  0  0  0  0  0  0  0  0  0
    8.6286  -16.0516   27.5869 O   0  0  0  0  0  0  0  0  0  0  0  0
   10.1359  -14.5288   26.9672 O   0  0  0  0  0  0  0  0  0  0  0  0
  1  5  1  0
  2  3  1  0
  2  1  1  0
  3  4  1  0
  4  5  1  0
  5  6  1  1
  6  7  2  0
  9 10  2  0
  9  8  1  0
 11 10  1  0
 12 11  2  0
 13 12  1  0
 14 13  1  1
 14 16  1  0
 15  6  1  0
 15 14  1  0
 16 25  1  0
 16 17  2  0
 18 12  1  0
 18 19  2  0
 19  9  1  0
 21 20  1  6
 21 23  1  0
 22 21  1  0
 24 23  1  1
 24 26  1  0
 25 24  1  0
 26 27  2  0
 26 28  1  0
M  END
$$$$
