PYL.pdb
     RDKit          3D

 28 29  0  0  1  0  0  0  0  0999 V2000
    6.6646  -18.2422   21.0217 N   0  0  0  0  0  0  0  0  0  0  0  0
    6.0994  -19.2210   20.0860 C   0  0  0  0  0  0  0  0  0  0  0  0
    6.8835  -18.8686   18.8129 C   0  0  0  0  0  0  0  0  0  0  0  0
    8.2886  -18.6928   19.3923 C   0  0  0  0  0  0  0  0  0  0  0  0
    8.0679  -18.4747   20.8603 C   0  0  1  0  0  0  0  0  0  0  0  0
    8.9169  -17.4053   21.4350 C   0  0  0  0  0  0  0  0  0  0  0  0
   10.1575  -17.6117   21.4716 O   0  0  0  0  0  0  0  0  0  0  0  0
    7.8646  -13.4246   16.2803 O   0  0  0  0  0  0  0  0  0  0  0  0
    8.1101  -13.5046   17.6540 C   0  0  0  0  0  0  0  0  0  0  0  0
    9.3627  -13.3065   18.1798 C   0  0  0  0  0  0  0  0  0  0  0  0
    9.6015  -13.3857   19.5333 C   0  0  0  0  0  0  0  0  0  0  0  0
    8.5852  -13.6699   20.4298 C   0  0  0  0  0  0  0  0  0  0  0  0
    8.8139  -13.7539   21.8710 C   0  0  0  0  0  0  0  0  0  0  0  0
    9.1930  -15.0977   22.3945 C   0  0  2  0  0  0  0  0  0  0  0  0
    8.3949  -16.1863   21.9338 N   0  0  0  0  0  0  0  0  0  0  0  0
    9.2150  -15.0039   23.8879 C   0  0  0  0  0  0  0  0  0  0  0  0
   10.1116  -14.2982   24.4048 O   0  0  0  0  0  0  0  0  0  0  0  0
    7.3331  -13.8672   19.8964 C   0  0  0  0  0  0  0  0  0  0  0  0
    7.0797  -13.7903   18.5386 C   0  0  0  0  0  0  0  0  0  0  0  0
    5.6322  -12.5872   26.7332 C   0  0  0  0  0  0  0  0  0  0  0  0
    6.7842  -13.4469   27.0621 C   0  0  2  0  0  0  0  0  0  0  0  0
    8.0819  -12.6509   26.8314 C   0  0  0  0  0  0  0  0  0  0  0  0
    6.8873  -14.7993   26.4905 C   0  0  0  0  0  0  0  0  0  0  0  0
    8.1917  -15.3881   26.1778 C   0  0  2  0  0  0  0  0  0  0  0  0
    8.2958  -15.6566   24.7268 N   0  0  0  0  0  0  0  0  0  0  0  0
    8.5254  -16.6437   26.8389 C   0  0  0  0  0  0  0  0  0  0  0  0
    8.6727  -16.8416   28.0648 O   0  0  0  0  0  0  0  0  0  0  0  0
    8.7180  -17.8138   26.0579 O   0  0  0  0  0  0  0  0  0  0  0  0
  1  5  1  0
  2  3  1  0
  2  1  1  0
  3  4  1  0
  4  5  1  0
  5  6  1  6
  6  7  2  0
  9 10  2  0
  9  8  1  0
 11 10  1  0
 12 11  2  0
 13 12  1  0
 14 13  1  6
 14 16  1  0
 15  6  1  0
 15 14  1  0
 16 25  1  0
 16 17  2  0
 18 12  1  0
 18 19  2  0
 19  9  1  0
 21 20  1  6
 21 23  1  0
 22 21  1  0
 24 23  1  6
 24 26  1  0
 25 24  1  0
 26 27  2  0
 26 28  1  0
M  END
$$$$
