PYL.pdb
     RDKit          3D

 28 29  0  0  1  0  0  0  0  0999 V2000
    9.3796  -14.6140   19.0194 N   0  0  0  0  0  0  0  0  0  0  0  0
    9.2234  -13.8595   17.7706 C   0  0  0  0  0  0  0  0  0  0  0  0
    7.6932  -13.7391   17.7118 C   0  0  0  0  0  0  0  0  0  0  0  0
    7.3862  -13.3894   19.1694 C   0  0  0  0  0  0  0  0  0  0  0  0
    8.6073  -13.8208   19.9272 C   0  0  1  0  0  0  0  0  0  0  0  0
    8.3011  -14.5079   21.2034 C   0  0  0  0  0  0  0  0  0  0  0  0
    7.3949  -14.0119   21.9217 O   0  0  0  0  0  0  0  0  0  0  0  0
   14.1759  -18.6680   20.2790 O   0  0  0  0  0  0  0  0  0  0  0  0
   12.9571  -18.4396   20.9240 C   0  0  0  0  0  0  0  0  0  0  0  0
   11.8168  -18.1217   20.2287 C   0  0  0  0  0  0  0  0  0  0  0  0
   10.6176  -17.8974   20.8667 C   0  0  0  0  0  0  0  0  0  0  0  0
   10.5063  -17.9823   22.2443 C   0  0  0  0  0  0  0  0  0  0  0  0
    9.2430  -17.7535   22.9429 C   0  0  0  0  0  0  0  0  0  0  0  0
    8.6823  -16.3753   22.8432 C   0  0  2  0  0  0  0  0  0  0  0  0
    8.9760  -15.6764   21.6351 N   0  0  0  0  0  0  0  0  0  0  0  0
    9.1317  -15.6230   24.0562 C   0  0  0  0  0  0  0  0  0  0  0  0
   10.2428  -15.0477   23.9950 O   0  0  0  0  0  0  0  0  0  0  0  0
   11.6523  -18.3010   22.9345 C   0  0  0  0  0  0  0  0  0  0  0  0
   12.8633  -18.5289   22.3057 C   0  0  0  0  0  0  0  0  0  0  0  0
    7.8496  -11.7599   25.6971 C   0  0  0  0  0  0  0  0  0  0  0  0
    7.0981  -12.9454   26.1488 C   0  0  2  0  0  0  0  0  0  0  0  0
    5.7782  -12.4831   26.7928 C   0  0  0  0  0  0  0  0  0  0  0  0
    7.7564  -13.9704   26.9749 C   0  0  0  0  0  0  0  0  0  0  0  0
    8.8451  -14.7886   26.4353 C   0  0  2  0  0  0  0  0  0  0  0  0
    8.3828  -15.5301   25.2416 N   0  0  0  0  0  0  0  0  0  0  0  0
    9.4234  -15.7885   27.3245 C   0  0  0  0  0  0  0  0  0  0  0  0
    9.3199  -17.0319   27.2397 O   0  0  0  0  0  0  0  0  0  0  0  0
   10.2048  -15.3682   28.4330 O   0  0  0  0  0  0  0  0  0  0  0  0
  1  5  1  0
  2  3  1  0
  2  1  1  0
  3  4  1  0
  4  5  1  0
  5  6  1  1
  6  7  2  0
  9 10  2  0
  9  8  1  0
 11 10  1  0
 12 11  2  0
 13 12  1  0
 14 13  1  6
 14 16  1  0
 15  6  1  0
 15 14  1  0
 16 25  1  0
 16 17  2  0
 18 12  1  0
 18 19  2  0
 19  9  1  0
 21 20  1  1
 21 23  1  0
 22 21  1  0
 24 23  1  1
 24 26  1  0
 25 24  1  0
 26 27  2  0
 26 28  1  0
M  END
$$$$
