PYL.pdb
     RDKit          3D

 28 29  0  0  1  0  0  0  0  0999 V2000
    8.9226  -15.1494   19.1272 N   0  0  0  0  0  0  0  0  0  0  0  0
    8.8152  -14.4492   17.8421 C   0  0  0  0  0  0  0  0  0  0  0  0
    7.3283  -14.0644   17.8623 C   0  0  0  0  0  0  0  0  0  0  0  0
    7.1850  -13.5862   19.3087 C   0  0  0  0  0  0  0  0  0  0  0  0
    8.3616  -14.1838   20.0229 C   0  0  1  0  0  0  0  0  0  0  0  0
    8.0280  -14.7347   21.3570 C   0  0  0  0  0  0  0  0  0  0  0  0
    7.4412  -13.9701   22.1658 O   0  0  0  0  0  0  0  0  0  0  0  0
    6.8366  -20.4013   28.1404 O   0  0  0  0  0  0  0  0  0  0  0  0
    7.2158  -19.8260   26.9243 C   0  0  0  0  0  0  0  0  0  0  0  0
    8.5159  -19.4696   26.6645 C   0  0  0  0  0  0  0  0  0  0  0  0
    8.8864  -18.9032   25.4656 C   0  0  0  0  0  0  0  0  0  0  0  0
    7.9611  -18.6661   24.4631 C   0  0  0  0  0  0  0  0  0  0  0  0
    8.3321  -18.0710   23.1806 C   0  0  0  0  0  0  0  0  0  0  0  0
    8.0148  -16.6231   23.0169 C   0  0  2  0  0  0  0  0  0  0  0  0
    8.3386  -16.0610   21.7468 N   0  0  0  0  0  0  0  0  0  0  0  0
    8.6740  -15.8925   24.1443 C   0  0  0  0  0  0  0  0  0  0  0  0
    9.9131  -15.7231   24.0709 O   0  0  0  0  0  0  0  0  0  0  0  0
    6.6608  -19.0254   24.7300 C   0  0  0  0  0  0  0  0  0  0  0  0
    6.2753  -19.5954   25.9302 C   0  0  0  0  0  0  0  0  0  0  0  0
    7.9872  -11.5712   25.3348 C   0  0  0  0  0  0  0  0  0  0  0  0
    7.1075  -12.5520   25.9970 C   0  0  2  0  0  0  0  0  0  0  0  0
    5.9825  -11.7977   26.7293 C   0  0  0  0  0  0  0  0  0  0  0  0
    7.6807  -13.6031   26.8532 C   0  0  0  0  0  0  0  0  0  0  0  0
    8.6315  -14.5788   26.3148 C   0  0  2  0  0  0  0  0  0  0  0  0
    7.9852  -15.3943   25.2632 N   0  0  0  0  0  0  0  0  0  0  0  0
    9.2070  -15.5302   27.2574 C   0  0  0  0  0  0  0  0  0  0  0  0
    8.9105  -16.7372   27.3956 O   0  0  0  0  0  0  0  0  0  0  0  0
   10.2255  -15.1005   28.1484 O   0  0  0  0  0  0  0  0  0  0  0  0
  1  5  1  0
  2  3  1  0
  2  1  1  0
  3  4  1  0
  4  5  1  0
  5  6  1  1
  6  7  2  0
  9 10  2  0
  9  8  1  0
 11 10  1  0
 12 11  2  0
 13 12  1  0
 14 13  1  6
 14 16  1  0
 15  6  1  0
 15 14  1  0
 16 25  1  0
 16 17  2  0
 18 12  1  0
 18 19  2  0
 19  9  1  0
 21 20  1  1
 21 23  1  0
 22 21  1  0
 24 23  1  1
 24 26  1  0
 25 24  1  0
 26 27  2  0
 26 28  1  0
M  END
$$$$
