PYL.pdb
     RDKit          3D

 28 29  0  0  1  0  0  0  0  0999 V2000
    8.2153  -19.0108   20.0219 N   0  0  0  0  0  0  0  0  0  0  0  0
    7.9844  -19.5902   18.6937 C   0  0  0  0  0  0  0  0  0  0  0  0
    6.6526  -20.3155   18.9380 C   0  0  0  0  0  0  0  0  0  0  0  0
    5.9005  -19.2518   19.7404 C   0  0  0  0  0  0  0  0  0  0  0  0
    6.9732  -18.3386   20.2567 C   0  0  1  0  0  0  0  0  0  0  0  0
    6.7763  -17.9306   21.6672 C   0  0  0  0  0  0  0  0  0  0  0  0
    5.7021  -17.3404   21.9516 O   0  0  0  0  0  0  0  0  0  0  0  0
    5.6958  -23.9395   25.3844 O   0  0  0  0  0  0  0  0  0  0  0  0
    6.3103  -22.6876   25.2900 C   0  0  0  0  0  0  0  0  0  0  0  0
    7.4337  -22.4866   24.5269 C   0  0  0  0  0  0  0  0  0  0  0  0
    8.0367  -21.2523   24.4358 C   0  0  0  0  0  0  0  0  0  0  0  0
    7.5358  -20.1529   25.1122 C   0  0  0  0  0  0  0  0  0  0  0  0
    8.1559  -18.8320   25.0263 C   0  0  0  0  0  0  0  0  0  0  0  0
    7.5306  -17.8788   24.0651 C   0  0  2  0  0  0  0  0  0  0  0  0
    7.7317  -18.1749   22.6845 N   0  0  0  0  0  0  0  0  0  0  0  0
    8.0069  -16.5066   24.4252 C   0  0  0  0  0  0  0  0  0  0  0  0
    9.1456  -16.1716   24.0249 O   0  0  0  0  0  0  0  0  0  0  0  0
    6.4104  -20.3613   25.8747 C   0  0  0  0  0  0  0  0  0  0  0  0
    5.7948  -21.5961   25.9747 C   0  0  0  0  0  0  0  0  0  0  0  0
    7.8050  -11.6483   27.3548 C   0  0  0  0  0  0  0  0  0  0  0  0
    6.8615  -11.9622   26.2660 C   0  0  2  0  0  0  0  0  0  0  0  0
    5.5285  -11.2414   26.5385 C   0  0  0  0  0  0  0  0  0  0  0  0
    6.6320  -13.3592   25.8633 C   0  0  0  0  0  0  0  0  0  0  0  0
    7.7542  -14.2494   25.5565 C   0  0  2  0  0  0  0  0  0  0  0  0
    7.2539  -15.5890   25.1774 N   0  0  0  0  0  0  0  0  0  0  0  0
    8.7279  -14.4749   26.6176 C   0  0  0  0  0  0  0  0  0  0  0  0
    8.5824  -15.1684   27.6480 O   0  0  0  0  0  0  0  0  0  0  0  0
   10.0076  -13.8659   26.5312 O   0  0  0  0  0  0  0  0  0  0  0  0
  1  5  1  0
  2  3  1  0
  2  1  1  0
  3  4  1  0
  4  5  1  0
  5  6  1  1
  6  7  2  0
  9 10  2  0
  9  8  1  0
 11 10  1  0
 12 11  2  0
 13 12  1  0
 14 13  1  1
 14 16  1  0
 15  6  1  0
 15 14  1  0
 16 25  1  0
 16 17  2  0
 18 12  1  0
 18 19  2  0
 19  9  1  0
 21 20  1  1
 21 23  1  0
 22 21  1  0
 24 23  1  1
 24 26  1  0
 25 24  1  0
 26 27  2  0
 26 28  1  0
M  END
$$$$
