HQW.pdb
     RDKit          3D

 34 36  0  0  1  0  0  0  0  0999 V2000
    7.3752  -16.9093   20.0372 N   0  0  0  0  0  0  0  0  0  0  0  0
    8.5867  -16.2602   20.4382 C   0  0  1  0  0  0  0  0  0  0  0  0
    8.4463  -14.7876   20.6652 C   0  0  0  0  0  0  0  0  0  0  0  0
    8.2655  -14.0079   19.4317 C   0  0  0  0  0  0  0  0  0  0  0  0
    8.1747  -14.3992   18.1147 C   0  0  0  0  0  0  0  0  0  0  0  0
    8.0116  -13.3396   17.3190 N   0  0  0  0  0  0  0  0  0  0  0  0
    7.9993  -12.2647   18.1447 C   0  0  0  0  0  0  0  0  0  0  0  0
    8.1513  -12.6675   19.4078 N   0  0  0  0  0  0  0  0  0  0  0  0
    9.0134  -16.8698   21.7435 C   0  0  0  0  0  0  0  0  0  0  0  0
    8.1677  -17.3532   22.5557 O   0  0  0  0  0  0  0  0  0  0  0  0
   14.7523  -20.3177   23.4475 N   0  0  0  0  0  0  0  0  0  0  0  0
   14.3213  -19.0020   23.7830 C   0  0  0  0  0  0  0  0  0  0  0  0
   15.1048  -18.0317   23.8018 O   0  0  0  0  0  0  0  0  0  0  0  0
   12.8651  -18.7990   24.1232 C   0  0  0  0  0  0  0  0  0  0  0  0
   12.2517  -18.0021   23.0200 C   0  0  0  0  0  0  0  0  0  0  0  0
   10.8086  -17.6215   23.3018 C   0  0  2  0  0  0  0  0  0  0  0  0
   10.3798  -16.9098   22.0798 N   0  0  0  0  0  0  0  0  0  0  0  0
   10.6132  -16.7926   24.4801 C   0  0  0  0  0  0  0  0  0  0  0  0
   10.8606  -15.5551   24.3917 O   0  0  0  0  0  0  0  0  0  0  0  0
   10.1607  -17.3278   25.6875 N   0  0  0  0  0  0  0  0  0  0  0  0
   10.0565  -16.6338   26.9492 C   0  0  1  0  0  0  0  0  0  0  0  0
    8.6350  -16.7062   27.4157 C   0  0  0  0  0  0  0  0  0  0  0  0
    7.7158  -15.9020   26.5725 C   0  0  0  0  0  0  0  0  0  0  0  0
    6.8003  -16.3135   25.6311 C   0  0  0  0  0  0  0  0  0  0  0  0
    6.2015  -15.2459   25.1265 N   0  0  0  0  0  0  0  0  0  0  0  0
    6.6567  -14.1245   25.6708 C   0  0  0  0  0  0  0  0  0  0  0  0
    6.3360  -12.8004   25.4630 C   0  0  0  0  0  0  0  0  0  0  0  0
    6.9840  -11.7999   26.1881 C   0  0  0  0  0  0  0  0  0  0  0  0
    7.9329  -12.1831   27.0966 C   0  0  0  0  0  0  0  0  0  0  0  0
    8.2401  -13.5015   27.2915 C   0  0  0  0  0  0  0  0  0  0  0  0
    7.6182  -14.5128   26.5912 C   0  0  0  0  0  0  0  0  0  0  0  0
   11.0310  -17.1250   27.9691 C   0  0  0  0  0  0  0  0  0  0  0  0
   11.7039  -18.1384   27.7296 O   0  0  0  0  0  0  0  0  0  0  0  0
   11.2160  -16.4950   29.1751 O   0  0  0  0  0  0  0  0  0  0  0  0
  2  1  1  1
  3  2  1  0
  4  3  1  0
  5  4  2  0
  6  5  1  0
  7  6  1  0
  7  8  2  0
  8  4  1  0
  9  2  1  0
 10  9  2  0
 12 11  1  0
 12 14  1  0
 13 12  2  0
 15 14  1  0
 16 17  1  0
 16 15  1  6
 17  9  1  0
 18 16  1  0
 19 18  2  0
 20 18  1  0
 21 20  1  0
 22 23  1  0
 21 22  1  1
 23 24  2  0
 24 25  1  0
 26 27  2  0
 26 25  1  0
 28 27  1  0
 29 28  2  0
 30 29  1  0
 30 31  2  0
 31 23  1  0
 31 26  1  0
 32 21  1  0
 32 34  1  0
 33 32  2  0
M  END
$$$$
