HQW.pdb
     RDKit          3D

 34 36  0  0  1  0  0  0  0  0999 V2000
    9.4108  -16.7545   19.9321 N   0  0  0  0  0  0  0  0  0  0  0  0
    9.7096  -15.8057   20.9619 C   0  0  1  0  0  0  0  0  0  0  0  0
    8.5408  -14.9720   21.3843 C   0  0  0  0  0  0  0  0  0  0  0  0
    7.9918  -14.1272   20.3133 C   0  0  0  0  0  0  0  0  0  0  0  0
    8.5196  -13.0407   19.6523 C   0  0  0  0  0  0  0  0  0  0  0  0
    7.6588  -12.5798   18.7419 N   0  0  0  0  0  0  0  0  0  0  0  0
    6.5726  -13.3860   18.8291 C   0  0  0  0  0  0  0  0  0  0  0  0
    6.7747  -14.3107   19.7697 N   0  0  0  0  0  0  0  0  0  0  0  0
   10.1605  -16.5783   22.1690 C   0  0  0  0  0  0  0  0  0  0  0  0
    9.6227  -17.6820   22.4869 O   0  0  0  0  0  0  0  0  0  0  0  0
   15.9358  -15.9933   23.4155 N   0  0  0  0  0  0  0  0  0  0  0  0
   15.1404  -16.5748   22.3866 C   0  0  0  0  0  0  0  0  0  0  0  0
   15.6450  -17.1800   21.4198 O   0  0  0  0  0  0  0  0  0  0  0  0
   13.6407  -16.4419   22.4904 C   0  0  0  0  0  0  0  0  0  0  0  0
   13.2501  -16.8213   23.8803 C   0  0  0  0  0  0  0  0  0  0  0  0
   11.7449  -16.9018   24.0667 C   0  0  2  0  0  0  0  0  0  0  0  0
   11.2025  -16.0734   22.9697 N   0  0  0  0  0  0  0  0  0  0  0  0
   11.2621  -16.4352   25.3562 C   0  0  0  0  0  0  0  0  0  0  0  0
   11.8297  -15.4355   25.8842 O   0  0  0  0  0  0  0  0  0  0  0  0
   10.1974  -17.0575   26.0105 N   0  0  0  0  0  0  0  0  0  0  0  0
    9.7405  -16.7904   27.3538 C   0  0  1  0  0  0  0  0  0  0  0  0
    8.2428  -16.8106   27.3594 C   0  0  0  0  0  0  0  0  0  0  0  0
    7.6549  -15.8093   26.4352 C   0  0  0  0  0  0  0  0  0  0  0  0
    6.9511  -15.9975   25.2677 C   0  0  0  0  0  0  0  0  0  0  0  0
    6.6213  -14.8135   24.7755 N   0  0  0  0  0  0  0  0  0  0  0  0
    7.0608  -13.8235   25.5421 C   0  0  0  0  0  0  0  0  0  0  0  0
    6.9576  -12.4536   25.4310 C   0  0  0  0  0  0  0  0  0  0  0  0
    7.5251  -11.6269   26.4011 C   0  0  0  0  0  0  0  0  0  0  0  0
    8.1755  -12.2236   27.4469 C   0  0  0  0  0  0  0  0  0  0  0  0
    8.2694  -13.5847   27.5431 C   0  0  0  0  0  0  0  0  0  0  0  0
    7.7198  -14.4280   26.6015 C   0  0  0  0  0  0  0  0  0  0  0  0
   10.3403  -17.7075   28.3688 C   0  0  0  0  0  0  0  0  0  0  0  0
   10.9806  -18.6993   27.9901 O   0  0  0  0  0  0  0  0  0  0  0  0
   10.2114  -17.4972   29.7195 O   0  0  0  0  0  0  0  0  0  0  0  0
  2  1  1  6
  3  2  1  0
  4  3  1  0
  5  4  2  0
  6  5  1  0
  7  6  1  0
  7  8  2  0
  8  4  1  0
  9  2  1  0
 10  9  2  0
 12 11  1  0
 12 14  1  0
 13 12  2  0
 15 14  1  0
 16 17  1  0
 16 15  1  1
 17  9  1  0
 18 16  1  0
 19 18  2  0
 20 18  1  0
 21 20  1  0
 22 23  1  0
 21 22  1  6
 23 24  2  0
 24 25  1  0
 26 27  2  0
 26 25  1  0
 28 27  1  0
 29 28  2  0
 30 29  1  0
 30 31  2  0
 31 23  1  0
 31 26  1  0
 32 21  1  0
 32 34  1  0
 33 32  2  0
M  END
$$$$
