HQW.pdb
     RDKit          3D

 34 36  0  0  1  0  0  0  0  0999 V2000
    8.5621  -17.1243   19.4428 N   0  0  0  0  0  0  0  0  0  0  0  0
    9.0719  -16.1254   20.3329 C   0  0  1  0  0  0  0  0  0  0  0  0
    8.1766  -14.9376   20.4979 C   0  0  0  0  0  0  0  0  0  0  0  0
    8.0159  -14.1366   19.2753 C   0  0  0  0  0  0  0  0  0  0  0  0
    8.4052  -12.8507   18.9739 C   0  0  0  0  0  0  0  0  0  0  0  0
    8.0464  -12.5299   17.7285 N   0  0  0  0  0  0  0  0  0  0  0  0
    7.4222  -13.6281   17.2368 C   0  0  0  0  0  0  0  0  0  0  0  0
    7.4056  -14.5875   18.1642 N   0  0  0  0  0  0  0  0  0  0  0  0
    9.2174  -16.7605   21.6867 C   0  0  0  0  0  0  0  0  0  0  0  0
    8.3146  -17.5116   22.1655 O   0  0  0  0  0  0  0  0  0  0  0  0
   13.6352  -20.7897   23.3032 N   0  0  0  0  0  0  0  0  0  0  0  0
   13.7260  -19.5523   24.0032 C   0  0  0  0  0  0  0  0  0  0  0  0
   14.8208  -19.0081   24.2496 O   0  0  0  0  0  0  0  0  0  0  0  0
   12.4428  -18.8966   24.4517 C   0  0  0  0  0  0  0  0  0  0  0  0
   11.9499  -18.0527   23.3233 C   0  0  0  0  0  0  0  0  0  0  0  0
   10.6456  -17.3443   23.6452 C   0  0  2  0  0  0  0  0  0  0  0  0
   10.3783  -16.5223   22.4466 N   0  0  0  0  0  0  0  0  0  0  0  0
   10.6760  -16.5203   24.8426 C   0  0  0  0  0  0  0  0  0  0  0  0
   11.3623  -15.4578   24.8234 O   0  0  0  0  0  0  0  0  0  0  0  0
    9.9694  -16.8723   25.9941 N   0  0  0  0  0  0  0  0  0  0  0  0
   10.0205  -16.2019   27.2717 C   0  0  1  0  0  0  0  0  0  0  0  0
    8.6383  -16.1708   27.8479 C   0  0  0  0  0  0  0  0  0  0  0  0
    7.6658  -15.4837   26.9620 C   0  0  0  0  0  0  0  0  0  0  0  0
    6.7171  -16.0153   26.1188 C   0  0  0  0  0  0  0  0  0  0  0  0
    6.0746  -15.0227   25.5232 N   0  0  0  0  0  0  0  0  0  0  0  0
    6.5314  -13.8390   25.9122 C   0  0  0  0  0  0  0  0  0  0  0  0
    6.1750  -12.5529   25.5682 C   0  0  0  0  0  0  0  0  0  0  0  0
    6.8348  -11.4654   26.1415 C   0  0  0  0  0  0  0  0  0  0  0  0
    7.8314  -11.7263   27.0422 C   0  0  0  0  0  0  0  0  0  0  0  0
    8.1737  -13.0084   27.3733 C   0  0  0  0  0  0  0  0  0  0  0  0
    7.5411  -14.1034   26.8247 C   0  0  0  0  0  0  0  0  0  0  0  0
   11.0276  -16.7935   28.2028 C   0  0  0  0  0  0  0  0  0  0  0  0
   11.5482  -17.8835   27.9237 O   0  0  0  0  0  0  0  0  0  0  0  0
   11.4061  -16.1748   29.3687 O   0  0  0  0  0  0  0  0  0  0  0  0
  2  1  1  6
  3  2  1  0
  4  3  1  0
  5  4  2  0
  6  5  1  0
  7  6  1  0
  7  8  2  0
  8  4  1  0
  9  2  1  0
 10  9  2  0
 12 11  1  0
 12 14  1  0
 13 12  2  0
 15 14  1  0
 16 17  1  0
 16 15  1  6
 17  9  1  0
 18 16  1  0
 19 18  2  0
 20 18  1  0
 21 20  1  0
 22 23  1  0
 21 22  1  1
 23 24  2  0
 24 25  1  0
 26 27  2  0
 26 25  1  0
 28 27  1  0
 29 28  2  0
 30 29  1  0
 30 31  2  0
 31 23  1  0
 31 26  1  0
 32 21  1  0
 32 34  1  0
 33 32  2  0
M  END
$$$$
