HQW.pdb
     RDKit          3D

 34 36  0  0  1  0  0  0  0  0999 V2000
    7.2624  -20.0614   20.9270 N   0  0  0  0  0  0  0  0  0  0  0  0
    6.8587  -18.9566   21.7433 C   0  0  1  0  0  0  0  0  0  0  0  0
    6.6616  -19.3010   23.1863 C   0  0  0  0  0  0  0  0  0  0  0  0
    5.5723  -20.2585   23.4282 C   0  0  0  0  0  0  0  0  0  0  0  0
    4.7366  -20.9227   22.5584 C   0  0  0  0  0  0  0  0  0  0  0  0
    3.8849  -21.7034   23.2275 N   0  0  0  0  0  0  0  0  0  0  0  0
    4.1869  -21.5298   24.5375 C   0  0  0  0  0  0  0  0  0  0  0  0
    5.1966  -20.6652   24.6545 N   0  0  0  0  0  0  0  0  0  0  0  0
    7.9511  -17.9270   21.6799 C   0  0  0  0  0  0  0  0  0  0  0  0
    9.1618  -18.2575   21.4968 O   0  0  0  0  0  0  0  0  0  0  0  0
    7.2508  -12.5053   18.9092 N   0  0  0  0  0  0  0  0  0  0  0  0
    7.7377  -13.8274   18.6986 C   0  0  0  0  0  0  0  0  0  0  0  0
    7.3249  -14.5459   17.7664 O   0  0  0  0  0  0  0  0  0  0  0  0
    8.7869  -14.3551   19.6464 C   0  0  0  0  0  0  0  0  0  0  0  0
    8.1754  -14.4151   21.0069 C   0  0  0  0  0  0  0  0  0  0  0  0
    8.7172  -15.5601   21.8449 C   0  0  2  0  0  0  0  0  0  0  0  0
    7.6325  -16.5636   21.8255 N   0  0  0  0  0  0  0  0  0  0  0  0
    9.0711  -15.2056   23.2097 C   0  0  0  0  0  0  0  0  0  0  0  0
    8.8122  -14.0346   23.6125 O   0  0  0  0  0  0  0  0  0  0  0  0
    9.6782  -16.1205   24.0719 N   0  0  0  0  0  0  0  0  0  0  0  0
   10.1640  -15.8525   25.4048 C   0  0  1  0  0  0  0  0  0  0  0  0
    9.0865  -16.2060   26.3834 C   0  0  0  0  0  0  0  0  0  0  0  0
    7.8564  -15.3975   26.1949 C   0  0  0  0  0  0  0  0  0  0  0  0
    6.6183  -15.7765   25.7289 C   0  0  0  0  0  0  0  0  0  0  0  0
    5.8222  -14.7187   25.7301 N   0  0  0  0  0  0  0  0  0  0  0  0
    6.4472  -13.6345   26.1718 C   0  0  0  0  0  0  0  0  0  0  0  0
    6.0285  -12.3329   26.3446 C   0  0  0  0  0  0  0  0  0  0  0  0
    6.9119  -11.3717   26.8367 C   0  0  0  0  0  0  0  0  0  0  0  0
    8.1869  -11.7698   27.1345 C   0  0  0  0  0  0  0  0  0  0  0  0
    8.5875  -13.0655   26.9575 C   0  0  0  0  0  0  0  0  0  0  0  0
    7.7390  -14.0379   26.4733 C   0  0  0  0  0  0  0  0  0  0  0  0
   11.4641  -16.5259   25.6999 C   0  0  0  0  0  0  0  0  0  0  0  0
   11.9403  -17.3186   24.8741 O   0  0  0  0  0  0  0  0  0  0  0  0
   12.1631  -16.3024   26.8605 O   0  0  0  0  0  0  0  0  0  0  0  0
  2  1  1  6
  3  2  1  0
  4  3  1  0
  5  4  2  0
  6  5  1  0
  7  6  1  0
  7  8  2  0
  8  4  1  0
  9  2  1  0
 10  9  2  0
 12 11  1  0
 12 14  1  0
 13 12  2  0
 15 14  1  0
 16 17  1  0
 16 15  1  6
 17  9  1  0
 18 16  1  0
 19 18  2  0
 20 18  1  0
 21 20  1  0
 22 23  1  0
 21 22  1  1
 23 24  2  0
 24 25  1  0
 26 27  2  0
 26 25  1  0
 28 27  1  0
 29 28  2  0
 30 29  1  0
 30 31  2  0
 31 23  1  0
 31 26  1  0
 32 21  1  0
 32 34  1  0
 33 32  2  0
M  END
$$$$
