HQW.pdb
     RDKit          3D

 34 36  0  0  1  0  0  0  0  0999 V2000
    8.2739  -17.0135   19.5900 N   0  0  0  0  0  0  0  0  0  0  0  0
    8.9708  -16.1306   20.4757 C   0  0  1  0  0  0  0  0  0  0  0  0
    8.2444  -14.8545   20.7652 C   0  0  0  0  0  0  0  0  0  0  0  0
    8.0723  -13.9860   19.5913 C   0  0  0  0  0  0  0  0  0  0  0  0
    8.6204  -12.7622   19.2784 C   0  0  0  0  0  0  0  0  0  0  0  0
    8.1765  -12.3367   18.0933 N   0  0  0  0  0  0  0  0  0  0  0  0
    7.3367  -13.3049   17.6519 C   0  0  0  0  0  0  0  0  0  0  0  0
    7.2765  -14.2901   18.5499 N   0  0  0  0  0  0  0  0  0  0  0  0
    9.1419  -16.8483   21.7845 C   0  0  0  0  0  0  0  0  0  0  0  0
    8.1576  -17.3829   22.3794 O   0  0  0  0  0  0  0  0  0  0  0  0
   14.3125  -19.4847   23.1128 N   0  0  0  0  0  0  0  0  0  0  0  0
   13.6333  -19.8975   24.2950 C   0  0  0  0  0  0  0  0  0  0  0  0
   14.1407  -20.6966   25.1071 O   0  0  0  0  0  0  0  0  0  0  0  0
   12.2560  -19.3369   24.5528 C   0  0  0  0  0  0  0  0  0  0  0  0
   11.9352  -18.3994   23.4363 C   0  0  0  0  0  0  0  0  0  0  0  0
   10.5977  -17.7033   23.6192 C   0  0  2  0  0  0  0  0  0  0  0  0
   10.4193  -16.9345   22.3698 N   0  0  0  0  0  0  0  0  0  0  0  0
   10.5148  -16.8322   24.7802 C   0  0  0  0  0  0  0  0  0  0  0  0
   11.0678  -15.6960   24.7194 O   0  0  0  0  0  0  0  0  0  0  0  0
    9.8432  -17.2186   25.9415 N   0  0  0  0  0  0  0  0  0  0  0  0
    9.8289  -16.5125   27.2007 C   0  0  1  0  0  0  0  0  0  0  0  0
    8.4077  -16.3774   27.6539 C   0  0  0  0  0  0  0  0  0  0  0  0
    7.5535  -15.6870   26.6558 C   0  0  0  0  0  0  0  0  0  0  0  0
    6.6442  -16.2103   25.7652 C   0  0  0  0  0  0  0  0  0  0  0  0
    6.1139  -15.2178   25.0677 N   0  0  0  0  0  0  0  0  0  0  0  0
    6.6101  -14.0421   25.4317 C   0  0  0  0  0  0  0  0  0  0  0  0
    6.3623  -12.7592   24.9933 C   0  0  0  0  0  0  0  0  0  0  0  0
    7.0399  -11.6806   25.5625 C   0  0  0  0  0  0  0  0  0  0  0  0
    7.9433  -11.9467   26.5554 C   0  0  0  0  0  0  0  0  0  0  0  0
    8.1783  -13.2255   26.9796 C   0  0  0  0  0  0  0  0  0  0  0  0
    7.5254  -14.3118   26.4375 C   0  0  0  0  0  0  0  0  0  0  0  0
   10.7131  -17.1357   28.2308 C   0  0  0  0  0  0  0  0  0  0  0  0
   11.2508  -18.2269   27.9917 O   0  0  0  0  0  0  0  0  0  0  0  0
   10.9588  -16.5452   29.4458 O   0  0  0  0  0  0  0  0  0  0  0  0
  2  1  1  6
  3  2  1  0
  4  3  1  0
  5  4  2  0
  6  5  1  0
  7  6  1  0
  7  8  2  0
  8  4  1  0
  9  2  1  0
 10  9  2  0
 12 11  1  0
 12 14  1  0
 13 12  2  0
 15 14  1  0
 16 17  1  0
 16 15  1  6
 17  9  1  0
 18 16  1  0
 19 18  2  0
 20 18  1  0
 21 20  1  0
 22 23  1  0
 21 22  1  1
 23 24  2  0
 24 25  1  0
 26 27  2  0
 26 25  1  0
 28 27  1  0
 29 28  2  0
 30 29  1  0
 30 31  2  0
 31 23  1  0
 31 26  1  0
 32 21  1  0
 32 34  1  0
 33 32  2  0
M  END
$$$$
