HQW.pdb
     RDKit          3D

 34 36  0  0  1  0  0  0  0  0999 V2000
    7.2717  -17.0423   19.9087 N   0  0  0  0  0  0  0  0  0  0  0  0
    8.3884  -16.4096   20.5430 C   0  0  1  0  0  0  0  0  0  0  0  0
    8.1436  -14.9868   20.9374 C   0  0  0  0  0  0  0  0  0  0  0  0
    8.1839  -14.0402   19.8129 C   0  0  0  0  0  0  0  0  0  0  0  0
    8.4474  -14.2297   18.4748 C   0  0  0  0  0  0  0  0  0  0  0  0
    8.3731  -13.0731   17.8120 N   0  0  0  0  0  0  0  0  0  0  0  0
    8.0583  -12.1407   18.7441 C   0  0  0  0  0  0  0  0  0  0  0  0
    7.9457  -12.7221   19.9400 N   0  0  0  0  0  0  0  0  0  0  0  0
    8.6825  -17.1731   21.8032 C   0  0  0  0  0  0  0  0  0  0  0  0
    7.7580  -17.7256   22.4728 O   0  0  0  0  0  0  0  0  0  0  0  0
   13.5855  -20.3563   22.4485 N   0  0  0  0  0  0  0  0  0  0  0  0
   13.2296  -20.4419   23.8252 C   0  0  0  0  0  0  0  0  0  0  0  0
   13.9029  -21.0975   24.6452 O   0  0  0  0  0  0  0  0  0  0  0  0
   11.9935  -19.7075   24.2840 C   0  0  0  0  0  0  0  0  0  0  0  0
   11.5638  -18.8100   23.1713 C   0  0  0  0  0  0  0  0  0  0  0  0
   10.2971  -18.0372   23.4951 C   0  0  2  0  0  0  0  0  0  0  0  0
   10.0105  -17.2827   22.2572 N   0  0  0  0  0  0  0  0  0  0  0  0
   10.4012  -17.1417   24.6357 C   0  0  0  0  0  0  0  0  0  0  0  0
   10.9124  -15.9984   24.4570 O   0  0  0  0  0  0  0  0  0  0  0  0
    9.9506  -17.5128   25.9039 N   0  0  0  0  0  0  0  0  0  0  0  0
   10.0575  -16.7342   27.1150 C   0  0  1  0  0  0  0  0  0  0  0  0
    8.6978  -16.6304   27.7349 C   0  0  0  0  0  0  0  0  0  0  0  0
    7.7254  -15.9255   26.8632 C   0  0  0  0  0  0  0  0  0  0  0  0
    6.6987  -16.4341   26.1009 C   0  0  0  0  0  0  0  0  0  0  0  0
    6.0911  -15.4321   25.4847 N   0  0  0  0  0  0  0  0  0  0  0  0
    6.6454  -14.2639   25.7829 C   0  0  0  0  0  0  0  0  0  0  0  0
    6.3560  -12.9761   25.3865 C   0  0  0  0  0  0  0  0  0  0  0  0
    7.1165  -11.9080   25.8633 C   0  0  0  0  0  0  0  0  0  0  0  0
    8.1419  -12.1893   26.7248 C   0  0  0  0  0  0  0  0  0  0  0  0
    8.4168  -13.4728   27.1089 C   0  0  0  0  0  0  0  0  0  0  0  0
    7.6844  -14.5489   26.6556 C   0  0  0  0  0  0  0  0  0  0  0  0
   11.0902  -17.2586   28.0582 C   0  0  0  0  0  0  0  0  0  0  0  0
   11.6472  -18.3385   27.8120 O   0  0  0  0  0  0  0  0  0  0  0  0
   11.4536  -16.5882   29.2001 O   0  0  0  0  0  0  0  0  0  0  0  0
  2  1  1  1
  3  2  1  0
  4  3  1  0
  5  4  2  0
  6  5  1  0
  7  6  1  0
  7  8  2  0
  8  4  1  0
  9  2  1  0
 10  9  2  0
 12 11  1  0
 12 14  1  0
 13 12  2  0
 15 14  1  0
 16 17  1  0
 16 15  1  6
 17  9  1  0
 18 16  1  0
 19 18  2  0
 20 18  1  0
 21 20  1  0
 22 23  1  0
 21 22  1  1
 23 24  2  0
 24 25  1  0
 26 27  2  0
 26 25  1  0
 28 27  1  0
 29 28  2  0
 30 29  1  0
 30 31  2  0
 31 23  1  0
 31 26  1  0
 32 21  1  0
 32 34  1  0
 33 32  2  0
M  END
$$$$
