HQW.pdb
     RDKit          3D

 34 36  0  0  1  0  0  0  0  0999 V2000
   10.0827  -15.5756   18.9632 N   0  0  0  0  0  0  0  0  0  0  0  0
    9.1220  -14.9200   19.7981 C   0  0  1  0  0  0  0  0  0  0  0  0
    7.7834  -14.7275   19.1571 C   0  0  0  0  0  0  0  0  0  0  0  0
    7.8474  -14.1788   17.7944 C   0  0  0  0  0  0  0  0  0  0  0  0
    8.1218  -12.9088   17.3383 C   0  0  0  0  0  0  0  0  0  0  0  0
    8.0693  -12.8660   16.0049 N   0  0  0  0  0  0  0  0  0  0  0  0
    7.7577  -14.1259   15.6137 C   0  0  0  0  0  0  0  0  0  0  0  0
    7.6256  -14.9088   16.6862 N   0  0  0  0  0  0  0  0  0  0  0  0
    8.9120  -15.7854   21.0082 C   0  0  0  0  0  0  0  0  0  0  0  0
    7.9913  -15.5401   21.8453 O   0  0  0  0  0  0  0  0  0  0  0  0
   12.4523  -20.9696   22.1393 N   0  0  0  0  0  0  0  0  0  0  0  0
   12.0850  -20.1833   21.0096 C   0  0  0  0  0  0  0  0  0  0  0  0
   12.2391  -20.5889   19.8403 O   0  0  0  0  0  0  0  0  0  0  0  0
   11.4923  -18.8181   21.2597 C   0  0  0  0  0  0  0  0  0  0  0  0
   10.3055  -18.9981   22.1472 C   0  0  0  0  0  0  0  0  0  0  0  0
    9.6034  -17.6888   22.4627 C   0  0  2  0  0  0  0  0  0  0  0  0
    9.7508  -16.8950   21.2249 N   0  0  0  0  0  0  0  0  0  0  0  0
   10.1373  -16.9684   23.6071 C   0  0  0  0  0  0  0  0  0  0  0  0
   11.1555  -16.2375   23.4351 O   0  0  0  0  0  0  0  0  0  0  0  0
    9.5537  -17.0634   24.8718 N   0  0  0  0  0  0  0  0  0  0  0  0
   10.0305  -16.4453   26.0863 C   0  0  1  0  0  0  0  0  0  0  0  0
    9.7548  -14.9749   26.0113 C   0  0  0  0  0  0  0  0  0  0  0  0
    8.3088  -14.6717   25.8706 C   0  0  0  0  0  0  0  0  0  0  0  0
    7.2607  -15.5097   25.5655 C   0  0  0  0  0  0  0  0  0  0  0  0
    6.1425  -14.8012   25.5471 N   0  0  0  0  0  0  0  0  0  0  0  0
    6.3667  -13.5227   25.8230 C   0  0  0  0  0  0  0  0  0  0  0  0
    5.5241  -12.4360   25.9150 C   0  0  0  0  0  0  0  0  0  0  0  0
    6.0362  -11.1762   26.2270 C   0  0  0  0  0  0  0  0  0  0  0  0
    7.3847  -11.0688   26.4335 C   0  0  0  0  0  0  0  0  0  0  0  0
    8.2080  -12.1568   26.3386 C   0  0  0  0  0  0  0  0  0  0  0  0
    7.7330  -13.4139   26.0322 C   0  0  0  0  0  0  0  0  0  0  0  0
    9.4794  -17.0800   27.3210 C   0  0  0  0  0  0  0  0  0  0  0  0
    9.9079  -16.7278   28.4298 O   0  0  0  0  0  0  0  0  0  0  0  0
    8.5069  -18.0486   27.2805 O   0  0  0  0  0  0  0  0  0  0  0  0
  2  1  1  6
  3  2  1  0
  4  3  1  0
  5  4  2  0
  6  5  1  0
  7  6  1  0
  7  8  2  0
  8  4  1  0
  9  2  1  0
 10  9  2  0
 12 11  1  0
 12 14  1  0
 13 12  2  0
 15 14  1  0
 16 17  1  0
 16 15  1  6
 17  9  1  0
 18 16  1  0
 19 18  2  0
 20 18  1  0
 21 20  1  0
 22 23  1  0
 21 22  1  6
 23 24  2  0
 24 25  1  0
 26 27  2  0
 26 25  1  0
 28 27  1  0
 29 28  2  0
 30 29  1  0
 30 31  2  0
 31 23  1  0
 31 26  1  0
 32 21  1  0
 32 34  1  0
 33 32  2  0
M  END
$$$$
