HQW.pdb
     RDKit          3D

 34 36  0  0  1  0  0  0  0  0999 V2000
    8.9472  -16.9174   17.6372 N   0  0  0  0  0  0  0  0  0  0  0  0
    9.7329  -16.0911   18.5031 C   0  0  1  0  0  0  0  0  0  0  0  0
    9.2734  -14.6686   18.5753 C   0  0  0  0  0  0  0  0  0  0  0  0
    8.6441  -14.1810   17.3390 C   0  0  0  0  0  0  0  0  0  0  0  0
    7.5483  -13.3726   17.1351 C   0  0  0  0  0  0  0  0  0  0  0  0
    7.3351  -13.1890   15.8300 N   0  0  0  0  0  0  0  0  0  0  0  0
    8.3096  -13.8908   15.2012 C   0  0  0  0  0  0  0  0  0  0  0  0
    9.0910  -14.4831   16.1064 N   0  0  0  0  0  0  0  0  0  0  0  0
    9.6253  -16.6611   19.8891 C   0  0  0  0  0  0  0  0  0  0  0  0
    8.7383  -16.2602   20.7022 O   0  0  0  0  0  0  0  0  0  0  0  0
   12.7270  -21.6779   21.5277 N   0  0  0  0  0  0  0  0  0  0  0  0
   11.7094  -21.6377   20.5315 C   0  0  0  0  0  0  0  0  0  0  0  0
   11.5516  -22.5598   19.7066 O   0  0  0  0  0  0  0  0  0  0  0  0
   10.8048  -20.4304   20.4915 C   0  0  0  0  0  0  0  0  0  0  0  0
   11.2290  -19.5132   21.5903 C   0  0  0  0  0  0  0  0  0  0  0  0
   10.3942  -18.2460   21.6535 C   0  0  2  0  0  0  0  0  0  0  0  0
   10.5243  -17.6625   20.3020 N   0  0  0  0  0  0  0  0  0  0  0  0
   10.8049  -17.2927   22.6714 C   0  0  0  0  0  0  0  0  0  0  0  0
   12.0426  -17.1190   22.8673 O   0  0  0  0  0  0  0  0  0  0  0  0
    9.8732  -16.5735   23.4223 N   0  0  0  0  0  0  0  0  0  0  0  0
   10.1601  -15.6819   24.5210 C   0  0  1  0  0  0  0  0  0  0  0  0
    9.3991  -14.4088   24.3113 C   0  0  0  0  0  0  0  0  0  0  0  0
    8.1486  -14.3534   25.1086 C   0  0  0  0  0  0  0  0  0  0  0  0
    7.3094  -15.3717   25.4992 C   0  0  0  0  0  0  0  0  0  0  0  0
    6.3118  -14.8545   26.1992 N   0  0  0  0  0  0  0  0  0  0  0  0
    6.4212  -13.5367   26.3099 C   0  0  0  0  0  0  0  0  0  0  0  0
    5.6342  -12.5937   26.9351 C   0  0  0  0  0  0  0  0  0  0  0  0
    5.9899  -11.2452   26.8945 C   0  0  0  0  0  0  0  0  0  0  0  0
    7.1316  -10.9065   26.2204 C   0  0  0  0  0  0  0  0  0  0  0  0
    7.9023  -11.8540   25.6049 C   0  0  0  0  0  0  0  0  0  0  0  0
    7.5779  -13.1935   25.6269 C   0  0  0  0  0  0  0  0  0  0  0  0
    9.9068  -16.2997   25.8571 C   0  0  0  0  0  0  0  0  0  0  0  0
    9.2099  -17.3223   25.9326 O   0  0  0  0  0  0  0  0  0  0  0  0
   10.4184  -15.7776   27.0194 O   0  0  0  0  0  0  0  0  0  0  0  0
  2  1  1  6
  3  2  1  0
  4  3  1  0
  5  4  2  0
  6  5  1  0
  7  6  1  0
  7  8  2  0
  8  4  1  0
  9  2  1  0
 10  9  2  0
 12 11  1  0
 12 14  1  0
 13 12  2  0
 15 14  1  0
 16 17  1  0
 16 15  1  6
 17  9  1  0
 18 16  1  0
 19 18  2  0
 20 18  1  0
 21 20  1  0
 22 23  1  0
 21 22  1  6
 23 24  2  0
 24 25  1  0
 26 27  2  0
 26 25  1  0
 28 27  1  0
 29 28  2  0
 30 29  1  0
 30 31  2  0
 31 23  1  0
 31 26  1  0
 32 21  1  0
 32 34  1  0
 33 32  2  0
M  END
$$$$
