HQW.pdb
     RDKit          3D

 34 36  0  0  1  0  0  0  0  0999 V2000
    7.9542  -16.9702   19.4572 N   0  0  0  0  0  0  0  0  0  0  0  0
    8.6626  -16.1314   20.3762 C   0  0  1  0  0  0  0  0  0  0  0  0
    8.0363  -14.7887   20.5876 C   0  0  0  0  0  0  0  0  0  0  0  0
    8.0865  -13.9139   19.4068 C   0  0  0  0  0  0  0  0  0  0  0  0
    8.6204  -14.1100   18.1528 C   0  0  0  0  0  0  0  0  0  0  0  0
    8.4344  -13.0316   17.3880 N   0  0  0  0  0  0  0  0  0  0  0  0
    7.7740  -12.1425   18.1695 C   0  0  0  0  0  0  0  0  0  0  0  0
    7.5673  -12.6730   19.3764 N   0  0  0  0  0  0  0  0  0  0  0  0
    8.6723  -16.8289   21.7069 C   0  0  0  0  0  0  0  0  0  0  0  0
    7.5948  -17.1172   22.3105 O   0  0  0  0  0  0  0  0  0  0  0  0
   12.1907  -21.2712   23.0720 N   0  0  0  0  0  0  0  0  0  0  0  0
   12.2962  -20.3324   22.0057 C   0  0  0  0  0  0  0  0  0  0  0  0
   12.9914  -20.5527   20.9939 O   0  0  0  0  0  0  0  0  0  0  0  0
   11.5334  -19.0357   22.1259 C   0  0  0  0  0  0  0  0  0  0  0  0
   10.7448  -19.0927   23.3920 C   0  0  0  0  0  0  0  0  0  0  0  0
    9.9066  -17.8468   23.6192 C   0  0  2  0  0  0  0  0  0  0  0  0
    9.8998  -17.1739   22.3035 N   0  0  0  0  0  0  0  0  0  0  0  0
   10.4032  -16.9554   24.6547 C   0  0  0  0  0  0  0  0  0  0  0  0
   11.2952  -16.1133   24.3454 O   0  0  0  0  0  0  0  0  0  0  0  0
    9.9186  -17.0078   25.9630 N   0  0  0  0  0  0  0  0  0  0  0  0
   10.5888  -16.5251   27.1471 C   0  0  1  0  0  0  0  0  0  0  0  0
    9.8062  -15.3740   27.7004 C   0  0  0  0  0  0  0  0  0  0  0  0
    8.4774  -15.2251   27.0563 C   0  0  0  0  0  0  0  0  0  0  0  0
    7.5868  -16.1903   26.6453 C   0  0  0  0  0  0  0  0  0  0  0  0
    6.5269  -15.5943   26.1217 N   0  0  0  0  0  0  0  0  0  0  0  0
    6.6423  -14.2726   26.1512 C   0  0  0  0  0  0  0  0  0  0  0  0
    5.8059  -13.2626   25.7271 C   0  0  0  0  0  0  0  0  0  0  0  0
    6.1829  -11.9284   25.8827 C   0  0  0  0  0  0  0  0  0  0  0  0
    7.3953  -11.6714   26.4631 C   0  0  0  0  0  0  0  0  0  0  0  0
    8.2143  -12.6847   26.8788 C   0  0  0  0  0  0  0  0  0  0  0  0
    7.8706  -14.0122   26.7392 C   0  0  0  0  0  0  0  0  0  0  0  0
   10.8402  -17.5981   28.1553 C   0  0  0  0  0  0  0  0  0  0  0  0
   10.3157  -18.7111   28.0034 O   0  0  0  0  0  0  0  0  0  0  0  0
   11.6366  -17.4025   29.2567 O   0  0  0  0  0  0  0  0  0  0  0  0
  2  1  1  6
  3  2  1  0
  4  3  1  0
  5  4  2  0
  6  5  1  0
  7  6  1  0
  7  8  2  0
  8  4  1  0
  9  2  1  0
 10  9  2  0
 12 11  1  0
 12 14  1  0
 13 12  2  0
 15 14  1  0
 16 17  1  0
 16 15  1  6
 17  9  1  0
 18 16  1  0
 19 18  2  0
 20 18  1  0
 21 20  1  0
 22 23  1  0
 21 22  1  1
 23 24  2  0
 24 25  1  0
 26 27  2  0
 26 25  1  0
 28 27  1  0
 29 28  2  0
 30 29  1  0
 30 31  2  0
 31 23  1  0
 31 26  1  0
 32 21  1  0
 32 34  1  0
 33 32  2  0
M  END
$$$$
