HQW.pdb
     RDKit          3D

 34 36  0  0  1  0  0  0  0  0999 V2000
    6.8388  -16.7984   18.2657 N   0  0  0  0  0  0  0  0  0  0  0  0
    7.9263  -16.2400   19.0109 C   0  0  1  0  0  0  0  0  0  0  0  0
    8.1347  -14.7752   18.7860 C   0  0  0  0  0  0  0  0  0  0  0  0
    8.4410  -14.4229   17.3917 C   0  0  0  0  0  0  0  0  0  0  0  0
    7.9451  -13.4313   16.5751 C   0  0  0  0  0  0  0  0  0  0  0  0
    8.5171  -13.4841   15.3699 N   0  0  0  0  0  0  0  0  0  0  0  0
    9.3860  -14.5230   15.4261 C   0  0  0  0  0  0  0  0  0  0  0  0
    9.3383  -15.0826   16.6366 N   0  0  0  0  0  0  0  0  0  0  0  0
    7.6138  -16.4230   20.4691 C   0  0  0  0  0  0  0  0  0  0  0  0
    6.6776  -15.7778   21.0311 O   0  0  0  0  0  0  0  0  0  0  0  0
    7.3194  -21.5557   23.0252 N   0  0  0  0  0  0  0  0  0  0  0  0
    7.1296  -20.8299   24.2362 C   0  0  0  0  0  0  0  0  0  0  0  0
    6.7566  -21.3831   25.2899 O   0  0  0  0  0  0  0  0  0  0  0  0
    7.3944  -19.3442   24.2202 C   0  0  0  0  0  0  0  0  0  0  0  0
    7.7109  -18.9583   22.8133 C   0  0  0  0  0  0  0  0  0  0  0  0
    8.0761  -17.4905   22.6743 C   0  0  2  0  0  0  0  0  0  0  0  0
    8.3714  -17.3288   21.2354 N   0  0  0  0  0  0  0  0  0  0  0  0
    9.2028  -17.0607   23.4863 C   0  0  0  0  0  0  0  0  0  0  0  0
   10.3679  -17.1800   23.0082 O   0  0  0  0  0  0  0  0  0  0  0  0
    9.0252  -16.5231   24.7625 N   0  0  0  0  0  0  0  0  0  0  0  0
   10.0671  -16.1375   25.6846 C   0  0  1  0  0  0  0  0  0  0  0  0
    9.7600  -14.7660   26.2024 C   0  0  0  0  0  0  0  0  0  0  0  0
    8.3121  -14.5629   26.4570 C   0  0  0  0  0  0  0  0  0  0  0  0
    7.2774  -15.4695   26.4193 C   0  0  0  0  0  0  0  0  0  0  0  0
    6.1509  -14.8403   26.7153 N   0  0  0  0  0  0  0  0  0  0  0  0
    6.3567  -13.5512   26.9540 C   0  0  0  0  0  0  0  0  0  0  0  0
    5.5000  -12.5263   27.2930 C   0  0  0  0  0  0  0  0  0  0  0  0
    5.9934  -11.2362   27.4899 C   0  0  0  0  0  0  0  0  0  0  0  0
    7.3384  -11.0369   27.3348 C   0  0  0  0  0  0  0  0  0  0  0  0
    8.1758  -12.0644   26.9981 C   0  0  0  0  0  0  0  0  0  0  0  0
    7.7193  -13.3493   26.7969 C   0  0  0  0  0  0  0  0  0  0  0  0
   10.2842  -17.1371   26.7731 C   0  0  0  0  0  0  0  0  0  0  0  0
   11.2191  -16.9748   27.5710 O   0  0  0  0  0  0  0  0  0  0  0  0
    9.4833  -18.2414   26.9300 O   0  0  0  0  0  0  0  0  0  0  0  0
  2  1  1  6
  3  2  1  0
  4  3  1  0
  5  4  2  0
  6  5  1  0
  7  6  1  0
  7  8  2  0
  8  4  1  0
  9  2  1  0
 10  9  2  0
 12 11  1  0
 12 14  1  0
 13 12  2  0
 15 14  1  0
 16 17  1  0
 16 15  1  6
 17  9  1  0
 18 16  1  0
 19 18  2  0
 20 18  1  0
 21 20  1  0
 22 23  1  0
 21 22  1  1
 23 24  2  0
 24 25  1  0
 26 27  2  0
 26 25  1  0
 28 27  1  0
 29 28  2  0
 30 29  1  0
 30 31  2  0
 31 23  1  0
 31 26  1  0
 32 21  1  0
 32 34  1  0
 33 32  2  0
M  END
$$$$
