HQW.pdb
     RDKit          3D

 34 36  0  0  1  0  0  0  0  0999 V2000
    9.4229  -16.4846   18.6279 N   0  0  0  0  0  0  0  0  0  0  0  0
    9.1982  -15.4710   19.6138 C   0  0  1  0  0  0  0  0  0  0  0  0
    8.2268  -14.4128   19.1939 C   0  0  0  0  0  0  0  0  0  0  0  0
    8.1950  -14.1731   17.7435 C   0  0  0  0  0  0  0  0  0  0  0  0
    8.8586  -14.7890   16.7061 C   0  0  0  0  0  0  0  0  0  0  0  0
    8.5209  -14.2377   15.5380 N   0  0  0  0  0  0  0  0  0  0  0  0
    7.6320  -13.2605   15.8418 C   0  0  0  0  0  0  0  0  0  0  0  0
    7.4390  -13.2242   17.1617 N   0  0  0  0  0  0  0  0  0  0  0  0
    8.6219  -16.1433   20.8276 C   0  0  0  0  0  0  0  0  0  0  0  0
    7.6227  -16.9196   20.7421 O   0  0  0  0  0  0  0  0  0  0  0  0
   11.1724  -20.3488   22.7178 N   0  0  0  0  0  0  0  0  0  0  0  0
   10.1894  -20.2552   21.6910 C   0  0  0  0  0  0  0  0  0  0  0  0
    9.6729  -21.2653   21.1728 O   0  0  0  0  0  0  0  0  0  0  0  0
    9.7748  -18.8789   21.2309 C   0  0  0  0  0  0  0  0  0  0  0  0
   10.4987  -17.8843   22.0765 C   0  0  0  0  0  0  0  0  0  0  0  0
    9.5643  -17.0609   22.9457 C   0  0  2  0  0  0  0  0  0  0  0  0
    9.1981  -15.9122   22.0911 N   0  0  0  0  0  0  0  0  0  0  0  0
   10.1372  -16.6095   24.2034 C   0  0  0  0  0  0  0  0  0  0  0  0
   11.2068  -15.9348   24.1684 O   0  0  0  0  0  0  0  0  0  0  0  0
    9.5360  -16.8988   25.4297 N   0  0  0  0  0  0  0  0  0  0  0  0
   10.0295  -16.5319   26.7359 C   0  0  1  0  0  0  0  0  0  0  0  0
    8.8673  -16.1128   27.5828 C   0  0  0  0  0  0  0  0  0  0  0  0
    7.8185  -15.4081   26.8043 C   0  0  0  0  0  0  0  0  0  0  0  0
    6.7665  -15.9218   26.0809 C   0  0  0  0  0  0  0  0  0  0  0  0
    6.0864  -14.9178   25.5497 N   0  0  0  0  0  0  0  0  0  0  0  0
    6.6148  -13.7433   25.8695 C   0  0  0  0  0  0  0  0  0  0  0  0
    6.2549  -12.4513   25.5522 C   0  0  0  0  0  0  0  0  0  0  0  0
    7.0035  -11.3767   26.0333 C   0  0  0  0  0  0  0  0  0  0  0  0
    8.0891  -11.6560   26.8184 C   0  0  0  0  0  0  0  0  0  0  0  0
    8.4335  -12.9437   27.1245 C   0  0  0  0  0  0  0  0  0  0  0  0
    7.7146  -14.0262   26.6649 C   0  0  0  0  0  0  0  0  0  0  0  0
   10.8578  -17.6011   27.3698 C   0  0  0  0  0  0  0  0  0  0  0  0
   11.4131  -17.3777   28.4555 O   0  0  0  0  0  0  0  0  0  0  0  0
   11.0330  -18.8357   26.7949 O   0  0  0  0  0  0  0  0  0  0  0  0
  2  1  1  6
  3  2  1  0
  4  3  1  0
  5  4  2  0
  6  5  1  0
  7  6  1  0
  7  8  2  0
  8  4  1  0
  9  2  1  0
 10  9  2  0
 12 11  1  0
 12 14  1  0
 13 12  2  0
 15 14  1  0
 16 17  1  0
 16 15  1  6
 17  9  1  0
 18 16  1  0
 19 18  2  0
 20 18  1  0
 21 20  1  0
 22 23  1  0
 21 22  1  1
 23 24  2  0
 24 25  1  0
 26 27  2  0
 26 25  1  0
 28 27  1  0
 29 28  2  0
 30 29  1  0
 30 31  2  0
 31 23  1  0
 31 26  1  0
 32 21  1  0
 32 34  1  0
 33 32  2  0
M  END
$$$$
