HQW.pdb
     RDKit          3D

 34 36  0  0  1  0  0  0  0  0999 V2000
    8.7488  -16.9903   19.2298 N   0  0  0  0  0  0  0  0  0  0  0  0
    9.0961  -15.9731   20.1756 C   0  0  1  0  0  0  0  0  0  0  0  0
    8.0970  -14.8635   20.2763 C   0  0  0  0  0  0  0  0  0  0  0  0
    7.9826  -14.0506   19.0565 C   0  0  0  0  0  0  0  0  0  0  0  0
    8.4623  -12.7963   18.7522 C   0  0  0  0  0  0  0  0  0  0  0  0
    8.1147  -12.4476   17.5112 N   0  0  0  0  0  0  0  0  0  0  0  0
    7.4059  -13.4958   17.0252 C   0  0  0  0  0  0  0  0  0  0  0  0
    7.3285  -14.4531   17.9517 N   0  0  0  0  0  0  0  0  0  0  0  0
    9.1726  -16.6230   21.5281 C   0  0  0  0  0  0  0  0  0  0  0  0
    8.1971  -17.2804   22.0023 O   0  0  0  0  0  0  0  0  0  0  0  0
   13.6320  -20.9216   23.3755 N   0  0  0  0  0  0  0  0  0  0  0  0
   13.5930  -19.6071   23.9233 C   0  0  0  0  0  0  0  0  0  0  0  0
   14.6271  -18.9353   24.1106 O   0  0  0  0  0  0  0  0  0  0  0  0
   12.2458  -19.0289   24.2814 C   0  0  0  0  0  0  0  0  0  0  0  0
   11.8553  -18.0877   23.1905 C   0  0  0  0  0  0  0  0  0  0  0  0
   10.5432  -17.3757   23.4701 C   0  0  2  0  0  0  0  0  0  0  0  0
   10.3492  -16.5049   22.2920 N   0  0  0  0  0  0  0  0  0  0  0  0
   10.5181  -16.5989   24.6987 C   0  0  0  0  0  0  0  0  0  0  0  0
   11.0059  -15.4318   24.6815 O   0  0  0  0  0  0  0  0  0  0  0  0
    9.9702  -17.1075   25.8778 N   0  0  0  0  0  0  0  0  0  0  0  0
    9.9402  -16.4517   27.1636 C   0  0  1  0  0  0  0  0  0  0  0  0
    8.5269  -16.4429   27.6599 C   0  0  0  0  0  0  0  0  0  0  0  0
    7.6232  -15.6440   26.7952 C   0  0  0  0  0  0  0  0  0  0  0  0
    6.6766  -16.0634   25.8885 C   0  0  0  0  0  0  0  0  0  0  0  0
    6.1087  -14.9982   25.3447 N   0  0  0  0  0  0  0  0  0  0  0  0
    6.6144  -13.8710   25.8293 C   0  0  0  0  0  0  0  0  0  0  0  0
    6.3390  -12.5466   25.5656 C   0  0  0  0  0  0  0  0  0  0  0  0
    7.0361  -11.5392   26.2332 C   0  0  0  0  0  0  0  0  0  0  0  0
    7.9862  -11.9159   27.1432 C   0  0  0  0  0  0  0  0  0  0  0  0
    8.2481  -13.2347   27.3939 C   0  0  0  0  0  0  0  0  0  0  0  0
    7.5771  -14.2528   26.7511 C   0  0  0  0  0  0  0  0  0  0  0  0
   10.8992  -17.0428   28.1443 C   0  0  0  0  0  0  0  0  0  0  0  0
   11.4877  -18.0965   27.8608 O   0  0  0  0  0  0  0  0  0  0  0  0
   11.1603  -16.4626   29.3611 O   0  0  0  0  0  0  0  0  0  0  0  0
  2  1  1  6
  3  2  1  0
  4  3  1  0
  5  4  2  0
  6  5  1  0
  7  6  1  0
  7  8  2  0
  8  4  1  0
  9  2  1  0
 10  9  2  0
 12 11  1  0
 12 14  1  0
 13 12  2  0
 15 14  1  0
 16 17  1  0
 16 15  1  6
 17  9  1  0
 18 16  1  0
 19 18  2  0
 20 18  1  0
 21 20  1  0
 22 23  1  0
 21 22  1  1
 23 24  2  0
 24 25  1  0
 26 27  2  0
 26 25  1  0
 28 27  1  0
 29 28  2  0
 30 29  1  0
 30 31  2  0
 31 23  1  0
 31 26  1  0
 32 21  1  0
 32 34  1  0
 33 32  2  0
M  END
$$$$
