HQW.pdb
     RDKit          3D

 34 36  0  0  1  0  0  0  0  0999 V2000
   10.0885  -16.7990   19.3486 N   0  0  0  0  0  0  0  0  0  0  0  0
    9.5730  -16.0316   20.4418 C   0  0  1  0  0  0  0  0  0  0  0  0
    8.1413  -15.6253   20.2836 C   0  0  0  0  0  0  0  0  0  0  0  0
    7.9489  -14.4278   19.4523 C   0  0  0  0  0  0  0  0  0  0  0  0
    8.8503  -13.6376   18.7748 C   0  0  0  0  0  0  0  0  0  0  0  0
    8.2227  -12.6430   18.1430 N   0  0  0  0  0  0  0  0  0  0  0  0
    6.9071  -12.8073   18.4253 C   0  0  0  0  0  0  0  0  0  0  0  0
    6.7464  -13.8757   19.2085 N   0  0  0  0  0  0  0  0  0  0  0  0
    9.6555  -16.8894   21.6726 C   0  0  0  0  0  0  0  0  0  0  0  0
    8.7847  -17.7778   21.9193 O   0  0  0  0  0  0  0  0  0  0  0  0
   14.5553  -19.3933   23.6197 N   0  0  0  0  0  0  0  0  0  0  0  0
   13.6568  -19.8496   22.6127 C   0  0  0  0  0  0  0  0  0  0  0  0
   13.9869  -20.7046   21.7668 O   0  0  0  0  0  0  0  0  0  0  0  0
   12.2654  -19.2655   22.5878 C   0  0  0  0  0  0  0  0  0  0  0  0
   12.2009  -18.2106   23.6420 C   0  0  0  0  0  0  0  0  0  0  0  0
   10.8225  -17.5843   23.7634 C   0  0  2  0  0  0  0  0  0  0  0  0
   10.7197  -16.7099   22.5765 N   0  0  0  0  0  0  0  0  0  0  0  0
   10.5992  -16.8284   24.9850 C   0  0  0  0  0  0  0  0  0  0  0  0
   11.0633  -15.6538   25.0579 O   0  0  0  0  0  0  0  0  0  0  0  0
    9.8895  -17.3649   26.0609 N   0  0  0  0  0  0  0  0  0  0  0  0
    9.7893  -16.8056   27.3882 C   0  0  1  0  0  0  0  0  0  0  0  0
    8.3397  -16.6873   27.7460 C   0  0  0  0  0  0  0  0  0  0  0  0
    7.5814  -15.8475   26.7856 C   0  0  0  0  0  0  0  0  0  0  0  0
    6.7413  -16.2229   25.7623 C   0  0  0  0  0  0  0  0  0  0  0  0
    6.2854  -15.1325   25.1658 N   0  0  0  0  0  0  0  0  0  0  0  0
    6.7672  -14.0294   25.7245 C   0  0  0  0  0  0  0  0  0  0  0  0
    6.5756  -12.6934   25.4459 C   0  0  0  0  0  0  0  0  0  0  0  0
    7.2197  -11.7187   26.2085 C   0  0  0  0  0  0  0  0  0  0  0  0
    8.0338  -12.1388   27.2252 C   0  0  0  0  0  0  0  0  0  0  0  0
    8.2138  -13.4686   27.4894 C   0  0  0  0  0  0  0  0  0  0  0  0
    7.5920  -14.4551   26.7544 C   0  0  0  0  0  0  0  0  0  0  0  0
   10.5809  -17.5632   28.4033 C   0  0  0  0  0  0  0  0  0  0  0  0
   10.6415  -17.1404   29.5672 O   0  0  0  0  0  0  0  0  0  0  0  0
   11.2527  -18.7215   28.0995 O   0  0  0  0  0  0  0  0  0  0  0  0
  2  1  1  6
  3  2  1  0
  4  3  1  0
  5  4  2  0
  6  5  1  0
  7  6  1  0
  7  8  2  0
  8  4  1  0
  9  2  1  0
 10  9  2  0
 12 11  1  0
 12 14  1  0
 13 12  2  0
 15 14  1  0
 16 17  1  0
 16 15  1  1
 17  9  1  0
 18 16  1  0
 19 18  2  0
 20 18  1  0
 21 20  1  0
 22 23  1  0
 21 22  1  1
 23 24  2  0
 24 25  1  0
 26 27  2  0
 26 25  1  0
 28 27  1  0
 29 28  2  0
 30 29  1  0
 30 31  2  0
 31 23  1  0
 31 26  1  0
 32 21  1  0
 32 34  1  0
 33 32  2  0
M  END
$$$$
