LEN.pdb
     RDKit          3D

 26 25  0  0  1  0  0  0  0  0999 V2000
    7.8663  -11.7582   24.5960 C   0  0  0  0  0  0  0  0  0  0  0  0
    7.2620  -12.9184   25.3066 C   0  0  1  0  0  0  0  0  0  0  0  0
    6.4356  -12.3534   26.4685 C   0  0  0  0  0  0  0  0  0  0  0  0
    6.3408  -13.7677   24.5031 C   0  0  0  0  0  0  0  0  0  0  0  0
    6.9901  -14.4388   23.3117 C   0  0  2  0  0  0  0  0  0  0  0  0
    5.9499  -15.2388   22.6889 N   0  0  0  0  0  0  0  0  0  0  0  0
    7.9834  -15.4063   23.8873 C   0  0  0  0  0  0  0  0  0  0  0  0
    7.6683  -16.2923   24.7183 O   0  0  0  0  0  0  0  0  0  0  0  0
    9.3699  -15.3440   23.4910 N   0  0  0  0  0  0  0  0  0  0  0  0
   10.3540  -16.3066   23.8907 C   0  0  1  0  0  0  0  0  0  0  0  0
   11.5740  -16.3126   23.0007 C   0  0  0  0  0  0  0  0  0  0  0  0
   12.5522  -17.3980   23.3374 C   0  0  0  0  0  0  0  0  0  0  0  0
   13.7206  -17.3782   22.4214 C   0  0  0  0  0  0  0  0  0  0  0  0
   13.6034  -17.3607   21.1859 O   0  0  0  0  0  0  0  0  0  0  0  0
   10.7070  -16.1974   25.3322 C   0  0  0  0  0  0  0  0  0  0  0  0
   11.0769  -15.0808   25.8219 O   0  0  0  0  0  0  0  0  0  0  0  0
   14.9837  -17.3800   22.9914 O   0  0  0  0  0  0  0  0  0  0  0  0
   10.8180  -14.2633   28.6732 N   0  0  0  0  0  0  0  0  0  0  0  0
   10.4585  -15.4853   29.2573 C   0  0  0  0  0  0  0  0  0  0  0  0
   10.5918  -15.6453   30.5185 O   0  0  0  0  0  0  0  0  0  0  0  0
    9.9186  -16.6334   28.4853 C   0  0  0  0  0  0  0  0  0  0  0  0
   11.0165  -17.2226   27.6245 C   0  0  2  0  0  0  0  0  0  0  0  0
   10.6621  -17.2886   26.2427 N   0  0  0  0  0  0  0  0  0  0  0  0
   11.4744  -18.5061   28.1945 C   0  0  0  0  0  0  0  0  0  0  0  0
   11.5677  -19.6990   27.4902 O   0  0  0  0  0  0  0  0  0  0  0  0
   11.8154  -18.5575   29.4152 O   0  0  0  0  0  0  0  0  0  0  0  0
  2  1  1  6
  2  3  1  0
  4  5  1  0
  4  2  1  0
  5  6  1  1
  7  5  1  0
  7  8  2  0
  9  7  1  0
 10  9  1  0
 10 11  1  6
 12 11  1  0
 12 13  1  0
 13 14  2  0
 15 10  1  0
 16 15  2  0
 17 13  1  0
 18 19  1  0
 19 21  1  0
 20 19  2  0
 22 21  1  1
 22 24  1  0
 22 23  1  0
 23 15  1  0
 24 25  1  0
 26 24  2  0
M  END
$$$$
