LEN.pdb
     RDKit          3D

 26 25  0  0  1  0  0  0  0  0999 V2000
    6.8777  -12.7208   19.5184 C   0  0  0  0  0  0  0  0  0  0  0  0
    8.1451  -13.2933   18.9873 C   0  0  1  0  0  0  0  0  0  0  0  0
    9.1608  -12.1465   18.9143 C   0  0  0  0  0  0  0  0  0  0  0  0
    8.7718  -14.3645   19.8092 C   0  0  0  0  0  0  0  0  0  0  0  0
   10.1663  -14.7547   19.3678 C   0  0  2  0  0  0  0  0  0  0  0  0
   10.0229  -15.2980   18.0283 N   0  0  0  0  0  0  0  0  0  0  0  0
   10.5614  -15.9019   20.2519 C   0  0  0  0  0  0  0  0  0  0  0  0
   10.5344  -15.8370   21.5049 O   0  0  0  0  0  0  0  0  0  0  0  0
   10.9969  -17.1491   19.6704 N   0  0  0  0  0  0  0  0  0  0  0  0
   11.4095  -18.2841   20.4426 C   0  0  1  0  0  0  0  0  0  0  0  0
   11.4676  -19.5603   19.6375 C   0  0  0  0  0  0  0  0  0  0  0  0
   10.1240  -20.0281   19.1638 C   0  0  0  0  0  0  0  0  0  0  0  0
   10.2499  -21.1413   18.1894 C   0  0  0  0  0  0  0  0  0  0  0  0
    9.3720  -21.4011   17.3515 O   0  0  0  0  0  0  0  0  0  0  0  0
   12.6677  -18.0345   21.1971 C   0  0  0  0  0  0  0  0  0  0  0  0
   13.6743  -17.5126   20.6159 O   0  0  0  0  0  0  0  0  0  0  0  0
   11.4031  -21.9083   18.2360 O   0  0  0  0  0  0  0  0  0  0  0  0
   13.0373  -15.0946   23.6826 N   0  0  0  0  0  0  0  0  0  0  0  0
   14.1584  -15.9267   23.8037 C   0  0  0  0  0  0  0  0  0  0  0  0
   15.2977  -15.5133   23.3977 O   0  0  0  0  0  0  0  0  0  0  0  0
   14.1052  -17.2907   24.3887 C   0  0  0  0  0  0  0  0  0  0  0  0
   14.0840  -18.3163   23.2746 C   0  0  2  0  0  0  0  0  0  0  0  0
   12.8403  -18.3470   22.5734 N   0  0  0  0  0  0  0  0  0  0  0  0
   14.5236  -19.6304   23.7863 C   0  0  0  0  0  0  0  0  0  0  0  0
   15.7248  -19.8653   24.4419 O   0  0  0  0  0  0  0  0  0  0  0  0
   13.7718  -20.6403   23.6323 O   0  0  0  0  0  0  0  0  0  0  0  0
  2  1  1  1
  2  3  1  0
  4  5  1  0
  4  2  1  0
  5  6  1  6
  7  5  1  0
  7  8  2  0
  9  7  1  0
 10  9  1  0
 10 11  1  6
 12 11  1  0
 12 13  1  0
 13 14  2  0
 15 10  1  0
 16 15  2  0
 17 13  1  0
 18 19  1  0
 19 21  1  0
 20 19  2  0
 22 21  1  1
 22 24  1  0
 22 23  1  0
 23 15  1  0
 24 25  1  0
 26 24  2  0
M  END
$$$$
