LEN.pdb
     RDKit          3D

 26 25  0  0  1  0  0  0  0  0999 V2000
    6.8396  -13.6055   19.3473 C   0  0  0  0  0  0  0  0  0  0  0  0
    7.8248  -13.7551   20.4534 C   0  0  1  0  0  0  0  0  0  0  0  0
    7.7163  -12.4980   21.3252 C   0  0  0  0  0  0  0  0  0  0  0  0
    7.6181  -14.9189   21.3580 C   0  0  0  0  0  0  0  0  0  0  0  0
    8.5628  -14.9663   22.5399 C   0  0  2  0  0  0  0  0  0  0  0  0
    9.5342  -13.9096   22.3163 N   0  0  0  0  0  0  0  0  0  0  0  0
    9.3073  -16.2632   22.4077 C   0  0  0  0  0  0  0  0  0  0  0  0
    8.7501  -17.3825   22.5149 O   0  0  0  0  0  0  0  0  0  0  0  0
   10.7268  -16.2612   22.1462 N   0  0  0  0  0  0  0  0  0  0  0  0
   11.5344  -17.4455   22.1374 C   0  0  1  0  0  0  0  0  0  0  0  0
   12.4170  -17.5529   20.9168 C   0  0  0  0  0  0  0  0  0  0  0  0
   13.2668  -18.7882   20.9025 C   0  0  0  0  0  0  0  0  0  0  0  0
   13.9589  -18.9551   19.5995 C   0  0  0  0  0  0  0  0  0  0  0  0
   14.2320  -20.0684   19.1235 O   0  0  0  0  0  0  0  0  0  0  0  0
   12.2961  -17.6265   23.4029 C   0  0  0  0  0  0  0  0  0  0  0  0
   12.8640  -16.6316   23.9607 O   0  0  0  0  0  0  0  0  0  0  0  0
   14.3047  -17.8074   18.9043 O   0  0  0  0  0  0  0  0  0  0  0  0
   11.9463  -19.4958   28.1894 N   0  0  0  0  0  0  0  0  0  0  0  0
   10.9309  -18.8426   27.4781 C   0  0  0  0  0  0  0  0  0  0  0  0
    9.8920  -18.4294   28.0976 O   0  0  0  0  0  0  0  0  0  0  0  0
   10.9873  -18.5934   26.0151 C   0  0  0  0  0  0  0  0  0  0  0  0
   12.3131  -19.0835   25.4713 C   0  0  2  0  0  0  0  0  0  0  0  0
   12.4457  -18.8761   24.0646 N   0  0  0  0  0  0  0  0  0  0  0  0
   12.5557  -20.4748   25.9041 C   0  0  0  0  0  0  0  0  0  0  0  0
   13.3917  -20.8467   26.9483 O   0  0  0  0  0  0  0  0  0  0  0  0
   11.9726  -21.4246   25.2984 O   0  0  0  0  0  0  0  0  0  0  0  0
  2  1  1  6
  2  3  1  0
  4  5  1  0
  4  2  1  0
  5  6  1  6
  7  5  1  0
  7  8  2  0
  9  7  1  0
 10  9  1  0
 10 11  1  6
 12 11  1  0
 12 13  1  0
 13 14  2  0
 15 10  1  0
 16 15  2  0
 17 13  1  0
 18 19  1  0
 19 21  1  0
 20 19  2  0
 22 21  1  6
 22 24  1  0
 22 23  1  0
 23 15  1  0
 24 25  1  0
 26 24  2  0
M  END
$$$$
