LEN.pdb
     RDKit          3D

 26 25  0  0  1  0  0  0  0  0999 V2000
    7.0676  -13.8556   18.8360 C   0  0  0  0  0  0  0  0  0  0  0  0
    8.0630  -13.9177   19.9414 C   0  0  1  0  0  0  0  0  0  0  0  0
    8.0926  -12.5321   20.5981 C   0  0  0  0  0  0  0  0  0  0  0  0
    7.7737  -14.8959   21.0254 C   0  0  0  0  0  0  0  0  0  0  0  0
    8.7466  -14.8490   22.1842 C   0  0  2  0  0  0  0  0  0  0  0  0
    9.8216  -13.9659   21.7667 N   0  0  0  0  0  0  0  0  0  0  0  0
    9.3369  -16.2268   22.2693 C   0  0  0  0  0  0  0  0  0  0  0  0
    8.6670  -17.2358   22.5980 O   0  0  0  0  0  0  0  0  0  0  0  0
   10.7325  -16.4377   21.9673 N   0  0  0  0  0  0  0  0  0  0  0  0
   11.4003  -17.6948   22.1363 C   0  0  1  0  0  0  0  0  0  0  0  0
   12.7387  -17.7541   21.4395 C   0  0  0  0  0  0  0  0  0  0  0  0
   13.4305  -19.0760   21.5888 C   0  0  0  0  0  0  0  0  0  0  0  0
   14.7267  -19.0946   20.8648 C   0  0  0  0  0  0  0  0  0  0  0  0
   14.8355  -19.4960   19.6954 O   0  0  0  0  0  0  0  0  0  0  0  0
   11.4877  -18.1076   23.5633 C   0  0  0  0  0  0  0  0  0  0  0  0
   10.9094  -17.4223   24.4685 O   0  0  0  0  0  0  0  0  0  0  0  0
   15.8472  -18.6409   21.5421 O   0  0  0  0  0  0  0  0  0  0  0  0
   11.0196  -22.0153   27.7057 N   0  0  0  0  0  0  0  0  0  0  0  0
   11.0671  -20.6832   27.2735 C   0  0  0  0  0  0  0  0  0  0  0  0
   11.2305  -19.7477   28.1290 O   0  0  0  0  0  0  0  0  0  0  0  0
   10.9371  -20.2800   25.8501 C   0  0  0  0  0  0  0  0  0  0  0  0
   12.2537  -19.7093   25.3658 C   0  0  2  0  0  0  0  0  0  0  0  0
   12.1967  -19.2550   24.0132 N   0  0  0  0  0  0  0  0  0  0  0  0
   13.3502  -20.6604   25.6399 C   0  0  0  0  0  0  0  0  0  0  0  0
   14.0789  -20.7127   26.8206 O   0  0  0  0  0  0  0  0  0  0  0  0
   13.6759  -21.5058   24.7521 O   0  0  0  0  0  0  0  0  0  0  0  0
  2  1  1  6
  2  3  1  0
  4  5  1  0
  4  2  1  0
  5  6  1  6
  7  5  1  0
  7  8  2  0
  9  7  1  0
 10  9  1  0
 10 11  1  1
 12 11  1  0
 12 13  1  0
 13 14  2  0
 15 10  1  0
 16 15  2  0
 17 13  1  0
 18 19  1  0
 19 21  1  0
 20 19  2  0
 22 21  1  6
 22 24  1  0
 22 23  1  0
 23 15  1  0
 24 25  1  0
 26 24  2  0
M  END
$$$$
