LEN.pdb
     RDKit          3D

 26 25  0  0  1  0  0  0  0  0999 V2000
    7.3696  -12.3543   21.3913 C   0  0  0  0  0  0  0  0  0  0  0  0
    7.3557  -13.5615   20.5202 C   0  0  1  0  0  0  0  0  0  0  0  0
    7.6038  -13.0828   19.0844 C   0  0  0  0  0  0  0  0  0  0  0  0
    8.3934  -14.5880   20.8115 C   0  0  0  0  0  0  0  0  0  0  0  0
    8.2796  -15.8452   19.9759 C   0  0  2  0  0  0  0  0  0  0  0  0
    7.0589  -16.5026   20.4092 N   0  0  0  0  0  0  0  0  0  0  0  0
    9.4148  -16.7240   20.4153 C   0  0  0  0  0  0  0  0  0  0  0  0
    9.2788  -17.6399   21.2623 O   0  0  0  0  0  0  0  0  0  0  0  0
   10.7342  -16.5358   19.8610 N   0  0  0  0  0  0  0  0  0  0  0  0
   11.7810  -17.5105   19.9540 C   0  0  1  0  0  0  0  0  0  0  0  0
   12.6051  -17.6184   18.6933 C   0  0  0  0  0  0  0  0  0  0  0  0
   13.6704  -18.6712   18.7657 C   0  0  0  0  0  0  0  0  0  0  0  0
   14.3875  -18.8068   17.4726 C   0  0  0  0  0  0  0  0  0  0  0  0
   14.4984  -17.8699   16.6662 O   0  0  0  0  0  0  0  0  0  0  0  0
   12.6246  -17.3285   21.1664 C   0  0  0  0  0  0  0  0  0  0  0  0
   13.6449  -18.0673   21.3578 O   0  0  0  0  0  0  0  0  0  0  0  0
   14.9475  -20.0389   17.1749 O   0  0  0  0  0  0  0  0  0  0  0  0
   12.4305  -16.2732   26.5216 N   0  0  0  0  0  0  0  0  0  0  0  0
   11.9905  -17.3552   25.7472 C   0  0  0  0  0  0  0  0  0  0  0  0
   11.9198  -18.5188   26.2714 O   0  0  0  0  0  0  0  0  0  0  0  0
   11.5909  -17.2321   24.3222 C   0  0  0  0  0  0  0  0  0  0  0  0
   12.6738  -16.5007   23.5566 C   0  0  2  0  0  0  0  0  0  0  0  0
   12.3688  -16.3537   22.1693 N   0  0  0  0  0  0  0  0  0  0  0  0
   13.9893  -17.1163   23.8258 C   0  0  0  0  0  0  0  0  0  0  0  0
   14.8943  -16.6698   24.7794 O   0  0  0  0  0  0  0  0  0  0  0  0
   14.3502  -18.1299   23.1540 O   0  0  0  0  0  0  0  0  0  0  0  0
  2  1  1  1
  2  3  1  0
  4  5  1  0
  4  2  1  0
  5  6  1  1
  7  5  1  0
  7  8  2  0
  9  7  1  0
 10  9  1  0
 10 11  1  6
 12 11  1  0
 12 13  1  0
 13 14  2  0
 15 10  1  0
 16 15  2  0
 17 13  1  0
 18 19  1  0
 19 21  1  0
 20 19  2  0
 22 21  1  6
 22 24  1  0
 22 23  1  0
 23 15  1  0
 24 25  1  0
 26 24  2  0
M  END
$$$$
