LEN.pdb
     RDKit          3D

 26 25  0  0  1  0  0  0  0  0999 V2000
    7.0773  -12.0069   27.7963 C   0  0  0  0  0  0  0  0  0  0  0  0
    6.5581  -12.7935   26.6438 C   0  0  1  0  0  0  0  0  0  0  0  0
    6.7204  -11.9200   25.3937 C   0  0  0  0  0  0  0  0  0  0  0  0
    7.2592  -14.0756   26.3606 C   0  0  0  0  0  0  0  0  0  0  0  0
    6.8522  -14.7355   25.0604 C   0  0  2  0  0  0  0  0  0  0  0  0
    5.5459  -15.3227   25.3032 N   0  0  0  0  0  0  0  0  0  0  0  0
    7.8053  -15.8805   24.8752 C   0  0  0  0  0  0  0  0  0  0  0  0
    7.8560  -16.8584   25.6600 O   0  0  0  0  0  0  0  0  0  0  0  0
    8.7182  -15.8906   23.7572 N   0  0  0  0  0  0  0  0  0  0  0  0
    9.6827  -16.9262   23.5288 C   0  0  1  0  0  0  0  0  0  0  0  0
   10.3835  -16.8014   22.1971 C   0  0  0  0  0  0  0  0  0  0  0  0
   11.2521  -17.9784   21.8678 C   0  0  0  0  0  0  0  0  0  0  0  0
   11.8594  -17.8439   20.5196 C   0  0  0  0  0  0  0  0  0  0  0  0
   11.5371  -16.9458   19.7259 O   0  0  0  0  0  0  0  0  0  0  0  0
   10.6395  -17.0746   24.6589 C   0  0  0  0  0  0  0  0  0  0  0  0
   11.1683  -16.0463   25.1941 O   0  0  0  0  0  0  0  0  0  0  0  0
   12.8231  -18.7700   20.1540 O   0  0  0  0  0  0  0  0  0  0  0  0
   14.5452  -17.4917   23.8862 N   0  0  0  0  0  0  0  0  0  0  0  0
   13.9554  -18.2927   24.8732 C   0  0  0  0  0  0  0  0  0  0  0  0
   14.0142  -19.5655   24.7714 O   0  0  0  0  0  0  0  0  0  0  0  0
   13.2500  -17.7431   26.0590 C   0  0  0  0  0  0  0  0  0  0  0  0
   11.9592  -18.5051   26.2754 C   0  0  2  0  0  0  0  0  0  0  0  0
   11.0254  -18.3273   25.2097 N   0  0  0  0  0  0  0  0  0  0  0  0
   11.4132  -18.2076   27.6154 C   0  0  0  0  0  0  0  0  0  0  0  0
   11.2617  -16.9335   28.1457 O   0  0  0  0  0  0  0  0  0  0  0  0
   11.0456  -19.1642   28.3629 O   0  0  0  0  0  0  0  0  0  0  0  0
  2  1  1  1
  2  3  1  0
  4  5  1  0
  4  2  1  0
  5  6  1  1
  7  5  1  0
  7  8  2  0
  9  7  1  0
 10  9  1  0
 10 11  1  6
 12 11  1  0
 12 13  1  0
 13 14  2  0
 15 10  1  0
 16 15  2  0
 17 13  1  0
 18 19  1  0
 19 21  1  0
 20 19  2  0
 22 21  1  6
 22 24  1  0
 22 23  1  0
 23 15  1  0
 24 25  1  0
 26 24  2  0
M  END
$$$$
