LEN.pdb
     RDKit          3D

 26 25  0  0  1  0  0  0  0  0999 V2000
    5.3034  -11.8921   26.0279 C   0  0  0  0  0  0  0  0  0  0  0  0
    6.6650  -12.4211   25.7405 C   0  0  1  0  0  0  0  0  0  0  0  0
    7.5991  -11.8720   26.8258 C   0  0  0  0  0  0  0  0  0  0  0  0
    6.8079  -13.9025   25.7661 C   0  0  0  0  0  0  0  0  0  0  0  0
    8.2358  -14.3937   25.6586 C   0  0  2  0  0  0  0  0  0  0  0  0
    8.8293  -13.6556   24.5572 N   0  0  0  0  0  0  0  0  0  0  0  0
    8.1364  -15.8225   25.2083 C   0  0  0  0  0  0  0  0  0  0  0  0
    7.3758  -16.6576   25.7549 O   0  0  0  0  0  0  0  0  0  0  0  0
    8.9360  -16.2914   24.1019 N   0  0  0  0  0  0  0  0  0  0  0  0
    8.9418  -17.6505   23.6463 C   0  0  1  0  0  0  0  0  0  0  0  0
    9.3842  -17.7929   22.2095 C   0  0  0  0  0  0  0  0  0  0  0  0
    9.2983  -19.1989   21.6957 C   0  0  0  0  0  0  0  0  0  0  0  0
    9.6877  -19.2782   20.2651 C   0  0  0  0  0  0  0  0  0  0  0  0
   10.7045  -19.8765   19.8794 O   0  0  0  0  0  0  0  0  0  0  0  0
    9.6902  -18.5559   24.5600 C   0  0  0  0  0  0  0  0  0  0  0  0
    9.4272  -19.8022   24.5892 O   0  0  0  0  0  0  0  0  0  0  0  0
    8.8677  -18.6513   19.3405 O   0  0  0  0  0  0  0  0  0  0  0  0
   12.5564  -19.3051   23.9162 N   0  0  0  0  0  0  0  0  0  0  0  0
   13.3900  -19.0027   25.0012 C   0  0  0  0  0  0  0  0  0  0  0  0
   14.6525  -18.9155   24.8219 O   0  0  0  0  0  0  0  0  0  0  0  0
   12.8871  -18.7706   26.3792 C   0  0  0  0  0  0  0  0  0  0  0  0
   11.3822  -18.9396   26.4014 C   0  0  2  0  0  0  0  0  0  0  0  0
   10.7182  -18.1190   25.4397 N   0  0  0  0  0  0  0  0  0  0  0  0
   10.8751  -18.7880   27.7805 C   0  0  0  0  0  0  0  0  0  0  0  0
    9.9891  -17.8032   28.1965 O   0  0  0  0  0  0  0  0  0  0  0  0
   11.2571  -19.6012   28.6759 O   0  0  0  0  0  0  0  0  0  0  0  0
  2  1  1  1
  2  3  1  0
  4  5  1  0
  4  2  1  0
  5  6  1  6
  7  5  1  0
  7  8  2  0
  9  7  1  0
 10  9  1  0
 10 11  1  6
 12 11  1  0
 12 13  1  0
 13 14  2  0
 15 10  1  0
 16 15  2  0
 17 13  1  0
 18 19  1  0
 19 21  1  0
 20 19  2  0
 22 21  1  1
 22 24  1  0
 22 23  1  0
 23 15  1  0
 24 25  1  0
 26 24  2  0
M  END
$$$$
