LEN.pdb
     RDKit          3D

 26 25  0  0  1  0  0  0  0  0999 V2000
    6.8099  -13.2308   18.8262 C   0  0  0  0  0  0  0  0  0  0  0  0
    8.2882  -13.2097   19.0006 C   0  0  1  0  0  0  0  0  0  0  0  0
    8.6866  -11.7566   19.2866 C   0  0  0  0  0  0  0  0  0  0  0  0
    8.8242  -14.0264   20.1237 C   0  0  0  0  0  0  0  0  0  0  0  0
   10.3178  -13.8962   20.3328 C   0  0  2  0  0  0  0  0  0  0  0  0
   10.8882  -13.6868   19.0134 N   0  0  0  0  0  0  0  0  0  0  0  0
   10.7799  -15.2509   20.7858 C   0  0  0  0  0  0  0  0  0  0  0  0
   10.1051  -15.9794   21.5531 O   0  0  0  0  0  0  0  0  0  0  0  0
   12.0505  -15.7703   20.3396 N   0  0  0  0  0  0  0  0  0  0  0  0
   12.5907  -17.0261   20.7710 C   0  0  1  0  0  0  0  0  0  0  0  0
   13.8103  -17.4482   19.9871 C   0  0  0  0  0  0  0  0  0  0  0  0
   13.9222  -16.7766   18.6511 C   0  0  0  0  0  0  0  0  0  0  0  0
   15.1575  -17.1895   17.9384 C   0  0  0  0  0  0  0  0  0  0  0  0
   16.1039  -16.4133   17.7329 O   0  0  0  0  0  0  0  0  0  0  0  0
   12.8191  -17.0748   22.2407 C   0  0  0  0  0  0  0  0  0  0  0  0
   13.4002  -16.1087   22.8344 O   0  0  0  0  0  0  0  0  0  0  0  0
   15.2349  -18.4995   17.4933 O   0  0  0  0  0  0  0  0  0  0  0  0
   11.4348  -18.0369   27.6565 N   0  0  0  0  0  0  0  0  0  0  0  0
   11.6901  -18.9612   26.6347 C   0  0  0  0  0  0  0  0  0  0  0  0
   12.2325  -20.0830   26.9196 O   0  0  0  0  0  0  0  0  0  0  0  0
   11.3617  -18.7141   25.2075 C   0  0  0  0  0  0  0  0  0  0  0  0
   12.5986  -18.2250   24.4833 C   0  0  2  0  0  0  0  0  0  0  0  0
   12.4230  -18.1615   23.0675 N   0  0  0  0  0  0  0  0  0  0  0  0
   13.7788  -19.0025   24.9131 C   0  0  0  0  0  0  0  0  0  0  0  0
   14.5611  -19.7860   24.0754 O   0  0  0  0  0  0  0  0  0  0  0  0
   14.1315  -18.9743   26.1312 O   0  0  0  0  0  0  0  0  0  0  0  0
  2  1  1  1
  2  3  1  0
  4  5  1  0
  4  2  1  0
  5  6  1  6
  7  5  1  0
  7  8  2  0
  9  7  1  0
 10  9  1  0
 10 11  1  6
 12 11  1  0
 12 13  1  0
 13 14  2  0
 15 10  1  0
 16 15  2  0
 17 13  1  0
 18 19  1  0
 19 21  1  0
 20 19  2  0
 22 21  1  1
 22 24  1  0
 22 23  1  0
 23 15  1  0
 24 25  1  0
 26 24  2  0
M  END
$$$$
