LEN.pdb
     RDKit          3D

 26 25  0  0  1  0  0  0  0  0999 V2000
    6.7744  -11.9603   27.4233 C   0  0  0  0  0  0  0  0  0  0  0  0
    6.4661  -12.7995   26.2329 C   0  0  1  0  0  0  0  0  0  0  0  0
    6.7421  -11.9400   24.9931 C   0  0  0  0  0  0  0  0  0  0  0  0
    7.2770  -14.0383   26.0805 C   0  0  0  0  0  0  0  0  0  0  0  0
    6.8273  -14.9440   24.9539 C   0  0  2  0  0  0  0  0  0  0  0  0
    5.6263  -15.6074   25.4310 N   0  0  0  0  0  0  0  0  0  0  0  0
    7.8841  -16.0048   24.8448 C   0  0  0  0  0  0  0  0  0  0  0  0
    7.9133  -17.0162   25.5872 O   0  0  0  0  0  0  0  0  0  0  0  0
    8.9281  -15.8893   23.8548 N   0  0  0  0  0  0  0  0  0  0  0  0
    9.9374  -16.8854   23.6451 C   0  0  1  0  0  0  0  0  0  0  0  0
   10.8316  -16.5851   22.4659 C   0  0  0  0  0  0  0  0  0  0  0  0
   11.8301  -17.6677   22.1840 C   0  0  0  0  0  0  0  0  0  0  0  0
   12.6456  -17.3539   20.9836 C   0  0  0  0  0  0  0  0  0  0  0  0
   13.5491  -18.0996   20.5735 O   0  0  0  0  0  0  0  0  0  0  0  0
   10.7122  -17.1820   24.8804 C   0  0  0  0  0  0  0  0  0  0  0  0
   11.2566  -16.2384   25.5413 O   0  0  0  0  0  0  0  0  0  0  0  0
   12.3694  -16.1751   20.3096 O   0  0  0  0  0  0  0  0  0  0  0  0
   11.7098  -18.2104   29.2994 N   0  0  0  0  0  0  0  0  0  0  0  0
   10.9520  -19.3147   28.8872 C   0  0  0  0  0  0  0  0  0  0  0  0
   10.2632  -19.9635   29.7466 O   0  0  0  0  0  0  0  0  0  0  0  0
   10.8967  -19.7898   27.4812 C   0  0  0  0  0  0  0  0  0  0  0  0
   11.6274  -18.8085   26.5887 C   0  0  2  0  0  0  0  0  0  0  0  0
   10.9001  -18.4916   25.4013 N   0  0  0  0  0  0  0  0  0  0  0  0
   13.0085  -19.2737   26.3473 C   0  0  0  0  0  0  0  0  0  0  0  0
   14.0447  -19.1955   27.2681 O   0  0  0  0  0  0  0  0  0  0  0  0
   13.3038  -19.7881   25.2260 O   0  0  0  0  0  0  0  0  0  0  0  0
  2  1  1  1
  2  3  1  0
  4  5  1  0
  4  2  1  0
  5  6  1  1
  7  5  1  0
  7  8  2  0
  9  7  1  0
 10  9  1  0
 10 11  1  6
 12 11  1  0
 12 13  1  0
 13 14  2  0
 15 10  1  0
 16 15  2  0
 17 13  1  0
 18 19  1  0
 19 21  1  0
 20 19  2  0
 22 21  1  6
 22 24  1  0
 22 23  1  0
 23 15  1  0
 24 25  1  0
 26 24  2  0
M  END
$$$$
