HKC.pdb
     RDKit          3D

 26 26  0  0  1  0  0  0  0  0999 V2000
   22.3332  -20.5856  -13.2601 N   0  0  0  0  0  0  0  0  0  0  0  0
   23.7485  -20.6060  -12.9484 C   0  0  1  0  0  0  0  0  0  0  0  0
   23.9808  -21.8229  -12.0464 C   0  0  0  0  0  0  0  0  0  0  0  0
   23.3829  -21.5974  -10.7093 C   0  0  0  0  0  0  0  0  0  0  0  0
   22.1456  -22.0116  -10.2770 C   0  0  0  0  0  0  0  0  0  0  0  0
   21.9697  -21.6082   -8.9902 N   0  0  0  0  0  0  0  0  0  0  0  0
   23.0838  -20.9540   -8.6340 C   0  0  0  0  0  0  0  0  0  0  0  0
   23.9399  -20.9521   -9.6879 N   0  0  0  0  0  0  0  0  0  0  0  0
   24.5045  -20.7138  -14.1940 C   0  0  0  0  0  0  0  0  0  0  0  0
   24.1969  -21.5618  -15.0545 O   0  0  0  0  0  0  0  0  0  0  0  0
   25.6277  -19.8766  -14.5157 N   0  0  0  0  0  0  0  0  0  0  0  0
   26.3964  -20.0436  -15.7194 C   0  0  1  0  0  0  0  0  0  0  0  0
   27.1566  -18.7228  -15.9258 C   0  0  0  0  0  0  0  0  0  0  0  0
   27.9048  -18.8312  -17.2249 C   0  0  0  0  0  0  0  0  0  0  0  0
   28.6014  -17.5324  -17.5677 C   0  0  0  0  0  0  0  0  0  0  0  0
   29.2537  -17.6655  -18.9057 C   0  0  0  0  0  0  0  0  0  0  0  0
   30.0617  -16.4677  -19.1271 N   0  0  0  0  0  0  0  0  0  0  0  0
   27.3043  -21.1865  -15.7062 C   0  0  0  0  0  0  0  0  0  0  0  0
   28.1498  -21.3601  -14.7919 O   0  0  0  0  0  0  0  0  0  0  0  0
   27.2602  -22.1540  -16.7430 N   0  0  0  0  0  0  0  0  0  0  0  0
   28.1448  -23.2991  -16.6966 C   0  0  1  0  0  0  0  0  0  0  0  0
   27.3500  -24.5297  -17.0028 C   0  0  0  0  0  0  0  0  0  0  0  0
   26.2015  -24.8834  -15.6403 S   0  0  0  0  0  0  0  0  0  0  0  0
   29.2679  -23.1751  -17.6476 C   0  0  0  0  0  0  0  0  0  0  0  0
   29.2360  -22.2404  -18.4808 O   0  0  0  0  0  0  0  0  0  0  0  0
   30.3357  -24.0429  -17.6480 O   0  0  0  0  0  0  0  0  0  0  0  0
  2  1  1  6
  3  2  1  0
  4  3  1  0
  5  4  2  0
  6  7  1  0
  6  5  1  0
  7  8  2  0
  8  4  1  0
  9  2  1  0
  9 11  1  0
 10  9  2  0
 12 11  1  0
 12 13  1  1
 13 14  1  0
 14 15  1  0
 15 16  1  0
 17 16  1  0
 18 12  1  0
 19 18  2  0
 20 18  1  0
 21 20  1  0
 21 22  1  6
 22 23  1  0
 24 21  1  0
 25 24  2  0
 26 24  1  0
M  END
$$$$
