HKC.pdb
     RDKit          3D

 26 26  0  0  1  0  0  0  0  0999 V2000
   26.5906  -16.4681  -19.0002 N   0  0  0  0  0  0  0  0  0  0  0  0
   26.7213  -16.9477  -17.6387 C   0  0  1  0  0  0  0  0  0  0  0  0
   26.1291  -15.8624  -16.7333 C   0  0  0  0  0  0  0  0  0  0  0  0
   27.0265  -14.6840  -16.6833 C   0  0  0  0  0  0  0  0  0  0  0  0
   28.2028  -14.5115  -17.3730 C   0  0  0  0  0  0  0  0  0  0  0  0
   28.7273  -13.2977  -17.0546 N   0  0  0  0  0  0  0  0  0  0  0  0
   27.8853  -12.7296  -16.1804 C   0  0  0  0  0  0  0  0  0  0  0  0
   26.8514  -13.5815  -15.9596 N   0  0  0  0  0  0  0  0  0  0  0  0
   25.9909  -18.2064  -17.5096 C   0  0  0  0  0  0  0  0  0  0  0  0
   24.7819  -18.2747  -17.8061 O   0  0  0  0  0  0  0  0  0  0  0  0
   26.5898  -19.4276  -17.0451 N   0  0  0  0  0  0  0  0  0  0  0  0
   25.8099  -20.5655  -16.6395 C   0  0  1  0  0  0  0  0  0  0  0  0
   26.8204  -21.6544  -16.2416 C   0  0  0  0  0  0  0  0  0  0  0  0
   26.2386  -22.9796  -16.6472 C   0  0  0  0  0  0  0  0  0  0  0  0
   27.2341  -24.1013  -16.4461 C   0  0  0  0  0  0  0  0  0  0  0  0
   26.5823  -25.4013  -16.7905 C   0  0  0  0  0  0  0  0  0  0  0  0
   27.5693  -26.4604  -16.5881 N   0  0  0  0  0  0  0  0  0  0  0  0
   24.8607  -20.2983  -15.5632 C   0  0  0  0  0  0  0  0  0  0  0  0
   25.2059  -19.7485  -14.4864 O   0  0  0  0  0  0  0  0  0  0  0  0
   23.4950  -20.6569  -15.7011 N   0  0  0  0  0  0  0  0  0  0  0  0
   22.5822  -20.4525  -14.5961 C   0  0  1  0  0  0  0  0  0  0  0  0
   21.8601  -19.1586  -14.8057 C   0  0  0  0  0  0  0  0  0  0  0  0
   20.5547  -18.9655  -13.5570 S   0  0  0  0  0  0  0  0  0  0  0  0
   21.6100  -21.5565  -14.4645 C   0  0  0  0  0  0  0  0  0  0  0  0
   21.2551  -22.1583  -15.5040 O   0  0  0  0  0  0  0  0  0  0  0  0
   21.0874  -21.9408  -13.2510 O   0  0  0  0  0  0  0  0  0  0  0  0
  2  1  1  6
  3  2  1  0
  4  3  1  0
  5  4  2  0
  6  7  1  0
  6  5  1  0
  7  8  2  0
  8  4  1  0
  9  2  1  0
  9 11  1  0
 10  9  2  0
 12 11  1  0
 12 13  1  1
 13 14  1  0
 14 15  1  0
 15 16  1  0
 17 16  1  0
 18 12  1  0
 19 18  2  0
 20 18  1  0
 21 20  1  0
 21 22  1  6
 22 23  1  0
 24 21  1  0
 25 24  2  0
 26 24  1  0
M  END
$$$$
