HKC.pdb
     RDKit          3D

 26 26  0  0  1  0  0  0  0  0999 V2000
   27.8997  -14.9194  -19.2428 N   0  0  0  0  0  0  0  0  0  0  0  0
   27.3089  -14.9256  -17.9193 C   0  0  1  0  0  0  0  0  0  0  0  0
   26.3606  -13.7234  -17.8574 C   0  0  0  0  0  0  0  0  0  0  0  0
   27.1313  -12.4601  -17.7773 C   0  0  0  0  0  0  0  0  0  0  0  0
   28.4847  -12.3293  -17.5765 C   0  0  0  0  0  0  0  0  0  0  0  0
   28.8038  -11.0073  -17.5664 N   0  0  0  0  0  0  0  0  0  0  0  0
   27.6621  -10.3322  -17.7584 C   0  0  0  0  0  0  0  0  0  0  0  0
   26.6477  -11.2256  -17.8860 N   0  0  0  0  0  0  0  0  0  0  0  0
   26.5889  -16.1827  -17.7298 C   0  0  0  0  0  0  0  0  0  0  0  0
   25.5629  -16.4352  -18.3915 O   0  0  0  0  0  0  0  0  0  0  0  0
   26.9940  -17.1962  -16.7946 N   0  0  0  0  0  0  0  0  0  0  0  0
   26.1756  -18.3386  -16.4904 C   0  0  1  0  0  0  0  0  0  0  0  0
   27.0527  -19.2781  -15.6459 C   0  0  0  0  0  0  0  0  0  0  0  0
   26.2684  -20.5388  -15.4123 C   0  0  0  0  0  0  0  0  0  0  0  0
   26.7919  -21.6768  -16.2612 C   0  0  0  0  0  0  0  0  0  0  0  0
   25.9799  -22.9021  -15.9912 C   0  0  0  0  0  0  0  0  0  0  0  0
   26.3702  -23.9176  -16.9675 N   0  0  0  0  0  0  0  0  0  0  0  0
   24.9222  -18.0239  -15.8116 C   0  0  0  0  0  0  0  0  0  0  0  0
   24.8801  -17.3024  -14.7827 O   0  0  0  0  0  0  0  0  0  0  0  0
   23.6907  -18.5314  -16.3003 N   0  0  0  0  0  0  0  0  0  0  0  0
   22.4726  -18.3094  -15.5501 C   0  0  1  0  0  0  0  0  0  0  0  0
   21.5782  -17.4111  -16.3458 C   0  0  0  0  0  0  0  0  0  0  0  0
   19.9669  -17.2496  -15.5221 S   0  0  0  0  0  0  0  0  0  0  0  0
   21.7714  -19.5715  -15.2392 C   0  0  0  0  0  0  0  0  0  0  0  0
   22.0176  -20.5743  -15.9481 O   0  0  0  0  0  0  0  0  0  0  0  0
   20.8670  -19.6803  -14.2079 O   0  0  0  0  0  0  0  0  0  0  0  0
  2  1  1  6
  3  2  1  0
  4  3  1  0
  5  4  2  0
  6  7  1  0
  6  5  1  0
  7  8  2  0
  8  4  1  0
  9  2  1  0
  9 11  1  0
 10  9  2  0
 12 11  1  0
 12 13  1  1
 13 14  1  0
 14 15  1  0
 15 16  1  0
 17 16  1  0
 18 12  1  0
 19 18  2  0
 20 18  1  0
 21 20  1  0
 21 22  1  6
 22 23  1  0
 24 21  1  0
 25 24  2  0
 26 24  1  0
M  END
$$$$
