HKC.pdb
     RDKit          3D

 26 26  0  0  1  0  0  0  0  0999 V2000
   17.2102  -23.9039  -12.9495 N   0  0  0  0  0  0  0  0  0  0  0  0
   18.2653  -24.7171  -12.3783 C   0  0  1  0  0  0  0  0  0  0  0  0
   19.3730  -23.7530  -11.9403 C   0  0  0  0  0  0  0  0  0  0  0  0
   20.0331  -23.1519  -13.1232 C   0  0  0  0  0  0  0  0  0  0  0  0
   19.9053  -21.8593  -13.5727 C   0  0  0  0  0  0  0  0  0  0  0  0
   20.6713  -21.7011  -14.6854 N   0  0  0  0  0  0  0  0  0  0  0  0
   21.2634  -22.8805  -14.9184 C   0  0  0  0  0  0  0  0  0  0  0  0
   20.8688  -23.7591  -13.9615 N   0  0  0  0  0  0  0  0  0  0  0  0
   17.7255  -25.4603  -11.2421 C   0  0  0  0  0  0  0  0  0  0  0  0
   16.9841  -24.9018  -10.4098 O   0  0  0  0  0  0  0  0  0  0  0  0
   17.9982  -26.8509  -11.0015 N   0  0  0  0  0  0  0  0  0  0  0  0
   17.5522  -27.5321   -9.8164 C   0  0  1  0  0  0  0  0  0  0  0  0
   18.0022  -28.9946   -9.9710 C   0  0  0  0  0  0  0  0  0  0  0  0
   17.4765  -29.7560   -8.7865 C   0  0  0  0  0  0  0  0  0  0  0  0
   17.8205  -31.2264   -8.8820 C   0  0  0  0  0  0  0  0  0  0  0  0
   17.1643  -31.9564   -7.7551 C   0  0  0  0  0  0  0  0  0  0  0  0
   17.5068  -33.3717   -7.8835 N   0  0  0  0  0  0  0  0  0  0  0  0
   18.0346  -26.9539   -8.5660 C   0  0  0  0  0  0  0  0  0  0  0  0
   19.0371  -26.1962   -8.5208 O   0  0  0  0  0  0  0  0  0  0  0  0
   17.3758  -27.2336   -7.3410 N   0  0  0  0  0  0  0  0  0  0  0  0
   17.6542  -26.4246   -6.1731 C   0  0  1  0  0  0  0  0  0  0  0  0
   17.0913  -25.0558   -6.3947 C   0  0  0  0  0  0  0  0  0  0  0  0
   17.2393  -24.0692   -4.8762 S   0  0  0  0  0  0  0  0  0  0  0  0
   17.0866  -27.0095   -4.9415 C   0  0  0  0  0  0  0  0  0  0  0  0
   15.9626  -27.5578   -5.0114 O   0  0  0  0  0  0  0  0  0  0  0  0
   17.7448  -26.9721   -3.7337 O   0  0  0  0  0  0  0  0  0  0  0  0
  2  1  1  1
  3  2  1  0
  4  3  1  0
  5  4  2  0
  6  7  1  0
  6  5  1  0
  7  8  2  0
  8  4  1  0
  9  2  1  0
  9 11  1  0
 10  9  2  0
 12 11  1  0
 12 13  1  6
 13 14  1  0
 14 15  1  0
 15 16  1  0
 17 16  1  0
 18 12  1  0
 19 18  2  0
 20 18  1  0
 21 20  1  0
 21 22  1  6
 22 23  1  0
 24 21  1  0
 25 24  2  0
 26 24  1  0
M  END
$$$$
