HKC.pdb
     RDKit          3D

 26 26  0  0  1  0  0  0  0  0999 V2000
   14.7930  -15.6406    4.1915 N   0  0  0  0  0  0  0  0  0  0  0  0
   16.1002  -15.7656    4.8050 C   0  0  1  0  0  0  0  0  0  0  0  0
   17.0665  -16.1904    3.6941 C   0  0  0  0  0  0  0  0  0  0  0  0
   16.9164  -17.6356    3.4025 C   0  0  0  0  0  0  0  0  0  0  0  0
   16.0896  -18.2077    2.4653 C   0  0  0  0  0  0  0  0  0  0  0  0
   16.2429  -19.5585    2.5072 N   0  0  0  0  0  0  0  0  0  0  0  0
   17.1521  -19.8154    3.4576 C   0  0  0  0  0  0  0  0  0  0  0  0
   17.5573  -18.6377    3.9982 N   0  0  0  0  0  0  0  0  0  0  0  0
   16.4788  -14.4751    5.3761 C   0  0  0  0  0  0  0  0  0  0  0  0
   16.2480  -13.4147    4.7626 O   0  0  0  0  0  0  0  0  0  0  0  0
   17.1270  -14.3308    6.6508 N   0  0  0  0  0  0  0  0  0  0  0  0
   17.5109  -13.0509    7.1821 C   0  0  1  0  0  0  0  0  0  0  0  0
   16.5985  -12.8024    8.3949 C   0  0  0  0  0  0  0  0  0  0  0  0
   16.9687  -11.4645    8.9712 C   0  0  0  0  0  0  0  0  0  0  0  0
   15.7854  -10.5213    8.9741 C   0  0  0  0  0  0  0  0  0  0  0  0
   16.2372   -9.1712    9.4286 C   0  0  0  0  0  0  0  0  0  0  0  0
   15.0789   -8.2802    9.3939 N   0  0  0  0  0  0  0  0  0  0  0  0
   18.9211  -12.9417    7.5428 C   0  0  0  0  0  0  0  0  0  0  0  0
   19.5342  -13.8646    8.1371 O   0  0  0  0  0  0  0  0  0  0  0  0
   19.6567  -11.7699    7.2286 N   0  0  0  0  0  0  0  0  0  0  0  0
   21.0751  -11.7129    7.5129 C   0  0  1  0  0  0  0  0  0  0  0  0
   21.7372  -10.8642    6.4732 C   0  0  0  0  0  0  0  0  0  0  0  0
   21.7136  -11.7152    4.8682 S   0  0  0  0  0  0  0  0  0  0  0  0
   21.3528  -11.1701    8.8580 C   0  0  0  0  0  0  0  0  0  0  0  0
   20.4783  -10.4546    9.3985 O   0  0  0  0  0  0  0  0  0  0  0  0
   22.5273  -11.4220    9.5291 O   0  0  0  0  0  0  0  0  0  0  0  0
  2  1  1  6
  3  2  1  0
  4  3  1  0
  5  4  2  0
  6  7  1  0
  6  5  1  0
  7  8  2  0
  8  4  1  0
  9  2  1  0
  9 11  1  0
 10  9  2  0
 12 11  1  0
 12 13  1  1
 13 14  1  0
 14 15  1  0
 15 16  1  0
 17 16  1  0
 18 12  1  0
 19 18  2  0
 20 18  1  0
 21 20  1  0
 21 22  1  6
 22 23  1  0
 24 21  1  0
 25 24  2  0
 26 24  1  0
M  END
$$$$
