HKC.pdb
     RDKit          3D

 26 26  0  0  1  0  0  0  0  0999 V2000
   28.8031  -21.2630  -17.5725 N   0  0  0  0  0  0  0  0  0  0  0  0
   28.2321  -20.1307  -16.8706 C   0  0  1  0  0  0  0  0  0  0  0  0
   27.6764  -19.1863  -17.9418 C   0  0  0  0  0  0  0  0  0  0  0  0
   28.7825  -18.5643  -18.7072 C   0  0  0  0  0  0  0  0  0  0  0  0
   29.1021  -18.7863  -20.0254 C   0  0  0  0  0  0  0  0  0  0  0  0
   30.1812  -18.0256  -20.3522 N   0  0  0  0  0  0  0  0  0  0  0  0
   30.5221  -17.3439  -19.2500 C   0  0  0  0  0  0  0  0  0  0  0  0
   29.6643  -17.6782  -18.2521 N   0  0  0  0  0  0  0  0  0  0  0  0
   27.1754  -20.6101  -15.9826 C   0  0  0  0  0  0  0  0  0  0  0  0
   26.2008  -21.2420  -16.4353 O   0  0  0  0  0  0  0  0  0  0  0  0
   27.1761  -20.3975  -14.5611 N   0  0  0  0  0  0  0  0  0  0  0  0
   26.0829  -20.8010  -13.7188 C   0  0  1  0  0  0  0  0  0  0  0  0
   26.5056  -20.4603  -12.2799 C   0  0  0  0  0  0  0  0  0  0  0  0
   25.3970  -20.9038  -11.3670 C   0  0  0  0  0  0  0  0  0  0  0  0
   25.6909  -20.5388   -9.9283 C   0  0  0  0  0  0  0  0  0  0  0  0
   24.5649  -21.0079   -9.0648 C   0  0  0  0  0  0  0  0  0  0  0  0
   24.8615  -20.6060   -7.6910 N   0  0  0  0  0  0  0  0  0  0  0  0
   24.7996  -20.1930  -14.0570 C   0  0  0  0  0  0  0  0  0  0  0  0
   24.6672  -18.9530  -14.2178 O   0  0  0  0  0  0  0  0  0  0  0  0
   23.6414  -20.9965  -14.2175 N   0  0  0  0  0  0  0  0  0  0  0  0
   22.3579  -20.3697  -14.4532 C   0  0  1  0  0  0  0  0  0  0  0  0
   22.0208  -20.5020  -15.9053 C   0  0  0  0  0  0  0  0  0  0  0  0
   20.3521  -19.8551  -16.2179 S   0  0  0  0  0  0  0  0  0  0  0  0
   21.2863  -20.9669  -13.6308 C   0  0  0  0  0  0  0  0  0  0  0  0
   20.1674  -20.4041  -13.6190 O   0  0  0  0  0  0  0  0  0  0  0  0
   21.4750  -22.1082  -12.8858 O   0  0  0  0  0  0  0  0  0  0  0  0
  2  1  1  6
  3  2  1  0
  4  3  1  0
  5  4  2  0
  6  7  1  0
  6  5  1  0
  7  8  2  0
  8  4  1  0
  9  2  1  0
  9 11  1  0
 10  9  2  0
 12 11  1  0
 12 13  1  1
 13 14  1  0
 14 15  1  0
 15 16  1  0
 17 16  1  0
 18 12  1  0
 19 18  2  0
 20 18  1  0
 21 20  1  0
 21 22  1  6
 22 23  1  0
 24 21  1  0
 25 24  2  0
 26 24  1  0
M  END
$$$$
