HKC.pdb
     RDKit          3D

 26 26  0  0  1  0  0  0  0  0999 V2000
   28.6126  -34.2731  -10.4027 N   0  0  0  0  0  0  0  0  0  0  0  0
   28.6567  -34.8152   -9.0593 C   0  0  1  0  0  0  0  0  0  0  0  0
   30.1158  -34.7276   -8.5993 C   0  0  0  0  0  0  0  0  0  0  0  0
   30.8738  -35.9172   -9.0539 C   0  0  0  0  0  0  0  0  0  0  0  0
   30.3746  -37.0083   -9.7244 C   0  0  0  0  0  0  0  0  0  0  0  0
   31.3890  -37.8827   -9.9616 N   0  0  0  0  0  0  0  0  0  0  0  0
   32.4986  -37.3377   -9.4442 C   0  0  0  0  0  0  0  0  0  0  0  0
   32.1755  -36.1398   -8.8929 N   0  0  0  0  0  0  0  0  0  0  0  0
   27.7790  -34.0223   -8.2015 C   0  0  0  0  0  0  0  0  0  0  0  0
   27.9887  -32.8060   -8.0260 O   0  0  0  0  0  0  0  0  0  0  0  0
   26.6397  -34.5652   -7.5136 N   0  0  0  0  0  0  0  0  0  0  0  0
   25.7440  -33.7497   -6.7388 C   0  0  1  0  0  0  0  0  0  0  0  0
   24.3933  -33.7843   -7.4734 C   0  0  0  0  0  0  0  0  0  0  0  0
   24.2737  -32.5079   -8.2579 C   0  0  0  0  0  0  0  0  0  0  0  0
   22.9899  -32.4731   -9.0580 C   0  0  0  0  0  0  0  0  0  0  0  0
   22.9711  -31.2379   -9.8992 C   0  0  0  0  0  0  0  0  0  0  0  0
   21.7561  -31.2720  -10.7113 N   0  0  0  0  0  0  0  0  0  0  0  0
   25.6045  -34.1578   -5.3442 C   0  0  0  0  0  0  0  0  0  0  0  0
   25.5300  -35.3659   -5.0037 O   0  0  0  0  0  0  0  0  0  0  0  0
   25.5476  -33.1868   -4.3114 N   0  0  0  0  0  0  0  0  0  0  0  0
   25.3850  -33.6081   -2.9359 C   0  0  1  0  0  0  0  0  0  0  0  0
   26.0752  -32.6201   -2.0486 C   0  0  0  0  0  0  0  0  0  0  0  0
   27.8351  -32.5138   -2.4871 S   0  0  0  0  0  0  0  0  0  0  0  0
   23.9634  -33.7227   -2.5521 C   0  0  0  0  0  0  0  0  0  0  0  0
   23.0969  -33.5743   -3.4442 O   0  0  0  0  0  0  0  0  0  0  0  0
   23.5647  -33.9841   -1.2614 O   0  0  0  0  0  0  0  0  0  0  0  0
  2  1  1  6
  3  2  1  0
  4  3  1  0
  5  4  2  0
  6  7  1  0
  6  5  1  0
  7  8  2  0
  8  4  1  0
  9  2  1  0
  9 11  1  0
 10  9  2  0
 12 11  1  0
 12 13  1  6
 13 14  1  0
 14 15  1  0
 15 16  1  0
 17 16  1  0
 18 12  1  0
 19 18  2  0
 20 18  1  0
 21 20  1  0
 21 22  1  1
 22 23  1  0
 24 21  1  0
 25 24  2  0
 26 24  1  0
M  END
$$$$
