HKC.pdb
     RDKit          3D

 26 26  0  0  1  0  0  0  0  0999 V2000
   24.2129  -11.5819  -17.8981 N   0  0  0  0  0  0  0  0  0  0  0  0
   24.1767  -10.9524  -16.5930 C   0  0  1  0  0  0  0  0  0  0  0  0
   25.6218  -10.5779  -16.2471 C   0  0  0  0  0  0  0  0  0  0  0  0
   26.4516  -11.7972  -16.1019 C   0  0  0  0  0  0  0  0  0  0  0  0
   26.3701  -12.7378  -15.1031 C   0  0  0  0  0  0  0  0  0  0  0  0
   27.3026  -13.7022  -15.3276 N   0  0  0  0  0  0  0  0  0  0  0  0
   27.9501  -13.3603  -16.4500 C   0  0  0  0  0  0  0  0  0  0  0  0
   27.4251  -12.1979  -16.9154 N   0  0  0  0  0  0  0  0  0  0  0  0
   23.3218   -9.7697  -16.6632 C   0  0  0  0  0  0  0  0  0  0  0  0
   23.4980   -8.9078  -17.5466 O   0  0  0  0  0  0  0  0  0  0  0  0
   22.2436   -9.5142  -15.7477 N   0  0  0  0  0  0  0  0  0  0  0  0
   21.4023   -8.3525  -15.8493 C   0  0  1  0  0  0  0  0  0  0  0  0
   19.9951   -8.8077  -15.4277 C   0  0  0  0  0  0  0  0  0  0  0  0
   19.3627   -9.4769  -16.6157 C   0  0  0  0  0  0  0  0  0  0  0  0
   18.0247  -10.0851  -16.2558 C   0  0  0  0  0  0  0  0  0  0  0  0
   17.4794  -10.8065  -17.4456 C   0  0  0  0  0  0  0  0  0  0  0  0
   16.2670  -11.5058  -17.0239 N   0  0  0  0  0  0  0  0  0  0  0  0
   21.8514   -7.2073  -15.0635 C   0  0  0  0  0  0  0  0  0  0  0  0
   22.1628   -7.3082  -13.8495 O   0  0  0  0  0  0  0  0  0  0  0  0
   21.9524   -5.9220  -15.6556 N   0  0  0  0  0  0  0  0  0  0  0  0
   22.5007   -4.8198  -14.8937 C   0  0  1  0  0  0  0  0  0  0  0  0
   23.0976   -3.8311  -15.8453 C   0  0  0  0  0  0  0  0  0  0  0  0
   24.4217   -4.6171  -16.8095 S   0  0  0  0  0  0  0  0  0  0  0  0
   21.4799   -4.1592  -14.0553 C   0  0  0  0  0  0  0  0  0  0  0  0
   20.2736   -4.3872  -14.3036 O   0  0  0  0  0  0  0  0  0  0  0  0
   21.8072   -3.3111  -13.0223 O   0  0  0  0  0  0  0  0  0  0  0  0
  2  1  1  6
  3  2  1  0
  4  3  1  0
  5  4  2  0
  6  7  1  0
  6  5  1  0
  7  8  2  0
  8  4  1  0
  9  2  1  0
  9 11  1  0
 10  9  2  0
 12 11  1  0
 12 13  1  1
 13 14  1  0
 14 15  1  0
 15 16  1  0
 17 16  1  0
 18 12  1  0
 19 18  2  0
 20 18  1  0
 21 20  1  0
 21 22  1  6
 22 23  1  0
 24 21  1  0
 25 24  2  0
 26 24  1  0
M  END
$$$$
