HKC.pdb
     RDKit          3D

 26 26  0  0  1  0  0  0  0  0999 V2000
   28.8989  -33.6743  -17.8907 N   0  0  0  0  0  0  0  0  0  0  0  0
   29.7041  -32.5702  -17.4076 C   0  0  1  0  0  0  0  0  0  0  0  0
   29.1146  -32.1573  -16.0547 C   0  0  0  0  0  0  0  0  0  0  0  0
   27.7633  -31.5762  -16.2349 C   0  0  0  0  0  0  0  0  0  0  0  0
   26.5729  -32.0992  -15.7892 C   0  0  0  0  0  0  0  0  0  0  0  0
   25.5607  -31.2679  -16.1554 N   0  0  0  0  0  0  0  0  0  0  0  0
   26.1199  -30.2461  -16.8180 C   0  0  0  0  0  0  0  0  0  0  0  0
   27.4627  -30.4420  -16.8618 N   0  0  0  0  0  0  0  0  0  0  0  0
   31.0877  -33.0195  -17.2714 C   0  0  0  0  0  0  0  0  0  0  0  0
   31.3468  -34.1959  -16.9504 O   0  0  0  0  0  0  0  0  0  0  0  0
   32.2241  -32.1670  -17.4900 N   0  0  0  0  0  0  0  0  0  0  0  0
   33.5767  -32.6508  -17.4266 C   0  0  1  0  0  0  0  0  0  0  0  0
   34.2653  -32.1596  -18.7110 C   0  0  0  0  0  0  0  0  0  0  0  0
   33.6452  -32.8961  -19.8652 C   0  0  0  0  0  0  0  0  0  0  0  0
   34.2441  -32.4558  -21.1832 C   0  0  0  0  0  0  0  0  0  0  0  0
   33.5852  -33.2065  -22.2949 C   0  0  0  0  0  0  0  0  0  0  0  0
   34.0943  -32.6702  -23.5559 N   0  0  0  0  0  0  0  0  0  0  0  0
   34.3129  -32.2403  -16.2349 C   0  0  0  0  0  0  0  0  0  0  0  0
   34.0854  -31.1516  -15.6485 O   0  0  0  0  0  0  0  0  0  0  0  0
   35.3261  -33.0717  -15.6916 N   0  0  0  0  0  0  0  0  0  0  0  0
   35.9314  -32.7318  -14.4212 C   0  0  1  0  0  0  0  0  0  0  0  0
   34.8699  -32.7483  -13.3664 C   0  0  0  0  0  0  0  0  0  0  0  0
   35.6036  -32.4041  -11.7403 S   0  0  0  0  0  0  0  0  0  0  0  0
   37.0195  -33.6611  -14.0556 C   0  0  0  0  0  0  0  0  0  0  0  0
   36.9221  -34.8563  -14.4173 O   0  0  0  0  0  0  0  0  0  0  0  0
   38.1239  -33.2612  -13.3389 O   0  0  0  0  0  0  0  0  0  0  0  0
  2  1  1  1
  3  2  1  0
  4  3  1  0
  5  4  2  0
  6  7  1  0
  6  5  1  0
  7  8  2  0
  8  4  1  0
  9  2  1  0
  9 11  1  0
 10  9  2  0
 12 11  1  0
 12 13  1  6
 13 14  1  0
 14 15  1  0
 15 16  1  0
 17 16  1  0
 18 12  1  0
 19 18  2  0
 20 18  1  0
 21 20  1  0
 21 22  1  1
 22 23  1  0
 24 21  1  0
 25 24  2  0
 26 24  1  0
M  END
$$$$
