HKC.pdb
     RDKit          3D

 26 26  0  0  1  0  0  0  0  0999 V2000
   19.2938  -12.8463  -16.7746 N   0  0  0  0  0  0  0  0  0  0  0  0
   18.6461  -11.5814  -16.4898 C   0  0  1  0  0  0  0  0  0  0  0  0
   18.0186  -11.7142  -15.0981 C   0  0  0  0  0  0  0  0  0  0  0  0
   16.8365  -12.6067  -15.1466 C   0  0  0  0  0  0  0  0  0  0  0  0
   15.9302  -12.7223  -16.1734 C   0  0  0  0  0  0  0  0  0  0  0  0
   14.9932  -13.6475  -15.8331 N   0  0  0  0  0  0  0  0  0  0  0  0
   15.3177  -14.0961  -14.6127 C   0  0  0  0  0  0  0  0  0  0  0  0
   16.4426  -13.4564  -14.2017 N   0  0  0  0  0  0  0  0  0  0  0  0
   19.6492  -10.5196  -16.5231 C   0  0  0  0  0  0  0  0  0  0  0  0
   20.6466  -10.5618  -15.7763 O   0  0  0  0  0  0  0  0  0  0  0  0
   19.5679   -9.3779  -17.3925 N   0  0  0  0  0  0  0  0  0  0  0  0
   20.5654   -8.3423  -17.4035 C   0  0  1  0  0  0  0  0  0  0  0  0
   20.6045   -7.8040  -18.8436 C   0  0  0  0  0  0  0  0  0  0  0  0
   21.3912   -8.7826  -19.6697 C   0  0  0  0  0  0  0  0  0  0  0  0
   21.5242   -8.3108  -21.1013 C   0  0  0  0  0  0  0  0  0  0  0  0
   22.3552   -9.2912  -21.8642 C   0  0  0  0  0  0  0  0  0  0  0  0
   22.3650   -8.8706  -23.2641 N   0  0  0  0  0  0  0  0  0  0  0  0
   20.3387   -7.2709  -16.4384 C   0  0  0  0  0  0  0  0  0  0  0  0
   19.1982   -6.7819  -16.2355 O   0  0  0  0  0  0  0  0  0  0  0  0
   21.4172   -6.7385  -15.6860 N   0  0  0  0  0  0  0  0  0  0  0  0
   21.1840   -5.6405  -14.7718 C   0  0  1  0  0  0  0  0  0  0  0  0
   22.0369   -5.8394  -13.5583 C   0  0  0  0  0  0  0  0  0  0  0  0
   21.4899   -7.3137  -12.6484 S   0  0  0  0  0  0  0  0  0  0  0  0
   21.4800   -4.3306  -15.3865 C   0  0  0  0  0  0  0  0  0  0  0  0
   22.0518   -4.3167  -16.5008 O   0  0  0  0  0  0  0  0  0  0  0  0
   21.1520   -3.1389  -14.7819 O   0  0  0  0  0  0  0  0  0  0  0  0
  2  1  1  1
  3  2  1  0
  4  3  1  0
  5  4  2  0
  6  7  1  0
  6  5  1  0
  7  8  2  0
  8  4  1  0
  9  2  1  0
  9 11  1  0
 10  9  2  0
 12 11  1  0
 12 13  1  6
 13 14  1  0
 14 15  1  0
 15 16  1  0
 17 16  1  0
 18 12  1  0
 19 18  2  0
 20 18  1  0
 21 20  1  0
 21 22  1  1
 22 23  1  0
 24 21  1  0
 25 24  2  0
 26 24  1  0
M  END
$$$$
