HKC.pdb
     RDKit          3D

 26 26  0  0  1  0  0  0  0  0999 V2000
   19.4132  -14.4230  -17.1606 N   0  0  0  0  0  0  0  0  0  0  0  0
   18.4861  -13.3290  -16.9498 C   0  0  1  0  0  0  0  0  0  0  0  0
   17.7709  -13.6103  -15.6240 C   0  0  0  0  0  0  0  0  0  0  0  0
   16.8784  -14.7858  -15.7570 C   0  0  0  0  0  0  0  0  0  0  0  0
   15.6761  -14.8394  -16.4209 C   0  0  0  0  0  0  0  0  0  0  0  0
   15.1668  -16.0957  -16.3112 N   0  0  0  0  0  0  0  0  0  0  0  0
   16.0436  -16.8070  -15.5892 C   0  0  0  0  0  0  0  0  0  0  0  0
   17.0838  -16.0008  -15.2555 N   0  0  0  0  0  0  0  0  0  0  0  0
   19.2378  -12.0774  -16.8948 C   0  0  0  0  0  0  0  0  0  0  0  0
   20.1483  -11.9173  -16.0583 O   0  0  0  0  0  0  0  0  0  0  0  0
   18.9946  -10.9662  -17.7734 N   0  0  0  0  0  0  0  0  0  0  0  0
   19.7846   -9.7652  -17.7375 C   0  0  1  0  0  0  0  0  0  0  0  0
   19.6467   -9.1231  -19.1281 C   0  0  0  0  0  0  0  0  0  0  0  0
   20.4565   -9.9484  -20.0884 C   0  0  0  0  0  0  0  0  0  0  0  0
   20.3074   -9.4440  -21.5072 C   0  0  0  0  0  0  0  0  0  0  0  0
   21.1311  -10.2957  -22.4182 C   0  0  0  0  0  0  0  0  0  0  0  0
   20.9981   -9.7573  -23.7706 N   0  0  0  0  0  0  0  0  0  0  0  0
   19.4193   -8.8298  -16.6782 C   0  0  0  0  0  0  0  0  0  0  0  0
   18.2231   -8.5320  -16.4303 O   0  0  0  0  0  0  0  0  0  0  0  0
   20.4201   -8.2166  -15.8813 N   0  0  0  0  0  0  0  0  0  0  0  0
   20.0408   -7.2803  -14.8443 C   0  0  1  0  0  0  0  0  0  0  0  0
   20.3251   -7.9011  -13.5125 C   0  0  0  0  0  0  0  0  0  0  0  0
   22.1039   -8.2313  -13.3472 S   0  0  0  0  0  0  0  0  0  0  0  0
   20.7580   -5.9948  -14.9642 C   0  0  0  0  0  0  0  0  0  0  0  0
   21.6717   -5.9053  -15.8163 O   0  0  0  0  0  0  0  0  0  0  0  0
   20.4585   -4.9049  -14.1795 O   0  0  0  0  0  0  0  0  0  0  0  0
  2  1  1  1
  3  2  1  0
  4  3  1  0
  5  4  2  0
  6  7  1  0
  6  5  1  0
  7  8  2  0
  8  4  1  0
  9  2  1  0
  9 11  1  0
 10  9  2  0
 12 11  1  0
 12 13  1  6
 13 14  1  0
 14 15  1  0
 15 16  1  0
 17 16  1  0
 18 12  1  0
 19 18  2  0
 20 18  1  0
 21 20  1  0
 21 22  1  1
 22 23  1  0
 24 21  1  0
 25 24  2  0
 26 24  1  0
M  END
$$$$
