HKC.pdb
     RDKit          3D

 26 26  0  0  1  0  0  0  0  0999 V2000
   16.4626  -24.5335   -9.6411 N   0  0  0  0  0  0  0  0  0  0  0  0
   17.4785  -25.3883   -9.0598 C   0  0  1  0  0  0  0  0  0  0  0  0
   18.6997  -24.5006   -8.7969 C   0  0  0  0  0  0  0  0  0  0  0  0
   19.2871  -24.0368  -10.0760 C   0  0  0  0  0  0  0  0  0  0  0  0
   19.3582  -22.7417  -10.5309 C   0  0  0  0  0  0  0  0  0  0  0  0
   19.9691  -22.7336  -11.7460 N   0  0  0  0  0  0  0  0  0  0  0  0
   20.2704  -24.0067  -12.0362 C   0  0  0  0  0  0  0  0  0  0  0  0
   19.8512  -24.7944  -11.0128 N   0  0  0  0  0  0  0  0  0  0  0  0
   16.9598  -25.9619   -7.8203 C   0  0  0  0  0  0  0  0  0  0  0  0
   16.3990  -25.2420   -6.9709 O   0  0  0  0  0  0  0  0  0  0  0  0
   17.0520  -27.3583   -7.4924 N   0  0  0  0  0  0  0  0  0  0  0  0
   16.4319  -27.9202   -6.3230 C   0  0  1  0  0  0  0  0  0  0  0  0
   16.0595  -29.3660   -6.6917 C   0  0  0  0  0  0  0  0  0  0  0  0
   15.2477  -29.9260   -5.5573 C   0  0  0  0  0  0  0  0  0  0  0  0
   14.7611  -31.3246   -5.8681 C   0  0  0  0  0  0  0  0  0  0  0  0
   13.9664  -31.8347   -4.7097 C   0  0  0  0  0  0  0  0  0  0  0  0
   13.4981  -33.1772   -5.0491 N   0  0  0  0  0  0  0  0  0  0  0  0
   17.2532  -27.8707   -5.1173 C   0  0  0  0  0  0  0  0  0  0  0  0
   18.5068  -27.9597   -5.1562 O   0  0  0  0  0  0  0  0  0  0  0  0
   16.6519  -27.7179   -3.8414 N   0  0  0  0  0  0  0  0  0  0  0  0
   17.4831  -27.6438   -2.6584 C   0  0  1  0  0  0  0  0  0  0  0  0
   16.7656  -26.8400   -1.6197 C   0  0  0  0  0  0  0  0  0  0  0  0
   17.7216  -26.8249   -0.0749 S   0  0  0  0  0  0  0  0  0  0  0  0
   17.8115  -28.9805   -2.1230 C   0  0  0  0  0  0  0  0  0  0  0  0
   18.8317  -29.0951   -1.4055 O   0  0  0  0  0  0  0  0  0  0  0  0
   17.0421  -30.0910   -2.3839 O   0  0  0  0  0  0  0  0  0  0  0  0
  2  1  1  1
  3  2  1  0
  4  3  1  0
  5  4  2  0
  6  7  1  0
  6  5  1  0
  7  8  2  0
  8  4  1  0
  9  2  1  0
  9 11  1  0
 10  9  2  0
 12 11  1  0
 12 13  1  6
 13 14  1  0
 14 15  1  0
 15 16  1  0
 17 16  1  0
 18 12  1  0
 19 18  2  0
 20 18  1  0
 21 20  1  0
 21 22  1  1
 22 23  1  0
 24 21  1  0
 25 24  2  0
 26 24  1  0
M  END
$$$$
