HKC.pdb
     RDKit          3D

 26 26  0  0  1  0  0  0  0  0999 V2000
   29.0329  -22.7834  -17.8087 N   0  0  0  0  0  0  0  0  0  0  0  0
   27.7816  -22.0742  -17.9876 C   0  0  1  0  0  0  0  0  0  0  0  0
   27.8460  -21.4141  -19.3691 C   0  0  0  0  0  0  0  0  0  0  0  0
   28.9248  -20.3989  -19.4075 C   0  0  0  0  0  0  0  0  0  0  0  0
   28.8553  -19.1020  -18.9574 C   0  0  0  0  0  0  0  0  0  0  0  0
   30.0538  -18.4956  -19.1714 N   0  0  0  0  0  0  0  0  0  0  0  0
   30.8513  -19.4067  -19.7457 C   0  0  0  0  0  0  0  0  0  0  0  0
   30.1552  -20.5639  -19.8860 N   0  0  0  0  0  0  0  0  0  0  0  0
   26.6808  -23.0314  -17.9051 C   0  0  0  0  0  0  0  0  0  0  0  0
   25.8371  -23.1124  -18.8193 O   0  0  0  0  0  0  0  0  0  0  0  0
   26.4896  -23.9275  -16.7976 N   0  0  0  0  0  0  0  0  0  0  0  0
   25.3949  -24.8579  -16.7364 C   0  0  1  0  0  0  0  0  0  0  0  0
   25.9640  -26.1446  -16.1155 C   0  0  0  0  0  0  0  0  0  0  0  0
   26.8862  -26.7644  -17.1276 C   0  0  0  0  0  0  0  0  0  0  0  0
   27.5350  -28.0187  -16.5842 C   0  0  0  0  0  0  0  0  0  0  0  0
   28.4361  -28.5950  -17.6280 C   0  0  0  0  0  0  0  0  0  0  0  0
   29.2216  -29.6558  -17.0002 N   0  0  0  0  0  0  0  0  0  0  0  0
   24.2308  -24.3777  -15.9983 C   0  0  0  0  0  0  0  0  0  0  0  0
   24.3381  -23.6916  -14.9501 O   0  0  0  0  0  0  0  0  0  0  0  0
   22.9187  -24.6756  -16.4486 N   0  0  0  0  0  0  0  0  0  0  0  0
   21.7758  -24.1369  -15.7419 C   0  0  1  0  0  0  0  0  0  0  0  0
   20.6446  -23.9828  -16.7096 C   0  0  0  0  0  0  0  0  0  0  0  0
   19.1638  -23.3827  -15.8448 S   0  0  0  0  0  0  0  0  0  0  0  0
   21.3612  -24.9966  -14.6149 C   0  0  0  0  0  0  0  0  0  0  0  0
   21.3806  -26.2380  -14.7806 O   0  0  0  0  0  0  0  0  0  0  0  0
   20.9589  -24.4842  -13.4029 O   0  0  0  0  0  0  0  0  0  0  0  0
  2  1  1  6
  3  2  1  0
  4  3  1  0
  5  4  2  0
  6  7  1  0
  6  5  1  0
  7  8  2  0
  8  4  1  0
  9  2  1  0
  9 11  1  0
 10  9  2  0
 12 11  1  0
 12 13  1  1
 13 14  1  0
 14 15  1  0
 15 16  1  0
 17 16  1  0
 18 12  1  0
 19 18  2  0
 20 18  1  0
 21 20  1  0
 21 22  1  6
 22 23  1  0
 24 21  1  0
 25 24  2  0
 26 24  1  0
M  END
$$$$
