HKC.pdb
     RDKit          3D

 26 26  0  0  1  0  0  0  0  0999 V2000
   23.1968  -17.4852  -18.7644 N   0  0  0  0  0  0  0  0  0  0  0  0
   23.3149  -17.2034  -17.3476 C   0  0  1  0  0  0  0  0  0  0  0  0
   22.1658  -16.2538  -16.9926 C   0  0  0  0  0  0  0  0  0  0  0  0
   22.4139  -14.9070  -17.5590 C   0  0  0  0  0  0  0  0  0  0  0  0
   23.4855  -14.5182  -18.3269 C   0  0  0  0  0  0  0  0  0  0  0  0
   23.3448  -13.2041  -18.6481 N   0  0  0  0  0  0  0  0  0  0  0  0
   22.2017  -12.7885  -18.0856 C   0  0  0  0  0  0  0  0  0  0  0  0
   21.6407  -13.8328  -17.4236 N   0  0  0  0  0  0  0  0  0  0  0  0
   23.2170  -18.4590  -16.6069 C   0  0  0  0  0  0  0  0  0  0  0  0
   22.2780  -19.2515  -16.8180 O   0  0  0  0  0  0  0  0  0  0  0  0
   24.1659  -18.8670  -15.6075 N   0  0  0  0  0  0  0  0  0  0  0  0
   24.0159  -20.0791  -14.8486 C   0  0  1  0  0  0  0  0  0  0  0  0
   25.4401  -20.5380  -14.4933 C   0  0  0  0  0  0  0  0  0  0  0  0
   25.9885  -21.2710  -15.6854 C   0  0  0  0  0  0  0  0  0  0  0  0
   27.3688  -21.8231  -15.4035 C   0  0  0  0  0  0  0  0  0  0  0  0
   27.8687  -22.5344  -16.6192 C   0  0  0  0  0  0  0  0  0  0  0  0
   29.1664  -23.1205  -16.2886 N   0  0  0  0  0  0  0  0  0  0  0  0
   23.1831  -19.9500  -13.6568 C   0  0  0  0  0  0  0  0  0  0  0  0
   23.1717  -18.9053  -12.9572 O   0  0  0  0  0  0  0  0  0  0  0  0
   22.3457  -21.0181  -13.2434 N   0  0  0  0  0  0  0  0  0  0  0  0
   21.3184  -20.7842  -12.2506 C   0  0  1  0  0  0  0  0  0  0  0  0
   21.6270  -19.5065  -11.5352 C   0  0  0  0  0  0  0  0  0  0  0  0
   22.3657  -19.8640   -9.9142 S   0  0  0  0  0  0  0  0  0  0  0  0
   19.9701  -20.7134  -12.8493 C   0  0  0  0  0  0  0  0  0  0  0  0
   18.9822  -20.6928  -12.0796 O   0  0  0  0  0  0  0  0  0  0  0  0
   19.7664  -20.6698  -14.2094 O   0  0  0  0  0  0  0  0  0  0  0  0
  2  1  1  6
  3  2  1  0
  4  3  1  0
  5  4  2  0
  6  7  1  0
  6  5  1  0
  7  8  2  0
  8  4  1  0
  9  2  1  0
  9 11  1  0
 10  9  2  0
 12 11  1  0
 12 13  1  1
 13 14  1  0
 14 15  1  0
 15 16  1  0
 17 16  1  0
 18 12  1  0
 19 18  2  0
 20 18  1  0
 21 20  1  0
 21 22  1  6
 22 23  1  0
 24 21  1  0
 25 24  2  0
 26 24  1  0
M  END
$$$$
