FIR.pdb
     RDKit          3D

 31 31  0  0  1  0  0  0  0  0999 V2000
    6.4293  -16.5414   21.2688 N   0  0  0  0  0  0  0  0  0  0  0  0
    6.1145  -16.5224   22.6828 C   0  0  1  0  0  0  0  0  0  0  0  0
    6.1631  -17.9822   23.1491 C   0  0  0  0  0  0  0  0  0  0  0  0
    4.9802  -18.7309   22.6392 C   0  0  0  0  0  0  0  0  0  0  0  0
    4.0981  -18.2129   21.7113 C   0  0  0  0  0  0  0  0  0  0  0  0
    3.0118  -18.9687   21.2833 C   0  0  0  0  0  0  0  0  0  0  0  0
    2.8513  -20.2419   21.8153 C   0  0  0  0  0  0  0  0  0  0  0  0
    3.7318  -20.7642   22.7442 C   0  0  0  0  0  0  0  0  0  0  0  0
    4.7982  -20.0005   23.1534 C   0  0  0  0  0  0  0  0  0  0  0  0
    7.1550  -15.7803   23.4533 C   0  0  0  0  0  0  0  0  0  0  0  0
    8.3258  -15.7576   22.9726 O   0  0  0  0  0  0  0  0  0  0  0  0
    5.4126  -11.7326   26.7374 C   0  0  0  0  0  0  0  0  0  0  0  0
    6.3530  -12.3624   25.7017 C   0  0  0  0  0  0  0  0  0  0  0  0
    7.1261  -13.4622   26.3610 C   0  0  2  0  0  0  0  0  0  0  0  0
    8.0229  -12.8106   27.4074 C   0  0  0  0  0  0  0  0  0  0  0  0
    7.8822  -14.3441   25.4127 C   0  0  2  0  0  0  0  0  0  0  0  0
    6.8695  -15.1241   24.6675 N   0  0  0  0  0  0  0  0  0  0  0  0
    8.7862  -15.3185   26.0232 C   0  0  0  0  0  0  0  0  0  0  0  0
    8.2733  -16.2736   26.7179 O   0  0  0  0  0  0  0  0  0  0  0  0
   15.5076  -17.9363   22.7321 N   0  0  0  0  0  0  0  0  0  0  0  0
   15.4117  -16.6730   23.4113 C   0  0  0  0  0  0  0  0  0  0  0  0
   15.9174  -15.6064   22.8848 N   0  0  0  0  0  0  0  0  0  0  0  0
   14.7727  -16.5354   24.6658 N   0  0  0  0  0  0  0  0  0  0  0  0
   14.5230  -17.7140   25.4742 C   0  0  0  0  0  0  0  0  0  0  0  0
   13.1925  -17.6766   26.1416 C   0  0  0  0  0  0  0  0  0  0  0  0
   12.2563  -16.6396   25.6884 C   0  0  0  0  0  0  0  0  0  0  0  0
   10.9418  -16.4926   26.3648 C   0  0  2  0  0  0  0  0  0  0  0  0
   10.1958  -15.3415   25.9375 N   0  0  0  0  0  0  0  0  0  0  0  0
   10.9604  -16.5390   27.8310 C   0  0  0  0  0  0  0  0  0  0  0  0
   11.1179  -17.7337   28.4915 O   0  0  0  0  0  0  0  0  0  0  0  0
   10.8338  -15.4912   28.5156 O   0  0  0  0  0  0  0  0  0  0  0  0
  2  1  1  6
  3  2  1  0
  3  4  1  0
  4  5  2  0
  5  6  1  0
  7  6  2  0
  8  7  1  0
  9  4  1  0
  9  8  2  0
 10  2  1  0
 10 11  2  0
 13 12  1  0
 14 13  1  0
 14 16  1  0
 14 15  1  1
 16 17  1  1
 16 18  1  0
 17 10  1  0
 18 19  2  0
 18 28  1  0
 20 21  1  0
 21 22  2  0
 21 23  1  0
 23 24  1  0
 24 25  1  0
 25 26  1  0
 27 26  1  1
 27 29  1  0
 28 27  1  0
 29 31  2  0
 29 30  1  0
M  END
$$$$
