FIR.pdb
     RDKit          3D

 31 31  0  0  1  0  0  0  0  0999 V2000
    7.4412  -12.9642   20.3950 N   0  0  0  0  0  0  0  0  0  0  0  0
    7.1352  -14.1141   21.2214 C   0  0  1  0  0  0  0  0  0  0  0  0
    7.6150  -15.3412   20.4374 C   0  0  0  0  0  0  0  0  0  0  0  0
    7.2724  -16.5929   21.1693 C   0  0  0  0  0  0  0  0  0  0  0  0
    6.0274  -16.8339   21.7166 C   0  0  0  0  0  0  0  0  0  0  0  0
    5.7801  -18.0250   22.3907 C   0  0  0  0  0  0  0  0  0  0  0  0
    6.8149  -18.9465   22.4904 C   0  0  0  0  0  0  0  0  0  0  0  0
    8.0623  -18.7094   21.9442 C   0  0  0  0  0  0  0  0  0  0  0  0
    8.2852  -17.5260   21.2825 C   0  0  0  0  0  0  0  0  0  0  0  0
    7.9085  -14.0779   22.4972 C   0  0  0  0  0  0  0  0  0  0  0  0
    9.1678  -13.9838   22.4090 O   0  0  0  0  0  0  0  0  0  0  0  0
    5.7527  -11.3658   26.5837 C   0  0  0  0  0  0  0  0  0  0  0  0
    6.8266  -11.9007   25.6275 C   0  0  0  0  0  0  0  0  0  0  0  0
    7.1321  -13.3200   25.9939 C   0  0  2  0  0  0  0  0  0  0  0  0
    7.6793  -13.3046   27.4166 C   0  0  0  0  0  0  0  0  0  0  0  0
    8.0351  -14.0294   25.0295 C   0  0  2  0  0  0  0  0  0  0  0  0
    7.2848  -14.1440   23.7593 N   0  0  0  0  0  0  0  0  0  0  0  0
    8.4302  -15.3882   25.3994 C   0  0  0  0  0  0  0  0  0  0  0  0
    7.6373  -16.3566   25.0974 O   0  0  0  0  0  0  0  0  0  0  0  0
   14.2605  -20.3792   21.7532 N   0  0  0  0  0  0  0  0  0  0  0  0
   12.9208  -20.1150   21.3037 C   0  0  0  0  0  0  0  0  0  0  0  0
   12.4545  -20.7051   20.2526 N   0  0  0  0  0  0  0  0  0  0  0  0
   12.0620  -19.2134   21.9747 N   0  0  0  0  0  0  0  0  0  0  0  0
   12.5511  -18.4860   23.1309 C   0  0  0  0  0  0  0  0  0  0  0  0
   11.5826  -18.4943   24.2618 C   0  0  0  0  0  0  0  0  0  0  0  0
   10.9496  -17.2121   24.5973 C   0  0  0  0  0  0  0  0  0  0  0  0
   10.1774  -17.0842   25.8600 C   0  0  2  0  0  0  0  0  0  0  0  0
    9.6132  -15.7789   26.0645 N   0  0  0  0  0  0  0  0  0  0  0  0
   10.8646  -17.5104   27.0841 C   0  0  0  0  0  0  0  0  0  0  0  0
   11.3709  -18.7831   27.1956 O   0  0  0  0  0  0  0  0  0  0  0  0
   11.0068  -16.7247   28.0562 O   0  0  0  0  0  0  0  0  0  0  0  0
  2  1  1  6
  3  2  1  0
  3  4  1  0
  4  5  2  0
  5  6  1  0
  7  6  2  0
  8  7  1  0
  9  4  1  0
  9  8  2  0
 10  2  1  0
 10 11  2  0
 13 12  1  0
 14 13  1  0
 14 16  1  0
 14 15  1  1
 16 17  1  6
 16 18  1  0
 17 10  1  0
 18 19  2  0
 18 28  1  0
 20 21  1  0
 21 22  2  0
 21 23  1  0
 23 24  1  0
 24 25  1  0
 25 26  1  0
 27 26  1  6
 27 29  1  0
 28 27  1  0
 29 31  2  0
 29 30  1  0
M  END
$$$$
