FIR.pdb
     RDKit          3D

 31 31  0  0  1  0  0  0  0  0999 V2000
    5.4607  -17.7665   25.0599 N   0  0  0  0  0  0  0  0  0  0  0  0
    5.9986  -16.4274   24.9328 C   0  0  1  0  0  0  0  0  0  0  0  0
    6.6218  -16.0884   26.2920 C   0  0  0  0  0  0  0  0  0  0  0  0
    6.9553  -14.6381   26.3643 C   0  0  0  0  0  0  0  0  0  0  0  0
    8.2505  -14.1588   26.3866 C   0  0  0  0  0  0  0  0  0  0  0  0
    8.4869  -12.7901   26.4589 C   0  0  0  0  0  0  0  0  0  0  0  0
    7.3900  -11.9391   26.5069 C   0  0  0  0  0  0  0  0  0  0  0  0
    6.0922  -12.4145   26.4848 C   0  0  0  0  0  0  0  0  0  0  0  0
    5.8811  -13.7703   26.4132 C   0  0  0  0  0  0  0  0  0  0  0  0
    7.0967  -16.3848   23.9231 C   0  0  0  0  0  0  0  0  0  0  0  0
    7.8592  -17.3927   23.8535 O   0  0  0  0  0  0  0  0  0  0  0  0
    6.6449  -12.9491   19.5491 C   0  0  0  0  0  0  0  0  0  0  0  0
    6.8945  -14.2404   20.3390 C   0  0  0  0  0  0  0  0  0  0  0  0
    8.1103  -14.0538   21.1928 C   0  0  2  0  0  0  0  0  0  0  0  0
    9.2655  -13.7203   20.2557 C   0  0  0  0  0  0  0  0  0  0  0  0
    8.4121  -15.2065   22.1032 C   0  0  2  0  0  0  0  0  0  0  0  0
    7.2958  -15.2795   23.0716 N   0  0  0  0  0  0  0  0  0  0  0  0
    9.6378  -15.0972   22.8939 C   0  0  0  0  0  0  0  0  0  0  0  0
    9.6641  -14.2495   23.8627 O   0  0  0  0  0  0  0  0  0  0  0  0
   12.4751  -20.1598   27.8059 N   0  0  0  0  0  0  0  0  0  0  0  0
   12.6190  -19.0867   28.7516 C   0  0  0  0  0  0  0  0  0  0  0  0
   13.1468  -19.3025   29.9115 N   0  0  0  0  0  0  0  0  0  0  0  0
   12.1983  -17.7664   28.4672 N   0  0  0  0  0  0  0  0  0  0  0  0
   11.2909  -17.5279   27.3604 C   0  0  0  0  0  0  0  0  0  0  0  0
   11.9788  -16.9493   26.1734 C   0  0  0  0  0  0  0  0  0  0  0  0
   11.1304  -16.5921   25.0288 C   0  0  0  0  0  0  0  0  0  0  0  0
   11.7507  -16.0134   23.8091 C   0  0  2  0  0  0  0  0  0  0  0  0
   10.8305  -15.8335   22.7207 N   0  0  0  0  0  0  0  0  0  0  0  0
   12.9569  -16.6869   23.3154 C   0  0  0  0  0  0  0  0  0  0  0  0
   14.1701  -16.4888   23.9295 O   0  0  0  0  0  0  0  0  0  0  0  0
   12.9097  -17.4588   22.3233 O   0  0  0  0  0  0  0  0  0  0  0  0
  2  1  1  1
  3  2  1  0
  3  4  1  0
  4  5  2  0
  5  6  1  0
  7  6  2  0
  8  7  1  0
  9  4  1  0
  9  8  2  0
 10  2  1  0
 10 11  2  0
 13 12  1  0
 14 13  1  0
 14 16  1  0
 14 15  1  6
 16 17  1  1
 16 18  1  0
 17 10  1  0
 18 19  2  0
 18 28  1  0
 20 21  1  0
 21 22  2  0
 21 23  1  0
 23 24  1  0
 24 25  1  0
 25 26  1  0
 27 26  1  1
 27 29  1  0
 28 27  1  0
 29 31  2  0
 29 30  1  0
M  END
$$$$
