FIR.pdb
     RDKit          3D

 31 31  0  0  1  0  0  0  0  0999 V2000
    6.6079  -13.6011   21.4354 N   0  0  0  0  0  0  0  0  0  0  0  0
    7.7068  -14.4966   21.7339 C   0  0  1  0  0  0  0  0  0  0  0  0
    8.7826  -14.2167   20.6779 C   0  0  0  0  0  0  0  0  0  0  0  0
    8.2160  -14.3597   19.3074 C   0  0  0  0  0  0  0  0  0  0  0  0
    7.9222  -13.2835   18.4930 C   0  0  0  0  0  0  0  0  0  0  0  0
    7.3908  -13.4927   17.2248 C   0  0  0  0  0  0  0  0  0  0  0  0
    7.1710  -14.8020   16.8162 C   0  0  0  0  0  0  0  0  0  0  0  0
    7.4635  -15.8819   17.6280 C   0  0  0  0  0  0  0  0  0  0  0  0
    7.9878  -15.6528   18.8772 C   0  0  0  0  0  0  0  0  0  0  0  0
    8.3058  -14.1846   23.0646 C   0  0  0  0  0  0  0  0  0  0  0  0
    9.0129  -13.1382   23.1508 O   0  0  0  0  0  0  0  0  0  0  0  0
    6.0867  -11.9148   26.4456 C   0  0  0  0  0  0  0  0  0  0  0  0
    7.2338  -12.5548   25.6530 C   0  0  0  0  0  0  0  0  0  0  0  0
    7.5191  -13.9073   26.2286 C   0  0  2  0  0  0  0  0  0  0  0  0
    7.7816  -13.7113   27.7174 C   0  0  0  0  0  0  0  0  0  0  0  0
    8.6181  -14.6570   25.5365 C   0  0  2  0  0  0  0  0  0  0  0  0
    8.1062  -15.0056   24.1927 N   0  0  0  0  0  0  0  0  0  0  0  0
    9.0301  -15.9143   26.1600 C   0  0  0  0  0  0  0  0  0  0  0  0
    9.5338  -15.8706   27.3442 O   0  0  0  0  0  0  0  0  0  0  0  0
   12.1088  -17.8903   19.7197 N   0  0  0  0  0  0  0  0  0  0  0  0
   11.4117  -17.1994   20.7701 C   0  0  0  0  0  0  0  0  0  0  0  0
   10.5692  -16.2603   20.4894 N   0  0  0  0  0  0  0  0  0  0  0  0
   11.6089  -17.5052   22.1371 N   0  0  0  0  0  0  0  0  0  0  0  0
   11.2816  -18.8307   22.6277 C   0  0  0  0  0  0  0  0  0  0  0  0
   10.1841  -18.8117   23.6338 C   0  0  0  0  0  0  0  0  0  0  0  0
   10.5791  -18.9353   25.0430 C   0  0  0  0  0  0  0  0  0  0  0  0
    9.7574  -18.2825   26.0945 C   0  0  2  0  0  0  0  0  0  0  0  0
    8.9363  -17.2098   25.6055 N   0  0  0  0  0  0  0  0  0  0  0  0
   10.4769  -17.8329   27.2913 C   0  0  0  0  0  0  0  0  0  0  0  0
   11.4922  -16.9121   27.1929 O   0  0  0  0  0  0  0  0  0  0  0  0
   10.1828  -18.2767   28.4310 O   0  0  0  0  0  0  0  0  0  0  0  0
  2  1  1  6
  3  2  1  0
  3  4  1  0
  4  5  2  0
  5  6  1  0
  7  6  2  0
  8  7  1  0
  9  4  1  0
  9  8  2  0
 10  2  1  0
 10 11  2  0
 13 12  1  0
 14 13  1  0
 14 16  1  0
 14 15  1  1
 16 17  1  6
 16 18  1  0
 17 10  1  0
 18 19  2  0
 18 28  1  0
 20 21  1  0
 21 22  2  0
 21 23  1  0
 23 24  1  0
 24 25  1  0
 25 26  1  0
 27 26  1  6
 27 29  1  0
 28 27  1  0
 29 31  2  0
 29 30  1  0
M  END
$$$$
