FIR.pdb
     RDKit          3D

 31 31  0  0  1  0  0  0  0  0999 V2000
    6.8948  -19.2244   27.4465 N   0  0  0  0  0  0  0  0  0  0  0  0
    7.5229  -17.9266   27.5877 C   0  0  1  0  0  0  0  0  0  0  0  0
    8.9669  -18.1982   28.0257 C   0  0  0  0  0  0  0  0  0  0  0  0
    9.6806  -16.9170   28.2884 C   0  0  0  0  0  0  0  0  0  0  0  0
   10.6842  -16.4284   27.4750 C   0  0  0  0  0  0  0  0  0  0  0  0
   11.3098  -15.2254   27.7847 C   0  0  0  0  0  0  0  0  0  0  0  0
   10.8937  -14.5465   28.9230 C   0  0  0  0  0  0  0  0  0  0  0  0
    9.8897  -15.0319   29.7398 C   0  0  0  0  0  0  0  0  0  0  0  0
    9.2850  -16.2223   29.4154 C   0  0  0  0  0  0  0  0  0  0  0  0
    7.5876  -17.2173   26.2764 C   0  0  0  0  0  0  0  0  0  0  0  0
    7.7496  -17.9273   25.2409 O   0  0  0  0  0  0  0  0  0  0  0  0
    5.7269  -12.0310   26.3220 C   0  0  0  0  0  0  0  0  0  0  0  0
    5.8261  -13.4860   25.8458 C   0  0  0  0  0  0  0  0  0  0  0  0
    7.1441  -13.6788   25.1620 C   0  0  2  0  0  0  0  0  0  0  0  0
    7.1290  -12.8063   23.9120 C   0  0  0  0  0  0  0  0  0  0  0  0
    7.4890  -15.1088   24.8709 C   0  0  2  0  0  0  0  0  0  0  0  0
    7.4751  -15.8164   26.1703 N   0  0  0  0  0  0  0  0  0  0  0  0
    8.8086  -15.3456   24.2862 C   0  0  0  0  0  0  0  0  0  0  0  0
    9.8441  -14.9403   24.9354 O   0  0  0  0  0  0  0  0  0  0  0  0
    5.9056  -18.9740   21.0362 N   0  0  0  0  0  0  0  0  0  0  0  0
    6.4966  -20.0929   21.7184 C   0  0  0  0  0  0  0  0  0  0  0  0
    5.7508  -21.0168   22.2289 N   0  0  0  0  0  0  0  0  0  0  0  0
    7.8964  -20.2367   21.8637 N   0  0  0  0  0  0  0  0  0  0  0  0
    8.7783  -19.2066   21.3479 C   0  0  0  0  0  0  0  0  0  0  0  0
    9.7477  -18.7218   22.3688 C   0  0  0  0  0  0  0  0  0  0  0  0
   10.5995  -17.5889   21.9837 C   0  0  0  0  0  0  0  0  0  0  0  0
   10.4468  -16.2866   22.6822 C   0  0  2  0  0  0  0  0  0  0  0  0
    9.0936  -15.9873   23.0607 N   0  0  0  0  0  0  0  0  0  0  0  0
   11.0294  -15.1200   22.0099 C   0  0  0  0  0  0  0  0  0  0  0  0
   12.3733  -15.0742   21.7267 O   0  0  0  0  0  0  0  0  0  0  0  0
   10.3160  -14.1387   21.6774 O   0  0  0  0  0  0  0  0  0  0  0  0
  2  1  1  6
  3  2  1  0
  3  4  1  0
  4  5  2  0
  5  6  1  0
  7  6  2  0
  8  7  1  0
  9  4  1  0
  9  8  2  0
 10  2  1  0
 10 11  2  0
 13 12  1  0
 14 13  1  0
 14 16  1  0
 14 15  1  6
 16 17  1  1
 16 18  1  0
 17 10  1  0
 18 19  2  0
 18 28  1  0
 20 21  1  0
 21 22  2  0
 21 23  1  0
 23 24  1  0
 24 25  1  0
 25 26  1  0
 27 26  1  6
 27 29  1  0
 28 27  1  0
 29 31  2  0
 29 30  1  0
M  END
$$$$
