FIR.pdb
     RDKit          3D

 31 31  0  0  1  0  0  0  0  0999 V2000
    6.4244  -15.7436   20.8151 N   0  0  0  0  0  0  0  0  0  0  0  0
    6.1177  -15.8962   22.2227 C   0  0  1  0  0  0  0  0  0  0  0  0
    5.9531  -17.4017   22.4615 C   0  0  0  0  0  0  0  0  0  0  0  0
    4.7434  -17.9112   21.7565 C   0  0  0  0  0  0  0  0  0  0  0  0
    4.7767  -18.4419   20.4818 C   0  0  0  0  0  0  0  0  0  0  0  0
    3.6057  -18.8951   19.8839 C   0  0  0  0  0  0  0  0  0  0  0  0
    2.4226  -18.7953   20.6051 C   0  0  0  0  0  0  0  0  0  0  0  0
    2.3848  -18.2648   21.8810 C   0  0  0  0  0  0  0  0  0  0  0  0
    3.5533  -17.8229   22.4530 C   0  0  0  0  0  0  0  0  0  0  0  0
    7.2564  -15.4386   23.0717 C   0  0  0  0  0  0  0  0  0  0  0  0
    8.4188  -15.5252   22.5779 O   0  0  0  0  0  0  0  0  0  0  0  0
    6.0970  -11.5378   26.6065 C   0  0  0  0  0  0  0  0  0  0  0  0
    6.9295  -12.2641   25.5421 C   0  0  0  0  0  0  0  0  0  0  0  0
    7.5873  -13.4513   26.1744 C   0  0  2  0  0  0  0  0  0  0  0  0
    8.6020  -12.9160   27.1782 C   0  0  0  0  0  0  0  0  0  0  0  0
    8.1866  -14.4210   25.2001 C   0  0  2  0  0  0  0  0  0  0  0  0
    7.0700  -14.9275   24.3719 N   0  0  0  0  0  0  0  0  0  0  0  0
    8.8364  -15.5961   25.7800 C   0  0  0  0  0  0  0  0  0  0  0  0
    8.0921  -16.5099   26.2986 O   0  0  0  0  0  0  0  0  0  0  0  0
    9.4302  -18.6734   20.8404 N   0  0  0  0  0  0  0  0  0  0  0  0
   10.7943  -19.0408   20.5746 C   0  0  0  0  0  0  0  0  0  0  0  0
   11.2409  -19.0673   19.3620 N   0  0  0  0  0  0  0  0  0  0  0  0
   11.6993  -19.3859   21.6056 N   0  0  0  0  0  0  0  0  0  0  0  0
   11.2633  -19.3295   22.9883 C   0  0  0  0  0  0  0  0  0  0  0  0
   11.0163  -17.9363   23.4522 C   0  0  0  0  0  0  0  0  0  0  0  0
   11.6054  -17.5569   24.7430 C   0  0  0  0  0  0  0  0  0  0  0  0
   10.7157  -17.2084   25.8806 C   0  0  2  0  0  0  0  0  0  0  0  0
   10.2227  -15.8597   25.8385 N   0  0  0  0  0  0  0  0  0  0  0  0
   11.2406  -17.4891   27.2214 C   0  0  0  0  0  0  0  0  0  0  0  0
   11.0639  -18.7240   27.7979 O   0  0  0  0  0  0  0  0  0  0  0  0
   11.8627  -16.6106   27.8724 O   0  0  0  0  0  0  0  0  0  0  0  0
  2  1  1  6
  3  2  1  0
  3  4  1  0
  4  5  2  0
  5  6  1  0
  7  6  2  0
  8  7  1  0
  9  4  1  0
  9  8  2  0
 10  2  1  0
 10 11  2  0
 13 12  1  0
 14 13  1  0
 14 16  1  0
 14 15  1  1
 16 17  1  6
 16 18  1  0
 17 10  1  0
 18 19  2  0
 18 28  1  0
 20 21  1  0
 21 22  2  0
 21 23  1  0
 23 24  1  0
 24 25  1  0
 25 26  1  0
 27 26  1  6
 27 29  1  0
 28 27  1  0
 29 31  2  0
 29 30  1  0
M  END
$$$$
