FIR.pdb
     RDKit          3D

 31 31  0  0  1  0  0  0  0  0999 V2000
    6.0558  -16.2050   21.0145 N   0  0  0  0  0  0  0  0  0  0  0  0
    5.7760  -16.2557   22.4351 C   0  0  1  0  0  0  0  0  0  0  0  0
    5.5800  -17.7373   22.7775 C   0  0  0  0  0  0  0  0  0  0  0  0
    4.2859  -18.2314   22.2288 C   0  0  0  0  0  0  0  0  0  0  0  0
    4.1542  -18.7629   20.9609 C   0  0  0  0  0  0  0  0  0  0  0  0
    2.9123  -19.2012   20.5135 C   0  0  0  0  0  0  0  0  0  0  0  0
    1.8292  -19.0859   21.3756 C   0  0  0  0  0  0  0  0  0  0  0  0
    1.9565  -18.5545   22.6453 C   0  0  0  0  0  0  0  0  0  0  0  0
    3.1924  -18.1275   23.0672 C   0  0  0  0  0  0  0  0  0  0  0  0
    6.9437  -15.7722   23.2286 C   0  0  0  0  0  0  0  0  0  0  0  0
    8.0950  -15.9530   22.7344 O   0  0  0  0  0  0  0  0  0  0  0  0
    6.1461  -11.4171   26.2698 C   0  0  0  0  0  0  0  0  0  0  0  0
    6.8578  -12.3765   25.3072 C   0  0  0  0  0  0  0  0  0  0  0  0
    7.4386  -13.5074   26.0983 C   0  0  2  0  0  0  0  0  0  0  0  0
    8.5086  -12.9121   27.0064 C   0  0  0  0  0  0  0  0  0  0  0  0
    7.9467  -14.6485   25.2687 C   0  0  2  0  0  0  0  0  0  0  0  0
    6.7955  -15.1376   24.4783 N   0  0  0  0  0  0  0  0  0  0  0  0
    8.4597  -15.8019   26.0076 C   0  0  0  0  0  0  0  0  0  0  0  0
    7.6402  -16.4658   26.7461 O   0  0  0  0  0  0  0  0  0  0  0  0
   14.3922  -18.8725   22.1213 N   0  0  0  0  0  0  0  0  0  0  0  0
   13.0778  -19.0271   21.5598 C   0  0  0  0  0  0  0  0  0  0  0  0
   12.9013  -18.9694   20.2808 N   0  0  0  0  0  0  0  0  0  0  0  0
   11.9335  -19.2450   22.3623 N   0  0  0  0  0  0  0  0  0  0  0  0
   12.0654  -19.2594   23.8071 C   0  0  0  0  0  0  0  0  0  0  0  0
   11.0198  -18.4432   24.4836 C   0  0  0  0  0  0  0  0  0  0  0  0
   11.0930  -18.3605   25.9482 C   0  0  0  0  0  0  0  0  0  0  0  0
   10.1184  -17.5144   26.6841 C   0  0  2  0  0  0  0  0  0  0  0  0
    9.7841  -16.2926   26.0063 N   0  0  0  0  0  0  0  0  0  0  0  0
   10.4472  -17.2166   28.0824 C   0  0  0  0  0  0  0  0  0  0  0  0
   10.5861  -18.2301   29.0000 O   0  0  0  0  0  0  0  0  0  0  0  0
   10.6099  -16.0319   28.4732 O   0  0  0  0  0  0  0  0  0  0  0  0
  2  1  1  6
  3  2  1  0
  3  4  1  0
  4  5  2  0
  5  6  1  0
  7  6  2  0
  8  7  1  0
  9  4  1  0
  9  8  2  0
 10  2  1  0
 10 11  2  0
 13 12  1  0
 14 13  1  0
 14 16  1  0
 14 15  1  6
 16 17  1  6
 16 18  1  0
 17 10  1  0
 18 19  2  0
 18 28  1  0
 20 21  1  0
 21 22  2  0
 21 23  1  0
 23 24  1  0
 24 25  1  0
 25 26  1  0
 27 26  1  6
 27 29  1  0
 28 27  1  0
 29 31  2  0
 29 30  1  0
M  END
$$$$
