FIR.pdb
     RDKit          3D

 31 31  0  0  1  0  0  0  0  0999 V2000
    6.7507  -17.4283   22.3649 N   0  0  0  0  0  0  0  0  0  0  0  0
    7.5042  -16.2861   21.8891 C   0  0  1  0  0  0  0  0  0  0  0  0
    6.4729  -15.2992   21.3294 C   0  0  0  0  0  0  0  0  0  0  0  0
    7.1556  -14.1694   20.6384 C   0  0  0  0  0  0  0  0  0  0  0  0
    7.8034  -14.3032   19.4260 C   0  0  0  0  0  0  0  0  0  0  0  0
    8.4232  -13.2041   18.8410 C   0  0  0  0  0  0  0  0  0  0  0  0
    8.3663  -11.9885   19.5108 C   0  0  0  0  0  0  0  0  0  0  0  0
    7.7191  -11.8501   20.7244 C   0  0  0  0  0  0  0  0  0  0  0  0
    7.1134  -12.9488   21.2848 C   0  0  0  0  0  0  0  0  0  0  0  0
    8.2037  -15.5994   23.0144 C   0  0  0  0  0  0  0  0  0  0  0  0
    9.3281  -15.0748   22.7637 O   0  0  0  0  0  0  0  0  0  0  0  0
    6.3403  -11.8207   25.7891 C   0  0  0  0  0  0  0  0  0  0  0  0
    7.3189  -12.7918   25.1160 C   0  0  0  0  0  0  0  0  0  0  0  0
    7.6165  -13.9096   26.0668 C   0  0  2  0  0  0  0  0  0  0  0  0
    8.2773  -13.2881   27.2918 C   0  0  0  0  0  0  0  0  0  0  0  0
    8.4199  -15.0296   25.4760 C   0  0  2  0  0  0  0  0  0  0  0  0
    7.6548  -15.5250   24.3104 N   0  0  0  0  0  0  0  0  0  0  0  0
    8.6457  -16.1857   26.3430 C   0  0  0  0  0  0  0  0  0  0  0  0
    7.8856  -17.2146   26.1964 O   0  0  0  0  0  0  0  0  0  0  0  0
   14.2073  -20.2305   22.6813 N   0  0  0  0  0  0  0  0  0  0  0  0
   14.1589  -21.0076   23.8898 C   0  0  0  0  0  0  0  0  0  0  0  0
   14.6624  -22.1974   23.9237 N   0  0  0  0  0  0  0  0  0  0  0  0
   13.5688  -20.5200   25.0793 N   0  0  0  0  0  0  0  0  0  0  0  0
   12.9750  -19.1963   25.0926 C   0  0  0  0  0  0  0  0  0  0  0  0
   12.1906  -18.9353   26.3309 C   0  0  0  0  0  0  0  0  0  0  0  0
   11.2154  -17.8384   26.2749 C   0  0  0  0  0  0  0  0  0  0  0  0
   10.3998  -17.5208   27.4753 C   0  0  2  0  0  0  0  0  0  0  0  0
    9.6281  -16.3155   27.3492 N   0  0  0  0  0  0  0  0  0  0  0  0
   11.1140  -17.5051   28.7566 C   0  0  0  0  0  0  0  0  0  0  0  0
   11.0854  -16.3908   29.5603 O   0  0  0  0  0  0  0  0  0  0  0  0
   11.7660  -18.5068   29.1490 O   0  0  0  0  0  0  0  0  0  0  0  0
  2  1  1  1
  3  2  1  0
  3  4  1  0
  4  5  2  0
  5  6  1  0
  7  6  2  0
  8  7  1  0
  9  4  1  0
  9  8  2  0
 10  2  1  0
 10 11  2  0
 13 12  1  0
 14 13  1  0
 14 16  1  0
 14 15  1  1
 16 17  1  6
 16 18  1  0
 17 10  1  0
 18 19  2  0
 18 28  1  0
 20 21  1  0
 21 22  2  0
 21 23  1  0
 23 24  1  0
 24 25  1  0
 25 26  1  0
 27 26  1  6
 27 29  1  0
 28 27  1  0
 29 31  2  0
 29 30  1  0
M  END
$$$$
