FIR.pdb
     RDKit          3D

 31 31  0  0  1  0  0  0  0  0999 V2000
    8.0906  -15.8248   26.3122 N   0  0  0  0  0  0  0  0  0  0  0  0
    6.9583  -16.3914   25.6081 C   0  0  1  0  0  0  0  0  0  0  0  0
    5.7399  -15.5570   26.0205 C   0  0  0  0  0  0  0  0  0  0  0  0
    6.1291  -14.1333   26.2242 C   0  0  0  0  0  0  0  0  0  0  0  0
    7.3334  -13.7492   26.7806 C   0  0  0  0  0  0  0  0  0  0  0  0
    7.6279  -12.3998   26.9441 C   0  0  0  0  0  0  0  0  0  0  0  0
    6.6811  -11.4699   26.5334 C   0  0  0  0  0  0  0  0  0  0  0  0
    5.4746  -11.8499   25.9761 C   0  0  0  0  0  0  0  0  0  0  0  0
    5.2038  -13.1883   25.8237 C   0  0  0  0  0  0  0  0  0  0  0  0
    7.1151  -16.2399   24.1318 C   0  0  0  0  0  0  0  0  0  0  0  0
    6.1600  -16.6397   23.4036 O   0  0  0  0  0  0  0  0  0  0  0  0
    7.8561  -12.1358   21.1735 C   0  0  0  0  0  0  0  0  0  0  0  0
    7.5194  -13.5425   21.6848 C   0  0  0  0  0  0  0  0  0  0  0  0
    8.7489  -14.3925   21.5969 C   0  0  2  0  0  0  0  0  0  0  0  0
    9.2213  -14.3437   20.1484 C   0  0  0  0  0  0  0  0  0  0  0  0
    8.5735  -15.7920   22.1062 C   0  0  2  0  0  0  0  0  0  0  0  0
    8.2691  -15.6780   23.5496 N   0  0  0  0  0  0  0  0  0  0  0  0
    9.7412  -16.6662   21.9986 C   0  0  0  0  0  0  0  0  0  0  0  0
   10.6613  -16.5665   22.8938 O   0  0  0  0  0  0  0  0  0  0  0  0
   12.5043  -19.2534   16.6825 N   0  0  0  0  0  0  0  0  0  0  0  0
   13.5663  -20.2135   16.8127 C   0  0  0  0  0  0  0  0  0  0  0  0
   14.5591  -20.2080   15.9852 N   0  0  0  0  0  0  0  0  0  0  0  0
   13.5785  -21.1940   17.8322 N   0  0  0  0  0  0  0  0  0  0  0  0
   12.4470  -21.3022   18.7340 C   0  0  0  0  0  0  0  0  0  0  0  0
   12.4684  -20.2659   19.8030 C   0  0  0  0  0  0  0  0  0  0  0  0
   11.2731  -19.4214   19.9267 C   0  0  0  0  0  0  0  0  0  0  0  0
   11.2087  -18.3951   20.9990 C   0  0  2  0  0  0  0  0  0  0  0  0
    9.9876  -17.6382   21.0040 N   0  0  0  0  0  0  0  0  0  0  0  0
   12.3478  -17.4743   21.0820 C   0  0  0  0  0  0  0  0  0  0  0  0
   13.3737  -17.7081   21.9659 O   0  0  0  0  0  0  0  0  0  0  0  0
   12.4130  -16.4541   20.3490 O   0  0  0  0  0  0  0  0  0  0  0  0
  2  1  1  1
  3  2  1  0
  3  4  1  0
  4  5  2  0
  5  6  1  0
  7  6  2  0
  8  7  1  0
  9  4  1  0
  9  8  2  0
 10  2  1  0
 10 11  2  0
 13 12  1  0
 14 13  1  0
 14 16  1  0
 14 15  1  6
 16 17  1  1
 16 18  1  0
 17 10  1  0
 18 19  2  0
 18 28  1  0
 20 21  1  0
 21 22  2  0
 21 23  1  0
 23 24  1  0
 24 25  1  0
 25 26  1  0
 27 26  1  6
 27 29  1  0
 28 27  1  0
 29 31  2  0
 29 30  1  0
M  END
$$$$
