FIR.pdb
     RDKit          3D

 31 31  0  0  1  0  0  0  0  0999 V2000
    5.3425  -17.4667   25.0994 N   0  0  0  0  0  0  0  0  0  0  0  0
    6.0607  -16.2211   24.9223 C   0  0  1  0  0  0  0  0  0  0  0  0
    6.7789  -15.9516   26.2498 C   0  0  0  0  0  0  0  0  0  0  0  0
    6.9891  -14.4889   26.4401 C   0  0  0  0  0  0  0  0  0  0  0  0
    8.2391  -13.9048   26.5017 C   0  0  0  0  0  0  0  0  0  0  0  0
    8.3594  -12.5314   26.6855 C   0  0  0  0  0  0  0  0  0  0  0  0
    7.1948  -11.7833   26.8024 C   0  0  0  0  0  0  0  0  0  0  0  0
    5.9417  -12.3637   26.7413 C   0  0  0  0  0  0  0  0  0  0  0  0
    5.8456  -13.7222   26.5593 C   0  0  0  0  0  0  0  0  0  0  0  0
    7.1130  -16.3541   23.8726 C   0  0  0  0  0  0  0  0  0  0  0  0
    7.6022  -17.5065   23.6852 O   0  0  0  0  0  0  0  0  0  0  0  0
    7.0919  -12.4748   19.9655 C   0  0  0  0  0  0  0  0  0  0  0  0
    7.1101  -13.8940   20.5480 C   0  0  0  0  0  0  0  0  0  0  0  0
    8.4383  -14.1294   21.1978 C   0  0  2  0  0  0  0  0  0  0  0  0
    9.4921  -14.0483   20.0992 C   0  0  0  0  0  0  0  0  0  0  0  0
    8.5233  -15.3967   21.9949 C   0  0  2  0  0  0  0  0  0  0  0  0
    7.5595  -15.2569   23.1089 N   0  0  0  0  0  0  0  0  0  0  0  0
    9.8205  -15.6862   22.6056 C   0  0  0  0  0  0  0  0  0  0  0  0
   10.2003  -14.9628   23.6007 O   0  0  0  0  0  0  0  0  0  0  0  0
   12.6238  -23.4148   22.4138 N   0  0  0  0  0  0  0  0  0  0  0  0
   12.8833  -22.5340   23.5199 C   0  0  0  0  0  0  0  0  0  0  0  0
   13.0970  -23.0121   24.7015 N   0  0  0  0  0  0  0  0  0  0  0  0
   12.9165  -21.1273   23.3748 N   0  0  0  0  0  0  0  0  0  0  0  0
   13.2609  -20.2988   24.5150 C   0  0  0  0  0  0  0  0  0  0  0  0
   13.1717  -18.8439   24.2107 C   0  0  0  0  0  0  0  0  0  0  0  0
   12.0045  -18.4027   23.4360 C   0  0  0  0  0  0  0  0  0  0  0  0
   11.8925  -16.9791   23.0261 C   0  0  2  0  0  0  0  0  0  0  0  0
   10.7327  -16.6958   22.2270 N   0  0  0  0  0  0  0  0  0  0  0  0
   13.0756  -16.3962   22.3837 C   0  0  0  0  0  0  0  0  0  0  0  0
   14.2310  -16.1916   23.0990 O   0  0  0  0  0  0  0  0  0  0  0  0
   13.0613  -16.0718   21.1684 O   0  0  0  0  0  0  0  0  0  0  0  0
  2  1  1  1
  3  2  1  0
  3  4  1  0
  4  5  2  0
  5  6  1  0
  7  6  2  0
  8  7  1  0
  9  4  1  0
  9  8  2  0
 10  2  1  0
 10 11  2  0
 13 12  1  0
 14 13  1  0
 14 16  1  0
 14 15  1  6
 16 17  1  1
 16 18  1  0
 17 10  1  0
 18 19  2  0
 18 28  1  0
 20 21  1  0
 21 22  2  0
 21 23  1  0
 23 24  1  0
 24 25  1  0
 25 26  1  0
 27 26  1  6
 27 29  1  0
 28 27  1  0
 29 31  2  0
 29 30  1  0
M  END
$$$$
