MDQ.pdb
     RDKit          3D

 26 25  0  0  1  0  0  0  0  0999 V2000
    6.4812  -11.7870   27.2390 C   0  0  0  0  0  0  0  0  0  0  0  0
    7.0222  -12.2414   25.5639 S   0  0  0  0  0  0  0  0  0  0  0  0
    5.8496  -13.4426   24.8454 C   0  0  0  0  0  0  0  0  0  0  0  0
    6.5753  -14.6746   24.3605 C   0  0  0  0  0  0  0  0  0  0  0  0
    7.9670  -14.3327   23.8563 C   0  0  2  0  0  0  0  0  0  0  0  0
    7.8235  -13.8742   22.4881 N   0  0  0  0  0  0  0  0  0  0  0  0
    8.8796  -15.4751   23.9724 C   0  0  0  0  0  0  0  0  0  0  0  0
    9.0415  -16.1674   24.9911 O   0  0  0  0  0  0  0  0  0  0  0  0
    9.6667  -15.8507   22.8292 N   0  0  0  0  0  0  0  0  0  0  0  0
   10.6133  -16.9322   22.8738 C   0  0  1  0  0  0  0  0  0  0  0  0
   11.2673  -17.0131   21.4941 C   0  0  0  0  0  0  0  0  0  0  0  0
   12.0173  -18.2862   21.3348 C   0  0  0  0  0  0  0  0  0  0  0  0
   11.6904  -19.1187   20.4317 O   0  0  0  0  0  0  0  0  0  0  0  0
   11.6128  -16.7881   23.9380 C   0  0  0  0  0  0  0  0  0  0  0  0
   12.2067  -15.6938   24.0741 O   0  0  0  0  0  0  0  0  0  0  0  0
   13.0739  -18.5430   22.1880 O   0  0  0  0  0  0  0  0  0  0  0  0
   11.5092  -14.5047   29.4219 N   0  0  0  0  0  0  0  0  0  0  0  0
   11.2461  -15.8907   29.2735 C   0  0  0  0  0  0  0  0  0  0  0  0
   10.3028  -16.4645   29.8390 O   0  0  0  0  0  0  0  0  0  0  0  0
   12.1776  -16.6590   28.3820 C   0  0  0  0  0  0  0  0  0  0  0  0
   11.6146  -16.8344   27.0169 C   0  0  0  0  0  0  0  0  0  0  0  0
   12.5450  -17.6228   26.1426 C   0  0  2  0  0  0  0  0  0  0  0  0
   11.9327  -17.8432   24.8206 N   0  0  0  0  0  0  0  0  0  0  0  0
   12.9515  -18.8995   26.7364 C   0  0  0  0  0  0  0  0  0  0  0  0
   13.7814  -19.0479   27.8146 O   0  0  0  0  0  0  0  0  0  0  0  0
   12.5133  -19.9861   26.2240 O   0  0  0  0  0  0  0  0  0  0  0  0
  2  1  1  0
  3  2  1  0
  4  5  1  0
  4  3  1  0
  5  6  1  6
  7  5  1  0
  7  8  2  0
  9  7  1  0
 10  9  1  0
 10 11  1  6
 12 11  1  0
 13 12  2  0
 14 10  1  0
 14 23  1  0
 15 14  2  0
 16 12  1  0
 17 18  1  0
 18 19  2  0
 18 20  1  0
 20 21  1  0
 22 21  1  1
 22 23  1  0
 22 24  1  0
 24 26  2  0
 24 25  1  0
M  END
$$$$
