MDQ.pdb
     RDKit          3D

 26 25  0  0  1  0  0  0  0  0999 V2000
    8.9018  -12.1486   18.8134 C   0  0  0  0  0  0  0  0  0  0  0  0
    7.3120  -12.6771   19.5191 S   0  0  0  0  0  0  0  0  0  0  0  0
    7.0865  -14.4689   19.2492 C   0  0  0  0  0  0  0  0  0  0  0  0
    7.2163  -15.2264   20.5488 C   0  0  0  0  0  0  0  0  0  0  0  0
    8.5989  -15.0515   21.1537 C   0  0  2  0  0  0  0  0  0  0  0  0
    9.5585  -15.4747   20.1523 N   0  0  0  0  0  0  0  0  0  0  0  0
    8.7362  -15.7936   22.4114 C   0  0  0  0  0  0  0  0  0  0  0  0
    7.8859  -15.8424   23.3158 O   0  0  0  0  0  0  0  0  0  0  0  0
    9.9442  -16.5370   22.6477 N   0  0  0  0  0  0  0  0  0  0  0  0
   10.2149  -17.1772   23.9065 C   0  0  1  0  0  0  0  0  0  0  0  0
   11.5303  -17.9403   23.7478 C   0  0  0  0  0  0  0  0  0  0  0  0
   11.3695  -19.0902   22.8201 C   0  0  0  0  0  0  0  0  0  0  0  0
   11.4807  -18.9265   21.5645 O   0  0  0  0  0  0  0  0  0  0  0  0
   10.2649  -16.2429   25.0364 C   0  0  0  0  0  0  0  0  0  0  0  0
   11.1498  -15.3568   25.0575 O   0  0  0  0  0  0  0  0  0  0  0  0
   11.0973  -20.3365   23.3519 O   0  0  0  0  0  0  0  0  0  0  0  0
    7.0891  -11.3310   26.5556 N   0  0  0  0  0  0  0  0  0  0  0  0
    6.8565  -12.7282   26.4779 C   0  0  0  0  0  0  0  0  0  0  0  0
    5.7234  -13.2297   26.5380 O   0  0  0  0  0  0  0  0  0  0  0  0
    8.0660  -13.6020   26.3159 C   0  0  0  0  0  0  0  0  0  0  0  0
    8.1668  -14.6110   27.4037 C   0  0  0  0  0  0  0  0  0  0  0  0
    9.4262  -15.4175   27.2816 C   0  0  2  0  0  0  0  0  0  0  0  0
    9.3474  -16.3051   26.1081 N   0  0  0  0  0  0  0  0  0  0  0  0
    9.7350  -16.1911   28.4874 C   0  0  0  0  0  0  0  0  0  0  0  0
   10.1396  -15.6695   29.6863 O   0  0  0  0  0  0  0  0  0  0  0  0
    9.6306  -17.4651   28.4472 O   0  0  0  0  0  0  0  0  0  0  0  0
  2  1  1  0
  3  2  1  0
  4  5  1  0
  4  3  1  0
  5  6  1  6
  7  5  1  0
  7  8  2  0
  9  7  1  0
 10  9  1  0
 10 11  1  6
 12 11  1  0
 13 12  2  0
 14 10  1  0
 14 23  1  0
 15 14  2  0
 16 12  1  0
 17 18  1  0
 18 19  2  0
 18 20  1  0
 20 21  1  0
 22 21  1  1
 22 23  1  0
 22 24  1  0
 24 26  2  0
 24 25  1  0
M  END
$$$$
