MDQ.pdb
     RDKit          3D

 26 25  0  0  1  0  0  0  0  0999 V2000
    5.7105  -11.3979   25.7870 C   0  0  0  0  0  0  0  0  0  0  0  0
    6.7337  -12.8082   25.2682 S   0  0  0  0  0  0  0  0  0  0  0  0
    6.2382  -14.3000   26.1971 C   0  0  0  0  0  0  0  0  0  0  0  0
    7.1621  -15.4538   25.8891 C   0  0  0  0  0  0  0  0  0  0  0  0
    7.0804  -15.8505   24.4249 C   0  0  2  0  0  0  0  0  0  0  0  0
    5.8489  -16.5967   24.2539 N   0  0  0  0  0  0  0  0  0  0  0  0
    8.2612  -16.6125   24.0048 C   0  0  0  0  0  0  0  0  0  0  0  0
    8.4234  -17.8343   24.1611 O   0  0  0  0  0  0  0  0  0  0  0  0
    9.3386  -15.9165   23.3550 N   0  0  0  0  0  0  0  0  0  0  0  0
   10.5887  -16.5572   23.0482 C   0  0  1  0  0  0  0  0  0  0  0  0
   11.2597  -15.7295   21.9517 C   0  0  0  0  0  0  0  0  0  0  0  0
   12.4980  -16.3931   21.4669 C   0  0  0  0  0  0  0  0  0  0  0  0
   12.6086  -17.6588   21.5043 O   0  0  0  0  0  0  0  0  0  0  0  0
   11.4629  -16.7181   24.2153 C   0  0  0  0  0  0  0  0  0  0  0  0
   12.3509  -15.8629   24.4358 O   0  0  0  0  0  0  0  0  0  0  0  0
   13.5224  -15.6054   20.9765 O   0  0  0  0  0  0  0  0  0  0  0  0
   10.4188  -14.0508   27.9354 N   0  0  0  0  0  0  0  0  0  0  0  0
   10.6744  -15.0339   28.9255 C   0  0  0  0  0  0  0  0  0  0  0  0
   11.0348  -14.7542   30.0792 O   0  0  0  0  0  0  0  0  0  0  0  0
   10.4877  -16.4652   28.5143 C   0  0  0  0  0  0  0  0  0  0  0  0
   10.4503  -16.6133   27.0351 C   0  0  0  0  0  0  0  0  0  0  0  0
   11.4211  -17.6583   26.5691 C   0  0  2  0  0  0  0  0  0  0  0  0
   11.3403  -17.8076   25.1054 N   0  0  0  0  0  0  0  0  0  0  0  0
   11.2327  -18.9547   27.2259 C   0  0  0  0  0  0  0  0  0  0  0  0
   10.6198  -20.0462   26.6726 O   0  0  0  0  0  0  0  0  0  0  0  0
   11.6635  -19.1103   28.4199 O   0  0  0  0  0  0  0  0  0  0  0  0
  2  1  1  0
  3  2  1  0
  4  5  1  0
  4  3  1  0
  5  6  1  1
  7  5  1  0
  7  8  2  0
  9  7  1  0
 10  9  1  0
 10 11  1  6
 12 11  1  0
 13 12  2  0
 14 10  1  0
 14 23  1  0
 15 14  2  0
 16 12  1  0
 17 18  1  0
 18 19  2  0
 18 20  1  0
 20 21  1  0
 22 21  1  1
 22 23  1  0
 22 24  1  0
 24 26  2  0
 24 25  1  0
M  END
$$$$
