MDQ.pdb
     RDKit          3D

 26 25  0  0  1  0  0  0  0  0999 V2000
    6.2925  -11.5874   26.7800 C   0  0  0  0  0  0  0  0  0  0  0  0
    6.8811  -12.3619   25.2442 S   0  0  0  0  0  0  0  0  0  0  0  0
    5.8506  -13.8190   24.8580 C   0  0  0  0  0  0  0  0  0  0  0  0
    6.6723  -14.8928   24.1863 C   0  0  0  0  0  0  0  0  0  0  0  0
    8.0802  -14.9469   24.7546 C   0  0  2  0  0  0  0  0  0  0  0  0
    8.7185  -13.6856   24.4318 N   0  0  0  0  0  0  0  0  0  0  0  0
    8.8261  -16.1008   24.2413 C   0  0  0  0  0  0  0  0  0  0  0  0
    8.4759  -17.2884   24.3431 O   0  0  0  0  0  0  0  0  0  0  0  0
   10.0705  -15.8719   23.5583 N   0  0  0  0  0  0  0  0  0  0  0  0
   10.9669  -16.9445   23.2209 C   0  0  1  0  0  0  0  0  0  0  0  0
   11.6902  -16.5374   21.9369 C   0  0  0  0  0  0  0  0  0  0  0  0
   12.6634  -17.5809   21.5209 C   0  0  0  0  0  0  0  0  0  0  0  0
   12.2804  -18.7757   21.3177 O   0  0  0  0  0  0  0  0  0  0  0  0
   11.9126  -17.2725   24.2933 C   0  0  0  0  0  0  0  0  0  0  0  0
   13.0053  -16.6631   24.3516 O   0  0  0  0  0  0  0  0  0  0  0  0
   13.9888  -17.2235   21.3608 O   0  0  0  0  0  0  0  0  0  0  0  0
   10.1062  -14.5125   28.0922 N   0  0  0  0  0  0  0  0  0  0  0  0
   10.7651  -15.2867   29.0815 C   0  0  0  0  0  0  0  0  0  0  0  0
   10.8327  -14.9466   30.2726 O   0  0  0  0  0  0  0  0  0  0  0  0
   11.3955  -16.5687   28.6209 C   0  0  0  0  0  0  0  0  0  0  0  0
   11.2462  -16.7604   27.1539 C   0  0  0  0  0  0  0  0  0  0  0  0
   11.8775  -18.0462   26.7070 C   0  0  2  0  0  0  0  0  0  0  0  0
   11.6361  -18.2557   25.2686 N   0  0  0  0  0  0  0  0  0  0  0  0
   11.4247  -19.2089   27.4756 C   0  0  0  0  0  0  0  0  0  0  0  0
   11.9463  -19.6261   28.6702 O   0  0  0  0  0  0  0  0  0  0  0  0
   10.4641  -19.9170   27.0158 O   0  0  0  0  0  0  0  0  0  0  0  0
  2  1  1  0
  3  2  1  0
  4  5  1  0
  4  3  1  0
  5  6  1  6
  7  5  1  0
  7  8  2  0
  9  7  1  0
 10  9  1  0
 10 11  1  6
 12 11  1  0
 13 12  2  0
 14 10  1  0
 14 23  1  0
 15 14  2  0
 16 12  1  0
 17 18  1  0
 18 19  2  0
 18 20  1  0
 20 21  1  0
 22 21  1  1
 22 23  1  0
 22 24  1  0
 24 26  2  0
 24 25  1  0
M  END
$$$$
