MDQ.pdb
     RDKit          3D

 26 25  0  0  1  0  0  0  0  0999 V2000
    8.1955  -11.3785   20.0080 C   0  0  0  0  0  0  0  0  0  0  0  0
    7.0363  -12.3369   18.9868 S   0  0  0  0  0  0  0  0  0  0  0  0
    7.3564  -14.1212   19.2063 C   0  0  0  0  0  0  0  0  0  0  0  0
    7.5232  -14.4591   20.6683 C   0  0  0  0  0  0  0  0  0  0  0  0
    8.9203  -14.9807   20.9583 C   0  0  2  0  0  0  0  0  0  0  0  0
    9.3075  -15.8095   19.8332 N   0  0  0  0  0  0  0  0  0  0  0  0
    8.9731  -15.7045   22.2329 C   0  0  0  0  0  0  0  0  0  0  0  0
    8.2432  -15.4889   23.2148 O   0  0  0  0  0  0  0  0  0  0  0  0
    9.9395  -16.7574   22.3910 N   0  0  0  0  0  0  0  0  0  0  0  0
   10.0857  -17.4832   23.6236 C   0  0  1  0  0  0  0  0  0  0  0  0
   11.2130  -18.4953   23.4173 C   0  0  0  0  0  0  0  0  0  0  0  0
   11.3534  -19.3836   24.6004 C   0  0  0  0  0  0  0  0  0  0  0  0
   10.3457  -20.0040   25.0645 O   0  0  0  0  0  0  0  0  0  0  0  0
   10.3400  -16.6195   24.7818 C   0  0  0  0  0  0  0  0  0  0  0  0
   11.4247  -15.9974   24.8532 O   0  0  0  0  0  0  0  0  0  0  0  0
   12.5998  -19.5190   25.1821 O   0  0  0  0  0  0  0  0  0  0  0  0
    6.1469  -13.8936   26.1471 N   0  0  0  0  0  0  0  0  0  0  0  0
    7.1360  -12.9296   26.4706 C   0  0  0  0  0  0  0  0  0  0  0  0
    7.0190  -11.7241   26.2021 O   0  0  0  0  0  0  0  0  0  0  0  0
    8.3640  -13.4362   27.1692 C   0  0  0  0  0  0  0  0  0  0  0  0
    8.3196  -14.9099   27.3628 C   0  0  0  0  0  0  0  0  0  0  0  0
    9.6168  -15.5496   26.9631 C   0  0  2  0  0  0  0  0  0  0  0  0
    9.4023  -16.4617   25.8259 N   0  0  0  0  0  0  0  0  0  0  0  0
   10.2763  -16.2544   28.0658 C   0  0  0  0  0  0  0  0  0  0  0  0
   10.7994  -15.6677   29.1863 O   0  0  0  0  0  0  0  0  0  0  0  0
   10.3919  -17.5265   28.0042 O   0  0  0  0  0  0  0  0  0  0  0  0
  2  1  1  0
  3  2  1  0
  4  5  1  0
  4  3  1  0
  5  6  1  6
  7  5  1  0
  7  8  2  0
  9  7  1  0
 10  9  1  0
 10 11  1  6
 12 11  1  0
 13 12  2  0
 14 10  1  0
 14 23  1  0
 15 14  2  0
 16 12  1  0
 17 18  1  0
 18 19  2  0
 18 20  1  0
 20 21  1  0
 22 21  1  1
 22 23  1  0
 22 24  1  0
 24 26  2  0
 24 25  1  0
M  END
$$$$
