MDQ.pdb
     RDKit          3D

 26 25  0  0  1  0  0  0  0  0999 V2000
    7.6809  -11.7479   26.0088 C   0  0  0  0  0  0  0  0  0  0  0  0
    6.6334  -13.0991   26.6270 S   0  0  0  0  0  0  0  0  0  0  0  0
    6.8210  -14.5621   25.5507 C   0  0  0  0  0  0  0  0  0  0  0  0
    7.0591  -14.1463   24.1189 C   0  0  0  0  0  0  0  0  0  0  0  0
    7.1318  -15.3528   23.1986 C   0  0  2  0  0  0  0  0  0  0  0  0
    5.8938  -16.0896   23.3638 N   0  0  0  0  0  0  0  0  0  0  0  0
    8.3148  -16.1740   23.4766 C   0  0  0  0  0  0  0  0  0  0  0  0
    8.3525  -17.1446   24.2512 O   0  0  0  0  0  0  0  0  0  0  0  0
    9.5499  -15.8550   22.8131 N   0  0  0  0  0  0  0  0  0  0  0  0
   10.7217  -16.6786   22.9399 C   0  0  1  0  0  0  0  0  0  0  0  0
   11.6353  -16.3435   21.7605 C   0  0  0  0  0  0  0  0  0  0  0  0
   12.7163  -17.3538   21.6212 C   0  0  0  0  0  0  0  0  0  0  0  0
   13.3050  -17.8145   22.6492 O   0  0  0  0  0  0  0  0  0  0  0  0
   11.4134  -16.5143   24.2230 C   0  0  0  0  0  0  0  0  0  0  0  0
   12.1099  -15.4912   24.4149 O   0  0  0  0  0  0  0  0  0  0  0  0
   13.0653  -17.7790   20.3533 O   0  0  0  0  0  0  0  0  0  0  0  0
    9.3118  -13.7053   27.6302 N   0  0  0  0  0  0  0  0  0  0  0  0
   10.1632  -14.6282   28.2902 C   0  0  0  0  0  0  0  0  0  0  0  0
   10.6812  -14.4005   29.3941 O   0  0  0  0  0  0  0  0  0  0  0  0
   10.4217  -15.9269   27.5834 C   0  0  0  0  0  0  0  0  0  0  0  0
   11.8448  -16.0567   27.1720 C   0  0  0  0  0  0  0  0  0  0  0  0
   12.0994  -17.3770   26.5059 C   0  0  2  0  0  0  0  0  0  0  0  0
   11.3232  -17.4720   25.2570 N   0  0  0  0  0  0  0  0  0  0  0  0
   11.8157  -18.5245   27.3721 C   0  0  0  0  0  0  0  0  0  0  0  0
   12.3727  -18.7510   28.6017 O   0  0  0  0  0  0  0  0  0  0  0  0
   10.9837  -19.4094   26.9720 O   0  0  0  0  0  0  0  0  0  0  0  0
  2  1  1  0
  3  2  1  0
  4  5  1  0
  4  3  1  0
  5  6  1  1
  7  5  1  0
  7  8  2  0
  9  7  1  0
 10  9  1  0
 10 11  1  6
 12 11  1  0
 13 12  2  0
 14 10  1  0
 14 23  1  0
 15 14  2  0
 16 12  1  0
 17 18  1  0
 18 19  2  0
 18 20  1  0
 20 21  1  0
 22 21  1  1
 22 23  1  0
 22 24  1  0
 24 26  2  0
 24 25  1  0
M  END
$$$$
