MDQ.pdb
     RDKit          3D

 26 25  0  0  1  0  0  0  0  0999 V2000
    7.1475  -10.9759   24.4661 C   0  0  0  0  0  0  0  0  0  0  0  0
    6.5370  -12.0179   25.8250 S   0  0  0  0  0  0  0  0  0  0  0  0
    5.6084  -13.4341   25.1423 C   0  0  0  0  0  0  0  0  0  0  0  0
    6.4943  -14.6517   25.0317 C   0  0  0  0  0  0  0  0  0  0  0  0
    7.6888  -14.3853   24.1316 C   0  0  2  0  0  0  0  0  0  0  0  0
    7.1705  -14.1207   22.8034 N   0  0  0  0  0  0  0  0  0  0  0  0
    8.6395  -15.5020   24.1507 C   0  0  0  0  0  0  0  0  0  0  0  0
    8.8389  -16.2622   25.1129 O   0  0  0  0  0  0  0  0  0  0  0  0
    9.4214  -15.7651   22.9730 N   0  0  0  0  0  0  0  0  0  0  0  0
   10.4142  -16.8044   22.9301 C   0  0  1  0  0  0  0  0  0  0  0  0
   11.0595  -16.7512   21.5450 C   0  0  0  0  0  0  0  0  0  0  0  0
   12.1056  -17.7977   21.4051 C   0  0  0  0  0  0  0  0  0  0  0  0
   12.1823  -18.7494   22.2441 O   0  0  0  0  0  0  0  0  0  0  0  0
   11.4152  -16.6985   23.9972 C   0  0  0  0  0  0  0  0  0  0  0  0
   12.1616  -15.6934   24.0369 O   0  0  0  0  0  0  0  0  0  0  0  0
   12.9895  -17.7123   20.3460 O   0  0  0  0  0  0  0  0  0  0  0  0
   10.9787  -14.4977   28.9067 N   0  0  0  0  0  0  0  0  0  0  0  0
   10.4880  -15.8030   29.1665 C   0  0  0  0  0  0  0  0  0  0  0  0
    9.9298  -16.1168   30.2290 O   0  0  0  0  0  0  0  0  0  0  0  0
   10.6745  -16.8192   28.0777 C   0  0  0  0  0  0  0  0  0  0  0  0
   11.5617  -16.3128   26.9971 C   0  0  0  0  0  0  0  0  0  0  0  0
   12.2389  -17.4414   26.2766 C   0  0  2  0  0  0  0  0  0  0  0  0
   11.5703  -17.6930   24.9878 N   0  0  0  0  0  0  0  0  0  0  0  0
   12.3045  -18.6737   27.0670 C   0  0  0  0  0  0  0  0  0  0  0  0
   13.1852  -18.9207   28.0853 O   0  0  0  0  0  0  0  0  0  0  0  0
   11.4847  -19.6196   26.8052 O   0  0  0  0  0  0  0  0  0  0  0  0
  2  1  1  0
  3  2  1  0
  4  5  1  0
  4  3  1  0
  5  6  1  6
  7  5  1  0
  7  8  2  0
  9  7  1  0
 10  9  1  0
 10 11  1  6
 12 11  1  0
 13 12  2  0
 14 10  1  0
 14 23  1  0
 15 14  2  0
 16 12  1  0
 17 18  1  0
 18 19  2  0
 18 20  1  0
 20 21  1  0
 22 21  1  1
 22 23  1  0
 22 24  1  0
 24 26  2  0
 24 25  1  0
M  END
$$$$
