MDQ.pdb
     RDKit          3D

 26 25  0  0  1  0  0  0  0  0999 V2000
    7.4561  -11.7027   19.7547 C   0  0  0  0  0  0  0  0  0  0  0  0
    7.7320  -12.7915   18.3252 S   0  0  0  0  0  0  0  0  0  0  0  0
    9.1362  -13.9078   18.6665 C   0  0  0  0  0  0  0  0  0  0  0  0
   10.0252  -13.3354   19.7443 C   0  0  0  0  0  0  0  0  0  0  0  0
   11.2052  -14.2489   20.0292 C   0  0  2  0  0  0  0  0  0  0  0  0
   11.5631  -14.8855   18.7765 N   0  0  0  0  0  0  0  0  0  0  0  0
   10.8945  -15.2201   21.0835 C   0  0  0  0  0  0  0  0  0  0  0  0
   10.4412  -14.9439   22.2067 O   0  0  0  0  0  0  0  0  0  0  0  0
   11.1224  -16.6164   20.8269 N   0  0  0  0  0  0  0  0  0  0  0  0
   10.9779  -17.6161   21.8502 C   0  0  1  0  0  0  0  0  0  0  0  0
   11.5497  -18.9183   21.2891 C   0  0  0  0  0  0  0  0  0  0  0  0
   10.9391  -20.0981   21.9555 C   0  0  0  0  0  0  0  0  0  0  0  0
   10.1256  -19.9449   22.9201 O   0  0  0  0  0  0  0  0  0  0  0  0
   11.6161  -17.2479   23.1187 C   0  0  0  0  0  0  0  0  0  0  0  0
   12.8420  -16.9915   23.1339 O   0  0  0  0  0  0  0  0  0  0  0  0
   11.2749  -21.3605   21.5041 O   0  0  0  0  0  0  0  0  0  0  0  0
    9.3119  -14.0043   27.7619 N   0  0  0  0  0  0  0  0  0  0  0  0
   10.4889  -14.4632   28.4070 C   0  0  0  0  0  0  0  0  0  0  0  0
   10.8545  -14.0529   29.5192 O   0  0  0  0  0  0  0  0  0  0  0  0
   11.2985  -15.4925   27.6736 C   0  0  0  0  0  0  0  0  0  0  0  0
   10.6705  -15.8678   26.3790 C   0  0  0  0  0  0  0  0  0  0  0  0
   11.5299  -16.8343   25.6183 C   0  0  2  0  0  0  0  0  0  0  0  0
   10.8962  -17.1710   24.3313 N   0  0  0  0  0  0  0  0  0  0  0  0
   11.8336  -18.0536   26.3725 C   0  0  0  0  0  0  0  0  0  0  0  0
   11.1279  -19.2247   26.3108 O   0  0  0  0  0  0  0  0  0  0  0  0
   12.8353  -18.0544   27.1676 O   0  0  0  0  0  0  0  0  0  0  0  0
  2  1  1  0
  3  2  1  0
  4  5  1  0
  4  3  1  0
  5  6  1  6
  7  5  1  0
  7  8  2  0
  9  7  1  0
 10  9  1  0
 10 11  1  6
 12 11  1  0
 13 12  2  0
 14 10  1  0
 14 23  1  0
 15 14  2  0
 16 12  1  0
 17 18  1  0
 18 19  2  0
 18 20  1  0
 20 21  1  0
 22 21  1  1
 22 23  1  0
 22 24  1  0
 24 26  2  0
 24 25  1  0
M  END
$$$$
