MDQ.pdb
     RDKit          3D

 26 25  0  0  1  0  0  0  0  0999 V2000
    8.8228  -11.5246   20.2867 C   0  0  0  0  0  0  0  0  0  0  0  0
    7.1861  -12.2897   20.4887 S   0  0  0  0  0  0  0  0  0  0  0  0
    7.3339  -14.1033   20.3366 C   0  0  0  0  0  0  0  0  0  0  0  0
    7.8941  -14.7028   21.6040 C   0  0  0  0  0  0  0  0  0  0  0  0
    8.0905  -16.2029   21.4651 C   0  0  2  0  0  0  0  0  0  0  0  0
    6.7901  -16.7782   21.1813 N   0  0  0  0  0  0  0  0  0  0  0  0
    8.7101  -16.7800   22.6628 C   0  0  0  0  0  0  0  0  0  0  0  0
    8.0974  -17.2697   23.6262 O   0  0  0  0  0  0  0  0  0  0  0  0
   10.1446  -16.7953   22.7605 N   0  0  0  0  0  0  0  0  0  0  0  0
   10.8260  -17.2358   23.9475 C   0  0  1  0  0  0  0  0  0  0  0  0
   12.2230  -17.6879   23.5211 C   0  0  0  0  0  0  0  0  0  0  0  0
   12.9964  -18.1947   24.6847 C   0  0  0  0  0  0  0  0  0  0  0  0
   12.7235  -19.3252   25.1976 O   0  0  0  0  0  0  0  0  0  0  0  0
   10.8859  -16.2138   24.9982 C   0  0  0  0  0  0  0  0  0  0  0  0
   11.7427  -15.3038   24.9169 O   0  0  0  0  0  0  0  0  0  0  0  0
   14.0148  -17.4114   25.1942 O   0  0  0  0  0  0  0  0  0  0  0  0
    6.9717  -12.5867   27.1577 N   0  0  0  0  0  0  0  0  0  0  0  0
    7.2154  -13.2781   25.9433 C   0  0  0  0  0  0  0  0  0  0  0  0
    6.5045  -13.1459   24.9352 O   0  0  0  0  0  0  0  0  0  0  0  0
    8.3983  -14.2017   25.9224 C   0  0  0  0  0  0  0  0  0  0  0  0
    9.0482  -14.2952   27.2567 C   0  0  0  0  0  0  0  0  0  0  0  0
   10.1611  -15.3016   27.2495 C   0  0  2  0  0  0  0  0  0  0  0  0
   10.0087  -16.2170   26.1049 N   0  0  0  0  0  0  0  0  0  0  0  0
   10.2616  -16.0595   28.4997 C   0  0  0  0  0  0  0  0  0  0  0  0
   10.4866  -15.5247   29.7394 O   0  0  0  0  0  0  0  0  0  0  0  0
   10.1363  -17.3317   28.4624 O   0  0  0  0  0  0  0  0  0  0  0  0
  2  1  1  0
  3  2  1  0
  4  5  1  0
  4  3  1  0
  5  6  1  1
  7  5  1  0
  7  8  2  0
  9  7  1  0
 10  9  1  0
 10 11  1  6
 12 11  1  0
 13 12  2  0
 14 10  1  0
 14 23  1  0
 15 14  2  0
 16 12  1  0
 17 18  1  0
 18 19  2  0
 18 20  1  0
 20 21  1  0
 22 21  1  1
 22 23  1  0
 22 24  1  0
 24 26  2  0
 24 25  1  0
M  END
$$$$
