MDQ.pdb
     RDKit          3D

 26 25  0  0  1  0  0  0  0  0999 V2000
    6.7110  -11.6779   20.7792 C   0  0  0  0  0  0  0  0  0  0  0  0
    7.3160  -12.9000   19.5769 S   0  0  0  0  0  0  0  0  0  0  0  0
    9.0181  -13.3977   20.0120 C   0  0  0  0  0  0  0  0  0  0  0  0
    9.0155  -14.3358   21.1951 C   0  0  0  0  0  0  0  0  0  0  0  0
   10.3508  -15.0460   21.3391 C   0  0  2  0  0  0  0  0  0  0  0  0
   10.6430  -15.6666   20.0616 N   0  0  0  0  0  0  0  0  0  0  0  0
   10.3322  -16.0131   22.4417 C   0  0  0  0  0  0  0  0  0  0  0  0
    9.8415  -15.8152   23.5656 O   0  0  0  0  0  0  0  0  0  0  0  0
   10.9234  -17.3077   22.2363 N   0  0  0  0  0  0  0  0  0  0  0  0
   11.1283  -18.2353   23.3158 C   0  0  1  0  0  0  0  0  0  0  0  0
   12.0240  -19.3536   22.7822 C   0  0  0  0  0  0  0  0  0  0  0  0
   11.4030  -20.0170   21.6061 C   0  0  0  0  0  0  0  0  0  0  0  0
   10.2290  -20.4981   21.6823 O   0  0  0  0  0  0  0  0  0  0  0  0
   11.6966  -17.6146   24.5174 C   0  0  0  0  0  0  0  0  0  0  0  0
   12.4883  -16.6522   24.3915 O   0  0  0  0  0  0  0  0  0  0  0  0
   12.1287  -20.0985   20.4326 O   0  0  0  0  0  0  0  0  0  0  0  0
    8.3817  -14.1881   26.4098 N   0  0  0  0  0  0  0  0  0  0  0  0
    9.1475  -14.0690   27.5979 C   0  0  0  0  0  0  0  0  0  0  0  0
    9.0105  -13.1325   28.3999 O   0  0  0  0  0  0  0  0  0  0  0  0
   10.1582  -15.1481   27.8561 C   0  0  0  0  0  0  0  0  0  0  0  0
   10.2621  -16.0914   26.7112 C   0  0  0  0  0  0  0  0  0  0  0  0
   11.2846  -17.1571   26.9764 C   0  0  2  0  0  0  0  0  0  0  0  0
   11.3829  -18.0637   25.8190 N   0  0  0  0  0  0  0  0  0  0  0  0
   11.0202  -17.9184   28.2005 C   0  0  0  0  0  0  0  0  0  0  0  0
   11.4863  -17.6060   29.4489 O   0  0  0  0  0  0  0  0  0  0  0  0
   10.2986  -18.9718   28.1288 O   0  0  0  0  0  0  0  0  0  0  0  0
  2  1  1  0
  3  2  1  0
  4  5  1  0
  4  3  1  0
  5  6  1  6
  7  5  1  0
  7  8  2  0
  9  7  1  0
 10  9  1  0
 10 11  1  6
 12 11  1  0
 13 12  2  0
 14 10  1  0
 14 23  1  0
 15 14  2  0
 16 12  1  0
 17 18  1  0
 18 19  2  0
 18 20  1  0
 20 21  1  0
 22 21  1  6
 22 23  1  0
 22 24  1  0
 24 26  2  0
 24 25  1  0
M  END
$$$$
