MDQ.pdb
     RDKit          3D

 26 25  0  0  1  0  0  0  0  0999 V2000
    8.0935  -12.8921   18.2729 C   0  0  0  0  0  0  0  0  0  0  0  0
    7.8574  -12.8803   20.0754 S   0  0  0  0  0  0  0  0  0  0  0  0
    6.5512  -14.0721   20.5308 C   0  0  0  0  0  0  0  0  0  0  0  0
    7.1305  -15.2305   21.3068 C   0  0  0  0  0  0  0  0  0  0  0  0
    8.5487  -14.9343   21.7640 C   0  0  2  0  0  0  0  0  0  0  0  0
    9.3979  -15.0052   20.5909 N   0  0  0  0  0  0  0  0  0  0  0  0
    8.9777  -15.8532   22.8237 C   0  0  0  0  0  0  0  0  0  0  0  0
    8.3270  -16.1289   23.8454 O   0  0  0  0  0  0  0  0  0  0  0  0
   10.2531  -16.5053   22.6993 N   0  0  0  0  0  0  0  0  0  0  0  0
   10.7832  -17.3529   23.7329 C   0  0  1  0  0  0  0  0  0  0  0  0
   12.0239  -18.0378   23.1589 C   0  0  0  0  0  0  0  0  0  0  0  0
   11.6892  -18.7992   21.9272 C   0  0  0  0  0  0  0  0  0  0  0  0
   12.1441  -18.4323   20.7984 O   0  0  0  0  0  0  0  0  0  0  0  0
   11.0882  -16.6354   24.9755 C   0  0  0  0  0  0  0  0  0  0  0  0
   12.0285  -15.8080   24.9881 O   0  0  0  0  0  0  0  0  0  0  0  0
   10.8752  -19.9108   22.0370 O   0  0  0  0  0  0  0  0  0  0  0  0
    8.7418  -12.7317   28.2404 N   0  0  0  0  0  0  0  0  0  0  0  0
    8.4208  -13.2301   26.9517 C   0  0  0  0  0  0  0  0  0  0  0  0
    7.8055  -12.5660   26.1036 O   0  0  0  0  0  0  0  0  0  0  0  0
    8.8654  -14.6301   26.6435 C   0  0  0  0  0  0  0  0  0  0  0  0
    9.4881  -15.2834   27.8253 C   0  0  0  0  0  0  0  0  0  0  0  0
   10.6562  -16.1349   27.4227 C   0  0  2  0  0  0  0  0  0  0  0  0
   10.3572  -16.8433   26.1658 N   0  0  0  0  0  0  0  0  0  0  0  0
   11.0618  -17.0862   28.4611 C   0  0  0  0  0  0  0  0  0  0  0  0
   11.6032  -16.7577   29.6745 O   0  0  0  0  0  0  0  0  0  0  0  0
   10.9133  -18.3377   28.2440 O   0  0  0  0  0  0  0  0  0  0  0  0
  2  1  1  0
  3  2  1  0
  4  5  1  0
  4  3  1  0
  5  6  1  6
  7  5  1  0
  7  8  2  0
  9  7  1  0
 10  9  1  0
 10 11  1  6
 12 11  1  0
 13 12  2  0
 14 10  1  0
 14 23  1  0
 15 14  2  0
 16 12  1  0
 17 18  1  0
 18 19  2  0
 18 20  1  0
 20 21  1  0
 22 21  1  1
 22 23  1  0
 22 24  1  0
 24 26  2  0
 24 25  1  0
M  END
$$$$
