MDQ.pdb
     RDKit          3D

 26 25  0  0  1  0  0  0  0  0999 V2000
    8.9473  -13.0615   28.0482 C   0  0  0  0  0  0  0  0  0  0  0  0
    7.5395  -12.2289   27.2545 S   0  0  0  0  0  0  0  0  0  0  0  0
    6.6427  -13.4155   26.1954 C   0  0  0  0  0  0  0  0  0  0  0  0
    7.5906  -14.4372   25.6148 C   0  0  0  0  0  0  0  0  0  0  0  0
    6.8670  -15.3947   24.6833 C   0  0  2  0  0  0  0  0  0  0  0  0
    5.8621  -16.0794   25.4731 N   0  0  0  0  0  0  0  0  0  0  0  0
    7.7980  -16.3230   24.0330 C   0  0  0  0  0  0  0  0  0  0  0  0
    8.0081  -17.4963   24.3833 O   0  0  0  0  0  0  0  0  0  0  0  0
    8.5452  -15.8675   22.8921 N   0  0  0  0  0  0  0  0  0  0  0  0
    9.3714  -16.7519   22.1156 C   0  0  1  0  0  0  0  0  0  0  0  0
    9.8838  -15.9512   20.9181 C   0  0  0  0  0  0  0  0  0  0  0  0
   10.6934  -16.8077   20.0127 C   0  0  0  0  0  0  0  0  0  0  0  0
   10.2766  -17.9585   19.6698 O   0  0  0  0  0  0  0  0  0  0  0  0
   10.4738  -17.3425   22.8824 C   0  0  0  0  0  0  0  0  0  0  0  0
   11.1374  -18.2769   22.3772 O   0  0  0  0  0  0  0  0  0  0  0  0
   11.9049  -16.3260   19.5541 O   0  0  0  0  0  0  0  0  0  0  0  0
   16.0110  -15.3876   24.3589 N   0  0  0  0  0  0  0  0  0  0  0  0
   14.8685  -15.6150   23.5494 C   0  0  0  0  0  0  0  0  0  0  0  0
   14.9091  -15.6248   22.3096 O   0  0  0  0  0  0  0  0  0  0  0  0
   13.5722  -15.8496   24.2686 C   0  0  0  0  0  0  0  0  0  0  0  0
   13.2186  -17.2934   24.3105 C   0  0  0  0  0  0  0  0  0  0  0  0
   11.8917  -17.5087   24.9772 C   0  0  2  0  0  0  0  0  0  0  0  0
   10.8175  -16.8947   24.1769 N   0  0  0  0  0  0  0  0  0  0  0  0
   11.8506  -17.0106   26.3548 C   0  0  0  0  0  0  0  0  0  0  0  0
   10.9984  -16.0505   26.8295 O   0  0  0  0  0  0  0  0  0  0  0  0
   12.6709  -17.4916   27.2100 O   0  0  0  0  0  0  0  0  0  0  0  0
  2  1  1  0
  3  2  1  0
  4  5  1  0
  4  3  1  0
  5  6  1  1
  7  5  1  0
  7  8  2  0
  9  7  1  0
 10  9  1  0
 10 11  1  6
 12 11  1  0
 13 12  2  0
 14 10  1  0
 14 23  1  0
 15 14  2  0
 16 12  1  0
 17 18  1  0
 18 19  2  0
 18 20  1  0
 20 21  1  0
 22 21  1  6
 22 23  1  0
 22 24  1  0
 24 26  2  0
 24 25  1  0
M  END
$$$$
