MDQ.pdb
     RDKit          3D

 26 25  0  0  1  0  0  0  0  0999 V2000
    7.8834  -11.7408   26.5744 C   0  0  0  0  0  0  0  0  0  0  0  0
    6.2697  -12.5529   26.7781 S   0  0  0  0  0  0  0  0  0  0  0  0
    6.0602  -13.8320   25.4919 C   0  0  0  0  0  0  0  0  0  0  0  0
    7.3285  -14.6332   25.3222 C   0  0  0  0  0  0  0  0  0  0  0  0
    7.1489  -15.7404   24.2975 C   0  0  2  0  0  0  0  0  0  0  0  0
    6.0669  -16.5837   24.7671 N   0  0  0  0  0  0  0  0  0  0  0  0
    8.3927  -16.4887   24.0870 C   0  0  0  0  0  0  0  0  0  0  0  0
    8.7123  -17.5354   24.6750 O   0  0  0  0  0  0  0  0  0  0  0  0
    9.3425  -15.9959   23.1265 N   0  0  0  0  0  0  0  0  0  0  0  0
   10.6253  -16.6154   22.9315 C   0  0  1  0  0  0  0  0  0  0  0  0
   11.1790  -16.0927   21.6056 C   0  0  0  0  0  0  0  0  0  0  0  0
   11.1267  -17.1438   20.5561 C   0  0  0  0  0  0  0  0  0  0  0  0
   10.7334  -18.3189   20.8391 O   0  0  0  0  0  0  0  0  0  0  0  0
   11.5599  -16.3805   24.0376 C   0  0  0  0  0  0  0  0  0  0  0  0
   12.0771  -15.2475   24.1700 O   0  0  0  0  0  0  0  0  0  0  0  0
   11.5143  -16.8154   19.2708 O   0  0  0  0  0  0  0  0  0  0  0  0
   11.5017  -14.8131   29.3741 N   0  0  0  0  0  0  0  0  0  0  0  0
   10.7405  -16.0046   29.2600 C   0  0  0  0  0  0  0  0  0  0  0  0
   10.0373  -16.4488   30.1804 O   0  0  0  0  0  0  0  0  0  0  0  0
   10.8196  -16.7286   27.9476 C   0  0  0  0  0  0  0  0  0  0  0  0
   11.7844  -16.0822   27.0188 C   0  0  0  0  0  0  0  0  0  0  0  0
   12.5659  -17.1056   26.2485 C   0  0  2  0  0  0  0  0  0  0  0  0
   11.9008  -17.3897   24.9647 N   0  0  0  0  0  0  0  0  0  0  0  0
   12.7848  -18.3469   26.9961 C   0  0  0  0  0  0  0  0  0  0  0  0
   12.1476  -19.5366   26.7684 O   0  0  0  0  0  0  0  0  0  0  0  0
   13.6351  -18.3506   27.9514 O   0  0  0  0  0  0  0  0  0  0  0  0
  2  1  1  0
  3  2  1  0
  4  5  1  0
  4  3  1  0
  5  6  1  1
  7  5  1  0
  7  8  2  0
  9  7  1  0
 10  9  1  0
 10 11  1  6
 12 11  1  0
 13 12  2  0
 14 10  1  0
 14 23  1  0
 15 14  2  0
 16 12  1  0
 17 18  1  0
 18 19  2  0
 18 20  1  0
 20 21  1  0
 22 21  1  1
 22 23  1  0
 22 24  1  0
 24 26  2  0
 24 25  1  0
M  END
$$$$
