MDQ.pdb
     RDKit          3D

 26 25  0  0  1  0  0  0  0  0999 V2000
    6.9244  -11.3211   26.2287 C   0  0  0  0  0  0  0  0  0  0  0  0
    5.9028  -12.8197   26.3538 S   0  0  0  0  0  0  0  0  0  0  0  0
    6.1152  -13.8339   24.8503 C   0  0  0  0  0  0  0  0  0  0  0  0
    7.3062  -14.7516   24.9876 C   0  0  0  0  0  0  0  0  0  0  0  0
    7.4759  -15.6237   23.7552 C   0  0  2  0  0  0  0  0  0  0  0  0
    6.2803  -16.4360   23.6404 N   0  0  0  0  0  0  0  0  0  0  0  0
    8.6981  -16.4313   23.8288 C   0  0  0  0  0  0  0  0  0  0  0  0
    8.7789  -17.5738   24.3099 O   0  0  0  0  0  0  0  0  0  0  0  0
    9.9217  -15.8833   23.3093 N   0  0  0  0  0  0  0  0  0  0  0  0
   11.1754  -16.5803   23.4089 C   0  0  1  0  0  0  0  0  0  0  0  0
   12.0980  -15.9994   22.3370 C   0  0  0  0  0  0  0  0  0  0  0  0
   13.3748  -16.7568   22.2667 C   0  0  0  0  0  0  0  0  0  0  0  0
   13.3783  -18.0248   22.3548 O   0  0  0  0  0  0  0  0  0  0  0  0
   11.7808  -16.5028   24.7429 C   0  0  0  0  0  0  0  0  0  0  0  0
   12.5850  -15.5765   24.9958 O   0  0  0  0  0  0  0  0  0  0  0  0
   14.5534  -16.0534   22.1043 O   0  0  0  0  0  0  0  0  0  0  0  0
   11.1106  -13.6245   28.6329 N   0  0  0  0  0  0  0  0  0  0  0  0
   10.0268  -14.5117   28.4081 C   0  0  0  0  0  0  0  0  0  0  0  0
    8.8391  -14.1636   28.4923 O   0  0  0  0  0  0  0  0  0  0  0  0
   10.3801  -15.9270   28.0549 C   0  0  0  0  0  0  0  0  0  0  0  0
   11.8282  -16.0741   27.7505 C   0  0  0  0  0  0  0  0  0  0  0  0
   12.1140  -17.3924   27.0931 C   0  0  2  0  0  0  0  0  0  0  0  0
   11.4895  -17.4390   25.7593 N   0  0  0  0  0  0  0  0  0  0  0  0
   11.6888  -18.5419   27.8966 C   0  0  0  0  0  0  0  0  0  0  0  0
   10.7563  -19.4722   27.5247 O   0  0  0  0  0  0  0  0  0  0  0  0
   12.2126  -18.7165   29.0501 O   0  0  0  0  0  0  0  0  0  0  0  0
  2  1  1  0
  3  2  1  0
  4  5  1  0
  4  3  1  0
  5  6  1  1
  7  5  1  0
  7  8  2  0
  9  7  1  0
 10  9  1  0
 10 11  1  6
 12 11  1  0
 13 12  2  0
 14 10  1  0
 14 23  1  0
 15 14  2  0
 16 12  1  0
 17 18  1  0
 18 19  2  0
 18 20  1  0
 20 21  1  0
 22 21  1  1
 22 23  1  0
 22 24  1  0
 24 26  2  0
 24 25  1  0
M  END
$$$$
