HQE.pdb
     RDKit          3D

 29 29  0  0  1  0  0  0  0  0999 V2000
    8.7631  -13.0567   20.7315 N   0  0  0  0  0  0  0  0  0  0  0  0
    8.3029  -14.4190   20.9218 C   0  0  1  0  0  0  0  0  0  0  0  0
    8.7926  -15.2577   19.7623 C   0  0  0  0  0  0  0  0  0  0  0  0
    8.2299  -14.6695   18.5169 C   0  0  0  0  0  0  0  0  0  0  0  0
    7.5918  -13.4578   18.3754 C   0  0  0  0  0  0  0  0  0  0  0  0
    7.2341  -13.3022   17.0752 N   0  0  0  0  0  0  0  0  0  0  0  0
    7.6364  -14.3900   16.4099 C   0  0  0  0  0  0  0  0  0  0  0  0
    8.2404  -15.2162   17.2914 N   0  0  0  0  0  0  0  0  0  0  0  0
    8.7200  -14.9347   22.2264 C   0  0  0  0  0  0  0  0  0  0  0  0
    9.6428  -14.3380   22.8617 O   0  0  0  0  0  0  0  0  0  0  0  0
    7.1393  -19.5461   25.6120 N   0  0  0  0  0  0  0  0  0  0  0  0
    6.9510  -18.5513   26.6203 C   0  0  0  0  0  0  0  0  0  0  0  0
    6.9579  -18.9542   27.8100 O   0  0  0  0  0  0  0  0  0  0  0  0
    6.7627  -17.1385   26.2084 C   0  0  0  0  0  0  0  0  0  0  0  0
    6.8856  -16.9099   24.7312 C   0  0  0  0  0  0  0  0  0  0  0  0
    8.1663  -16.2536   24.2962 C   0  0  2  0  0  0  0  0  0  0  0  0
    8.1541  -16.0664   22.8286 N   0  0  0  0  0  0  0  0  0  0  0  0
    9.3833  -17.0381   24.6316 C   0  0  0  0  0  0  0  0  0  0  0  0
    9.7404  -17.2144   25.8232 O   0  0  0  0  0  0  0  0  0  0  0  0
   10.2060  -17.6288   23.6349 N   0  0  0  0  0  0  0  0  0  0  0  0
   11.4929  -18.2150   23.9089 C   0  0  1  0  0  0  0  0  0  0  0  0
   12.6308  -17.3273   23.5529 C   0  0  0  0  0  0  0  0  0  0  0  0
   13.9942  -17.7477   23.8918 C   0  0  0  0  0  0  0  0  0  0  0  0
   15.1197  -16.8974   23.5620 C   0  0  0  0  0  0  0  0  0  0  0  0
   15.3204  -15.7105   23.8950 O   0  0  0  0  0  0  0  0  0  0  0  0
   11.5935  -18.9235   25.1909 C   0  0  0  0  0  0  0  0  0  0  0  0
   12.5939  -19.8493   25.3881 O   0  0  0  0  0  0  0  0  0  0  0  0
   16.1517  -17.4454   22.7570 O   0  0  0  0  0  0  0  0  0  0  0  0
   10.7773  -18.6952   26.1018 O   0  0  0  0  0  0  0  0  0  0  0  0
  2  1  1  6
  3  2  1  0
  3  4  1  0
  4  5  2  0
  4  8  1  0
  5  6  1  0
  6  7  1  0
  8  7  2  0
  9 17  1  0
  9  2  1  0
 10  9  2  0
 12 11  1  0
 13 12  2  0
 14 12  1  0
 16 15  1  6
 15 14  1  0
 16 17  1  0
 18 20  1  0
 18 16  1  0
 19 18  2  0
 21 22  1  1
 21 20  1  0
 23 22  1  0
 24 23  1  0
 24 25  2  0
 26 21  1  0
 27 26  1  0
 28 24  1  0
 29 26  2  0
M  END
$$$$
