HQE.pdb
     RDKit          3D

 29 29  0  0  1  0  0  0  0  0999 V2000
    9.7667  -16.1188   17.7532 N   0  0  0  0  0  0  0  0  0  0  0  0
   10.4790  -15.0192   18.3757 C   0  0  1  0  0  0  0  0  0  0  0  0
    9.7560  -14.6378   19.6483 C   0  0  0  0  0  0  0  0  0  0  0  0
    8.5066  -13.9309   19.2570 C   0  0  0  0  0  0  0  0  0  0  0  0
    8.0364  -13.7012   17.9836 C   0  0  0  0  0  0  0  0  0  0  0  0
    6.8634  -13.0230   18.0672 N   0  0  0  0  0  0  0  0  0  0  0  0
    6.5980  -12.8283   19.3631 C   0  0  0  0  0  0  0  0  0  0  0  0
    7.5998  -13.3821   20.0801 N   0  0  0  0  0  0  0  0  0  0  0  0
   11.8858  -15.3613   18.5893 C   0  0  0  0  0  0  0  0  0  0  0  0
   12.1879  -16.5386   18.9555 O   0  0  0  0  0  0  0  0  0  0  0  0
   16.9115  -12.8741   15.7854 N   0  0  0  0  0  0  0  0  0  0  0  0
   17.5409  -13.5402   16.8818 C   0  0  0  0  0  0  0  0  0  0  0  0
   18.7920  -13.4493   16.9463 O   0  0  0  0  0  0  0  0  0  0  0  0
   16.6971  -14.2808   17.8517 C   0  0  0  0  0  0  0  0  0  0  0  0
   15.2228  -14.1185   17.6295 C   0  0  0  0  0  0  0  0  0  0  0  0
   14.3499  -14.8535   18.6084 C   0  0  2  0  0  0  0  0  0  0  0  0
   12.9389  -14.4541   18.4117 N   0  0  0  0  0  0  0  0  0  0  0  0
   14.6909  -14.5864   20.0301 C   0  0  0  0  0  0  0  0  0  0  0  0
   14.6084  -13.4310   20.5170 O   0  0  0  0  0  0  0  0  0  0  0  0
   15.1258  -15.6110   20.9133 N   0  0  0  0  0  0  0  0  0  0  0  0
   15.5141  -15.3730   22.2799 C   0  0  1  0  0  0  0  0  0  0  0  0
   14.4715  -15.7660   23.2639 C   0  0  0  0  0  0  0  0  0  0  0  0
   13.5450  -16.8505   22.9239 C   0  0  0  0  0  0  0  0  0  0  0  0
   12.5436  -17.2769   23.8799 C   0  0  0  0  0  0  0  0  0  0  0  0
   11.4341  -17.8061   23.6589 O   0  0  0  0  0  0  0  0  0  0  0  0
   16.8956  -15.7458   22.6081 C   0  0  0  0  0  0  0  0  0  0  0  0
   17.6549  -16.4433   21.6951 O   0  0  0  0  0  0  0  0  0  0  0  0
   12.8193  -17.0868   25.2588 O   0  0  0  0  0  0  0  0  0  0  0  0
   17.3856  -15.4382   23.7097 O   0  0  0  0  0  0  0  0  0  0  0  0
  2  1  1  1
  3  2  1  0
  3  4  1  0
  4  5  2  0
  4  8  1  0
  5  6  1  0
  6  7  1  0
  8  7  2  0
  9 17  1  0
  9  2  1  0
 10  9  2  0
 12 11  1  0
 13 12  2  0
 14 12  1  0
 16 15  1  6
 15 14  1  0
 16 17  1  0
 18 20  1  0
 18 16  1  0
 19 18  2  0
 21 22  1  1
 21 20  1  0
 23 22  1  0
 24 23  1  0
 24 25  2  0
 26 21  1  0
 27 26  1  0
 28 24  1  0
 29 26  2  0
M  END
$$$$
