HQE.pdb
     RDKit          3D

 29 29  0  0  1  0  0  0  0  0999 V2000
    9.5754  -16.2590   16.6145 N   0  0  0  0  0  0  0  0  0  0  0  0
   10.0370  -15.3331   17.6313 C   0  0  1  0  0  0  0  0  0  0  0  0
    9.0288  -15.3161   18.7586 C   0  0  0  0  0  0  0  0  0  0  0  0
    8.5505  -13.9152   18.9086 C   0  0  0  0  0  0  0  0  0  0  0  0
    8.9337  -12.8150   18.1751 C   0  0  0  0  0  0  0  0  0  0  0  0
    8.2593  -11.7292   18.6323 N   0  0  0  0  0  0  0  0  0  0  0  0
    7.4681  -12.1332   19.6315 C   0  0  0  0  0  0  0  0  0  0  0  0
    7.6499  -13.4618   19.7941 N   0  0  0  0  0  0  0  0  0  0  0  0
   11.3913  -15.6714   18.0708 C   0  0  0  0  0  0  0  0  0  0  0  0
   11.6505  -16.8655   18.4148 O   0  0  0  0  0  0  0  0  0  0  0  0
   16.8365  -12.6829   16.8537 N   0  0  0  0  0  0  0  0  0  0  0  0
   17.2039  -13.4546   17.9989 C   0  0  0  0  0  0  0  0  0  0  0  0
   18.3855  -13.3241   18.4042 O   0  0  0  0  0  0  0  0  0  0  0  0
   16.1906  -14.3413   18.6220 C   0  0  0  0  0  0  0  0  0  0  0  0
   14.8098  -14.1841   18.0580 C   0  0  0  0  0  0  0  0  0  0  0  0
   13.7815  -15.1197   18.6304 C   0  0  2  0  0  0  0  0  0  0  0  0
   12.4386  -14.7427   18.1368 N   0  0  0  0  0  0  0  0  0  0  0  0
   13.7255  -15.1093   20.1155 C   0  0  0  0  0  0  0  0  0  0  0  0
   13.0054  -14.2889   20.7375 O   0  0  0  0  0  0  0  0  0  0  0  0
   14.4753  -16.0170   20.9112 N   0  0  0  0  0  0  0  0  0  0  0  0
   14.4130  -16.0544   22.3498 C   0  0  1  0  0  0  0  0  0  0  0  0
   13.3522  -16.9571   22.8688 C   0  0  0  0  0  0  0  0  0  0  0  0
   13.2149  -17.1341   24.3180 C   0  0  0  0  0  0  0  0  0  0  0  0
   12.1599  -17.9718   24.8508 C   0  0  0  0  0  0  0  0  0  0  0  0
   11.7778  -19.0904   24.4476 O   0  0  0  0  0  0  0  0  0  0  0  0
   15.7138  -16.1181   23.0274 C   0  0  0  0  0  0  0  0  0  0  0  0
   15.8131  -15.7785   24.3584 O   0  0  0  0  0  0  0  0  0  0  0  0
   11.4411  -17.4969   25.9783 O   0  0  0  0  0  0  0  0  0  0  0  0
   16.7307  -16.4744   22.4053 O   0  0  0  0  0  0  0  0  0  0  0  0
  2  1  1  6
  3  2  1  0
  3  4  1  0
  4  5  2  0
  4  8  1  0
  5  6  1  0
  6  7  1  0
  8  7  2  0
  9 17  1  0
  9  2  1  0
 10  9  2  0
 12 11  1  0
 13 12  2  0
 14 12  1  0
 16 15  1  1
 15 14  1  0
 16 17  1  0
 18 20  1  0
 18 16  1  0
 19 18  2  0
 21 22  1  6
 21 20  1  0
 23 22  1  0
 24 23  1  0
 24 25  2  0
 26 21  1  0
 27 26  1  0
 28 24  1  0
 29 26  2  0
M  END
$$$$
