HQE.pdb
     RDKit          3D

 29 29  0  0  1  0  0  0  0  0999 V2000
    9.9668  -15.9690   15.1954 N   0  0  0  0  0  0  0  0  0  0  0  0
    9.6768  -15.2585   16.4262 C   0  0  1  0  0  0  0  0  0  0  0  0
    8.2372  -15.5246   16.8064 C   0  0  0  0  0  0  0  0  0  0  0  0
    7.9473  -14.7372   18.0351 C   0  0  0  0  0  0  0  0  0  0  0  0
    8.2146  -13.4056   18.2607 C   0  0  0  0  0  0  0  0  0  0  0  0
    7.7917  -13.0810   19.5091 N   0  0  0  0  0  0  0  0  0  0  0  0
    7.2691  -14.1814   20.0602 C   0  0  0  0  0  0  0  0  0  0  0  0
    7.3668  -15.1835   19.1598 N   0  0  0  0  0  0  0  0  0  0  0  0
   10.6294  -15.6209   17.4764 C   0  0  0  0  0  0  0  0  0  0  0  0
   10.9886  -16.8326   17.5953 O   0  0  0  0  0  0  0  0  0  0  0  0
   15.5194  -15.2833   19.6486 N   0  0  0  0  0  0  0  0  0  0  0  0
   15.2401  -14.3419   18.6105 C   0  0  0  0  0  0  0  0  0  0  0  0
   16.1184  -14.2142   17.7217 O   0  0  0  0  0  0  0  0  0  0  0  0
   13.9608  -13.5913   18.6473 C   0  0  0  0  0  0  0  0  0  0  0  0
   13.0493  -13.9899   19.7697 C   0  0  0  0  0  0  0  0  0  0  0  0
   12.1059  -15.1160   19.4501 C   0  0  2  0  0  0  0  0  0  0  0  0
   11.1797  -14.6971   18.3751 N   0  0  0  0  0  0  0  0  0  0  0  0
   11.2763  -15.5462   20.6057 C   0  0  0  0  0  0  0  0  0  0  0  0
   10.2311  -14.9275   20.9273 O   0  0  0  0  0  0  0  0  0  0  0  0
   11.6126  -16.6707   21.4067 N   0  0  0  0  0  0  0  0  0  0  0  0
   12.0481  -16.5716   22.7761 C   0  0  1  0  0  0  0  0  0  0  0  0
   13.4556  -16.1138   22.9135 C   0  0  0  0  0  0  0  0  0  0  0  0
   14.5415  -17.0482   22.6002 C   0  0  0  0  0  0  0  0  0  0  0  0
   15.9125  -16.6994   22.9116 C   0  0  0  0  0  0  0  0  0  0  0  0
   16.9450  -16.9432   22.2526 O   0  0  0  0  0  0  0  0  0  0  0  0
   11.0738  -15.9730   23.6970 C   0  0  0  0  0  0  0  0  0  0  0  0
   10.3814  -16.7717   24.5798 O   0  0  0  0  0  0  0  0  0  0  0  0
   16.1592  -15.9870   24.1138 O   0  0  0  0  0  0  0  0  0  0  0  0
   10.8661  -14.7463   23.6832 O   0  0  0  0  0  0  0  0  0  0  0  0
  2  1  1  6
  3  2  1  0
  3  4  1  0
  4  5  2  0
  4  8  1  0
  5  6  1  0
  6  7  1  0
  8  7  2  0
  9 17  1  0
  9  2  1  0
 10  9  2  0
 12 11  1  0
 13 12  2  0
 14 12  1  0
 16 15  1  1
 15 14  1  0
 16 17  1  0
 18 20  1  0
 18 16  1  0
 19 18  2  0
 21 22  1  6
 21 20  1  0
 23 22  1  0
 24 23  1  0
 24 25  2  0
 26 21  1  0
 27 26  1  0
 28 24  1  0
 29 26  2  0
M  END
$$$$
