HQE.pdb
     RDKit          3D

 29 29  0  0  1  0  0  0  0  0999 V2000
   14.7779  -13.4642   16.6451 N   0  0  0  0  0  0  0  0  0  0  0  0
   15.7318  -14.0038   17.5952 C   0  0  1  0  0  0  0  0  0  0  0  0
   16.7951  -12.9596   17.8538 C   0  0  0  0  0  0  0  0  0  0  0  0
   17.6648  -12.9001   16.6481 C   0  0  0  0  0  0  0  0  0  0  0  0
   17.6826  -13.7719   15.5827 C   0  0  0  0  0  0  0  0  0  0  0  0
   18.6231  -13.3579   14.6957 N   0  0  0  0  0  0  0  0  0  0  0  0
   19.1871  -12.2503   15.1885 C   0  0  0  0  0  0  0  0  0  0  0  0
   18.6005  -11.9778   16.3743 N   0  0  0  0  0  0  0  0  0  0  0  0
   15.0581  -14.4580   18.8124 C   0  0  0  0  0  0  0  0  0  0  0  0
   13.8769  -14.0595   19.0516 O   0  0  0  0  0  0  0  0  0  0  0  0
   11.3425  -17.8753   19.5037 N   0  0  0  0  0  0  0  0  0  0  0  0
   11.5369  -17.7985   20.9173 C   0  0  0  0  0  0  0  0  0  0  0  0
   10.6318  -18.2947   21.6330 O   0  0  0  0  0  0  0  0  0  0  0  0
   12.7664  -17.1519   21.4386 C   0  0  0  0  0  0  0  0  0  0  0  0
   13.6484  -16.5674   20.3757 C   0  0  0  0  0  0  0  0  0  0  0  0
   14.8793  -15.8713   20.8862 C   0  0  2  0  0  0  0  0  0  0  0  0
   15.6462  -15.3208   19.7470 N   0  0  0  0  0  0  0  0  0  0  0  0
   15.7955  -16.7600   21.6476 C   0  0  0  0  0  0  0  0  0  0  0  0
   16.4148  -17.6976   21.0854 O   0  0  0  0  0  0  0  0  0  0  0  0
   16.0228  -16.6033   23.0415 N   0  0  0  0  0  0  0  0  0  0  0  0
   17.2662  -16.9360   23.6882 C   0  0  1  0  0  0  0  0  0  0  0  0
   18.1168  -15.7503   23.9715 C   0  0  0  0  0  0  0  0  0  0  0  0
   19.0091  -15.2477   22.9220 C   0  0  0  0  0  0  0  0  0  0  0  0
   19.9017  -14.1401   23.1963 C   0  0  0  0  0  0  0  0  0  0  0  0
   20.0762  -13.5313   24.2727 O   0  0  0  0  0  0  0  0  0  0  0  0
   17.1630  -17.9363   24.7579 C   0  0  0  0  0  0  0  0  0  0  0  0
   18.3051  -18.4614   25.3206 O   0  0  0  0  0  0  0  0  0  0  0  0
   20.7005  -13.6520   22.1300 O   0  0  0  0  0  0  0  0  0  0  0  0
   16.0481  -18.3166   25.1584 O   0  0  0  0  0  0  0  0  0  0  0  0
  2  1  1  6
  3  2  1  0
  3  4  1  0
  4  5  2  0
  4  8  1  0
  5  6  1  0
  6  7  1  0
  8  7  2  0
  9 17  1  0
  9  2  1  0
 10  9  2  0
 12 11  1  0
 13 12  2  0
 14 12  1  0
 16 15  1  6
 15 14  1  0
 16 17  1  0
 18 20  1  0
 18 16  1  0
 19 18  2  0
 21 22  1  1
 21 20  1  0
 23 22  1  0
 24 23  1  0
 24 25  2  0
 26 21  1  0
 27 26  1  0
 28 24  1  0
 29 26  2  0
M  END
$$$$
