HQE.pdb
     RDKit          3D

 29 29  0  0  1  0  0  0  0  0999 V2000
    9.5620  -17.1931   16.5217 N   0  0  0  0  0  0  0  0  0  0  0  0
   10.8170  -16.6649   17.0218 C   0  0  1  0  0  0  0  0  0  0  0  0
   11.5437  -15.9910   15.8791 C   0  0  0  0  0  0  0  0  0  0  0  0
   11.8331  -17.0334   14.8576 C   0  0  0  0  0  0  0  0  0  0  0  0
   13.0602  -17.3835   14.3407 C   0  0  0  0  0  0  0  0  0  0  0  0
   12.8841  -18.3789   13.4347 N   0  0  0  0  0  0  0  0  0  0  0  0
   11.5764  -18.6521   13.3799 C   0  0  0  0  0  0  0  0  0  0  0  0
   10.9439  -17.8314   14.2465 N   0  0  0  0  0  0  0  0  0  0  0  0
   10.5936  -15.7816   18.1670 C   0  0  0  0  0  0  0  0  0  0  0  0
   11.5207  -14.9954   18.5326 O   0  0  0  0  0  0  0  0  0  0  0  0
    9.6381  -12.7930   19.4431 N   0  0  0  0  0  0  0  0  0  0  0  0
    8.2658  -12.6180   19.0852 C   0  0  0  0  0  0  0  0  0  0  0  0
    8.0003  -11.6284   18.3586 O   0  0  0  0  0  0  0  0  0  0  0  0
    7.2642  -13.5927   19.5832 C   0  0  0  0  0  0  0  0  0  0  0  0
    7.8416  -14.6805   20.4392 C   0  0  0  0  0  0  0  0  0  0  0  0
    9.2857  -14.9998   20.1691 C   0  0  2  0  0  0  0  0  0  0  0  0
    9.3987  -15.7491   18.8984 N   0  0  0  0  0  0  0  0  0  0  0  0
    9.9227  -15.8261   21.2277 C   0  0  0  0  0  0  0  0  0  0  0  0
    9.4634  -16.9520   21.5440 O   0  0  0  0  0  0  0  0  0  0  0  0
   11.0764  -15.3960   21.9369 N   0  0  0  0  0  0  0  0  0  0  0  0
   11.7556  -16.2034   22.9175 C   0  0  1  0  0  0  0  0  0  0  0  0
   13.2160  -15.9357   22.9897 C   0  0  0  0  0  0  0  0  0  0  0  0
   14.0225  -16.6522   23.9829 C   0  0  0  0  0  0  0  0  0  0  0  0
   15.4452  -16.3985   24.0832 C   0  0  0  0  0  0  0  0  0  0  0  0
   16.1266  -15.5448   23.4777 O   0  0  0  0  0  0  0  0  0  0  0  0
   11.0539  -16.3472   24.1991 C   0  0  0  0  0  0  0  0  0  0  0  0
   11.2857  -17.4507   24.9898 O   0  0  0  0  0  0  0  0  0  0  0  0
   16.2014  -17.2028   24.9747 O   0  0  0  0  0  0  0  0  0  0  0  0
   10.2466  -15.4785   24.5754 O   0  0  0  0  0  0  0  0  0  0  0  0
  2  1  1  6
  3  2  1  0
  3  4  1  0
  4  5  2  0
  4  8  1  0
  5  6  1  0
  6  7  1  0
  8  7  2  0
  9 17  1  0
  9  2  1  0
 10  9  2  0
 12 11  1  0
 13 12  2  0
 14 12  1  0
 16 15  1  1
 15 14  1  0
 16 17  1  0
 18 20  1  0
 18 16  1  0
 19 18  2  0
 21 22  1  1
 21 20  1  0
 23 22  1  0
 24 23  1  0
 24 25  2  0
 26 21  1  0
 27 26  1  0
 28 24  1  0
 29 26  2  0
M  END
$$$$
