HQE.pdb
     RDKit          3D

 29 29  0  0  1  0  0  0  0  0999 V2000
   12.1522  -16.9079   14.4825 N   0  0  0  0  0  0  0  0  0  0  0  0
   13.4916  -17.2250   14.9402 C   0  0  1  0  0  0  0  0  0  0  0  0
   14.4478  -16.1982   14.3754 C   0  0  0  0  0  0  0  0  0  0  0  0
   14.5492  -16.4408   12.9109 C   0  0  0  0  0  0  0  0  0  0  0  0
   15.4597  -17.2374   12.2537 C   0  0  0  0  0  0  0  0  0  0  0  0
   15.2056  -17.1826   10.9213 N   0  0  0  0  0  0  0  0  0  0  0  0
   14.1590  -16.3705   10.7401 C   0  0  0  0  0  0  0  0  0  0  0  0
   13.7653  -15.9235   11.9524 N   0  0  0  0  0  0  0  0  0  0  0  0
   13.5374  -17.3175   16.4001 C   0  0  0  0  0  0  0  0  0  0  0  0
   12.9343  -16.4430   17.0951 O   0  0  0  0  0  0  0  0  0  0  0  0
   11.7002  -21.7504   19.7533 N   0  0  0  0  0  0  0  0  0  0  0  0
   12.4511  -21.0980   20.7791 C   0  0  0  0  0  0  0  0  0  0  0  0
   12.3186  -21.5522   21.9426 O   0  0  0  0  0  0  0  0  0  0  0  0
   13.3190  -19.9513   20.4141 C   0  0  0  0  0  0  0  0  0  0  0  0
   13.3281  -19.6324   18.9486 C   0  0  0  0  0  0  0  0  0  0  0  0
   14.1580  -18.4389   18.5652 C   0  0  2  0  0  0  0  0  0  0  0  0
   14.2176  -18.3293   17.0909 N   0  0  0  0  0  0  0  0  0  0  0  0
   15.5577  -18.5006   19.0609 C   0  0  0  0  0  0  0  0  0  0  0  0
   16.4060  -19.2624   18.5328 O   0  0  0  0  0  0  0  0  0  0  0  0
   16.0145  -17.7102   20.1498 N   0  0  0  0  0  0  0  0  0  0  0  0
   17.3577  -17.7669   20.6670 C   0  0  1  0  0  0  0  0  0  0  0  0
   17.9046  -16.4330   21.0294 C   0  0  0  0  0  0  0  0  0  0  0  0
   19.2545  -16.0726   20.5842 C   0  0  0  0  0  0  0  0  0  0  0  0
   19.8557  -14.8290   21.0209 C   0  0  0  0  0  0  0  0  0  0  0  0
   21.0678  -14.5459   21.1228 O   0  0  0  0  0  0  0  0  0  0  0  0
   17.6135  -18.8574   21.6160 C   0  0  0  0  0  0  0  0  0  0  0  0
   16.5583  -19.5152   22.2082 O   0  0  0  0  0  0  0  0  0  0  0  0
   18.9898  -13.7675   21.3906 O   0  0  0  0  0  0  0  0  0  0  0  0
   18.7801  -19.1903   21.8926 O   0  0  0  0  0  0  0  0  0  0  0  0
  2  1  1  1
  3  2  1  0
  3  4  1  0
  4  5  2  0
  4  8  1  0
  5  6  1  0
  6  7  1  0
  8  7  2  0
  9 17  1  0
  9  2  1  0
 10  9  2  0
 12 11  1  0
 13 12  2  0
 14 12  1  0
 16 15  1  6
 15 14  1  0
 16 17  1  0
 18 20  1  0
 18 16  1  0
 19 18  2  0
 21 22  1  1
 21 20  1  0
 23 22  1  0
 24 23  1  0
 24 25  2  0
 26 21  1  0
 27 26  1  0
 28 24  1  0
 29 26  2  0
M  END
$$$$
