HQE.pdb
     RDKit          3D

 29 29  0  0  1  0  0  0  0  0999 V2000
   10.2079  -16.2345   16.4880 N   0  0  0  0  0  0  0  0  0  0  0  0
   10.4283  -15.4448   17.6845 C   0  0  1  0  0  0  0  0  0  0  0  0
    9.2436  -15.6293   18.6066 C   0  0  0  0  0  0  0  0  0  0  0  0
    8.4707  -14.3580   18.6002 C   0  0  0  0  0  0  0  0  0  0  0  0
    8.7398  -13.2163   17.8794 C   0  0  0  0  0  0  0  0  0  0  0  0
    7.7900  -12.2883   18.1612 N   0  0  0  0  0  0  0  0  0  0  0  0
    6.9401  -12.8303   19.0396 C   0  0  0  0  0  0  0  0  0  0  0  0
    7.3593  -14.0872   19.3020 N   0  0  0  0  0  0  0  0  0  0  0  0
   11.7069  -15.7868   18.3090 C   0  0  0  0  0  0  0  0  0  0  0  0
   12.2338  -16.9151   18.0631 O   0  0  0  0  0  0  0  0  0  0  0  0
   17.0350  -15.1164   18.5927 N   0  0  0  0  0  0  0  0  0  0  0  0
   16.2870  -14.3172   17.6742 C   0  0  0  0  0  0  0  0  0  0  0  0
   16.7642  -14.2010   16.5182 O   0  0  0  0  0  0  0  0  0  0  0  0
   15.0237  -13.6889   18.1333 C   0  0  0  0  0  0  0  0  0  0  0  0
   14.6391  -14.0435   19.5389 C   0  0  0  0  0  0  0  0  0  0  0  0
   13.7561  -15.2535   19.6679 C   0  0  2  0  0  0  0  0  0  0  0  0
   12.3981  -14.9310   19.1772 N   0  0  0  0  0  0  0  0  0  0  0  0
   13.6166  -15.7449   21.0636 C   0  0  0  0  0  0  0  0  0  0  0  0
   12.8759  -15.1595   21.8926 O   0  0  0  0  0  0  0  0  0  0  0  0
   14.3056  -16.8936   21.5378 N   0  0  0  0  0  0  0  0  0  0  0  0
   14.3730  -17.2646   22.9281 C   0  0  1  0  0  0  0  0  0  0  0  0
   14.5930  -18.7196   23.1380 C   0  0  0  0  0  0  0  0  0  0  0  0
   13.6482  -19.6743   22.5494 C   0  0  0  0  0  0  0  0  0  0  0  0
   13.8922  -21.0981   22.6574 C   0  0  0  0  0  0  0  0  0  0  0  0
   13.9172  -21.8062   23.6859 O   0  0  0  0  0  0  0  0  0  0  0  0
   15.1544  -16.3567   23.7770 C   0  0  0  0  0  0  0  0  0  0  0  0
   15.1417  -16.5134   25.1452 O   0  0  0  0  0  0  0  0  0  0  0  0
   14.1397  -21.8213   21.4619 O   0  0  0  0  0  0  0  0  0  0  0  0
   15.8272  -15.4422   23.2681 O   0  0  0  0  0  0  0  0  0  0  0  0
  2  1  1  6
  3  2  1  0
  3  4  1  0
  4  5  2  0
  4  8  1  0
  5  6  1  0
  6  7  1  0
  8  7  2  0
  9 17  1  0
  9  2  1  0
 10  9  2  0
 12 11  1  0
 13 12  2  0
 14 12  1  0
 16 15  1  1
 15 14  1  0
 16 17  1  0
 18 20  1  0
 18 16  1  0
 19 18  2  0
 21 22  1  6
 21 20  1  0
 23 22  1  0
 24 23  1  0
 24 25  2  0
 26 21  1  0
 27 26  1  0
 28 24  1  0
 29 26  2  0
M  END
$$$$
