HQE.pdb
     RDKit          3D

 29 29  0  0  1  0  0  0  0  0999 V2000
    7.8811  -13.7568   21.4096 N   0  0  0  0  0  0  0  0  0  0  0  0
    7.8835  -15.1661   21.0665 C   0  0  1  0  0  0  0  0  0  0  0  0
    8.9586  -15.4062   20.0300 C   0  0  0  0  0  0  0  0  0  0  0  0
    8.6206  -14.5830   18.8376 C   0  0  0  0  0  0  0  0  0  0  0  0
    7.7623  -13.5083   18.7760 C   0  0  0  0  0  0  0  0  0  0  0  0
    7.7378  -13.0419   17.5014 N   0  0  0  0  0  0  0  0  0  0  0  0
    8.5612  -13.8036   16.7738 C   0  0  0  0  0  0  0  0  0  0  0  0
    9.0940  -14.7376   17.5914 N   0  0  0  0  0  0  0  0  0  0  0  0
    8.0369  -15.9954   22.2626 C   0  0  0  0  0  0  0  0  0  0  0  0
    8.6141  -15.5092   23.2832 O   0  0  0  0  0  0  0  0  0  0  0  0
    6.2714  -22.4974   25.3253 N   0  0  0  0  0  0  0  0  0  0  0  0
    5.8591  -21.2138   24.8518 C   0  0  0  0  0  0  0  0  0  0  0  0
    4.6675  -21.1173   24.4665 O   0  0  0  0  0  0  0  0  0  0  0  0
    6.8416  -20.1020   24.8443 C   0  0  0  0  0  0  0  0  0  0  0  0
    6.7371  -19.2008   23.6500 C   0  0  0  0  0  0  0  0  0  0  0  0
    7.7905  -18.1312   23.5695 C   0  0  2  0  0  0  0  0  0  0  0  0
    7.5781  -17.3164   22.3529 N   0  0  0  0  0  0  0  0  0  0  0  0
    9.1773  -18.6623   23.5092 C   0  0  0  0  0  0  0  0  0  0  0  0
    9.7847  -18.7836   22.4160 O   0  0  0  0  0  0  0  0  0  0  0  0
    9.8907  -19.0599   24.6720 N   0  0  0  0  0  0  0  0  0  0  0  0
   11.3008  -18.8324   24.8582 C   0  0  1  0  0  0  0  0  0  0  0  0
   11.7751  -17.5590   24.2557 C   0  0  0  0  0  0  0  0  0  0  0  0
   12.7847  -17.6073   23.1932 C   0  0  0  0  0  0  0  0  0  0  0  0
   13.4899  -16.4026   22.8059 C   0  0  0  0  0  0  0  0  0  0  0  0
   13.3890  -15.2547   23.2874 O   0  0  0  0  0  0  0  0  0  0  0  0
   11.8109  -19.1511   26.1975 C   0  0  0  0  0  0  0  0  0  0  0  0
   13.1027  -19.6033   26.3515 O   0  0  0  0  0  0  0  0  0  0  0  0
   14.4271  -16.4946   21.7446 O   0  0  0  0  0  0  0  0  0  0  0  0
   11.0816  -19.0185   27.1967 O   0  0  0  0  0  0  0  0  0  0  0  0
  2  1  1  1
  3  2  1  0
  3  4  1  0
  4  5  2  0
  4  8  1  0
  5  6  1  0
  6  7  1  0
  8  7  2  0
  9 17  1  0
  9  2  1  0
 10  9  2  0
 12 11  1  0
 13 12  2  0
 14 12  1  0
 16 15  1  6
 15 14  1  0
 16 17  1  0
 18 20  1  0
 18 16  1  0
 19 18  2  0
 21 22  1  1
 21 20  1  0
 23 22  1  0
 24 23  1  0
 24 25  2  0
 26 21  1  0
 27 26  1  0
 28 24  1  0
 29 26  2  0
M  END
$$$$
