HQE.pdb
     RDKit          3D

 29 29  0  0  1  0  0  0  0  0999 V2000
   11.6066  -17.1790   14.8929 N   0  0  0  0  0  0  0  0  0  0  0  0
   10.6790  -17.2230   16.0071 C   0  0  1  0  0  0  0  0  0  0  0  0
   10.6201  -18.6422   16.5271 C   0  0  0  0  0  0  0  0  0  0  0  0
    9.6786  -19.3976   15.6572 C   0  0  0  0  0  0  0  0  0  0  0  0
    9.9880  -20.1833   14.5699 C   0  0  0  0  0  0  0  0  0  0  0  0
    8.8383  -20.6916   14.0575 N   0  0  0  0  0  0  0  0  0  0  0  0
    7.8255  -20.2380   14.8032 C   0  0  0  0  0  0  0  0  0  0  0  0
    8.3428  -19.4527   15.7729 N   0  0  0  0  0  0  0  0  0  0  0  0
   11.0461  -16.2455   17.0325 C   0  0  0  0  0  0  0  0  0  0  0  0
   12.2662  -15.9246   17.1734 O   0  0  0  0  0  0  0  0  0  0  0  0
    7.0496  -12.2944   19.9077 N   0  0  0  0  0  0  0  0  0  0  0  0
    7.3837  -12.3708   18.5205 C   0  0  0  0  0  0  0  0  0  0  0  0
    6.5937  -11.8057   17.7242 O   0  0  0  0  0  0  0  0  0  0  0  0
    8.6133  -13.0967   18.1173 C   0  0  0  0  0  0  0  0  0  0  0  0
    9.3225  -13.7762   19.2507 C   0  0  0  0  0  0  0  0  0  0  0  0
   10.5238  -14.5871   18.8510 C   0  0  2  0  0  0  0  0  0  0  0  0
   10.1182  -15.6305   17.8837 N   0  0  0  0  0  0  0  0  0  0  0  0
   11.1865  -15.2740   19.9902 C   0  0  0  0  0  0  0  0  0  0  0  0
   10.7228  -16.3376   20.4725 O   0  0  0  0  0  0  0  0  0  0  0  0
   12.3711  -14.7738   20.5950 N   0  0  0  0  0  0  0  0  0  0  0  0
   13.2410  -15.5705   21.4216 C   0  0  1  0  0  0  0  0  0  0  0  0
   13.4850  -16.9318   20.8767 C   0  0  0  0  0  0  0  0  0  0  0  0
   14.3169  -17.8660   21.6421 C   0  0  0  0  0  0  0  0  0  0  0  0
   14.5299  -19.2142   21.1569 C   0  0  0  0  0  0  0  0  0  0  0  0
   15.0681  -19.5802   20.0910 O   0  0  0  0  0  0  0  0  0  0  0  0
   14.4101  -14.8625   21.9578 C   0  0  0  0  0  0  0  0  0  0  0  0
   15.0102  -15.3048   23.1158 O   0  0  0  0  0  0  0  0  0  0  0  0
   14.0836  -20.2895   21.9680 O   0  0  0  0  0  0  0  0  0  0  0  0
   14.8617  -13.8610   21.3738 O   0  0  0  0  0  0  0  0  0  0  0  0
  2  1  1  6
  3  2  1  0
  3  4  1  0
  4  5  2  0
  4  8  1  0
  5  6  1  0
  6  7  1  0
  8  7  2  0
  9 17  1  0
  9  2  1  0
 10  9  2  0
 12 11  1  0
 13 12  2  0
 14 12  1  0
 16 15  1  1
 15 14  1  0
 16 17  1  0
 18 20  1  0
 18 16  1  0
 19 18  2  0
 21 22  1  6
 21 20  1  0
 23 22  1  0
 24 23  1  0
 24 25  2  0
 26 21  1  0
 27 26  1  0
 28 24  1  0
 29 26  2  0
M  END
$$$$
