HQE.pdb
     RDKit          3D

 29 29  0  0  1  0  0  0  0  0999 V2000
   14.8136  -13.3635   17.1745 N   0  0  0  0  0  0  0  0  0  0  0  0
   14.0690  -14.5445   17.5678 C   0  0  1  0  0  0  0  0  0  0  0  0
   14.7498  -15.7597   16.9784 C   0  0  0  0  0  0  0  0  0  0  0  0
   14.3750  -15.8276   15.5401 C   0  0  0  0  0  0  0  0  0  0  0  0
   15.0711  -15.3185   14.4669 C   0  0  0  0  0  0  0  0  0  0  0  0
   14.3839  -15.5963   13.3296 N   0  0  0  0  0  0  0  0  0  0  0  0
   13.2792  -16.2655   13.6753 C   0  0  0  0  0  0  0  0  0  0  0  0
   13.2800  -16.4026   15.0191 N   0  0  0  0  0  0  0  0  0  0  0  0
   13.9234  -14.6109   19.0225 C   0  0  0  0  0  0  0  0  0  0  0  0
   14.8834  -14.2269   19.7589 O   0  0  0  0  0  0  0  0  0  0  0  0
    8.5960  -15.8598   22.3222 N   0  0  0  0  0  0  0  0  0  0  0  0
    9.5451  -15.6215   23.3634 C   0  0  0  0  0  0  0  0  0  0  0  0
    9.0924  -15.5885   24.5346 O   0  0  0  0  0  0  0  0  0  0  0  0
   10.9721  -15.4316   23.0042 C   0  0  0  0  0  0  0  0  0  0  0  0
   11.2353  -15.4189   21.5278 C   0  0  0  0  0  0  0  0  0  0  0  0
   12.6488  -15.0853   21.1392 C   0  0  2  0  0  0  0  0  0  0  0  0
   12.7697  -15.0803   19.6646 N   0  0  0  0  0  0  0  0  0  0  0  0
   13.6546  -16.0465   21.6620 C   0  0  0  0  0  0  0  0  0  0  0  0
   13.8323  -17.1666   21.1211 O   0  0  0  0  0  0  0  0  0  0  0  0
   14.4659  -15.7586   22.7925 N   0  0  0  0  0  0  0  0  0  0  0  0
   15.4709  -16.6566   23.3011 C   0  0  1  0  0  0  0  0  0  0  0  0
   16.6475  -16.7911   22.4028 C   0  0  0  0  0  0  0  0  0  0  0  0
   17.3486  -15.5808   21.9624 C   0  0  0  0  0  0  0  0  0  0  0  0
   18.5328  -15.6877   21.1349 C   0  0  0  0  0  0  0  0  0  0  0  0
   19.2182  -16.7018   20.8869 O   0  0  0  0  0  0  0  0  0  0  0  0
   15.7559  -16.5233   24.7351 C   0  0  0  0  0  0  0  0  0  0  0  0
   15.0991  -15.5699   25.4810 O   0  0  0  0  0  0  0  0  0  0  0  0
   19.0104  -14.5095   20.5048 O   0  0  0  0  0  0  0  0  0  0  0  0
   16.5914  -17.2654   25.2823 O   0  0  0  0  0  0  0  0  0  0  0  0
  2  1  1  1
  3  2  1  0
  3  4  1  0
  4  5  2  0
  4  8  1  0
  5  6  1  0
  6  7  1  0
  8  7  2  0
  9 17  1  0
  9  2  1  0
 10  9  2  0
 12 11  1  0
 13 12  2  0
 14 12  1  0
 16 15  1  6
 15 14  1  0
 16 17  1  0
 18 20  1  0
 18 16  1  0
 19 18  2  0
 21 22  1  6
 21 20  1  0
 23 22  1  0
 24 23  1  0
 24 25  2  0
 26 21  1  0
 27 26  1  0
 28 24  1  0
 29 26  2  0
M  END
$$$$
