HQE.pdb
     RDKit          3D

 29 29  0  0  1  0  0  0  0  0999 V2000
    9.6479  -16.2493   19.2736 N   0  0  0  0  0  0  0  0  0  0  0  0
    9.3830  -15.5334   20.5070 C   0  0  1  0  0  0  0  0  0  0  0  0
    7.9268  -15.1249   20.5218 C   0  0  0  0  0  0  0  0  0  0  0  0
    7.6934  -14.2613   19.3328 C   0  0  0  0  0  0  0  0  0  0  0  0
    8.1062  -12.9612   19.1464 C   0  0  0  0  0  0  0  0  0  0  0  0
    7.6865  -12.5409   17.9257 N   0  0  0  0  0  0  0  0  0  0  0  0
    7.0240  -13.5515   17.3535 C   0  0  0  0  0  0  0  0  0  0  0  0
    7.0319  -14.5931   18.2134 N   0  0  0  0  0  0  0  0  0  0  0  0
    9.7720  -16.3325   21.6697 C   0  0  0  0  0  0  0  0  0  0  0  0
    8.8993  -17.0510   22.2472 O   0  0  0  0  0  0  0  0  0  0  0  0
   13.9208  -20.2069   20.7345 N   0  0  0  0  0  0  0  0  0  0  0  0
   13.8319  -20.4499   22.1398 C   0  0  0  0  0  0  0  0  0  0  0  0
   14.4416  -21.4597   22.5713 O   0  0  0  0  0  0  0  0  0  0  0  0
   13.0428  -19.5166   22.9811 C   0  0  0  0  0  0  0  0  0  0  0  0
   12.4438  -18.3682   22.2249 C   0  0  0  0  0  0  0  0  0  0  0  0
   11.5500  -17.4727   23.0369 C   0  0  2  0  0  0  0  0  0  0  0  0
   11.0711  -16.3545   22.1946 N   0  0  0  0  0  0  0  0  0  0  0  0
   12.2192  -16.8775   24.2230 C   0  0  0  0  0  0  0  0  0  0  0  0
   13.1410  -16.0328   24.0991 O   0  0  0  0  0  0  0  0  0  0  0  0
   11.8599  -17.2252   25.5531 N   0  0  0  0  0  0  0  0  0  0  0  0
   12.5454  -16.7292   26.7189 C   0  0  1  0  0  0  0  0  0  0  0  0
   11.8400  -15.5997   27.3792 C   0  0  0  0  0  0  0  0  0  0  0  0
   10.5542  -15.8514   28.0379 C   0  0  0  0  0  0  0  0  0  0  0  0
    9.8348  -14.7627   28.6669 C   0  0  0  0  0  0  0  0  0  0  0  0
   10.1642  -13.5610   28.7528 O   0  0  0  0  0  0  0  0  0  0  0  0
   13.0948  -17.7633   27.6045 C   0  0  0  0  0  0  0  0  0  0  0  0
   13.9700  -17.4142   28.6089 O   0  0  0  0  0  0  0  0  0  0  0  0
    8.5882  -15.0565   29.2777 O   0  0  0  0  0  0  0  0  0  0  0  0
   12.7771  -18.9565   27.4515 O   0  0  0  0  0  0  0  0  0  0  0  0
  2  1  1  6
  3  2  1  0
  3  4  1  0
  4  5  2  0
  4  8  1  0
  5  6  1  0
  6  7  1  0
  8  7  2  0
  9 17  1  0
  9  2  1  0
 10  9  2  0
 12 11  1  0
 13 12  2  0
 14 12  1  0
 16 15  1  6
 15 14  1  0
 16 17  1  0
 18 20  1  0
 18 16  1  0
 19 18  2  0
 21 22  1  1
 21 20  1  0
 23 22  1  0
 24 23  1  0
 24 25  2  0
 26 21  1  0
 27 26  1  0
 28 24  1  0
 29 26  2  0
M  END
$$$$
