HQE.pdb
     RDKit          3D

 29 29  0  0  1  0  0  0  0  0999 V2000
    7.7651  -17.2569   19.4374 N   0  0  0  0  0  0  0  0  0  0  0  0
    8.9359  -16.4462   19.7126 C   0  0  1  0  0  0  0  0  0  0  0  0
    8.5172  -15.2745   20.5727 C   0  0  0  0  0  0  0  0  0  0  0  0
    7.7573  -14.3337   19.7061 C   0  0  0  0  0  0  0  0  0  0  0  0
    7.4845  -14.4646   18.3630 C   0  0  0  0  0  0  0  0  0  0  0  0
    6.7658  -13.3871   17.9566 N   0  0  0  0  0  0  0  0  0  0  0  0
    6.5882  -12.5932   19.0177 C   0  0  0  0  0  0  0  0  0  0  0  0
    7.1928  -13.1740   20.0768 N   0  0  0  0  0  0  0  0  0  0  0  0
   10.0014  -17.2518   20.3106 C   0  0  0  0  0  0  0  0  0  0  0  0
    9.7233  -18.0280   21.2757 O   0  0  0  0  0  0  0  0  0  0  0  0
   14.8461  -19.8214   17.4383 N   0  0  0  0  0  0  0  0  0  0  0  0
   15.2154  -20.0683   18.7964 C   0  0  0  0  0  0  0  0  0  0  0  0
   16.2583  -20.7445   18.9772 O   0  0  0  0  0  0  0  0  0  0  0  0
   14.3632  -19.5241   19.8822 C   0  0  0  0  0  0  0  0  0  0  0  0
   13.1952  -18.7176   19.3979 C   0  0  0  0  0  0  0  0  0  0  0  0
   12.3697  -18.0836   20.4827 C   0  0  2  0  0  0  0  0  0  0  0  0
   11.3333  -17.2192   19.8762 N   0  0  0  0  0  0  0  0  0  0  0  0
   13.1586  -17.2389   21.4170 C   0  0  0  0  0  0  0  0  0  0  0  0
   13.5719  -16.1012   21.0804 O   0  0  0  0  0  0  0  0  0  0  0  0
   13.4886  -17.6638   22.7323 N   0  0  0  0  0  0  0  0  0  0  0  0
   14.3066  -16.8959   23.6357 C   0  0  1  0  0  0  0  0  0  0  0  0
   13.9241  -17.0645   25.0622 C   0  0  0  0  0  0  0  0  0  0  0  0
   12.5110  -17.2606   25.4016 C   0  0  0  0  0  0  0  0  0  0  0  0
   12.1293  -17.5929   26.7589 C   0  0  0  0  0  0  0  0  0  0  0  0
   11.5556  -16.8730   27.6029 O   0  0  0  0  0  0  0  0  0  0  0  0
   15.7443  -16.9112   23.3388 C   0  0  0  0  0  0  0  0  0  0  0  0
   16.5893  -16.0375   23.9863 O   0  0  0  0  0  0  0  0  0  0  0  0
   12.4279  -18.8971   27.2316 O   0  0  0  0  0  0  0  0  0  0  0  0
   16.2056  -17.7076   22.5015 O   0  0  0  0  0  0  0  0  0  0  0  0
  2  1  1  1
  3  2  1  0
  3  4  1  0
  4  5  2  0
  4  8  1  0
  5  6  1  0
  6  7  1  0
  8  7  2  0
  9 17  1  0
  9  2  1  0
 10  9  2  0
 12 11  1  0
 13 12  2  0
 14 12  1  0
 16 15  1  6
 15 14  1  0
 16 17  1  0
 18 20  1  0
 18 16  1  0
 19 18  2  0
 21 22  1  1
 21 20  1  0
 23 22  1  0
 24 23  1  0
 24 25  2  0
 26 21  1  0
 27 26  1  0
 28 24  1  0
 29 26  2  0
M  END
$$$$
