HQE.pdb
     RDKit          3D

 29 29  0  0  1  0  0  0  0  0999 V2000
    9.7744  -15.9341   17.4827 N   0  0  0  0  0  0  0  0  0  0  0  0
   10.5265  -15.0239   18.3252 C   0  0  1  0  0  0  0  0  0  0  0  0
    9.6328  -14.5677   19.4570 C   0  0  0  0  0  0  0  0  0  0  0  0
    8.4989  -13.8157   18.8549 C   0  0  0  0  0  0  0  0  0  0  0  0
    8.2880  -13.5408   17.5225 C   0  0  0  0  0  0  0  0  0  0  0  0
    7.1370  -12.8315   17.4002 N   0  0  0  0  0  0  0  0  0  0  0  0
    6.6318  -12.6618   18.6264 C   0  0  0  0  0  0  0  0  0  0  0  0
    7.4638  -13.2619   19.5052 N   0  0  0  0  0  0  0  0  0  0  0  0
   11.7710  -15.6428   18.7835 C   0  0  0  0  0  0  0  0  0  0  0  0
   11.8877  -16.9060   18.7379 O   0  0  0  0  0  0  0  0  0  0  0  0
   17.8873  -14.2209   17.7954 N   0  0  0  0  0  0  0  0  0  0  0  0
   16.6519  -13.5185   17.6465 C   0  0  0  0  0  0  0  0  0  0  0  0
   16.5918  -12.6879   16.7062 O   0  0  0  0  0  0  0  0  0  0  0  0
   15.5441  -13.8069   18.5904 C   0  0  0  0  0  0  0  0  0  0  0  0
   15.2059  -15.2631   18.7108 C   0  0  0  0  0  0  0  0  0  0  0  0
   14.1151  -15.5807   19.6955 C   0  0  2  0  0  0  0  0  0  0  0  0
   12.8613  -14.9149   19.2785 N   0  0  0  0  0  0  0  0  0  0  0  0
   14.4130  -15.1341   21.0814 C   0  0  0  0  0  0  0  0  0  0  0  0
   13.7210  -14.2512   21.6474 O   0  0  0  0  0  0  0  0  0  0  0  0
   15.4867  -15.6734   21.8400 N   0  0  0  0  0  0  0  0  0  0  0  0
   15.3634  -16.0824   23.2157 C   0  0  1  0  0  0  0  0  0  0  0  0
   14.1116  -16.8335   23.4955 C   0  0  0  0  0  0  0  0  0  0  0  0
   12.9594  -16.1151   24.0494 C   0  0  0  0  0  0  0  0  0  0  0  0
   11.7451  -16.8332   24.3781 C   0  0  0  0  0  0  0  0  0  0  0  0
   11.4805  -18.0392   24.1895 O   0  0  0  0  0  0  0  0  0  0  0  0
   16.5921  -16.6126   23.8195 C   0  0  0  0  0  0  0  0  0  0  0  0
   17.7086  -16.8174   23.0396 O   0  0  0  0  0  0  0  0  0  0  0  0
   10.6930  -16.1094   24.9967 O   0  0  0  0  0  0  0  0  0  0  0  0
   16.6310  -16.8822   25.0336 O   0  0  0  0  0  0  0  0  0  0  0  0
  2  1  1  1
  3  2  1  0
  3  4  1  0
  4  5  2  0
  4  8  1  0
  5  6  1  0
  6  7  1  0
  8  7  2  0
  9 17  1  0
  9  2  1  0
 10  9  2  0
 12 11  1  0
 13 12  2  0
 14 12  1  0
 16 15  1  6
 15 14  1  0
 16 17  1  0
 18 20  1  0
 18 16  1  0
 19 18  2  0
 21 22  1  6
 21 20  1  0
 23 22  1  0
 24 23  1  0
 24 25  2  0
 26 21  1  0
 27 26  1  0
 28 24  1  0
 29 26  2  0
M  END
$$$$
