HQE.pdb
     RDKit          3D

 29 29  0  0  1  0  0  0  0  0999 V2000
   12.3292  -17.5059   14.3933 N   0  0  0  0  0  0  0  0  0  0  0  0
   13.4614  -18.1674   15.0134 C   0  0  1  0  0  0  0  0  0  0  0  0
   14.7002  -17.3373   14.7602 C   0  0  0  0  0  0  0  0  0  0  0  0
   15.1859  -17.6660   13.3928 C   0  0  0  0  0  0  0  0  0  0  0  0
   14.6416  -18.5641   12.5026 C   0  0  0  0  0  0  0  0  0  0  0  0
   15.3888  -18.5626   11.3692 N   0  0  0  0  0  0  0  0  0  0  0  0
   16.3824  -17.6840   11.5386 C   0  0  0  0  0  0  0  0  0  0  0  0
   16.2533  -17.1432   12.7695 N   0  0  0  0  0  0  0  0  0  0  0  0
   13.2098  -18.4137   16.4339 C   0  0  0  0  0  0  0  0  0  0  0  0
   12.1516  -17.9547   16.9638 O   0  0  0  0  0  0  0  0  0  0  0  0
   10.1269  -21.8995   18.7230 N   0  0  0  0  0  0  0  0  0  0  0  0
    9.9686  -20.4805   18.7780 C   0  0  0  0  0  0  0  0  0  0  0  0
    8.7885  -20.0506   18.7914 O   0  0  0  0  0  0  0  0  0  0  0  0
   11.1797  -19.6241   18.8140 C   0  0  0  0  0  0  0  0  0  0  0  0
   12.4637  -20.3705   18.6050 C   0  0  0  0  0  0  0  0  0  0  0  0
   13.7032  -19.5203   18.6389 C   0  0  2  0  0  0  0  0  0  0  0  0
   14.0798  -19.1375   17.2603 N   0  0  0  0  0  0  0  0  0  0  0  0
   14.8774  -20.2005   19.2452 C   0  0  0  0  0  0  0  0  0  0  0  0
   15.4802  -21.1251   18.6448 O   0  0  0  0  0  0  0  0  0  0  0  0
   15.3822  -19.8489   20.5261 N   0  0  0  0  0  0  0  0  0  0  0  0
   16.6792  -19.2586   20.7366 C   0  0  1  0  0  0  0  0  0  0  0  0
   17.0339  -18.2397   19.7141 C   0  0  0  0  0  0  0  0  0  0  0  0
   18.1412  -18.5124   18.7921 C   0  0  0  0  0  0  0  0  0  0  0  0
   18.4991  -17.5407   17.7791 C   0  0  0  0  0  0  0  0  0  0  0  0
   19.3223  -16.6048   17.8567 O   0  0  0  0  0  0  0  0  0  0  0  0
   16.9899  -18.9203   22.1310 C   0  0  0  0  0  0  0  0  0  0  0  0
   16.2099  -18.0088   22.8075 O   0  0  0  0  0  0  0  0  0  0  0  0
   17.8531  -17.6278   16.5187 O   0  0  0  0  0  0  0  0  0  0  0  0
   17.9574  -19.4500   22.7065 O   0  0  0  0  0  0  0  0  0  0  0  0
  2  1  1  1
  3  2  1  0
  3  4  1  0
  4  5  2  0
  4  8  1  0
  5  6  1  0
  6  7  1  0
  8  7  2  0
  9 17  1  0
  9  2  1  0
 10  9  2  0
 12 11  1  0
 13 12  2  0
 14 12  1  0
 16 15  1  6
 15 14  1  0
 16 17  1  0
 18 20  1  0
 18 16  1  0
 19 18  2  0
 21 22  1  6
 21 20  1  0
 23 22  1  0
 24 23  1  0
 24 25  2  0
 26 21  1  0
 27 26  1  0
 28 24  1  0
 29 26  2  0
M  END
$$$$
