HQE.pdb
     RDKit          3D

 29 29  0  0  1  0  0  0  0  0999 V2000
    7.6691  -15.4726   20.4526 N   0  0  0  0  0  0  0  0  0  0  0  0
    8.9995  -14.9362   20.6679 C   0  0  1  0  0  0  0  0  0  0  0  0
    9.0918  -13.5915   19.9815 C   0  0  0  0  0  0  0  0  0  0  0  0
    8.7108  -13.7904   18.5570 C   0  0  0  0  0  0  0  0  0  0  0  0
    7.5989  -13.3003   17.9098 C   0  0  0  0  0  0  0  0  0  0  0  0
    7.6290  -13.7133   16.6171 N   0  0  0  0  0  0  0  0  0  0  0  0
    8.7340  -14.4475   16.4505 C   0  0  0  0  0  0  0  0  0  0  0  0
    9.3863  -14.4903   17.6325 N   0  0  0  0  0  0  0  0  0  0  0  0
    9.3165  -14.8805   22.0955 C   0  0  0  0  0  0  0  0  0  0  0  0
   10.4706  -14.4966   22.4589 O   0  0  0  0  0  0  0  0  0  0  0  0
    5.4287  -13.4108   26.6548 N   0  0  0  0  0  0  0  0  0  0  0  0
    6.2845  -12.5052   25.9554 C   0  0  0  0  0  0  0  0  0  0  0  0
    5.9929  -11.2862   26.0365 O   0  0  0  0  0  0  0  0  0  0  0  0
    7.4364  -13.0490   25.1945 C   0  0  0  0  0  0  0  0  0  0  0  0
    7.5860  -14.5381   25.2914 C   0  0  0  0  0  0  0  0  0  0  0  0
    8.7555  -15.1077   24.5376 C   0  0  2  0  0  0  0  0  0  0  0  0
    8.4092  -15.2307   23.1044 N   0  0  0  0  0  0  0  0  0  0  0  0
    9.1713  -16.4544   25.0091 C   0  0  0  0  0  0  0  0  0  0  0  0
    8.4549  -17.4673   24.8106 O   0  0  0  0  0  0  0  0  0  0  0  0
   10.3906  -16.6735   25.7050 N   0  0  0  0  0  0  0  0  0  0  0  0
   10.8106  -17.9635   26.1894 C   0  0  1  0  0  0  0  0  0  0  0  0
   12.2530  -18.2374   25.9568 C   0  0  0  0  0  0  0  0  0  0  0  0
   12.8165  -19.5141   26.4073 C   0  0  0  0  0  0  0  0  0  0  0  0
   14.2271  -19.7897   26.2266 C   0  0  0  0  0  0  0  0  0  0  0  0
   14.8712  -20.8023   26.5721 O   0  0  0  0  0  0  0  0  0  0  0  0
   10.2789  -18.3370   27.5059 C   0  0  0  0  0  0  0  0  0  0  0  0
    9.9040  -17.3579   28.3990 O   0  0  0  0  0  0  0  0  0  0  0  0
   15.0172  -18.8066   25.5765 O   0  0  0  0  0  0  0  0  0  0  0  0
   10.1675  -19.5350   27.8228 O   0  0  0  0  0  0  0  0  0  0  0  0
  2  1  1  1
  3  2  1  0
  3  4  1  0
  4  5  2  0
  4  8  1  0
  5  6  1  0
  6  7  1  0
  8  7  2  0
  9 17  1  0
  9  2  1  0
 10  9  2  0
 12 11  1  0
 13 12  2  0
 14 12  1  0
 16 15  1  1
 15 14  1  0
 16 17  1  0
 18 20  1  0
 18 16  1  0
 19 18  2  0
 21 22  1  1
 21 20  1  0
 23 22  1  0
 24 23  1  0
 24 25  2  0
 26 21  1  0
 27 26  1  0
 28 24  1  0
 29 26  2  0
M  END
$$$$
