ELT.pdb
     RDKit          3D

 25 24  0  0  1  0  0  0  0  0999 V2000
  110.9960   52.8831  -24.2814 N   0  0  0  0  0  0  0  0  0  0  0  0
  110.7570   53.9006  -25.2900 C   0  0  1  0  0  0  0  0  0  0  0  0
  110.5997   53.1406  -26.6158 C   0  0  0  0  0  0  0  0  0  0  0  0
  109.4010   53.7455  -27.3561 C   0  0  0  0  0  0  0  0  0  0  0  0
  108.8757   52.8033  -28.3644 C   0  0  0  0  0  0  0  0  0  0  0  0
  109.3139   52.7970  -29.5344 O   0  0  0  0  0  0  0  0  0  0  0  0
  109.4800   54.5753  -24.9488 C   0  0  0  0  0  0  0  0  0  0  0  0
  108.3971   54.0471  -25.2839 O   0  0  0  0  0  0  0  0  0  0  0  0
  107.8748   51.9007  -28.0270 O   0  0  0  0  0  0  0  0  0  0  0  0
  112.0038   59.3089  -26.3395 C   0  0  0  0  0  0  0  0  0  0  0  0
  110.6718   58.6762  -26.1659 C   0  0  1  0  0  0  0  0  0  0  0  0
  109.8117   58.9372  -27.4109 C   0  0  0  0  0  0  0  0  0  0  0  0
  110.6481   57.2136  -25.9255 C   0  0  0  0  0  0  0  0  0  0  0  0
  110.5204   56.7999  -24.4919 C   0  0  2  0  0  0  0  0  0  0  0  0
  109.5253   55.8108  -24.2464 N   0  0  0  0  0  0  0  0  0  0  0  0
  110.3215   58.0256  -23.6757 C   0  0  0  0  0  0  0  0  0  0  0  0
  111.1086   58.9925  -23.8232 O   0  0  0  0  0  0  0  0  0  0  0  0
  106.4508   57.3964  -23.7701 C   0  0  0  0  0  0  0  0  0  0  0  0
  106.8372   58.3622  -22.6923 C   0  0  1  0  0  0  0  0  0  0  0  0
  106.8679   57.7287  -21.4557 O   0  0  0  0  0  0  0  0  0  0  0  0
  108.1391   59.0583  -22.9070 C   0  0  2  0  0  0  0  0  0  0  0  0
  109.2810   58.1739  -22.7259 N   0  0  0  0  0  0  0  0  0  0  0  0
  108.2864   60.2929  -22.1052 C   0  0  0  0  0  0  0  0  0  0  0  0
  107.1495   60.9865  -21.7303 O   0  0  0  0  0  0  0  0  0  0  0  0
  109.3996   60.7445  -21.7449 O   0  0  0  0  0  0  0  0  0  0  0  0
  2  7  1  0
  2  1  1  1
  3  2  1  0
  4  3  1  0
  5  4  1  0
  6  5  2  0
  7  8  2  0
  9  5  1  0
 11 10  1  6
 11 12  1  0
 13 11  1  0
 14 13  1  6
 15 14  1  0
 15  7  1  0
 16 22  1  0
 16 14  1  0
 17 16  2  0
 19 18  1  6
 20 19  1  0
 21 19  1  0
 21 22  1  1
 23 21  1  0
 23 24  1  0
 25 23  2  0
M  END
$$$$
