ELT.pdb
     RDKit          3D

 25 24  0  0  1  0  0  0  0  0999 V2000
   11.2240  -16.8592   16.5339 N   0  0  0  0  0  0  0  0  0  0  0  0
   10.5089  -17.4888   17.6302 C   0  0  1  0  0  0  0  0  0  0  0  0
   11.2365  -18.8164   17.8912 C   0  0  0  0  0  0  0  0  0  0  0  0
   10.3102  -19.9492   17.4334 C   0  0  0  0  0  0  0  0  0  0  0  0
   10.9296  -21.2668   17.6798 C   0  0  0  0  0  0  0  0  0  0  0  0
   12.1018  -21.5080   17.3209 O   0  0  0  0  0  0  0  0  0  0  0  0
   10.6440  -16.6062   18.8157 C   0  0  0  0  0  0  0  0  0  0  0  0
   11.7845  -16.2923   19.2215 O   0  0  0  0  0  0  0  0  0  0  0  0
   10.2125  -22.2707   18.3186 O   0  0  0  0  0  0  0  0  0  0  0  0
    6.6665  -12.8878   19.6947 C   0  0  0  0  0  0  0  0  0  0  0  0
    7.9850  -13.5704   19.6740 C   0  0  1  0  0  0  0  0  0  0  0  0
    9.1054  -12.5235   19.5933 C   0  0  0  0  0  0  0  0  0  0  0  0
    8.3032  -14.4537   20.8211 C   0  0  0  0  0  0  0  0  0  0  0  0
    9.4959  -15.3406   20.6379 C   0  0  2  0  0  0  0  0  0  0  0  0
    9.4649  -16.1403   19.4597 N   0  0  0  0  0  0  0  0  0  0  0  0
    9.6615  -16.1493   21.8735 C   0  0  0  0  0  0  0  0  0  0  0  0
    8.7103  -16.8691   22.2649 O   0  0  0  0  0  0  0  0  0  0  0  0
   11.7711  -19.0075   22.4326 C   0  0  0  0  0  0  0  0  0  0  0  0
   12.0781  -18.0725   23.5620 C   0  0  1  0  0  0  0  0  0  0  0  0
   13.3090  -17.4574   23.3671 O   0  0  0  0  0  0  0  0  0  0  0  0
   11.0493  -17.0202   23.8063 C   0  0  2  0  0  0  0  0  0  0  0  0
   10.8463  -16.1595   22.6500 N   0  0  0  0  0  0  0  0  0  0  0  0
   11.2993  -16.2242   25.0282 C   0  0  0  0  0  0  0  0  0  0  0  0
   11.3224  -16.8680   26.2526 O   0  0  0  0  0  0  0  0  0  0  0  0
   11.4937  -14.9854   25.0083 O   0  0  0  0  0  0  0  0  0  0  0  0
  2  7  1  0
  2  1  1  6
  3  2  1  0
  4  3  1  0
  5  4  1  0
  6  5  2  0
  7  8  2  0
  9  5  1  0
 11 10  1  1
 11 12  1  0
 13 11  1  0
 14 13  1  1
 15 14  1  0
 15  7  1  0
 16 22  1  0
 16 14  1  0
 17 16  2  0
 19 18  1  6
 20 19  1  0
 21 19  1  0
 21 22  1  6
 23 21  1  0
 23 24  1  0
 25 23  2  0
M  END
$$$$
