ELT.pdb
     RDKit          3D

 25 24  0  0  1  0  0  0  0  0999 V2000
   -3.0979  -25.2864   24.8697 N   0  0  0  0  0  0  0  0  0  0  0  0
   -2.8893  -25.4072   26.3021 C   0  0  1  0  0  0  0  0  0  0  0  0
   -1.3763  -25.2476   26.5152 C   0  0  0  0  0  0  0  0  0  0  0  0
   -0.6870  -26.4475   25.8550 C   0  0  0  0  0  0  0  0  0  0  0  0
    0.7770  -26.3768   26.0338 C   0  0  0  0  0  0  0  0  0  0  0  0
    1.3687  -27.1344   26.8319 O   0  0  0  0  0  0  0  0  0  0  0  0
   -3.6047  -24.2817   26.9533 C   0  0  0  0  0  0  0  0  0  0  0  0
   -3.5268  -24.1392   28.1932 O   0  0  0  0  0  0  0  0  0  0  0  0
    1.5282  -25.4571   25.3128 O   0  0  0  0  0  0  0  0  0  0  0  0
   -4.5883  -19.7024   23.7894 C   0  0  0  0  0  0  0  0  0  0  0  0
   -4.2635  -20.7012   24.8391 C   0  0  1  0  0  0  0  0  0  0  0  0
   -3.2433  -20.1044   25.8194 C   0  0  0  0  0  0  0  0  0  0  0  0
   -5.3922  -21.2139   25.6518 C   0  0  0  0  0  0  0  0  0  0  0  0
   -5.0318  -22.2511   26.6701 C   0  0  2  0  0  0  0  0  0  0  0  0
   -4.3628  -23.3927   26.1429 N   0  0  0  0  0  0  0  0  0  0  0  0
   -6.2643  -22.6066   27.4202 C   0  0  0  0  0  0  0  0  0  0  0  0
   -7.2295  -23.1190   26.8022 O   0  0  0  0  0  0  0  0  0  0  0  0
   -8.5690  -24.1580   31.4136 C   0  0  0  0  0  0  0  0  0  0  0  0
   -7.4147  -23.8720   30.5028 C   0  0  1  0  0  0  0  0  0  0  0  0
   -7.0701  -25.0069   29.7786 O   0  0  0  0  0  0  0  0  0  0  0  0
   -7.6272  -22.7423   29.5520 C   0  0  2  0  0  0  0  0  0  0  0  0
   -6.4204  -22.4006   28.8131 N   0  0  0  0  0  0  0  0  0  0  0  0
   -8.2244  -21.5449   30.1835 C   0  0  0  0  0  0  0  0  0  0  0  0
   -7.3870  -20.5932   30.7376 O   0  0  0  0  0  0  0  0  0  0  0  0
   -9.4617  -21.3484   30.2407 O   0  0  0  0  0  0  0  0  0  0  0  0
  2  7  1  0
  2  1  1  6
  3  2  1  0
  4  3  1  0
  5  4  1  0
  6  5  2  0
  7  8  2  0
  9  5  1  0
 11 10  1  6
 11 12  1  0
 13 11  1  0
 14 13  1  6
 15 14  1  0
 15  7  1  0
 16 22  1  0
 16 14  1  0
 17 16  2  0
 19 18  1  6
 20 19  1  0
 21 19  1  0
 21 22  1  1
 23 21  1  0
 23 24  1  0
 25 23  2  0
M  END
$$$$
