ELT.pdb
     RDKit          3D

 25 24  0  0  1  0  0  0  0  0999 V2000
    9.3666  -18.6280   20.0523 N   0  0  0  0  0  0  0  0  0  0  0  0
   10.6341  -18.2124   20.6270 C   0  0  1  0  0  0  0  0  0  0  0  0
   11.5684  -17.9632   19.4332 C   0  0  0  0  0  0  0  0  0  0  0  0
   10.6920  -17.8079   18.1847 C   0  0  0  0  0  0  0  0  0  0  0  0
   11.5136  -17.4748   17.0038 C   0  0  0  0  0  0  0  0  0  0  0  0
   11.1052  -16.6733   16.1367 O   0  0  0  0  0  0  0  0  0  0  0  0
   10.3993  -16.9373   21.3493 C   0  0  0  0  0  0  0  0  0  0  0  0
   11.3453  -16.3941   21.9607 O   0  0  0  0  0  0  0  0  0  0  0  0
   12.7651  -18.0536   16.8340 O   0  0  0  0  0  0  0  0  0  0  0  0
    6.6085  -13.4066   19.4058 C   0  0  0  0  0  0  0  0  0  0  0  0
    7.7698  -14.0619   20.0589 C   0  0  1  0  0  0  0  0  0  0  0  0
    9.0078  -13.1627   19.9303 C   0  0  0  0  0  0  0  0  0  0  0  0
    7.6309  -14.4000   21.4955 C   0  0  0  0  0  0  0  0  0  0  0  0
    8.7496  -15.2082   22.0767 C   0  0  2  0  0  0  0  0  0  0  0  0
    9.0970  -16.3671   21.3249 N   0  0  0  0  0  0  0  0  0  0  0  0
    8.4042  -15.5241   23.4870 C   0  0  0  0  0  0  0  0  0  0  0  0
    8.2072  -14.5825   24.2936 O   0  0  0  0  0  0  0  0  0  0  0  0
    6.8037  -18.7529   26.9292 C   0  0  0  0  0  0  0  0  0  0  0  0
    7.2262  -18.4310   25.5286 C   0  0  1  0  0  0  0  0  0  0  0  0
    6.1247  -18.3925   24.6820 O   0  0  0  0  0  0  0  0  0  0  0  0
    7.9918  -17.1596   25.3778 C   0  0  2  0  0  0  0  0  0  0  0  0
    8.2805  -16.8440   23.9864 N   0  0  0  0  0  0  0  0  0  0  0  0
    9.2187  -17.1092   26.2032 C   0  0  0  0  0  0  0  0  0  0  0  0
    9.1032  -17.1993   27.5790 O   0  0  0  0  0  0  0  0  0  0  0  0
   10.3669  -16.9889   25.7134 O   0  0  0  0  0  0  0  0  0  0  0  0
  2  7  1  0
  2  1  1  6
  3  2  1  0
  4  3  1  0
  5  4  1  0
  6  5  2  0
  7  8  2  0
  9  5  1  0
 11 10  1  1
 11 12  1  0
 13 11  1  0
 14 13  1  6
 15 14  1  0
 15  7  1  0
 16 22  1  0
 16 14  1  0
 17 16  2  0
 19 18  1  1
 20 19  1  0
 21 19  1  0
 21 22  1  6
 23 21  1  0
 23 24  1  0
 25 23  2  0
M  END
$$$$
