ELT.pdb
     RDKit          3D

 25 24  0  0  1  0  0  0  0  0999 V2000
    6.8493  -16.6175   22.3386 N   0  0  0  0  0  0  0  0  0  0  0  0
    8.2882  -16.5299   22.1605 C   0  0  1  0  0  0  0  0  0  0  0  0
    8.4975  -15.7191   20.8725 C   0  0  0  0  0  0  0  0  0  0  0  0
    7.9736  -16.5631   19.7045 C   0  0  0  0  0  0  0  0  0  0  0  0
    8.4357  -16.0172   18.4126 C   0  0  0  0  0  0  0  0  0  0  0  0
    9.6252  -16.1350   18.0488 O   0  0  0  0  0  0  0  0  0  0  0  0
    8.8355  -15.7771   23.3165 C   0  0  0  0  0  0  0  0  0  0  0  0
   10.0546  -15.5001   23.3479 O   0  0  0  0  0  0  0  0  0  0  0  0
    7.5485  -15.3555   17.5730 O   0  0  0  0  0  0  0  0  0  0  0  0
    5.5583  -12.2289   25.8268 C   0  0  0  0  0  0  0  0  0  0  0  0
    6.7314  -12.9627   25.2880 C   0  0  1  0  0  0  0  0  0  0  0  0
    7.7648  -11.9602   24.7542 C   0  0  0  0  0  0  0  0  0  0  0  0
    7.4482  -13.8634   26.2220 C   0  0  0  0  0  0  0  0  0  0  0  0
    8.4082  -14.8191   25.5836 C   0  0  2  0  0  0  0  0  0  0  0  0
    7.9519  -15.3903   24.3612 N   0  0  0  0  0  0  0  0  0  0  0  0
    8.7741  -15.8463   26.5931 C   0  0  0  0  0  0  0  0  0  0  0  0
    9.0718  -15.4809   27.7566 O   0  0  0  0  0  0  0  0  0  0  0  0
    6.8501  -19.2881   27.4650 C   0  0  0  0  0  0  0  0  0  0  0  0
    8.3077  -19.4777   27.1763 C   0  0  1  0  0  0  0  0  0  0  0  0
    8.4898  -20.0038   25.9030 O   0  0  0  0  0  0  0  0  0  0  0  0
    9.1419  -18.2483   27.3112 C   0  0  2  0  0  0  0  0  0  0  0  0
    8.8076  -17.2359   26.3199 N   0  0  0  0  0  0  0  0  0  0  0  0
   10.5959  -18.5215   27.3271 C   0  0  0  0  0  0  0  0  0  0  0  0
   11.1059  -19.3719   28.2919 O   0  0  0  0  0  0  0  0  0  0  0  0
   11.3946  -18.0173   26.5021 O   0  0  0  0  0  0  0  0  0  0  0  0
  2  7  1  0
  2  1  1  1
  3  2  1  0
  4  3  1  0
  5  4  1  0
  6  5  2  0
  7  8  2  0
  9  5  1  0
 11 10  1  1
 11 12  1  0
 13 11  1  0
 14 13  1  1
 15 14  1  0
 15  7  1  0
 16 22  1  0
 16 14  1  0
 17 16  2  0
 19 18  1  6
 20 19  1  0
 21 19  1  0
 21 22  1  6
 23 21  1  0
 23 24  1  0
 25 23  2  0
M  END
$$$$
