ELT.pdb
     RDKit          3D

 25 24  0  0  1  0  0  0  0  0999 V2000
    9.4065  -18.4925   20.5197 N   0  0  0  0  0  0  0  0  0  0  0  0
   10.7093  -17.8626   20.6448 C   0  0  1  0  0  0  0  0  0  0  0  0
   11.1996  -17.6358   19.2066 C   0  0  0  0  0  0  0  0  0  0  0  0
   10.8234  -18.8768   18.3886 C   0  0  0  0  0  0  0  0  0  0  0  0
   11.3242  -18.7655   17.0040 C   0  0  0  0  0  0  0  0  0  0  0  0
   12.2798  -19.4637   16.6035 O   0  0  0  0  0  0  0  0  0  0  0  0
   10.5090  -16.5533   21.3142 C   0  0  0  0  0  0  0  0  0  0  0  0
   11.5052  -15.8805   21.6590 O   0  0  0  0  0  0  0  0  0  0  0  0
   10.7377  -17.8731   16.1153 O   0  0  0  0  0  0  0  0  0  0  0  0
    6.4153  -13.3157   19.7456 C   0  0  0  0  0  0  0  0  0  0  0  0
    7.6714  -13.8732   20.3079 C   0  0  1  0  0  0  0  0  0  0  0  0
    8.8334  -12.9095   20.0274 C   0  0  0  0  0  0  0  0  0  0  0  0
    7.6892  -14.1567   21.7628 C   0  0  0  0  0  0  0  0  0  0  0  0
    8.8908  -14.9007   22.2580 C   0  0  2  0  0  0  0  0  0  0  0  0
    9.1815  -16.0993   21.5456 N   0  0  0  0  0  0  0  0  0  0  0  0
    8.7213  -15.1293   23.7164 C   0  0  0  0  0  0  0  0  0  0  0  0
    7.9059  -14.4202   24.3555 O   0  0  0  0  0  0  0  0  0  0  0  0
    6.5964  -16.0724   25.2158 C   0  0  0  0  0  0  0  0  0  0  0  0
    7.5745  -17.0974   25.7022 C   0  0  1  0  0  0  0  0  0  0  0  0
    7.4830  -18.2591   24.9450 O   0  0  0  0  0  0  0  0  0  0  0  0
    8.9974  -16.6499   25.7244 C   0  0  2  0  0  0  0  0  0  0  0  0
    9.4339  -16.1149   24.4428 N   0  0  0  0  0  0  0  0  0  0  0  0
    9.9328  -17.6844   26.2184 C   0  0  0  0  0  0  0  0  0  0  0  0
   10.9173  -18.1564   25.3687 O   0  0  0  0  0  0  0  0  0  0  0  0
    9.8773  -18.1572   27.3787 O   0  0  0  0  0  0  0  0  0  0  0  0
  2  7  1  0
  2  1  1  6
  3  2  1  0
  4  3  1  0
  5  4  1  0
  6  5  2  0
  7  8  2  0
  9  5  1  0
 11 10  1  1
 11 12  1  0
 13 11  1  0
 14 13  1  6
 15 14  1  0
 15  7  1  0
 16 22  1  0
 16 14  1  0
 17 16  2  0
 19 18  1  6
 20 19  1  0
 21 19  1  0
 21 22  1  6
 23 21  1  0
 23 24  1  0
 25 23  2  0
M  END
$$$$
