ELT.pdb
     RDKit          3D

 25 24  0  0  1  0  0  0  0  0999 V2000
    8.9798  -17.0262   21.5189 N   0  0  0  0  0  0  0  0  0  0  0  0
   10.2459  -17.0553   22.2302 C   0  0  1  0  0  0  0  0  0  0  0  0
   11.2952  -16.5486   21.2290 C   0  0  0  0  0  0  0  0  0  0  0  0
   11.2678  -17.4862   20.0161 C   0  0  0  0  0  0  0  0  0  0  0  0
   12.3920  -17.1980   19.1033 C   0  0  0  0  0  0  0  0  0  0  0  0
   13.2659  -16.3553   19.3989 O   0  0  0  0  0  0  0  0  0  0  0  0
   10.1416  -16.1046   23.3650 C   0  0  0  0  0  0  0  0  0  0  0  0
   11.1548  -15.8577   24.0552 O   0  0  0  0  0  0  0  0  0  0  0  0
   12.4974  -17.8632   17.8882 O   0  0  0  0  0  0  0  0  0  0  0  0
    7.9832  -11.7917   26.0414 C   0  0  0  0  0  0  0  0  0  0  0  0
    7.1485  -13.0130   25.9127 C   0  0  1  0  0  0  0  0  0  0  0  0
    5.6645  -12.6204   25.8731 C   0  0  0  0  0  0  0  0  0  0  0  0
    7.3969  -13.8761   24.7334 C   0  0  0  0  0  0  0  0  0  0  0  0
    8.6493  -14.6952   24.7888 C   0  0  2  0  0  0  0  0  0  0  0  0
    8.8843  -15.4983   23.6362 N   0  0  0  0  0  0  0  0  0  0  0  0
    8.6234  -15.4904   26.0439 C   0  0  0  0  0  0  0  0  0  0  0  0
    8.4622  -14.8984   27.1392 O   0  0  0  0  0  0  0  0  0  0  0  0
    6.3077  -18.5711   26.7278 C   0  0  0  0  0  0  0  0  0  0  0  0
    7.7315  -18.8869   27.0697 C   0  0  1  0  0  0  0  0  0  0  0  0
    8.3037  -19.6889   26.0895 O   0  0  0  0  0  0  0  0  0  0  0  0
    8.6058  -17.6980   27.2875 C   0  0  2  0  0  0  0  0  0  0  0  0
    8.7710  -16.8988   26.0820 N   0  0  0  0  0  0  0  0  0  0  0  0
    9.9147  -18.0317   27.8913 C   0  0  0  0  0  0  0  0  0  0  0  0
    9.9430  -18.6214   29.1426 O   0  0  0  0  0  0  0  0  0  0  0  0
   11.0080  -17.8057   27.3199 O   0  0  0  0  0  0  0  0  0  0  0  0
  2  7  1  0
  2  1  1  6
  3  2  1  0
  4  3  1  0
  5  4  1  0
  6  5  2  0
  7  8  2  0
  9  5  1  0
 11 10  1  6
 11 12  1  0
 13 11  1  0
 14 13  1  6
 15 14  1  0
 15  7  1  0
 16 22  1  0
 16 14  1  0
 17 16  2  0
 19 18  1  6
 20 19  1  0
 21 19  1  0
 21 22  1  6
 23 21  1  0
 23 24  1  0
 25 23  2  0
M  END
$$$$
