ELT.pdb
     RDKit          3D

 25 24  0  0  1  0  0  0  0  0999 V2000
    6.6232  -19.8513   26.0892 N   0  0  0  0  0  0  0  0  0  0  0  0
    7.2333  -18.5776   26.4284 C   0  0  1  0  0  0  0  0  0  0  0  0
    8.7443  -18.8468   26.4953 C   0  0  0  0  0  0  0  0  0  0  0  0
    9.0108  -19.6769   27.7566 C   0  0  0  0  0  0  0  0  0  0  0  0
    9.8883  -18.9451   28.6919 C   0  0  0  0  0  0  0  0  0  0  0  0
    9.4397  -18.4526   29.7489 O   0  0  0  0  0  0  0  0  0  0  0  0
    6.9447  -17.6355   25.3185 C   0  0  0  0  0  0  0  0  0  0  0  0
    6.5449  -18.0825   24.2211 O   0  0  0  0  0  0  0  0  0  0  0  0
   11.2395  -18.7885   28.4092 O   0  0  0  0  0  0  0  0  0  0  0  0
    8.1537  -12.3374   26.2688 C   0  0  0  0  0  0  0  0  0  0  0  0
    7.2337  -13.5029   26.2736 C   0  0  1  0  0  0  0  0  0  0  0  0
    6.0629  -13.2306   27.2291 C   0  0  0  0  0  0  0  0  0  0  0  0
    6.6441  -13.8997   24.9728 C   0  0  0  0  0  0  0  0  0  0  0  0
    6.9977  -15.2759   24.4999 C   0  0  2  0  0  0  0  0  0  0  0  0
    7.1324  -16.2430   25.5369 N   0  0  0  0  0  0  0  0  0  0  0  0
    8.2143  -15.1727   23.6530 C   0  0  0  0  0  0  0  0  0  0  0  0
    8.1483  -14.5570   22.5609 O   0  0  0  0  0  0  0  0  0  0  0  0
   11.6425  -16.0974   20.9128 C   0  0  0  0  0  0  0  0  0  0  0  0
   10.5702  -15.5847   21.8244 C   0  0  1  0  0  0  0  0  0  0  0  0
    9.3619  -15.4767   21.1463 O   0  0  0  0  0  0  0  0  0  0  0  0
   10.3558  -16.3909   23.0611 C   0  0  2  0  0  0  0  0  0  0  0  0
    9.4655  -15.7346   24.0075 N   0  0  0  0  0  0  0  0  0  0  0  0
   11.6142  -16.8127   23.7151 C   0  0  0  0  0  0  0  0  0  0  0  0
   11.8036  -16.5181   25.0535 O   0  0  0  0  0  0  0  0  0  0  0  0
   12.5240  -17.4297   23.1115 O   0  0  0  0  0  0  0  0  0  0  0  0
  2  7  1  0
  2  1  1  6
  3  2  1  0
  4  3  1  0
  5  4  1  0
  6  5  2  0
  7  8  2  0
  9  5  1  0
 11 10  1  6
 11 12  1  0
 13 11  1  0
 14 13  1  1
 15 14  1  0
 15  7  1  0
 16 22  1  0
 16 14  1  0
 17 16  2  0
 19 18  1  6
 20 19  1  0
 21 19  1  0
 21 22  1  1
 23 21  1  0
 23 24  1  0
 25 23  2  0
M  END
$$$$
