ELT.pdb
     RDKit          3D

 25 24  0  0  1  0  0  0  0  0999 V2000
    9.5435  -15.5975   20.2082 N   0  0  0  0  0  0  0  0  0  0  0  0
    8.8270  -16.3402   21.2302 C   0  0  1  0  0  0  0  0  0  0  0  0
    9.4353  -17.7509   21.2202 C   0  0  0  0  0  0  0  0  0  0  0  0
    9.5793  -18.1821   19.7559 C   0  0  0  0  0  0  0  0  0  0  0  0
   10.1150  -19.5549   19.6622 C   0  0  0  0  0  0  0  0  0  0  0  0
   10.2623  -20.1179   18.5567 O   0  0  0  0  0  0  0  0  0  0  0  0
    9.1060  -15.6876   22.5336 C   0  0  0  0  0  0  0  0  0  0  0  0
   10.2885  -15.5779   22.9254 O   0  0  0  0  0  0  0  0  0  0  0  0
   10.4655  -20.2511   20.8122 O   0  0  0  0  0  0  0  0  0  0  0  0
    8.3826  -11.9799   26.4033 C   0  0  0  0  0  0  0  0  0  0  0  0
    7.2851  -12.9726   26.2815 C   0  0  1  0  0  0  0  0  0  0  0  0
    5.9461  -12.3046   26.6262 C   0  0  0  0  0  0  0  0  0  0  0  0
    7.1128  -13.6263   24.9623 C   0  0  0  0  0  0  0  0  0  0  0  0
    8.1799  -14.6077   24.5870 C   0  0  2  0  0  0  0  0  0  0  0  0
    8.0133  -15.2031   23.3038 N   0  0  0  0  0  0  0  0  0  0  0  0
    8.2822  -15.6142   25.6753 C   0  0  0  0  0  0  0  0  0  0  0  0
    7.2513  -16.2357   26.0319 O   0  0  0  0  0  0  0  0  0  0  0  0
    9.9628  -18.6605   25.1954 C   0  0  0  0  0  0  0  0  0  0  0  0
   10.5200  -18.1426   26.4858 C   0  0  1  0  0  0  0  0  0  0  0  0
   11.7970  -17.6282   26.2958 O   0  0  0  0  0  0  0  0  0  0  0  0
    9.6833  -17.1108   27.1645 C   0  0  2  0  0  0  0  0  0  0  0  0
    9.4911  -15.9221   26.3464 N   0  0  0  0  0  0  0  0  0  0  0  0
   10.1667  -16.7566   28.5172 C   0  0  0  0  0  0  0  0  0  0  0  0
   10.5231  -15.4454   28.7779 O   0  0  0  0  0  0  0  0  0  0  0  0
   10.2690  -17.5925   29.4465 O   0  0  0  0  0  0  0  0  0  0  0  0
  2  7  1  0
  2  1  1  6
  3  2  1  0
  4  3  1  0
  5  4  1  0
  6  5  2  0
  7  8  2  0
  9  5  1  0
 11 10  1  6
 11 12  1  0
 13 11  1  0
 14 13  1  1
 15 14  1  0
 15  7  1  0
 16 22  1  0
 16 14  1  0
 17 16  2  0
 19 18  1  6
 20 19  1  0
 21 19  1  0
 21 22  1  6
 23 21  1  0
 23 24  1  0
 25 23  2  0
M  END
$$$$
