LFR.pdb
     RDKit          3D

 31 31  0  0  1  0  0  0  0  0999 V2000
   28.9963  -22.4620  -18.1187 C   0  0  0  0  0  0  0  0  0  0  0  0
   27.7832  -21.7204  -17.5538 C   0  0  1  0  0  0  0  0  0  0  0  0
   26.8192  -21.4934  -18.6804 C   0  0  0  0  0  0  0  0  0  0  0  0
   27.2061  -22.4957  -16.3984 C   0  0  0  0  0  0  0  0  0  0  0  0
   25.9992  -21.7876  -15.8393 C   0  0  2  0  0  0  0  0  0  0  0  0
   25.9899  -20.3885  -16.2136 N   0  0  0  0  0  0  0  0  0  0  0  0
   25.9122  -21.9182  -14.3616 C   0  0  0  0  0  0  0  0  0  0  0  0
   25.8287  -23.0668  -13.8251 O   0  0  0  0  0  0  0  0  0  0  0  0
   25.9160  -20.8074  -13.4853 N   0  0  0  0  0  0  0  0  0  0  0  0
   25.8475  -20.9048  -12.0360 C   0  0  1  0  0  0  0  0  0  0  0  0
   26.5879  -19.8580  -11.3179 C   0  0  0  0  0  0  0  0  0  0  0  0
   26.6091  -19.9408   -9.8456 C   0  0  0  0  0  0  0  0  0  0  0  0
   27.4467  -20.8165   -9.1995 C   0  0  0  0  0  0  0  0  0  0  0  0
   27.4418  -20.9152   -7.8121 C   0  0  0  0  0  0  0  0  0  0  0  0
   26.6063  -20.1482   -7.0287 C   0  0  0  0  0  0  0  0  0  0  0  0
   25.7610  -19.2662   -7.6643 C   0  0  0  0  0  0  0  0  0  0  0  0
   25.7720  -19.1748   -9.0395 C   0  0  0  0  0  0  0  0  0  0  0  0
   24.4364  -20.9604  -11.6424 C   0  0  0  0  0  0  0  0  0  0  0  0
   23.5792  -20.2951  -12.3428 O   0  0  0  0  0  0  0  0  0  0  0  0
   17.8896  -24.7586   -6.5114 N   0  0  0  0  0  0  0  0  0  0  0  0
   18.2336  -25.1073   -7.8551 C   0  0  0  0  0  0  0  0  0  0  0  0
   17.4861  -25.9065   -8.5316 N   0  0  0  0  0  0  0  0  0  0  0  0
   19.4095  -24.5645   -8.4429 N   0  0  0  0  0  0  0  0  0  0  0  0
   20.2277  -23.5778   -7.8078 C   0  0  0  0  0  0  0  0  0  0  0  0
   20.6522  -22.4825   -8.7318 C   0  0  0  0  0  0  0  0  0  0  0  0
   22.1360  -22.4436   -9.0063 C   0  0  0  0  0  0  0  0  0  0  0  0
   22.4690  -21.5941  -10.2152 C   0  0  2  0  0  0  0  0  0  0  0  0
   23.8629  -21.6742  -10.5666 N   0  0  0  0  0  0  0  0  0  0  0  0
   21.9013  -20.2552  -10.0738 C   0  0  0  0  0  0  0  0  0  0  0  0
   20.6837  -19.9152  -10.5899 O   0  0  0  0  0  0  0  0  0  0  0  0
   22.5326  -19.3458   -9.4539 O   0  0  0  0  0  0  0  0  0  0  0  0
  2  1  1  6
  3  2  1  0
  4  2  1  0
  5  4  1  0
  5  6  1  1
  7  8  2  0
  7  5  1  0
  9  7  1  0
 10 18  1  0
 10  9  1  0
 10 11  1  1
 12 13  2  0
 12 11  1  0
 14 13  1  0
 15 14  2  0
 16 15  1  0
 16 17  2  0
 17 12  1  0
 18 28  1  0
 19 18  2  0
 20 21  1  0
 21 22  2  0
 23 21  1  0
 23 24  1  0
 24 25  1  0
 25 26  1  0
 27 26  1  1
 27 29  1  0
 28 27  1  0
 29 31  2  0
 29 30  1  0
M  END
$$$$
