LFR.pdb
     RDKit          3D

 31 31  0  0  1  0  0  0  0  0999 V2000
   30.9663  -22.0624  -19.7869 C   0  0  0  0  0  0  0  0  0  0  0  0
   29.9120  -21.0957  -19.2442 C   0  0  1  0  0  0  0  0  0  0  0  0
   29.1028  -20.6005  -20.4061 C   0  0  0  0  0  0  0  0  0  0  0  0
   29.0987  -21.7780  -18.1756 C   0  0  0  0  0  0  0  0  0  0  0  0
   28.0436  -20.8448  -17.6402 C   0  0  2  0  0  0  0  0  0  0  0  0
   28.5439  -19.4896  -17.5359 N   0  0  0  0  0  0  0  0  0  0  0  0
   27.5184  -21.2945  -16.3249 C   0  0  0  0  0  0  0  0  0  0  0  0
   27.2979  -22.5274  -16.1121 O   0  0  0  0  0  0  0  0  0  0  0  0
   27.2381  -20.4068  -15.2593 N   0  0  0  0  0  0  0  0  0  0  0  0
   26.7229  -20.8171  -13.9629 C   0  0  1  0  0  0  0  0  0  0  0  0
   27.1946  -20.0042  -12.8331 C   0  0  0  0  0  0  0  0  0  0  0  0
   26.6020  -20.2833  -11.5119 C   0  0  0  0  0  0  0  0  0  0  0  0
   25.4776  -19.6187  -11.0875 C   0  0  0  0  0  0  0  0  0  0  0  0
   24.9394  -19.8609   -9.8280 C   0  0  0  0  0  0  0  0  0  0  0  0
   25.5018  -20.7684   -8.9560 C   0  0  0  0  0  0  0  0  0  0  0  0
   26.6299  -21.4415   -9.3693 C   0  0  0  0  0  0  0  0  0  0  0  0
   27.1569  -21.1954  -10.6188 C   0  0  0  0  0  0  0  0  0  0  0  0
   25.2599  -20.8678  -14.0417 C   0  0  0  0  0  0  0  0  0  0  0  0
   24.6382  -19.8506  -14.5386 O   0  0  0  0  0  0  0  0  0  0  0  0
   19.2563  -27.1488  -14.9681 N   0  0  0  0  0  0  0  0  0  0  0  0
   20.5441  -26.8990  -14.3985 C   0  0  0  0  0  0  0  0  0  0  0  0
   21.3050  -27.8782  -14.0558 N   0  0  0  0  0  0  0  0  0  0  0  0
   20.9822  -25.5588  -14.2122 N   0  0  0  0  0  0  0  0  0  0  0  0
   20.2099  -24.4151  -14.5886 C   0  0  0  0  0  0  0  0  0  0  0  0
   20.8596  -23.1201  -14.2221 C   0  0  0  0  0  0  0  0  0  0  0  0
   22.3625  -23.1931  -14.1019 C   0  0  0  0  0  0  0  0  0  0  0  0
   22.9699  -21.8542  -13.7376 C   0  0  2  0  0  0  0  0  0  0  0  0
   24.4050  -21.9186  -13.6406 N   0  0  0  0  0  0  0  0  0  0  0  0
   22.2595  -21.2584  -12.6084 C   0  0  0  0  0  0  0  0  0  0  0  0
   21.0426  -20.6537  -12.7425 O   0  0  0  0  0  0  0  0  0  0  0  0
   22.7588  -21.2840  -11.4423 O   0  0  0  0  0  0  0  0  0  0  0  0
  2  1  1  6
  3  2  1  0
  4  2  1  0
  5  4  1  0
  5  6  1  1
  7  8  2  0
  7  5  1  0
  9  7  1  0
 10 18  1  0
 10  9  1  0
 10 11  1  1
 12 13  2  0
 12 11  1  0
 14 13  1  0
 15 14  2  0
 16 15  1  0
 16 17  2  0
 17 12  1  0
 18 28  1  0
 19 18  2  0
 20 21  1  0
 21 22  2  0
 23 21  1  0
 23 24  1  0
 24 25  1  0
 25 26  1  0
 27 26  1  1
 27 29  1  0
 28 27  1  0
 29 31  2  0
 29 30  1  0
M  END
$$$$
