LFR.pdb
     RDKit          3D

 31 31  0  0  1  0  0  0  0  0999 V2000
   19.7342  -12.8178  -18.5466 C   0  0  0  0  0  0  0  0  0  0  0  0
   20.2590  -14.2546  -18.5743 C   0  0  1  0  0  0  0  0  0  0  0  0
   20.8780  -14.4907  -19.9201 C   0  0  0  0  0  0  0  0  0  0  0  0
   21.1994  -14.4749  -17.4184 C   0  0  0  0  0  0  0  0  0  0  0  0
   21.7599  -15.8732  -17.4543 C   0  0  2  0  0  0  0  0  0  0  0  0
   20.8889  -16.7704  -18.1850 N   0  0  0  0  0  0  0  0  0  0  0  0
   22.0102  -16.4076  -16.0906 C   0  0  0  0  0  0  0  0  0  0  0  0
   22.7532  -15.7706  -15.2806 O   0  0  0  0  0  0  0  0  0  0  0  0
   21.4555  -17.6219  -15.6217 N   0  0  0  0  0  0  0  0  0  0  0  0
   21.6579  -18.1545  -14.2838 C   0  0  1  0  0  0  0  0  0  0  0  0
   20.4619  -18.7572  -13.6790 C   0  0  0  0  0  0  0  0  0  0  0  0
   20.6100  -19.3329  -12.3294 C   0  0  0  0  0  0  0  0  0  0  0  0
   20.6088  -18.5302  -11.2151 C   0  0  0  0  0  0  0  0  0  0  0  0
   20.7805  -19.0727   -9.9459 C   0  0  0  0  0  0  0  0  0  0  0  0
   20.9581  -20.4252   -9.7479 C   0  0  0  0  0  0  0  0  0  0  0  0
   20.9616  -21.2413  -10.8572 C   0  0  0  0  0  0  0  0  0  0  0  0
   20.7910  -20.6957  -12.1113 C   0  0  0  0  0  0  0  0  0  0  0  0
   22.7921  -19.0826  -14.3223 C   0  0  0  0  0  0  0  0  0  0  0  0
   22.8590  -19.9269  -15.2973 O   0  0  0  0  0  0  0  0  0  0  0  0
   30.7884  -20.2847  -10.2308 N   0  0  0  0  0  0  0  0  0  0  0  0
   30.3650  -21.5173  -10.8197 C   0  0  0  0  0  0  0  0  0  0  0  0
   31.0278  -22.5999  -10.6103 N   0  0  0  0  0  0  0  0  0  0  0  0
   29.2037  -21.5417  -11.6404 N   0  0  0  0  0  0  0  0  0  0  0  0
   28.4716  -20.3694  -12.0095 C   0  0  0  0  0  0  0  0  0  0  0  0
   27.3026  -20.6602  -12.8939 C   0  0  0  0  0  0  0  0  0  0  0  0
   26.0640  -19.8621  -12.5663 C   0  0  0  0  0  0  0  0  0  0  0  0
   24.9399  -20.1283  -13.5460 C   0  0  2  0  0  0  0  0  0  0  0  0
   23.8659  -19.1792  -13.4094 N   0  0  0  0  0  0  0  0  0  0  0  0
   24.5742  -21.5428  -13.5357 C   0  0  0  0  0  0  0  0  0  0  0  0
   25.0313  -22.4268  -14.4707 O   0  0  0  0  0  0  0  0  0  0  0  0
   23.8050  -22.0067  -12.6396 O   0  0  0  0  0  0  0  0  0  0  0  0
  2  1  1  6
  3  2  1  0
  4  2  1  0
  5  4  1  0
  5  6  1  1
  7  8  2  0
  7  5  1  0
  9  7  1  0
 10 18  1  0
 10  9  1  0
 10 11  1  6
 12 13  2  0
 12 11  1  0
 14 13  1  0
 15 14  2  0
 16 15  1  0
 16 17  2  0
 17 12  1  0
 18 28  1  0
 19 18  2  0
 20 21  1  0
 21 22  2  0
 23 21  1  0
 23 24  1  0
 24 25  1  0
 25 26  1  0
 27 26  1  1
 27 29  1  0
 28 27  1  0
 29 31  2  0
 29 30  1  0
M  END
$$$$
