LFR.pdb
     RDKit          3D

 31 31  0  0  1  0  0  0  0  0999 V2000
   23.9499  -23.1885  -19.8861 C   0  0  0  0  0  0  0  0  0  0  0  0
   25.1384  -23.4857  -18.9697 C   0  0  1  0  0  0  0  0  0  0  0  0
   26.1296  -22.3710  -19.1283 C   0  0  0  0  0  0  0  0  0  0  0  0
   24.6545  -23.6808  -17.5566 C   0  0  0  0  0  0  0  0  0  0  0  0
   25.8216  -23.8525  -16.6191 C   0  0  2  0  0  0  0  0  0  0  0  0
   26.3471  -25.2010  -16.6750 N   0  0  0  0  0  0  0  0  0  0  0  0
   25.4667  -23.5039  -15.2189 C   0  0  0  0  0  0  0  0  0  0  0  0
   24.8544  -24.3423  -14.4867 O   0  0  0  0  0  0  0  0  0  0  0  0
   25.7773  -22.2553  -14.6300 N   0  0  0  0  0  0  0  0  0  0  0  0
   25.4263  -21.8790  -13.2700 C   0  0  1  0  0  0  0  0  0  0  0  0
   26.3768  -20.9622  -12.6253 C   0  0  0  0  0  0  0  0  0  0  0  0
   26.1034  -20.5873  -11.2255 C   0  0  0  0  0  0  0  0  0  0  0  0
   26.5378  -21.3728  -10.1862 C   0  0  0  0  0  0  0  0  0  0  0  0
   26.2509  -21.0335   -8.8682 C   0  0  0  0  0  0  0  0  0  0  0  0
   25.5258  -19.9063   -8.5458 C   0  0  0  0  0  0  0  0  0  0  0  0
   25.0840  -19.1101   -9.5789 C   0  0  0  0  0  0  0  0  0  0  0  0
   25.3723  -19.4537  -10.8821 C   0  0  0  0  0  0  0  0  0  0  0  0
   24.0582  -21.3521  -13.2745 C   0  0  0  0  0  0  0  0  0  0  0  0
   23.7173  -20.5427  -14.2215 O   0  0  0  0  0  0  0  0  0  0  0  0
   18.4628  -25.6151  -11.1821 N   0  0  0  0  0  0  0  0  0  0  0  0
   18.3687  -24.8015  -10.0098 C   0  0  0  0  0  0  0  0  0  0  0  0
   18.2776  -25.3441   -8.8468 N   0  0  0  0  0  0  0  0  0  0  0  0
   18.3768  -23.3848  -10.1351 N   0  0  0  0  0  0  0  0  0  0  0  0
   19.0944  -22.6855  -11.1560 C   0  0  0  0  0  0  0  0  0  0  0  0
   20.5408  -22.4945  -10.8325 C   0  0  0  0  0  0  0  0  0  0  0  0
   21.0367  -21.0813  -11.0213 C   0  0  0  0  0  0  0  0  0  0  0  0
   21.7720  -20.9070  -12.3340 C   0  0  2  0  0  0  0  0  0  0  0  0
   23.0204  -21.6239  -12.3553 N   0  0  0  0  0  0  0  0  0  0  0  0
   21.8157  -19.4970  -12.7146 C   0  0  0  0  0  0  0  0  0  0  0  0
   20.9295  -18.9459  -13.5953 O   0  0  0  0  0  0  0  0  0  0  0  0
   22.6952  -18.7218  -12.2295 O   0  0  0  0  0  0  0  0  0  0  0  0
  2  1  1  6
  3  2  1  0
  4  2  1  0
  5  4  1  0
  5  6  1  1
  7  8  2  0
  7  5  1  0
  9  7  1  0
 10 18  1  0
 10  9  1  0
 10 11  1  6
 12 13  2  0
 12 11  1  0
 14 13  1  0
 15 14  2  0
 16 15  1  0
 16 17  2  0
 17 12  1  0
 18 28  1  0
 19 18  2  0
 20 21  1  0
 21 22  2  0
 23 21  1  0
 23 24  1  0
 24 25  1  0
 25 26  1  0
 27 26  1  1
 27 29  1  0
 28 27  1  0
 29 31  2  0
 29 30  1  0
M  END
$$$$
