LFR.pdb
     RDKit          3D

 31 31  0  0  1  0  0  0  0  0999 V2000
   18.6622  -14.7858  -17.0601 C   0  0  0  0  0  0  0  0  0  0  0  0
   19.1310  -13.3862  -17.4625 C   0  0  1  0  0  0  0  0  0  0  0  0
   18.0284  -12.7420  -18.2495 C   0  0  0  0  0  0  0  0  0  0  0  0
   19.5413  -12.6150  -16.2354 C   0  0  0  0  0  0  0  0  0  0  0  0
   19.8647  -11.1875  -16.5939 C   0  0  2  0  0  0  0  0  0  0  0  0
   20.9864  -11.1159  -17.5073 N   0  0  0  0  0  0  0  0  0  0  0  0
   20.1366  -10.3593  -15.3905 C   0  0  0  0  0  0  0  0  0  0  0  0
   19.3313  -10.3754  -14.4080 O   0  0  0  0  0  0  0  0  0  0  0  0
   21.2730   -9.5256  -15.2657 N   0  0  0  0  0  0  0  0  0  0  0  0
   21.6009   -8.7573  -14.0754 C   0  0  1  0  0  0  0  0  0  0  0  0
   23.0205   -8.7929  -13.6974 C   0  0  0  0  0  0  0  0  0  0  0  0
   24.0081   -8.6694  -14.7855 C   0  0  0  0  0  0  0  0  0  0  0  0
   24.2330   -7.4628  -15.4016 C   0  0  0  0  0  0  0  0  0  0  0  0
   25.1420   -7.3559  -16.4490 C   0  0  0  0  0  0  0  0  0  0  0  0
   25.8518   -8.4425  -16.9134 C   0  0  0  0  0  0  0  0  0  0  0  0
   25.6353   -9.6585  -16.3043 C   0  0  0  0  0  0  0  0  0  0  0  0
   24.7328   -9.7558  -15.2673 C   0  0  0  0  0  0  0  0  0  0  0  0
   21.1058   -7.3894  -14.2570 C   0  0  0  0  0  0  0  0  0  0  0  0
   21.1131   -6.8890  -15.4476 O   0  0  0  0  0  0  0  0  0  0  0  0
   17.9325   -3.8044   -9.7091 N   0  0  0  0  0  0  0  0  0  0  0  0
   17.7358   -2.4146   -9.9833 C   0  0  0  0  0  0  0  0  0  0  0  0
   17.7155   -1.5585   -9.0231 N   0  0  0  0  0  0  0  0  0  0  0  0
   17.5625   -1.9810  -11.3267 N   0  0  0  0  0  0  0  0  0  0  0  0
   17.3221   -2.8715  -12.4201 C   0  0  0  0  0  0  0  0  0  0  0  0
   18.5747   -3.3144  -13.1043 C   0  0  0  0  0  0  0  0  0  0  0  0
   19.0027   -4.7212  -12.7635 C   0  0  0  0  0  0  0  0  0  0  0  0
   20.2312   -5.1463  -13.5408 C   0  0  2  0  0  0  0  0  0  0  0  0
   20.5958   -6.5132  -13.2732 N   0  0  0  0  0  0  0  0  0  0  0  0
   21.2890   -4.1461  -13.4163 C   0  0  0  0  0  0  0  0  0  0  0  0
   21.3467   -3.0353  -14.2083 O   0  0  0  0  0  0  0  0  0  0  0  0
   22.2071   -4.2782  -12.5507 O   0  0  0  0  0  0  0  0  0  0  0  0
  2  1  1  1
  3  2  1  0
  4  2  1  0
  5  4  1  0
  5  6  1  6
  7  8  2  0
  7  5  1  0
  9  7  1  0
 10 18  1  0
 10  9  1  0
 10 11  1  6
 12 13  2  0
 12 11  1  0
 14 13  1  0
 15 14  2  0
 16 15  1  0
 16 17  2  0
 17 12  1  0
 18 28  1  0
 19 18  2  0
 20 21  1  0
 21 22  2  0
 23 21  1  0
 23 24  1  0
 24 25  1  0
 25 26  1  0
 27 26  1  1
 27 29  1  0
 28 27  1  0
 29 31  2  0
 29 30  1  0
M  END
$$$$
