LFR.pdb
     RDKit          3D

 31 31  0  0  1  0  0  0  0  0999 V2000
   20.3189  -20.7238  -16.5074 C   0  0  0  0  0  0  0  0  0  0  0  0
   20.3903  -21.2061  -15.0573 C   0  0  1  0  0  0  0  0  0  0  0  0
   20.6046  -22.6906  -15.0779 C   0  0  0  0  0  0  0  0  0  0  0  0
   21.4579  -20.4416  -14.3191 C   0  0  0  0  0  0  0  0  0  0  0  0
   21.6515  -21.0088  -12.9366 C   0  0  2  0  0  0  0  0  0  0  0  0
   20.5211  -20.7092  -12.0821 N   0  0  0  0  0  0  0  0  0  0  0  0
   22.9066  -20.5233  -12.3065 C   0  0  0  0  0  0  0  0  0  0  0  0
   23.0253  -19.3024  -11.9757 O   0  0  0  0  0  0  0  0  0  0  0  0
   24.0151  -21.3624  -12.0435 N   0  0  0  0  0  0  0  0  0  0  0  0
   25.2504  -20.9188  -11.4175 C   0  0  1  0  0  0  0  0  0  0  0  0
   25.6412  -21.6858  -10.2265 C   0  0  0  0  0  0  0  0  0  0  0  0
   26.7376  -21.1387   -9.4059 C   0  0  0  0  0  0  0  0  0  0  0  0
   28.0308  -21.5674   -9.5786 C   0  0  0  0  0  0  0  0  0  0  0  0
   29.0579  -21.0730   -8.7816 C   0  0  0  0  0  0  0  0  0  0  0  0
   28.8300  -20.1406   -7.7923 C   0  0  0  0  0  0  0  0  0  0  0  0
   27.5374  -19.7026   -7.6085 C   0  0  0  0  0  0  0  0  0  0  0  0
   26.5254  -20.1977   -8.4024 C   0  0  0  0  0  0  0  0  0  0  0  0
   26.3034  -20.8963  -12.4373 C   0  0  0  0  0  0  0  0  0  0  0  0
   26.3019  -21.8210  -13.3389 O   0  0  0  0  0  0  0  0  0  0  0  0
   33.0710  -24.3661  -14.4388 N   0  0  0  0  0  0  0  0  0  0  0  0
   32.9011  -23.4940  -13.3182 C   0  0  0  0  0  0  0  0  0  0  0  0
   33.5070  -23.7342  -12.2090 N   0  0  0  0  0  0  0  0  0  0  0  0
   32.0568  -22.3555  -13.4354 N   0  0  0  0  0  0  0  0  0  0  0  0
   31.2842  -22.0609  -14.6027 C   0  0  0  0  0  0  0  0  0  0  0  0
   30.5187  -20.7821  -14.4941 C   0  0  0  0  0  0  0  0  0  0  0  0
   29.5567  -20.7325  -13.3319 C   0  0  0  0  0  0  0  0  0  0  0  0
   28.2877  -19.9803  -13.6753 C   0  0  2  0  0  0  0  0  0  0  0  0
   27.3545  -19.9630  -12.5791 N   0  0  0  0  0  0  0  0  0  0  0  0
   27.7716  -20.4098  -14.9730 C   0  0  0  0  0  0  0  0  0  0  0  0
   27.8720  -19.6386  -16.0954 O   0  0  0  0  0  0  0  0  0  0  0  0
   27.2023  -21.5361  -15.1033 O   0  0  0  0  0  0  0  0  0  0  0  0
  2  1  1  6
  3  2  1  0
  4  2  1  0
  5  4  1  0
  5  6  1  1
  7  8  2  0
  7  5  1  0
  9  7  1  0
 10 18  1  0
 10  9  1  0
 10 11  1  1
 12 13  2  0
 12 11  1  0
 14 13  1  0
 15 14  2  0
 16 15  1  0
 16 17  2  0
 17 12  1  0
 18 28  1  0
 19 18  2  0
 20 21  1  0
 21 22  2  0
 23 21  1  0
 23 24  1  0
 24 25  1  0
 25 26  1  0
 27 26  1  1
 27 29  1  0
 28 27  1  0
 29 31  2  0
 29 30  1  0
M  END
$$$$
