LFR.pdb
     RDKit          3D

 31 31  0  0  1  0  0  0  0  0999 V2000
   28.1782  -17.8449  -15.6705 C   0  0  0  0  0  0  0  0  0  0  0  0
   28.9575  -18.4719  -14.5129 C   0  0  1  0  0  0  0  0  0  0  0  0
   29.7005  -17.3733  -13.8122 C   0  0  0  0  0  0  0  0  0  0  0  0
   28.0159  -19.2409  -13.6235 C   0  0  0  0  0  0  0  0  0  0  0  0
   28.7550  -19.8085  -12.4394 C   0  0  2  0  0  0  0  0  0  0  0  0
   29.7434  -20.7826  -12.8539 N   0  0  0  0  0  0  0  0  0  0  0  0
   27.8317  -20.4140  -11.4449 C   0  0  0  0  0  0  0  0  0  0  0  0
   27.5080  -21.6391  -11.5360 O   0  0  0  0  0  0  0  0  0  0  0  0
   27.2710  -19.6881  -10.3676 N   0  0  0  0  0  0  0  0  0  0  0  0
   26.2057  -20.1829   -9.5104 C   0  0  1  0  0  0  0  0  0  0  0  0
   26.0420  -19.4436   -8.2509 C   0  0  0  0  0  0  0  0  0  0  0  0
   26.9923  -19.7486   -7.1653 C   0  0  0  0  0  0  0  0  0  0  0  0
   27.6655  -18.7449   -6.5132 C   0  0  0  0  0  0  0  0  0  0  0  0
   28.5849  -19.0374   -5.5113 C   0  0  0  0  0  0  0  0  0  0  0  0
   28.8612  -20.3328   -5.1296 C   0  0  0  0  0  0  0  0  0  0  0  0
   28.1931  -21.3488   -5.7759 C   0  0  0  0  0  0  0  0  0  0  0  0
   27.2838  -21.0503   -6.7677 C   0  0  0  0  0  0  0  0  0  0  0  0
   24.9673  -20.2325  -10.2935 C   0  0  0  0  0  0  0  0  0  0  0  0
   24.6758  -19.2213  -11.0421 O   0  0  0  0  0  0  0  0  0  0  0  0
   20.5240  -23.4440  -16.4806 N   0  0  0  0  0  0  0  0  0  0  0  0
   21.8877  -23.8117  -16.2566 C   0  0  0  0  0  0  0  0  0  0  0  0
   22.6913  -23.9668  -17.2492 N   0  0  0  0  0  0  0  0  0  0  0  0
   22.3540  -24.0054  -14.9270 N   0  0  0  0  0  0  0  0  0  0  0  0
   21.5211  -23.8792  -13.7708 C   0  0  0  0  0  0  0  0  0  0  0  0
   21.7054  -22.5820  -13.0520 C   0  0  0  0  0  0  0  0  0  0  0  0
   22.8619  -22.5699  -12.0820 C   0  0  0  0  0  0  0  0  0  0  0  0
   22.9099  -21.2923  -11.2698 C   0  0  2  0  0  0  0  0  0  0  0  0
   24.0171  -21.2764  -10.3496 N   0  0  0  0  0  0  0  0  0  0  0  0
   21.5919  -20.9838  -10.7198 C   0  0  0  0  0  0  0  0  0  0  0  0
   20.5063  -20.7343  -11.5095 O   0  0  0  0  0  0  0  0  0  0  0  0
   21.4080  -20.9373   -9.4653 O   0  0  0  0  0  0  0  0  0  0  0  0
  2  1  1  6
  3  2  1  0
  4  2  1  0
  5  4  1  0
  5  6  1  6
  7  8  2  0
  7  5  1  0
  9  7  1  0
 10 18  1  0
 10  9  1  0
 10 11  1  1
 12 13  2  0
 12 11  1  0
 14 13  1  0
 15 14  2  0
 16 15  1  0
 16 17  2  0
 17 12  1  0
 18 28  1  0
 19 18  2  0
 20 21  1  0
 21 22  2  0
 23 21  1  0
 23 24  1  0
 24 25  1  0
 25 26  1  0
 27 26  1  1
 27 29  1  0
 28 27  1  0
 29 31  2  0
 29 30  1  0
M  END
$$$$
