LFR.pdb
     RDKit          3D

 31 31  0  0  1  0  0  0  0  0999 V2000
   24.3729  -21.3519  -20.7184 C   0  0  0  0  0  0  0  0  0  0  0  0
   25.5663  -21.6768  -19.8180 C   0  0  1  0  0  0  0  0  0  0  0  0
   26.4970  -20.5008  -19.8481 C   0  0  0  0  0  0  0  0  0  0  0  0
   25.0793  -22.0395  -18.4394 C   0  0  0  0  0  0  0  0  0  0  0  0
   26.2443  -22.2411  -17.5052 C   0  0  2  0  0  0  0  0  0  0  0  0
   27.0370  -23.3895  -17.8932 N   0  0  0  0  0  0  0  0  0  0  0  0
   25.8068  -22.3805  -16.0920 C   0  0  0  0  0  0  0  0  0  0  0  0
   25.4872  -23.5204  -15.6310 O   0  0  0  0  0  0  0  0  0  0  0  0
   25.7201  -21.2875  -15.1976 N   0  0  0  0  0  0  0  0  0  0  0  0
   25.3648  -21.4028  -13.7923 C   0  0  1  0  0  0  0  0  0  0  0  0
   26.0836  -20.4800  -12.9028 C   0  0  0  0  0  0  0  0  0  0  0  0
   25.7547  -20.5394  -11.4665 C   0  0  0  0  0  0  0  0  0  0  0  0
   26.4642  -21.3474  -10.6123 C   0  0  0  0  0  0  0  0  0  0  0  0
   26.1313  -21.4256   -9.2641 C   0  0  0  0  0  0  0  0  0  0  0  0
   25.0862  -20.7049   -8.7271 C   0  0  0  0  0  0  0  0  0  0  0  0
   24.3663  -19.8909   -9.5731 C   0  0  0  0  0  0  0  0  0  0  0  0
   24.7026  -19.8193  -10.9078 C   0  0  0  0  0  0  0  0  0  0  0  0
   23.9094  -21.2746  -13.6713 C   0  0  0  0  0  0  0  0  0  0  0  0
   23.3141  -20.3702  -14.3753 O   0  0  0  0  0  0  0  0  0  0  0  0
   16.0324  -23.1547  -11.8967 N   0  0  0  0  0  0  0  0  0  0  0  0
   16.7741  -24.3624  -12.0879 C   0  0  0  0  0  0  0  0  0  0  0  0
   16.2728  -25.3332  -12.7673 N   0  0  0  0  0  0  0  0  0  0  0  0
   18.0731  -24.4864  -11.5223 N   0  0  0  0  0  0  0  0  0  0  0  0
   18.7312  -23.4317  -10.8145 C   0  0  0  0  0  0  0  0  0  0  0  0
   19.4573  -22.4839  -11.7133 C   0  0  0  0  0  0  0  0  0  0  0  0
   20.9540  -22.6784  -11.7396 C   0  0  0  0  0  0  0  0  0  0  0  0
   21.6313  -21.7491  -12.7254 C   0  0  2  0  0  0  0  0  0  0  0  0
   23.0348  -22.0378  -12.8659 N   0  0  0  0  0  0  0  0  0  0  0  0
   21.2686  -20.3600  -12.4539 C   0  0  0  0  0  0  0  0  0  0  0  0
   22.0868  -19.5072  -11.7700 O   0  0  0  0  0  0  0  0  0  0  0  0
   20.1597  -19.8900  -12.8528 O   0  0  0  0  0  0  0  0  0  0  0  0
  2  1  1  6
  3  2  1  0
  4  2  1  0
  5  4  1  0
  5  6  1  6
  7  8  2  0
  7  5  1  0
  9  7  1  0
 10 18  1  0
 10  9  1  0
 10 11  1  1
 12 13  2  0
 12 11  1  0
 14 13  1  0
 15 14  2  0
 16 15  1  0
 16 17  2  0
 17 12  1  0
 18 28  1  0
 19 18  2  0
 20 21  1  0
 21 22  2  0
 23 21  1  0
 23 24  1  0
 24 25  1  0
 25 26  1  0
 27 26  1  1
 27 29  1  0
 28 27  1  0
 29 31  2  0
 29 30  1  0
M  END
$$$$
