LFR.pdb
     RDKit          3D

 31 31  0  0  1  0  0  0  0  0999 V2000
   22.9191  -21.6782  -18.0182 C   0  0  0  0  0  0  0  0  0  0  0  0
   24.3172  -21.8490  -17.4211 C   0  0  1  0  0  0  0  0  0  0  0  0
   25.1366  -20.6591  -17.8246 C   0  0  0  0  0  0  0  0  0  0  0  0
   24.2133  -22.0466  -15.9314 C   0  0  0  0  0  0  0  0  0  0  0  0
   25.5849  -22.1621  -15.3183 C   0  0  2  0  0  0  0  0  0  0  0  0
   26.2832  -23.3326  -15.8082 N   0  0  0  0  0  0  0  0  0  0  0  0
   25.5305  -22.1881  -13.8335 C   0  0  0  0  0  0  0  0  0  0  0  0
   25.2828  -23.2736  -13.2217 O   0  0  0  0  0  0  0  0  0  0  0  0
   25.7435  -21.0421  -13.0314 N   0  0  0  0  0  0  0  0  0  0  0  0
   25.7667  -21.0505  -11.5774 C   0  0  1  0  0  0  0  0  0  0  0  0
   26.7038  -20.0914  -10.9761 C   0  0  0  0  0  0  0  0  0  0  0  0
   26.7832  -20.0637   -9.5038 C   0  0  0  0  0  0  0  0  0  0  0  0
   26.0421  -19.1677   -8.7732 C   0  0  0  0  0  0  0  0  0  0  0  0
   26.1430  -19.1226   -7.3867 C   0  0  0  0  0  0  0  0  0  0  0  0
   26.9815  -19.9645   -6.6879 C   0  0  0  0  0  0  0  0  0  0  0  0
   27.7305  -20.8676   -7.4088 C   0  0  0  0  0  0  0  0  0  0  0  0
   27.6248  -20.9057   -8.7825 C   0  0  0  0  0  0  0  0  0  0  0  0
   24.3952  -20.8701  -11.0920 C   0  0  0  0  0  0  0  0  0  0  0  0
   23.6150  -20.0740  -11.7443 O   0  0  0  0  0  0  0  0  0  0  0  0
   18.7131  -25.3185   -5.7199 N   0  0  0  0  0  0  0  0  0  0  0  0
   17.9527  -24.3354   -6.4273 C   0  0  0  0  0  0  0  0  0  0  0  0
   16.6679  -24.3343   -6.3600 N   0  0  0  0  0  0  0  0  0  0  0  0
   18.6249  -23.3548   -7.2079 N   0  0  0  0  0  0  0  0  0  0  0  0
   20.0471  -23.2969   -7.3507 C   0  0  0  0  0  0  0  0  0  0  0  0
   20.5048  -22.1778   -8.2292 C   0  0  0  0  0  0  0  0  0  0  0  0
   22.0015  -22.1055   -8.4115 C   0  0  0  0  0  0  0  0  0  0  0  0
   22.3864  -21.3354   -9.6577 C   0  0  2  0  0  0  0  0  0  0  0  0
   23.7846  -21.4756   -9.9712 N   0  0  0  0  0  0  0  0  0  0  0  0
   21.8565  -19.9748   -9.6045 C   0  0  0  0  0  0  0  0  0  0  0  0
   22.5209  -18.9511   -8.9921 O   0  0  0  0  0  0  0  0  0  0  0  0
   20.7398  -19.6930  -10.1366 O   0  0  0  0  0  0  0  0  0  0  0  0
  2  1  1  1
  3  2  1  0
  4  2  1  0
  5  4  1  0
  5  6  1  6
  7  8  2  0
  7  5  1  0
  9  7  1  0
 10 18  1  0
 10  9  1  0
 10 11  1  1
 12 13  2  0
 12 11  1  0
 14 13  1  0
 15 14  2  0
 16 15  1  0
 16 17  2  0
 17 12  1  0
 18 28  1  0
 19 18  2  0
 20 21  1  0
 21 22  2  0
 23 21  1  0
 23 24  1  0
 24 25  1  0
 25 26  1  0
 27 26  1  1
 27 29  1  0
 28 27  1  0
 29 31  2  0
 29 30  1  0
M  END
$$$$
