LFR.pdb
     RDKit          3D

 31 31  0  0  1  0  0  0  0  0999 V2000
   19.2957  -21.4773  -15.5795 C   0  0  0  0  0  0  0  0  0  0  0  0
   19.8696  -21.8263  -14.2049 C   0  0  1  0  0  0  0  0  0  0  0  0
   20.3738  -23.2378  -14.2636 C   0  0  0  0  0  0  0  0  0  0  0  0
   20.9176  -20.8152  -13.8198 C   0  0  0  0  0  0  0  0  0  0  0  0
   21.5565  -21.1922  -12.5082 C   0  0  2  0  0  0  0  0  0  0  0  0
   20.6367  -21.0119  -11.4040 N   0  0  0  0  0  0  0  0  0  0  0  0
   22.8061  -20.4280  -12.2578 C   0  0  0  0  0  0  0  0  0  0  0  0
   22.7506  -19.2437  -11.8011 O   0  0  0  0  0  0  0  0  0  0  0  0
   24.0966  -20.9529  -12.5047 N   0  0  0  0  0  0  0  0  0  0  0  0
   25.3372  -20.2502  -12.2190 C   0  0  1  0  0  0  0  0  0  0  0  0
   26.3085  -21.0215  -11.4308 C   0  0  0  0  0  0  0  0  0  0  0  0
   26.2795  -20.8415   -9.9675 C   0  0  0  0  0  0  0  0  0  0  0  0
   25.5148  -21.6576   -9.1705 C   0  0  0  0  0  0  0  0  0  0  0  0
   25.4645  -21.4652   -7.7938 C   0  0  0  0  0  0  0  0  0  0  0  0
   26.1709  -20.4586   -7.1710 C   0  0  0  0  0  0  0  0  0  0  0  0
   26.9415  -19.6329   -7.9590 C   0  0  0  0  0  0  0  0  0  0  0  0
   26.9856  -19.8302   -9.3223 C   0  0  0  0  0  0  0  0  0  0  0  0
   25.9000  -19.7721  -13.4855 C   0  0  0  0  0  0  0  0  0  0  0  0
   26.0099  -20.6107  -14.4615 O   0  0  0  0  0  0  0  0  0  0  0  0
   22.1740  -15.0126  -16.5673 N   0  0  0  0  0  0  0  0  0  0  0  0
   23.0046  -15.3466  -17.6825 C   0  0  0  0  0  0  0  0  0  0  0  0
   22.4851  -15.5592  -18.8401 N   0  0  0  0  0  0  0  0  0  0  0  0
   24.4126  -15.4424  -17.5062 N   0  0  0  0  0  0  0  0  0  0  0  0
   25.0296  -15.8717  -16.2891 C   0  0  0  0  0  0  0  0  0  0  0  0
   26.5130  -16.0150  -16.4004 C   0  0  0  0  0  0  0  0  0  0  0  0
   27.1700  -16.6216  -15.1843 C   0  0  0  0  0  0  0  0  0  0  0  0
   26.9053  -18.1091  -15.0770 C   0  0  2  0  0  0  0  0  0  0  0  0
   26.3487  -18.4697  -13.7991 N   0  0  0  0  0  0  0  0  0  0  0  0
   28.0676  -18.8711  -15.5279 C   0  0  0  0  0  0  0  0  0  0  0  0
   28.2680  -19.1989  -16.8382 O   0  0  0  0  0  0  0  0  0  0  0  0
   28.9474  -19.2609  -14.7010 O   0  0  0  0  0  0  0  0  0  0  0  0
  2  1  1  6
  3  2  1  0
  4  2  1  0
  5  4  1  0
  5  6  1  1
  7  8  2  0
  7  5  1  0
  9  7  1  0
 10 18  1  0
 10  9  1  0
 10 11  1  6
 12 13  2  0
 12 11  1  0
 14 13  1  0
 15 14  2  0
 16 15  1  0
 16 17  2  0
 17 12  1  0
 18 28  1  0
 19 18  2  0
 20 21  1  0
 21 22  2  0
 23 21  1  0
 23 24  1  0
 24 25  1  0
 25 26  1  0
 27 26  1  1
 27 29  1  0
 28 27  1  0
 29 31  2  0
 29 30  1  0
M  END
$$$$
