LFR.pdb
     RDKit          3D

 31 31  0  0  1  0  0  0  0  0999 V2000
   29.7841  -21.4153  -15.7370 C   0  0  0  0  0  0  0  0  0  0  0  0
   28.5762  -20.6514  -15.1912 C   0  0  1  0  0  0  0  0  0  0  0  0
   27.6610  -20.3575  -16.3428 C   0  0  0  0  0  0  0  0  0  0  0  0
   27.9332  -21.4422  -14.0820 C   0  0  0  0  0  0  0  0  0  0  0  0
   26.7893  -20.6691  -13.4784 C   0  0  2  0  0  0  0  0  0  0  0  0
   26.9978  -19.2409  -13.5995 N   0  0  0  0  0  0  0  0  0  0  0  0
   26.5634  -21.0301  -12.0548 C   0  0  0  0  0  0  0  0  0  0  0  0
   26.3687  -22.2415  -11.7255 O   0  0  0  0  0  0  0  0  0  0  0  0
   26.5503  -20.0782  -11.0080 N   0  0  0  0  0  0  0  0  0  0  0  0
   26.3492  -20.4034   -9.6050 C   0  0  1  0  0  0  0  0  0  0  0  0
   27.0614  -19.5252   -8.6663 C   0  0  0  0  0  0  0  0  0  0  0  0
   26.9745  -19.8632   -7.2335 C   0  0  0  0  0  0  0  0  0  0  0  0
   27.8255  -20.7831   -6.6719 C   0  0  0  0  0  0  0  0  0  0  0  0
   27.7204  -21.1234   -5.3274 C   0  0  0  0  0  0  0  0  0  0  0  0
   26.7687  -20.5607   -4.5041 C   0  0  0  0  0  0  0  0  0  0  0  0
   25.9087  -19.6370   -5.0550 C   0  0  0  0  0  0  0  0  0  0  0  0
   26.0195  -19.3055   -6.3883 C   0  0  0  0  0  0  0  0  0  0  0  0
   24.9075  -20.4485   -9.3429 C   0  0  0  0  0  0  0  0  0  0  0  0
   24.1354  -19.6780  -10.0344 O   0  0  0  0  0  0  0  0  0  0  0  0
   18.9439  -25.3841   -4.5354 N   0  0  0  0  0  0  0  0  0  0  0  0
   18.2364  -24.6878   -5.5649 C   0  0  0  0  0  0  0  0  0  0  0  0
   16.9754  -24.8801   -5.7323 N   0  0  0  0  0  0  0  0  0  0  0  0
   18.9349  -23.7779   -6.4058 N   0  0  0  0  0  0  0  0  0  0  0  0
   20.3389  -23.5241   -6.3021 C   0  0  0  0  0  0  0  0  0  0  0  0
   20.8373  -22.5503   -7.3203 C   0  0  0  0  0  0  0  0  0  0  0  0
   22.3215  -22.2848   -7.2494 C   0  0  0  0  0  0  0  0  0  0  0  0
   22.7847  -21.3468   -8.3447 C   0  0  2  0  0  0  0  0  0  0  0  0
   24.2201  -21.2542   -8.4079 N   0  0  0  0  0  0  0  0  0  0  0  0
   22.0453  -20.0878   -8.2890 C   0  0  0  0  0  0  0  0  0  0  0  0
   20.8963  -19.8786   -8.9965 O   0  0  0  0  0  0  0  0  0  0  0  0
   22.4536  -19.1279   -7.5667 O   0  0  0  0  0  0  0  0  0  0  0  0
  2  1  1  6
  3  2  1  0
  4  2  1  0
  5  4  1  0
  5  6  1  1
  7  8  2  0
  7  5  1  0
  9  7  1  0
 10 18  1  0
 10  9  1  0
 10 11  1  1
 12 13  2  0
 12 11  1  0
 14 13  1  0
 15 14  2  0
 16 15  1  0
 16 17  2  0
 17 12  1  0
 18 28  1  0
 19 18  2  0
 20 21  1  0
 21 22  2  0
 23 21  1  0
 23 24  1  0
 24 25  1  0
 25 26  1  0
 27 26  1  1
 27 29  1  0
 28 27  1  0
 29 31  2  0
 29 30  1  0
M  END
$$$$
