LFR.pdb
     RDKit          3D

 31 31  0  0  1  0  0  0  0  0999 V2000
   27.5790  -21.1400  -18.3135 C   0  0  0  0  0  0  0  0  0  0  0  0
   26.4709  -20.5529  -17.4373 C   0  0  1  0  0  0  0  0  0  0  0  0
   25.2656  -20.3394  -18.3043 C   0  0  0  0  0  0  0  0  0  0  0  0
   26.2255  -21.4545  -16.2557 C   0  0  0  0  0  0  0  0  0  0  0  0
   25.2229  -20.8330  -15.3180 C   0  0  2  0  0  0  0  0  0  0  0  0
   25.1624  -19.3962  -15.4898 N   0  0  0  0  0  0  0  0  0  0  0  0
   25.5102  -21.1627  -13.8979 C   0  0  0  0  0  0  0  0  0  0  0  0
   25.6447  -22.3734  -13.5371 O   0  0  0  0  0  0  0  0  0  0  0  0
   25.6472  -20.1809  -12.8882 N   0  0  0  0  0  0  0  0  0  0  0  0
   25.9543  -20.4714  -11.4969 C   0  0  1  0  0  0  0  0  0  0  0  0
   26.9252  -19.5558  -10.8817 C   0  0  0  0  0  0  0  0  0  0  0  0
   27.2637  -19.7892   -9.4654 C   0  0  0  0  0  0  0  0  0  0  0  0
   26.8109  -18.9438   -8.4825 C   0  0  0  0  0  0  0  0  0  0  0  0
   27.1581  -19.1481   -7.1512 C   0  0  0  0  0  0  0  0  0  0  0  0
   27.9635  -20.1960   -6.7593 C   0  0  0  0  0  0  0  0  0  0  0  0
   28.4246  -21.0510   -7.7354 C   0  0  0  0  0  0  0  0  0  0  0  0
   28.0760  -20.8413   -9.0523 C   0  0  0  0  0  0  0  0  0  0  0  0
   24.6950  -20.5346  -10.7489 C   0  0  0  0  0  0  0  0  0  0  0  0
   23.8333  -19.5880  -10.9203 O   0  0  0  0  0  0  0  0  0  0  0  0
   19.0760  -24.4311   -6.4218 N   0  0  0  0  0  0  0  0  0  0  0  0
   18.1072  -23.7804   -7.2484 C   0  0  0  0  0  0  0  0  0  0  0  0
   16.9003  -23.6196   -6.8330 N   0  0  0  0  0  0  0  0  0  0  0  0
   18.4850  -23.3095   -8.5361 N   0  0  0  0  0  0  0  0  0  0  0  0
   19.7787  -23.5231   -9.1079 C   0  0  0  0  0  0  0  0  0  0  0  0
   20.7489  -22.4311   -8.7921 C   0  0  0  0  0  0  0  0  0  0  0  0
   22.0755  -22.5566   -9.5013 C   0  0  0  0  0  0  0  0  0  0  0  0
   23.0407  -21.4602   -9.1008 C   0  0  2  0  0  0  0  0  0  0  0  0
   24.2757  -21.5295   -9.8377 N   0  0  0  0  0  0  0  0  0  0  0  0
   23.1458  -21.3749   -7.6460 C   0  0  0  0  0  0  0  0  0  0  0  0
   22.2716  -20.6505   -6.8874 O   0  0  0  0  0  0  0  0  0  0  0  0
   24.0705  -21.9838   -7.0263 O   0  0  0  0  0  0  0  0  0  0  0  0
  2  1  1  6
  3  2  1  0
  4  2  1  0
  5  4  1  0
  5  6  1  1
  7  8  2  0
  7  5  1  0
  9  7  1  0
 10 18  1  0
 10  9  1  0
 10 11  1  1
 12 13  2  0
 12 11  1  0
 14 13  1  0
 15 14  2  0
 16 15  1  0
 16 17  2  0
 17 12  1  0
 18 28  1  0
 19 18  2  0
 20 21  1  0
 21 22  2  0
 23 21  1  0
 23 24  1  0
 24 25  1  0
 25 26  1  0
 27 26  1  1
 27 29  1  0
 28 27  1  0
 29 31  2  0
 29 30  1  0
M  END
$$$$
