LFR.pdb
     RDKit          3D

 31 31  0  0  1  0  0  0  0  0999 V2000
   30.8678  -23.2167  -18.6520 C   0  0  0  0  0  0  0  0  0  0  0  0
   29.7311  -22.2131  -18.4488 C   0  0  1  0  0  0  0  0  0  0  0  0
   29.1120  -21.9443  -19.7885 C   0  0  0  0  0  0  0  0  0  0  0  0
   28.7650  -22.7405  -17.4205 C   0  0  0  0  0  0  0  0  0  0  0  0
   27.6684  -21.7390  -17.1654 C   0  0  2  0  0  0  0  0  0  0  0  0
   28.1802  -20.3841  -17.1776 N   0  0  0  0  0  0  0  0  0  0  0  0
   26.9606  -22.0025  -15.8857 C   0  0  0  0  0  0  0  0  0  0  0  0
   26.4625  -23.1482  -15.6547 O   0  0  0  0  0  0  0  0  0  0  0  0
   26.8002  -21.0255  -14.8749 N   0  0  0  0  0  0  0  0  0  0  0  0
   26.0914  -21.2465  -13.6245 C   0  0  1  0  0  0  0  0  0  0  0  0
   26.4870  -20.3480  -12.5311 C   0  0  0  0  0  0  0  0  0  0  0  0
   25.8089  -20.5298  -11.2343 C   0  0  0  0  0  0  0  0  0  0  0  0
   24.6397  -19.8680  -10.9497 C   0  0  0  0  0  0  0  0  0  0  0  0
   24.0192  -20.0168   -9.7138 C   0  0  0  0  0  0  0  0  0  0  0  0
   24.5417  -20.8256   -8.7273 C   0  0  0  0  0  0  0  0  0  0  0  0
   25.7141  -21.4946   -8.9998 C   0  0  0  0  0  0  0  0  0  0  0  0
   26.3226  -21.3415  -10.2269 C   0  0  0  0  0  0  0  0  0  0  0  0
   24.6512  -21.1969  -13.8944 C   0  0  0  0  0  0  0  0  0  0  0  0
   24.1988  -20.2344  -14.6271 O   0  0  0  0  0  0  0  0  0  0  0  0
   17.2156  -23.4370  -12.8548 N   0  0  0  0  0  0  0  0  0  0  0  0
   16.9477  -23.6863  -14.2373 C   0  0  0  0  0  0  0  0  0  0  0  0
   15.7492  -23.5907  -14.6954 N   0  0  0  0  0  0  0  0  0  0  0  0
   18.0154  -24.0412  -15.1072 N   0  0  0  0  0  0  0  0  0  0  0  0
   19.3549  -24.2725  -14.6614 C   0  0  0  0  0  0  0  0  0  0  0  0
   20.0799  -23.0163  -14.3009 C   0  0  0  0  0  0  0  0  0  0  0  0
   21.5320  -23.2199  -13.9429 C   0  0  0  0  0  0  0  0  0  0  0  0
   22.2492  -21.9070  -13.7062 C   0  0  2  0  0  0  0  0  0  0  0  0
   23.6540  -22.0948  -13.4527 N   0  0  0  0  0  0  0  0  0  0  0  0
   21.5117  -21.0842  -12.7501 C   0  0  0  0  0  0  0  0  0  0  0  0
   20.5278  -20.2177  -13.1319 O   0  0  0  0  0  0  0  0  0  0  0  0
   21.7649  -21.1491  -11.5086 O   0  0  0  0  0  0  0  0  0  0  0  0
  2  1  1  6
  3  2  1  0
  4  2  1  0
  5  4  1  0
  5  6  1  1
  7  8  2  0
  7  5  1  0
  9  7  1  0
 10 18  1  0
 10  9  1  0
 10 11  1  1
 12 13  2  0
 12 11  1  0
 14 13  1  0
 15 14  2  0
 16 15  1  0
 16 17  2  0
 17 12  1  0
 18 28  1  0
 19 18  2  0
 20 21  1  0
 21 22  2  0
 23 21  1  0
 23 24  1  0
 24 25  1  0
 25 26  1  0
 27 26  1  1
 27 29  1  0
 28 27  1  0
 29 31  2  0
 29 30  1  0
M  END
$$$$
