LFR.pdb
     RDKit          3D

 31 31  0  0  1  0  0  0  0  0999 V2000
   28.1467  -22.5192  -18.1426 C   0  0  0  0  0  0  0  0  0  0  0  0
   27.0187  -21.6993  -17.5134 C   0  0  1  0  0  0  0  0  0  0  0  0
   25.9817  -21.4594  -18.5704 C   0  0  0  0  0  0  0  0  0  0  0  0
   26.4968  -22.4072  -16.2904 C   0  0  0  0  0  0  0  0  0  0  0  0
   25.3935  -21.6061  -15.6487 C   0  0  2  0  0  0  0  0  0  0  0  0
   25.4684  -20.2102  -16.0275 N   0  0  0  0  0  0  0  0  0  0  0  0
   25.4036  -21.7314  -14.1681 C   0  0  0  0  0  0  0  0  0  0  0  0
   25.3223  -22.8760  -13.6227 O   0  0  0  0  0  0  0  0  0  0  0  0
   25.5003  -20.6197  -13.2982 N   0  0  0  0  0  0  0  0  0  0  0  0
   25.5441  -20.7134  -11.8478 C   0  0  1  0  0  0  0  0  0  0  0  0
   26.4024  -19.7139  -11.1967 C   0  0  0  0  0  0  0  0  0  0  0  0
   26.5970  -19.8427   -9.7406 C   0  0  0  0  0  0  0  0  0  0  0  0
   27.4550  -20.7818   -9.2231 C   0  0  0  0  0  0  0  0  0  0  0  0
   27.6125  -20.9224   -7.8483 C   0  0  0  0  0  0  0  0  0  0  0  0
   26.9235  -20.1356   -6.9503 C   0  0  0  0  0  0  0  0  0  0  0  0
   26.0596  -19.1901   -7.4563 C   0  0  0  0  0  0  0  0  0  0  0  0
   25.9092  -19.0574   -8.8199 C   0  0  0  0  0  0  0  0  0  0  0  0
   24.1689  -20.6835  -11.3407 C   0  0  0  0  0  0  0  0  0  0  0  0
   23.3243  -19.8889  -11.9093 O   0  0  0  0  0  0  0  0  0  0  0  0
   18.7369  -24.5640   -6.2131 N   0  0  0  0  0  0  0  0  0  0  0  0
   17.9040  -24.2264   -7.3256 C   0  0  0  0  0  0  0  0  0  0  0  0
   16.6338  -24.4235   -7.2707 N   0  0  0  0  0  0  0  0  0  0  0  0
   18.4875  -23.6693   -8.4968 N   0  0  0  0  0  0  0  0  0  0  0  0
   19.8989  -23.5930   -8.7174 C   0  0  0  0  0  0  0  0  0  0  0  0
   20.4820  -22.2692   -8.3420 C   0  0  0  0  0  0  0  0  0  0  0  0
   21.9606  -22.1426   -8.6180 C   0  0  0  0  0  0  0  0  0  0  0  0
   22.2383  -21.3501   -9.8786 C   0  0  2  0  0  0  0  0  0  0  0  0
   23.6180  -21.4379  -10.2809 N   0  0  0  0  0  0  0  0  0  0  0  0
   21.6653  -20.0098   -9.7790 C   0  0  0  0  0  0  0  0  0  0  0  0
   22.3539  -18.9534   -9.2553 O   0  0  0  0  0  0  0  0  0  0  0  0
   20.4857  -19.7776  -10.1845 O   0  0  0  0  0  0  0  0  0  0  0  0
  2  1  1  6
  3  2  1  0
  4  2  1  0
  5  4  1  0
  5  6  1  1
  7  8  2  0
  7  5  1  0
  9  7  1  0
 10 18  1  0
 10  9  1  0
 10 11  1  1
 12 13  2  0
 12 11  1  0
 14 13  1  0
 15 14  2  0
 16 15  1  0
 16 17  2  0
 17 12  1  0
 18 28  1  0
 19 18  2  0
 20 21  1  0
 21 22  2  0
 23 21  1  0
 23 24  1  0
 24 25  1  0
 25 26  1  0
 27 26  1  1
 27 29  1  0
 28 27  1  0
 29 31  2  0
 29 30  1  0
M  END
$$$$
