FPQ.pdb
     RDKit          3D

 28 29  0  0  1  0  0  0  0  0999 V2000
    5.5384  -17.8128   24.9486 N   0  0  0  0  0  0  0  0  0  0  0  0
    6.1475  -16.5369   24.9608 C   0  0  1  0  0  0  0  0  0  0  0  0
    6.5809  -16.0978   26.3274 C   0  0  0  0  0  0  0  0  0  0  0  0
    6.6749  -14.6416   26.3950 C   0  0  0  0  0  0  0  0  0  0  0  0
    7.9598  -14.0931   26.3722 C   0  0  0  0  0  0  0  0  0  0  0  0
    8.0893  -12.7343   26.4454 C   0  0  0  0  0  0  0  0  0  0  0  0
    7.0160  -11.8869   26.5400 C   0  0  0  0  0  0  0  0  0  0  0  0
    5.7658  -12.4494   26.5607 C   0  0  0  0  0  0  0  0  0  0  0  0
    5.5807  -13.8274   26.4891 C   0  0  0  0  0  0  0  0  0  0  0  0
    7.3542  -16.5348   24.0983 C   0  0  0  0  0  0  0  0  0  0  0  0
    8.2245  -17.4739   24.2155 O   0  0  0  0  0  0  0  0  0  0  0  0
    7.6072  -15.5281   23.1280 N   0  0  0  0  0  0  0  0  0  0  0  0
    6.8938  -14.2928   22.9826 C   0  0  0  0  0  0  0  0  0  0  0  0
    7.5343  -13.5501   21.8042 C   0  0  0  0  0  0  0  0  0  0  0  0
    8.1718  -14.7052   21.0321 C   0  0  0  0  0  0  0  0  0  0  0  0
    8.6560  -15.6106   22.1200 C   0  0  1  0  0  0  0  0  0  0  0  0
    9.9155  -15.1299   22.7151 C   0  0  0  0  0  0  0  0  0  0  0  0
    9.8770  -14.2171   23.5761 O   0  0  0  0  0  0  0  0  0  0  0  0
   12.8227  -19.5870   26.6867 N   0  0  0  0  0  0  0  0  0  0  0  0
   12.0367  -18.5136   26.2151 C   0  0  0  0  0  0  0  0  0  0  0  0
   10.8555  -18.3938   26.6417 O   0  0  0  0  0  0  0  0  0  0  0  0
   12.6219  -17.5755   25.2455 C   0  0  0  0  0  0  0  0  0  0  0  0
   11.5671  -17.1066   24.2424 C   0  0  0  0  0  0  0  0  0  0  0  0
   12.1690  -16.0723   23.3019 C   0  0  2  0  0  0  0  0  0  0  0  0
   11.1898  -15.6863   22.3290 N   0  0  0  0  0  0  0  0  0  0  0  0
   13.4096  -16.5805   22.6698 C   0  0  0  0  0  0  0  0  0  0  0  0
   13.4553  -16.9911   21.3420 O   0  0  0  0  0  0  0  0  0  0  0  0
   14.4742  -16.6551   23.3302 O   0  0  0  0  0  0  0  0  0  0  0  0
  2  1  1  1
  2  3  1  0
  4  3  1  0
  5  4  2  0
  6  5  1  0
  7  6  2  0
  7  8  1  0
  8  9  2  0
  9  4  1  0
 10 11  2  0
 10  2  1  0
 12 10  1  0
 13 12  1  0
 14 13  1  0
 15 14  1  0
 15 16  1  0
 16 12  1  0
 17 18  2  0
 16 17  1  1
 20 19  1  0
 21 20  2  0
 22 20  1  0
 23 22  1  0
 24 23  1  1
 24 25  1  0
 25 17  1  0
 26 24  1  0
 27 26  1  0
 28 26  2  0
M  END
$$$$
