FPQ.pdb
     RDKit          3D

 28 29  0  0  1  0  0  0  0  0999 V2000
    5.8714  -17.5506   25.5290 N   0  0  0  0  0  0  0  0  0  0  0  0
    6.4621  -16.3199   25.1606 C   0  0  1  0  0  0  0  0  0  0  0  0
    7.1571  -15.6303   26.2963 C   0  0  0  0  0  0  0  0  0  0  0  0
    6.7749  -14.2216   26.3549 C   0  0  0  0  0  0  0  0  0  0  0  0
    5.4568  -13.9429   26.7254 C   0  0  0  0  0  0  0  0  0  0  0  0
    5.0580  -12.6366   26.7802 C   0  0  0  0  0  0  0  0  0  0  0  0
    5.8926  -11.5892   26.4883 C   0  0  0  0  0  0  0  0  0  0  0  0
    7.1810  -11.8886   26.1273 C   0  0  0  0  0  0  0  0  0  0  0  0
    7.6358  -13.2025   26.0561 C   0  0  0  0  0  0  0  0  0  0  0  0
    7.4719  -16.5326   24.0953 C   0  0  0  0  0  0  0  0  0  0  0  0
    8.1698  -17.6124   24.0833 O   0  0  0  0  0  0  0  0  0  0  0  0
    7.7164  -15.5862   23.0641 N   0  0  0  0  0  0  0  0  0  0  0  0
    7.1171  -14.2891   22.9447 C   0  0  0  0  0  0  0  0  0  0  0  0
    7.6963  -13.6510   21.6767 C   0  0  0  0  0  0  0  0  0  0  0  0
    8.1289  -14.8876   20.8891 C   0  0  0  0  0  0  0  0  0  0  0  0
    8.6364  -15.8054   21.9558 C   0  0  1  0  0  0  0  0  0  0  0  0
    9.9943  -15.4392   22.3956 C   0  0  0  0  0  0  0  0  0  0  0  0
   10.1432  -14.4744   23.1850 O   0  0  0  0  0  0  0  0  0  0  0  0
   13.2771  -18.2187   25.9590 N   0  0  0  0  0  0  0  0  0  0  0  0
   12.3110  -18.8510   25.1469 C   0  0  0  0  0  0  0  0  0  0  0  0
   12.0241  -20.0583   25.3744 O   0  0  0  0  0  0  0  0  0  0  0  0
   11.6752  -18.0812   24.0673 C   0  0  0  0  0  0  0  0  0  0  0  0
   12.1529  -16.6286   24.0851 C   0  0  0  0  0  0  0  0  0  0  0  0
   12.3910  -16.1432   22.6624 C   0  0  2  0  0  0  0  0  0  0  0  0
   11.1543  -16.1658   21.9383 N   0  0  0  0  0  0  0  0  0  0  0  0
   13.4419  -16.9448   21.9916 C   0  0  0  0  0  0  0  0  0  0  0  0
   13.1715  -17.7663   20.9027 O   0  0  0  0  0  0  0  0  0  0  0  0
   14.6288  -16.9024   22.3972 O   0  0  0  0  0  0  0  0  0  0  0  0
  2  1  1  1
  2  3  1  0
  4  3  1  0
  5  4  2  0
  6  5  1  0
  7  6  2  0
  7  8  1  0
  8  9  2  0
  9  4  1  0
 10 11  2  0
 10  2  1  0
 12 10  1  0
 13 12  1  0
 14 13  1  0
 15 14  1  0
 15 16  1  0
 16 12  1  0
 17 18  2  0
 16 17  1  1
 20 19  1  0
 21 20  2  0
 22 20  1  0
 23 22  1  0
 24 23  1  1
 24 25  1  0
 25 17  1  0
 26 24  1  0
 27 26  1  0
 28 26  2  0
M  END
$$$$
