FPQ.pdb
     RDKit          3D

 28 29  0  0  1  0  0  0  0  0999 V2000
   12.3934  -15.4781   20.5745 N   0  0  0  0  0  0  0  0  0  0  0  0
   11.0441  -15.1144   20.7896 C   0  0  1  0  0  0  0  0  0  0  0  0
   10.1211  -15.5860   19.7060 C   0  0  0  0  0  0  0  0  0  0  0  0
    8.8379  -14.8924   19.7844 C   0  0  0  0  0  0  0  0  0  0  0  0
    7.7686  -15.6086   20.3283 C   0  0  0  0  0  0  0  0  0  0  0  0
    6.5485  -14.9975   20.4077 C   0  0  0  0  0  0  0  0  0  0  0  0
    6.3276  -13.7147   19.9780 C   0  0  0  0  0  0  0  0  0  0  0  0
    7.3926  -13.0329   19.4480 C   0  0  0  0  0  0  0  0  0  0  0  0
    8.6550  -13.6108   19.3448 C   0  0  0  0  0  0  0  0  0  0  0  0
   10.5525  -15.6922   22.0640 C   0  0  0  0  0  0  0  0  0  0  0  0
   10.9211  -16.8733   22.4139 O   0  0  0  0  0  0  0  0  0  0  0  0
    9.6757  -14.9963   22.9392 N   0  0  0  0  0  0  0  0  0  0  0  0
    8.8031  -13.9161   22.5819 C   0  0  0  0  0  0  0  0  0  0  0  0
    8.0660  -13.5034   23.8613 C   0  0  0  0  0  0  0  0  0  0  0  0
    9.0261  -14.0098   24.9375 C   0  0  0  0  0  0  0  0  0  0  0  0
    9.5344  -15.2921   24.3588 C   0  0  1  0  0  0  0  0  0  0  0  0
    8.5621  -16.3885   24.5136 C   0  0  0  0  0  0  0  0  0  0  0  0
    7.6718  -16.5453   23.6425 O   0  0  0  0  0  0  0  0  0  0  0  0
   11.3412  -20.3959   22.9240 N   0  0  0  0  0  0  0  0  0  0  0  0
   11.7488  -20.1503   24.2529 C   0  0  0  0  0  0  0  0  0  0  0  0
   12.9187  -20.4728   24.5977 O   0  0  0  0  0  0  0  0  0  0  0  0
   10.7971  -19.5285   25.1856 C   0  0  0  0  0  0  0  0  0  0  0  0
    9.4771  -19.2126   24.4808 C   0  0  0  0  0  0  0  0  0  0  0  0
    8.4595  -18.7008   25.4902 C   0  0  2  0  0  0  0  0  0  0  0  0
    8.6125  -17.2840   25.6442 N   0  0  0  0  0  0  0  0  0  0  0  0
    8.5804  -19.4161   26.7828 C   0  0  0  0  0  0  0  0  0  0  0  0
    8.9719  -18.7774   27.9543 O   0  0  0  0  0  0  0  0  0  0  0  0
    8.3271  -20.6431   26.8556 O   0  0  0  0  0  0  0  0  0  0  0  0
  2  1  1  6
  2  3  1  0
  4  3  1  0
  5  4  2  0
  6  5  1  0
  7  6  2  0
  7  8  1  0
  8  9  2  0
  9  4  1  0
 10 11  2  0
 10  2  1  0
 12 10  1  0
 13 12  1  0
 14 13  1  0
 15 14  1  0
 15 16  1  0
 16 12  1  0
 17 18  2  0
 16 17  1  6
 20 19  1  0
 21 20  2  0
 22 20  1  0
 23 22  1  0
 24 23  1  6
 24 25  1  0
 25 17  1  0
 26 24  1  0
 27 26  1  0
 28 26  2  0
M  END
$$$$
