FPQ.pdb
     RDKit          3D

 28 29  0  0  1  0  0  0  0  0999 V2000
    5.8890  -17.7405   25.4769 N   0  0  0  0  0  0  0  0  0  0  0  0
    6.5318  -16.5042   25.2368 C   0  0  1  0  0  0  0  0  0  0  0  0
    7.3437  -16.0202   26.4009 C   0  0  0  0  0  0  0  0  0  0  0  0
    7.3271  -14.5611   26.4692 C   0  0  0  0  0  0  0  0  0  0  0  0
    6.0851  -13.9557   26.6772 C   0  0  0  0  0  0  0  0  0  0  0  0
    6.0271  -12.5913   26.7352 C   0  0  0  0  0  0  0  0  0  0  0  0
    7.1319  -11.7914   26.5988 C   0  0  0  0  0  0  0  0  0  0  0  0
    8.3389  -12.4092   26.3955 C   0  0  0  0  0  0  0  0  0  0  0  0
    8.4508  -13.7953   26.3281 C   0  0  0  0  0  0  0  0  0  0  0  0
    7.4527  -16.6194   24.0799 C   0  0  0  0  0  0  0  0  0  0  0  0
    8.1801  -17.6710   23.9449 O   0  0  0  0  0  0  0  0  0  0  0  0
    7.5785  -15.6077   23.0903 N   0  0  0  0  0  0  0  0  0  0  0  0
    6.8710  -14.3609   23.0582 C   0  0  0  0  0  0  0  0  0  0  0  0
    7.3460  -13.6167   21.8048 C   0  0  0  0  0  0  0  0  0  0  0  0
    7.8471  -14.7737   20.9406 C   0  0  0  0  0  0  0  0  0  0  0  0
    8.4692  -15.6960   21.9406 C   0  0  1  0  0  0  0  0  0  0  0  0
    9.8089  -15.2391   22.3506 C   0  0  0  0  0  0  0  0  0  0  0  0
    9.9108  -14.2498   23.1166 O   0  0  0  0  0  0  0  0  0  0  0  0
   10.7417  -18.9589   25.7772 N   0  0  0  0  0  0  0  0  0  0  0  0
   12.0661  -18.4847   25.8935 C   0  0  0  0  0  0  0  0  0  0  0  0
   12.7688  -18.8803   26.8638 O   0  0  0  0  0  0  0  0  0  0  0  0
   12.5781  -17.5485   24.8816 C   0  0  0  0  0  0  0  0  0  0  0  0
   11.4790  -17.1736   23.8865 C   0  0  0  0  0  0  0  0  0  0  0  0
   12.0509  -16.2823   22.7933 C   0  0  2  0  0  0  0  0  0  0  0  0
   11.0037  -15.9048   21.8904 N   0  0  0  0  0  0  0  0  0  0  0  0
   13.1750  -16.9477   22.0928 C   0  0  0  0  0  0  0  0  0  0  0  0
   12.9784  -17.8133   21.0225 O   0  0  0  0  0  0  0  0  0  0  0  0
   14.3591  -16.7429   22.4549 O   0  0  0  0  0  0  0  0  0  0  0  0
  2  1  1  1
  2  3  1  0
  4  3  1  0
  5  4  2  0
  6  5  1  0
  7  6  2  0
  7  8  1  0
  8  9  2  0
  9  4  1  0
 10 11  2  0
 10  2  1  0
 12 10  1  0
 13 12  1  0
 14 13  1  0
 15 14  1  0
 15 16  1  0
 16 12  1  0
 17 18  2  0
 16 17  1  1
 20 19  1  0
 21 20  2  0
 22 20  1  0
 23 22  1  0
 24 23  1  1
 24 25  1  0
 25 17  1  0
 26 24  1  0
 27 26  1  0
 28 26  2  0
M  END
$$$$
