FPQ.pdb
     RDKit          3D

 28 29  0  0  1  0  0  0  0  0999 V2000
    6.8516  -16.4453   25.8677 N   0  0  0  0  0  0  0  0  0  0  0  0
    6.9501  -15.4846   24.8350 C   0  0  1  0  0  0  0  0  0  0  0  0
    7.9191  -14.3814   25.1395 C   0  0  0  0  0  0  0  0  0  0  0  0
    7.2870  -13.3531   25.9622 C   0  0  0  0  0  0  0  0  0  0  0  0
    6.1626  -12.7214   25.4247 C   0  0  0  0  0  0  0  0  0  0  0  0
    5.5502  -11.7452   26.1597 C   0  0  0  0  0  0  0  0  0  0  0  0
    5.9894  -11.3589   27.3994 C   0  0  0  0  0  0  0  0  0  0  0  0
    7.0946  -11.9936   27.9050 C   0  0  0  0  0  0  0  0  0  0  0  0
    7.7542  -12.9937   27.1958 C   0  0  0  0  0  0  0  0  0  0  0  0
    7.4011  -16.1268   23.5764 C   0  0  0  0  0  0  0  0  0  0  0  0
    7.4972  -17.4073   23.5116 O   0  0  0  0  0  0  0  0  0  0  0  0
    7.7411  -15.3872   22.4118 N   0  0  0  0  0  0  0  0  0  0  0  0
    7.4243  -14.0119   22.1587 C   0  0  0  0  0  0  0  0  0  0  0  0
    8.0008  -13.6735   20.7790 C   0  0  0  0  0  0  0  0  0  0  0  0
    8.0807  -15.0593   20.1389 C   0  0  0  0  0  0  0  0  0  0  0  0
    8.4812  -15.9359   21.2830 C   0  0  1  0  0  0  0  0  0  0  0  0
    9.9221  -15.8347   21.5748 C   0  0  0  0  0  0  0  0  0  0  0  0
   10.3491  -14.8436   22.2161 O   0  0  0  0  0  0  0  0  0  0  0  0
   11.5490  -19.0155   25.7390 N   0  0  0  0  0  0  0  0  0  0  0  0
   11.7037  -19.8302   24.5967 C   0  0  0  0  0  0  0  0  0  0  0  0
   12.1236  -21.0105   24.7460 O   0  0  0  0  0  0  0  0  0  0  0  0
   11.3704  -19.2749   23.2764 C   0  0  0  0  0  0  0  0  0  0  0  0
   11.4650  -17.7486   23.2921 C   0  0  0  0  0  0  0  0  0  0  0  0
   11.9669  -17.2460   21.9460 C   0  0  2  0  0  0  0  0  0  0  0  0
   10.8504  -16.8501   21.1391 N   0  0  0  0  0  0  0  0  0  0  0  0
   12.8053  -18.2657   21.2719 C   0  0  0  0  0  0  0  0  0  0  0  0
   14.1698  -18.3854   21.5113 O   0  0  0  0  0  0  0  0  0  0  0  0
   12.2949  -19.0651   20.4500 O   0  0  0  0  0  0  0  0  0  0  0  0
  2  1  1  1
  2  3  1  0
  4  3  1  0
  5  4  2  0
  6  5  1  0
  7  6  2  0
  7  8  1  0
  8  9  2  0
  9  4  1  0
 10 11  2  0
 10  2  1  0
 12 10  1  0
 13 12  1  0
 14 13  1  0
 15 14  1  0
 15 16  1  0
 16 12  1  0
 17 18  2  0
 16 17  1  1
 20 19  1  0
 21 20  2  0
 22 20  1  0
 23 22  1  0
 24 23  1  1
 24 25  1  0
 25 17  1  0
 26 24  1  0
 27 26  1  0
 28 26  2  0
M  END
$$$$
