FPQ.pdb
     RDKit          3D

 28 29  0  0  1  0  0  0  0  0999 V2000
    5.1110  -17.4585   24.8565 N   0  0  0  0  0  0  0  0  0  0  0  0
    5.9836  -16.3462   24.8806 C   0  0  1  0  0  0  0  0  0  0  0  0
    6.6018  -16.1043   26.2251 C   0  0  0  0  0  0  0  0  0  0  0  0
    6.8233  -14.6766   26.4409 C   0  0  0  0  0  0  0  0  0  0  0  0
    5.6865  -13.8669   26.5053 C   0  0  0  0  0  0  0  0  0  0  0  0
    5.8535  -12.5235   26.6944 C   0  0  0  0  0  0  0  0  0  0  0  0
    7.0851  -11.9360   26.8237 C   0  0  0  0  0  0  0  0  0  0  0  0
    8.1852  -12.7517   26.7568 C   0  0  0  0  0  0  0  0  0  0  0  0
    8.0684  -14.1257   26.5651 C   0  0  0  0  0  0  0  0  0  0  0  0
    7.0948  -16.5433   23.9182 C   0  0  0  0  0  0  0  0  0  0  0  0
    7.6070  -17.7126   23.7648 O   0  0  0  0  0  0  0  0  0  0  0  0
    7.6372  -15.4861   23.1390 N   0  0  0  0  0  0  0  0  0  0  0  0
    7.3760  -14.0867   23.3105 C   0  0  0  0  0  0  0  0  0  0  0  0
    8.1870  -13.3522   22.2367 C   0  0  0  0  0  0  0  0  0  0  0  0
    8.3714  -14.4542   21.1935 C   0  0  0  0  0  0  0  0  0  0  0  0
    8.5610  -15.6803   22.0292 C   0  0  1  0  0  0  0  0  0  0  0  0
    9.9289  -15.7709   22.5697 C   0  0  0  0  0  0  0  0  0  0  0  0
   10.2642  -15.0187   23.5173 O   0  0  0  0  0  0  0  0  0  0  0  0
   13.6310  -19.9981   19.0480 N   0  0  0  0  0  0  0  0  0  0  0  0
   13.4038  -19.7547   20.4198 C   0  0  0  0  0  0  0  0  0  0  0  0
   13.6330  -20.6802   21.2459 O   0  0  0  0  0  0  0  0  0  0  0  0
   12.9091  -18.4338   20.8355 C   0  0  0  0  0  0  0  0  0  0  0  0
   12.5453  -18.4354   22.3209 C   0  0  0  0  0  0  0  0  0  0  0  0
   12.0854  -17.0476   22.7440 C   0  0  2  0  0  0  0  0  0  0  0  0
   10.8890  -16.7051   22.0330 N   0  0  0  0  0  0  0  0  0  0  0  0
   13.1573  -16.0437   22.5436 C   0  0  0  0  0  0  0  0  0  0  0  0
   13.0973  -15.0789   21.5439 O   0  0  0  0  0  0  0  0  0  0  0  0
   14.1686  -16.0376   23.2867 O   0  0  0  0  0  0  0  0  0  0  0  0
  2  1  1  1
  2  3  1  0
  4  3  1  0
  5  4  2  0
  6  5  1  0
  7  6  2  0
  7  8  1  0
  8  9  2  0
  9  4  1  0
 10 11  2  0
 10  2  1  0
 12 10  1  0
 13 12  1  0
 14 13  1  0
 15 14  1  0
 15 16  1  0
 16 12  1  0
 17 18  2  0
 16 17  1  1
 20 19  1  0
 21 20  2  0
 22 20  1  0
 23 22  1  0
 24 23  1  6
 24 25  1  0
 25 17  1  0
 26 24  1  0
 27 26  1  0
 28 26  2  0
M  END
$$$$
