FPQ.pdb
     RDKit          3D

 28 29  0  0  1  0  0  0  0  0999 V2000
    7.1727  -17.5136   26.5902 N   0  0  0  0  0  0  0  0  0  0  0  0
    6.7134  -16.7987   25.4601 C   0  0  1  0  0  0  0  0  0  0  0  0
    6.3766  -15.3682   25.7579 C   0  0  0  0  0  0  0  0  0  0  0  0
    7.4434  -14.7381   26.5316 C   0  0  0  0  0  0  0  0  0  0  0  0
    8.2717  -15.5884   27.2686 C   0  0  0  0  0  0  0  0  0  0  0  0
    9.2744  -15.0352   28.0148 C   0  0  0  0  0  0  0  0  0  0  0  0
    9.5035  -13.6850   28.0721 C   0  0  0  0  0  0  0  0  0  0  0  0
    8.6771  -12.8716   27.3403 C   0  0  0  0  0  0  0  0  0  0  0  0
    7.6415  -13.3857   26.5648 C   0  0  0  0  0  0  0  0  0  0  0  0
    7.7504  -16.7914   24.3997 C   0  0  0  0  0  0  0  0  0  0  0  0
    8.6099  -17.7459   24.3405 O   0  0  0  0  0  0  0  0  0  0  0  0
    7.8487  -15.7634   23.4238 N   0  0  0  0  0  0  0  0  0  0  0  0
    7.0721  -14.5588   23.3806 C   0  0  0  0  0  0  0  0  0  0  0  0
    7.5424  -13.7752   22.1497 C   0  0  0  0  0  0  0  0  0  0  0  0
    8.1358  -14.8922   21.2913 C   0  0  0  0  0  0  0  0  0  0  0  0
    8.7784  -15.7882   22.3022 C   0  0  1  0  0  0  0  0  0  0  0  0
   10.0761  -15.2600   22.7587 C   0  0  0  0  0  0  0  0  0  0  0  0
   10.1004  -14.2276   23.4725 O   0  0  0  0  0  0  0  0  0  0  0  0
   12.4390  -16.4594   27.9174 N   0  0  0  0  0  0  0  0  0  0  0  0
   12.1088  -17.3867   26.9056 C   0  0  0  0  0  0  0  0  0  0  0  0
   11.2638  -18.2878   27.1613 O   0  0  0  0  0  0  0  0  0  0  0  0
   12.7604  -17.2690   25.5925 C   0  0  0  0  0  0  0  0  0  0  0  0
   11.7231  -17.0391   24.4926 C   0  0  0  0  0  0  0  0  0  0  0  0
   12.3248  -16.1914   23.3809 C   0  0  2  0  0  0  0  0  0  0  0  0
   11.3173  -15.9044   22.4026 N   0  0  0  0  0  0  0  0  0  0  0  0
   13.5075  -16.8543   22.7820 C   0  0  0  0  0  0  0  0  0  0  0  0
   13.4896  -17.3959   21.5014 O   0  0  0  0  0  0  0  0  0  0  0  0
   14.5792  -16.9461   23.4286 O   0  0  0  0  0  0  0  0  0  0  0  0
  2  1  1  1
  2  3  1  0
  4  3  1  0
  5  4  2  0
  6  5  1  0
  7  6  2  0
  7  8  1  0
  8  9  2  0
  9  4  1  0
 10 11  2  0
 10  2  1  0
 12 10  1  0
 13 12  1  0
 14 13  1  0
 15 14  1  0
 15 16  1  0
 16 12  1  0
 17 18  2  0
 16 17  1  1
 20 19  1  0
 21 20  2  0
 22 20  1  0
 23 22  1  0
 24 23  1  1
 24 25  1  0
 25 17  1  0
 26 24  1  0
 27 26  1  0
 28 26  2  0
M  END
$$$$
