FPQ.pdb
     RDKit          3D

 28 29  0  0  1  0  0  0  0  0999 V2000
    6.5569  -16.3158   25.7915 N   0  0  0  0  0  0  0  0  0  0  0  0
    6.8985  -15.4057   24.7648 C   0  0  1  0  0  0  0  0  0  0  0  0
    7.9157  -14.3879   25.1865 C   0  0  0  0  0  0  0  0  0  0  0  0
    7.3276  -13.4259   26.1153 C   0  0  0  0  0  0  0  0  0  0  0  0
    6.1142  -12.8466   25.7352 C   0  0  0  0  0  0  0  0  0  0  0  0
    5.5383  -11.9326   26.5727 C   0  0  0  0  0  0  0  0  0  0  0  0
    6.0973  -11.5597   27.7674 C   0  0  0  0  0  0  0  0  0  0  0  0
    7.2880  -12.1422   28.1178 C   0  0  0  0  0  0  0  0  0  0  0  0
    7.9151  -13.0779   27.2996 C   0  0  0  0  0  0  0  0  0  0  0  0
    7.4633  -16.1314   23.6011 C   0  0  0  0  0  0  0  0  0  0  0  0
    7.6266  -17.4053   23.6609 O   0  0  0  0  0  0  0  0  0  0  0  0
    7.8433  -15.4807   22.3965 N   0  0  0  0  0  0  0  0  0  0  0  0
    7.6277  -14.1001   22.0746 C   0  0  0  0  0  0  0  0  0  0  0  0
    8.2105  -13.8779   20.6741 C   0  0  0  0  0  0  0  0  0  0  0  0
    8.1776  -15.2969   20.1067 C   0  0  0  0  0  0  0  0  0  0  0  0
    8.5254  -16.1413   21.2915 C   0  0  1  0  0  0  0  0  0  0  0  0
    9.9734  -16.1349   21.5649 C   0  0  0  0  0  0  0  0  0  0  0  0
   10.4573  -15.2260   22.2830 O   0  0  0  0  0  0  0  0  0  0  0  0
   11.3565  -20.3546   25.2271 N   0  0  0  0  0  0  0  0  0  0  0  0
   11.2483  -19.0163   24.7914 C   0  0  0  0  0  0  0  0  0  0  0  0
   11.1674  -18.1017   25.6566 O   0  0  0  0  0  0  0  0  0  0  0  0
   11.2338  -18.7371   23.3477 C   0  0  0  0  0  0  0  0  0  0  0  0
   12.1453  -17.5547   23.0164 C   0  0  0  0  0  0  0  0  0  0  0  0
   12.1809  -17.3329   21.5110 C   0  0  2  0  0  0  0  0  0  0  0  0
   10.8449  -17.1505   21.0248 N   0  0  0  0  0  0  0  0  0  0  0  0
   12.8755  -18.4461   20.8216 C   0  0  0  0  0  0  0  0  0  0  0  0
   14.2381  -18.6804   20.9705 O   0  0  0  0  0  0  0  0  0  0  0  0
   12.2387  -19.2232   20.0695 O   0  0  0  0  0  0  0  0  0  0  0  0
  2  1  1  1
  2  3  1  0
  4  3  1  0
  5  4  2  0
  6  5  1  0
  7  6  2  0
  7  8  1  0
  8  9  2  0
  9  4  1  0
 10 11  2  0
 10  2  1  0
 12 10  1  0
 13 12  1  0
 14 13  1  0
 15 14  1  0
 15 16  1  0
 16 12  1  0
 17 18  2  0
 16 17  1  1
 20 19  1  0
 21 20  2  0
 22 20  1  0
 23 22  1  0
 24 23  1  1
 24 25  1  0
 25 17  1  0
 26 24  1  0
 27 26  1  0
 28 26  2  0
M  END
$$$$
