FPQ.pdb
     RDKit          3D

 28 29  0  0  1  0  0  0  0  0999 V2000
    6.8336  -17.2289   25.9879 N   0  0  0  0  0  0  0  0  0  0  0  0
    6.3452  -16.7568   24.7479 C   0  0  1  0  0  0  0  0  0  0  0  0
    5.7443  -15.3853   24.8286 C   0  0  0  0  0  0  0  0  0  0  0  0
    6.5342  -14.5279   25.7088 C   0  0  0  0  0  0  0  0  0  0  0  0
    7.8266  -14.9619   26.0148 C   0  0  0  0  0  0  0  0  0  0  0  0
    8.5926  -14.1924   26.8451 C   0  0  0  0  0  0  0  0  0  0  0  0
    8.1499  -13.0152   27.3902 C   0  0  0  0  0  0  0  0  0  0  0  0
    6.8783  -12.6109   27.0750 C   0  0  0  0  0  0  0  0  0  0  0  0
    6.0584  -13.3590   26.2345 C   0  0  0  0  0  0  0  0  0  0  0  0
    7.4431  -16.6946   23.7526 C   0  0  0  0  0  0  0  0  0  0  0  0
    8.3483  -17.6077   23.7424 O   0  0  0  0  0  0  0  0  0  0  0  0
    7.5522  -15.6570   22.7881 N   0  0  0  0  0  0  0  0  0  0  0  0
    6.8237  -14.4219   22.7860 C   0  0  0  0  0  0  0  0  0  0  0  0
    7.2866  -13.6394   21.5515 C   0  0  0  0  0  0  0  0  0  0  0  0
    7.8074  -14.7663   20.6596 C   0  0  0  0  0  0  0  0  0  0  0  0
    8.4446  -15.7022   21.6373 C   0  0  1  0  0  0  0  0  0  0  0  0
    9.7762  -15.2329   22.0594 C   0  0  0  0  0  0  0  0  0  0  0  0
    9.8698  -14.1708   22.7221 O   0  0  0  0  0  0  0  0  0  0  0  0
   11.7072  -19.4896   26.1887 N   0  0  0  0  0  0  0  0  0  0  0  0
   11.6002  -18.0864   26.0783 C   0  0  0  0  0  0  0  0  0  0  0  0
   10.9412  -17.4580   26.9515 O   0  0  0  0  0  0  0  0  0  0  0  0
   12.2594  -17.4091   24.9517 C   0  0  0  0  0  0  0  0  0  0  0  0
   11.2388  -17.0246   23.8797 C   0  0  0  0  0  0  0  0  0  0  0  0
   11.9390  -16.3245   22.7238 C   0  0  2  0  0  0  0  0  0  0  0  0
   10.9726  -15.9683   21.7271 N   0  0  0  0  0  0  0  0  0  0  0  0
   13.0262  -17.1647   22.1680 C   0  0  0  0  0  0  0  0  0  0  0  0
   14.3374  -17.0848   22.6243 O   0  0  0  0  0  0  0  0  0  0  0  0
   12.7871  -17.9879   21.2514 O   0  0  0  0  0  0  0  0  0  0  0  0
  2  1  1  1
  2  3  1  0
  4  3  1  0
  5  4  2  0
  6  5  1  0
  7  6  2  0
  7  8  1  0
  8  9  2  0
  9  4  1  0
 10 11  2  0
 10  2  1  0
 12 10  1  0
 13 12  1  0
 14 13  1  0
 15 14  1  0
 15 16  1  0
 16 12  1  0
 17 18  2  0
 16 17  1  1
 20 19  1  0
 21 20  2  0
 22 20  1  0
 23 22  1  0
 24 23  1  1
 24 25  1  0
 25 17  1  0
 26 24  1  0
 27 26  1  0
 28 26  2  0
M  END
$$$$
