FPQ.pdb
     RDKit          3D

 28 29  0  0  1  0  0  0  0  0999 V2000
    5.7797  -17.6218   25.3084 N   0  0  0  0  0  0  0  0  0  0  0  0
    6.4682  -16.4171   25.0365 C   0  0  1  0  0  0  0  0  0  0  0  0
    7.2622  -15.9097   26.2030 C   0  0  0  0  0  0  0  0  0  0  0  0
    7.0971  -14.4657   26.3493 C   0  0  0  0  0  0  0  0  0  0  0  0
    8.2648  -13.6986   26.3707 C   0  0  0  0  0  0  0  0  0  0  0  0
    8.1519  -12.3444   26.5180 C   0  0  0  0  0  0  0  0  0  0  0  0
    6.9456  -11.7061   26.6455 C   0  0  0  0  0  0  0  0  0  0  0  0
    5.8144  -12.4807   26.6217 C   0  0  0  0  0  0  0  0  0  0  0  0
    5.8760  -13.8637   26.4743 C   0  0  0  0  0  0  0  0  0  0  0  0
    7.4170  -16.6092   23.9129 C   0  0  0  0  0  0  0  0  0  0  0  0
    8.0229  -17.7347   23.7740 O   0  0  0  0  0  0  0  0  0  0  0  0
    7.7002  -15.5939   22.9601 N   0  0  0  0  0  0  0  0  0  0  0  0
    7.1702  -14.2615   22.9586 C   0  0  0  0  0  0  0  0  0  0  0  0
    7.7682  -13.5508   21.7389 C   0  0  0  0  0  0  0  0  0  0  0  0
    8.1244  -14.7380   20.8444 C   0  0  0  0  0  0  0  0  0  0  0  0
    8.5941  -15.7676   21.8227 C   0  0  1  0  0  0  0  0  0  0  0  0
    9.9748  -15.5116   22.2696 C   0  0  0  0  0  0  0  0  0  0  0  0
   10.1941  -14.5740   23.0750 O   0  0  0  0  0  0  0  0  0  0  0  0
   11.7625  -17.7201   26.4717 N   0  0  0  0  0  0  0  0  0  0  0  0
   11.4017  -18.6195   25.4452 C   0  0  0  0  0  0  0  0  0  0  0  0
   10.9446  -19.7514   25.7638 O   0  0  0  0  0  0  0  0  0  0  0  0
   11.5713  -18.2054   24.0444 C   0  0  0  0  0  0  0  0  0  0  0  0
   12.0528  -16.7561   23.9634 C   0  0  0  0  0  0  0  0  0  0  0  0
   12.3200  -16.3784   22.5134 C   0  0  2  0  0  0  0  0  0  0  0  0
   11.0778  -16.3156   21.8011 N   0  0  0  0  0  0  0  0  0  0  0  0
   13.2753  -17.3194   21.8819 C   0  0  0  0  0  0  0  0  0  0  0  0
   14.6155  -17.3785   22.2479 O   0  0  0  0  0  0  0  0  0  0  0  0
   12.8916  -18.1045   20.9810 O   0  0  0  0  0  0  0  0  0  0  0  0
  2  1  1  1
  2  3  1  0
  4  3  1  0
  5  4  2  0
  6  5  1  0
  7  6  2  0
  7  8  1  0
  8  9  2  0
  9  4  1  0
 10 11  2  0
 10  2  1  0
 12 10  1  0
 13 12  1  0
 14 13  1  0
 15 14  1  0
 15 16  1  0
 16 12  1  0
 17 18  2  0
 16 17  1  1
 20 19  1  0
 21 20  2  0
 22 20  1  0
 23 22  1  0
 24 23  1  1
 24 25  1  0
 25 17  1  0
 26 24  1  0
 27 26  1  0
 28 26  2  0
M  END
$$$$
