FPQ.pdb
     RDKit          3D

 28 29  0  0  1  0  0  0  0  0999 V2000
    6.5437  -17.0274   25.9287 N   0  0  0  0  0  0  0  0  0  0  0  0
    6.8859  -15.9577   25.0698 C   0  0  1  0  0  0  0  0  0  0  0  0
    7.9827  -15.0892   25.6096 C   0  0  0  0  0  0  0  0  0  0  0  0
    7.4423  -13.8268   26.1076 C   0  0  0  0  0  0  0  0  0  0  0  0
    8.1747  -13.1801   27.1065 C   0  0  0  0  0  0  0  0  0  0  0  0
    7.6950  -12.0019   27.6065 C   0  0  0  0  0  0  0  0  0  0  0  0
    6.5290  -11.4270   27.1721 C   0  0  0  0  0  0  0  0  0  0  0  0
    5.8284  -12.0809   26.1914 C   0  0  0  0  0  0  0  0  0  0  0  0
    6.2743  -13.2835   25.6498 C   0  0  0  0  0  0  0  0  0  0  0  0
    7.3456  -16.4773   23.7589 C   0  0  0  0  0  0  0  0  0  0  0  0
    7.4632  -17.7452   23.5802 O   0  0  0  0  0  0  0  0  0  0  0  0
    7.6712  -15.6313   22.6648 N   0  0  0  0  0  0  0  0  0  0  0  0
    7.4080  -14.2247   22.5736 C   0  0  0  0  0  0  0  0  0  0  0  0
    7.9424  -13.7637   21.2126 C   0  0  0  0  0  0  0  0  0  0  0  0
    7.9318  -15.0746   20.4263 C   0  0  0  0  0  0  0  0  0  0  0  0
    8.3381  -16.0853   21.4516 C   0  0  1  0  0  0  0  0  0  0  0  0
    9.7929  -16.0761   21.6861 C   0  0  0  0  0  0  0  0  0  0  0  0
   10.3179  -15.0791   22.2396 O   0  0  0  0  0  0  0  0  0  0  0  0
    9.9430  -19.4826   25.8648 N   0  0  0  0  0  0  0  0  0  0  0  0
   11.1242  -19.0940   25.1967 C   0  0  0  0  0  0  0  0  0  0  0  0
   12.1855  -18.9657   25.8666 O   0  0  0  0  0  0  0  0  0  0  0  0
   11.0752  -18.8534   23.7468 C   0  0  0  0  0  0  0  0  0  0  0  0
   11.7590  -17.5317   23.3944 C   0  0  0  0  0  0  0  0  0  0  0  0
   11.9108  -17.4124   21.8847 C   0  0  2  0  0  0  0  0  0  0  0  0
   10.6248  -17.1879   21.2931 N   0  0  0  0  0  0  0  0  0  0  0  0
   12.5822  -18.6060   21.3177 C   0  0  0  0  0  0  0  0  0  0  0  0
   11.9615  -19.4435   20.3974 O   0  0  0  0  0  0  0  0  0  0  0  0
   13.7536  -18.8984   21.6604 O   0  0  0  0  0  0  0  0  0  0  0  0
  2  1  1  1
  2  3  1  0
  4  3  1  0
  5  4  2  0
  6  5  1  0
  7  6  2  0
  7  8  1  0
  8  9  2  0
  9  4  1  0
 10 11  2  0
 10  2  1  0
 12 10  1  0
 13 12  1  0
 14 13  1  0
 15 14  1  0
 15 16  1  0
 16 12  1  0
 17 18  2  0
 16 17  1  1
 20 19  1  0
 21 20  2  0
 22 20  1  0
 23 22  1  0
 24 23  1  1
 24 25  1  0
 25 17  1  0
 26 24  1  0
 27 26  1  0
 28 26  2  0
M  END
$$$$
