FPQ.pdb
     RDKit          3D

 28 29  0  0  1  0  0  0  0  0999 V2000
    5.9213  -16.6341   24.8433 N   0  0  0  0  0  0  0  0  0  0  0  0
    6.7184  -15.5777   24.3455 C   0  0  1  0  0  0  0  0  0  0  0  0
    7.8430  -15.1985   25.2620 C   0  0  0  0  0  0  0  0  0  0  0  0
    7.6436  -13.8522   25.7925 C   0  0  0  0  0  0  0  0  0  0  0  0
    8.7430  -12.9909   25.7508 C   0  0  0  0  0  0  0  0  0  0  0  0
    8.5990  -11.7262   26.2487 C   0  0  0  0  0  0  0  0  0  0  0  0
    7.4253  -11.2656   26.7865 C   0  0  0  0  0  0  0  0  0  0  0  0
    6.3611  -12.1296   26.8162 C   0  0  0  0  0  0  0  0  0  0  0  0
    6.4568  -13.4277   26.3221 C   0  0  0  0  0  0  0  0  0  0  0  0
    7.3236  -15.9583   23.0460 C   0  0  0  0  0  0  0  0  0  0  0  0
    7.4910  -17.2003   22.7588 O   0  0  0  0  0  0  0  0  0  0  0  0
    7.7387  -15.0034   22.0791 N   0  0  0  0  0  0  0  0  0  0  0  0
    7.6097  -13.5793   22.1849 C   0  0  0  0  0  0  0  0  0  0  0  0
    8.1991  -12.9867   20.8996 C   0  0  0  0  0  0  0  0  0  0  0  0
    8.0738  -14.1691   19.9389 C   0  0  0  0  0  0  0  0  0  0  0  0
    8.3727  -15.3459   20.8128 C   0  0  1  0  0  0  0  0  0  0  0  0
    9.8194  -15.5067   21.0424 C   0  0  0  0  0  0  0  0  0  0  0  0
   10.4195  -14.6797   21.7717 O   0  0  0  0  0  0  0  0  0  0  0  0
   14.0427  -13.4524   18.3893 N   0  0  0  0  0  0  0  0  0  0  0  0
   14.6743  -14.6273   18.8509 C   0  0  0  0  0  0  0  0  0  0  0  0
   15.7321  -15.0112   18.2806 O   0  0  0  0  0  0  0  0  0  0  0  0
   14.0777  -15.3601   19.9777 C   0  0  0  0  0  0  0  0  0  0  0  0
   12.5518  -15.3597   19.8758 C   0  0  0  0  0  0  0  0  0  0  0  0
   11.9910  -16.6383   20.4818 C   0  0  2  0  0  0  0  0  0  0  0  0
   10.5588  -16.5935   20.4470 N   0  0  0  0  0  0  0  0  0  0  0  0
   12.5066  -16.8515   21.8550 C   0  0  0  0  0  0  0  0  0  0  0  0
   12.1731  -16.0150   22.9146 O   0  0  0  0  0  0  0  0  0  0  0  0
   13.2741  -17.8130   22.1030 O   0  0  0  0  0  0  0  0  0  0  0  0
  2  1  1  1
  2  3  1  0
  4  3  1  0
  5  4  2  0
  6  5  1  0
  7  6  2  0
  7  8  1  0
  8  9  2  0
  9  4  1  0
 10 11  2  0
 10  2  1  0
 12 10  1  0
 13 12  1  0
 14 13  1  0
 15 14  1  0
 15 16  1  0
 16 12  1  0
 17 18  2  0
 16 17  1  1
 20 19  1  0
 21 20  2  0
 22 20  1  0
 23 22  1  0
 24 23  1  1
 24 25  1  0
 25 17  1  0
 26 24  1  0
 27 26  1  0
 28 26  2  0
M  END
$$$$
