FPQ.pdb
     RDKit          3D

 28 29  0  0  1  0  0  0  0  0999 V2000
    5.6470  -17.6341   25.4150 N   0  0  0  0  0  0  0  0  0  0  0  0
    6.3768  -16.4386   25.2219 C   0  0  1  0  0  0  0  0  0  0  0  0
    7.0350  -15.9352   26.4716 C   0  0  0  0  0  0  0  0  0  0  0  0
    7.0776  -14.4751   26.4791 C   0  0  0  0  0  0  0  0  0  0  0  0
    8.3311  -13.8820   26.3076 C   0  0  0  0  0  0  0  0  0  0  0  0
    8.4134  -12.5177   26.3206 C   0  0  0  0  0  0  0  0  0  0  0  0
    7.3223  -11.7063   26.4940 C   0  0  0  0  0  0  0  0  0  0  0  0
    6.1035  -12.3122   26.6603 C   0  0  0  0  0  0  0  0  0  0  0  0
    5.9669  -13.6977   26.6552 C   0  0  0  0  0  0  0  0  0  0  0  0
    7.4482  -16.6466   24.2175 C   0  0  0  0  0  0  0  0  0  0  0  0
    8.1526  -17.7217   24.2485 O   0  0  0  0  0  0  0  0  0  0  0  0
    7.7459  -15.7006   23.1999 N   0  0  0  0  0  0  0  0  0  0  0  0
    7.0813  -14.4481   22.9864 C   0  0  0  0  0  0  0  0  0  0  0  0
    7.7575  -13.7908   21.7777 C   0  0  0  0  0  0  0  0  0  0  0  0
    8.3555  -15.0067   21.0702 C   0  0  0  0  0  0  0  0  0  0  0  0
    8.7975  -15.8735   22.2064 C   0  0  1  0  0  0  0  0  0  0  0  0
   10.0705  -15.4114   22.7874 C   0  0  0  0  0  0  0  0  0  0  0  0
   10.3023  -14.1794   22.8532 O   0  0  0  0  0  0  0  0  0  0  0  0
   10.7588  -14.5285   27.8284 N   0  0  0  0  0  0  0  0  0  0  0  0
   10.8671  -15.9277   27.6768 C   0  0  0  0  0  0  0  0  0  0  0  0
   10.5667  -16.6684   28.6529 O   0  0  0  0  0  0  0  0  0  0  0  0
   11.3253  -16.4705   26.3892 C   0  0  0  0  0  0  0  0  0  0  0  0
   11.6211  -15.3415   25.4009 C   0  0  0  0  0  0  0  0  0  0  0  0
   12.1531  -15.9193   24.0972 C   0  0  2  0  0  0  0  0  0  0  0  0
   11.0541  -16.3447   23.2814 N   0  0  0  0  0  0  0  0  0  0  0  0
   13.1144  -17.0185   24.3510 C   0  0  0  0  0  0  0  0  0  0  0  0
   14.3856  -16.7926   24.8676 O   0  0  0  0  0  0  0  0  0  0  0  0
   12.7998  -18.2075   24.1013 O   0  0  0  0  0  0  0  0  0  0  0  0
  2  1  1  1
  2  3  1  0
  4  3  1  0
  5  4  2  0
  6  5  1  0
  7  6  2  0
  7  8  1  0
  8  9  2  0
  9  4  1  0
 10 11  2  0
 10  2  1  0
 12 10  1  0
 13 12  1  0
 14 13  1  0
 15 14  1  0
 15 16  1  0
 16 12  1  0
 17 18  2  0
 16 17  1  1
 20 19  1  0
 21 20  2  0
 22 20  1  0
 23 22  1  0
 24 23  1  1
 24 25  1  0
 25 17  1  0
 26 24  1  0
 27 26  1  0
 28 26  2  0
M  END
$$$$
