FPQ.pdb
     RDKit          3D

 28 29  0  0  1  0  0  0  0  0999 V2000
    6.4254  -17.4438   25.8189 N   0  0  0  0  0  0  0  0  0  0  0  0
    6.8945  -16.2473   25.2295 C   0  0  1  0  0  0  0  0  0  0  0  0
    7.8680  -15.5012   26.0922 C   0  0  0  0  0  0  0  0  0  0  0  0
    7.3461  -14.1805   26.4343 C   0  0  0  0  0  0  0  0  0  0  0  0
    8.2822  -13.2113   26.8042 C   0  0  0  0  0  0  0  0  0  0  0  0
    7.8315  -11.9662   27.1429 C   0  0  0  0  0  0  0  0  0  0  0  0
    6.5036  -11.6262   27.1357 C   0  0  0  0  0  0  0  0  0  0  0  0
    5.6047  -12.5946   26.7693 C   0  0  0  0  0  0  0  0  0  0  0  0
    6.0130  -13.8778   26.4160 C   0  0  0  0  0  0  0  0  0  0  0  0
    7.5817  -16.5400   23.9482 C   0  0  0  0  0  0  0  0  0  0  0  0
    8.0677  -17.7115   23.7373 O   0  0  0  0  0  0  0  0  0  0  0  0
    7.7365  -15.5742   22.9175 N   0  0  0  0  0  0  0  0  0  0  0  0
    7.2263  -14.2342   22.9282 C   0  0  0  0  0  0  0  0  0  0  0  0
    7.6511  -13.5903   21.6033 C   0  0  0  0  0  0  0  0  0  0  0  0
    7.8627  -14.8231   20.7247 C   0  0  0  0  0  0  0  0  0  0  0  0
    8.4564  -15.8152   21.6740 C   0  0  1  0  0  0  0  0  0  0  0  0
    9.8895  -15.5634   21.9068 C   0  0  0  0  0  0  0  0  0  0  0  0
   10.2303  -14.6560   22.7046 O   0  0  0  0  0  0  0  0  0  0  0  0
   10.9587  -20.0398   24.8949 N   0  0  0  0  0  0  0  0  0  0  0  0
   12.0706  -19.1806   25.0290 C   0  0  0  0  0  0  0  0  0  0  0  0
   12.5986  -19.0453   26.1667 O   0  0  0  0  0  0  0  0  0  0  0  0
   12.5725  -18.4758   23.8399 C   0  0  0  0  0  0  0  0  0  0  0  0
   11.4374  -17.7359   23.1306 C   0  0  0  0  0  0  0  0  0  0  0  0
   11.9906  -16.9395   21.9574 C   0  0  2  0  0  0  0  0  0  0  0  0
   10.9072  -16.3373   21.2377 N   0  0  0  0  0  0  0  0  0  0  0  0
   12.8339  -17.7890   21.0833 C   0  0  0  0  0  0  0  0  0  0  0  0
   12.3121  -18.8407   20.3382 O   0  0  0  0  0  0  0  0  0  0  0  0
   14.0674  -17.5769   20.9905 O   0  0  0  0  0  0  0  0  0  0  0  0
  2  1  1  1
  2  3  1  0
  4  3  1  0
  5  4  2  0
  6  5  1  0
  7  6  2  0
  7  8  1  0
  8  9  2  0
  9  4  1  0
 10 11  2  0
 10  2  1  0
 12 10  1  0
 13 12  1  0
 14 13  1  0
 15 14  1  0
 15 16  1  0
 16 12  1  0
 17 18  2  0
 16 17  1  1
 20 19  1  0
 21 20  2  0
 22 20  1  0
 23 22  1  0
 24 23  1  1
 24 25  1  0
 25 17  1  0
 26 24  1  0
 27 26  1  0
 28 26  2  0
M  END
$$$$
