EYE.pdb
     RDKit          3D

 31 31  0  0  1  0  0  0  0  0999 V2000
   23.6528   -9.3085  -20.4310 N   0  0  0  0  0  0  0  0  0  0  0  0
   22.8984  -10.1486  -19.4848 C   0  0  1  0  0  0  0  0  0  0  0  0
   23.5356  -11.5123  -19.5796 C   0  0  0  0  0  0  0  0  0  0  0  0
   24.7753  -11.4490  -20.4045 C   0  0  0  0  0  0  0  0  0  0  0  0
   25.3818  -12.8074  -20.5409 C   0  0  0  0  0  0  0  0  0  0  0  0
   25.4169  -13.4137  -21.6496 O   0  0  0  0  0  0  0  0  0  0  0  0
   22.9163   -9.5488  -18.1381 C   0  0  0  0  0  0  0  0  0  0  0  0
   22.3225  -10.1265  -17.1970 O   0  0  0  0  0  0  0  0  0  0  0  0
   25.9324  -13.4615  -19.4564 O   0  0  0  0  0  0  0  0  0  0  0  0
   28.2603  -12.1384  -16.2836 O   0  0  0  0  0  0  0  0  0  0  0  0
   27.4948  -10.9791  -16.2934 C   0  0  0  0  0  0  0  0  0  0  0  0
   26.6424  -10.7015  -15.2475 C   0  0  0  0  0  0  0  0  0  0  0  0
   25.8934   -9.5545  -15.2707 C   0  0  0  0  0  0  0  0  0  0  0  0
   25.9753   -8.6701  -16.3214 C   0  0  0  0  0  0  0  0  0  0  0  0
   25.1857   -7.4218  -16.3889 C   0  0  0  0  0  0  0  0  0  0  0  0
   23.7058   -7.7171  -16.5998 C   0  0  2  0  0  0  0  0  0  0  0  0
   23.6013   -8.3299  -17.8933 N   0  0  0  0  0  0  0  0  0  0  0  0
   22.9197   -6.4654  -16.5712 C   0  0  0  0  0  0  0  0  0  0  0  0
   23.0653   -5.6761  -17.5281 O   0  0  0  0  0  0  0  0  0  0  0  0
   26.8402   -8.9658  -17.3678 C   0  0  0  0  0  0  0  0  0  0  0  0
   27.5992  -10.1161  -17.3570 C   0  0  0  0  0  0  0  0  0  0  0  0
   22.0364   -6.1478  -15.5247 N   0  0  0  0  0  0  0  0  0  0  0  0
   21.2229   -5.0035  -15.3655 C   0  0  1  0  0  0  0  0  0  0  0  0
   19.7206   -5.3065  -15.3687 C   0  0  0  0  0  0  0  0  0  0  0  0
   18.9256   -4.0380  -15.2184 C   0  0  0  0  0  0  0  0  0  0  0  0
   17.4743   -4.3514  -15.2733 C   0  0  0  0  0  0  0  0  0  0  0  0
   17.0918   -5.5253  -15.4226 O   0  0  0  0  0  0  0  0  0  0  0  0
   21.5758   -4.0537  -14.3312 C   0  0  0  0  0  0  0  0  0  0  0  0
   22.4006   -4.3402  -13.2391 O   0  0  0  0  0  0  0  0  0  0  0  0
   16.5539   -3.3283  -15.1570 O   0  0  0  0  0  0  0  0  0  0  0  0
   21.1258   -2.8828  -14.3901 O   0  0  0  0  0  0  0  0  0  0  0  0
  2  1  1  6
  2  3  1  0
  3  4  1  0
  4  5  1  0
  5  9  1  0
  6  5  2  0
  7  8  2  0
  7  2  1  0
 10 11  1  0
 11 12  2  0
 12 13  1  0
 14 13  2  0
 14 15  1  0
 16 15  1  6
 16 17  1  0
 17  7  1  0
 18 22  1  0
 18 16  1  0
 19 18  2  0
 20 14  1  0
 21 11  1  0
 21 20  2  0
 23 22  1  0
 23 28  1  0
 23 24  1  1
 25 24  1  0
 26 25  1  0
 27 26  2  0
 28 29  1  0
 30 26  1  0
 31 28  2  0
M  END
$$$$
