EYE.pdb
     RDKit          3D

 31 31  0  0  1  0  0  0  0  0999 V2000
   21.6669  -23.8147  -14.7834 N   0  0  0  0  0  0  0  0  0  0  0  0
   20.8677  -24.7102  -13.9293 C   0  0  1  0  0  0  0  0  0  0  0  0
   21.8725  -25.6249  -13.2747 C   0  0  0  0  0  0  0  0  0  0  0  0
   22.3890  -26.6171  -14.2595 C   0  0  0  0  0  0  0  0  0  0  0  0
   21.5256  -27.8361  -14.2747 C   0  0  0  0  0  0  0  0  0  0  0  0
   20.4814  -27.9225  -13.5674 O   0  0  0  0  0  0  0  0  0  0  0  0
   20.0423  -23.9256  -12.9930 C   0  0  0  0  0  0  0  0  0  0  0  0
   20.5095  -22.8779  -12.4868 O   0  0  0  0  0  0  0  0  0  0  0  0
   21.8330  -28.9255  -15.0658 O   0  0  0  0  0  0  0  0  0  0  0  0
   13.1467  -19.7948   -9.8658 O   0  0  0  0  0  0  0  0  0  0  0  0
   14.0228  -20.6127  -10.5683 C   0  0  0  0  0  0  0  0  0  0  0  0
   13.7756  -21.9635  -10.6762 C   0  0  0  0  0  0  0  0  0  0  0  0
   14.6484  -22.7581  -11.3720 C   0  0  0  0  0  0  0  0  0  0  0  0
   15.7715  -22.2326  -11.9681 C   0  0  0  0  0  0  0  0  0  0  0  0
   16.7404  -23.0519  -12.7272 C   0  0  0  0  0  0  0  0  0  0  0  0
   17.8398  -23.5877  -11.8182 C   0  0  2  0  0  0  0  0  0  0  0  0
   18.7250  -24.3385  -12.6622 N   0  0  0  0  0  0  0  0  0  0  0  0
   17.2673  -24.4694  -10.7789 C   0  0  0  0  0  0  0  0  0  0  0  0
   16.8000  -25.5658  -11.1524 O   0  0  0  0  0  0  0  0  0  0  0  0
   16.0053  -20.8682  -11.8493 C   0  0  0  0  0  0  0  0  0  0  0  0
   15.1355  -20.0577  -11.1522 C   0  0  0  0  0  0  0  0  0  0  0  0
   17.2356  -24.1173   -9.4183 N   0  0  0  0  0  0  0  0  0  0  0  0
   16.7020  -24.8383   -8.3265 C   0  0  1  0  0  0  0  0  0  0  0  0
   17.6624  -24.9638   -7.1387 C   0  0  0  0  0  0  0  0  0  0  0  0
   17.1430  -25.9650   -6.1430 C   0  0  0  0  0  0  0  0  0  0  0  0
   18.1285  -26.1299   -5.0435 C   0  0  0  0  0  0  0  0  0  0  0  0
   19.0941  -25.3524   -4.9454 O   0  0  0  0  0  0  0  0  0  0  0  0
   15.3551  -24.5272   -7.8960 C   0  0  0  0  0  0  0  0  0  0  0  0
   14.9837  -23.3484   -7.2420 O   0  0  0  0  0  0  0  0  0  0  0  0
   17.9632  -27.1537   -4.1314 O   0  0  0  0  0  0  0  0  0  0  0  0
   14.4335  -25.3529   -8.1098 O   0  0  0  0  0  0  0  0  0  0  0  0
  2  1  1  6
  2  3  1  0
  3  4  1  0
  4  5  1  0
  5  9  1  0
  6  5  2  0
  7  8  2  0
  7  2  1  0
 10 11  1  0
 11 12  2  0
 12 13  1  0
 14 13  2  0
 14 15  1  0
 16 15  1  6
 16 17  1  0
 17  7  1  0
 18 22  1  0
 18 16  1  0
 19 18  2  0
 20 14  1  0
 21 11  1  0
 21 20  2  0
 23 22  1  0
 23 28  1  0
 23 24  1  1
 25 24  1  0
 26 25  1  0
 27 26  2  0
 28 29  1  0
 30 26  1  0
 31 28  2  0
M  END
$$$$
