EYE.pdb
     RDKit          3D

 31 31  0  0  1  0  0  0  0  0999 V2000
   20.6432  -12.6032  -19.3613 N   0  0  0  0  0  0  0  0  0  0  0  0
   21.4398  -11.4845  -18.8280 C   0  0  1  0  0  0  0  0  0  0  0  0
   22.0752  -10.8462  -20.0377 C   0  0  0  0  0  0  0  0  0  0  0  0
   23.1055  -11.7517  -20.6207 C   0  0  0  0  0  0  0  0  0  0  0  0
   24.4062  -11.0332  -20.7733 C   0  0  0  0  0  0  0  0  0  0  0  0
   24.5530   -9.8337  -20.4026 O   0  0  0  0  0  0  0  0  0  0  0  0
   20.5899  -10.5845  -18.0274 C   0  0  0  0  0  0  0  0  0  0  0  0
   19.4118  -10.3599  -18.3934 O   0  0  0  0  0  0  0  0  0  0  0  0
   25.5090  -11.6521  -21.3286 O   0  0  0  0  0  0  0  0  0  0  0  0
   15.4765  -13.1560  -15.6166 O   0  0  0  0  0  0  0  0  0  0  0  0
   16.5953  -12.3587  -15.4103 C   0  0  0  0  0  0  0  0  0  0  0  0
   17.8596  -12.8864  -15.5538 C   0  0  0  0  0  0  0  0  0  0  0  0
   18.9539  -12.0884  -15.3471 C   0  0  0  0  0  0  0  0  0  0  0  0
   18.8158  -10.7648  -14.9977 C   0  0  0  0  0  0  0  0  0  0  0  0
   19.9676   -9.8676  -14.7639 C   0  0  0  0  0  0  0  0  0  0  0  0
   20.3194   -9.0838  -16.0224 C   0  0  2  0  0  0  0  0  0  0  0  0
   21.0866   -9.9741  -16.8459 N   0  0  0  0  0  0  0  0  0  0  0  0
   21.1264   -7.8931  -15.6811 C   0  0  0  0  0  0  0  0  0  0  0  0
   22.3120   -8.0844  -15.3383 O   0  0  0  0  0  0  0  0  0  0  0  0
   17.5335  -10.2490  -14.8574 C   0  0  0  0  0  0  0  0  0  0  0  0
   16.4242  -11.0409  -15.0623 C   0  0  0  0  0  0  0  0  0  0  0  0
   20.6099   -6.5866  -15.7309 N   0  0  0  0  0  0  0  0  0  0  0  0
   21.2526   -5.3653  -15.4277 C   0  0  1  0  0  0  0  0  0  0  0  0
   20.4330   -4.1251  -15.8007 C   0  0  0  0  0  0  0  0  0  0  0  0
   21.2256   -2.8720  -15.5457 C   0  0  0  0  0  0  0  0  0  0  0  0
   20.3842   -1.6831  -15.8391 C   0  0  0  0  0  0  0  0  0  0  0  0
   19.8320   -1.0623  -14.9137 O   0  0  0  0  0  0  0  0  0  0  0  0
   21.8744   -5.2256  -14.1276 C   0  0  0  0  0  0  0  0  0  0  0  0
   23.1301   -4.6516  -13.9066 O   0  0  0  0  0  0  0  0  0  0  0  0
   20.2204   -1.2733  -17.1477 O   0  0  0  0  0  0  0  0  0  0  0  0
   21.2698   -5.6388  -13.1076 O   0  0  0  0  0  0  0  0  0  0  0  0
  2  1  1  6
  2  3  1  0
  3  4  1  0
  4  5  1  0
  5  9  1  0
  6  5  2  0
  7  8  2  0
  7  2  1  0
 10 11  1  0
 11 12  2  0
 12 13  1  0
 14 13  2  0
 14 15  1  0
 16 15  1  1
 16 17  1  0
 17  7  1  0
 18 22  1  0
 18 16  1  0
 19 18  2  0
 20 14  1  0
 21 11  1  0
 21 20  2  0
 23 22  1  0
 23 28  1  0
 23 24  1  1
 25 24  1  0
 26 25  1  0
 27 26  2  0
 28 29  1  0
 30 26  1  0
 31 28  2  0
M  END
$$$$
