EYE.pdb
     RDKit          3D

 31 31  0  0  1  0  0  0  0  0999 V2000
   21.8611  -12.9428  -15.9233 N   0  0  0  0  0  0  0  0  0  0  0  0
   21.2924  -11.7740  -16.6167 C   0  0  1  0  0  0  0  0  0  0  0  0
   19.8208  -11.8030  -16.2881 C   0  0  0  0  0  0  0  0  0  0  0  0
   19.1495  -12.9187  -17.0133 C   0  0  0  0  0  0  0  0  0  0  0  0
   18.7663  -12.4898  -18.3920 C   0  0  0  0  0  0  0  0  0  0  0  0
   19.0636  -13.1765  -19.4108 O   0  0  0  0  0  0  0  0  0  0  0  0
   21.9940  -10.5432  -16.2088 C   0  0  0  0  0  0  0  0  0  0  0  0
   22.2496  -10.3511  -14.9964 O   0  0  0  0  0  0  0  0  0  0  0  0
   18.0676  -11.3192  -18.6130 O   0  0  0  0  0  0  0  0  0  0  0  0
   27.7919  -12.2832  -15.5144 O   0  0  0  0  0  0  0  0  0  0  0  0
   26.9473  -11.2941  -16.0026 C   0  0  0  0  0  0  0  0  0  0  0  0
   26.7542  -10.1319  -15.2888 C   0  0  0  0  0  0  0  0  0  0  0  0
   25.9183   -9.1650  -15.7824 C   0  0  0  0  0  0  0  0  0  0  0  0
   25.2648   -9.3315  -16.9817 C   0  0  0  0  0  0  0  0  0  0  0  0
   24.3534   -8.3161  -17.5516 C   0  0  0  0  0  0  0  0  0  0  0  0
   23.0058   -8.3246  -16.8405 C   0  0  2  0  0  0  0  0  0  0  0  0
   22.3877   -9.5768  -17.1712 N   0  0  0  0  0  0  0  0  0  0  0  0
   22.1634   -7.2067  -17.3160 C   0  0  0  0  0  0  0  0  0  0  0  0
   21.6032   -7.3432  -18.4239 O   0  0  0  0  0  0  0  0  0  0  0  0
   25.4710  -10.5097  -17.6884 C   0  0  0  0  0  0  0  0  0  0  0  0
   26.3092  -11.4903  -17.2032 C   0  0  0  0  0  0  0  0  0  0  0  0
   21.9802   -6.0261  -16.5752 N   0  0  0  0  0  0  0  0  0  0  0  0
   21.0742   -4.9660  -16.8032 C   0  0  1  0  0  0  0  0  0  0  0  0
   19.6446   -5.4279  -17.1063 C   0  0  0  0  0  0  0  0  0  0  0  0
   18.8929   -5.6914  -15.8299 C   0  0  0  0  0  0  0  0  0  0  0  0
   17.4972   -6.0891  -16.1479 C   0  0  0  0  0  0  0  0  0  0  0  0
   17.1533   -7.2821  -16.0749 O   0  0  0  0  0  0  0  0  0  0  0  0
   21.0922   -3.8440  -15.8882 C   0  0  0  0  0  0  0  0  0  0  0  0
   20.3708   -2.6602  -16.0707 O   0  0  0  0  0  0  0  0  0  0  0  0
   16.5850   -5.1232  -16.5251 O   0  0  0  0  0  0  0  0  0  0  0  0
   21.7947   -3.9071  -14.8494 O   0  0  0  0  0  0  0  0  0  0  0  0
  2  1  1  1
  2  3  1  0
  3  4  1  0
  4  5  1  0
  5  9  1  0
  6  5  2  0
  7  8  2  0
  7  2  1  0
 10 11  1  0
 11 12  2  0
 12 13  1  0
 14 13  2  0
 14 15  1  0
 16 15  1  6
 16 17  1  0
 17  7  1  0
 18 22  1  0
 18 16  1  0
 19 18  2  0
 20 14  1  0
 21 11  1  0
 21 20  2  0
 23 22  1  0
 23 28  1  0
 23 24  1  1
 25 24  1  0
 26 25  1  0
 27 26  2  0
 28 29  1  0
 30 26  1  0
 31 28  2  0
M  END
$$$$
