EYE.pdb
     RDKit          3D

 31 31  0  0  1  0  0  0  0  0999 V2000
   38.4474  -34.9270   -0.2158 N   0  0  0  0  0  0  0  0  0  0  0  0
   37.6624  -35.8091   -1.0966 C   0  0  1  0  0  0  0  0  0  0  0  0
   37.8587  -37.1955   -0.5362 C   0  0  0  0  0  0  0  0  0  0  0  0
   39.1933  -37.7296   -0.9296 C   0  0  0  0  0  0  0  0  0  0  0  0
   39.1501  -38.2694   -2.3218 C   0  0  0  0  0  0  0  0  0  0  0  0
   40.0532  -38.0078   -3.1668 O   0  0  0  0  0  0  0  0  0  0  0  0
   36.2600  -35.3584   -1.1574 C   0  0  0  0  0  0  0  0  0  0  0  0
   35.7510  -34.7888   -0.1632 O   0  0  0  0  0  0  0  0  0  0  0  0
   38.1167  -39.0810   -2.7469 O   0  0  0  0  0  0  0  0  0  0  0  0
   28.4076  -34.0787   -4.9507 O   0  0  0  0  0  0  0  0  0  0  0  0
   29.7629  -34.2632   -4.7073 C   0  0  0  0  0  0  0  0  0  0  0  0
   30.5157  -35.0596   -5.5418 C   0  0  0  0  0  0  0  0  0  0  0  0
   31.8512  -35.2327   -5.2896 C   0  0  0  0  0  0  0  0  0  0  0  0
   32.4589  -34.6247   -4.2153 C   0  0  0  0  0  0  0  0  0  0  0  0
   33.8957  -34.7840   -3.9045 C   0  0  0  0  0  0  0  0  0  0  0  0
   34.1037  -35.1742   -2.4463 C   0  0  2  0  0  0  0  0  0  0  0  0
   35.4819  -35.5564   -2.3280 N   0  0  0  0  0  0  0  0  0  0  0  0
   33.2330  -36.3135   -2.0867 C   0  0  0  0  0  0  0  0  0  0  0  0
   33.5384  -37.4343   -2.5454 O   0  0  0  0  0  0  0  0  0  0  0  0
   31.6846  -33.8249   -3.3840 C   0  0  0  0  0  0  0  0  0  0  0  0
   30.3402  -33.6424   -3.6264 C   0  0  0  0  0  0  0  0  0  0  0  0
   32.1013  -36.1738   -1.2645 N   0  0  0  0  0  0  0  0  0  0  0  0
   31.1705  -37.1569   -0.8601 C   0  0  1  0  0  0  0  0  0  0  0  0
   30.8883  -37.1599    0.6463 C   0  0  0  0  0  0  0  0  0  0  0  0
   30.0224  -38.3324    1.0192 C   0  0  0  0  0  0  0  0  0  0  0  0
   29.7106  -38.2785    2.4708 C   0  0  0  0  0  0  0  0  0  0  0  0
   30.0602  -37.2979    3.1510 O   0  0  0  0  0  0  0  0  0  0  0  0
   29.9553  -37.3055   -1.6332 C   0  0  0  0  0  0  0  0  0  0  0  0
   29.4373  -38.5289   -2.0692 O   0  0  0  0  0  0  0  0  0  0  0  0
   29.0292  -39.3263    3.0583 O   0  0  0  0  0  0  0  0  0  0  0  0
   29.2980  -36.2838   -1.9505 O   0  0  0  0  0  0  0  0  0  0  0  0
  2  1  1  1
  2  3  1  0
  3  4  1  0
  4  5  1  0
  5  9  1  0
  6  5  2  0
  7  8  2  0
  7  2  1  0
 10 11  1  0
 11 12  2  0
 12 13  1  0
 14 13  2  0
 14 15  1  0
 16 15  1  6
 16 17  1  0
 17  7  1  0
 18 22  1  0
 18 16  1  0
 19 18  2  0
 20 14  1  0
 21 11  1  0
 21 20  2  0
 23 22  1  0
 23 28  1  0
 23 24  1  1
 25 24  1  0
 26 25  1  0
 27 26  2  0
 28 29  1  0
 30 26  1  0
 31 28  2  0
M  END
$$$$
