EYE.pdb
     RDKit          3D

 31 31  0  0  1  0  0  0  0  0999 V2000
   20.3450  -32.6353   -9.5990 N   0  0  0  0  0  0  0  0  0  0  0  0
   20.9932  -32.5141   -8.2818 C   0  0  1  0  0  0  0  0  0  0  0  0
   19.9865  -33.0587   -7.2996 C   0  0  0  0  0  0  0  0  0  0  0  0
   18.8346  -32.1226   -7.1651 C   0  0  0  0  0  0  0  0  0  0  0  0
   17.5544  -32.8194   -7.4924 C   0  0  0  0  0  0  0  0  0  0  0  0
   16.4401  -32.2242   -7.4449 O   0  0  0  0  0  0  0  0  0  0  0  0
   22.2943  -33.2075   -8.2837 C   0  0  0  0  0  0  0  0  0  0  0  0
   22.6459  -33.8576   -9.2966 O   0  0  0  0  0  0  0  0  0  0  0  0
   17.5338  -34.1497   -7.8626 O   0  0  0  0  0  0  0  0  0  0  0  0
   25.4820  -33.4569  -13.4833 O   0  0  0  0  0  0  0  0  0  0  0  0
   25.3855  -33.1324  -12.1359 C   0  0  0  0  0  0  0  0  0  0  0  0
   24.4668  -32.1980  -11.7112 C   0  0  0  0  0  0  0  0  0  0  0  0
   24.3828  -31.8878  -10.3792 C   0  0  0  0  0  0  0  0  0  0  0  0
   25.2005  -32.4930   -9.4530 C   0  0  0  0  0  0  0  0  0  0  0  0
   25.1454  -32.1887   -8.0070 C   0  0  0  0  0  0  0  0  0  0  0  0
   24.5721  -33.3602   -7.2192 C   0  0  2  0  0  0  0  0  0  0  0  0
   23.1548  -33.1437   -7.1566 N   0  0  0  0  0  0  0  0  0  0  0  0
   25.1371  -33.3906   -5.8535 C   0  0  0  0  0  0  0  0  0  0  0  0
   24.8813  -32.4229   -5.1065 O   0  0  0  0  0  0  0  0  0  0  0  0
   26.1212  -33.4331   -9.8988 C   0  0  0  0  0  0  0  0  0  0  0  0
   26.2161  -33.7543  -11.2357 C   0  0  0  0  0  0  0  0  0  0  0  0
   25.9329  -34.4505   -5.3849 N   0  0  0  0  0  0  0  0  0  0  0  0
   26.4950  -34.6396   -4.1024 C   0  0  1  0  0  0  0  0  0  0  0  0
   27.2415  -35.9686   -3.9435 C   0  0  0  0  0  0  0  0  0  0  0  0
   27.6341  -36.1853   -2.5073 C   0  0  0  0  0  0  0  0  0  0  0  0
   28.3994  -37.4531   -2.3870 C   0  0  0  0  0  0  0  0  0  0  0  0
   28.9937  -37.9225   -3.3734 O   0  0  0  0  0  0  0  0  0  0  0  0
   27.2263  -33.5399   -3.5088 C   0  0  0  0  0  0  0  0  0  0  0  0
   27.1371  -33.1613   -2.1658 O   0  0  0  0  0  0  0  0  0  0  0  0
   28.4454  -38.1057   -1.1707 O   0  0  0  0  0  0  0  0  0  0  0  0
   28.0028  -32.8591   -4.2232 O   0  0  0  0  0  0  0  0  0  0  0  0
  2  1  1  6
  2  3  1  0
  3  4  1  0
  4  5  1  0
  5  9  1  0
  6  5  2  0
  7  8  2  0
  7  2  1  0
 10 11  1  0
 11 12  2  0
 12 13  1  0
 14 13  2  0
 14 15  1  0
 16 15  1  6
 16 17  1  0
 17  7  1  0
 18 22  1  0
 18 16  1  0
 19 18  2  0
 20 14  1  0
 21 11  1  0
 21 20  2  0
 23 22  1  0
 23 28  1  0
 23 24  1  6
 25 24  1  0
 26 25  1  0
 27 26  2  0
 28 29  1  0
 30 26  1  0
 31 28  2  0
M  END
$$$$
