EYE.pdb
     RDKit          3D

 31 31  0  0  1  0  0  0  0  0999 V2000
   27.0590  -20.4913  -17.0837 N   0  0  0  0  0  0  0  0  0  0  0  0
   26.6979  -21.9152  -16.9736 C   0  0  1  0  0  0  0  0  0  0  0  0
   28.0001  -22.6611  -17.1240 C   0  0  0  0  0  0  0  0  0  0  0  0
   28.8274  -22.0478  -18.2014 C   0  0  0  0  0  0  0  0  0  0  0  0
   30.0931  -22.8183  -18.3905 C   0  0  0  0  0  0  0  0  0  0  0  0
   31.0125  -22.4127  -19.1575 O   0  0  0  0  0  0  0  0  0  0  0  0
   25.9821  -22.1674  -15.7096 C   0  0  0  0  0  0  0  0  0  0  0  0
   25.5414  -23.3161  -15.4682 O   0  0  0  0  0  0  0  0  0  0  0  0
   30.3137  -24.0122  -17.7322 O   0  0  0  0  0  0  0  0  0  0  0  0
   23.3802  -20.8061   -7.4597 O   0  0  0  0  0  0  0  0  0  0  0  0
   24.0372  -20.7710   -8.6833 C   0  0  0  0  0  0  0  0  0  0  0  0
   25.3951  -20.9928   -8.7484 C   0  0  0  0  0  0  0  0  0  0  0  0
   26.0300  -20.9551   -9.9621 C   0  0  0  0  0  0  0  0  0  0  0  0
   25.3362  -20.6992  -11.1223 C   0  0  0  0  0  0  0  0  0  0  0  0
   25.9797  -20.6479  -12.4525 C   0  0  0  0  0  0  0  0  0  0  0  0
   25.1028  -21.3006  -13.5140 C   0  0  2  0  0  0  0  0  0  0  0  0
   25.7909  -21.1283  -14.7616 N   0  0  0  0  0  0  0  0  0  0  0  0
   23.7823  -20.6386  -13.5723 C   0  0  0  0  0  0  0  0  0  0  0  0
   23.7628  -19.4253  -13.8676 O   0  0  0  0  0  0  0  0  0  0  0  0
   23.9672  -20.4778  -11.0382 C   0  0  0  0  0  0  0  0  0  0  0  0
   23.3164  -20.5129   -9.8238 C   0  0  0  0  0  0  0  0  0  0  0  0
   22.5801  -21.3192  -13.3118 N   0  0  0  0  0  0  0  0  0  0  0  0
   21.3004  -21.1079  -13.8723 C   0  0  1  0  0  0  0  0  0  0  0  0
   21.3175  -20.8874  -15.3889 C   0  0  0  0  0  0  0  0  0  0  0  0
   19.9308  -20.5992  -15.8964 C   0  0  0  0  0  0  0  0  0  0  0  0
   20.0102  -19.7007  -17.0770 C   0  0  0  0  0  0  0  0  0  0  0  0
   21.1161  -19.3400  -17.5168 O   0  0  0  0  0  0  0  0  0  0  0  0
   20.2252  -21.9909  -13.4713 C   0  0  0  0  0  0  0  0  0  0  0  0
   18.8831  -21.6116  -13.3708 O   0  0  0  0  0  0  0  0  0  0  0  0
   18.8458  -19.2696  -17.6817 O   0  0  0  0  0  0  0  0  0  0  0  0
   20.4831  -23.1865  -13.1873 O   0  0  0  0  0  0  0  0  0  0  0  0
  2  1  1  1
  2  3  1  0
  3  4  1  0
  4  5  1  0
  5  9  1  0
  6  5  2  0
  7  8  2  0
  7  2  1  0
 10 11  1  0
 11 12  2  0
 12 13  1  0
 14 13  2  0
 14 15  1  0
 16 15  1  1
 16 17  1  0
 17  7  1  0
 18 22  1  0
 18 16  1  0
 19 18  2  0
 20 14  1  0
 21 11  1  0
 21 20  2  0
 23 22  1  0
 23 28  1  0
 23 24  1  6
 25 24  1  0
 26 25  1  0
 27 26  2  0
 28 29  1  0
 30 26  1  0
 31 28  2  0
M  END
$$$$
