EYE.pdb
     RDKit          3D

 31 31  0  0  1  0  0  0  0  0999 V2000
   27.9740  -34.0921   -6.2536 N   0  0  0  0  0  0  0  0  0  0  0  0
   28.1794  -35.5030   -5.8831 C   0  0  1  0  0  0  0  0  0  0  0  0
   28.3740  -36.2262   -7.1922 C   0  0  0  0  0  0  0  0  0  0  0  0
   27.0579  -36.4857   -7.8417 C   0  0  0  0  0  0  0  0  0  0  0  0
   26.8561  -37.9517   -8.0457 C   0  0  0  0  0  0  0  0  0  0  0  0
   26.6581  -38.7388   -7.0766 O   0  0  0  0  0  0  0  0  0  0  0  0
   29.3010  -35.6270   -4.9344 C   0  0  0  0  0  0  0  0  0  0  0  0
   29.6187  -36.7588   -4.4984 O   0  0  0  0  0  0  0  0  0  0  0  0
   26.8774  -38.5120   -9.3078 O   0  0  0  0  0  0  0  0  0  0  0  0
   36.3022  -32.8770   -0.3086 O   0  0  0  0  0  0  0  0  0  0  0  0
   35.2248  -32.9717   -1.1804 C   0  0  0  0  0  0  0  0  0  0  0  0
   33.9915  -32.4783   -0.8157 C   0  0  0  0  0  0  0  0  0  0  0  0
   32.9377  -32.5786   -1.6856 C   0  0  0  0  0  0  0  0  0  0  0  0
   33.0864  -33.1646   -2.9216 C   0  0  0  0  0  0  0  0  0  0  0  0
   31.9777  -33.2953   -3.8911 C   0  0  0  0  0  0  0  0  0  0  0  0
   31.1330  -34.5293   -3.5986 C   0  0  2  0  0  0  0  0  0  0  0  0
   30.0281  -34.4828   -4.5133 N   0  0  0  0  0  0  0  0  0  0  0  0
   30.6355  -34.4971   -2.2069 C   0  0  0  0  0  0  0  0  0  0  0  0
   29.6456  -33.7736   -1.9695 O   0  0  0  0  0  0  0  0  0  0  0  0
   34.3371  -33.6568   -3.2731 C   0  0  0  0  0  0  0  0  0  0  0  0
   35.4054  -33.5623   -2.4074 C   0  0  0  0  0  0  0  0  0  0  0  0
   31.2299  -35.2390   -1.1712 N   0  0  0  0  0  0  0  0  0  0  0  0
   30.8487  -35.3325    0.1862 C   0  0  1  0  0  0  0  0  0  0  0  0
   29.8286  -36.4410    0.4678 C   0  0  0  0  0  0  0  0  0  0  0  0
   29.4011  -36.4113    1.9101 C   0  0  0  0  0  0  0  0  0  0  0  0
   28.3526  -37.4387    2.1391 C   0  0  0  0  0  0  0  0  0  0  0  0
   28.5381  -38.6147    1.7795 O   0  0  0  0  0  0  0  0  0  0  0  0
   31.8898  -35.2942    1.1917 C   0  0  0  0  0  0  0  0  0  0  0  0
   33.2593  -35.3637    0.9185 O   0  0  0  0  0  0  0  0  0  0  0  0
   27.1703  -37.0769    2.7546 O   0  0  0  0  0  0  0  0  0  0  0  0
   31.5736  -35.1921    2.4027 O   0  0  0  0  0  0  0  0  0  0  0  0
  2  1  1  6
  2  3  1  0
  3  4  1  0
  4  5  1  0
  5  9  1  0
  6  5  2  0
  7  8  2  0
  7  2  1  0
 10 11  1  0
 11 12  2  0
 12 13  1  0
 14 13  2  0
 14 15  1  0
 16 15  1  6
 16 17  1  0
 17  7  1  0
 18 22  1  0
 18 16  1  0
 19 18  2  0
 20 14  1  0
 21 11  1  0
 21 20  2  0
 23 22  1  0
 23 28  1  0
 23 24  1  6
 25 24  1  0
 26 25  1  0
 27 26  2  0
 28 29  1  0
 30 26  1  0
 31 28  2  0
M  END
$$$$
