EYE.pdb
     RDKit          3D

 31 31  0  0  1  0  0  0  0  0999 V2000
   26.3859  -18.2160  -17.7811 N   0  0  0  0  0  0  0  0  0  0  0  0
   27.0124  -19.5334  -17.5760 C   0  0  1  0  0  0  0  0  0  0  0  0
   28.4952  -19.2596  -17.5423 C   0  0  0  0  0  0  0  0  0  0  0  0
   28.8156  -18.0414  -18.3389 C   0  0  0  0  0  0  0  0  0  0  0  0
   29.1987  -18.4151  -19.7336 C   0  0  0  0  0  0  0  0  0  0  0  0
   29.8159  -17.6147  -20.4929 O   0  0  0  0  0  0  0  0  0  0  0  0
   26.4735  -20.1755  -16.3632 C   0  0  0  0  0  0  0  0  0  0  0  0
   26.9352  -21.2807  -15.9926 O   0  0  0  0  0  0  0  0  0  0  0  0
   28.8932  -19.6569  -20.2552 O   0  0  0  0  0  0  0  0  0  0  0  0
   23.2781  -21.3825   -8.4313 O   0  0  0  0  0  0  0  0  0  0  0  0
   23.7083  -20.8358   -9.6339 C   0  0  0  0  0  0  0  0  0  0  0  0
   22.8557  -20.0597  -10.3878 C   0  0  0  0  0  0  0  0  0  0  0  0
   23.2935  -19.5271  -11.5718 C   0  0  0  0  0  0  0  0  0  0  0  0
   24.5728  -19.7522  -12.0255 C   0  0  0  0  0  0  0  0  0  0  0  0
   25.0871  -19.1988  -13.2965 C   0  0  0  0  0  0  0  0  0  0  0  0
   24.8269  -20.1513  -14.4571 C   0  0  2  0  0  0  0  0  0  0  0  0
   25.4434  -19.5559  -15.6081 N   0  0  0  0  0  0  0  0  0  0  0  0
   23.3743  -20.3024  -14.6861 C   0  0  0  0  0  0  0  0  0  0  0  0
   22.6992  -19.2567  -14.7890 O   0  0  0  0  0  0  0  0  0  0  0  0
   25.4192  -20.5372  -11.2525 C   0  0  0  0  0  0  0  0  0  0  0  0
   24.9915  -21.0790  -10.0596 C   0  0  0  0  0  0  0  0  0  0  0  0
   22.7488  -21.5572  -14.7888 N   0  0  0  0  0  0  0  0  0  0  0  0
   21.4767  -21.9565  -14.3208 C   0  0  1  0  0  0  0  0  0  0  0  0
   21.4261  -23.4062  -13.8262 C   0  0  0  0  0  0  0  0  0  0  0  0
   21.4216  -24.3611  -14.9889 C   0  0  0  0  0  0  0  0  0  0  0  0
   21.3306  -25.7562  -14.4862 C   0  0  0  0  0  0  0  0  0  0  0  0
   20.2359  -26.3461  -14.4692 O   0  0  0  0  0  0  0  0  0  0  0  0
   20.7645  -21.0620  -13.4326 C   0  0  0  0  0  0  0  0  0  0  0  0
   20.3613  -21.3887  -12.1342 O   0  0  0  0  0  0  0  0  0  0  0  0
   22.4716  -26.3924  -14.0382 O   0  0  0  0  0  0  0  0  0  0  0  0
   20.4737  -19.9055  -13.8257 O   0  0  0  0  0  0  0  0  0  0  0  0
  2  1  1  1
  2  3  1  0
  3  4  1  0
  4  5  1  0
  5  9  1  0
  6  5  2  0
  7  8  2  0
  7  2  1  0
 10 11  1  0
 11 12  2  0
 12 13  1  0
 14 13  2  0
 14 15  1  0
 16 15  1  1
 16 17  1  0
 17  7  1  0
 18 22  1  0
 18 16  1  0
 19 18  2  0
 20 14  1  0
 21 11  1  0
 21 20  2  0
 23 22  1  0
 23 28  1  0
 23 24  1  1
 25 24  1  0
 26 25  1  0
 27 26  2  0
 28 29  1  0
 30 26  1  0
 31 28  2  0
M  END
$$$$
