EYE.pdb
     RDKit          3D

 31 31  0  0  1  0  0  0  0  0999 V2000
   17.9091  -25.6860   -4.9388 N   0  0  0  0  0  0  0  0  0  0  0  0
   17.1821  -26.4395   -3.9026 C   0  0  1  0  0  0  0  0  0  0  0  0
   16.8776  -27.7755   -4.5326 C   0  0  0  0  0  0  0  0  0  0  0  0
   15.5256  -27.7570   -5.1595 C   0  0  0  0  0  0  0  0  0  0  0  0
   15.5615  -28.4185   -6.4983 C   0  0  0  0  0  0  0  0  0  0  0  0
   15.9774  -29.6032   -6.6459 O   0  0  0  0  0  0  0  0  0  0  0  0
   17.9772  -26.5062   -2.6629 C   0  0  0  0  0  0  0  0  0  0  0  0
   19.2270  -26.4271   -2.7259 O   0  0  0  0  0  0  0  0  0  0  0  0
   15.1399  -27.7608   -7.6372 O   0  0  0  0  0  0  0  0  0  0  0  0
   19.5150  -25.1467    5.8665 O   0  0  0  0  0  0  0  0  0  0  0  0
   19.0177  -25.2231    4.5715 C   0  0  0  0  0  0  0  0  0  0  0  0
   19.8650  -25.0888    3.4938 C   0  0  0  0  0  0  0  0  0  0  0  0
   19.3606  -25.1663    2.2222 C   0  0  0  0  0  0  0  0  0  0  0  0
   18.0195  -25.3763    1.9983 C   0  0  0  0  0  0  0  0  0  0  0  0
   17.4317  -25.4656    0.6445 C   0  0  0  0  0  0  0  0  0  0  0  0
   18.0444  -26.6144   -0.1471 C   0  0  2  0  0  0  0  0  0  0  0  0
   17.3457  -26.6532   -1.4001 N   0  0  0  0  0  0  0  0  0  0  0  0
   17.8604  -27.8933    0.5712 C   0  0  0  0  0  0  0  0  0  0  0  0
   16.6882  -28.2850    0.7514 O   0  0  0  0  0  0  0  0  0  0  0  0
   17.1793  -25.5096    3.0968 C   0  0  0  0  0  0  0  0  0  0  0  0
   17.6737  -25.4337    4.3811 C   0  0  0  0  0  0  0  0  0  0  0  0
   18.9395  -28.6601    1.0442 N   0  0  0  0  0  0  0  0  0  0  0  0
   18.9234  -29.7787    1.9074 C   0  0  1  0  0  0  0  0  0  0  0  0
   19.1836  -31.1120    1.1979 C   0  0  0  0  0  0  0  0  0  0  0  0
   20.3992  -31.0130    0.3169 C   0  0  0  0  0  0  0  0  0  0  0  0
   20.6912  -32.3425   -0.2786 C   0  0  0  0  0  0  0  0  0  0  0  0
   20.1087  -33.3584    0.1400 O   0  0  0  0  0  0  0  0  0  0  0  0
   19.6479  -29.6865    3.1576 C   0  0  0  0  0  0  0  0  0  0  0  0
   19.6176  -30.6556    4.1651 O   0  0  0  0  0  0  0  0  0  0  0  0
   21.6148  -32.4406   -1.3008 O   0  0  0  0  0  0  0  0  0  0  0  0
   20.3620  -28.6786    3.3833 O   0  0  0  0  0  0  0  0  0  0  0  0
  2  1  1  6
  2  3  1  0
  3  4  1  0
  4  5  1  0
  5  9  1  0
  6  5  2  0
  7  8  2  0
  7  2  1  0
 10 11  1  0
 11 12  2  0
 12 13  1  0
 14 13  2  0
 14 15  1  0
 16 15  1  1
 16 17  1  0
 17  7  1  0
 18 22  1  0
 18 16  1  0
 19 18  2  0
 20 14  1  0
 21 11  1  0
 21 20  2  0
 23 22  1  0
 23 28  1  0
 23 24  1  6
 25 24  1  0
 26 25  1  0
 27 26  2  0
 28 29  1  0
 30 26  1  0
 31 28  2  0
M  END
$$$$
