EYE.pdb
     RDKit          3D

 31 31  0  0  1  0  0  0  0  0999 V2000
   22.5474  -13.1003  -17.2626 N   0  0  0  0  0  0  0  0  0  0  0  0
   22.3826  -11.7024  -17.6973 C   0  0  1  0  0  0  0  0  0  0  0  0
   20.8921  -11.5017  -17.8101 C   0  0  0  0  0  0  0  0  0  0  0  0
   20.3731  -12.1546  -19.0454 C   0  0  0  0  0  0  0  0  0  0  0  0
   20.7125  -11.3383  -20.2496 C   0  0  0  0  0  0  0  0  0  0  0  0
   21.9034  -11.0111  -20.5194 O   0  0  0  0  0  0  0  0  0  0  0  0
   23.0613  -10.7894  -16.7596 C   0  0  0  0  0  0  0  0  0  0  0  0
   22.8754  -10.9205  -15.5266 O   0  0  0  0  0  0  0  0  0  0  0  0
   19.7350  -10.9046  -21.1234 O   0  0  0  0  0  0  0  0  0  0  0  0
   28.7043  -13.5366  -15.9039 O   0  0  0  0  0  0  0  0  0  0  0  0
   28.0350  -12.3450  -16.1531 C   0  0  0  0  0  0  0  0  0  0  0  0
   27.6631  -12.0134  -17.4374 C   0  0  0  0  0  0  0  0  0  0  0  0
   27.0035  -10.8349  -17.6684 C   0  0  0  0  0  0  0  0  0  0  0  0
   26.7035   -9.9719  -16.6398 C   0  0  0  0  0  0  0  0  0  0  0  0
   25.9948   -8.6901  -16.8427 C   0  0  0  0  0  0  0  0  0  0  0  0
   24.5429   -8.7860  -16.3903 C   0  0  2  0  0  0  0  0  0  0  0  0
   23.9257   -9.7685  -17.2348 N   0  0  0  0  0  0  0  0  0  0  0  0
   23.8633   -7.4835  -16.5541 C   0  0  0  0  0  0  0  0  0  0  0  0
   24.0724   -6.8582  -17.6149 O   0  0  0  0  0  0  0  0  0  0  0  0
   27.0859  -10.3221  -15.3508 C   0  0  0  0  0  0  0  0  0  0  0  0
   27.7499  -11.5045  -15.1047 C   0  0  0  0  0  0  0  0  0  0  0  0
   23.0107   -6.9439  -15.5752 N   0  0  0  0  0  0  0  0  0  0  0  0
   22.2575   -5.7491  -15.6142 C   0  0  1  0  0  0  0  0  0  0  0  0
   20.8261   -5.9362  -16.1288 C   0  0  0  0  0  0  0  0  0  0  0  0
   20.1477   -4.6040  -16.2991 C   0  0  0  0  0  0  0  0  0  0  0  0
   18.7874   -4.8070  -16.8609 C   0  0  0  0  0  0  0  0  0  0  0  0
   18.0668   -3.8290  -17.1271 O   0  0  0  0  0  0  0  0  0  0  0  0
   22.3022   -4.8759  -14.4601 C   0  0  0  0  0  0  0  0  0  0  0  0
   22.2439   -3.4801  -14.5188 O   0  0  0  0  0  0  0  0  0  0  0  0
   18.3299   -6.0907  -17.0852 O   0  0  0  0  0  0  0  0  0  0  0  0
   22.4001   -5.3760  -13.3124 O   0  0  0  0  0  0  0  0  0  0  0  0
  2  1  1  1
  2  3  1  0
  3  4  1  0
  4  5  1  0
  5  9  1  0
  6  5  2  0
  7  8  2  0
  7  2  1  0
 10 11  1  0
 11 12  2  0
 12 13  1  0
 14 13  2  0
 14 15  1  0
 16 15  1  6
 16 17  1  0
 17  7  1  0
 18 22  1  0
 18 16  1  0
 19 18  2  0
 20 14  1  0
 21 11  1  0
 21 20  2  0
 23 22  1  0
 23 28  1  0
 23 24  1  1
 25 24  1  0
 26 25  1  0
 27 26  2  0
 28 29  1  0
 30 26  1  0
 31 28  2  0
M  END
$$$$
