QGI.pdb
     RDKit          3D

 22 21  0  0  1  0  0  0  0  0999 V2000
   22.3164  -17.7659  -19.1298 N   0  0  0  0  0  0  0  0  0  0  0  0
   21.7938  -19.0848  -19.1196 C   0  0  0  0  0  0  0  0  0  0  0  0
   21.0257  -19.4810  -20.0339 O   0  0  0  0  0  0  0  0  0  0  0  0
   22.1570  -19.9979  -18.0241 C   0  0  0  0  0  0  0  0  0  0  0  0
   23.0779  -19.3005  -17.0427 C   0  0  0  0  0  0  0  0  0  0  0  0
   24.4023  -20.0316  -16.9526 C   0  0  2  0  0  0  0  0  0  0  0  0
   24.1909  -21.4523  -16.8999 N   0  0  0  0  0  0  0  0  0  0  0  0
   25.1249  -19.5436  -15.7397 C   0  0  0  0  0  0  0  0  0  0  0  0
   25.2306  -18.2943  -15.5720 O   0  0  0  0  0  0  0  0  0  0  0  0
   25.6745  -20.4401  -14.8066 N   0  0  0  0  0  0  0  0  0  0  0  0
   26.3360  -19.9347  -13.6105 C   0  0  0  0  0  0  0  0  0  0  0  0
   25.9299  -20.6970  -12.4107 C   0  0  0  0  0  0  0  0  0  0  0  0
   25.5219  -21.8629  -12.5328 O   0  0  0  0  0  0  0  0  0  0  0  0
   27.5003  -20.2912   -6.5813 C   0  0  0  0  0  0  0  0  0  0  0  0
   26.4776  -20.9342   -7.5128 C   0  0  0  0  0  0  0  0  0  0  0  0
   26.5847  -20.2314   -8.8278 C   0  0  2  0  0  0  0  0  0  0  0  0
   26.3825  -18.7516   -8.6131 C   0  0  0  0  0  0  0  0  0  0  0  0
   25.7005  -20.7883   -9.9031 C   0  0  2  0  0  0  0  0  0  0  0  0
   26.0053  -20.1074  -11.1457 N   0  0  0  0  0  0  0  0  0  0  0  0
   24.2702  -20.7948   -9.5926 C   0  0  0  0  0  0  0  0  0  0  0  0
   23.4932  -19.9066  -10.0227 O   0  0  0  0  0  0  0  0  0  0  0  0
   23.6946  -21.7841   -8.8052 O   0  0  0  0  0  0  0  0  0  0  0  0
  1  2  1  0
  2  4  1  0
  2  3  2  0
  4  5  1  0
  5  6  1  0
  6  8  1  0
  6  7  1  1
  8  9  2  0
 10 11  1  0
 10  8  1  0
 11 12  1  0
 12 13  2  0
 12 19  1  0
 15 14  1  0
 15 16  1  0
 16 18  1  0
 16 17  1  1
 18 20  1  0
 18 19  1  6
 20 22  1  0
 21 20  2  0
M  END
$$$$
