QGI.pdb
     RDKit          3D

 22 21  0  0  1  0  0  0  0  0999 V2000
   29.2770  -18.7812  -19.7860 N   0  0  0  0  0  0  0  0  0  0  0  0
   28.7992  -17.4478  -19.8685 C   0  0  0  0  0  0  0  0  0  0  0  0
   28.6362  -16.8893  -20.9840 O   0  0  0  0  0  0  0  0  0  0  0  0
   28.4916  -16.7122  -18.6316 C   0  0  0  0  0  0  0  0  0  0  0  0
   28.9817  -17.4869  -17.4243 C   0  0  0  0  0  0  0  0  0  0  0  0
   28.0017  -18.5878  -17.0717 C   0  0  2  0  0  0  0  0  0  0  0  0
   26.8710  -18.5587  -17.9587 N   0  0  0  0  0  0  0  0  0  0  0  0
   27.5826  -18.4038  -15.6497 C   0  0  0  0  0  0  0  0  0  0  0  0
   28.4862  -18.3278  -14.7678 O   0  0  0  0  0  0  0  0  0  0  0  0
   26.2255  -18.3167  -15.2935 N   0  0  0  0  0  0  0  0  0  0  0  0
   25.8491  -18.0485  -13.9114 C   0  0  0  0  0  0  0  0  0  0  0  0
   25.9153  -19.2758  -13.0899 C   0  0  0  0  0  0  0  0  0  0  0  0
   25.5241  -20.3541  -13.5640 O   0  0  0  0  0  0  0  0  0  0  0  0
   27.2259  -20.1511   -7.1419 C   0  0  0  0  0  0  0  0  0  0  0  0
   26.8457  -20.8638   -8.4358 C   0  0  0  0  0  0  0  0  0  0  0  0
   26.6838  -19.8086   -9.4823 C   0  0  2  0  0  0  0  0  0  0  0  0
   25.6424  -18.8172   -9.0249 C   0  0  0  0  0  0  0  0  0  0  0  0
   26.4175  -20.3366  -10.8602 C   0  0  2  0  0  0  0  0  0  0  0  0
   26.4161  -19.2215  -11.7861 N   0  0  0  0  0  0  0  0  0  0  0  0
   25.2295  -21.1823  -10.9847 C   0  0  0  0  0  0  0  0  0  0  0  0
   25.3130  -22.4249  -11.1488 O   0  0  0  0  0  0  0  0  0  0  0  0
   23.9448  -20.6564  -10.9279 O   0  0  0  0  0  0  0  0  0  0  0  0
  1  2  1  0
  2  4  1  0
  2  3  2  0
  4  5  1  0
  5  6  1  0
  6  8  1  0
  6  7  1  6
  8  9  2  0
 10 11  1  0
 10  8  1  0
 11 12  1  0
 12 13  2  0
 12 19  1  0
 15 14  1  0
 15 16  1  0
 16 18  1  0
 16 17  1  1
 18 20  1  0
 18 19  1  6
 20 22  1  0
 21 20  2  0
M  END
$$$$
