QGI.pdb
     RDKit          3D

 22 21  0  0  1  0  0  0  0  0999 V2000
   21.9820  -19.5882  -21.2916 N   0  0  0  0  0  0  0  0  0  0  0  0
   22.2810  -18.4394  -20.5146 C   0  0  0  0  0  0  0  0  0  0  0  0
   21.3923  -17.8812  -19.8206 O   0  0  0  0  0  0  0  0  0  0  0  0
   23.6490  -17.8969  -20.5231 C   0  0  0  0  0  0  0  0  0  0  0  0
   24.0512  -17.4648  -19.1269 C   0  0  0  0  0  0  0  0  0  0  0  0
   23.7896  -18.5801  -18.1347 C   0  0  2  0  0  0  0  0  0  0  0  0
   22.9587  -18.1128  -17.0590 N   0  0  0  0  0  0  0  0  0  0  0  0
   25.1053  -19.0759  -17.6301 C   0  0  0  0  0  0  0  0  0  0  0  0
   25.9203  -19.5597  -18.4678 O   0  0  0  0  0  0  0  0  0  0  0  0
   25.4361  -19.0104  -16.2653 N   0  0  0  0  0  0  0  0  0  0  0  0
   26.7455  -19.4586  -15.8089 C   0  0  0  0  0  0  0  0  0  0  0  0
   26.8784  -19.3208  -14.3430 C   0  0  0  0  0  0  0  0  0  0  0  0
   26.9960  -18.1920  -13.8404 O   0  0  0  0  0  0  0  0  0  0  0  0
   24.3749  -19.9373   -9.7196 C   0  0  0  0  0  0  0  0  0  0  0  0
   25.5430  -20.8653  -10.0379 C   0  0  0  0  0  0  0  0  0  0  0  0
   25.6500  -20.9349  -11.5273 C   0  0  2  0  0  0  0  0  0  0  0  0
   25.3303  -22.3387  -11.9788 C   0  0  0  0  0  0  0  0  0  0  0  0
   26.9482  -20.4283  -12.0808 C   0  0  2  0  0  0  0  0  0  0  0  0
   26.8716  -20.4562  -13.5279 N   0  0  0  0  0  0  0  0  0  0  0  0
   28.1470  -21.0874  -11.5606 C   0  0  0  0  0  0  0  0  0  0  0  0
   28.4768  -21.0076  -10.3512 O   0  0  0  0  0  0  0  0  0  0  0  0
   28.9850  -21.8371  -12.3765 O   0  0  0  0  0  0  0  0  0  0  0  0
  1  2  1  0
  2  4  1  0
  2  3  2  0
  4  5  1  0
  5  6  1  0
  6  8  1  0
  6  7  1  1
  8  9  2  0
 10 11  1  0
 10  8  1  0
 11 12  1  0
 12 13  2  0
 12 19  1  0
 15 14  1  0
 15 16  1  0
 16 18  1  0
 16 17  1  1
 18 20  1  0
 18 19  1  6
 20 22  1  0
 21 20  2  0
M  END
$$$$
