QGI.pdb
     RDKit          3D

 22 21  0  0  1  0  0  0  0  0999 V2000
   21.3144  -21.4873  -14.7981 N   0  0  0  0  0  0  0  0  0  0  0  0
   22.1444  -20.5404  -15.4520 C   0  0  0  0  0  0  0  0  0  0  0  0
   22.1832  -20.4758  -16.7079 O   0  0  0  0  0  0  0  0  0  0  0  0
   22.9686  -19.6242  -14.6478 C   0  0  0  0  0  0  0  0  0  0  0  0
   24.2831  -19.3470  -15.3501 C   0  0  0  0  0  0  0  0  0  0  0  0
   25.1917  -20.5568  -15.2637 C   0  0  2  0  0  0  0  0  0  0  0  0
   24.4398  -21.7264  -14.8990 N   0  0  0  0  0  0  0  0  0  0  0  0
   26.2643  -20.2664  -14.2654 C   0  0  0  0  0  0  0  0  0  0  0  0
   26.9155  -19.1888  -14.3876 O   0  0  0  0  0  0  0  0  0  0  0  0
   26.5483  -21.1595  -13.2174 N   0  0  0  0  0  0  0  0  0  0  0  0
   27.6071  -20.8534  -12.2640 C   0  0  0  0  0  0  0  0  0  0  0  0
   27.2509  -21.3079  -10.9031 C   0  0  0  0  0  0  0  0  0  0  0  0
   27.1748  -22.5231  -10.6616 O   0  0  0  0  0  0  0  0  0  0  0  0
   28.8344  -18.9004   -6.4144 C   0  0  0  0  0  0  0  0  0  0  0  0
   28.4017  -19.9055   -7.4771 C   0  0  0  0  0  0  0  0  0  0  0  0
   26.9114  -19.8304   -7.5658 C   0  0  2  0  0  0  0  0  0  0  0  0
   26.3219  -20.1253   -6.2084 C   0  0  0  0  0  0  0  0  0  0  0  0
   26.3111  -20.6691   -8.6542 C   0  0  2  0  0  0  0  0  0  0  0  0
   27.0012  -20.3736   -9.8940 N   0  0  0  0  0  0  0  0  0  0  0  0
   24.8553  -20.5817   -8.7772 C   0  0  0  0  0  0  0  0  0  0  0  0
   24.0859  -21.2737   -8.0652 O   0  0  0  0  0  0  0  0  0  0  0  0
   24.2456  -19.7284   -9.6884 O   0  0  0  0  0  0  0  0  0  0  0  0
  1  2  1  0
  2  4  1  0
  2  3  2  0
  4  5  1  0
  5  6  1  0
  6  8  1  0
  6  7  1  1
  8  9  2  0
 10 11  1  0
 10  8  1  0
 11 12  1  0
 12 13  2  0
 12 19  1  0
 15 14  1  0
 15 16  1  0
 16 18  1  0
 16 17  1  1
 18 20  1  0
 18 19  1  6
 20 22  1  0
 21 20  2  0
M  END
$$$$
