QGI.pdb
     RDKit          3D

 22 21  0  0  1  0  0  0  0  0999 V2000
   21.7804  -20.9581  -14.5145 N   0  0  0  0  0  0  0  0  0  0  0  0
   22.4233  -19.7123  -14.7328 C   0  0  0  0  0  0  0  0  0  0  0  0
   22.2613  -19.0834  -15.8104 O   0  0  0  0  0  0  0  0  0  0  0  0
   23.2895  -19.1520  -13.6834 C   0  0  0  0  0  0  0  0  0  0  0  0
   24.6432  -18.7867  -14.2594 C   0  0  0  0  0  0  0  0  0  0  0  0
   25.4944  -20.0285  -14.4323 C   0  0  2  0  0  0  0  0  0  0  0  0
   24.7439  -21.2054  -14.0890 N   0  0  0  0  0  0  0  0  0  0  0  0
   26.7083  -19.8875  -13.5732 C   0  0  0  0  0  0  0  0  0  0  0  0
   27.3328  -18.7878  -13.6011 O   0  0  0  0  0  0  0  0  0  0  0  0
   27.1505  -20.9413  -12.7545 N   0  0  0  0  0  0  0  0  0  0  0  0
   28.3304  -20.7694  -11.9166 C   0  0  0  0  0  0  0  0  0  0  0  0
   28.0630  -21.1831  -10.5228 C   0  0  0  0  0  0  0  0  0  0  0  0
   28.8424  -21.9635   -9.9534 O   0  0  0  0  0  0  0  0  0  0  0  0
   28.1728  -18.7950   -5.9903 C   0  0  0  0  0  0  0  0  0  0  0  0
   27.3381  -19.0978   -7.2306 C   0  0  0  0  0  0  0  0  0  0  0  0
   27.5216  -20.5499   -7.5346 C   0  0  2  0  0  0  0  0  0  0  0  0
   28.9546  -20.7906   -7.9411 C   0  0  0  0  0  0  0  0  0  0  0  0
   26.5373  -21.1074   -8.5189 C   0  0  2  0  0  0  0  0  0  0  0  0
   26.9380  -20.6976   -9.8501 N   0  0  0  0  0  0  0  0  0  0  0  0
   25.1329  -20.8131   -8.2305 C   0  0  0  0  0  0  0  0  0  0  0  0
   24.4325  -20.1034   -8.9945 O   0  0  0  0  0  0  0  0  0  0  0  0
   24.4983  -21.3029   -7.0958 O   0  0  0  0  0  0  0  0  0  0  0  0
  1  2  1  0
  2  4  1  0
  2  3  2  0
  4  5  1  0
  5  6  1  0
  6  8  1  0
  6  7  1  1
  8  9  2  0
 10 11  1  0
 10  8  1  0
 11 12  1  0
 12 13  2  0
 12 19  1  0
 15 14  1  0
 15 16  1  0
 16 18  1  0
 16 17  1  6
 18 20  1  0
 18 19  1  6
 20 22  1  0
 21 20  2  0
M  END
$$$$
