QGI.pdb
     RDKit          3D

 22 21  0  0  1  0  0  0  0  0999 V2000
   11.9867  -21.2812   -6.8809 N   0  0  0  0  0  0  0  0  0  0  0  0
   12.7071  -21.5498   -5.6885 C   0  0  0  0  0  0  0  0  0  0  0  0
   12.2774  -21.1566   -4.5733 O   0  0  0  0  0  0  0  0  0  0  0  0
   13.9723  -22.2979   -5.7611 C   0  0  0  0  0  0  0  0  0  0  0  0
   13.8502  -23.6102   -5.0124 C   0  0  0  0  0  0  0  0  0  0  0  0
   15.0893  -24.4560   -5.2266 C   0  0  2  0  0  0  0  0  0  0  0  0
   15.0212  -25.1385   -6.4898 N   0  0  0  0  0  0  0  0  0  0  0  0
   15.1992  -25.4212   -4.0918 C   0  0  0  0  0  0  0  0  0  0  0  0
   14.1466  -26.0052   -3.7028 O   0  0  0  0  0  0  0  0  0  0  0  0
   16.4327  -25.6790   -3.4687 N   0  0  0  0  0  0  0  0  0  0  0  0
   16.5020  -26.5949   -2.3373 C   0  0  0  0  0  0  0  0  0  0  0  0
   17.8992  -26.8049   -1.9024 C   0  0  0  0  0  0  0  0  0  0  0  0
   18.8241  -26.2528   -2.5192 O   0  0  0  0  0  0  0  0  0  0  0  0
   19.6035  -25.6632    2.7570 C   0  0  0  0  0  0  0  0  0  0  0  0
   19.4080  -25.9675    1.2751 C   0  0  0  0  0  0  0  0  0  0  0  0
   19.6131  -27.4381    1.1023 C   0  0  2  0  0  0  0  0  0  0  0  0
   20.9124  -27.8346    1.7592 C   0  0  0  0  0  0  0  0  0  0  0  0
   19.5092  -27.9170   -0.3149 C   0  0  2  0  0  0  0  0  0  0  0  0
   18.1767  -27.6212   -0.8022 N   0  0  0  0  0  0  0  0  0  0  0  0
   19.8990  -29.3110   -0.5317 C   0  0  0  0  0  0  0  0  0  0  0  0
   19.1918  -30.2685   -0.1307 O   0  0  0  0  0  0  0  0  0  0  0  0
   21.0726  -29.6506   -1.1931 O   0  0  0  0  0  0  0  0  0  0  0  0
  1  2  1  0
  2  4  1  0
  2  3  2  0
  4  5  1  0
  5  6  1  0
  6  8  1  0
  6  7  1  6
  8  9  2  0
 10 11  1  0
 10  8  1  0
 11 12  1  0
 12 13  2  0
 12 19  1  0
 15 14  1  0
 15 16  1  0
 16 18  1  0
 16 17  1  6
 18 20  1  0
 18 19  1  1
 20 22  1  0
 21 20  2  0
M  END
$$$$
