QGI.pdb
     RDKit          3D

 22 21  0  0  1  0  0  0  0  0999 V2000
   10.3868  -10.5310  -10.8966 N   0  0  0  0  0  0  0  0  0  0  0  0
   10.4780  -11.3605   -9.7492 C   0  0  0  0  0  0  0  0  0  0  0  0
    9.6631  -12.3018   -9.5678 O   0  0  0  0  0  0  0  0  0  0  0  0
   11.5404  -11.1138   -8.7613 C   0  0  0  0  0  0  0  0  0  0  0  0
   12.3953   -9.9384   -9.1920 C   0  0  0  0  0  0  0  0  0  0  0  0
   13.5124  -10.4057  -10.1032 C   0  0  2  0  0  0  0  0  0  0  0  0
   14.4064  -11.2814   -9.3960 N   0  0  0  0  0  0  0  0  0  0  0  0
   14.2278   -9.2015  -10.6224 C   0  0  0  0  0  0  0  0  0  0  0  0
   13.5874   -8.4028  -11.3654 O   0  0  0  0  0  0  0  0  0  0  0  0
   15.5737   -8.9554  -10.2993 N   0  0  0  0  0  0  0  0  0  0  0  0
   16.2622   -7.8036  -10.8676 C   0  0  0  0  0  0  0  0  0  0  0  0
   16.8924   -8.1406  -12.1618 C   0  0  0  0  0  0  0  0  0  0  0  0
   17.4591   -9.2359  -12.3023 O   0  0  0  0  0  0  0  0  0  0  0  0
   14.5057   -8.0385  -16.6585 C   0  0  0  0  0  0  0  0  0  0  0  0
   15.5219   -8.3876  -15.5757 C   0  0  0  0  0  0  0  0  0  0  0  0
   16.5637   -7.3158  -15.5951 C   0  0  2  0  0  0  0  0  0  0  0  0
   17.2167   -7.2883  -16.9551 C   0  0  0  0  0  0  0  0  0  0  0  0
   17.5576   -7.3958  -14.4752 C   0  0  2  0  0  0  0  0  0  0  0  0
   16.8499   -7.2299  -13.2214 N   0  0  0  0  0  0  0  0  0  0  0  0
   18.7113   -6.5040  -14.6009 C   0  0  0  0  0  0  0  0  0  0  0  0
   19.7849   -6.8780  -15.1351 O   0  0  0  0  0  0  0  0  0  0  0  0
   18.6813   -5.1951  -14.1361 O   0  0  0  0  0  0  0  0  0  0  0  0
  1  2  1  0
  2  4  1  0
  2  3  2  0
  4  5  1  0
  5  6  1  0
  6  8  1  0
  6  7  1  1
  8  9  2  0
 10 11  1  0
 10  8  1  0
 11 12  1  0
 12 13  2  0
 12 19  1  0
 15 14  1  0
 15 16  1  0
 16 18  1  0
 16 17  1  6
 18 20  1  0
 18 19  1  1
 20 22  1  0
 21 20  2  0
M  END
$$$$
