KND.pdb
     RDKit          3D

 26 25  0  0  1  0  0  0  0  0999 V2000
   19.7030   -9.8160  -17.7423 N   0  0  0  0  0  0  0  0  0  0  0  0
   18.5290   -9.5065  -16.9575 C   0  0  1  0  0  0  0  0  0  0  0  0
   17.7815  -10.7487  -16.5387 C   0  0  0  0  0  0  0  0  0  0  0  0
   18.2783  -11.9682  -17.2623 C   0  0  0  0  0  0  0  0  0  0  0  0
   17.6495  -13.2353  -16.7379 C   0  0  0  0  0  0  0  0  0  0  0  0
   18.1160  -14.4697  -17.4364 C   0  0  0  0  0  0  0  0  0  0  0  0
   17.5095  -15.6277  -16.8184 N   0  0  0  0  0  0  0  0  0  0  0  0
   18.8564   -8.6628  -15.7786 C   0  0  0  0  0  0  0  0  0  0  0  0
   17.9422   -8.3605  -14.9891 O   0  0  0  0  0  0  0  0  0  0  0  0
   21.2452   -6.1403  -11.9979 N   0  0  0  0  0  0  0  0  0  0  0  0
   22.1855   -7.0329  -12.6034 C   0  0  0  0  0  0  0  0  0  0  0  0
   23.3161   -7.1644  -12.0385 O   0  0  0  0  0  0  0  0  0  0  0  0
   21.8612   -7.7728  -13.8327 C   0  0  0  0  0  0  0  0  0  0  0  0
   20.4926   -7.3747  -14.3290 C   0  0  2  0  0  0  0  0  0  0  0  0
   20.1573   -8.1889  -15.5139 N   0  0  0  0  0  0  0  0  0  0  0  0
   20.3452   -5.9432  -14.6461 C   0  0  0  0  0  0  0  0  0  0  0  0
   20.5758   -5.1086  -13.7079 O   0  0  0  0  0  0  0  0  0  0  0  0
   19.9802   -5.3829  -15.8776 N   0  0  0  0  0  0  0  0  0  0  0  0
   19.8402   -3.9589  -16.1070 C   0  0  1  0  0  0  0  0  0  0  0  0
   20.2490   -3.6068  -17.5437 C   0  0  0  0  0  0  0  0  0  0  0  0
   20.0968   -2.1850  -17.8429 C   0  0  0  0  0  0  0  0  0  0  0  0
   19.8151   -1.3802  -16.9305 O   0  0  0  0  0  0  0  0  0  0  0  0
   18.4761   -3.4475  -15.8574 C   0  0  0  0  0  0  0  0  0  0  0  0
   17.4222   -4.0954  -16.0668 O   0  0  0  0  0  0  0  0  0  0  0  0
   20.2583   -1.7010  -19.1245 O   0  0  0  0  0  0  0  0  0  0  0  0
   18.2905   -2.1593  -15.3534 O   0  0  0  0  0  0  0  0  0  0  0  0
  2  3  1  0
  2  1  1  1
  4  3  1  0
  5  4  1  0
  6  5  1  0
  7  6  1  0
  8  9  2  0
  8  2  1  0
 10 11  1  0
 11 12  2  0
 11 13  1  0
 14 13  1  6
 14 15  1  0
 15  8  1  0
 16 17  2  0
 16 14  1  0
 18 16  1  0
 19 20  1  6
 19 18  1  0
 21 20  1  0
 21 22  2  0
 23 19  1  0
 24 23  2  0
 25 21  1  0
 26 23  1  0
M  END
$$$$
