KND.pdb
     RDKit          3D

 26 25  0  0  1  0  0  0  0  0999 V2000
   27.1197  -25.0673  -16.3589 N   0  0  0  0  0  0  0  0  0  0  0  0
   25.7896  -25.6337  -16.3600 C   0  0  1  0  0  0  0  0  0  0  0  0
   25.7933  -27.0942  -15.9803 C   0  0  0  0  0  0  0  0  0  0  0  0
   26.3927  -27.9489  -17.0608 C   0  0  0  0  0  0  0  0  0  0  0  0
   27.6688  -27.3597  -17.6088 C   0  0  0  0  0  0  0  0  0  0  0  0
   28.2876  -28.1751  -18.6958 C   0  0  0  0  0  0  0  0  0  0  0  0
   29.5068  -27.5364  -19.1386 N   0  0  0  0  0  0  0  0  0  0  0  0
   24.8582  -24.8640  -15.4947 C   0  0  0  0  0  0  0  0  0  0  0  0
   24.8088  -25.1368  -14.2807 O   0  0  0  0  0  0  0  0  0  0  0  0
   21.8736  -21.4748  -13.2627 N   0  0  0  0  0  0  0  0  0  0  0  0
   22.7882  -20.8377  -14.1599 C   0  0  0  0  0  0  0  0  0  0  0  0
   22.9418  -19.5815  -14.0458 O   0  0  0  0  0  0  0  0  0  0  0  0
   23.5255  -21.6026  -15.1773 C   0  0  0  0  0  0  0  0  0  0  0  0
   23.1175  -23.0548  -15.1275 C   0  0  2  0  0  0  0  0  0  0  0  0
   24.0271  -23.8376  -15.9874 N   0  0  0  0  0  0  0  0  0  0  0  0
   21.7183  -23.3146  -15.5101 C   0  0  0  0  0  0  0  0  0  0  0  0
   21.4459  -24.4667  -15.9878 O   0  0  0  0  0  0  0  0  0  0  0  0
   20.6350  -22.4319  -15.4047 N   0  0  0  0  0  0  0  0  0  0  0  0
   19.2535  -22.8579  -15.3024 C   0  0  1  0  0  0  0  0  0  0  0  0
   19.1793  -24.3397  -14.9103 C   0  0  0  0  0  0  0  0  0  0  0  0
   18.6869  -25.1875  -15.9933 C   0  0  0  0  0  0  0  0  0  0  0  0
   18.3010  -24.6737  -17.0641 O   0  0  0  0  0  0  0  0  0  0  0  0
   18.4569  -22.0668  -14.3411 C   0  0  0  0  0  0  0  0  0  0  0  0
   18.8875  -21.0758  -13.7033 O   0  0  0  0  0  0  0  0  0  0  0  0
   18.6360  -26.5597  -15.8627 O   0  0  0  0  0  0  0  0  0  0  0  0
   17.1262  -22.4029  -14.0877 O   0  0  0  0  0  0  0  0  0  0  0  0
  2  3  1  0
  2  1  1  1
  4  3  1  0
  5  4  1  0
  6  5  1  0
  7  6  1  0
  8  9  2  0
  8  2  1  0
 10 11  1  0
 11 12  2  0
 11 13  1  0
 14 13  1  6
 14 15  1  0
 15  8  1  0
 16 17  2  0
 16 14  1  0
 18 16  1  0
 19 20  1  1
 19 18  1  0
 21 20  1  0
 21 22  2  0
 23 19  1  0
 24 23  2  0
 25 21  1  0
 26 23  1  0
M  END
$$$$
