KND.pdb
     RDKit          3D

 26 25  0  0  1  0  0  0  0  0999 V2000
   16.9533  -10.5144  -17.1336 N   0  0  0  0  0  0  0  0  0  0  0  0
   16.8672  -10.2562  -15.7138 C   0  0  1  0  0  0  0  0  0  0  0  0
   16.3962  -11.4655  -14.9437 C   0  0  0  0  0  0  0  0  0  0  0  0
   15.4502  -12.3071  -15.7524 C   0  0  0  0  0  0  0  0  0  0  0  0
   15.0440  -13.5643  -15.0242 C   0  0  0  0  0  0  0  0  0  0  0  0
   14.0918  -14.4208  -15.7917 C   0  0  0  0  0  0  0  0  0  0  0  0
   13.8889  -15.6647  -15.0833 N   0  0  0  0  0  0  0  0  0  0  0  0
   18.1498   -9.7449  -15.1641 C   0  0  0  0  0  0  0  0  0  0  0  0
   18.2125   -9.4728  -13.9506 O   0  0  0  0  0  0  0  0  0  0  0  0
   23.0128   -8.0544  -14.6374 N   0  0  0  0  0  0  0  0  0  0  0  0
   22.9887   -9.1512  -15.5562 C   0  0  0  0  0  0  0  0  0  0  0  0
   24.1051   -9.6468  -15.9063 O   0  0  0  0  0  0  0  0  0  0  0  0
   21.7229   -9.6886  -16.0785 C   0  0  0  0  0  0  0  0  0  0  0  0
   20.5563   -8.9854  -15.4285 C   0  0  2  0  0  0  0  0  0  0  0  0
   19.3002   -9.5540  -15.9561 N   0  0  0  0  0  0  0  0  0  0  0  0
   20.5515   -7.5210  -15.5920 C   0  0  0  0  0  0  0  0  0  0  0  0
   20.5259   -7.0647  -16.7841 O   0  0  0  0  0  0  0  0  0  0  0  0
   20.5677   -6.5564  -14.5756 N   0  0  0  0  0  0  0  0  0  0  0  0
   20.5562   -5.1277  -14.8180 C   0  0  1  0  0  0  0  0  0  0  0  0
   19.2263   -4.5182  -14.3543 C   0  0  0  0  0  0  0  0  0  0  0  0
   19.1574   -3.0758  -14.5755 C   0  0  0  0  0  0  0  0  0  0  0  0
   19.8532   -2.5455  -15.4667 O   0  0  0  0  0  0  0  0  0  0  0  0
   21.6684   -4.4049  -14.1659 C   0  0  0  0  0  0  0  0  0  0  0  0
   21.8849   -3.1746  -14.2827 O   0  0  0  0  0  0  0  0  0  0  0  0
   18.3327   -2.2728  -13.8155 O   0  0  0  0  0  0  0  0  0  0  0  0
   22.5706   -5.0916  -13.3522 O   0  0  0  0  0  0  0  0  0  0  0  0
  2  3  1  0
  2  1  1  6
  4  3  1  0
  5  4  1  0
  6  5  1  0
  7  6  1  0
  8  9  2  0
  8  2  1  0
 10 11  1  0
 11 12  2  0
 11 13  1  0
 14 13  1  6
 14 15  1  0
 15  8  1  0
 16 17  2  0
 16 14  1  0
 18 16  1  0
 19 20  1  1
 19 18  1  0
 21 20  1  0
 21 22  2  0
 23 19  1  0
 24 23  2  0
 25 21  1  0
 26 23  1  0
M  END
$$$$
