KND.pdb
     RDKit          3D

 26 25  0  0  1  0  0  0  0  0999 V2000
   17.0806  -14.4105  -16.7396 N   0  0  0  0  0  0  0  0  0  0  0  0
   18.4796  -14.4136  -16.3753 C   0  0  1  0  0  0  0  0  0  0  0  0
   19.1447  -15.7323  -16.6849 C   0  0  0  0  0  0  0  0  0  0  0  0
   18.2863  -16.8974  -16.2811 C   0  0  0  0  0  0  0  0  0  0  0  0
   18.4230  -17.2221  -14.8142 C   0  0  0  0  0  0  0  0  0  0  0  0
   18.2156  -18.6665  -14.4979 C   0  0  0  0  0  0  0  0  0  0  0  0
   18.3128  -18.8624  -13.0687 N   0  0  0  0  0  0  0  0  0  0  0  0
   19.2189  -13.2874  -17.0032 C   0  0  0  0  0  0  0  0  0  0  0  0
   20.4583  -13.2505  -16.8896 O   0  0  0  0  0  0  0  0  0  0  0  0
   20.4895   -8.9253  -19.4564 N   0  0  0  0  0  0  0  0  0  0  0  0
   19.3997   -9.5430  -20.1480 C   0  0  0  0  0  0  0  0  0  0  0  0
   19.0466   -9.0349  -21.2578 O   0  0  0  0  0  0  0  0  0  0  0  0
   18.7108  -10.7216  -19.5999 C   0  0  0  0  0  0  0  0  0  0  0  0
   19.2947  -11.0822  -18.2557 C   0  0  2  0  0  0  0  0  0  0  0  0
   18.5787  -12.2579  -17.7225 N   0  0  0  0  0  0  0  0  0  0  0  0
   19.2770   -9.9920  -17.2645 C   0  0  0  0  0  0  0  0  0  0  0  0
   18.1909   -9.8034  -16.6206 O   0  0  0  0  0  0  0  0  0  0  0  0
   20.3312   -9.1282  -16.9384 N   0  0  0  0  0  0  0  0  0  0  0  0
   20.2293   -8.0628  -15.9613 C   0  0  1  0  0  0  0  0  0  0  0  0
   21.2243   -8.2922  -14.8156 C   0  0  0  0  0  0  0  0  0  0  0  0
   21.1759   -7.2386  -13.8048 C   0  0  0  0  0  0  0  0  0  0  0  0
   20.0911   -6.9415  -13.2622 O   0  0  0  0  0  0  0  0  0  0  0  0
   20.4501   -6.7148  -16.5258 C   0  0  0  0  0  0  0  0  0  0  0  0
   21.1597   -6.4702  -17.5312 O   0  0  0  0  0  0  0  0  0  0  0  0
   22.3125   -6.5536  -13.4286 O   0  0  0  0  0  0  0  0  0  0  0  0
   19.8501   -5.6004  -15.9376 O   0  0  0  0  0  0  0  0  0  0  0  0
  2  3  1  0
  2  1  1  6
  4  3  1  0
  5  4  1  0
  6  5  1  0
  7  6  1  0
  8  9  2  0
  8  2  1  0
 10 11  1  0
 11 12  2  0
 11 13  1  0
 14 13  1  6
 14 15  1  0
 15  8  1  0
 16 17  2  0
 16 14  1  0
 18 16  1  0
 19 20  1  1
 19 18  1  0
 21 20  1  0
 21 22  2  0
 23 19  1  0
 24 23  2  0
 25 21  1  0
 26 23  1  0
M  END
$$$$
