KND.pdb
     RDKit          3D

 26 25  0  0  1  0  0  0  0  0999 V2000
   15.4875  -11.9622  -13.2098 N   0  0  0  0  0  0  0  0  0  0  0  0
   14.9007  -10.9630  -12.3455 C   0  0  1  0  0  0  0  0  0  0  0  0
   13.9289  -11.5639  -11.3597 C   0  0  0  0  0  0  0  0  0  0  0  0
   12.5723  -11.7715  -11.9710 C   0  0  0  0  0  0  0  0  0  0  0  0
   11.5528  -12.2180  -10.9527 C   0  0  0  0  0  0  0  0  0  0  0  0
   10.1784  -12.3827  -11.5124 C   0  0  0  0  0  0  0  0  0  0  0  0
    9.2924  -12.8593  -10.4741 N   0  0  0  0  0  0  0  0  0  0  0  0
   15.9356  -10.1582  -11.6454 C   0  0  0  0  0  0  0  0  0  0  0  0
   17.0195  -10.6999  -11.3587 O   0  0  0  0  0  0  0  0  0  0  0  0
   18.9623   -6.6143   -9.6838 N   0  0  0  0  0  0  0  0  0  0  0  0
   19.0580   -7.1137  -11.0213 C   0  0  0  0  0  0  0  0  0  0  0  0
   20.1373   -6.8911  -11.6540 O   0  0  0  0  0  0  0  0  0  0  0  0
   17.9525   -7.8570  -11.6451 C   0  0  0  0  0  0  0  0  0  0  0  0
   16.8009   -7.9784  -10.6772 C   0  0  2  0  0  0  0  0  0  0  0  0
   15.7447   -8.8073  -11.2909 N   0  0  0  0  0  0  0  0  0  0  0  0
   16.2342   -6.6936  -10.2306 C   0  0  0  0  0  0  0  0  0  0  0  0
   15.9409   -5.8380  -11.1315 O   0  0  0  0  0  0  0  0  0  0  0  0
   15.9717   -6.2976   -8.9122 N   0  0  0  0  0  0  0  0  0  0  0  0
   15.0422   -5.2446   -8.5553 C   0  0  1  0  0  0  0  0  0  0  0  0
   14.4295   -5.5184   -7.1752 C   0  0  0  0  0  0  0  0  0  0  0  0
   13.4249   -4.5279   -6.7956 C   0  0  0  0  0  0  0  0  0  0  0  0
   12.8875   -3.8153   -7.6691 O   0  0  0  0  0  0  0  0  0  0  0  0
   15.6448   -3.8949   -8.5535 C   0  0  0  0  0  0  0  0  0  0  0  0
   15.0122   -2.8318   -8.3445 O   0  0  0  0  0  0  0  0  0  0  0  0
   13.0490   -4.3564   -5.4796 O   0  0  0  0  0  0  0  0  0  0  0  0
   17.0100   -3.7352   -8.7957 O   0  0  0  0  0  0  0  0  0  0  0  0
  2  3  1  0
  2  1  1  1
  4  3  1  0
  5  4  1  0
  6  5  1  0
  7  6  1  0
  8  9  2  0
  8  2  1  0
 10 11  1  0
 11 12  2  0
 11 13  1  0
 14 13  1  6
 14 15  1  0
 15  8  1  0
 16 17  2  0
 16 14  1  0
 18 16  1  0
 19 20  1  1
 19 18  1  0
 21 20  1  0
 21 22  2  0
 23 19  1  0
 24 23  2  0
 25 21  1  0
 26 23  1  0
M  END
$$$$
