KND.pdb
     RDKit          3D

 26 25  0  0  1  0  0  0  0  0999 V2000
   14.0449  -10.3050  -10.4180 N   0  0  0  0  0  0  0  0  0  0  0  0
   15.3727  -10.4036  -10.9813 C   0  0  1  0  0  0  0  0  0  0  0  0
   15.3942  -11.2281  -12.2450 C   0  0  0  0  0  0  0  0  0  0  0  0
   14.4229  -12.3725  -12.1799 C   0  0  0  0  0  0  0  0  0  0  0  0
   14.3342  -13.1173  -13.4888 C   0  0  0  0  0  0  0  0  0  0  0  0
   13.2672  -14.1615  -13.5135 C   0  0  0  0  0  0  0  0  0  0  0  0
   13.2648  -14.8132  -14.8041 N   0  0  0  0  0  0  0  0  0  0  0  0
   15.9784   -9.0660  -11.2114 C   0  0  0  0  0  0  0  0  0  0  0  0
   17.1374   -9.0056  -11.6626 O   0  0  0  0  0  0  0  0  0  0  0  0
   13.6097   -6.0444   -8.8044 N   0  0  0  0  0  0  0  0  0  0  0  0
   14.5948   -6.7977   -8.0904 C   0  0  0  0  0  0  0  0  0  0  0  0
   14.3093   -7.1624   -6.9071 O   0  0  0  0  0  0  0  0  0  0  0  0
   15.8899   -7.1400   -8.6980 C   0  0  0  0  0  0  0  0  0  0  0  0
   15.8918   -6.7592  -10.1584 C   0  0  2  0  0  0  0  0  0  0  0  0
   15.2985   -7.8610  -10.9414 N   0  0  0  0  0  0  0  0  0  0  0  0
   17.2170   -6.4140  -10.7027 C   0  0  0  0  0  0  0  0  0  0  0  0
   17.8454   -5.4511  -10.1480 O   0  0  0  0  0  0  0  0  0  0  0  0
   17.8792   -7.0321  -11.7719 N   0  0  0  0  0  0  0  0  0  0  0  0
   19.0932   -6.5191  -12.3748 C   0  0  1  0  0  0  0  0  0  0  0  0
   20.1545   -7.6242  -12.4616 C   0  0  0  0  0  0  0  0  0  0  0  0
   21.3846   -7.1775  -13.1108 C   0  0  0  0  0  0  0  0  0  0  0  0
   21.6554   -5.9597  -13.1677 O   0  0  0  0  0  0  0  0  0  0  0  0
   18.8909   -5.9415  -13.7202 C   0  0  0  0  0  0  0  0  0  0  0  0
   19.7988   -5.4355  -14.4229 O   0  0  0  0  0  0  0  0  0  0  0  0
   22.2672   -8.0777  -13.6704 O   0  0  0  0  0  0  0  0  0  0  0  0
   17.6199   -5.9328  -14.2967 O   0  0  0  0  0  0  0  0  0  0  0  0
  2  3  1  0
  2  1  1  6
  4  3  1  0
  5  4  1  0
  6  5  1  0
  7  6  1  0
  8  9  2  0
  8  2  1  0
 10 11  1  0
 11 12  2  0
 11 13  1  0
 14 13  1  1
 14 15  1  0
 15  8  1  0
 16 17  2  0
 16 14  1  0
 18 16  1  0
 19 20  1  6
 19 18  1  0
 21 20  1  0
 21 22  2  0
 23 19  1  0
 24 23  2  0
 25 21  1  0
 26 23  1  0
M  END
$$$$
