KND.pdb
     RDKit          3D

 26 25  0  0  1  0  0  0  0  0999 V2000
   13.4612  -15.0161  -13.8955 N   0  0  0  0  0  0  0  0  0  0  0  0
   13.0709  -13.6634  -14.2237 C   0  0  1  0  0  0  0  0  0  0  0  0
   12.5065  -12.9296  -13.0320 C   0  0  0  0  0  0  0  0  0  0  0  0
   11.2394  -13.5659  -12.5351 C   0  0  0  0  0  0  0  0  0  0  0  0
   10.7040  -12.8789  -11.3033 C   0  0  0  0  0  0  0  0  0  0  0  0
    9.4542  -13.4959  -10.7680 C   0  0  0  0  0  0  0  0  0  0  0  0
    9.1096  -12.8672   -9.5124 N   0  0  0  0  0  0  0  0  0  0  0  0
   14.1869  -12.8974  -14.8374 C   0  0  0  0  0  0  0  0  0  0  0  0
   15.3425  -13.0837  -14.4129 O   0  0  0  0  0  0  0  0  0  0  0  0
   15.4271   -8.4521  -19.0120 N   0  0  0  0  0  0  0  0  0  0  0  0
   15.6764   -9.6514  -18.2724 C   0  0  0  0  0  0  0  0  0  0  0  0
   16.8831  -10.0360  -18.1693 O   0  0  0  0  0  0  0  0  0  0  0  0
   14.5816  -10.4140  -17.6529 C   0  0  0  0  0  0  0  0  0  0  0  0
   15.0836  -11.1320  -16.4240 C   0  0  2  0  0  0  0  0  0  0  0  0
   13.9953  -11.9681  -15.8799 N   0  0  0  0  0  0  0  0  0  0  0  0
   15.6137  -10.2501  -15.3693 C   0  0  0  0  0  0  0  0  0  0  0  0
   16.8775  -10.0727  -15.3345 O   0  0  0  0  0  0  0  0  0  0  0  0
   14.8803   -9.5697  -14.3880 N   0  0  0  0  0  0  0  0  0  0  0  0
   15.4711   -8.6718  -13.4159 C   0  0  1  0  0  0  0  0  0  0  0  0
   16.5145   -9.4133  -12.5692 C   0  0  0  0  0  0  0  0  0  0  0  0
   17.1546   -8.5518  -11.5781 C   0  0  0  0  0  0  0  0  0  0  0  0
   16.5538   -7.5485  -11.1399 O   0  0  0  0  0  0  0  0  0  0  0  0
   16.1013   -7.4770  -14.0158 C   0  0  0  0  0  0  0  0  0  0  0  0
   16.3345   -7.3326  -15.2401 O   0  0  0  0  0  0  0  0  0  0  0  0
   18.4227   -8.8208  -11.1070 O   0  0  0  0  0  0  0  0  0  0  0  0
   16.4834   -6.4046  -13.2084 O   0  0  0  0  0  0  0  0  0  0  0  0
  2  3  1  0
  2  1  1  1
  4  3  1  0
  5  4  1  0
  6  5  1  0
  7  6  1  0
  8  9  2  0
  8  2  1  0
 10 11  1  0
 11 12  2  0
 11 13  1  0
 14 13  1  6
 14 15  1  0
 15  8  1  0
 16 17  2  0
 16 14  1  0
 18 16  1  0
 19 20  1  6
 19 18  1  0
 21 20  1  0
 21 22  2  0
 23 19  1  0
 24 23  2  0
 25 21  1  0
 26 23  1  0
M  END
$$$$
