KND.pdb
     RDKit          3D

 26 25  0  0  1  0  0  0  0  0999 V2000
   27.5896  -20.7312  -14.5381 N   0  0  0  0  0  0  0  0  0  0  0  0
   26.2490  -20.5163  -15.0347 C   0  0  1  0  0  0  0  0  0  0  0  0
   26.0554  -21.0917  -16.4162 C   0  0  0  0  0  0  0  0  0  0  0  0
   27.1949  -20.7406  -17.3304 C   0  0  0  0  0  0  0  0  0  0  0  0
   28.0700  -21.9322  -17.6307 C   0  0  0  0  0  0  0  0  0  0  0  0
   29.2162  -21.6216  -18.5357 C   0  0  0  0  0  0  0  0  0  0  0  0
   30.0762  -22.7797  -18.6341 N   0  0  0  0  0  0  0  0  0  0  0  0
   25.2199  -21.0348  -14.0961 C   0  0  0  0  0  0  0  0  0  0  0  0
   24.6819  -22.1296  -14.3463 O   0  0  0  0  0  0  0  0  0  0  0  0
   26.1070  -22.0696  -11.0583 N   0  0  0  0  0  0  0  0  0  0  0  0
   25.4655  -21.1238  -10.1972 C   0  0  0  0  0  0  0  0  0  0  0  0
   26.0191  -20.8792   -9.0799 O   0  0  0  0  0  0  0  0  0  0  0  0
   24.2132  -20.4568  -10.5854 C   0  0  0  0  0  0  0  0  0  0  0  0
   23.8229  -20.8656  -11.9848 C   0  0  2  0  0  0  0  0  0  0  0  0
   24.8252  -20.3418  -12.9338 N   0  0  0  0  0  0  0  0  0  0  0  0
   22.4730  -20.4413  -12.3961 C   0  0  0  0  0  0  0  0  0  0  0  0
   21.4869  -20.8897  -11.7207 O   0  0  0  0  0  0  0  0  0  0  0  0
   22.1414  -19.5863  -13.4558 N   0  0  0  0  0  0  0  0  0  0  0  0
   20.7813  -19.2905  -13.8593 C   0  0  1  0  0  0  0  0  0  0  0  0
   20.7736  -18.2551  -14.9920 C   0  0  0  0  0  0  0  0  0  0  0  0
   19.4248  -17.8416  -15.3712 C   0  0  0  0  0  0  0  0  0  0  0  0
   18.6324  -17.4196  -14.5032 O   0  0  0  0  0  0  0  0  0  0  0  0
   20.0171  -20.4797  -14.2912 C   0  0  0  0  0  0  0  0  0  0  0  0
   18.8584  -20.7627  -13.9021 O   0  0  0  0  0  0  0  0  0  0  0  0
   18.9972  -17.9057  -16.6811 O   0  0  0  0  0  0  0  0  0  0  0  0
   20.5774  -21.3843  -15.1944 O   0  0  0  0  0  0  0  0  0  0  0  0
  2  3  1  0
  2  1  1  1
  4  3  1  0
  5  4  1  0
  6  5  1  0
  7  6  1  0
  8  9  2  0
  8  2  1  0
 10 11  1  0
 11 12  2  0
 11 13  1  0
 14 13  1  1
 14 15  1  0
 15  8  1  0
 16 17  2  0
 16 14  1  0
 18 16  1  0
 19 20  1  6
 19 18  1  0
 21 20  1  0
 21 22  2  0
 23 19  1  0
 24 23  2  0
 25 21  1  0
 26 23  1  0
M  END
$$$$
