KND.pdb
     RDKit          3D

 26 25  0  0  1  0  0  0  0  0999 V2000
   23.6224  -12.8975  -18.6920 N   0  0  0  0  0  0  0  0  0  0  0  0
   22.5768  -12.7738  -17.7014 C   0  0  1  0  0  0  0  0  0  0  0  0
   22.3363  -14.0682  -16.9639 C   0  0  0  0  0  0  0  0  0  0  0  0
   22.2335  -15.2346  -17.9052 C   0  0  0  0  0  0  0  0  0  0  0  0
   20.8065  -15.5189  -18.3036 C   0  0  0  0  0  0  0  0  0  0  0  0
   20.6706  -16.6222  -19.3003 C   0  0  0  0  0  0  0  0  0  0  0  0
   19.2745  -16.7979  -19.6328 N   0  0  0  0  0  0  0  0  0  0  0  0
   22.8429  -11.6636  -16.7496 C   0  0  0  0  0  0  0  0  0  0  0  0
   22.0164  -11.4424  -15.8450 O   0  0  0  0  0  0  0  0  0  0  0  0
   27.6351  -10.8164  -15.5387 N   0  0  0  0  0  0  0  0  0  0  0  0
   26.3628  -10.2998  -15.1365 C   0  0  0  0  0  0  0  0  0  0  0  0
   25.8712  -10.7348  -14.0484 O   0  0  0  0  0  0  0  0  0  0  0  0
   25.6467   -9.3031  -15.9474 C   0  0  0  0  0  0  0  0  0  0  0  0
   24.1764   -9.6397  -15.9993 C   0  0  2  0  0  0  0  0  0  0  0  0
   23.9908  -10.8489  -16.8254 N   0  0  0  0  0  0  0  0  0  0  0  0
   23.3137   -8.5542  -16.4981 C   0  0  0  0  0  0  0  0  0  0  0  0
   23.7006   -7.9319  -17.5435 O   0  0  0  0  0  0  0  0  0  0  0  0
   22.0973   -8.1221  -15.9526 N   0  0  0  0  0  0  0  0  0  0  0  0
   21.3272   -7.0113  -16.4754 C   0  0  1  0  0  0  0  0  0  0  0  0
   20.0663   -7.5229  -17.1850 C   0  0  0  0  0  0  0  0  0  0  0  0
   19.2974   -6.4520  -17.8144 C   0  0  0  0  0  0  0  0  0  0  0  0
   19.7598   -5.2928  -17.8591 O   0  0  0  0  0  0  0  0  0  0  0  0
   20.9325   -6.0252  -15.4476 C   0  0  0  0  0  0  0  0  0  0  0  0
   20.2717   -4.9833  -15.6754 O   0  0  0  0  0  0  0  0  0  0  0  0
   18.0569   -6.6906  -18.3682 O   0  0  0  0  0  0  0  0  0  0  0  0
   21.2947   -6.2183  -14.1136 O   0  0  0  0  0  0  0  0  0  0  0  0
  2  3  1  0
  2  1  1  6
  4  3  1  0
  5  4  1  0
  6  5  1  0
  7  6  1  0
  8  9  2  0
  8  2  1  0
 10 11  1  0
 11 12  2  0
 11 13  1  0
 14 13  1  6
 14 15  1  0
 15  8  1  0
 16 17  2  0
 16 14  1  0
 18 16  1  0
 19 20  1  1
 19 18  1  0
 21 20  1  0
 21 22  2  0
 23 19  1  0
 24 23  2  0
 25 21  1  0
 26 23  1  0
M  END
$$$$
