KND.pdb
     RDKit          3D

 26 25  0  0  1  0  0  0  0  0999 V2000
   28.3837  -21.5871  -16.6127 N   0  0  0  0  0  0  0  0  0  0  0  0
   28.2137  -20.5916  -15.5782 C   0  0  1  0  0  0  0  0  0  0  0  0
   27.9351  -19.2221  -16.1475 C   0  0  0  0  0  0  0  0  0  0  0  0
   26.9090  -19.2729  -17.2438 C   0  0  0  0  0  0  0  0  0  0  0  0
   26.7920  -17.9578  -17.9736 C   0  0  0  0  0  0  0  0  0  0  0  0
   25.7530  -17.9574  -19.0459 C   0  0  0  0  0  0  0  0  0  0  0  0
   25.6785  -16.6413  -19.6400 N   0  0  0  0  0  0  0  0  0  0  0  0
   27.1651  -20.9817  -14.5998 C   0  0  0  0  0  0  0  0  0  0  0  0
   26.2797  -21.7794  -14.9607 O   0  0  0  0  0  0  0  0  0  0  0  0
   24.4910  -21.7490  -10.2521 N   0  0  0  0  0  0  0  0  0  0  0  0
   25.5446  -20.8386   -9.9222 C   0  0  0  0  0  0  0  0  0  0  0  0
   25.6523  -20.4827   -8.7071 O   0  0  0  0  0  0  0  0  0  0  0  0
   26.4706  -20.3311  -10.9463 C   0  0  0  0  0  0  0  0  0  0  0  0
   26.0991  -20.8871  -12.2993 C   0  0  2  0  0  0  0  0  0  0  0  0
   27.1282  -20.4884  -13.2798 N   0  0  0  0  0  0  0  0  0  0  0  0
   24.7650  -20.4899  -12.7829 C   0  0  0  0  0  0  0  0  0  0  0  0
   24.6383  -19.3075  -13.2472 O   0  0  0  0  0  0  0  0  0  0  0  0
   23.6027  -21.2727  -12.7965 N   0  0  0  0  0  0  0  0  0  0  0  0
   22.3346  -20.8259  -13.3372 C   0  0  1  0  0  0  0  0  0  0  0  0
   21.9753  -21.6328  -14.5922 C   0  0  0  0  0  0  0  0  0  0  0  0
   20.7646  -21.1470  -15.2496 C   0  0  0  0  0  0  0  0  0  0  0  0
   20.1706  -21.8678  -16.0787 O   0  0  0  0  0  0  0  0  0  0  0  0
   21.2152  -20.9104  -12.3757 C   0  0  0  0  0  0  0  0  0  0  0  0
   21.3031  -21.3887  -11.2191 O   0  0  0  0  0  0  0  0  0  0  0  0
   20.2528  -19.8958  -14.9753 O   0  0  0  0  0  0  0  0  0  0  0  0
   19.9497  -20.4393  -12.7284 O   0  0  0  0  0  0  0  0  0  0  0  0
  2  3  1  0
  2  1  1  6
  4  3  1  0
  5  4  1  0
  6  5  1  0
  7  6  1  0
  8  9  2  0
  8  2  1  0
 10 11  1  0
 11 12  2  0
 11 13  1  0
 14 13  1  1
 14 15  1  0
 15  8  1  0
 16 17  2  0
 16 14  1  0
 18 16  1  0
 19 20  1  6
 19 18  1  0
 21 20  1  0
 21 22  2  0
 23 19  1  0
 24 23  2  0
 25 21  1  0
 26 23  1  0
M  END
$$$$
