KND.pdb
     RDKit          3D

 26 25  0  0  1  0  0  0  0  0999 V2000
   13.5873  -11.5253  -10.7985 N   0  0  0  0  0  0  0  0  0  0  0  0
   14.6457  -10.5609  -10.9974 C   0  0  1  0  0  0  0  0  0  0  0  0
   15.0129  -10.4120  -12.4535 C   0  0  0  0  0  0  0  0  0  0  0  0
   15.3588  -11.7338  -13.0786 C   0  0  0  0  0  0  0  0  0  0  0  0
   16.8298  -11.8448  -13.3947 C   0  0  0  0  0  0  0  0  0  0  0  0
   17.1934  -13.0954  -14.1248 C   0  0  0  0  0  0  0  0  0  0  0  0
   18.6144  -13.0979  -14.3921 N   0  0  0  0  0  0  0  0  0  0  0  0
   14.3146   -9.2421  -10.3973 C   0  0  0  0  0  0  0  0  0  0  0  0
   13.2875   -8.6527  -10.7821 O   0  0  0  0  0  0  0  0  0  0  0  0
   14.5702   -4.7976   -7.7385 N   0  0  0  0  0  0  0  0  0  0  0  0
   14.5866   -5.9396   -6.8765 C   0  0  0  0  0  0  0  0  0  0  0  0
   14.4118   -5.7383   -5.6340 O   0  0  0  0  0  0  0  0  0  0  0  0
   14.7970   -7.2970   -7.4028 C   0  0  0  0  0  0  0  0  0  0  0  0
   14.8649   -7.2615   -8.9101 C   0  0  2  0  0  0  0  0  0  0  0  0
   15.1123   -8.6280   -9.4107 N   0  0  0  0  0  0  0  0  0  0  0  0
   15.8716   -6.3362   -9.4593 C   0  0  0  0  0  0  0  0  0  0  0  0
   17.1001   -6.6388   -9.2888 O   0  0  0  0  0  0  0  0  0  0  0  0
   15.6336   -5.1469  -10.1613 N   0  0  0  0  0  0  0  0  0  0  0  0
   16.6662   -4.3888  -10.8389 C   0  0  1  0  0  0  0  0  0  0  0  0
   17.4357   -5.2888  -11.8152 C   0  0  0  0  0  0  0  0  0  0  0  0
   18.4701   -4.5683  -12.5534 C   0  0  0  0  0  0  0  0  0  0  0  0
   18.7074   -3.3708  -12.2903 O   0  0  0  0  0  0  0  0  0  0  0  0
   16.1553   -3.2117  -11.5725 C   0  0  0  0  0  0  0  0  0  0  0  0
   15.0703   -3.1793  -12.2016 O   0  0  0  0  0  0  0  0  0  0  0  0
   19.2019   -5.1841  -13.5472 O   0  0  0  0  0  0  0  0  0  0  0  0
   16.8925   -2.0269  -11.5995 O   0  0  0  0  0  0  0  0  0  0  0  0
  2  3  1  0
  2  1  1  6
  4  3  1  0
  5  4  1  0
  6  5  1  0
  7  6  1  0
  8  9  2  0
  8  2  1  0
 10 11  1  0
 11 12  2  0
 11 13  1  0
 14 13  1  1
 14 15  1  0
 15  8  1  0
 16 17  2  0
 16 14  1  0
 18 16  1  0
 19 20  1  6
 19 18  1  0
 21 20  1  0
 21 22  2  0
 23 19  1  0
 24 23  2  0
 25 21  1  0
 26 23  1  0
M  END
$$$$
