KND.pdb
     RDKit          3D

 26 25  0  0  1  0  0  0  0  0999 V2000
   26.3728  -18.0429  -16.0144 N   0  0  0  0  0  0  0  0  0  0  0  0
   26.4856  -19.4590  -16.2824 C   0  0  1  0  0  0  0  0  0  0  0  0
   27.8286  -19.8217  -16.8672 C   0  0  0  0  0  0  0  0  0  0  0  0
   28.1982  -18.9225  -18.0128 C   0  0  0  0  0  0  0  0  0  0  0  0
   29.5608  -19.2474  -18.5729 C   0  0  0  0  0  0  0  0  0  0  0  0
   29.5547  -19.5295  -20.0391 C   0  0  0  0  0  0  0  0  0  0  0  0
   30.8866  -19.9023  -20.4605 N   0  0  0  0  0  0  0  0  0  0  0  0
   26.1952  -20.2768  -15.0758 C   0  0  0  0  0  0  0  0  0  0  0  0
   26.1958  -21.5175  -15.1818 O   0  0  0  0  0  0  0  0  0  0  0  0
   25.0139  -21.7417  -10.2384 N   0  0  0  0  0  0  0  0  0  0  0  0
   25.7946  -20.5438  -10.1811 C   0  0  0  0  0  0  0  0  0  0  0  0
   26.1559  -20.1343   -9.0337 O   0  0  0  0  0  0  0  0  0  0  0  0
   26.1679  -19.8106  -11.4004 C   0  0  0  0  0  0  0  0  0  0  0  0
   25.6210  -20.5182  -12.6162 C   0  0  2  0  0  0  0  0  0  0  0  0
   25.9189  -19.7100  -13.8151 N   0  0  0  0  0  0  0  0  0  0  0  0
   24.1791  -20.8166  -12.5580 C   0  0  0  0  0  0  0  0  0  0  0  0
   23.8262  -22.0338  -12.7117 O   0  0  0  0  0  0  0  0  0  0  0  0
   23.1350  -19.9063  -12.3460 N   0  0  0  0  0  0  0  0  0  0  0  0
   21.8621  -19.9625  -13.0367 C   0  0  1  0  0  0  0  0  0  0  0  0
   22.0762  -19.9120  -14.5555 C   0  0  0  0  0  0  0  0  0  0  0  0
   20.8339  -20.0713  -15.3075 C   0  0  0  0  0  0  0  0  0  0  0  0
   20.8581  -20.5453  -16.4626 O   0  0  0  0  0  0  0  0  0  0  0  0
   21.0577  -21.1572  -12.7050 C   0  0  0  0  0  0  0  0  0  0  0  0
   21.5135  -22.3232  -12.6216 O   0  0  0  0  0  0  0  0  0  0  0  0
   19.6179  -19.7068  -14.7680 O   0  0  0  0  0  0  0  0  0  0  0  0
   19.6894  -21.0359  -12.4580 O   0  0  0  0  0  0  0  0  0  0  0  0
  2  3  1  0
  2  1  1  1
  4  3  1  0
  5  4  1  0
  6  5  1  0
  7  6  1  0
  8  9  2  0
  8  2  1  0
 10 11  1  0
 11 12  2  0
 11 13  1  0
 14 13  1  1
 14 15  1  0
 15  8  1  0
 16 17  2  0
 16 14  1  0
 18 16  1  0
 19 20  1  6
 19 18  1  0
 21 20  1  0
 21 22  2  0
 23 19  1  0
 24 23  2  0
 25 21  1  0
 26 23  1  0
M  END
$$$$
