KND.pdb
     RDKit          3D

 26 25  0  0  1  0  0  0  0  0999 V2000
   21.7436  -13.6408  -18.7943 N   0  0  0  0  0  0  0  0  0  0  0  0
   21.1987  -13.6105  -17.4556 C   0  0  1  0  0  0  0  0  0  0  0  0
   21.1478  -14.9834  -16.8313 C   0  0  0  0  0  0  0  0  0  0  0  0
   20.6183  -16.0118  -17.7901 C   0  0  0  0  0  0  0  0  0  0  0  0
   19.2841  -16.5631  -17.3519 C   0  0  0  0  0  0  0  0  0  0  0  0
   18.7019  -17.5533  -18.3057 C   0  0  0  0  0  0  0  0  0  0  0  0
   17.3788  -17.9277  -17.8589 N   0  0  0  0  0  0  0  0  0  0  0  0
   21.9302  -12.6576  -16.5804 C   0  0  0  0  0  0  0  0  0  0  0  0
   21.5014  -12.4557  -15.4290 O   0  0  0  0  0  0  0  0  0  0  0  0
   27.3476  -10.2274  -15.2282 N   0  0  0  0  0  0  0  0  0  0  0  0
   25.9706  -10.0671  -15.5825 C   0  0  0  0  0  0  0  0  0  0  0  0
   25.3776   -9.0214  -15.1708 O   0  0  0  0  0  0  0  0  0  0  0  0
   25.2635  -11.0710  -16.3924 C   0  0  0  0  0  0  0  0  0  0  0  0
   23.7760  -10.9687  -16.1581 C   0  0  2  0  0  0  0  0  0  0  0  0
   23.0892  -11.9714  -16.9962 N   0  0  0  0  0  0  0  0  0  0  0  0
   23.2045   -9.6330  -16.4043 C   0  0  0  0  0  0  0  0  0  0  0  0
   23.1058   -9.2529  -17.6191 O   0  0  0  0  0  0  0  0  0  0  0  0
   22.7459   -8.7195  -15.4456 N   0  0  0  0  0  0  0  0  0  0  0  0
   21.9468   -7.5521  -15.7600 C   0  0  1  0  0  0  0  0  0  0  0  0
   20.6987   -7.9579  -16.5556 C   0  0  0  0  0  0  0  0  0  0  0  0
   19.8421   -6.8208  -16.8830 C   0  0  0  0  0  0  0  0  0  0  0  0
   20.3506   -5.7254  -17.2010 O   0  0  0  0  0  0  0  0  0  0  0  0
   21.5279   -6.7804  -14.5711 C   0  0  0  0  0  0  0  0  0  0  0  0
   21.7284   -7.1342  -13.3842 O   0  0  0  0  0  0  0  0  0  0  0  0
   18.4672   -6.9263  -16.8497 O   0  0  0  0  0  0  0  0  0  0  0  0
   20.8586   -5.5651  -14.7230 O   0  0  0  0  0  0  0  0  0  0  0  0
  2  3  1  0
  2  1  1  6
  4  3  1  0
  5  4  1  0
  6  5  1  0
  7  6  1  0
  8  9  2  0
  8  2  1  0
 10 11  1  0
 11 12  2  0
 11 13  1  0
 14 13  1  6
 14 15  1  0
 15  8  1  0
 16 17  2  0
 16 14  1  0
 18 16  1  0
 19 20  1  1
 19 18  1  0
 21 20  1  0
 21 22  2  0
 23 19  1  0
 24 23  2  0
 25 21  1  0
 26 23  1  0
M  END
$$$$
