KND.pdb
     RDKit          3D

 26 25  0  0  1  0  0  0  0  0999 V2000
   20.2602  -11.6827  -17.8530 N   0  0  0  0  0  0  0  0  0  0  0  0
   20.4287  -11.8326  -16.4251 C   0  0  1  0  0  0  0  0  0  0  0  0
   20.8332  -13.2357  -16.0445 C   0  0  0  0  0  0  0  0  0  0  0  0
   19.6504  -14.1605  -15.9886 C   0  0  0  0  0  0  0  0  0  0  0  0
   18.8090  -14.0824  -17.2384 C   0  0  0  0  0  0  0  0  0  0  0  0
   17.5628  -14.9025  -17.1744 C   0  0  0  0  0  0  0  0  0  0  0  0
   17.9146  -16.3026  -17.0946 N   0  0  0  0  0  0  0  0  0  0  0  0
   21.3840  -10.8376  -15.8717 C   0  0  0  0  0  0  0  0  0  0  0  0
   21.5466  -10.7887  -14.6382 O   0  0  0  0  0  0  0  0  0  0  0  0
   25.9193  -10.6243  -15.7918 N   0  0  0  0  0  0  0  0  0  0  0  0
   25.0007  -10.3541  -16.8551 C   0  0  0  0  0  0  0  0  0  0  0  0
   24.7665  -11.2921  -17.6797 O   0  0  0  0  0  0  0  0  0  0  0  0
   24.3492   -9.0425  -16.9933 C   0  0  0  0  0  0  0  0  0  0  0  0
   23.1043   -8.9921  -16.1415 C   0  0  2  0  0  0  0  0  0  0  0  0
   22.1153   -9.9455  -16.6821 N   0  0  0  0  0  0  0  0  0  0  0  0
   22.4967   -7.6553  -16.0179 C   0  0  0  0  0  0  0  0  0  0  0  0
   22.0325   -7.1223  -17.0810 O   0  0  0  0  0  0  0  0  0  0  0  0
   22.3633   -6.8916  -14.8506 N   0  0  0  0  0  0  0  0  0  0  0  0
   21.7160   -5.5958  -14.8030 C   0  0  1  0  0  0  0  0  0  0  0  0
   20.1953   -5.7534  -14.9357 C   0  0  0  0  0  0  0  0  0  0  0  0
   19.4911   -4.4735  -14.9285 C   0  0  0  0  0  0  0  0  0  0  0  0
   18.3163   -4.4080  -14.5100 O   0  0  0  0  0  0  0  0  0  0  0  0
   22.0134   -4.8271  -13.5761 C   0  0  0  0  0  0  0  0  0  0  0  0
   22.6079   -5.2884  -12.5721 O   0  0  0  0  0  0  0  0  0  0  0  0
   20.0978   -3.3192  -15.3781 O   0  0  0  0  0  0  0  0  0  0  0  0
   21.6278   -3.4896  -13.4748 O   0  0  0  0  0  0  0  0  0  0  0  0
  2  3  1  0
  2  1  1  6
  4  3  1  0
  5  4  1  0
  6  5  1  0
  7  6  1  0
  8  9  2  0
  8  2  1  0
 10 11  1  0
 11 12  2  0
 11 13  1  0
 14 13  1  6
 14 15  1  0
 15  8  1  0
 16 17  2  0
 16 14  1  0
 18 16  1  0
 19 20  1  1
 19 18  1  0
 21 20  1  0
 21 22  2  0
 23 19  1  0
 24 23  2  0
 25 21  1  0
 26 23  1  0
M  END
$$$$
