EPP.pdb
     RDKit          3D

 24 25  0  0  1  0  0  0  0  0999 V2000
   11.5630  -16.5565   20.6822 N   0  0  0  0  0  0  0  0  0  0  0  0
   10.2394  -16.7082   21.1898 C   0  0  1  0  0  0  0  0  0  0  0  0
   10.1304  -18.0018   21.9597 C   0  0  0  0  0  0  0  0  0  0  0  0
   11.3379  -18.8776   21.9319 C   0  0  0  0  0  0  0  0  0  0  0  0
   11.4526  -19.9287   22.9294 C   0  0  0  0  0  0  0  0  0  0  0  0
   10.9795  -21.0560   22.8201 O   0  0  0  0  0  0  0  0  0  0  0  0
    9.8790  -15.5523   22.0785 C   0  0  0  0  0  0  0  0  0  0  0  0
   10.7243  -15.2766   22.9447 O   0  0  0  0  0  0  0  0  0  0  0  0
   12.1552  -19.6611   24.1236 O   0  0  0  0  0  0  0  0  0  0  0  0
    8.6859  -14.8773   21.9075 N   0  0  0  0  0  0  0  0  0  0  0  0
    8.1555  -14.5124   20.5716 C   0  0  0  0  0  0  0  0  0  0  0  0
    6.7045  -14.8878   20.7133 C   0  0  0  0  0  0  0  0  0  0  0  0
    6.4442  -14.9688   22.1961 C   0  0  0  0  0  0  0  0  0  0  0  0
    7.6944  -14.2679   22.7710 C   0  0  1  0  0  0  0  0  0  0  0  0
    7.8151  -14.5948   24.1963 C   0  0  0  0  0  0  0  0  0  0  0  0
    7.8324  -15.8681   24.4309 O   0  0  0  0  0  0  0  0  0  0  0  0
    7.9153  -13.7628   25.3049 N   0  0  0  0  0  0  0  0  0  0  0  0
    8.1757  -12.2869   25.1033 C   0  0  0  0  0  0  0  0  0  0  0  0
    7.0236  -11.7175   25.9443 C   0  0  0  0  0  0  0  0  0  0  0  0
    6.5910  -12.8628   26.8752 C   0  0  0  0  0  0  0  0  0  0  0  0
    7.8164  -13.7647   26.7164 C   0  0  1  0  0  0  0  0  0  0  0  0
    7.8287  -14.9503   27.5081 C   0  0  0  0  0  0  0  0  0  0  0  0
    8.7095  -15.1359   28.6040 O   0  0  0  0  0  0  0  0  0  0  0  0
    7.0729  -15.9099   27.3025 O   0  0  0  0  0  0  0  0  0  0  0  0
  2  1  1  1
  3  2  1  0
  3  4  1  0
  4  5  1  0
  5  9  1  0
  5  6  2  0
  7  2  1  0
  8  7  2  0
 10  7  1  0
 10 14  1  0
 11 12  1  0
 11 10  1  0
 12 13  1  0
 13 14  1  0
 14 15  1  1
 15 16  2  0
 17 15  1  0
 17 21  1  0
 18 19  1  0
 18 17  1  0
 19 20  1  0
 20 21  1  0
 21 22  1  6
 22 24  2  0
 22 23  1  0
M  END
$$$$
