EPP.pdb
     RDKit          3D

 24 25  0  0  1  0  0  0  0  0999 V2000
   11.6888  -16.2191   20.6641 N   0  0  0  0  0  0  0  0  0  0  0  0
   10.4203  -16.5522   21.2232 C   0  0  1  0  0  0  0  0  0  0  0  0
   10.5283  -17.8341   22.0126 C   0  0  0  0  0  0  0  0  0  0  0  0
   11.6916  -17.9283   22.9418 C   0  0  0  0  0  0  0  0  0  0  0  0
   11.4422  -18.2907   24.3273 C   0  0  0  0  0  0  0  0  0  0  0  0
   11.4209  -17.5016   25.2672 O   0  0  0  0  0  0  0  0  0  0  0  0
    9.9274  -15.4452   22.1106 C   0  0  0  0  0  0  0  0  0  0  0  0
   10.7327  -15.0753   22.9798 O   0  0  0  0  0  0  0  0  0  0  0  0
   11.2037  -19.6447   24.6451 O   0  0  0  0  0  0  0  0  0  0  0  0
    8.6658  -14.9105   21.9354 N   0  0  0  0  0  0  0  0  0  0  0  0
    8.0677  -14.6889   20.5965 C   0  0  0  0  0  0  0  0  0  0  0  0
    6.6685  -15.2036   20.8052 C   0  0  0  0  0  0  0  0  0  0  0  0
    6.4540  -15.2164   22.2975 C   0  0  0  0  0  0  0  0  0  0  0  0
    7.6364  -14.3538   22.7901 C   0  0  1  0  0  0  0  0  0  0  0  0
    7.8253  -14.5747   24.2283 C   0  0  0  0  0  0  0  0  0  0  0  0
    7.8753  -15.8273   24.5527 O   0  0  0  0  0  0  0  0  0  0  0  0
    7.9592  -13.6632   25.2686 N   0  0  0  0  0  0  0  0  0  0  0  0
    8.2297  -12.2097   24.9507 C   0  0  0  0  0  0  0  0  0  0  0  0
    7.1030  -11.5653   25.7719 C   0  0  0  0  0  0  0  0  0  0  0  0
    6.6805  -12.6324   26.7957 C   0  0  0  0  0  0  0  0  0  0  0  0
    7.8928  -13.5580   26.6781 C   0  0  1  0  0  0  0  0  0  0  0  0
    7.9114  -14.6809   27.5563 C   0  0  0  0  0  0  0  0  0  0  0  0
    8.7095  -14.7300   28.7276 O   0  0  0  0  0  0  0  0  0  0  0  0
    7.2336  -15.7002   27.3669 O   0  0  0  0  0  0  0  0  0  0  0  0
  2  1  1  1
  3  2  1  0
  3  4  1  0
  4  5  1  0
  5  9  1  0
  5  6  2  0
  7  2  1  0
  8  7  2  0
 10  7  1  0
 10 14  1  0
 11 12  1  0
 11 10  1  0
 12 13  1  0
 13 14  1  0
 14 15  1  1
 15 16  2  0
 17 15  1  0
 17 21  1  0
 18 19  1  0
 18 17  1  0
 19 20  1  0
 20 21  1  0
 21 22  1  1
 22 24  2  0
 22 23  1  0
M  END
$$$$
