EPP.pdb
     RDKit          3D

 24 25  0  0  1  0  0  0  0  0999 V2000
   10.7930  -16.0570   20.4898 N   0  0  0  0  0  0  0  0  0  0  0  0
    9.6945  -16.3100   21.3627 C   0  0  1  0  0  0  0  0  0  0  0  0
    9.6111  -17.7859   21.6677 C   0  0  0  0  0  0  0  0  0  0  0  0
   10.8928  -18.4415   22.0592 C   0  0  0  0  0  0  0  0  0  0  0  0
   10.8707  -19.8543   22.4003 C   0  0  0  0  0  0  0  0  0  0  0  0
   11.8546  -20.5162   22.7173 O   0  0  0  0  0  0  0  0  0  0  0  0
    9.8439  -15.5319   22.6386 C   0  0  0  0  0  0  0  0  0  0  0  0
   10.9699  -15.5917   23.1576 O   0  0  0  0  0  0  0  0  0  0  0  0
    9.6391  -20.5427   22.3732 O   0  0  0  0  0  0  0  0  0  0  0  0
    8.7807  -14.8187   23.1575 N   0  0  0  0  0  0  0  0  0  0  0  0
    7.8327  -14.0597   22.3064 C   0  0  0  0  0  0  0  0  0  0  0  0
    6.5112  -14.4381   22.9199 C   0  0  0  0  0  0  0  0  0  0  0  0
    6.8322  -14.9587   24.2979 C   0  0  0  0  0  0  0  0  0  0  0  0
    8.2902  -14.4831   24.4792 C   0  0  1  0  0  0  0  0  0  0  0  0
    8.9036  -15.2267   25.5855 C   0  0  0  0  0  0  0  0  0  0  0  0
    8.6885  -16.5023   25.5278 O   0  0  0  0  0  0  0  0  0  0  0  0
    9.6656  -14.7784   26.6576 N   0  0  0  0  0  0  0  0  0  0  0  0
   10.3199  -13.4170   26.5845 C   0  0  0  0  0  0  0  0  0  0  0  0
    9.8067  -12.8269   27.9063 C   0  0  0  0  0  0  0  0  0  0  0  0
    9.3729  -14.0351   28.7532 C   0  0  0  0  0  0  0  0  0  0  0  0
   10.0797  -15.1373   27.9621 C   0  0  1  0  0  0  0  0  0  0  0  0
    9.9707  -16.4568   28.4912 C   0  0  0  0  0  0  0  0  0  0  0  0
   10.8362  -16.9577   29.4967 O   0  0  0  0  0  0  0  0  0  0  0  0
    9.1134  -17.2682   28.1158 O   0  0  0  0  0  0  0  0  0  0  0  0
  2  1  1  6
  3  2  1  0
  3  4  1  0
  4  5  1  0
  5  9  1  0
  5  6  2  0
  7  2  1  0
  8  7  2  0
 10  7  1  0
 10 14  1  0
 11 12  1  0
 11 10  1  0
 12 13  1  0
 13 14  1  0
 14 15  1  1
 15 16  2  0
 17 15  1  0
 17 21  1  0
 18 19  1  0
 18 17  1  0
 19 20  1  0
 20 21  1  0
 21 22  1  1
 22 24  2  0
 22 23  1  0
M  END
$$$$
