EPP.pdb
     RDKit          3D

 24 25  0  0  1  0  0  0  0  0999 V2000
    9.0940  -14.4463   20.8317 N   0  0  0  0  0  0  0  0  0  0  0  0
    8.5910  -15.3066   21.8513 C   0  0  1  0  0  0  0  0  0  0  0  0
    9.0240  -16.7274   21.5833 C   0  0  0  0  0  0  0  0  0  0  0  0
    8.5418  -17.7481   22.5588 C   0  0  0  0  0  0  0  0  0  0  0  0
    8.9284  -19.1347   22.3564 C   0  0  0  0  0  0  0  0  0  0  0  0
    9.5940  -19.5479   21.4115 O   0  0  0  0  0  0  0  0  0  0  0  0
    9.0821  -14.8686   23.2014 C   0  0  0  0  0  0  0  0  0  0  0  0
   10.2687  -15.1442   23.4398 O   0  0  0  0  0  0  0  0  0  0  0  0
    8.5216  -20.1004   23.3015 O   0  0  0  0  0  0  0  0  0  0  0  0
    8.2406  -14.2119   24.0783 N   0  0  0  0  0  0  0  0  0  0  0  0
    7.2165  -13.2378   23.6291 C   0  0  0  0  0  0  0  0  0  0  0  0
    6.0280  -13.6510   24.4556 C   0  0  0  0  0  0  0  0  0  0  0  0
    6.5845  -14.4610   25.5989 C   0  0  0  0  0  0  0  0  0  0  0  0
    8.0893  -14.1237   25.5168 C   0  0  1  0  0  0  0  0  0  0  0  0
    8.8461  -15.1141   26.2910 C   0  0  0  0  0  0  0  0  0  0  0  0
    8.5214  -16.3370   26.0161 O   0  0  0  0  0  0  0  0  0  0  0  0
    9.8379  -14.9404   27.2488 N   0  0  0  0  0  0  0  0  0  0  0  0
   10.5796  -13.6244   27.3181 C   0  0  0  0  0  0  0  0  0  0  0  0
   10.3861  -13.3121   28.8094 C   0  0  0  0  0  0  0  0  0  0  0  0
   10.0237  -14.6550   29.4655 C   0  0  0  0  0  0  0  0  0  0  0  0
   10.4658  -15.5896   28.3380 C   0  0  1  0  0  0  0  0  0  0  0  0
   10.3492  -16.9863   28.5997 C   0  0  0  0  0  0  0  0  0  0  0  0
    9.1442  -17.7086   28.4060 O   0  0  0  0  0  0  0  0  0  0  0  0
   11.2887  -17.6781   29.0158 O   0  0  0  0  0  0  0  0  0  0  0  0
  2  1  1  6
  3  2  1  0
  3  4  1  0
  4  5  1  0
  5  9  1  0
  5  6  2  0
  7  2  1  0
  8  7  2  0
 10  7  1  0
 10 14  1  0
 11 12  1  0
 11 10  1  0
 12 13  1  0
 13 14  1  0
 14 15  1  1
 15 16  2  0
 17 15  1  0
 17 21  1  0
 18 19  1  0
 18 17  1  0
 19 20  1  0
 20 21  1  0
 21 22  1  1
 22 24  2  0
 22 23  1  0
M  END
$$$$
