EPP.pdb
     RDKit          3D

 24 25  0  0  1  0  0  0  0  0999 V2000
   11.2549  -16.6469   20.8143 N   0  0  0  0  0  0  0  0  0  0  0  0
   10.3520  -17.1172   21.8125 C   0  0  1  0  0  0  0  0  0  0  0  0
   10.7033  -18.5342   22.1953 C   0  0  0  0  0  0  0  0  0  0  0  0
   11.0218  -19.4526   21.0634 C   0  0  0  0  0  0  0  0  0  0  0  0
   11.6853  -20.7114   21.3602 C   0  0  0  0  0  0  0  0  0  0  0  0
   11.2178  -21.6041   22.0611 O   0  0  0  0  0  0  0  0  0  0  0  0
   10.3993  -16.2332   23.0258 C   0  0  0  0  0  0  0  0  0  0  0  0
   11.5075  -16.1677   23.5810 O   0  0  0  0  0  0  0  0  0  0  0  0
   12.9644  -20.9526   20.8151 O   0  0  0  0  0  0  0  0  0  0  0  0
    9.2694  -15.5636   23.4541 N   0  0  0  0  0  0  0  0  0  0  0  0
    8.3100  -14.9294   22.5179 C   0  0  0  0  0  0  0  0  0  0  0  0
    6.9917  -15.3584   23.1046 C   0  0  0  0  0  0  0  0  0  0  0  0
    7.2876  -15.7648   24.5259 C   0  0  0  0  0  0  0  0  0  0  0  0
    8.7014  -15.1780   24.7303 C   0  0  1  0  0  0  0  0  0  0  0  0
    9.3152  -15.8037   25.9071 C   0  0  0  0  0  0  0  0  0  0  0  0
    9.1402  -17.0857   25.9564 O   0  0  0  0  0  0  0  0  0  0  0  0
   10.0420  -15.2406   26.9491 N   0  0  0  0  0  0  0  0  0  0  0  0
   10.6473  -13.8660   26.7732 C   0  0  0  0  0  0  0  0  0  0  0  0
   10.0904  -13.1896   28.0346 C   0  0  0  0  0  0  0  0  0  0  0  0
    9.6869  -14.3401   28.9721 C   0  0  0  0  0  0  0  0  0  0  0  0
   10.4468  -15.4758   28.2844 C   0  0  1  0  0  0  0  0  0  0  0  0
   10.3771  -16.7507   28.9187 C   0  0  0  0  0  0  0  0  0  0  0  0
    9.2624  -17.6173   28.7863 O   0  0  0  0  0  0  0  0  0  0  0  0
   11.2824  -17.2017   29.6339 O   0  0  0  0  0  0  0  0  0  0  0  0
  2  1  1  6
  3  2  1  0
  3  4  1  0
  4  5  1  0
  5  9  1  0
  5  6  2  0
  7  2  1  0
  8  7  2  0
 10  7  1  0
 10 14  1  0
 11 12  1  0
 11 10  1  0
 12 13  1  0
 13 14  1  0
 14 15  1  1
 15 16  2  0
 17 15  1  0
 17 21  1  0
 18 19  1  0
 18 17  1  0
 19 20  1  0
 20 21  1  0
 21 22  1  1
 22 24  2  0
 22 23  1  0
M  END
$$$$
