EPP.pdb
     RDKit          3D

 24 25  0  0  1  0  0  0  0  0999 V2000
    8.6465  -14.0861   20.9936 N   0  0  0  0  0  0  0  0  0  0  0  0
    8.1378  -14.9783   21.9824 C   0  0  1  0  0  0  0  0  0  0  0  0
    8.4446  -16.4040   21.5934 C   0  0  0  0  0  0  0  0  0  0  0  0
    7.9619  -17.4530   22.5381 C   0  0  0  0  0  0  0  0  0  0  0  0
    8.1988  -18.8474   22.2027 C   0  0  0  0  0  0  0  0  0  0  0  0
    9.3004  -19.3372   21.9716 O   0  0  0  0  0  0  0  0  0  0  0  0
    8.7369  -14.6747   23.3258 C   0  0  0  0  0  0  0  0  0  0  0  0
    9.9062  -15.0631   23.4756 O   0  0  0  0  0  0  0  0  0  0  0  0
    7.0981  -19.7273   22.1297 O   0  0  0  0  0  0  0  0  0  0  0  0
    8.0037  -14.0113   24.2906 N   0  0  0  0  0  0  0  0  0  0  0  0
    6.9858  -12.9849   23.9593 C   0  0  0  0  0  0  0  0  0  0  0  0
    5.8582  -13.3750   24.8773 C   0  0  0  0  0  0  0  0  0  0  0  0
    6.4786  -14.2393   25.9455 C   0  0  0  0  0  0  0  0  0  0  0  0
    7.9831  -13.9592   25.7386 C   0  0  1  0  0  0  0  0  0  0  0  0
    8.7629  -15.0008   26.4168 C   0  0  0  0  0  0  0  0  0  0  0  0
    8.3522  -16.2008   26.1561 O   0  0  0  0  0  0  0  0  0  0  0  0
    9.8523  -14.8950   27.2731 N   0  0  0  0  0  0  0  0  0  0  0  0
   10.7244  -13.6610   27.2147 C   0  0  0  0  0  0  0  0  0  0  0  0
   10.7033  -13.2753   28.7012 C   0  0  0  0  0  0  0  0  0  0  0  0
   10.2722  -14.5484   29.4487 C   0  0  0  0  0  0  0  0  0  0  0  0
   10.5118  -15.5648   28.3307 C   0  0  1  0  0  0  0  0  0  0  0  0
   10.2820  -16.9313   28.6663 C   0  0  0  0  0  0  0  0  0  0  0  0
   11.3314  -17.8419   28.9505 O   0  0  0  0  0  0  0  0  0  0  0  0
    9.1505  -17.4304   28.7364 O   0  0  0  0  0  0  0  0  0  0  0  0
  2  1  1  6
  3  2  1  0
  3  4  1  0
  4  5  1  0
  5  9  1  0
  5  6  2  0
  7  2  1  0
  8  7  2  0
 10  7  1  0
 10 14  1  0
 11 12  1  0
 11 10  1  0
 12 13  1  0
 13 14  1  0
 14 15  1  1
 15 16  2  0
 17 15  1  0
 17 21  1  0
 18 19  1  0
 18 17  1  0
 19 20  1  0
 20 21  1  0
 21 22  1  1
 22 24  2  0
 22 23  1  0
M  END
$$$$
