EPP.pdb
     RDKit          3D

 24 25  0  0  1  0  0  0  0  0999 V2000
    9.0972  -14.7502   20.8841 N   0  0  0  0  0  0  0  0  0  0  0  0
    8.2611  -15.1182   21.9787 C   0  0  1  0  0  0  0  0  0  0  0  0
    8.0282  -16.6094   21.9676 C   0  0  0  0  0  0  0  0  0  0  0  0
    9.2185  -17.4501   21.6482 C   0  0  0  0  0  0  0  0  0  0  0  0
    9.5159  -18.5830   22.5092 C   0  0  0  0  0  0  0  0  0  0  0  0
   10.3694  -18.5903   23.3912 O   0  0  0  0  0  0  0  0  0  0  0  0
    8.8860  -14.7080   23.2815 C   0  0  0  0  0  0  0  0  0  0  0  0
   10.0692  -15.0547   23.4248 O   0  0  0  0  0  0  0  0  0  0  0  0
    8.7840  -19.7776   22.3405 O   0  0  0  0  0  0  0  0  0  0  0  0
    8.1597  -13.9997   24.2191 N   0  0  0  0  0  0  0  0  0  0  0  0
    7.1700  -12.9595   23.8480 C   0  0  0  0  0  0  0  0  0  0  0  0
    6.0246  -13.2959   24.7651 C   0  0  0  0  0  0  0  0  0  0  0  0
    6.6136  -14.1433   25.8641 C   0  0  0  0  0  0  0  0  0  0  0  0
    8.1264  -13.9052   25.6648 C   0  0  1  0  0  0  0  0  0  0  0  0
    8.8743  -14.9449   26.3807 C   0  0  0  0  0  0  0  0  0  0  0  0
    8.4562  -16.1439   26.1276 O   0  0  0  0  0  0  0  0  0  0  0  0
    9.9409  -14.8383   27.2652 N   0  0  0  0  0  0  0  0  0  0  0  0
   10.7876  -13.5854   27.2583 C   0  0  0  0  0  0  0  0  0  0  0  0
   10.7235  -13.2379   28.7530 C   0  0  0  0  0  0  0  0  0  0  0  0
   10.3023  -14.5382   29.4581 C   0  0  0  0  0  0  0  0  0  0  0  0
   10.5896  -15.5208   28.3213 C   0  0  1  0  0  0  0  0  0  0  0  0
   10.3812  -16.8998   28.6173 C   0  0  0  0  0  0  0  0  0  0  0  0
    9.0918  -17.4854   28.6927 O   0  0  0  0  0  0  0  0  0  0  0  0
   11.3073  -17.6940   28.8314 O   0  0  0  0  0  0  0  0  0  0  0  0
  2  1  1  6
  3  2  1  0
  3  4  1  0
  4  5  1  0
  5  9  1  0
  5  6  2  0
  7  2  1  0
  8  7  2  0
 10  7  1  0
 10 14  1  0
 11 12  1  0
 11 10  1  0
 12 13  1  0
 13 14  1  0
 14 15  1  1
 15 16  2  0
 17 15  1  0
 17 21  1  0
 18 19  1  0
 18 17  1  0
 19 20  1  0
 20 21  1  0
 21 22  1  1
 22 24  2  0
 22 23  1  0
M  END
$$$$
