EPP.pdb
     RDKit          3D

 24 25  0  0  1  0  0  0  0  0999 V2000
   11.1217  -15.7805   20.0478 N   0  0  0  0  0  0  0  0  0  0  0  0
   10.3779  -16.3538   21.1205 C   0  0  1  0  0  0  0  0  0  0  0  0
   11.2663  -17.2662   21.9307 C   0  0  0  0  0  0  0  0  0  0  0  0
   11.5635  -16.8157   23.3216 C   0  0  0  0  0  0  0  0  0  0  0  0
   12.4287  -17.6430   24.1462 C   0  0  0  0  0  0  0  0  0  0  0  0
   12.0973  -18.7027   24.6695 O   0  0  0  0  0  0  0  0  0  0  0  0
    9.8089  -15.2792   22.0021 C   0  0  0  0  0  0  0  0  0  0  0  0
   10.6360  -14.7116   22.7332 O   0  0  0  0  0  0  0  0  0  0  0  0
   13.7547  -17.2207   24.3799 O   0  0  0  0  0  0  0  0  0  0  0  0
    8.4607  -14.9801   21.9677 N   0  0  0  0  0  0  0  0  0  0  0  0
    7.6799  -14.9413   20.7075 C   0  0  0  0  0  0  0  0  0  0  0  0
    6.4286  -15.6760   21.1082 C   0  0  0  0  0  0  0  0  0  0  0  0
    6.3963  -15.6404   22.6151 C   0  0  0  0  0  0  0  0  0  0  0  0
    7.4563  -14.5608   22.9245 C   0  0  1  0  0  0  0  0  0  0  0  0
    7.8488  -14.6636   24.3345 C   0  0  0  0  0  0  0  0  0  0  0  0
    8.0999  -15.8771   24.7100 O   0  0  0  0  0  0  0  0  0  0  0  0
    7.9917  -13.6772   25.3029 N   0  0  0  0  0  0  0  0  0  0  0  0
    8.1534  -12.2358   24.8750 C   0  0  0  0  0  0  0  0  0  0  0  0
    7.0430  -11.6015   25.7255 C   0  0  0  0  0  0  0  0  0  0  0  0
    6.7503  -12.6183   26.8415 C   0  0  0  0  0  0  0  0  0  0  0  0
    8.0067  -13.4802   26.7040 C   0  0  1  0  0  0  0  0  0  0  0  0
    8.1478  -14.5378   27.6496 C   0  0  0  0  0  0  0  0  0  0  0  0
    9.2025  -14.5895   28.5962 O   0  0  0  0  0  0  0  0  0  0  0  0
    7.3622  -15.4930   27.7195 O   0  0  0  0  0  0  0  0  0  0  0  0
  2  1  1  6
  3  2  1  0
  3  4  1  0
  4  5  1  0
  5  9  1  0
  5  6  2  0
  7  2  1  0
  8  7  2  0
 10  7  1  0
 10 14  1  0
 11 12  1  0
 11 10  1  0
 12 13  1  0
 13 14  1  0
 14 15  1  1
 15 16  2  0
 17 15  1  0
 17 21  1  0
 18 19  1  0
 18 17  1  0
 19 20  1  0
 20 21  1  0
 21 22  1  1
 22 24  2  0
 22 23  1  0
M  END
$$$$
