EPP.pdb
     RDKit          3D

 24 25  0  0  1  0  0  0  0  0999 V2000
   11.3823  -15.8419   20.2325 N   0  0  0  0  0  0  0  0  0  0  0  0
   10.4538  -16.4467   21.1295 C   0  0  1  0  0  0  0  0  0  0  0  0
   11.1357  -17.5426   21.9117 C   0  0  0  0  0  0  0  0  0  0  0  0
   10.2628  -18.6742   22.3401 C   0  0  0  0  0  0  0  0  0  0  0  0
   10.8689  -19.7790   23.0646 C   0  0  0  0  0  0  0  0  0  0  0  0
   11.0784  -19.7957   24.2739 O   0  0  0  0  0  0  0  0  0  0  0  0
    9.8865  -15.4234   22.0713 C   0  0  0  0  0  0  0  0  0  0  0  0
   10.6513  -15.0736   22.9843 O   0  0  0  0  0  0  0  0  0  0  0  0
   11.2559  -20.9322   22.3493 O   0  0  0  0  0  0  0  0  0  0  0  0
    8.6054  -14.9374   21.8952 N   0  0  0  0  0  0  0  0  0  0  0  0
    8.0373  -14.6402   20.5580 C   0  0  0  0  0  0  0  0  0  0  0  0
    6.6601  -15.2359   20.6791 C   0  0  0  0  0  0  0  0  0  0  0  0
    6.4019  -15.3759   22.1579 C   0  0  0  0  0  0  0  0  0  0  0  0
    7.5242  -14.4992   22.7550 C   0  0  1  0  0  0  0  0  0  0  0  0
    7.6808  -14.8230   24.1775 C   0  0  0  0  0  0  0  0  0  0  0  0
    7.7172  -16.0957   24.4129 O   0  0  0  0  0  0  0  0  0  0  0  0
    7.7971  -13.9885   25.2826 N   0  0  0  0  0  0  0  0  0  0  0  0
    8.2238  -12.5513   25.0850 C   0  0  0  0  0  0  0  0  0  0  0  0
    7.0867  -11.8514   25.8440 C   0  0  0  0  0  0  0  0  0  0  0  0
    6.4776  -12.9303   26.7552 C   0  0  0  0  0  0  0  0  0  0  0  0
    7.6088  -13.9577   26.6846 C   0  0  1  0  0  0  0  0  0  0  0  0
    7.4457  -15.1254   27.4863 C   0  0  0  0  0  0  0  0  0  0  0  0
    8.3480  -15.4822   28.5206 O   0  0  0  0  0  0  0  0  0  0  0  0
    6.5054  -15.9189   27.3436 O   0  0  0  0  0  0  0  0  0  0  0  0
  2  1  1  6
  3  2  1  0
  3  4  1  0
  4  5  1  0
  5  9  1  0
  5  6  2  0
  7  2  1  0
  8  7  2  0
 10  7  1  0
 10 14  1  0
 11 12  1  0
 11 10  1  0
 12 13  1  0
 13 14  1  0
 14 15  1  1
 15 16  2  0
 17 15  1  0
 17 21  1  0
 18 19  1  0
 18 17  1  0
 19 20  1  0
 20 21  1  0
 21 22  1  6
 22 24  2  0
 22 23  1  0
M  END
$$$$
