EPP.pdb
     RDKit          3D

 24 25  0  0  1  0  0  0  0  0999 V2000
   11.0212  -16.7872   20.5841 N   0  0  0  0  0  0  0  0  0  0  0  0
    9.7822  -16.8166   21.2888 C   0  0  1  0  0  0  0  0  0  0  0  0
    9.6319  -18.1353   22.0074 C   0  0  0  0  0  0  0  0  0  0  0  0
   10.2478  -19.3156   21.3340 C   0  0  0  0  0  0  0  0  0  0  0  0
   10.7332  -20.4080   22.1611 C   0  0  0  0  0  0  0  0  0  0  0  0
   10.1039  -21.4310   22.4143 O   0  0  0  0  0  0  0  0  0  0  0  0
    9.7085  -15.6858   22.2745 C   0  0  0  0  0  0  0  0  0  0  0  0
   10.7350  -15.5157   22.9513 O   0  0  0  0  0  0  0  0  0  0  0  0
   12.0214  -20.3124   22.7291 O   0  0  0  0  0  0  0  0  0  0  0  0
    8.5637  -14.9204   22.3845 N   0  0  0  0  0  0  0  0  0  0  0  0
    7.7990  -14.4476   21.2051 C   0  0  0  0  0  0  0  0  0  0  0  0
    6.3836  -14.7272   21.6348 C   0  0  0  0  0  0  0  0  0  0  0  0
    6.4305  -14.8696   23.1350 C   0  0  0  0  0  0  0  0  0  0  0  0
    7.8246  -14.2903   23.4600 C   0  0  1  0  0  0  0  0  0  0  0  0
    8.2113  -14.7014   24.8144 C   0  0  0  0  0  0  0  0  0  0  0  0
    8.0661  -15.9704   25.0265 O   0  0  0  0  0  0  0  0  0  0  0  0
    8.7020  -13.9515   25.8765 N   0  0  0  0  0  0  0  0  0  0  0  0
    9.1237  -12.5186   25.6403 C   0  0  0  0  0  0  0  0  0  0  0  0
    8.3099  -11.8373   26.7505 C   0  0  0  0  0  0  0  0  0  0  0  0
    7.9504  -12.9575   27.7411 C   0  0  0  0  0  0  0  0  0  0  0  0
    8.9508  -14.0139   27.2680 C   0  0  1  0  0  0  0  0  0  0  0  0
    8.9776  -15.2294   28.0126 C   0  0  0  0  0  0  0  0  0  0  0  0
    7.9762  -16.2268   27.8960 O   0  0  0  0  0  0  0  0  0  0  0  0
    9.8756  -15.5104   28.8182 O   0  0  0  0  0  0  0  0  0  0  0  0
  2  1  1  1
  3  2  1  0
  3  4  1  0
  4  5  1  0
  5  9  1  0
  5  6  2  0
  7  2  1  0
  8  7  2  0
 10  7  1  0
 10 14  1  0
 11 12  1  0
 11 10  1  0
 12 13  1  0
 13 14  1  0
 14 15  1  1
 15 16  2  0
 17 15  1  0
 17 21  1  0
 18 19  1  0
 18 17  1  0
 19 20  1  0
 20 21  1  0
 21 22  1  1
 22 24  2  0
 22 23  1  0
M  END
$$$$
