EPP.pdb
     RDKit          3D

 24 25  0  0  1  0  0  0  0  0999 V2000
   11.7218  -16.2562   20.7753 N   0  0  0  0  0  0  0  0  0  0  0  0
   10.4284  -16.5656   21.2891 C   0  0  1  0  0  0  0  0  0  0  0  0
   10.4760  -17.8702   22.0467 C   0  0  0  0  0  0  0  0  0  0  0  0
   11.3336  -18.9359   21.4511 C   0  0  0  0  0  0  0  0  0  0  0  0
   12.6045  -19.2375   22.0890 C   0  0  0  0  0  0  0  0  0  0  0  0
   13.0804  -18.6174   23.0354 O   0  0  0  0  0  0  0  0  0  0  0  0
    9.9423  -15.4678   22.1916 C   0  0  0  0  0  0  0  0  0  0  0  0
   10.7134  -15.1747   23.1190 O   0  0  0  0  0  0  0  0  0  0  0  0
   13.3704  -20.3191   21.6045 O   0  0  0  0  0  0  0  0  0  0  0  0
    8.7223  -14.8598   21.9674 N   0  0  0  0  0  0  0  0  0  0  0  0
    8.2707  -14.4418   20.6180 C   0  0  0  0  0  0  0  0  0  0  0  0
    6.8422  -14.9166   20.6204 C   0  0  0  0  0  0  0  0  0  0  0  0
    6.4767  -15.1115   22.0700 C   0  0  0  0  0  0  0  0  0  0  0  0
    7.6292  -14.3725   22.7845 C   0  0  1  0  0  0  0  0  0  0  0  0
    7.6638  -14.7845   24.1923 C   0  0  0  0  0  0  0  0  0  0  0  0
    7.6604  -16.0696   24.3510 O   0  0  0  0  0  0  0  0  0  0  0  0
    7.7027  -14.0207   25.3526 N   0  0  0  0  0  0  0  0  0  0  0  0
    8.0056  -12.5422   25.2573 C   0  0  0  0  0  0  0  0  0  0  0  0
    6.8091  -11.9951   26.0497 C   0  0  0  0  0  0  0  0  0  0  0  0
    6.2900  -13.1817   26.8791 C   0  0  0  0  0  0  0  0  0  0  0  0
    7.5055  -14.1019   26.7514 C   0  0  1  0  0  0  0  0  0  0  0  0
    7.4390  -15.3313   27.4703 C   0  0  0  0  0  0  0  0  0  0  0  0
    6.7512  -16.4721   26.9840 O   0  0  0  0  0  0  0  0  0  0  0  0
    7.9755  -15.5003   28.5739 O   0  0  0  0  0  0  0  0  0  0  0  0
  2  1  1  1
  3  2  1  0
  3  4  1  0
  4  5  1  0
  5  9  1  0
  5  6  2  0
  7  2  1  0
  8  7  2  0
 10  7  1  0
 10 14  1  0
 11 12  1  0
 11 10  1  0
 12 13  1  0
 13 14  1  0
 14 15  1  1
 15 16  2  0
 17 15  1  0
 17 21  1  0
 18 19  1  0
 18 17  1  0
 19 20  1  0
 20 21  1  0
 21 22  1  6
 22 24  2  0
 22 23  1  0
M  END
$$$$
