EPP.pdb
     RDKit          3D

 24 25  0  0  1  0  0  0  0  0999 V2000
   11.6030  -16.2144   20.6579 N   0  0  0  0  0  0  0  0  0  0  0  0
   10.3825  -16.5862   21.2940 C   0  0  1  0  0  0  0  0  0  0  0  0
   10.5961  -17.8249   22.1296 C   0  0  0  0  0  0  0  0  0  0  0  0
   11.7021  -17.7517   23.1281 C   0  0  0  0  0  0  0  0  0  0  0  0
   11.7328  -18.7341   24.1991 C   0  0  0  0  0  0  0  0  0  0  0  0
   12.2067  -19.8624   24.1044 O   0  0  0  0  0  0  0  0  0  0  0  0
    9.8755  -15.4675   22.1585 C   0  0  0  0  0  0  0  0  0  0  0  0
   10.6942  -15.0344   22.9849 O   0  0  0  0  0  0  0  0  0  0  0  0
   11.1831  -18.3925   25.4531 O   0  0  0  0  0  0  0  0  0  0  0  0
    8.5880  -14.9896   22.0092 N   0  0  0  0  0  0  0  0  0  0  0  0
    7.9344  -14.8462   20.6858 C   0  0  0  0  0  0  0  0  0  0  0  0
    6.5653  -15.4057   20.9663 C   0  0  0  0  0  0  0  0  0  0  0  0
    6.4045  -15.3658   22.4648 C   0  0  0  0  0  0  0  0  0  0  0  0
    7.5681  -14.4387   22.8789 C   0  0  1  0  0  0  0  0  0  0  0  0
    7.8166  -14.5932   24.3167 C   0  0  0  0  0  0  0  0  0  0  0  0
    7.9264  -15.8287   24.6885 O   0  0  0  0  0  0  0  0  0  0  0  0
    7.9524  -13.6353   25.3143 N   0  0  0  0  0  0  0  0  0  0  0  0
    8.1556  -12.1872   24.9292 C   0  0  0  0  0  0  0  0  0  0  0  0
    7.0349  -11.5515   25.7651 C   0  0  0  0  0  0  0  0  0  0  0  0
    6.6901  -12.5903   26.8454 C   0  0  0  0  0  0  0  0  0  0  0  0
    7.9320  -13.4749   26.7200 C   0  0  1  0  0  0  0  0  0  0  0  0
    8.0246  -14.5593   27.6409 C   0  0  0  0  0  0  0  0  0  0  0  0
    7.2082  -15.7157   27.5542 O   0  0  0  0  0  0  0  0  0  0  0  0
    8.8235  -14.5777   28.5873 O   0  0  0  0  0  0  0  0  0  0  0  0
  2  1  1  1
  3  2  1  0
  3  4  1  0
  4  5  1  0
  5  9  1  0
  5  6  2  0
  7  2  1  0
  8  7  2  0
 10  7  1  0
 10 14  1  0
 11 12  1  0
 11 10  1  0
 12 13  1  0
 13 14  1  0
 14 15  1  1
 15 16  2  0
 17 15  1  0
 17 21  1  0
 18 19  1  0
 18 17  1  0
 19 20  1  0
 20 21  1  0
 21 22  1  1
 22 24  2  0
 22 23  1  0
M  END
$$$$
