EPP.pdb
     RDKit          3D

 24 25  0  0  1  0  0  0  0  0999 V2000
   11.3674  -15.8996   20.2865 N   0  0  0  0  0  0  0  0  0  0  0  0
   10.4440  -16.5000   21.1917 C   0  0  1  0  0  0  0  0  0  0  0  0
   11.1288  -17.5961   21.9713 C   0  0  0  0  0  0  0  0  0  0  0  0
   10.2769  -18.3198   22.9594 C   0  0  0  0  0  0  0  0  0  0  0  0
   10.8701  -19.4098   23.7163 C   0  0  0  0  0  0  0  0  0  0  0  0
   11.2070  -20.4915   23.2441 O   0  0  0  0  0  0  0  0  0  0  0  0
    9.8863  -15.4732   22.1355 C   0  0  0  0  0  0  0  0  0  0  0  0
   10.6675  -15.1051   23.0271 O   0  0  0  0  0  0  0  0  0  0  0  0
   11.0864  -19.2397   25.1003 O   0  0  0  0  0  0  0  0  0  0  0  0
    8.5961  -15.0037   21.9836 N   0  0  0  0  0  0  0  0  0  0  0  0
    7.9746  -14.7823   20.6554 C   0  0  0  0  0  0  0  0  0  0  0  0
    6.6072  -15.3772   20.8622 C   0  0  0  0  0  0  0  0  0  0  0  0
    6.4075  -15.4380   22.3553 C   0  0  0  0  0  0  0  0  0  0  0  0
    7.5460  -14.5247   22.8599 C   0  0  1  0  0  0  0  0  0  0  0  0
    7.7598  -14.7701   24.2906 C   0  0  0  0  0  0  0  0  0  0  0  0
    7.8446  -16.0274   24.5885 O   0  0  0  0  0  0  0  0  0  0  0  0
    7.8858  -13.8768   25.3477 N   0  0  0  0  0  0  0  0  0  0  0  0
    8.2502  -12.4371   25.0625 C   0  0  0  0  0  0  0  0  0  0  0  0
    7.1168  -11.7406   25.8301 C   0  0  0  0  0  0  0  0  0  0  0  0
    6.5834  -12.7928   26.8168 C   0  0  0  0  0  0  0  0  0  0  0  0
    7.7492  -13.7814   26.7528 C   0  0  1  0  0  0  0  0  0  0  0  0
    7.6604  -14.9118   27.6170 C   0  0  0  0  0  0  0  0  0  0  0  0
    6.6980  -15.9391   27.4456 O   0  0  0  0  0  0  0  0  0  0  0  0
    8.4151  -15.0861   28.5837 O   0  0  0  0  0  0  0  0  0  0  0  0
  2  1  1  6
  3  2  1  0
  3  4  1  0
  4  5  1  0
  5  9  1  0
  5  6  2  0
  7  2  1  0
  8  7  2  0
 10  7  1  0
 10 14  1  0
 11 12  1  0
 11 10  1  0
 12 13  1  0
 13 14  1  0
 14 15  1  1
 15 16  2  0
 17 15  1  0
 17 21  1  0
 18 19  1  0
 18 17  1  0
 19 20  1  0
 20 21  1  0
 21 22  1  6
 22 24  2  0
 22 23  1  0
M  END
$$$$
