NQQ.pdb
     RDKit          3D

 27 26  0  0  1  0  0  0  0  0999 V2000
   20.6709  -17.2903  -17.0490 N   0  0  0  0  0  0  0  0  0  0  0  0
   20.3724  -16.6680  -18.2827 C   0  0  0  0  0  0  0  0  0  0  0  0
   20.3813  -17.3185  -19.3581 O   0  0  0  0  0  0  0  0  0  0  0  0
   20.0453  -15.2349  -18.3067 C   0  0  0  0  0  0  0  0  0  0  0  0
   20.0430  -14.6337  -16.9009 C   0  0  2  0  0  0  0  0  0  0  0  0
   18.8435  -15.1193  -16.2593 N   0  0  0  0  0  0  0  0  0  0  0  0
   19.8951  -13.1579  -17.1007 C   0  0  0  0  0  0  0  0  0  0  0  0
   20.9255  -12.5373  -17.5106 O   0  0  0  0  0  0  0  0  0  0  0  0
   14.8898  -12.3082  -19.3738 N   0  0  0  0  0  0  0  0  0  0  0  0
   15.4798  -11.0181  -19.3206 C   0  0  0  0  0  0  0  0  0  0  0  0
   14.7513  -10.0188  -19.5255 O   0  0  0  0  0  0  0  0  0  0  0  0
   16.9431  -10.9171  -19.0224 C   0  0  0  0  0  0  0  0  0  0  0  0
   17.2439  -10.7863  -17.5803 C   0  0  0  0  0  0  0  0  0  0  0  0
   18.6082  -11.0552  -17.0943 C   0  0  2  0  0  0  0  0  0  0  0  0
   18.6745  -12.4921  -16.8470 N   0  0  0  0  0  0  0  0  0  0  0  0
   19.0608  -10.3277  -15.8951 C   0  0  0  0  0  0  0  0  0  0  0  0
   18.8750  -10.8519  -14.7648 O   0  0  0  0  0  0  0  0  0  0  0  0
   22.8313   -5.3190  -15.3216 N   0  0  0  0  0  0  0  0  0  0  0  0
   22.4412   -5.5251  -13.9777 C   0  0  0  0  0  0  0  0  0  0  0  0
   22.8973   -4.8065  -13.0770 O   0  0  0  0  0  0  0  0  0  0  0  0
   21.4643   -6.6338  -13.6782 C   0  0  0  0  0  0  0  0  0  0  0  0
   21.0175   -7.2865  -14.9565 C   0  0  0  0  0  0  0  0  0  0  0  0
   20.0730   -8.4003  -14.6769 C   0  0  2  0  0  0  0  0  0  0  0  0
   19.6927   -9.0782  -15.9353 N   0  0  0  0  0  0  0  0  0  0  0  0
   18.8451   -7.9581  -14.0030 C   0  0  0  0  0  0  0  0  0  0  0  0
   17.8317   -7.5016  -14.5818 O   0  0  0  0  0  0  0  0  0  0  0  0
   18.7940   -8.0515  -12.5962 O   0  0  0  0  0  0  0  0  0  0  0  0
  2  1  1  0
  2  3  2  0
  4  2  1  0
  5  4  1  0
  5  6  1  1
  7  8  2  0
  7  5  1  0
  9 10  1  0
 10 12  1  0
 11 10  2  0
 12 13  1  0
 14 13  1  1
 14 15  1  0
 15  7  1  0
 16 24  1  0
 16 14  1  0
 17 16  2  0
 19 21  1  0
 19 18  1  0
 20 19  2  0
 23 22  1  6
 22 21  1  0
 23 24  1  0
 25 23  1  0
 26 25  2  0
 27 25  1  0
M  END
$$$$
