NQQ.pdb
     RDKit          3D

 27 26  0  0  1  0  0  0  0  0999 V2000
   25.9136  -33.0948   -5.9001 N   0  0  0  0  0  0  0  0  0  0  0  0
   25.3829  -32.9423   -4.5987 C   0  0  0  0  0  0  0  0  0  0  0  0
   24.5714  -32.0205   -4.3313 O   0  0  0  0  0  0  0  0  0  0  0  0
   25.7877  -33.8794   -3.5408 C   0  0  0  0  0  0  0  0  0  0  0  0
   26.8527  -34.8596   -4.0331 C   0  0  2  0  0  0  0  0  0  0  0  0
   26.1511  -35.8604   -4.8029 N   0  0  0  0  0  0  0  0  0  0  0  0
   27.3881  -35.5166   -2.7996 C   0  0  0  0  0  0  0  0  0  0  0  0
   26.6609  -36.4197   -2.2797 O   0  0  0  0  0  0  0  0  0  0  0  0
   33.2986  -35.3410   -1.1805 N   0  0  0  0  0  0  0  0  0  0  0  0
   32.8355  -36.1785   -0.1320 C   0  0  0  0  0  0  0  0  0  0  0  0
   33.6768  -36.6685    0.6575 O   0  0  0  0  0  0  0  0  0  0  0  0
   31.3647  -36.4339   -0.0229 C   0  0  0  0  0  0  0  0  0  0  0  0
   30.5763  -35.8183   -1.1124 C   0  0  0  0  0  0  0  0  0  0  0  0
   29.1051  -35.8748   -1.0673 C   0  0  2  0  0  0  0  0  0  0  0  0
   28.6355  -35.1512   -2.2446 N   0  0  0  0  0  0  0  0  0  0  0  0
   28.4387  -35.3439    0.1353 C   0  0  0  0  0  0  0  0  0  0  0  0
   27.4190  -34.6187   -0.0098 O   0  0  0  0  0  0  0  0  0  0  0  0
   24.1857  -36.8365    3.6120 N   0  0  0  0  0  0  0  0  0  0  0  0
   24.4873  -35.4545    3.6187 C   0  0  0  0  0  0  0  0  0  0  0  0
   23.5787  -34.6159    3.5357 O   0  0  0  0  0  0  0  0  0  0  0  0
   25.9321  -35.0380    3.7285 C   0  0  0  0  0  0  0  0  0  0  0  0
   26.6814  -35.4443    2.4903 C   0  0  0  0  0  0  0  0  0  0  0  0
   28.1145  -35.0616    2.5926 C   0  0  2  0  0  0  0  0  0  0  0  0
   28.8724  -35.6001    1.4424 N   0  0  0  0  0  0  0  0  0  0  0  0
   28.7509  -35.5388    3.8274 C   0  0  0  0  0  0  0  0  0  0  0  0
   29.6331  -36.4270    3.8847 O   0  0  0  0  0  0  0  0  0  0  0  0
   28.3439  -34.9578    5.0469 O   0  0  0  0  0  0  0  0  0  0  0  0
  2  1  1  0
  2  3  2  0
  4  2  1  0
  5  4  1  0
  5  6  1  6
  7  8  2  0
  7  5  1  0
  9 10  1  0
 10 12  1  0
 11 10  2  0
 12 13  1  0
 14 13  1  1
 14 15  1  0
 15  7  1  0
 16 24  1  0
 16 14  1  0
 17 16  2  0
 19 21  1  0
 19 18  1  0
 20 19  2  0
 23 22  1  6
 22 21  1  0
 23 24  1  0
 25 23  1  0
 26 25  2  0
 27 25  1  0
M  END
$$$$
