NQQ.pdb
     RDKit          3D

 27 26  0  0  1  0  0  0  0  0999 V2000
   15.0374  -13.0335  -14.3282 N   0  0  0  0  0  0  0  0  0  0  0  0
   16.3986  -12.9350  -14.6970 C   0  0  0  0  0  0  0  0  0  0  0  0
   17.1629  -13.9308  -14.6346 O   0  0  0  0  0  0  0  0  0  0  0  0
   16.9278  -11.6447  -15.1621 C   0  0  0  0  0  0  0  0  0  0  0  0
   15.8605  -10.5507  -15.1233 C   0  0  2  0  0  0  0  0  0  0  0  0
   14.9990  -10.7910  -16.2575 N   0  0  0  0  0  0  0  0  0  0  0  0
   16.5961   -9.2699  -15.3648 C   0  0  0  0  0  0  0  0  0  0  0  0
   17.1965   -9.1649  -16.4799 O   0  0  0  0  0  0  0  0  0  0  0  0
   14.8016   -3.7477  -13.8551 N   0  0  0  0  0  0  0  0  0  0  0  0
   14.3696   -4.5725  -14.9267 C   0  0  0  0  0  0  0  0  0  0  0  0
   13.3017   -4.2791  -15.5138 O   0  0  0  0  0  0  0  0  0  0  0  0
   15.2124   -5.7514  -15.3011 C   0  0  0  0  0  0  0  0  0  0  0  0
   16.4246   -5.8992  -14.4666 C   0  0  0  0  0  0  0  0  0  0  0  0
   17.3533   -7.0132  -14.7235 C   0  0  2  0  0  0  0  0  0  0  0  0
   16.6203   -8.2340  -14.4036 N   0  0  0  0  0  0  0  0  0  0  0  0
   18.6397   -7.0084  -14.0042 C   0  0  0  0  0  0  0  0  0  0  0  0
   18.6541   -7.3448  -12.7903 O   0  0  0  0  0  0  0  0  0  0  0  0
   23.7783   -9.4993  -15.3501 N   0  0  0  0  0  0  0  0  0  0  0  0
   23.2683   -8.5587  -16.2754 C   0  0  0  0  0  0  0  0  0  0  0  0
   23.6141   -8.6007  -17.4646 O   0  0  0  0  0  0  0  0  0  0  0  0
   22.3018   -7.5150  -15.7755 C   0  0  0  0  0  0  0  0  0  0  0  0
   22.0243   -7.7274  -14.3135 C   0  0  0  0  0  0  0  0  0  0  0  0
   21.1039   -6.6812  -13.7947 C   0  0  2  0  0  0  0  0  0  0  0  0
   19.8594   -6.6513  -14.5933 N   0  0  0  0  0  0  0  0  0  0  0  0
   21.6939   -5.3361  -13.8113 C   0  0  0  0  0  0  0  0  0  0  0  0
   21.2985   -4.3863  -14.5265 O   0  0  0  0  0  0  0  0  0  0  0  0
   22.7901   -5.0858  -12.9592 O   0  0  0  0  0  0  0  0  0  0  0  0
  2  1  1  0
  2  3  2  0
  4  2  1  0
  5  4  1  0
  5  6  1  6
  7  8  2  0
  7  5  1  0
  9 10  1  0
 10 12  1  0
 11 10  2  0
 12 13  1  0
 14 13  1  1
 14 15  1  0
 15  7  1  0
 16 24  1  0
 16 14  1  0
 17 16  2  0
 19 21  1  0
 19 18  1  0
 20 19  2  0
 23 22  1  6
 22 21  1  0
 23 24  1  0
 25 23  1  0
 26 25  2  0
 27 25  1  0
M  END
$$$$
