NQQ.pdb
     RDKit          3D

 27 26  0  0  1  0  0  0  0  0999 V2000
   17.1081  -12.9825  -17.7404 N   0  0  0  0  0  0  0  0  0  0  0  0
   16.9409  -12.3054  -16.5108 C   0  0  0  0  0  0  0  0  0  0  0  0
   15.7970  -12.0144  -16.0789 O   0  0  0  0  0  0  0  0  0  0  0  0
   18.1268  -11.9362  -15.7241 C   0  0  0  0  0  0  0  0  0  0  0  0
   19.4200  -12.3583  -16.4220 C   0  0  2  0  0  0  0  0  0  0  0  0
   19.7385  -13.6727  -15.9147 N   0  0  0  0  0  0  0  0  0  0  0  0
   20.4653  -11.4071  -15.9297 C   0  0  0  0  0  0  0  0  0  0  0  0
   20.7491  -11.4704  -14.6926 O   0  0  0  0  0  0  0  0  0  0  0  0
   25.4466  -11.0997  -15.7186 N   0  0  0  0  0  0  0  0  0  0  0  0
   25.6329   -9.7305  -16.0437 C   0  0  0  0  0  0  0  0  0  0  0  0
   26.6985   -9.1722  -15.6917 O   0  0  0  0  0  0  0  0  0  0  0  0
   24.5459   -9.0229  -16.7909 C   0  0  0  0  0  0  0  0  0  0  0  0
   23.3479   -9.8587  -17.0220 C   0  0  0  0  0  0  0  0  0  0  0  0
   22.1259   -9.6112  -16.2378 C   0  0  2  0  0  0  0  0  0  0  0  0
   21.1017  -10.4889  -16.7954 N   0  0  0  0  0  0  0  0  0  0  0  0
   21.6159   -8.2293  -16.1876 C   0  0  0  0  0  0  0  0  0  0  0  0
   20.8642   -7.8288  -17.1157 O   0  0  0  0  0  0  0  0  0  0  0  0
   18.2817   -5.3249  -16.8277 N   0  0  0  0  0  0  0  0  0  0  0  0
   18.5344   -4.2378  -15.9586 C   0  0  0  0  0  0  0  0  0  0  0  0
   17.9547   -3.1555  -16.1260 O   0  0  0  0  0  0  0  0  0  0  0  0
   19.5202   -4.4345  -14.8348 C   0  0  0  0  0  0  0  0  0  0  0  0
   20.0068   -5.8567  -14.8188 C   0  0  0  0  0  0  0  0  0  0  0  0
   21.4319   -5.9305  -15.2363 C   0  0  2  0  0  0  0  0  0  0  0  0
   21.9169   -7.3257  -15.1603 N   0  0  0  0  0  0  0  0  0  0  0  0
   22.3157   -5.0907  -14.4171 C   0  0  0  0  0  0  0  0  0  0  0  0
   23.1964   -5.5213  -13.6365 O   0  0  0  0  0  0  0  0  0  0  0  0
   22.1688   -3.6906  -14.5105 O   0  0  0  0  0  0  0  0  0  0  0  0
  2  1  1  0
  2  3  2  0
  4  2  1  0
  5  4  1  0
  5  6  1  1
  7  8  2  0
  7  5  1  0
  9 10  1  0
 10 12  1  0
 11 10  2  0
 12 13  1  0
 14 13  1  6
 14 15  1  0
 15  7  1  0
 16 24  1  0
 16 14  1  0
 17 16  2  0
 19 21  1  0
 19 18  1  0
 20 19  2  0
 23 22  1  1
 22 21  1  0
 23 24  1  0
 25 23  1  0
 26 25  2  0
 27 25  1  0
M  END
$$$$
