NQQ.pdb
     RDKit          3D

 27 26  0  0  1  0  0  0  0  0999 V2000
   19.2785  -13.2898  -18.6745 N   0  0  0  0  0  0  0  0  0  0  0  0
   18.9290  -11.9363  -18.4644 C   0  0  0  0  0  0  0  0  0  0  0  0
   17.9140  -11.4345  -19.0101 O   0  0  0  0  0  0  0  0  0  0  0  0
   19.7680  -11.1022  -17.5916 C   0  0  0  0  0  0  0  0  0  0  0  0
   20.9632  -11.8832  -17.0447 C   0  0  2  0  0  0  0  0  0  0  0  0
   20.4185  -12.8645  -16.1354 N   0  0  0  0  0  0  0  0  0  0  0  0
   21.7491  -10.8949  -16.2414 C   0  0  0  0  0  0  0  0  0  0  0  0
   21.3767  -10.7207  -15.0389 O   0  0  0  0  0  0  0  0  0  0  0  0
   27.6655  -10.5206  -16.4339 N   0  0  0  0  0  0  0  0  0  0  0  0
   26.8496  -11.4698  -15.7641 C   0  0  0  0  0  0  0  0  0  0  0  0
   27.3630  -12.5586  -15.4149 O   0  0  0  0  0  0  0  0  0  0  0  0
   25.4164  -11.1213  -15.5091 C   0  0  0  0  0  0  0  0  0  0  0  0
   25.0286   -9.7950  -16.0363 C   0  0  0  0  0  0  0  0  0  0  0  0
   23.6334   -9.3406  -15.9078 C   0  0  2  0  0  0  0  0  0  0  0  0
   22.8461  -10.1942  -16.7920 N   0  0  0  0  0  0  0  0  0  0  0  0
   23.3467   -7.9259  -16.2054 C   0  0  0  0  0  0  0  0  0  0  0  0
   23.3419   -7.5506  -17.4079 O   0  0  0  0  0  0  0  0  0  0  0  0
   19.9504   -4.0544  -18.0776 N   0  0  0  0  0  0  0  0  0  0  0  0
   19.4382   -4.4058  -16.8067 C   0  0  0  0  0  0  0  0  0  0  0  0
   18.2988   -4.0517  -16.4721 O   0  0  0  0  0  0  0  0  0  0  0  0
   20.3118   -5.2153  -15.8822 C   0  0  0  0  0  0  0  0  0  0  0  0
   21.5928   -5.5857  -16.5760 C   0  0  0  0  0  0  0  0  0  0  0  0
   22.7306   -5.5807  -15.6189 C   0  0  2  0  0  0  0  0  0  0  0  0
   23.0747   -6.9639  -15.2241 N   0  0  0  0  0  0  0  0  0  0  0  0
   22.4539   -4.8093  -14.3999 C   0  0  0  0  0  0  0  0  0  0  0  0
   22.3022   -5.3006  -13.2571 O   0  0  0  0  0  0  0  0  0  0  0  0
   22.3496   -3.4072  -14.5156 O   0  0  0  0  0  0  0  0  0  0  0  0
  2  1  1  0
  2  3  2  0
  4  2  1  0
  5  4  1  0
  5  6  1  1
  7  8  2  0
  7  5  1  0
  9 10  1  0
 10 12  1  0
 11 10  2  0
 12 13  1  0
 14 13  1  6
 14 15  1  0
 15  7  1  0
 16 24  1  0
 16 14  1  0
 17 16  2  0
 19 21  1  0
 19 18  1  0
 20 19  2  0
 23 22  1  6
 22 21  1  0
 23 24  1  0
 25 23  1  0
 26 25  2  0
 27 25  1  0
M  END
$$$$
