NQQ.pdb
     RDKit          3D

 27 26  0  0  1  0  0  0  0  0999 V2000
   27.6342  -22.0752  -10.8265 N   0  0  0  0  0  0  0  0  0  0  0  0
   27.4293  -21.1596  -11.8839 C   0  0  0  0  0  0  0  0  0  0  0  0
   28.1565  -20.1427  -12.0137 O   0  0  0  0  0  0  0  0  0  0  0  0
   26.3466  -21.4027  -12.8483 C   0  0  0  0  0  0  0  0  0  0  0  0
   25.1408  -20.5015  -12.5811 C   0  0  2  0  0  0  0  0  0  0  0  0
   24.5484  -20.9784  -11.3531 N   0  0  0  0  0  0  0  0  0  0  0  0
   24.1819  -20.7806  -13.6957 C   0  0  0  0  0  0  0  0  0  0  0  0
   24.5838  -20.5044  -14.8691 O   0  0  0  0  0  0  0  0  0  0  0  0
   19.9807  -25.1873  -13.8495 N   0  0  0  0  0  0  0  0  0  0  0  0
   19.3111  -24.0209  -13.3955 C   0  0  0  0  0  0  0  0  0  0  0  0
   18.1716  -24.1451  -12.8882 O   0  0  0  0  0  0  0  0  0  0  0  0
   20.0007  -22.7009  -13.5460 C   0  0  0  0  0  0  0  0  0  0  0  0
   21.2707  -22.7811  -14.2997 C   0  0  0  0  0  0  0  0  0  0  0  0
   22.0194  -21.5479  -14.5969 C   0  0  2  0  0  0  0  0  0  0  0  0
   22.8990  -21.3224  -13.4543 N   0  0  0  0  0  0  0  0  0  0  0  0
   21.2410  -20.3260  -14.8678 C   0  0  0  0  0  0  0  0  0  0  0  0
   20.6319  -19.7739  -13.9133 O   0  0  0  0  0  0  0  0  0  0  0  0
   23.0750  -15.9912  -18.7009 N   0  0  0  0  0  0  0  0  0  0  0  0
   21.9283  -15.3505  -18.1759 C   0  0  0  0  0  0  0  0  0  0  0  0
   21.6975  -14.1630  -18.4445 O   0  0  0  0  0  0  0  0  0  0  0  0
   21.0061  -16.1482  -17.2891 C   0  0  0  0  0  0  0  0  0  0  0  0
   21.4978  -17.5640  -17.1746 C   0  0  0  0  0  0  0  0  0  0  0  0
   20.6258  -18.3524  -16.2642 C   0  0  2  0  0  0  0  0  0  0  0  0
   21.1374  -19.7339  -16.1331 N   0  0  0  0  0  0  0  0  0  0  0  0
   19.2306  -18.4192  -16.7186 C   0  0  0  0  0  0  0  0  0  0  0  0
   18.4576  -17.4375  -16.8135 O   0  0  0  0  0  0  0  0  0  0  0  0
   18.7133  -19.6816  -17.0781 O   0  0  0  0  0  0  0  0  0  0  0  0
  2  1  1  0
  2  3  2  0
  4  2  1  0
  5  4  1  0
  5  6  1  1
  7  8  2  0
  7  5  1  0
  9 10  1  0
 10 12  1  0
 11 10  2  0
 12 13  1  0
 14 13  1  1
 14 15  1  0
 15  7  1  0
 16 24  1  0
 16 14  1  0
 17 16  2  0
 19 21  1  0
 19 18  1  0
 20 19  2  0
 23 22  1  6
 22 21  1  0
 23 24  1  0
 25 23  1  0
 26 25  2  0
 27 25  1  0
M  END
$$$$
