NQQ.pdb
     RDKit          3D

 27 26  0  0  1  0  0  0  0  0999 V2000
   29.1034  -20.3880  -17.0355 N   0  0  0  0  0  0  0  0  0  0  0  0
   27.8981  -19.6679  -16.8708 C   0  0  0  0  0  0  0  0  0  0  0  0
   27.6368  -18.6657  -17.5829 O   0  0  0  0  0  0  0  0  0  0  0  0
   26.9340  -20.1003  -15.8486 C   0  0  0  0  0  0  0  0  0  0  0  0
   27.4382  -21.3212  -15.0787 C   0  0  2  0  0  0  0  0  0  0  0  0
   27.2863  -22.4477  -15.9699 N   0  0  0  0  0  0  0  0  0  0  0  0
   26.4798  -21.4979  -13.9430 C   0  0  0  0  0  0  0  0  0  0  0  0
   25.4385  -22.1852  -14.1843 O   0  0  0  0  0  0  0  0  0  0  0  0
   27.6156  -19.7935   -8.0835 N   0  0  0  0  0  0  0  0  0  0  0  0
   26.3465  -20.4025   -7.8999 C   0  0  0  0  0  0  0  0  0  0  0  0
   25.9404  -20.5970   -6.7301 O   0  0  0  0  0  0  0  0  0  0  0  0
   25.5574  -20.7816   -9.1140 C   0  0  0  0  0  0  0  0  0  0  0  0
   26.3396  -20.7244  -10.3679 C   0  0  0  0  0  0  0  0  0  0  0  0
   25.6945  -21.0761  -11.6445 C   0  0  2  0  0  0  0  0  0  0  0  0
   26.7215  -20.9305  -12.6713 N   0  0  0  0  0  0  0  0  0  0  0  0
   24.4955  -20.3134  -12.0357 C   0  0  0  0  0  0  0  0  0  0  0  0
   24.6469  -19.2139  -12.6316 O   0  0  0  0  0  0  0  0  0  0  0  0
   22.6078  -21.6652  -16.5967 N   0  0  0  0  0  0  0  0  0  0  0  0
   21.4558  -20.8771  -16.3672 C   0  0  0  0  0  0  0  0  0  0  0  0
   20.6679  -20.6369  -17.2930 O   0  0  0  0  0  0  0  0  0  0  0  0
   21.2191  -20.3440  -14.9769 C   0  0  0  0  0  0  0  0  0  0  0  0
   22.3453  -20.7529  -14.0691 C   0  0  0  0  0  0  0  0  0  0  0  0
   22.0838  -20.3113  -12.6737 C   0  0  2  0  0  0  0  0  0  0  0  0
   23.1853  -20.7409  -11.7850 N   0  0  0  0  0  0  0  0  0  0  0  0
   20.8234  -20.8350  -12.1309 C   0  0  0  0  0  0  0  0  0  0  0  0
   20.7320  -21.6456  -11.1797 O   0  0  0  0  0  0  0  0  0  0  0  0
   19.6186  -20.3967  -12.7196 O   0  0  0  0  0  0  0  0  0  0  0  0
  2  1  1  0
  2  3  2  0
  4  2  1  0
  5  4  1  0
  5  6  1  6
  7  8  2  0
  7  5  1  0
  9 10  1  0
 10 12  1  0
 11 10  2  0
 12 13  1  0
 14 13  1  1
 14 15  1  0
 15  7  1  0
 16 24  1  0
 16 14  1  0
 17 16  2  0
 19 21  1  0
 19 18  1  0
 20 19  2  0
 23 22  1  6
 22 21  1  0
 23 24  1  0
 25 23  1  0
 26 25  2  0
 27 25  1  0
M  END
$$$$
