NQQ.pdb
     RDKit          3D

 27 26  0  0  1  0  0  0  0  0999 V2000
   15.3709  -13.7257  -15.8887 N   0  0  0  0  0  0  0  0  0  0  0  0
   15.7516  -12.3672  -15.9774 C   0  0  0  0  0  0  0  0  0  0  0  0
   15.3890  -11.6521  -16.9454 O   0  0  0  0  0  0  0  0  0  0  0  0
   16.5859  -11.7817  -14.9180 C   0  0  0  0  0  0  0  0  0  0  0  0
   17.7890  -11.0356  -15.4955 C   0  0  2  0  0  0  0  0  0  0  0  0
   18.7491  -12.0491  -15.8658 N   0  0  0  0  0  0  0  0  0  0  0  0
   18.3583  -10.2554  -14.3523 C   0  0  0  0  0  0  0  0  0  0  0  0
   18.8336  -10.9323  -13.3875 O   0  0  0  0  0  0  0  0  0  0  0  0
   22.0448   -5.7888  -14.7223 N   0  0  0  0  0  0  0  0  0  0  0  0
   21.8611   -5.6940  -13.3178 C   0  0  0  0  0  0  0  0  0  0  0  0
   22.6546   -4.9826  -12.6579 O   0  0  0  0  0  0  0  0  0  0  0  0
   20.7280   -6.4492  -12.6963 C   0  0  0  0  0  0  0  0  0  0  0  0
   19.9916   -7.3023  -13.6541 C   0  0  0  0  0  0  0  0  0  0  0  0
   18.8950   -8.1590  -13.1713 C   0  0  2  0  0  0  0  0  0  0  0  0
   18.3662   -8.8420  -14.3477 N   0  0  0  0  0  0  0  0  0  0  0  0
   17.7916   -7.5084  -12.4421 C   0  0  0  0  0  0  0  0  0  0  0  0
   16.8098   -7.0700  -13.0983 O   0  0  0  0  0  0  0  0  0  0  0  0
   13.9010   -9.7320   -9.1471 N   0  0  0  0  0  0  0  0  0  0  0  0
   13.5107   -8.4000   -8.8743 C   0  0  0  0  0  0  0  0  0  0  0  0
   12.4302   -8.1674   -8.3139 O   0  0  0  0  0  0  0  0  0  0  0  0
   14.4396   -7.2845   -9.2819 C   0  0  0  0  0  0  0  0  0  0  0  0
   15.7074   -7.8530   -9.8558 C   0  0  0  0  0  0  0  0  0  0  0  0
   16.5735   -6.7708  -10.3939 C   0  0  2  0  0  0  0  0  0  0  0  0
   17.7664   -7.3478  -11.0508 N   0  0  0  0  0  0  0  0  0  0  0  0
   17.0265   -5.8293   -9.3615 C   0  0  0  0  0  0  0  0  0  0  0  0
   18.2028   -5.7360   -8.9399 O   0  0  0  0  0  0  0  0  0  0  0  0
   16.0704   -4.9595   -8.7962 O   0  0  0  0  0  0  0  0  0  0  0  0
  2  1  1  0
  2  3  2  0
  4  2  1  0
  5  4  1  0
  5  6  1  1
  7  8  2  0
  7  5  1  0
  9 10  1  0
 10 12  1  0
 11 10  2  0
 12 13  1  0
 14 13  1  6
 14 15  1  0
 15  7  1  0
 16 24  1  0
 16 14  1  0
 17 16  2  0
 19 21  1  0
 19 18  1  0
 20 19  2  0
 23 22  1  1
 22 21  1  0
 23 24  1  0
 25 23  1  0
 26 25  2  0
 27 25  1  0
M  END
$$$$
