NQQ.pdb
     RDKit          3D

 27 26  0  0  1  0  0  0  0  0999 V2000
   25.4993  -22.7769  -18.9001 N   0  0  0  0  0  0  0  0  0  0  0  0
   24.8801  -21.5198  -19.0863 C   0  0  0  0  0  0  0  0  0  0  0  0
   24.8411  -20.9754  -20.2185 O   0  0  0  0  0  0  0  0  0  0  0  0
   24.2710  -20.8385  -17.9346 C   0  0  0  0  0  0  0  0  0  0  0  0
   24.9816  -19.5224  -17.6178 C   0  0  2  0  0  0  0  0  0  0  0  0
   26.1349  -19.8713  -16.8212 N   0  0  0  0  0  0  0  0  0  0  0  0
   24.0330  -18.7586  -16.7479 C   0  0  0  0  0  0  0  0  0  0  0  0
   24.3860  -18.5904  -15.5388 O   0  0  0  0  0  0  0  0  0  0  0  0
   20.7603  -13.5832  -17.1506 N   0  0  0  0  0  0  0  0  0  0  0  0
   22.1149  -13.6249  -16.7281 C   0  0  0  0  0  0  0  0  0  0  0  0
   22.6783  -12.5484  -16.4201 O   0  0  0  0  0  0  0  0  0  0  0  0
   22.8016  -14.9537  -16.6721 C   0  0  0  0  0  0  0  0  0  0  0  0
   21.9426  -16.0804  -17.0963 C   0  0  0  0  0  0  0  0  0  0  0  0
   22.0293  -17.3685  -16.3871 C   0  0  2  0  0  0  0  0  0  0  0  0
   22.8112  -18.2523  -17.2461 N   0  0  0  0  0  0  0  0  0  0  0  0
   20.7652  -18.0311  -16.0194 C   0  0  0  0  0  0  0  0  0  0  0  0
   20.1234  -18.6457  -16.9123 O   0  0  0  0  0  0  0  0  0  0  0  0
   18.8395  -20.5370  -10.7154 N   0  0  0  0  0  0  0  0  0  0  0  0
   17.6212  -20.5410  -11.4343 C   0  0  0  0  0  0  0  0  0  0  0  0
   16.6032  -21.0428  -10.9368 O   0  0  0  0  0  0  0  0  0  0  0  0
   17.6000  -19.9230  -12.8094 C   0  0  0  0  0  0  0  0  0  0  0  0
   18.9522  -19.3560  -13.1408 C   0  0  0  0  0  0  0  0  0  0  0  0
   18.9262  -18.6683  -14.4588 C   0  0  2  0  0  0  0  0  0  0  0  0
   20.2292  -18.0212  -14.7252 N   0  0  0  0  0  0  0  0  0  0  0  0
   17.8763  -17.6454  -14.5535 C   0  0  0  0  0  0  0  0  0  0  0  0
   16.6966  -17.8577  -14.9191 O   0  0  0  0  0  0  0  0  0  0  0  0
   18.2132  -16.3198  -14.2079 O   0  0  0  0  0  0  0  0  0  0  0  0
  2  1  1  0
  2  3  2  0
  4  2  1  0
  5  4  1  0
  5  6  1  1
  7  8  2  0
  7  5  1  0
  9 10  1  0
 10 12  1  0
 11 10  2  0
 12 13  1  0
 14 13  1  6
 14 15  1  0
 15  7  1  0
 16 24  1  0
 16 14  1  0
 17 16  2  0
 19 21  1  0
 19 18  1  0
 20 19  2  0
 23 22  1  1
 22 21  1  0
 23 24  1  0
 25 23  1  0
 26 25  2  0
 27 25  1  0
M  END
$$$$
