NQQ.pdb
     RDKit          3D

 27 26  0  0  1  0  0  0  0  0999 V2000
   14.2401  -15.3196  -16.2681 N   0  0  0  0  0  0  0  0  0  0  0  0
   13.6975  -14.6039  -15.1765 C   0  0  0  0  0  0  0  0  0  0  0  0
   12.5209  -14.8088  -14.7848 O   0  0  0  0  0  0  0  0  0  0  0  0
   14.5252  -13.6029  -14.4879 C   0  0  0  0  0  0  0  0  0  0  0  0
   15.8862  -13.4353  -15.1640 C   0  0  2  0  0  0  0  0  0  0  0  0
   16.6088  -14.6619  -14.9200 N   0  0  0  0  0  0  0  0  0  0  0  0
   16.5709  -12.3379  -14.4112 C   0  0  0  0  0  0  0  0  0  0  0  0
   16.9251  -12.6054  -13.2205 O   0  0  0  0  0  0  0  0  0  0  0  0
   20.0890   -7.7241  -16.4621 N   0  0  0  0  0  0  0  0  0  0  0  0
   19.1828   -8.4760  -17.2549 C   0  0  0  0  0  0  0  0  0  0  0  0
   18.9943   -8.1243  -18.4432 O   0  0  0  0  0  0  0  0  0  0  0  0
   18.4980   -9.6515  -16.6306 C   0  0  0  0  0  0  0  0  0  0  0  0
   18.7600   -9.7859  -15.1812 C   0  0  0  0  0  0  0  0  0  0  0  0
   17.6539  -10.1277  -14.2706 C   0  0  2  0  0  0  0  0  0  0  0  0
   16.8101  -11.0731  -14.9948 N   0  0  0  0  0  0  0  0  0  0  0  0
   16.8260   -9.0215  -13.7577 C   0  0  0  0  0  0  0  0  0  0  0  0
   15.7235   -8.7822  -14.3180 O   0  0  0  0  0  0  0  0  0  0  0  0
   15.7003   -7.2688   -8.0686 N   0  0  0  0  0  0  0  0  0  0  0  0
   15.0936   -6.1830   -8.7425 C   0  0  0  0  0  0  0  0  0  0  0  0
   14.4425   -5.3396   -8.1098 O   0  0  0  0  0  0  0  0  0  0  0  0
   15.2616   -6.0850  -10.2376 C   0  0  0  0  0  0  0  0  0  0  0  0
   16.0662   -7.2496  -10.7435 C   0  0  0  0  0  0  0  0  0  0  0  0
   16.2850   -7.1411  -12.2102 C   0  0  2  0  0  0  0  0  0  0  0  0
   17.1924   -8.2131  -12.6739 N   0  0  0  0  0  0  0  0  0  0  0  0
   16.8554   -5.8488  -12.6129 C   0  0  0  0  0  0  0  0  0  0  0  0
   18.0462   -5.6643  -12.9564 O   0  0  0  0  0  0  0  0  0  0  0  0
   16.0039   -4.7240  -12.6165 O   0  0  0  0  0  0  0  0  0  0  0  0
  2  1  1  0
  2  3  2  0
  4  2  1  0
  5  4  1  0
  5  6  1  1
  7  8  2  0
  7  5  1  0
  9 10  1  0
 10 12  1  0
 11 10  2  0
 12 13  1  0
 14 13  1  6
 14 15  1  0
 15  7  1  0
 16 24  1  0
 16 14  1  0
 17 16  2  0
 19 21  1  0
 19 18  1  0
 20 19  2  0
 23 22  1  1
 22 21  1  0
 23 24  1  0
 25 23  1  0
 26 25  2  0
 27 25  1  0
M  END
$$$$
