NQQ.pdb
     RDKit          3D

 27 26  0  0  1  0  0  0  0  0999 V2000
   16.1178  -13.6098  -10.8593 N   0  0  0  0  0  0  0  0  0  0  0  0
   16.8935  -12.6918  -11.6036 C   0  0  0  0  0  0  0  0  0  0  0  0
   17.8614  -13.0780  -12.3063 O   0  0  0  0  0  0  0  0  0  0  0  0
   16.5607  -11.2606  -11.5544 C   0  0  0  0  0  0  0  0  0  0  0  0
   15.4858  -10.9675  -10.5074 C   0  0  2  0  0  0  0  0  0  0  0  0
   14.2788  -11.6021  -10.9838 N   0  0  0  0  0  0  0  0  0  0  0  0
   15.2788   -9.4861  -10.5551 C   0  0  0  0  0  0  0  0  0  0  0  0
   14.5776   -9.0444  -11.5185 O   0  0  0  0  0  0  0  0  0  0  0  0
   15.0620   -5.7063   -6.0666 N   0  0  0  0  0  0  0  0  0  0  0  0
   14.5222   -4.8590   -7.0696 C   0  0  0  0  0  0  0  0  0  0  0  0
   14.3090   -3.6570   -6.7853 O   0  0  0  0  0  0  0  0  0  0  0  0
   14.2349   -5.4451   -8.4166 C   0  0  0  0  0  0  0  0  0  0  0  0
   14.7061   -6.8390   -8.5664 C   0  0  0  0  0  0  0  0  0  0  0  0
   15.5791   -7.1940   -9.6984 C   0  0  2  0  0  0  0  0  0  0  0  0
   15.8338   -8.6263   -9.5802 N   0  0  0  0  0  0  0  0  0  0  0  0
   16.8595   -6.4750   -9.8240 C   0  0  0  0  0  0  0  0  0  0  0  0
   17.8196   -6.8174   -9.0839 O   0  0  0  0  0  0  0  0  0  0  0  0
   20.2006   -8.6174  -12.8316 N   0  0  0  0  0  0  0  0  0  0  0  0
   20.9745   -7.4360  -12.9118 C   0  0  0  0  0  0  0  0  0  0  0  0
   22.1172   -7.4684  -13.3899 O   0  0  0  0  0  0  0  0  0  0  0  0
   20.3727   -6.1507  -12.4029 C   0  0  0  0  0  0  0  0  0  0  0  0
   19.0383   -6.4226  -11.7664 C   0  0  0  0  0  0  0  0  0  0  0  0
   18.4376   -5.1662  -11.2454 C   0  0  2  0  0  0  0  0  0  0  0  0
   17.0773   -5.4253  -10.7258 N   0  0  0  0  0  0  0  0  0  0  0  0
   18.3492   -4.1070  -12.2592 C   0  0  0  0  0  0  0  0  0  0  0  0
   17.3376   -3.8625  -12.9572 O   0  0  0  0  0  0  0  0  0  0  0  0
   19.4856   -3.2979  -12.4692 O   0  0  0  0  0  0  0  0  0  0  0  0
  2  1  1  0
  2  3  2  0
  4  2  1  0
  5  4  1  0
  5  6  1  6
  7  8  2  0
  7  5  1  0
  9 10  1  0
 10 12  1  0
 11 10  2  0
 12 13  1  0
 14 13  1  1
 14 15  1  0
 15  7  1  0
 16 24  1  0
 16 14  1  0
 17 16  2  0
 19 21  1  0
 19 18  1  0
 20 19  2  0
 23 22  1  6
 22 21  1  0
 23 24  1  0
 25 23  1  0
 26 25  2  0
 27 25  1  0
M  END
$$$$
