EPG.pdb
     RDKit          3D

 21 21  0  0  1  0  0  0  0  0999 V2000
   30.5639  -37.0510   -6.5270 N   0  0  0  0  0  0  0  0  0  0  0  0
   30.8331  -35.9798   -5.5943 C   0  0  1  0  0  0  0  0  0  0  0  0
   29.5431  -35.4745   -4.9738 C   0  0  0  0  0  0  0  0  0  0  0  0
   28.6362  -34.8104   -5.9632 C   0  0  0  0  0  0  0  0  0  0  0  0
   27.4028  -34.2669   -5.3999 C   0  0  0  0  0  0  0  0  0  0  0  0
   27.3266  -33.0667   -5.0602 O   0  0  0  0  0  0  0  0  0  0  0  0
   31.7806  -36.4156   -4.5514 C   0  0  0  0  0  0  0  0  0  0  0  0
   31.4605  -37.4420   -3.8511 O   0  0  0  0  0  0  0  0  0  0  0  0
   26.2704  -35.0587   -5.2200 O   0  0  0  0  0  0  0  0  0  0  0  0
   32.9902  -35.7412   -4.3237 N   0  0  0  0  0  0  0  0  0  0  0  0
   33.5256  -34.6223   -5.0419 C   0  0  0  0  0  0  0  0  0  0  0  0
   34.8533  -34.2794   -4.3740 C   0  0  0  0  0  0  0  0  0  0  0  0
   35.2215  -35.4678   -3.5497 C   0  0  0  0  0  0  0  0  0  0  0  0
   33.9173  -36.1275   -3.2475 C   0  0  1  0  0  0  0  0  0  0  0  0
   33.3957  -35.6145   -1.9839 C   0  0  0  0  0  0  0  0  0  0  0  0
   32.5395  -34.6956   -1.9933 O   0  0  0  0  0  0  0  0  0  0  0  0
   33.8485  -36.1468   -0.7277 N   0  0  0  0  0  0  0  0  0  0  0  0
   33.3105  -35.5769    0.4693 C   0  0  0  0  0  0  0  0  0  0  0  0
   33.7332  -36.2558    1.6927 C   0  0  0  0  0  0  0  0  0  0  0  0
   35.0123  -36.0861    2.1881 O   0  0  0  0  0  0  0  0  0  0  0  0
   32.9497  -37.0073    2.3229 O   0  0  0  0  0  0  0  0  0  0  0  0
  2  1  1  6
  3  2  1  0
  4  3  1  0
  4  5  1  0
  5  6  2  0
  7  2  1  0
  8  7  2  0
  9  5  1  0
 10 14  1  0
 10  7  1  0
 11 10  1  0
 12 11  1  0
 12 13  1  0
 13 14  1  0
 14 15  1  1
 15 17  1  0
 15 16  2  0
 17 18  1  0
 19 18  1  0
 19 20  1  0
 21 19  2  0
M  END
$$$$
