EPG.pdb
     RDKit          3D

 21 21  0  0  1  0  0  0  0  0999 V2000
   26.2270  -23.1761  -15.1800 N   0  0  0  0  0  0  0  0  0  0  0  0
   26.2426  -22.0736  -14.2450 C   0  0  1  0  0  0  0  0  0  0  0  0
   26.4611  -20.7591  -14.9722 C   0  0  0  0  0  0  0  0  0  0  0  0
   25.4814  -20.5318  -16.0816 C   0  0  0  0  0  0  0  0  0  0  0  0
   25.6883  -19.3028  -16.8438 C   0  0  0  0  0  0  0  0  0  0  0  0
   24.8645  -18.9383  -17.7098 O   0  0  0  0  0  0  0  0  0  0  0  0
   24.9973  -22.0351  -13.4557 C   0  0  0  0  0  0  0  0  0  0  0  0
   23.9649  -22.6160  -13.9486 O   0  0  0  0  0  0  0  0  0  0  0  0
   26.8038  -18.4936  -16.6373 O   0  0  0  0  0  0  0  0  0  0  0  0
   24.9313  -21.3902  -12.2108 N   0  0  0  0  0  0  0  0  0  0  0  0
   25.9543  -20.6300  -11.5553 C   0  0  0  0  0  0  0  0  0  0  0  0
   25.3523  -20.1445  -10.2407 C   0  0  0  0  0  0  0  0  0  0  0  0
   24.1385  -20.9809  -10.0071 C   0  0  0  0  0  0  0  0  0  0  0  0
   23.7221  -21.4187  -11.3718 C   0  0  1  0  0  0  0  0  0  0  0  0
   22.7613  -20.4631  -11.9156 C   0  0  0  0  0  0  0  0  0  0  0  0
   23.1728  -19.3916  -12.4255 O   0  0  0  0  0  0  0  0  0  0  0  0
   21.3497  -20.7316  -11.8758 N   0  0  0  0  0  0  0  0  0  0  0  0
   20.5047  -19.9823  -12.7544 C   0  0  0  0  0  0  0  0  0  0  0  0
   19.0986  -20.3782  -12.7072 C   0  0  0  0  0  0  0  0  0  0  0  0
   18.1392  -19.6581  -13.3936 O   0  0  0  0  0  0  0  0  0  0  0  0
   18.7267  -21.3779  -12.0452 O   0  0  0  0  0  0  0  0  0  0  0  0
  2  1  1  6
  3  2  1  0
  4  3  1  0
  4  5  1  0
  5  6  2  0
  7  2  1  0
  8  7  2  0
  9  5  1  0
 10 14  1  0
 10  7  1  0
 11 10  1  0
 12 11  1  0
 12 13  1  0
 13 14  1  0
 14 15  1  6
 15 17  1  0
 15 16  2  0
 17 18  1  0
 19 18  1  0
 19 20  1  0
 21 19  2  0
M  END
$$$$
