EPG.pdb
     RDKit          3D

 21 21  0  0  1  0  0  0  0  0999 V2000
   26.8485  -22.5539  -15.5109 N   0  0  0  0  0  0  0  0  0  0  0  0
   26.7282  -21.5108  -14.5172 C   0  0  1  0  0  0  0  0  0  0  0  0
   26.7850  -20.1415  -15.1701 C   0  0  0  0  0  0  0  0  0  0  0  0
   25.6923  -19.9219  -16.1701 C   0  0  0  0  0  0  0  0  0  0  0  0
   25.7251  -18.6259  -16.8435 C   0  0  0  0  0  0  0  0  0  0  0  0
   26.7322  -18.2631  -17.4882 O   0  0  0  0  0  0  0  0  0  0  0  0
   25.4867  -21.6681  -13.7366 C   0  0  0  0  0  0  0  0  0  0  0  0
   24.4893  -22.2298  -14.3162 O   0  0  0  0  0  0  0  0  0  0  0  0
   24.6434  -17.7490  -16.7945 O   0  0  0  0  0  0  0  0  0  0  0  0
   25.3875  -21.2239  -12.4089 N   0  0  0  0  0  0  0  0  0  0  0  0
   26.3533  -20.4838  -11.6514 C   0  0  0  0  0  0  0  0  0  0  0  0
   25.7349  -20.2536  -10.2763 C   0  0  0  0  0  0  0  0  0  0  0  0
   24.6010  -21.2176  -10.1653 C   0  0  0  0  0  0  0  0  0  0  0  0
   24.1999  -21.4819  -11.5784 C   0  0  1  0  0  0  0  0  0  0  0  0
   23.1520  -20.5431  -11.9687 C   0  0  0  0  0  0  0  0  0  0  0  0
   23.4554  -19.5047  -12.6068 O   0  0  0  0  0  0  0  0  0  0  0  0
   21.7763  -20.7906  -11.6327 N   0  0  0  0  0  0  0  0  0  0  0  0
   20.7775  -20.0196  -12.3071 C   0  0  0  0  0  0  0  0  0  0  0  0
   20.1047  -20.7352  -13.3894 C   0  0  0  0  0  0  0  0  0  0  0  0
   19.0481  -20.1576  -14.0677 O   0  0  0  0  0  0  0  0  0  0  0  0
   20.4669  -21.8879  -13.7300 O   0  0  0  0  0  0  0  0  0  0  0  0
  2  1  1  6
  3  2  1  0
  4  3  1  0
  4  5  1  0
  5  6  2  0
  7  2  1  0
  8  7  2  0
  9  5  1  0
 10 14  1  0
 10  7  1  0
 11 10  1  0
 12 11  1  0
 12 13  1  0
 13 14  1  0
 14 15  1  6
 15 17  1  0
 15 16  2  0
 17 18  1  0
 19 18  1  0
 19 20  1  0
 21 19  2  0
M  END
$$$$
