EPG.pdb
     RDKit          3D

 21 21  0  0  1  0  0  0  0  0999 V2000
   27.2163  -19.7190  -15.7186 N   0  0  0  0  0  0  0  0  0  0  0  0
   26.9186  -18.4250  -16.2905 C   0  0  1  0  0  0  0  0  0  0  0  0
   26.8406  -18.5147  -17.8039 C   0  0  0  0  0  0  0  0  0  0  0  0
   28.1281  -18.9479  -18.4337 C   0  0  0  0  0  0  0  0  0  0  0  0
   28.1347  -18.9331  -19.8945 C   0  0  0  0  0  0  0  0  0  0  0  0
   28.4801  -19.9426  -20.5450 O   0  0  0  0  0  0  0  0  0  0  0  0
   25.6675  -17.8783  -15.7327 C   0  0  0  0  0  0  0  0  0  0  0  0
   24.8033  -18.7141  -15.2845 O   0  0  0  0  0  0  0  0  0  0  0  0
   27.7591  -17.8015  -20.6158 O   0  0  0  0  0  0  0  0  0  0  0  0
   25.4197  -16.4975  -15.6884 N   0  0  0  0  0  0  0  0  0  0  0  0
   26.2698  -15.4335  -16.1351 C   0  0  0  0  0  0  0  0  0  0  0  0
   25.5123  -14.1374  -15.8658 C   0  0  0  0  0  0  0  0  0  0  0  0
   24.4239  -14.4855  -14.9059 C   0  0  0  0  0  0  0  0  0  0  0  0
   24.1732  -15.9378  -15.1409 C   0  0  1  0  0  0  0  0  0  0  0  0
   23.1205  -16.0926  -16.1408 C   0  0  0  0  0  0  0  0  0  0  0  0
   23.3880  -15.9183  -17.3555 O   0  0  0  0  0  0  0  0  0  0  0  0
   21.7808  -16.4423  -15.7544 N   0  0  0  0  0  0  0  0  0  0  0  0
   20.7961  -16.5466  -16.7871 C   0  0  0  0  0  0  0  0  0  0  0  0
   19.4699  -16.9299  -16.3070 C   0  0  0  0  0  0  0  0  0  0  0  0
   18.6975  -16.0416  -15.5828 O   0  0  0  0  0  0  0  0  0  0  0  0
   18.9994  -18.0705  -16.5385 O   0  0  0  0  0  0  0  0  0  0  0  0
  2  1  1  1
  3  2  1  0
  4  3  1  0
  4  5  1  0
  5  6  2  0
  7  2  1  0
  8  7  2  0
  9  5  1  0
 10 14  1  0
 10  7  1  0
 11 10  1  0
 12 11  1  0
 12 13  1  0
 13 14  1  0
 14 15  1  6
 15 17  1  0
 15 16  2  0
 17 18  1  0
 19 18  1  0
 19 20  1  0
 21 19  2  0
M  END
$$$$
