EPG.pdb
     RDKit          3D

 21 21  0  0  1  0  0  0  0  0999 V2000
   21.9276  -21.3754  -15.2468 N   0  0  0  0  0  0  0  0  0  0  0  0
   22.7637  -20.4999  -14.4564 C   0  0  1  0  0  0  0  0  0  0  0  0
   22.2700  -19.0670  -14.5440 C   0  0  0  0  0  0  0  0  0  0  0  0
   20.8032  -18.9675  -14.8286 C   0  0  0  0  0  0  0  0  0  0  0  0
   20.4082  -17.8109  -15.6287 C   0  0  0  0  0  0  0  0  0  0  0  0
   20.8359  -17.6598  -16.7931 O   0  0  0  0  0  0  0  0  0  0  0  0
   22.8189  -20.9503  -13.0531 C   0  0  0  0  0  0  0  0  0  0  0  0
   21.7278  -21.3645  -12.5201 O   0  0  0  0  0  0  0  0  0  0  0  0
   19.5455  -16.8371  -15.1298 O   0  0  0  0  0  0  0  0  0  0  0  0
   24.0142  -20.9311  -12.3176 N   0  0  0  0  0  0  0  0  0  0  0  0
   25.2985  -20.4492  -12.7331 C   0  0  0  0  0  0  0  0  0  0  0  0
   26.2368  -20.6520  -11.5478 C   0  0  0  0  0  0  0  0  0  0  0  0
   25.5496  -21.6122  -10.6350 C   0  0  0  0  0  0  0  0  0  0  0  0
   24.0986  -21.4376  -10.9380 C   0  0  1  0  0  0  0  0  0  0  0  0
   23.5338  -20.4320  -10.0426 C   0  0  0  0  0  0  0  0  0  0  0  0
   23.4131  -19.2462  -10.4387 O   0  0  0  0  0  0  0  0  0  0  0  0
   23.1133  -20.7802   -8.7129 N   0  0  0  0  0  0  0  0  0  0  0  0
   21.7109  -20.7557   -8.4305 C   0  0  0  0  0  0  0  0  0  0  0  0
   21.2046  -21.9871   -7.8276 C   0  0  0  0  0  0  0  0  0  0  0  0
   20.9301  -22.0494   -6.4745 O   0  0  0  0  0  0  0  0  0  0  0  0
   21.0066  -23.0158   -8.5193 O   0  0  0  0  0  0  0  0  0  0  0  0
  2  1  1  6
  3  2  1  0
  4  3  1  0
  4  5  1  0
  5  6  2  0
  7  2  1  0
  8  7  2  0
  9  5  1  0
 10 14  1  0
 10  7  1  0
 11 10  1  0
 12 11  1  0
 12 13  1  0
 13 14  1  0
 14 15  1  1
 15 17  1  0
 15 16  2  0
 17 18  1  0
 19 18  1  0
 19 20  1  0
 21 19  2  0
M  END
$$$$
