EPG.pdb
     RDKit          3D

 21 21  0  0  1  0  0  0  0  0999 V2000
   21.7511  -19.0883  -14.5533 N   0  0  0  0  0  0  0  0  0  0  0  0
   22.3573  -20.1802  -13.8250 C   0  0  1  0  0  0  0  0  0  0  0  0
   21.8500  -21.5143  -14.3421 C   0  0  0  0  0  0  0  0  0  0  0  0
   21.2193  -22.3559  -13.2763 C   0  0  0  0  0  0  0  0  0  0  0  0
   19.8397  -22.0039  -12.9493 C   0  0  0  0  0  0  0  0  0  0  0  0
   19.0242  -21.7027  -13.8469 O   0  0  0  0  0  0  0  0  0  0  0  0
   23.8286  -20.1129  -13.9038 C   0  0  0  0  0  0  0  0  0  0  0  0
   24.3432  -19.6265  -14.9737 O   0  0  0  0  0  0  0  0  0  0  0  0
   19.3811  -21.9897  -11.6336 O   0  0  0  0  0  0  0  0  0  0  0  0
   24.6458  -20.5611  -12.8545 N   0  0  0  0  0  0  0  0  0  0  0  0
   24.2417  -21.0900  -11.5852 C   0  0  0  0  0  0  0  0  0  0  0  0
   25.5248  -21.4317  -10.8346 C   0  0  0  0  0  0  0  0  0  0  0  0
   26.6235  -20.7123  -11.5436 C   0  0  0  0  0  0  0  0  0  0  0  0
   26.1154  -20.5405  -12.9364 C   0  0  1  0  0  0  0  0  0  0  0  0
   26.5471  -21.6714  -13.7530 C   0  0  0  0  0  0  0  0  0  0  0  0
   25.9410  -22.7678  -13.6645 O   0  0  0  0  0  0  0  0  0  0  0  0
   27.6572  -21.5474  -14.6579 N   0  0  0  0  0  0  0  0  0  0  0  0
   27.5781  -22.2405  -15.9071 C   0  0  0  0  0  0  0  0  0  0  0  0
   28.6299  -21.8784  -16.8551 C   0  0  0  0  0  0  0  0  0  0  0  0
   28.8487  -20.5570  -17.1958 O   0  0  0  0  0  0  0  0  0  0  0  0
   29.3589  -22.7538  -17.3826 O   0  0  0  0  0  0  0  0  0  0  0  0
  2  1  1  6
  3  2  1  0
  4  3  1  0
  4  5  1  0
  5  6  2  0
  7  2  1  0
  8  7  2  0
  9  5  1  0
 10 14  1  0
 10  7  1  0
 11 10  1  0
 12 11  1  0
 12 13  1  0
 13 14  1  0
 14 15  1  6
 15 17  1  0
 15 16  2  0
 17 18  1  0
 19 18  1  0
 19 20  1  0
 21 19  2  0
M  END
$$$$
