EPG.pdb
     RDKit          3D

 21 21  0  0  1  0  0  0  0  0999 V2000
   19.8121  -11.3869  -17.1749 N   0  0  0  0  0  0  0  0  0  0  0  0
   18.8945  -10.3242  -16.8301 C   0  0  1  0  0  0  0  0  0  0  0  0
   18.0660  -10.7062  -15.6168 C   0  0  0  0  0  0  0  0  0  0  0  0
   17.2017  -11.9065  -15.8501 C   0  0  0  0  0  0  0  0  0  0  0  0
   16.3248  -12.2599  -14.7364 C   0  0  0  0  0  0  0  0  0  0  0  0
   16.5670  -13.2543  -14.0195 O   0  0  0  0  0  0  0  0  0  0  0  0
   19.6175   -9.0604  -16.5941 C   0  0  0  0  0  0  0  0  0  0  0  0
   20.8237   -9.1390  -16.1639 O   0  0  0  0  0  0  0  0  0  0  0  0
   15.1919  -11.5083  -14.4311 O   0  0  0  0  0  0  0  0  0  0  0  0
   19.0193   -7.8124  -16.8274 N   0  0  0  0  0  0  0  0  0  0  0  0
   17.6824   -7.5432  -17.2684 C   0  0  0  0  0  0  0  0  0  0  0  0
   17.5533   -6.0253  -17.3446 C   0  0  0  0  0  0  0  0  0  0  0  0
   18.9463   -5.4899  -17.3301 C   0  0  0  0  0  0  0  0  0  0  0  0
   19.7412   -6.5442  -16.6345 C   0  0  1  0  0  0  0  0  0  0  0  0
   19.7866   -6.2529  -15.2044 C   0  0  0  0  0  0  0  0  0  0  0  0
   18.8972   -6.7161  -14.4483 O   0  0  0  0  0  0  0  0  0  0  0  0
   20.8360   -5.4426  -14.6490 N   0  0  0  0  0  0  0  0  0  0  0  0
   20.8681   -5.2775  -13.2281 C   0  0  0  0  0  0  0  0  0  0  0  0
   21.9934   -4.4778  -12.7481 C   0  0  0  0  0  0  0  0  0  0  0  0
   22.1287   -3.1541  -13.1215 O   0  0  0  0  0  0  0  0  0  0  0  0
   22.8628   -4.9697  -11.9878 O   0  0  0  0  0  0  0  0  0  0  0  0
  2  1  1  1
  3  2  1  0
  4  3  1  0
  4  5  1  0
  5  6  2  0
  7  2  1  0
  8  7  2  0
  9  5  1  0
 10 14  1  0
 10  7  1  0
 11 10  1  0
 12 11  1  0
 12 13  1  0
 13 14  1  0
 14 15  1  1
 15 17  1  0
 15 16  2  0
 17 18  1  0
 19 18  1  0
 19 20  1  0
 21 19  2  0
M  END
$$$$
