EPG.pdb
     RDKit          3D

 21 21  0  0  1  0  0  0  0  0999 V2000
   38.3406   -6.1744  -11.8267 N   0  0  0  0  0  0  0  0  0  0  0  0
   39.4433   -6.6686  -11.0330 C   0  0  1  0  0  0  0  0  0  0  0  0
   39.8876   -5.6232  -10.0259 C   0  0  0  0  0  0  0  0  0  0  0  0
   38.8002   -5.2212   -9.0782 C   0  0  0  0  0  0  0  0  0  0  0  0
   39.1949   -4.2434   -8.0671 C   0  0  0  0  0  0  0  0  0  0  0  0
   39.5633   -3.0950   -8.3942 O   0  0  0  0  0  0  0  0  0  0  0  0
   39.0817   -7.9281  -10.3561 C   0  0  0  0  0  0  0  0  0  0  0  0
   37.8487   -8.1022  -10.0472 O   0  0  0  0  0  0  0  0  0  0  0  0
   39.1766   -4.5494   -6.7078 O   0  0  0  0  0  0  0  0  0  0  0  0
   40.0414   -8.9071  -10.0554 N   0  0  0  0  0  0  0  0  0  0  0  0
   41.4639   -8.8259  -10.2113 C   0  0  0  0  0  0  0  0  0  0  0  0
   42.0257  -10.1572   -9.7232 C   0  0  0  0  0  0  0  0  0  0  0  0
   40.8720  -11.1030   -9.6808 C   0  0  0  0  0  0  0  0  0  0  0  0
   39.6785  -10.2240   -9.5068 C   0  0  1  0  0  0  0  0  0  0  0  0
   39.3948  -10.0676   -8.0830 C   0  0  0  0  0  0  0  0  0  0  0  0
   39.7143   -9.0020   -7.5001 O   0  0  0  0  0  0  0  0  0  0  0  0
   38.7543  -11.1171   -7.3382 N   0  0  0  0  0  0  0  0  0  0  0  0
   37.4049  -10.9035   -6.9133 C   0  0  0  0  0  0  0  0  0  0  0  0
   36.8697  -11.9739   -6.0742 C   0  0  0  0  0  0  0  0  0  0  0  0
   36.9357  -11.8904   -4.6963 O   0  0  0  0  0  0  0  0  0  0  0  0
   36.3387  -12.9926   -6.5803 O   0  0  0  0  0  0  0  0  0  0  0  0
  2  1  1  1
  3  2  1  0
  4  3  1  0
  4  5  1  0
  5  6  2  0
  7  2  1  0
  8  7  2  0
  9  5  1  0
 10 14  1  0
 10  7  1  0
 11 10  1  0
 12 11  1  0
 12 13  1  0
 13 14  1  0
 14 15  1  1
 15 17  1  0
 15 16  2  0
 17 18  1  0
 19 18  1  0
 19 20  1  0
 21 19  2  0
M  END
$$$$
