EPG.pdb
     RDKit          3D

 21 21  0  0  1  0  0  0  0  0999 V2000
   26.2970  -20.9673  -17.1239 N   0  0  0  0  0  0  0  0  0  0  0  0
   26.4815  -20.2705  -15.8706 C   0  0  1  0  0  0  0  0  0  0  0  0
   26.2532  -18.7804  -16.0490 C   0  0  0  0  0  0  0  0  0  0  0  0
   26.3623  -18.3359  -17.4747 C   0  0  0  0  0  0  0  0  0  0  0  0
   25.0920  -18.2450  -18.1904 C   0  0  0  0  0  0  0  0  0  0  0  0
   24.0843  -17.7431  -17.6481 O   0  0  0  0  0  0  0  0  0  0  0  0
   25.5912  -20.8161  -14.8290 C   0  0  0  0  0  0  0  0  0  0  0  0
   24.4488  -21.2659  -15.2016 O   0  0  0  0  0  0  0  0  0  0  0  0
   24.9539  -18.7105  -19.4965 O   0  0  0  0  0  0  0  0  0  0  0  0
   25.9680  -20.8475  -13.4773 N   0  0  0  0  0  0  0  0  0  0  0  0
   27.1450  -20.2931  -12.8761 C   0  0  0  0  0  0  0  0  0  0  0  0
   27.0502  -20.5997  -11.3850 C   0  0  0  0  0  0  0  0  0  0  0  0
   26.0181  -21.6687  -11.2468 C   0  0  0  0  0  0  0  0  0  0  0  0
   25.1445  -21.4974  -12.4447 C   0  0  1  0  0  0  0  0  0  0  0  0
   24.0353  -20.6078  -12.1127 C   0  0  0  0  0  0  0  0  0  0  0  0
   24.1523  -19.3721  -12.3040 O   0  0  0  0  0  0  0  0  0  0  0  0
   22.8097  -21.1269  -11.5695 N   0  0  0  0  0  0  0  0  0  0  0  0
   21.6771  -20.2536  -11.5293 C   0  0  0  0  0  0  0  0  0  0  0  0
   20.7121  -20.4823  -12.6029 C   0  0  0  0  0  0  0  0  0  0  0  0
   19.8865  -21.5906  -12.5856 O   0  0  0  0  0  0  0  0  0  0  0  0
   20.6080  -19.6822  -13.5646 O   0  0  0  0  0  0  0  0  0  0  0  0
  2  1  1  6
  3  2  1  0
  4  3  1  0
  4  5  1  0
  5  6  2  0
  7  2  1  0
  8  7  2  0
  9  5  1  0
 10 14  1  0
 10  7  1  0
 11 10  1  0
 12 11  1  0
 12 13  1  0
 13 14  1  0
 14 15  1  1
 15 17  1  0
 15 16  2  0
 17 18  1  0
 19 18  1  0
 19 20  1  0
 21 19  2  0
M  END
$$$$
