EPG.pdb
     RDKit          3D

 21 21  0  0  1  0  0  0  0  0999 V2000
   22.8933  -21.2807  -14.5050 N   0  0  0  0  0  0  0  0  0  0  0  0
   22.8728  -20.5559  -13.2543 C   0  0  1  0  0  0  0  0  0  0  0  0
   22.1751  -19.2183  -13.4231 C   0  0  0  0  0  0  0  0  0  0  0  0
   21.0604  -19.2593  -14.4221 C   0  0  0  0  0  0  0  0  0  0  0  0
   19.7378  -18.9540  -13.8819 C   0  0  0  0  0  0  0  0  0  0  0  0
   18.7457  -19.6525  -14.1806 O   0  0  0  0  0  0  0  0  0  0  0  0
   22.2278  -21.3533  -12.1943 C   0  0  0  0  0  0  0  0  0  0  0  0
   21.4104  -22.2727  -12.5586 O   0  0  0  0  0  0  0  0  0  0  0  0
   19.5309  -17.8800  -13.0185 O   0  0  0  0  0  0  0  0  0  0  0  0
   22.4900  -21.1244  -10.8346 N   0  0  0  0  0  0  0  0  0  0  0  0
   23.2755  -20.0769  -10.2514 C   0  0  0  0  0  0  0  0  0  0  0  0
   23.2198  -20.2887   -8.7419 C   0  0  0  0  0  0  0  0  0  0  0  0
   22.7342  -21.6850   -8.5372 C   0  0  0  0  0  0  0  0  0  0  0  0
   21.9539  -21.9906   -9.7721 C   0  0  1  0  0  0  0  0  0  0  0  0
   20.5518  -21.6434   -9.5582 C   0  0  0  0  0  0  0  0  0  0  0  0
   20.1167  -20.5389   -9.9680 O   0  0  0  0  0  0  0  0  0  0  0  0
   19.6615  -22.5490   -8.8846 N   0  0  0  0  0  0  0  0  0  0  0  0
   18.2588  -22.4082   -9.1292 C   0  0  0  0  0  0  0  0  0  0  0  0
   17.8610  -22.7173  -10.5012 C   0  0  0  0  0  0  0  0  0  0  0  0
   17.9584  -21.7632  -11.4963 O   0  0  0  0  0  0  0  0  0  0  0  0
   17.4224  -23.8521  -10.8107 O   0  0  0  0  0  0  0  0  0  0  0  0
  2  1  1  6
  3  2  1  0
  4  3  1  0
  4  5  1  0
  5  6  2  0
  7  2  1  0
  8  7  2  0
  9  5  1  0
 10 14  1  0
 10  7  1  0
 11 10  1  0
 12 11  1  0
 12 13  1  0
 13 14  1  0
 14 15  1  1
 15 17  1  0
 15 16  2  0
 17 18  1  0
 19 18  1  0
 19 20  1  0
 21 19  2  0
M  END
$$$$
