EPG.pdb
     RDKit          3D

 21 21  0  0  1  0  0  0  0  0999 V2000
   18.2550  -12.7393  -15.6523 N   0  0  0  0  0  0  0  0  0  0  0  0
   19.5636  -12.3187  -16.1003 C   0  0  1  0  0  0  0  0  0  0  0  0
   19.5630  -12.0760  -17.5988 C   0  0  0  0  0  0  0  0  0  0  0  0
   19.2828  -13.3134  -18.3941 C   0  0  0  0  0  0  0  0  0  0  0  0
   19.2850  -13.1279  -19.8431 C   0  0  0  0  0  0  0  0  0  0  0  0
   18.2214  -13.1731  -20.4975 O   0  0  0  0  0  0  0  0  0  0  0  0
   20.0062  -11.1134  -15.3744 C   0  0  0  0  0  0  0  0  0  0  0  0
   19.1035  -10.2818  -15.0004 O   0  0  0  0  0  0  0  0  0  0  0  0
   20.4639  -12.8949  -20.5484 O   0  0  0  0  0  0  0  0  0  0  0  0
   21.3611  -10.8738  -15.0973 N   0  0  0  0  0  0  0  0  0  0  0  0
   22.4905  -11.6828  -15.4495 C   0  0  0  0  0  0  0  0  0  0  0  0
   23.7215  -10.9555  -14.9186 C   0  0  0  0  0  0  0  0  0  0  0  0
   23.2184   -9.9566  -13.9304 C   0  0  0  0  0  0  0  0  0  0  0  0
   21.8162   -9.6825  -14.3620 C   0  0  1  0  0  0  0  0  0  0  0  0
   21.8039   -8.5442  -15.2763 C   0  0  0  0  0  0  0  0  0  0  0  0
   21.8444   -8.7434  -16.5157 O   0  0  0  0  0  0  0  0  0  0  0  0
   21.7459   -7.1972  -14.7776 N   0  0  0  0  0  0  0  0  0  0  0  0
   20.8312   -6.2939  -15.4055 C   0  0  0  0  0  0  0  0  0  0  0  0
   20.8375   -4.9489  -14.8335 C   0  0  0  0  0  0  0  0  0  0  0  0
   20.5915   -4.7530  -13.4877 O   0  0  0  0  0  0  0  0  0  0  0  0
   21.0654   -3.9407  -15.5460 O   0  0  0  0  0  0  0  0  0  0  0  0
  2  1  1  1
  3  2  1  0
  4  3  1  0
  4  5  1  0
  5  6  2  0
  7  2  1  0
  8  7  2  0
  9  5  1  0
 10 14  1  0
 10  7  1  0
 11 10  1  0
 12 11  1  0
 12 13  1  0
 13 14  1  0
 14 15  1  6
 15 17  1  0
 15 16  2  0
 17 18  1  0
 19 18  1  0
 19 20  1  0
 21 19  2  0
M  END
$$$$
