EPG.pdb
     RDKit          3D

 21 21  0  0  1  0  0  0  0  0999 V2000
   18.2989  -11.7983  -16.9146 N   0  0  0  0  0  0  0  0  0  0  0  0
   17.6196  -10.6027  -16.4682 C   0  0  1  0  0  0  0  0  0  0  0  0
   16.8863  -10.8600  -15.1642 C   0  0  0  0  0  0  0  0  0  0  0  0
   15.8136  -11.8974  -15.2884 C   0  0  0  0  0  0  0  0  0  0  0  0
   15.0763  -12.1714  -14.0573 C   0  0  0  0  0  0  0  0  0  0  0  0
   15.3089  -11.5260  -13.0128 O   0  0  0  0  0  0  0  0  0  0  0  0
   18.5672   -9.4817  -16.3241 C   0  0  0  0  0  0  0  0  0  0  0  0
   19.8020   -9.7706  -16.1291 O   0  0  0  0  0  0  0  0  0  0  0  0
   14.0917  -13.1556  -13.9986 O   0  0  0  0  0  0  0  0  0  0  0  0
   18.1462   -8.1447  -16.3956 N   0  0  0  0  0  0  0  0  0  0  0  0
   16.8064   -7.6454  -16.4955 C   0  0  0  0  0  0  0  0  0  0  0  0
   16.9166   -6.1245  -16.5269 C   0  0  0  0  0  0  0  0  0  0  0  0
   18.3415   -5.8190  -16.8485 C   0  0  0  0  0  0  0  0  0  0  0  0
   19.0934   -7.0182  -16.3751 C   0  0  1  0  0  0  0  0  0  0  0  0
   19.5271   -6.8059  -14.9972 C   0  0  0  0  0  0  0  0  0  0  0  0
   18.9579   -7.4259  -14.0650 O   0  0  0  0  0  0  0  0  0  0  0  0
   20.5976   -5.8963  -14.6919 N   0  0  0  0  0  0  0  0  0  0  0  0
   21.3424   -6.1239  -13.4916 C   0  0  0  0  0  0  0  0  0  0  0  0
   22.3365   -5.0917  -13.2045 C   0  0  0  0  0  0  0  0  0  0  0  0
   22.7720   -4.2354  -14.1980 O   0  0  0  0  0  0  0  0  0  0  0  0
   22.8190   -4.9563  -12.0535 O   0  0  0  0  0  0  0  0  0  0  0  0
  2  1  1  1
  3  2  1  0
  4  3  1  0
  4  5  1  0
  5  6  2  0
  7  2  1  0
  8  7  2  0
  9  5  1  0
 10 14  1  0
 10  7  1  0
 11 10  1  0
 12 11  1  0
 12 13  1  0
 13 14  1  0
 14 15  1  1
 15 17  1  0
 15 16  2  0
 17 18  1  0
 19 18  1  0
 19 20  1  0
 21 19  2  0
M  END
$$$$
