EPG.pdb
     RDKit          3D

 21 21  0  0  1  0  0  0  0  0999 V2000
   22.9277   -6.1521  -18.5207 N   0  0  0  0  0  0  0  0  0  0  0  0
   22.8114   -6.3510  -17.0934 C   0  0  1  0  0  0  0  0  0  0  0  0
   22.5881   -5.0267  -16.3857 C   0  0  0  0  0  0  0  0  0  0  0  0
   21.2661   -4.4028  -16.7105 C   0  0  0  0  0  0  0  0  0  0  0  0
   20.9940   -3.1432  -16.0224 C   0  0  0  0  0  0  0  0  0  0  0  0
   21.8103   -2.1981  -16.0671 O   0  0  0  0  0  0  0  0  0  0  0  0
   21.7276   -7.3014  -16.7811 C   0  0  0  0  0  0  0  0  0  0  0  0
   20.7439   -7.3693  -17.6019 O   0  0  0  0  0  0  0  0  0  0  0  0
   19.8224   -2.9463  -15.2943 O   0  0  0  0  0  0  0  0  0  0  0  0
   21.7596   -8.1066  -15.6319 N   0  0  0  0  0  0  0  0  0  0  0  0
   22.6623   -8.0246  -14.5216 C   0  0  0  0  0  0  0  0  0  0  0  0
   22.2461   -9.1228  -13.5484 C   0  0  0  0  0  0  0  0  0  0  0  0
   21.3718  -10.0525  -14.3221 C   0  0  0  0  0  0  0  0  0  0  0  0
   20.8060   -9.2065  -15.4137 C   0  0  1  0  0  0  0  0  0  0  0  0
   19.5359   -8.6349  -14.9754 C   0  0  0  0  0  0  0  0  0  0  0  0
   19.5275   -7.5387  -14.3624 O   0  0  0  0  0  0  0  0  0  0  0  0
   18.2935   -9.3095  -15.2359 N   0  0  0  0  0  0  0  0  0  0  0  0
   17.0924   -8.7036  -14.7490 C   0  0  0  0  0  0  0  0  0  0  0  0
   15.8708   -9.3957  -15.1553 C   0  0  0  0  0  0  0  0  0  0  0  0
   15.7177  -10.7500  -14.9266 O   0  0  0  0  0  0  0  0  0  0  0  0
   14.9329   -8.7814  -15.7200 O   0  0  0  0  0  0  0  0  0  0  0  0
  2  1  1  6
  3  2  1  0
  4  3  1  0
  4  5  1  0
  5  6  2  0
  7  2  1  0
  8  7  2  0
  9  5  1  0
 10 14  1  0
 10  7  1  0
 11 10  1  0
 12 11  1  0
 12 13  1  0
 13 14  1  0
 14 15  1  1
 15 17  1  0
 15 16  2  0
 17 18  1  0
 19 18  1  0
 19 20  1  0
 21 19  2  0
M  END
$$$$
