YDM.pdb
     RDKit          3D

 29 29  0  0  1  0  0  0  0  0999 V2000
   27.7164  -21.7972  -16.6561 O   0  0  0  0  0  0  0  0  0  0  0  0
   26.5389  -21.6833  -15.9027 C   0  0  0  0  0  0  0  0  0  0  0  0
   25.8812  -20.4702  -15.8078 C   0  0  0  0  0  0  0  0  0  0  0  0
   24.7210  -20.3899  -15.0563 C   0  0  0  0  0  0  0  0  0  0  0  0
   24.1830  -21.4721  -14.3905 C   0  0  0  0  0  0  0  0  0  0  0  0
   22.9524  -21.2665  -13.6276 C   0  0  0  0  0  0  0  0  0  0  0  0
   21.7251  -21.8137  -14.2684 C   0  0  2  0  0  0  0  0  0  0  0  0
   21.3714  -21.2148  -15.5164 N   0  0  0  0  0  0  0  0  0  0  0  0
   20.5973  -21.6493  -13.2835 C   0  0  0  0  0  0  0  0  0  0  0  0
   19.9784  -20.5565  -13.2206 O   0  0  0  0  0  0  0  0  0  0  0  0
   24.8452  -22.6770  -14.4907 C   0  0  0  0  0  0  0  0  0  0  0  0
   26.0016  -22.7654  -15.2373 C   0  0  0  0  0  0  0  0  0  0  0  0
   20.2085  -22.6937  -12.4193 N   0  0  0  0  0  0  0  0  0  0  0  0
   19.0372  -22.6695  -11.5719 C   0  0  1  0  0  0  0  0  0  0  0  0
   17.8122  -22.7083  -12.4544 C   0  0  0  0  0  0  0  0  0  0  0  0
   16.5494  -22.7024  -11.7036 C   0  0  0  0  0  0  0  0  0  0  0  0
   15.5027  -23.2486  -12.1765 O   0  0  0  0  0  0  0  0  0  0  0  0
   19.0009  -23.8983  -10.7470 C   0  0  0  0  0  0  0  0  0  0  0  0
   18.6520  -24.9722  -11.2781 O   0  0  0  0  0  0  0  0  0  0  0  0
   16.4768  -22.1020  -10.4680 O   0  0  0  0  0  0  0  0  0  0  0  0
   15.8722  -25.7291   -4.0059 C   0  0  0  0  0  0  0  0  0  0  0  0
   16.6868  -24.5680   -5.0762 S   0  0  0  0  0  0  0  0  0  0  0  0
   17.4856  -25.3214   -6.4859 C   0  0  0  0  0  0  0  0  0  0  0  0
   18.1624  -24.3829   -7.4136 C   0  0  0  0  0  0  0  0  0  0  0  0
   18.9745  -24.9641   -8.5122 C   0  0  2  0  0  0  0  0  0  0  0  0
   19.3555  -23.8421   -9.3914 N   0  0  0  0  0  0  0  0  0  0  0  0
   18.1922  -25.9204   -9.3472 C   0  0  0  0  0  0  0  0  0  0  0  0
   18.5297  -27.2130   -9.6230 O   0  0  0  0  0  0  0  0  0  0  0  0
   17.1031  -25.4840   -9.8479 O   0  0  0  0  0  0  0  0  0  0  0  0
  2  3  2  0
  2  1  1  0
  4  3  1  0
  5  4  2  0
  6  5  1  0
  7  6  1  0
  7  8  1  6
  9  7  1  0
  9 10  2  0
 11  5  1  0
 11 12  2  0
 12  2  1  0
 13  9  1  0
 14 13  1  0
 14 15  1  6
 16 15  1  0
 17 16  2  0
 18 14  1  0
 19 18  2  0
 20 16  1  0
 22 21  1  0
 23 22  1  0
 25 24  1  1
 24 23  1  0
 25 26  1  0
 26 18  1  0
 27 28  1  0
 27 25  1  0
 29 27  2  0
M  END
$$$$
