YDM.pdb
     RDKit          3D

 29 29  0  0  1  0  0  0  0  0999 V2000
   22.8280  -23.7270  -21.3498 O   0  0  0  0  0  0  0  0  0  0  0  0
   23.6439  -24.8020  -20.9683 C   0  0  0  0  0  0  0  0  0  0  0  0
   23.3734  -26.0820  -21.4171 C   0  0  0  0  0  0  0  0  0  0  0  0
   24.1976  -27.1225  -21.0228 C   0  0  0  0  0  0  0  0  0  0  0  0
   25.2870  -26.9431  -20.1953 C   0  0  0  0  0  0  0  0  0  0  0  0
   26.0851  -28.1179  -19.8464 C   0  0  0  0  0  0  0  0  0  0  0  0
   27.3009  -28.3141  -20.6829 C   0  0  2  0  0  0  0  0  0  0  0  0
   27.0518  -28.6305  -22.0537 N   0  0  0  0  0  0  0  0  0  0  0  0
   28.1096  -29.4118  -20.0426 C   0  0  0  0  0  0  0  0  0  0  0  0
   28.0474  -30.5811  -20.5012 O   0  0  0  0  0  0  0  0  0  0  0  0
   25.5490  -25.6641  -19.7529 C   0  0  0  0  0  0  0  0  0  0  0  0
   24.7328  -24.6221  -20.1411 C   0  0  0  0  0  0  0  0  0  0  0  0
   28.9442  -29.1679  -18.9324 N   0  0  0  0  0  0  0  0  0  0  0  0
   29.8022  -30.1535  -18.3138 C   0  0  1  0  0  0  0  0  0  0  0  0
   30.9983  -29.4410  -17.7284 C   0  0  0  0  0  0  0  0  0  0  0  0
   32.0219  -29.0996  -18.7253 C   0  0  0  0  0  0  0  0  0  0  0  0
   31.8827  -29.4261  -19.9467 O   0  0  0  0  0  0  0  0  0  0  0  0
   29.0902  -30.7832  -17.1787 C   0  0  0  0  0  0  0  0  0  0  0  0
   28.5037  -30.0532  -16.3539 O   0  0  0  0  0  0  0  0  0  0  0  0
   33.1563  -28.4165  -18.3526 O   0  0  0  0  0  0  0  0  0  0  0  0
   24.6774  -34.5710  -18.2425 C   0  0  0  0  0  0  0  0  0  0  0  0
   24.9028  -35.0960  -16.5599 S   0  0  0  0  0  0  0  0  0  0  0  0
   26.2672  -34.2952  -15.7292 C   0  0  0  0  0  0  0  0  0  0  0  0
   27.1391  -33.4611  -16.5914 C   0  0  0  0  0  0  0  0  0  0  0  0
   28.2946  -32.7820  -15.9528 C   0  0  2  0  0  0  0  0  0  0  0  0
   29.0830  -32.1791  -17.0446 N   0  0  0  0  0  0  0  0  0  0  0  0
   29.1943  -33.7407  -15.2492 C   0  0  0  0  0  0  0  0  0  0  0  0
   28.9953  -34.2708  -14.0081 O   0  0  0  0  0  0  0  0  0  0  0  0
   30.2487  -34.0979  -15.8720 O   0  0  0  0  0  0  0  0  0  0  0  0
  2  3  2  0
  2  1  1  0
  4  3  1  0
  5  4  2  0
  6  5  1  0
  7  6  1  0
  7  8  1  6
  9  7  1  0
  9 10  2  0
 11  5  1  0
 11 12  2  0
 12  2  1  0
 13  9  1  0
 14 13  1  0
 14 15  1  1
 16 15  1  0
 17 16  2  0
 18 14  1  0
 19 18  2  0
 20 16  1  0
 22 21  1  0
 23 22  1  0
 25 24  1  6
 24 23  1  0
 25 26  1  0
 26 18  1  0
 27 28  1  0
 27 25  1  0
 29 27  2  0
M  END
$$$$
