YDM.pdb
     RDKit          3D

 29 29  0  0  1  0  0  0  0  0999 V2000
   31.3679  -21.5359   -9.6302 O   0  0  0  0  0  0  0  0  0  0  0  0
   30.2615  -21.1840  -10.4171 C   0  0  0  0  0  0  0  0  0  0  0  0
   29.0775  -21.8923  -10.3197 C   0  0  0  0  0  0  0  0  0  0  0  0
   28.0030  -21.5204  -11.1100 C   0  0  0  0  0  0  0  0  0  0  0  0
   28.0561  -20.4667  -11.9992 C   0  0  0  0  0  0  0  0  0  0  0  0
   26.8571  -20.1671  -12.7812 C   0  0  0  0  0  0  0  0  0  0  0  0
   26.8720  -20.7010  -14.1708 C   0  0  2  0  0  0  0  0  0  0  0  0
   27.9074  -20.1857  -15.0097 N   0  0  0  0  0  0  0  0  0  0  0  0
   25.5256  -20.4026  -14.7770 C   0  0  0  0  0  0  0  0  0  0  0  0
   25.2994  -19.2661  -15.2652 O   0  0  0  0  0  0  0  0  0  0  0  0
   29.2401  -19.7666  -12.0895 C   0  0  0  0  0  0  0  0  0  0  0  0
   30.3151  -20.1306  -11.3059 C   0  0  0  0  0  0  0  0  0  0  0  0
   24.4984  -21.3681  -14.8150 N   0  0  0  0  0  0  0  0  0  0  0  0
   23.1502  -21.1195  -15.2744 C   0  0  1  0  0  0  0  0  0  0  0  0
   22.9600  -21.8293  -16.5938 C   0  0  0  0  0  0  0  0  0  0  0  0
   21.6234  -21.6393  -17.1734 C   0  0  0  0  0  0  0  0  0  0  0  0
   20.9820  -20.5546  -17.0010 O   0  0  0  0  0  0  0  0  0  0  0  0
   22.1877  -21.7265  -14.3273 C   0  0  0  0  0  0  0  0  0  0  0  0
   22.2455  -22.9541  -14.1110 O   0  0  0  0  0  0  0  0  0  0  0  0
   21.0388  -22.6378  -17.9173 O   0  0  0  0  0  0  0  0  0  0  0  0
   20.2501  -18.0706   -9.5230 C   0  0  0  0  0  0  0  0  0  0  0  0
   19.4846  -19.6062   -9.0610 S   0  0  0  0  0  0  0  0  0  0  0  0
   19.4913  -20.8362  -10.3571 C   0  0  0  0  0  0  0  0  0  0  0  0
   20.3830  -20.5482  -11.5065 C   0  0  0  0  0  0  0  0  0  0  0  0
   20.3977  -21.5198  -12.6290 C   0  0  2  0  0  0  0  0  0  0  0  0
   21.2313  -20.9229  -13.6901 N   0  0  0  0  0  0  0  0  0  0  0  0
   19.0412  -21.7289  -13.2121 C   0  0  0  0  0  0  0  0  0  0  0  0
   18.1285  -22.6623  -12.8163 O   0  0  0  0  0  0  0  0  0  0  0  0
   18.7059  -20.9576  -14.1713 O   0  0  0  0  0  0  0  0  0  0  0  0
  2  3  2  0
  2  1  1  0
  4  3  1  0
  5  4  2  0
  6  5  1  0
  7  6  1  0
  7  8  1  6
  9  7  1  0
  9 10  2  0
 11  5  1  0
 11 12  2  0
 12  2  1  0
 13  9  1  0
 14 13  1  0
 14 15  1  6
 16 15  1  0
 17 16  2  0
 18 14  1  0
 19 18  2  0
 20 16  1  0
 22 21  1  0
 23 22  1  0
 25 24  1  1
 24 23  1  0
 25 26  1  0
 26 18  1  0
 27 28  1  0
 27 25  1  0
 29 27  2  0
M  END
$$$$
