YDM.pdb
     RDKit          3D

 29 29  0  0  1  0  0  0  0  0999 V2000
   12.8247  -14.2156  -18.6164 O   0  0  0  0  0  0  0  0  0  0  0  0
   13.6665  -13.2021  -18.1354 C   0  0  0  0  0  0  0  0  0  0  0  0
   13.2470  -12.3664  -17.1162 C   0  0  0  0  0  0  0  0  0  0  0  0
   14.1012  -11.3752  -16.6631 C   0  0  0  0  0  0  0  0  0  0  0  0
   15.3636  -11.1783  -17.1840 C   0  0  0  0  0  0  0  0  0  0  0  0
   16.1764  -10.0987  -16.6248 C   0  0  0  0  0  0  0  0  0  0  0  0
   17.3144  -10.5518  -15.7785 C   0  0  2  0  0  0  0  0  0  0  0  0
   16.9515  -11.3299  -14.6366 N   0  0  0  0  0  0  0  0  0  0  0  0
   18.0630   -9.3197  -15.3421 C   0  0  0  0  0  0  0  0  0  0  0  0
   17.6692   -8.6737  -14.3376 O   0  0  0  0  0  0  0  0  0  0  0  0
   15.7732  -12.0158  -18.1993 C   0  0  0  0  0  0  0  0  0  0  0  0
   14.9284  -13.0057  -18.6564 C   0  0  0  0  0  0  0  0  0  0  0  0
   19.2047   -8.8617  -16.0316 N   0  0  0  0  0  0  0  0  0  0  0  0
   20.0229   -7.7431  -15.6197 C   0  0  1  0  0  0  0  0  0  0  0  0
   21.4736   -8.1397  -15.7584 C   0  0  0  0  0  0  0  0  0  0  0  0
   22.0450   -8.7086  -14.5303 C   0  0  0  0  0  0  0  0  0  0  0  0
   21.7771   -8.2112  -13.3908 O   0  0  0  0  0  0  0  0  0  0  0  0
   19.8065   -6.6078  -16.5449 C   0  0  0  0  0  0  0  0  0  0  0  0
   19.7946   -6.8240  -17.7738 O   0  0  0  0  0  0  0  0  0  0  0  0
   22.8852   -9.7961  -14.5921 O   0  0  0  0  0  0  0  0  0  0  0  0
   15.1658   -2.8945  -20.3841 C   0  0  0  0  0  0  0  0  0  0  0  0
   15.9257   -4.1481  -19.3799 S   0  0  0  0  0  0  0  0  0  0  0  0
   17.4205   -3.6111  -18.5614 C   0  0  0  0  0  0  0  0  0  0  0  0
   18.0745   -4.6234  -17.6971 C   0  0  0  0  0  0  0  0  0  0  0  0
   19.3073   -4.2209  -16.9743 C   0  0  2  0  0  0  0  0  0  0  0  0
   19.6192   -5.3150  -16.0348 N   0  0  0  0  0  0  0  0  0  0  0  0
   19.1047   -2.9921  -16.1540 C   0  0  0  0  0  0  0  0  0  0  0  0
   19.0946   -1.7081  -16.6141 O   0  0  0  0  0  0  0  0  0  0  0  0
   18.9219   -3.1633  -14.9031 O   0  0  0  0  0  0  0  0  0  0  0  0
  2  3  2  0
  2  1  1  0
  4  3  1  0
  5  4  2  0
  6  5  1  0
  7  6  1  0
  7  8  1  1
  9  7  1  0
  9 10  2  0
 11  5  1  0
 11 12  2  0
 12  2  1  0
 13  9  1  0
 14 13  1  0
 14 15  1  6
 16 15  1  0
 17 16  2  0
 18 14  1  0
 19 18  2  0
 20 16  1  0
 22 21  1  0
 23 22  1  0
 25 24  1  1
 24 23  1  0
 25 26  1  0
 26 18  1  0
 27 28  1  0
 27 25  1  0
 29 27  2  0
M  END
$$$$
