YDM.pdb
     RDKit          3D

 29 29  0  0  1  0  0  0  0  0999 V2000
   18.3559  -17.6964  -16.1768 O   0  0  0  0  0  0  0  0  0  0  0  0
   18.5503  -16.3098  -16.2587 C   0  0  0  0  0  0  0  0  0  0  0  0
   19.1831  -15.7536  -17.3555 C   0  0  0  0  0  0  0  0  0  0  0  0
   19.3601  -14.3812  -17.4070 C   0  0  0  0  0  0  0  0  0  0  0  0
   18.9316  -13.5325  -16.4071 C   0  0  0  0  0  0  0  0  0  0  0  0
   19.1743  -12.0997  -16.5718 C   0  0  0  0  0  0  0  0  0  0  0  0
   17.9926  -11.3177  -17.0285 C   0  0  2  0  0  0  0  0  0  0  0  0
   17.4684  -11.6954  -18.3028 N   0  0  0  0  0  0  0  0  0  0  0  0
   18.4001   -9.8677  -17.0516 C   0  0  0  0  0  0  0  0  0  0  0  0
   19.0875   -9.4281  -18.0085 O   0  0  0  0  0  0  0  0  0  0  0  0
   18.3020  -14.0956  -15.3178 C   0  0  0  0  0  0  0  0  0  0  0  0
   18.1218  -15.4619  -15.2588 C   0  0  0  0  0  0  0  0  0  0  0  0
   18.0313   -8.9766  -16.0227 N   0  0  0  0  0  0  0  0  0  0  0  0
   18.3728   -7.5721  -15.9868 C   0  0  1  0  0  0  0  0  0  0  0  0
   17.4062   -6.8722  -15.0613 C   0  0  0  0  0  0  0  0  0  0  0  0
   16.0562   -6.7307  -15.6231 C   0  0  0  0  0  0  0  0  0  0  0  0
   15.0673   -7.3514  -15.1184 O   0  0  0  0  0  0  0  0  0  0  0  0
   19.7187   -7.4078  -15.3924 C   0  0  0  0  0  0  0  0  0  0  0  0
   20.0154   -8.0694  -14.3769 O   0  0  0  0  0  0  0  0  0  0  0  0
   15.8367   -5.9192  -16.7119 O   0  0  0  0  0  0  0  0  0  0  0  0
   27.0661   -5.2559  -17.2830 C   0  0  0  0  0  0  0  0  0  0  0  0
   25.3471   -5.4785  -17.6741 S   0  0  0  0  0  0  0  0  0  0  0  0
   24.3379   -5.9258  -16.2690 C   0  0  0  0  0  0  0  0  0  0  0  0
   22.9081   -6.1840  -16.5659 C   0  0  0  0  0  0  0  0  0  0  0  0
   22.0028   -6.4522  -15.4200 C   0  0  2  0  0  0  0  0  0  0  0  0
   20.6359   -6.5190  -15.9716 N   0  0  0  0  0  0  0  0  0  0  0  0
   22.0120   -5.3440  -14.4223 C   0  0  0  0  0  0  0  0  0  0  0  0
   22.7717   -5.2838  -13.2909 O   0  0  0  0  0  0  0  0  0  0  0  0
   21.2347   -4.3594  -14.6541 O   0  0  0  0  0  0  0  0  0  0  0  0
  2  3  2  0
  2  1  1  0
  4  3  1  0
  5  4  2  0
  6  5  1  0
  7  6  1  0
  7  8  1  6
  9  7  1  0
  9 10  2  0
 11  5  1  0
 11 12  2  0
 12  2  1  0
 13  9  1  0
 14 13  1  0
 14 15  1  1
 16 15  1  0
 17 16  2  0
 18 14  1  0
 19 18  2  0
 20 16  1  0
 22 21  1  0
 23 22  1  0
 25 24  1  6
 24 23  1  0
 25 26  1  0
 26 18  1  0
 27 28  1  0
 27 25  1  0
 29 27  2  0
M  END
$$$$
