YDM.pdb
     RDKit          3D

 29 29  0  0  1  0  0  0  0  0999 V2000
   29.3027  -19.8241   -3.1895 O   0  0  0  0  0  0  0  0  0  0  0  0
   28.6946  -19.8585   -4.4529 C   0  0  0  0  0  0  0  0  0  0  0  0
   28.9273  -18.8508   -5.3712 C   0  0  0  0  0  0  0  0  0  0  0  0
   28.3122  -18.9132   -6.6102 C   0  0  0  0  0  0  0  0  0  0  0  0
   27.4697  -19.9423   -6.9775 C   0  0  0  0  0  0  0  0  0  0  0  0
   26.8773  -19.9009   -8.3140 C   0  0  0  0  0  0  0  0  0  0  0  0
   27.2739  -21.0259   -9.2048 C   0  0  2  0  0  0  0  0  0  0  0  0
   28.6805  -21.1788   -9.4024 N   0  0  0  0  0  0  0  0  0  0  0  0
   26.5913  -20.8068  -10.5296 C   0  0  0  0  0  0  0  0  0  0  0  0
   27.0747  -19.9879  -11.3524 O   0  0  0  0  0  0  0  0  0  0  0  0
   27.2437  -20.9422   -6.0560 C   0  0  0  0  0  0  0  0  0  0  0  0
   27.8525  -20.8875   -4.8195 C   0  0  0  0  0  0  0  0  0  0  0  0
   25.4138  -21.4985  -10.8812 N   0  0  0  0  0  0  0  0  0  0  0  0
   24.6617  -21.2809  -12.0967 C   0  0  1  0  0  0  0  0  0  0  0  0
   24.4233  -22.6199  -12.7533 C   0  0  0  0  0  0  0  0  0  0  0  0
   23.8151  -22.5180  -14.0867 C   0  0  0  0  0  0  0  0  0  0  0  0
   22.7921  -23.2078  -14.3954 O   0  0  0  0  0  0  0  0  0  0  0  0
   23.3279  -20.7342  -11.7592 C   0  0  0  0  0  0  0  0  0  0  0  0
   23.2125  -19.9983  -10.7581 O   0  0  0  0  0  0  0  0  0  0  0  0
   24.3450  -21.6692  -15.0307 O   0  0  0  0  0  0  0  0  0  0  0  0
   19.4646  -15.0832  -13.8084 C   0  0  0  0  0  0  0  0  0  0  0  0
   20.7945  -16.2547  -13.6805 S   0  0  0  0  0  0  0  0  0  0  0  0
   20.2911  -17.8561  -13.0684 C   0  0  0  0  0  0  0  0  0  0  0  0
   21.3680  -18.8713  -12.9740 C   0  0  0  0  0  0  0  0  0  0  0  0
   21.0079  -20.2128  -12.4495 C   0  0  2  0  0  0  0  0  0  0  0  0
   22.2202  -21.0464  -12.5606 N   0  0  0  0  0  0  0  0  0  0  0  0
   19.9524  -20.8745  -13.2693 C   0  0  0  0  0  0  0  0  0  0  0  0
   20.1239  -21.4446  -14.4965 O   0  0  0  0  0  0  0  0  0  0  0  0
   18.7790  -20.9099  -12.7702 O   0  0  0  0  0  0  0  0  0  0  0  0
  2  3  2  0
  2  1  1  0
  4  3  1  0
  5  4  2  0
  6  5  1  0
  7  6  1  0
  7  8  1  6
  9  7  1  0
  9 10  2  0
 11  5  1  0
 11 12  2  0
 12  2  1  0
 13  9  1  0
 14 13  1  0
 14 15  1  1
 16 15  1  0
 17 16  2  0
 18 14  1  0
 19 18  2  0
 20 16  1  0
 22 21  1  0
 23 22  1  0
 25 24  1  6
 24 23  1  0
 25 26  1  0
 26 18  1  0
 27 28  1  0
 27 25  1  0
 29 27  2  0
M  END
$$$$
