YDM.pdb
     RDKit          3D

 29 29  0  0  1  0  0  0  0  0999 V2000
   31.7292  -11.0226  -18.1252 O   0  0  0  0  0  0  0  0  0  0  0  0
   30.3571  -10.7745  -17.9737 C   0  0  0  0  0  0  0  0  0  0  0  0
   29.9137   -9.7838  -17.1164 C   0  0  0  0  0  0  0  0  0  0  0  0
   28.5527   -9.5630  -16.9886 C   0  0  0  0  0  0  0  0  0  0  0  0
   27.6073  -10.2905  -17.6818 C   0  0  0  0  0  0  0  0  0  0  0  0
   26.1975   -9.9670  -17.4653 C   0  0  0  0  0  0  0  0  0  0  0  0
   25.5368  -10.7566  -16.3899 C   0  0  2  0  0  0  0  0  0  0  0  0
   25.5968  -12.1748  -16.5518 N   0  0  0  0  0  0  0  0  0  0  0  0
   24.1001  -10.3085  -16.3270 C   0  0  0  0  0  0  0  0  0  0  0  0
   23.2236  -10.9308  -16.9796 O   0  0  0  0  0  0  0  0  0  0  0  0
   28.0583  -11.2758  -18.5339 C   0  0  0  0  0  0  0  0  0  0  0  0
   29.4124  -11.5021  -18.6669 C   0  0  0  0  0  0  0  0  0  0  0  0
   23.7013   -9.2006  -15.5510 N   0  0  0  0  0  0  0  0  0  0  0  0
   22.3357   -8.7520  -15.3952 C   0  0  1  0  0  0  0  0  0  0  0  0
   21.8264   -9.2373  -14.0588 C   0  0  0  0  0  0  0  0  0  0  0  0
   20.3944   -8.9833  -13.8508 C   0  0  0  0  0  0  0  0  0  0  0  0
   19.6399   -8.6508  -14.8192 O   0  0  0  0  0  0  0  0  0  0  0  0
   22.3062   -7.2727  -15.3449 C   0  0  0  0  0  0  0  0  0  0  0  0
   23.0812   -6.6791  -14.5677 O   0  0  0  0  0  0  0  0  0  0  0  0
   19.8413   -9.1015  -12.5968 O   0  0  0  0  0  0  0  0  0  0  0  0
   25.0999   -3.0352  -19.4099 C   0  0  0  0  0  0  0  0  0  0  0  0
   23.5319   -2.9901  -18.5750 S   0  0  0  0  0  0  0  0  0  0  0  0
   22.9118   -4.6011  -18.1137 C   0  0  0  0  0  0  0  0  0  0  0  0
   21.5563   -4.6155  -17.5121 C   0  0  0  0  0  0  0  0  0  0  0  0
   21.4283   -5.0876  -16.1104 C   0  0  2  0  0  0  0  0  0  0  0  0
   21.4164   -6.5621  -16.1634 N   0  0  0  0  0  0  0  0  0  0  0  0
   20.1395   -4.6676  -15.4889 C   0  0  0  0  0  0  0  0  0  0  0  0
   19.9602   -3.6199  -14.6340 O   0  0  0  0  0  0  0  0  0  0  0  0
   19.1084   -5.3559  -15.7899 O   0  0  0  0  0  0  0  0  0  0  0  0
  2  3  2  0
  2  1  1  0
  4  3  1  0
  5  4  2  0
  6  5  1  0
  7  6  1  0
  7  8  1  6
  9  7  1  0
  9 10  2  0
 11  5  1  0
 11 12  2  0
 12  2  1  0
 13  9  1  0
 14 13  1  0
 14 15  1  1
 16 15  1  0
 17 16  2  0
 18 14  1  0
 19 18  2  0
 20 16  1  0
 22 21  1  0
 23 22  1  0
 25 24  1  6
 24 23  1  0
 25 26  1  0
 26 18  1  0
 27 28  1  0
 27 25  1  0
 29 27  2  0
M  END
$$$$
