YDM.pdb
     RDKit          3D

 29 29  0  0  1  0  0  0  0  0999 V2000
   28.5489  -19.8251   -4.0384 O   0  0  0  0  0  0  0  0  0  0  0  0
   28.1186  -19.8598   -5.3729 C   0  0  0  0  0  0  0  0  0  0  0  0
   26.9338  -20.4876   -5.7120 C   0  0  0  0  0  0  0  0  0  0  0  0
   26.5361  -20.5049   -7.0383 C   0  0  0  0  0  0  0  0  0  0  0  0
   27.2715  -19.9202   -8.0487 C   0  0  0  0  0  0  0  0  0  0  0  0
   26.7507  -20.0023   -9.4129 C   0  0  0  0  0  0  0  0  0  0  0  0
   27.1818  -21.2088  -10.1712 C   0  0  2  0  0  0  0  0  0  0  0  0
   28.5876  -21.3106  -10.4048 N   0  0  0  0  0  0  0  0  0  0  0  0
   26.4438  -21.1968  -11.4843 C   0  0  0  0  0  0  0  0  0  0  0  0
   26.6336  -20.2569  -12.2978 O   0  0  0  0  0  0  0  0  0  0  0  0
   28.4509  -19.2968   -7.7015 C   0  0  0  0  0  0  0  0  0  0  0  0
   28.8542  -19.2752   -6.3826 C   0  0  0  0  0  0  0  0  0  0  0  0
   25.5362  -22.2175  -11.8349 N   0  0  0  0  0  0  0  0  0  0  0  0
   24.7418  -22.2350  -13.0429 C   0  0  1  0  0  0  0  0  0  0  0  0
   24.5573  -23.6722  -13.4687 C   0  0  0  0  0  0  0  0  0  0  0  0
   23.8941  -23.8162  -14.7717 C   0  0  0  0  0  0  0  0  0  0  0  0
   22.7022  -24.2516  -14.8564 O   0  0  0  0  0  0  0  0  0  0  0  0
   23.3904  -21.7055  -12.7512 C   0  0  0  0  0  0  0  0  0  0  0  0
   23.1339  -21.3074  -11.5967 O   0  0  0  0  0  0  0  0  0  0  0  0
   24.5554  -23.4803  -15.9303 O   0  0  0  0  0  0  0  0  0  0  0  0
   19.4783  -16.1380  -13.0668 C   0  0  0  0  0  0  0  0  0  0  0  0
   20.3342  -17.6831  -12.8725 S   0  0  0  0  0  0  0  0  0  0  0  0
   21.5004  -18.0330  -14.1803 C   0  0  0  0  0  0  0  0  0  0  0  0
   22.2443  -19.3092  -14.0481 C   0  0  0  0  0  0  0  0  0  0  0  0
   21.4603  -20.5399  -13.7745 C   0  0  2  0  0  0  0  0  0  0  0  0
   22.4233  -21.6578  -13.7656 N   0  0  0  0  0  0  0  0  0  0  0  0
   20.4716  -20.8305  -14.8524 C   0  0  0  0  0  0  0  0  0  0  0  0
   20.7359  -21.4304  -16.0486 O   0  0  0  0  0  0  0  0  0  0  0  0
   19.2642  -20.4847  -14.6292 O   0  0  0  0  0  0  0  0  0  0  0  0
  2  3  2  0
  2  1  1  0
  4  3  1  0
  5  4  2  0
  6  5  1  0
  7  6  1  0
  7  8  1  6
  9  7  1  0
  9 10  2  0
 11  5  1  0
 11 12  2  0
 12  2  1  0
 13  9  1  0
 14 13  1  0
 14 15  1  1
 16 15  1  0
 17 16  2  0
 18 14  1  0
 19 18  2  0
 20 16  1  0
 22 21  1  0
 23 22  1  0
 25 24  1  6
 24 23  1  0
 25 26  1  0
 26 18  1  0
 27 28  1  0
 27 25  1  0
 29 27  2  0
M  END
$$$$
