YDM.pdb
     RDKit          3D

 29 29  0  0  1  0  0  0  0  0999 V2000
   28.1569  -19.2842   -4.6645 O   0  0  0  0  0  0  0  0  0  0  0  0
   27.5584  -19.4860   -5.9168 C   0  0  0  0  0  0  0  0  0  0  0  0
   27.6690  -18.5295   -6.9097 C   0  0  0  0  0  0  0  0  0  0  0  0
   27.0668  -18.7581   -8.1354 C   0  0  0  0  0  0  0  0  0  0  0  0
   26.3544  -19.9054   -8.4179 C   0  0  0  0  0  0  0  0  0  0  0  0
   25.7623  -20.0358   -9.7488 C   0  0  0  0  0  0  0  0  0  0  0  0
   26.3217  -21.1429  -10.5722 C   0  0  2  0  0  0  0  0  0  0  0  0
   27.7352  -21.0965  -10.7745 N   0  0  0  0  0  0  0  0  0  0  0  0
   25.6127  -21.1118  -11.9008 C   0  0  0  0  0  0  0  0  0  0  0  0
   26.0102  -20.3298  -12.8018 O   0  0  0  0  0  0  0  0  0  0  0  0
   26.2494  -20.8531   -7.4224 C   0  0  0  0  0  0  0  0  0  0  0  0
   26.8463  -20.6331   -6.1986 C   0  0  0  0  0  0  0  0  0  0  0  0
   24.5043  -21.9410  -12.1703 N   0  0  0  0  0  0  0  0  0  0  0  0
   23.8209  -22.0162  -13.4422 C   0  0  1  0  0  0  0  0  0  0  0  0
   23.5768  -23.4713  -13.7645 C   0  0  0  0  0  0  0  0  0  0  0  0
   24.6458  -24.0803  -14.5675 C   0  0  0  0  0  0  0  0  0  0  0  0
   24.6538  -25.3289  -14.8097 O   0  0  0  0  0  0  0  0  0  0  0  0
   22.4884  -21.3821  -13.3233 C   0  0  0  0  0  0  0  0  0  0  0  0
   21.8517  -21.5095  -12.2577 O   0  0  0  0  0  0  0  0  0  0  0  0
   25.6632  -23.3056  -15.0745 O   0  0  0  0  0  0  0  0  0  0  0  0
   17.3964  -16.6178  -17.1563 C   0  0  0  0  0  0  0  0  0  0  0  0
   18.9176  -17.5341  -17.0933 S   0  0  0  0  0  0  0  0  0  0  0  0
   19.1270  -18.4857  -15.5955 C   0  0  0  0  0  0  0  0  0  0  0  0
   20.4155  -19.2098  -15.4736 C   0  0  0  0  0  0  0  0  0  0  0  0
   20.6535  -19.9910  -14.2338 C   0  0  2  0  0  0  0  0  0  0  0  0
   21.9620  -20.6525  -14.3990 N   0  0  0  0  0  0  0  0  0  0  0  0
   19.6439  -21.0723  -14.0456 C   0  0  0  0  0  0  0  0  0  0  0  0
   19.6617  -22.3032  -14.6334 O   0  0  0  0  0  0  0  0  0  0  0  0
   18.6737  -20.8180  -13.2574 O   0  0  0  0  0  0  0  0  0  0  0  0
  2  3  2  0
  2  1  1  0
  4  3  1  0
  5  4  2  0
  6  5  1  0
  7  6  1  0
  7  8  1  6
  9  7  1  0
  9 10  2  0
 11  5  1  0
 11 12  2  0
 12  2  1  0
 13  9  1  0
 14 13  1  0
 14 15  1  1
 16 15  1  0
 17 16  2  0
 18 14  1  0
 19 18  2  0
 20 16  1  0
 22 21  1  0
 23 22  1  0
 25 24  1  6
 24 23  1  0
 25 26  1  0
 26 18  1  0
 27 28  1  0
 27 25  1  0
 29 27  2  0
M  END
$$$$
