YDM.pdb
     RDKit          3D

 29 29  0  0  1  0  0  0  0  0999 V2000
   16.5022  -22.8309   -7.7499 O   0  0  0  0  0  0  0  0  0  0  0  0
   17.3764  -22.2509   -8.6808 C   0  0  0  0  0  0  0  0  0  0  0  0
   17.0203  -21.0957   -9.3528 C   0  0  0  0  0  0  0  0  0  0  0  0
   17.9052  -20.5474  -10.2658 C   0  0  0  0  0  0  0  0  0  0  0  0
   19.1378  -21.1029  -10.5410 C   0  0  0  0  0  0  0  0  0  0  0  0
   19.9879  -20.4342  -11.5254 C   0  0  0  0  0  0  0  0  0  0  0  0
   19.6470  -20.7301  -12.9441 C   0  0  2  0  0  0  0  0  0  0  0  0
   18.7173  -21.7977  -13.1367 N   0  0  0  0  0  0  0  0  0  0  0  0
   20.9374  -21.0397  -13.6570 C   0  0  0  0  0  0  0  0  0  0  0  0
   21.4589  -22.1776  -13.5368 O   0  0  0  0  0  0  0  0  0  0  0  0
   19.4843  -22.2541   -9.8666 C   0  0  0  0  0  0  0  0  0  0  0  0
   18.6085  -22.8067   -8.9555 C   0  0  0  0  0  0  0  0  0  0  0  0
   21.5873  -20.0834  -14.4643 N   0  0  0  0  0  0  0  0  0  0  0  0
   22.8453  -20.2969  -15.1443 C   0  0  1  0  0  0  0  0  0  0  0  0
   22.9261  -19.3347  -16.3056 C   0  0  0  0  0  0  0  0  0  0  0  0
   24.1768  -19.4422  -17.0688 C   0  0  0  0  0  0  0  0  0  0  0  0
   24.4414  -20.4824  -17.7512 O   0  0  0  0  0  0  0  0  0  0  0  0
   23.9613  -19.9531  -14.2344 C   0  0  0  0  0  0  0  0  0  0  0  0
   23.7593  -19.1373  -13.3121 O   0  0  0  0  0  0  0  0  0  0  0  0
   25.0894  -18.4129  -17.0585 O   0  0  0  0  0  0  0  0  0  0  0  0
   27.2827  -20.6079   -8.0580 C   0  0  0  0  0  0  0  0  0  0  0  0
   26.1475  -20.9057   -9.3921 S   0  0  0  0  0  0  0  0  0  0  0  0
   26.7921  -20.4707  -11.0008 C   0  0  0  0  0  0  0  0  0  0  0  0
   25.8323  -20.5844  -12.1257 C   0  0  0  0  0  0  0  0  0  0  0  0
   26.3064  -20.1999  -13.4790 C   0  0  2  0  0  0  0  0  0  0  0  0
   25.2206  -20.5426  -14.4174 N   0  0  0  0  0  0  0  0  0  0  0  0
   27.5041  -20.9819  -13.9007 C   0  0  0  0  0  0  0  0  0  0  0  0
   27.5045  -22.2558  -14.3886 O   0  0  0  0  0  0  0  0  0  0  0  0
   28.6339  -20.3992  -13.7948 O   0  0  0  0  0  0  0  0  0  0  0  0
  2  3  2  0
  2  1  1  0
  4  3  1  0
  5  4  2  0
  6  5  1  0
  7  6  1  0
  7  8  1  1
  9  7  1  0
  9 10  2  0
 11  5  1  0
 11 12  2  0
 12  2  1  0
 13  9  1  0
 14 13  1  0
 14 15  1  6
 16 15  1  0
 17 16  2  0
 18 14  1  0
 19 18  2  0
 20 16  1  0
 22 21  1  0
 23 22  1  0
 25 24  1  1
 24 23  1  0
 25 26  1  0
 26 18  1  0
 27 28  1  0
 27 25  1  0
 29 27  2  0
M  END
$$$$
