YDM.pdb
     RDKit          3D

 29 29  0  0  1  0  0  0  0  0999 V2000
    9.9622   -9.8596   -8.4172 O   0  0  0  0  0  0  0  0  0  0  0  0
   11.1817   -9.5139   -9.0176 C   0  0  0  0  0  0  0  0  0  0  0  0
   12.2177   -9.0020   -8.2576 C   0  0  0  0  0  0  0  0  0  0  0  0
   13.4095   -8.6702   -8.8797 C   0  0  0  0  0  0  0  0  0  0  0  0
   13.6163   -8.8268  -10.2348 C   0  0  0  0  0  0  0  0  0  0  0  0
   14.9175   -8.4414  -10.7799 C   0  0  0  0  0  0  0  0  0  0  0  0
   15.7791   -9.5817  -11.1968 C   0  0  2  0  0  0  0  0  0  0  0  0
   16.1929  -10.4499  -10.1404 N   0  0  0  0  0  0  0  0  0  0  0  0
   16.9866   -8.9995  -11.8840 C   0  0  0  0  0  0  0  0  0  0  0  0
   17.9146   -8.5004  -11.1978 O   0  0  0  0  0  0  0  0  0  0  0  0
   12.5782   -9.3375  -10.9843 C   0  0  0  0  0  0  0  0  0  0  0  0
   11.3878   -9.6705  -10.3724 C   0  0  0  0  0  0  0  0  0  0  0  0
   17.1114   -8.9959  -13.2887 N   0  0  0  0  0  0  0  0  0  0  0  0
   18.2813   -8.5491  -14.0112 C   0  0  1  0  0  0  0  0  0  0  0  0
   18.7556   -9.6801  -14.8924 C   0  0  0  0  0  0  0  0  0  0  0  0
   19.9774   -9.3636  -15.6443 C   0  0  0  0  0  0  0  0  0  0  0  0
   20.5510   -8.2354  -15.5188 O   0  0  0  0  0  0  0  0  0  0  0  0
   17.9068   -7.4389  -14.9161 C   0  0  0  0  0  0  0  0  0  0  0  0
   16.8636   -7.5376  -15.5937 O   0  0  0  0  0  0  0  0  0  0  0  0
   20.5258  -10.2882  -16.5027 O   0  0  0  0  0  0  0  0  0  0  0  0
   14.0946   -1.5242  -15.6499 C   0  0  0  0  0  0  0  0  0  0  0  0
   14.8317   -2.9759  -14.9382 S   0  0  0  0  0  0  0  0  0  0  0  0
   16.3806   -3.4456  -15.6952 C   0  0  0  0  0  0  0  0  0  0  0  0
   16.9576   -4.7288  -15.2261 C   0  0  0  0  0  0  0  0  0  0  0  0
   18.2556   -5.1551  -15.8071 C   0  0  2  0  0  0  0  0  0  0  0  0
   18.7207   -6.3000  -15.0009 N   0  0  0  0  0  0  0  0  0  0  0  0
   19.2992   -4.0958  -15.6949 C   0  0  0  0  0  0  0  0  0  0  0  0
   19.4095   -2.9861  -16.4804 O   0  0  0  0  0  0  0  0  0  0  0  0
   20.1687   -4.2450  -14.7734 O   0  0  0  0  0  0  0  0  0  0  0  0
  2  3  2  0
  2  1  1  0
  4  3  1  0
  5  4  2  0
  6  5  1  0
  7  6  1  0
  7  8  1  1
  9  7  1  0
  9 10  2  0
 11  5  1  0
 11 12  2  0
 12  2  1  0
 13  9  1  0
 14 13  1  0
 14 15  1  6
 16 15  1  0
 17 16  2  0
 18 14  1  0
 19 18  2  0
 20 16  1  0
 22 21  1  0
 23 22  1  0
 25 24  1  1
 24 23  1  0
 25 26  1  0
 26 18  1  0
 27 28  1  0
 27 25  1  0
 29 27  2  0
M  END
$$$$
