YDM.pdb
     RDKit          3D

 29 29  0  0  1  0  0  0  0  0999 V2000
   30.2523  -20.6830   -6.5222 O   0  0  0  0  0  0  0  0  0  0  0  0
   29.2460  -20.4863   -7.4792 C   0  0  0  0  0  0  0  0  0  0  0  0
   29.5174  -20.6467   -8.8259 C   0  0  0  0  0  0  0  0  0  0  0  0
   28.5027  -20.4454   -9.7463 C   0  0  0  0  0  0  0  0  0  0  0  0
   27.2205  -20.0887   -9.3820 C   0  0  0  0  0  0  0  0  0  0  0  0
   26.2316  -19.9034  -10.4433 C   0  0  0  0  0  0  0  0  0  0  0  0
   25.3430  -21.0750  -10.6763 C   0  0  2  0  0  0  0  0  0  0  0  0
   25.9810  -22.2186  -11.2475 N   0  0  0  0  0  0  0  0  0  0  0  0
   24.2226  -20.6132  -11.5710 C   0  0  0  0  0  0  0  0  0  0  0  0
   23.6275  -19.5344  -11.3191 O   0  0  0  0  0  0  0  0  0  0  0  0
   26.9593  -19.9311   -8.0377 C   0  0  0  0  0  0  0  0  0  0  0  0
   27.9645  -20.1297   -7.1145 C   0  0  0  0  0  0  0  0  0  0  0  0
   23.8144  -21.3604  -12.6951 N   0  0  0  0  0  0  0  0  0  0  0  0
   22.7467  -20.9814  -13.5934 C   0  0  1  0  0  0  0  0  0  0  0  0
   23.2351  -21.1571  -15.0117 C   0  0  0  0  0  0  0  0  0  0  0  0
   22.3049  -20.6322  -16.0204 C   0  0  0  0  0  0  0  0  0  0  0  0
   22.5647  -20.7224  -17.2622 O   0  0  0  0  0  0  0  0  0  0  0  0
   21.6067  -21.9104  -13.4227 C   0  0  0  0  0  0  0  0  0  0  0  0
   21.7511  -23.1086  -13.7399 O   0  0  0  0  0  0  0  0  0  0  0  0
   21.1290  -20.0300  -15.6367 O   0  0  0  0  0  0  0  0  0  0  0  0
   19.9464  -23.8574   -8.1782 C   0  0  0  0  0  0  0  0  0  0  0  0
   18.4736  -24.1653   -9.1235 S   0  0  0  0  0  0  0  0  0  0  0  0
   18.6903  -23.9643  -10.8857 C   0  0  0  0  0  0  0  0  0  0  0  0
   19.0500  -22.5968  -11.3332 C   0  0  0  0  0  0  0  0  0  0  0  0
   19.2600  -22.3793  -12.7868 C   0  0  2  0  0  0  0  0  0  0  0  0
   20.3893  -21.4379  -12.9115 N   0  0  0  0  0  0  0  0  0  0  0  0
   18.0842  -21.7315  -13.4361 C   0  0  0  0  0  0  0  0  0  0  0  0
   17.0048  -22.3710  -13.9713 O   0  0  0  0  0  0  0  0  0  0  0  0
   18.0922  -20.4571  -13.4923 O   0  0  0  0  0  0  0  0  0  0  0  0
  2  3  2  0
  2  1  1  0
  4  3  1  0
  5  4  2  0
  6  5  1  0
  7  6  1  0
  7  8  1  6
  9  7  1  0
  9 10  2  0
 11  5  1  0
 11 12  2  0
 12  2  1  0
 13  9  1  0
 14 13  1  0
 14 15  1  6
 16 15  1  0
 17 16  2  0
 18 14  1  0
 19 18  2  0
 20 16  1  0
 22 21  1  0
 23 22  1  0
 25 24  1  1
 24 23  1  0
 25 26  1  0
 26 18  1  0
 27 28  1  0
 27 25  1  0
 29 27  2  0
M  END
$$$$
