YDM.pdb
     RDKit          3D

 29 29  0  0  1  0  0  0  0  0999 V2000
   30.1158  -14.6909  -18.3327 O   0  0  0  0  0  0  0  0  0  0  0  0
   29.3463  -15.4052  -17.4027 C   0  0  0  0  0  0  0  0  0  0  0  0
   28.1542  -14.8855  -16.9318 C   0  0  0  0  0  0  0  0  0  0  0  0
   27.4171  -15.6149  -16.0141 C   0  0  0  0  0  0  0  0  0  0  0  0
   27.8179  -16.8477  -15.5415 C   0  0  0  0  0  0  0  0  0  0  0  0
   26.9562  -17.5250  -14.5732 C   0  0  0  0  0  0  0  0  0  0  0  0
   26.2814  -18.7473  -15.0899 C   0  0  2  0  0  0  0  0  0  0  0  0
   25.5079  -18.5599  -16.2764 N   0  0  0  0  0  0  0  0  0  0  0  0
   25.4040  -19.2729  -13.9841 C   0  0  0  0  0  0  0  0  0  0  0  0
   24.3169  -18.6971  -13.7234 O   0  0  0  0  0  0  0  0  0  0  0  0
   29.0072  -17.3577  -16.0163 C   0  0  0  0  0  0  0  0  0  0  0  0
   29.7474  -16.6375  -16.9306 C   0  0  0  0  0  0  0  0  0  0  0  0
   25.7665  -20.4031  -13.2226 N   0  0  0  0  0  0  0  0  0  0  0  0
   24.9206  -21.0393  -12.2376 C   0  0  1  0  0  0  0  0  0  0  0  0
   24.6450  -22.4533  -12.6910 C   0  0  0  0  0  0  0  0  0  0  0  0
   24.1708  -22.5411  -14.0788 C   0  0  0  0  0  0  0  0  0  0  0  0
   23.0612  -22.0259  -14.4266 O   0  0  0  0  0  0  0  0  0  0  0  0
   25.6517  -21.1436  -10.9545 C   0  0  0  0  0  0  0  0  0  0  0  0
   26.8979  -21.2039  -10.9726 O   0  0  0  0  0  0  0  0  0  0  0  0
   24.9237  -23.1864  -15.0322 O   0  0  0  0  0  0  0  0  0  0  0  0
   29.1981  -18.3620   -5.4299 C   0  0  0  0  0  0  0  0  0  0  0  0
   28.2161  -18.4561   -6.9078 S   0  0  0  0  0  0  0  0  0  0  0  0
   27.2883  -19.9751   -7.0640 C   0  0  0  0  0  0  0  0  0  0  0  0
   26.5615  -20.1509   -8.3447 C   0  0  0  0  0  0  0  0  0  0  0  0
   25.6936  -21.3470   -8.4872 C   0  0  2  0  0  0  0  0  0  0  0  0
   24.9424  -21.1732   -9.7451 N   0  0  0  0  0  0  0  0  0  0  0  0
   24.6856  -21.4464   -7.3926 C   0  0  0  0  0  0  0  0  0  0  0  0
   24.9084  -21.9163   -6.1316 O   0  0  0  0  0  0  0  0  0  0  0  0
   23.5039  -21.0513   -7.6660 O   0  0  0  0  0  0  0  0  0  0  0  0
  2  3  2  0
  2  1  1  0
  4  3  1  0
  5  4  2  0
  6  5  1  0
  7  6  1  0
  7  8  1  6
  9  7  1  0
  9 10  2  0
 11  5  1  0
 11 12  2  0
 12  2  1  0
 13  9  1  0
 14 13  1  0
 14 15  1  6
 16 15  1  0
 17 16  2  0
 18 14  1  0
 19 18  2  0
 20 16  1  0
 22 21  1  0
 23 22  1  0
 25 24  1  1
 24 23  1  0
 25 26  1  0
 26 18  1  0
 27 28  1  0
 27 25  1  0
 29 27  2  0
M  END
$$$$
