APA.pdb
     RDKit          3D

 18 18  0  0  1  0  0  0  0  0999 V2000
    8.1363  -16.6022   16.3401 C   0  0  0  0  0  0  0  0  0  0  0  0
    8.9256  -15.3082   16.2150 C   0  0  2  0  0  0  0  0  0  0  0  0
    9.8371  -15.3465   15.0979 N   0  0  0  0  0  0  0  0  0  0  0  0
    9.5815  -15.0185   17.5057 C   0  0  0  0  0  0  0  0  0  0  0  0
   10.8044  -15.3376   17.5801 O   0  0  0  0  0  0  0  0  0  0  0  0
    8.9453  -14.4256   18.6278 N   0  0  0  0  0  0  0  0  0  0  0  0
    7.5398  -13.9859   18.5760 C   0  0  0  0  0  0  0  0  0  0  0  0
    7.5439  -12.7610   19.4753 C   0  0  0  0  0  0  0  0  0  0  0  0
    8.4248  -13.2463   20.5916 C   0  0  0  0  0  0  0  0  0  0  0  0
    9.4300  -14.1353   19.9310 C   0  0  1  0  0  0  0  0  0  0  0  0
    9.6453  -15.3899   20.7409 C   0  0  0  0  0  0  0  0  0  0  0  0
    8.8928  -16.3786   20.6426 O   0  0  0  0  0  0  0  0  0  0  0  0
   12.6465  -16.4521   22.6002 C   0  0  0  0  0  0  0  0  0  0  0  0
   11.1527  -16.5677   22.3777 C   0  0  2  0  0  0  0  0  0  0  0  0
   10.7505  -15.3906   21.6238 N   0  0  0  0  0  0  0  0  0  0  0  0
   10.4840  -16.4715   23.7133 C   0  0  0  0  0  0  0  0  0  0  0  0
   10.6151  -17.4539   24.6853 O   0  0  0  0  0  0  0  0  0  0  0  0
    9.7586  -15.4711   24.0151 O   0  0  0  0  0  0  0  0  0  0  0  0
  2  1  1  1
  3  2  1  0
  4  2  1  0
  5  4  2  0
  6  4  1  0
  6  7  1  0
  7  8  1  0
  9  8  1  0
 10 11  1  1
 10  9  1  0
 10  6  1  0
 11 12  2  0
 14 13  1  1
 14 16  1  0
 15 14  1  0
 15 11  1  0
 16 18  2  0
 16 17  1  0
M  END
$$$$
