APA.pdb
     RDKit          3D

 18 18  0  0  1  0  0  0  0  0999 V2000
    6.3137  -15.2356   22.3335 C   0  0  0  0  0  0  0  0  0  0  0  0
    7.1775  -13.9839   22.3149 C   0  0  2  0  0  0  0  0  0  0  0  0
    7.9333  -13.8769   21.0912 N   0  0  0  0  0  0  0  0  0  0  0  0
    8.0130  -13.9583   23.5321 C   0  0  0  0  0  0  0  0  0  0  0  0
    9.2012  -14.3708   23.3870 O   0  0  0  0  0  0  0  0  0  0  0  0
    7.5788  -13.5154   24.8090 N   0  0  0  0  0  0  0  0  0  0  0  0
    6.1972  -13.0577   25.0393 C   0  0  0  0  0  0  0  0  0  0  0  0
    6.3806  -11.9655   26.0798 C   0  0  0  0  0  0  0  0  0  0  0  0
    7.4088  -12.6065   26.9684 C   0  0  0  0  0  0  0  0  0  0  0  0
    8.2697  -13.4089   26.0454 C   0  0  1  0  0  0  0  0  0  0  0  0
    8.5686  -14.7636   26.6387 C   0  0  0  0  0  0  0  0  0  0  0  0
    7.7415  -15.6956   26.6105 O   0  0  0  0  0  0  0  0  0  0  0  0
   11.7576  -16.3418   27.2784 C   0  0  0  0  0  0  0  0  0  0  0  0
   10.3181  -16.2079   27.7302 C   0  0  2  0  0  0  0  0  0  0  0  0
    9.8418  -14.9266   27.2329 N   0  0  0  0  0  0  0  0  0  0  0  0
   10.3158  -16.1165   29.2242 C   0  0  0  0  0  0  0  0  0  0  0  0
   10.6480  -17.1913   30.0375 O   0  0  0  0  0  0  0  0  0  0  0  0
   10.0050  -15.0344   29.8164 O   0  0  0  0  0  0  0  0  0  0  0  0
  2  1  1  6
  3  2  1  0
  4  2  1  0
  5  4  2  0
  6  4  1  0
  6  7  1  0
  7  8  1  0
  9  8  1  0
 10 11  1  1
 10  9  1  0
 10  6  1  0
 11 12  2  0
 14 13  1  6
 14 16  1  0
 15 14  1  0
 15 11  1  0
 16 18  2  0
 16 17  1  0
M  END
$$$$
