APA.pdb
     RDKit          3D

 18 18  0  0  1  0  0  0  0  0999 V2000
    7.0593  -17.3786   17.5734 C   0  0  0  0  0  0  0  0  0  0  0  0
    8.0225  -16.3168   17.0656 C   0  0  2  0  0  0  0  0  0  0  0  0
    8.7703  -16.7795   15.9224 N   0  0  0  0  0  0  0  0  0  0  0  0
    8.8714  -15.8628   18.1852 C   0  0  0  0  0  0  0  0  0  0  0  0
   10.0088  -16.4131   18.2655 O   0  0  0  0  0  0  0  0  0  0  0  0
    8.5012  -14.8822   19.1426 N   0  0  0  0  0  0  0  0  0  0  0  0
    7.2185  -14.1622   19.0546 C   0  0  0  0  0  0  0  0  0  0  0  0
    7.5746  -12.7866   19.5932 C   0  0  0  0  0  0  0  0  0  0  0  0
    8.4587  -13.1670   20.7471 C   0  0  0  0  0  0  0  0  0  0  0  0
    9.1795  -14.3959   20.2918 C   0  0  1  0  0  0  0  0  0  0  0  0
    9.2246  -15.4259   21.3934 C   0  0  0  0  0  0  0  0  0  0  0  0
    8.2498  -16.1564   21.6568 O   0  0  0  0  0  0  0  0  0  0  0  0
   12.2027  -16.8086   23.0672 C   0  0  0  0  0  0  0  0  0  0  0  0
   10.7024  -16.6002   23.0594 C   0  0  2  0  0  0  0  0  0  0  0  0
   10.4353  -15.5236   22.1184 N   0  0  0  0  0  0  0  0  0  0  0  0
   10.3050  -16.0969   24.4118 C   0  0  0  0  0  0  0  0  0  0  0  0
   10.2964  -16.9099   25.5371 O   0  0  0  0  0  0  0  0  0  0  0  0
    9.9543  -14.8867   24.5863 O   0  0  0  0  0  0  0  0  0  0  0  0
  2  1  1  1
  3  2  1  0
  4  2  1  0
  5  4  2  0
  6  4  1  0
  6  7  1  0
  7  8  1  0
  9  8  1  0
 10 11  1  1
 10  9  1  0
 10  6  1  0
 11 12  2  0
 14 13  1  1
 14 16  1  0
 15 14  1  0
 15 11  1  0
 16 18  2  0
 16 17  1  0
M  END
$$$$
