APA.pdb
     RDKit          3D

 18 18  0  0  1  0  0  0  0  0999 V2000
    7.6729  -16.5437   22.4187 C   0  0  0  0  0  0  0  0  0  0  0  0
    7.8631  -15.0595   22.1463 C   0  0  2  0  0  0  0  0  0  0  0  0
    8.6064  -14.8323   20.9315 N   0  0  0  0  0  0  0  0  0  0  0  0
    8.4642  -14.4255   23.3367 C   0  0  0  0  0  0  0  0  0  0  0  0
    9.7187  -14.2605   23.2920 O   0  0  0  0  0  0  0  0  0  0  0  0
    7.7453  -14.0058   24.4866 N   0  0  0  0  0  0  0  0  0  0  0  0
    6.2727  -14.0349   24.5303 C   0  0  0  0  0  0  0  0  0  0  0  0
    5.9443  -12.8262   25.3907 C   0  0  0  0  0  0  0  0  0  0  0  0
    7.0030  -12.9503   26.4495 C   0  0  0  0  0  0  0  0  0  0  0  0
    8.1945  -13.5103   25.7396 C   0  0  1  0  0  0  0  0  0  0  0  0
    8.8490  -14.5892   26.5667 C   0  0  0  0  0  0  0  0  0  0  0  0
    8.7696  -15.7955   26.2635 O   0  0  0  0  0  0  0  0  0  0  0  0
   11.2386  -14.0920   29.4027 C   0  0  0  0  0  0  0  0  0  0  0  0
   10.6454  -14.9387   28.2956 C   0  0  2  0  0  0  0  0  0  0  0  0
    9.5624  -14.1630   27.7114 N   0  0  0  0  0  0  0  0  0  0  0  0
   10.0193  -16.1422   28.9279 C   0  0  0  0  0  0  0  0  0  0  0  0
    8.6438  -16.3042   29.0224 O   0  0  0  0  0  0  0  0  0  0  0  0
   10.7330  -17.0779   29.4106 O   0  0  0  0  0  0  0  0  0  0  0  0
  2  1  1  1
  3  2  1  0
  4  2  1  0
  5  4  2  0
  6  4  1  0
  6  7  1  0
  7  8  1  0
  9  8  1  0
 10 11  1  1
 10  9  1  0
 10  6  1  0
 11 12  2  0
 14 13  1  1
 14 16  1  0
 15 14  1  0
 15 11  1  0
 16 18  2  0
 16 17  1  0
M  END
$$$$
