APA.pdb
     RDKit          3D

 18 18  0  0  1  0  0  0  0  0999 V2000
    6.4838  -15.4626   22.5417 C   0  0  0  0  0  0  0  0  0  0  0  0
    7.2445  -14.1487   22.4509 C   0  0  2  0  0  0  0  0  0  0  0  0
    7.9133  -14.0075   21.1811 N   0  0  0  0  0  0  0  0  0  0  0  0
    8.1482  -14.0352   23.6131 C   0  0  0  0  0  0  0  0  0  0  0  0
    9.3530  -14.3616   23.4012 O   0  0  0  0  0  0  0  0  0  0  0  0
    7.7605  -13.5985   24.9070 N   0  0  0  0  0  0  0  0  0  0  0  0
    6.3790  -13.1766   25.1982 C   0  0  0  0  0  0  0  0  0  0  0  0
    6.5800  -12.0755   26.2259 C   0  0  0  0  0  0  0  0  0  0  0  0
    7.6641  -12.6850   27.0690 C   0  0  0  0  0  0  0  0  0  0  0  0
    8.5035  -13.4683   26.1104 C   0  0  1  0  0  0  0  0  0  0  0  0
    8.8650  -14.8120   26.6938 C   0  0  0  0  0  0  0  0  0  0  0  0
    8.0698  -15.7717   26.6879 O   0  0  0  0  0  0  0  0  0  0  0  0
   12.2075  -16.1019   27.5828 C   0  0  0  0  0  0  0  0  0  0  0  0
   10.7016  -16.1999   27.7131 C   0  0  2  0  0  0  0  0  0  0  0  0
   10.1592  -14.9314   27.2521 N   0  0  0  0  0  0  0  0  0  0  0  0
   10.3757  -16.3021   29.1704 C   0  0  0  0  0  0  0  0  0  0  0  0
   10.6254  -17.4490   29.9116 O   0  0  0  0  0  0  0  0  0  0  0  0
    9.8494  -15.3279   29.7965 O   0  0  0  0  0  0  0  0  0  0  0  0
  2  1  1  6
  3  2  1  0
  4  2  1  0
  5  4  2  0
  6  4  1  0
  6  7  1  0
  7  8  1  0
  9  8  1  0
 10 11  1  1
 10  9  1  0
 10  6  1  0
 11 12  2  0
 14 13  1  1
 14 16  1  0
 15 14  1  0
 15 11  1  0
 16 18  2  0
 16 17  1  0
M  END
$$$$
