APA.pdb
     RDKit          3D

 18 18  0  0  1  0  0  0  0  0999 V2000
    6.8980  -17.3493   17.5245 C   0  0  0  0  0  0  0  0  0  0  0  0
    8.0304  -16.4182   17.1196 C   0  0  2  0  0  0  0  0  0  0  0  0
    8.8710  -17.0107   16.1085 N   0  0  0  0  0  0  0  0  0  0  0  0
    8.7644  -15.9993   18.3303 C   0  0  0  0  0  0  0  0  0  0  0  0
    9.7923  -16.6838   18.6093 O   0  0  0  0  0  0  0  0  0  0  0  0
    8.3991  -14.9145   19.1700 N   0  0  0  0  0  0  0  0  0  0  0  0
    7.1819  -14.1218   18.9223 C   0  0  0  0  0  0  0  0  0  0  0  0
    7.5978  -12.7302   19.3691 C   0  0  0  0  0  0  0  0  0  0  0  0
    8.3669  -13.0636   20.6161 C   0  0  0  0  0  0  0  0  0  0  0  0
    9.0270  -14.3735   20.3234 C   0  0  1  0  0  0  0  0  0  0  0  0
    8.9180  -15.3015   21.5080 C   0  0  0  0  0  0  0  0  0  0  0  0
    7.8205  -15.7313   21.9133 O   0  0  0  0  0  0  0  0  0  0  0  0
   10.6630  -17.9166   22.7007 C   0  0  0  0  0  0  0  0  0  0  0  0
   10.1849  -16.5924   23.2593 C   0  0  2  0  0  0  0  0  0  0  0  0
   10.1299  -15.6632   22.1415 N   0  0  0  0  0  0  0  0  0  0  0  0
   11.2402  -16.0825   24.1901 C   0  0  0  0  0  0  0  0  0  0  0  0
   11.3893  -16.5638   25.4836 O   0  0  0  0  0  0  0  0  0  0  0  0
   12.0542  -15.1747   23.8275 O   0  0  0  0  0  0  0  0  0  0  0  0
  2  1  1  1
  3  2  1  0
  4  2  1  0
  5  4  2  0
  6  4  1  0
  6  7  1  0
  7  8  1  0
  9  8  1  0
 10 11  1  1
 10  9  1  0
 10  6  1  0
 11 12  2  0
 14 13  1  6
 14 16  1  0
 15 14  1  0
 15 11  1  0
 16 18  2  0
 16 17  1  0
M  END
$$$$
