APA.pdb
     RDKit          3D

 18 18  0  0  1  0  0  0  0  0999 V2000
    6.1407  -14.9427   22.2651 C   0  0  0  0  0  0  0  0  0  0  0  0
    7.1446  -13.8018   22.3256 C   0  0  2  0  0  0  0  0  0  0  0  0
    7.8995  -13.6917   21.1017 N   0  0  0  0  0  0  0  0  0  0  0  0
    7.9854  -13.9647   23.5284 C   0  0  0  0  0  0  0  0  0  0  0  0
    9.1139  -14.5053   23.3360 O   0  0  0  0  0  0  0  0  0  0  0  0
    7.6167  -13.5661   24.8401 N   0  0  0  0  0  0  0  0  0  0  0  0
    6.2961  -12.9785   25.1264 C   0  0  0  0  0  0  0  0  0  0  0  0
    6.6094  -11.9866   26.2341 C   0  0  0  0  0  0  0  0  0  0  0  0
    7.5716  -12.7944   27.0583 C   0  0  0  0  0  0  0  0  0  0  0  0
    8.3292  -13.6200   26.0676 C   0  0  1  0  0  0  0  0  0  0  0  0
    8.4852  -15.0365   26.5631 C   0  0  0  0  0  0  0  0  0  0  0  0
    7.5444  -15.8537   26.5386 O   0  0  0  0  0  0  0  0  0  0  0  0
   11.4726  -17.0371   26.8452 C   0  0  0  0  0  0  0  0  0  0  0  0
   10.1028  -16.7603   27.4293 C   0  0  2  0  0  0  0  0  0  0  0  0
    9.7597  -15.3957   27.0605 N   0  0  0  0  0  0  0  0  0  0  0  0
   10.2300  -16.7831   28.9205 C   0  0  0  0  0  0  0  0  0  0  0  0
   10.5063  -17.9453   29.6276 O   0  0  0  0  0  0  0  0  0  0  0  0
   10.0880  -15.7229   29.6089 O   0  0  0  0  0  0  0  0  0  0  0  0
  2  1  1  6
  3  2  1  0
  4  2  1  0
  5  4  2  0
  6  4  1  0
  6  7  1  0
  7  8  1  0
  9  8  1  0
 10 11  1  1
 10  9  1  0
 10  6  1  0
 11 12  2  0
 14 13  1  6
 14 16  1  0
 15 14  1  0
 15 11  1  0
 16 18  2  0
 16 17  1  0
M  END
$$$$
