APA.pdb
     RDKit          3D

 18 18  0  0  1  0  0  0  0  0999 V2000
    7.1947  -11.7006   26.6493 C   0  0  0  0  0  0  0  0  0  0  0  0
    6.1404  -12.5009   25.9002 C   0  0  2  0  0  0  0  0  0  0  0  0
    4.9788  -12.7481   26.7184 N   0  0  0  0  0  0  0  0  0  0  0  0
    6.7603  -13.7290   25.3639 C   0  0  0  0  0  0  0  0  0  0  0  0
    6.6275  -14.7647   26.0800 O   0  0  0  0  0  0  0  0  0  0  0  0
    7.4711  -13.8144   24.1380 N   0  0  0  0  0  0  0  0  0  0  0  0
    7.6935  -12.6301   23.2899 C   0  0  0  0  0  0  0  0  0  0  0  0
    7.6432  -13.2141   21.8879 C   0  0  0  0  0  0  0  0  0  0  0  0
    8.4167  -14.4855   22.0951 C   0  0  0  0  0  0  0  0  0  0  0  0
    8.0790  -14.9201   23.4858 C   0  0  1  0  0  0  0  0  0  0  0  0
    9.3153  -15.3887   24.2126 C   0  0  0  0  0  0  0  0  0  0  0  0
   10.1435  -14.5904   24.6925 O   0  0  0  0  0  0  0  0  0  0  0  0
   10.3014  -18.8541   25.1893 C   0  0  0  0  0  0  0  0  0  0  0  0
   10.6238  -17.3844   25.0146 C   0  0  2  0  0  0  0  0  0  0  0  0
    9.4911  -16.7878   24.3241 N   0  0  0  0  0  0  0  0  0  0  0  0
   11.7945  -17.2816   24.0878 C   0  0  0  0  0  0  0  0  0  0  0  0
   13.1073  -17.3457   24.5347 O   0  0  0  0  0  0  0  0  0  0  0  0
   11.6306  -17.1291   22.8356 O   0  0  0  0  0  0  0  0  0  0  0  0
  2  1  1  1
  3  2  1  0
  4  2  1  0
  5  4  2  0
  6  4  1  0
  6  7  1  0
  7  8  1  0
  9  8  1  0
 10 11  1  1
 10  9  1  0
 10  6  1  0
 11 12  2  0
 14 13  1  6
 14 16  1  0
 15 14  1  0
 15 11  1  0
 16 18  2  0
 16 17  1  0
M  END
$$$$
