APA.pdb
     RDKit          3D

 18 18  0  0  1  0  0  0  0  0999 V2000
    7.0624  -17.5516   17.6995 C   0  0  0  0  0  0  0  0  0  0  0  0
    8.0622  -16.5291   17.1816 C   0  0  2  0  0  0  0  0  0  0  0  0
    8.8476  -17.0565   16.0931 N   0  0  0  0  0  0  0  0  0  0  0  0
    8.8727  -16.0340   18.3122 C   0  0  0  0  0  0  0  0  0  0  0  0
    9.9930  -16.6021   18.4704 O   0  0  0  0  0  0  0  0  0  0  0  0
    8.4842  -14.9970   19.2005 N   0  0  0  0  0  0  0  0  0  0  0  0
    7.2026  -14.2866   19.0454 C   0  0  0  0  0  0  0  0  0  0  0  0
    7.5475  -12.8797   19.5045 C   0  0  0  0  0  0  0  0  0  0  0  0
    8.4110  -13.1863   20.6953 C   0  0  0  0  0  0  0  0  0  0  0  0
    9.1413  -14.4394   20.3296 C   0  0  1  0  0  0  0  0  0  0  0  0
    9.1676  -15.3994   21.4932 C   0  0  0  0  0  0  0  0  0  0  0  0
    8.1862  -16.1086   21.7885 O   0  0  0  0  0  0  0  0  0  0  0  0
   12.0821  -16.4882   23.5326 C   0  0  0  0  0  0  0  0  0  0  0  0
   10.5861  -16.4229   23.3039 C   0  0  2  0  0  0  0  0  0  0  0  0
   10.3684  -15.4567   22.2386 N   0  0  0  0  0  0  0  0  0  0  0  0
    9.9609  -15.8503   24.5374 C   0  0  0  0  0  0  0  0  0  0  0  0
    9.8334  -16.5756   25.7142 O   0  0  0  0  0  0  0  0  0  0  0  0
    9.5153  -14.6591   24.5565 O   0  0  0  0  0  0  0  0  0  0  0  0
  2  1  1  1
  3  2  1  0
  4  2  1  0
  5  4  2  0
  6  4  1  0
  6  7  1  0
  7  8  1  0
  9  8  1  0
 10 11  1  1
 10  9  1  0
 10  6  1  0
 11 12  2  0
 14 13  1  1
 14 16  1  0
 15 14  1  0
 15 11  1  0
 16 18  2  0
 16 17  1  0
M  END
$$$$
