APA.pdb
     RDKit          3D

 18 18  0  0  1  0  0  0  0  0999 V2000
    6.1990  -14.4489   21.2872 C   0  0  0  0  0  0  0  0  0  0  0  0
    7.2545  -13.3896   21.5648 C   0  0  2  0  0  0  0  0  0  0  0  0
    8.0730  -13.1368   20.4046 N   0  0  0  0  0  0  0  0  0  0  0  0
    8.0262  -13.7819   22.7610 C   0  0  0  0  0  0  0  0  0  0  0  0
    9.1616  -14.2940   22.5339 O   0  0  0  0  0  0  0  0  0  0  0  0
    7.5865  -13.6253   24.1016 N   0  0  0  0  0  0  0  0  0  0  0  0
    6.2832  -13.0166   24.4211 C   0  0  0  0  0  0  0  0  0  0  0  0
    6.5701  -12.2862   25.7223 C   0  0  0  0  0  0  0  0  0  0  0  0
    7.4243  -13.3045   26.4231 C   0  0  0  0  0  0  0  0  0  0  0  0
    8.2046  -13.9687   25.3335 C   0  0  1  0  0  0  0  0  0  0  0  0
    8.2459  -15.4624   25.5423 C   0  0  0  0  0  0  0  0  0  0  0  0
    7.2535  -16.1873   25.3353 O   0  0  0  0  0  0  0  0  0  0  0  0
   10.9307  -17.7541   25.2855 C   0  0  0  0  0  0  0  0  0  0  0  0
    9.7015  -17.4362   26.1115 C   0  0  2  0  0  0  0  0  0  0  0  0
    9.4741  -16.0048   25.9877 N   0  0  0  0  0  0  0  0  0  0  0  0
   10.0372  -17.6951   27.5469 C   0  0  0  0  0  0  0  0  0  0  0  0
   10.1411  -16.6760   28.4839 O   0  0  0  0  0  0  0  0  0  0  0  0
   10.2437  -18.8763   27.9713 O   0  0  0  0  0  0  0  0  0  0  0  0
  2  1  1  6
  3  2  1  0
  4  2  1  0
  5  4  2  0
  6  4  1  0
  6  7  1  0
  7  8  1  0
  9  8  1  0
 10 11  1  1
 10  9  1  0
 10  6  1  0
 11 12  2  0
 14 13  1  6
 14 16  1  0
 15 14  1  0
 15 11  1  0
 16 18  2  0
 16 17  1  0
M  END
$$$$
