APA.pdb
     RDKit          3D

 18 18  0  0  1  0  0  0  0  0999 V2000
    7.5611  -17.0438   16.8209 C   0  0  0  0  0  0  0  0  0  0  0  0
    8.4332  -15.8527   16.4553 C   0  0  2  0  0  0  0  0  0  0  0  0
    9.2128  -16.1078   15.2691 N   0  0  0  0  0  0  0  0  0  0  0  0
    9.2456  -15.4737   17.6286 C   0  0  0  0  0  0  0  0  0  0  0  0
   10.4256  -15.9323   17.6463 O   0  0  0  0  0  0  0  0  0  0  0  0
    8.7983  -14.6559   18.6993 N   0  0  0  0  0  0  0  0  0  0  0  0
    7.4391  -14.0873   18.7215 C   0  0  0  0  0  0  0  0  0  0  0  0
    7.6531  -12.7476   19.4060 C   0  0  0  0  0  0  0  0  0  0  0  0
    8.6143  -13.1464   20.4898 C   0  0  0  0  0  0  0  0  0  0  0  0
    9.4555  -14.2234   19.8819 C   0  0  1  0  0  0  0  0  0  0  0  0
    9.6567  -15.3566   20.8575 C   0  0  0  0  0  0  0  0  0  0  0  0
    8.8047  -16.2523   21.0165 O   0  0  0  0  0  0  0  0  0  0  0  0
   12.7425  -16.3270   22.6900 C   0  0  0  0  0  0  0  0  0  0  0  0
   11.2455  -16.4347   22.4860 C   0  0  2  0  0  0  0  0  0  0  0  0
   10.8677  -15.3541   21.5885 N   0  0  0  0  0  0  0  0  0  0  0  0
   10.5850  -16.1531   23.7992 C   0  0  0  0  0  0  0  0  0  0  0  0
   10.6437  -17.0370   24.8681 O   0  0  0  0  0  0  0  0  0  0  0  0
    9.9342  -15.0771   23.9907 O   0  0  0  0  0  0  0  0  0  0  0  0
  2  1  1  1
  3  2  1  0
  4  2  1  0
  5  4  2  0
  6  4  1  0
  6  7  1  0
  7  8  1  0
  9  8  1  0
 10 11  1  1
 10  9  1  0
 10  6  1  0
 11 12  2  0
 14 13  1  1
 14 16  1  0
 15 14  1  0
 15 11  1  0
 16 18  2  0
 16 17  1  0
M  END
$$$$
