KYC.pdb
     RDKit          3D

 28 28  0  0  1  0  0  0  0  0999 V2000
   20.6600  -18.9472  -16.0379 N   0  0  0  0  0  0  0  0  0  0  0  0
   22.0671  -19.1298  -16.3233 C   0  0  1  0  0  0  0  0  0  0  0  0
   22.6493  -18.0340  -17.1804 C   0  0  0  0  0  0  0  0  0  0  0  0
   22.5296  -18.3303  -18.6229 C   0  0  0  0  0  0  0  0  0  0  0  0
   22.2250  -19.7221  -19.0239 C   0  0  0  0  0  0  0  0  0  0  0  0
   22.2192  -19.9487  -20.5138 C   0  0  0  0  0  0  0  0  0  0  0  0
   21.9516  -21.3650  -20.7240 N   0  0  0  0  0  0  0  0  0  0  0  0
   22.7949  -19.1014  -15.0230 C   0  0  0  0  0  0  0  0  0  0  0  0
   22.8266  -18.0263  -14.3264 O   0  0  0  0  0  0  0  0  0  0  0  0
   18.5541  -19.4331   -9.8482 O   0  0  0  0  0  0  0  0  0  0  0  0
   19.7283  -19.8441  -10.4475 C   0  0  0  0  0  0  0  0  0  0  0  0
   19.7693  -20.7027  -11.5261 C   0  0  0  0  0  0  0  0  0  0  0  0
   21.0024  -21.0740  -12.0798 C   0  0  0  0  0  0  0  0  0  0  0  0
   22.1849  -20.5909  -11.5593 C   0  0  0  0  0  0  0  0  0  0  0  0
   23.4455  -20.9804  -12.1321 C   0  0  0  0  0  0  0  0  0  0  0  0
   24.0937  -20.1209  -13.1399 C   0  0  2  0  0  0  0  0  0  0  0  0
   23.4873  -20.2040  -14.4614 N   0  0  0  0  0  0  0  0  0  0  0  0
   25.5132  -20.6106  -13.3166 C   0  0  0  0  0  0  0  0  0  0  0  0
   25.7945  -21.6078  -14.0279 O   0  0  0  0  0  0  0  0  0  0  0  0
   22.1084  -19.7407  -10.4886 C   0  0  0  0  0  0  0  0  0  0  0  0
   20.9167  -19.3504   -9.9142 C   0  0  0  0  0  0  0  0  0  0  0  0
   26.5557  -19.9135  -12.6529 N   0  0  0  0  0  0  0  0  0  0  0  0
   27.9134  -20.4109  -12.6811 C   0  0  1  0  0  0  0  0  0  0  0  0
   28.8372  -19.2112  -12.6802 C   0  0  0  0  0  0  0  0  0  0  0  0
   30.5686  -19.7252  -12.5050 S   0  0  0  0  0  0  0  0  0  0  0  0
   28.1846  -21.3363  -11.5802 C   0  0  0  0  0  0  0  0  0  0  0  0
   27.4763  -21.4007  -10.5559 O   0  0  0  0  0  0  0  0  0  0  0  0
   29.2760  -22.1858  -11.6671 O   0  0  0  0  0  0  0  0  0  0  0  0
  2  1  1  1
  3  2  1  0
  4  3  1  0
  5  4  1  0
  5  6  1  0
  7  6  1  0
  8  2  1  0
  8  9  2  0
 10 11  1  0
 11 12  2  0
 12 13  1  0
 14 13  2  0
 14 15  1  0
 16 15  1  1
 16 17  1  0
 17  8  1  0
 18 16  1  0
 19 18  2  0
 20 14  1  0
 21 11  1  0
 21 20  2  0
 22 18  1  0
 23 26  1  0
 23 22  1  0
 23 24  1  1
 25 24  1  0
 26 28  1  0
 27 26  2  0
M  END
$$$$
