KYC.pdb
     RDKit          3D

 28 28  0  0  1  0  0  0  0  0999 V2000
   20.5009  -18.8105  -14.3969 N   0  0  0  0  0  0  0  0  0  0  0  0
   21.3130  -19.5645  -15.3278 C   0  0  1  0  0  0  0  0  0  0  0  0
   21.3035  -18.9958  -16.7246 C   0  0  0  0  0  0  0  0  0  0  0  0
   20.1457  -18.1083  -16.9583 C   0  0  0  0  0  0  0  0  0  0  0  0
   19.3738  -18.2868  -18.2085 C   0  0  0  0  0  0  0  0  0  0  0  0
   18.2536  -17.2952  -18.3900 C   0  0  0  0  0  0  0  0  0  0  0  0
   17.6074  -17.6158  -19.6555 N   0  0  0  0  0  0  0  0  0  0  0  0
   22.7208  -19.5074  -14.8419 C   0  0  0  0  0  0  0  0  0  0  0  0
   23.1714  -18.4377  -14.2991 O   0  0  0  0  0  0  0  0  0  0  0  0
   23.2448  -20.8829   -8.1023 O   0  0  0  0  0  0  0  0  0  0  0  0
   23.6859  -21.0457   -9.4007 C   0  0  0  0  0  0  0  0  0  0  0  0
   22.8564  -21.3975  -10.4449 C   0  0  0  0  0  0  0  0  0  0  0  0
   23.3800  -21.5439  -11.7370 C   0  0  0  0  0  0  0  0  0  0  0  0
   24.7218  -21.3400  -11.9830 C   0  0  0  0  0  0  0  0  0  0  0  0
   25.2503  -21.4960  -13.3116 C   0  0  0  0  0  0  0  0  0  0  0  0
   24.9757  -20.4736  -14.3384 C   0  0  2  0  0  0  0  0  0  0  0  0
   23.6489  -20.5757  -14.9300 N   0  0  0  0  0  0  0  0  0  0  0  0
   25.9433  -20.6965  -15.4786 C   0  0  0  0  0  0  0  0  0  0  0  0
   25.7244  -21.5342  -16.3895 O   0  0  0  0  0  0  0  0  0  0  0  0
   25.5171  -20.9918  -10.9242 C   0  0  0  0  0  0  0  0  0  0  0  0
   25.0425  -20.8375   -9.6383 C   0  0  0  0  0  0  0  0  0  0  0  0
   27.1359  -19.9284  -15.5123 N   0  0  0  0  0  0  0  0  0  0  0  0
   28.0654  -20.0528  -16.6133 C   0  0  1  0  0  0  0  0  0  0  0  0
   29.0139  -18.8747  -16.5428 C   0  0  0  0  0  0  0  0  0  0  0  0
   30.2101  -18.9217  -17.9064 S   0  0  0  0  0  0  0  0  0  0  0  0
   28.7596  -21.3410  -16.6059 C   0  0  0  0  0  0  0  0  0  0  0  0
   29.0585  -21.9465  -15.5576 O   0  0  0  0  0  0  0  0  0  0  0  0
   29.1071  -21.9264  -17.8130 O   0  0  0  0  0  0  0  0  0  0  0  0
  2  1  1  1
  3  2  1  0
  4  3  1  0
  5  4  1  0
  5  6  1  0
  7  6  1  0
  8  2  1  0
  8  9  2  0
 10 11  1  0
 11 12  2  0
 12 13  1  0
 14 13  2  0
 14 15  1  0
 16 15  1  1
 16 17  1  0
 17  8  1  0
 18 16  1  0
 19 18  2  0
 20 14  1  0
 21 11  1  0
 21 20  2  0
 22 18  1  0
 23 26  1  0
 23 22  1  0
 23 24  1  1
 25 24  1  0
 26 28  1  0
 27 26  2  0
M  END
$$$$
