KYC.pdb
     RDKit          3D

 28 28  0  0  1  0  0  0  0  0999 V2000
   27.6811  -23.1092  -17.5904 N   0  0  0  0  0  0  0  0  0  0  0  0
   27.3669  -21.7445  -17.2252 C   0  0  1  0  0  0  0  0  0  0  0  0
   26.4693  -21.0521  -18.2200 C   0  0  0  0  0  0  0  0  0  0  0  0
   27.2183  -20.5404  -19.3861 C   0  0  0  0  0  0  0  0  0  0  0  0
   28.0205  -21.5028  -20.1741 C   0  0  0  0  0  0  0  0  0  0  0  0
   28.7468  -20.8901  -21.3438 C   0  0  0  0  0  0  0  0  0  0  0  0
   29.5635  -21.9432  -21.9319 N   0  0  0  0  0  0  0  0  0  0  0  0
   26.6330  -21.7856  -15.9286 C   0  0  0  0  0  0  0  0  0  0  0  0
   25.4902  -22.3604  -15.8539 O   0  0  0  0  0  0  0  0  0  0  0  0
   24.4203  -20.7436   -7.3308 O   0  0  0  0  0  0  0  0  0  0  0  0
   25.0690  -20.7028   -8.5491 C   0  0  0  0  0  0  0  0  0  0  0  0
   25.4856  -19.5322   -9.1477 C   0  0  0  0  0  0  0  0  0  0  0  0
   26.1387  -19.5728  -10.3873 C   0  0  0  0  0  0  0  0  0  0  0  0
   26.3734  -20.7740  -11.0233 C   0  0  0  0  0  0  0  0  0  0  0  0
   27.0412  -20.8053  -12.2969 C   0  0  0  0  0  0  0  0  0  0  0  0
   26.3501  -21.3556  -13.4777 C   0  0  2  0  0  0  0  0  0  0  0  0
   27.1042  -21.2210  -14.7164 N   0  0  0  0  0  0  0  0  0  0  0  0
   25.0865  -20.5520  -13.6862 C   0  0  0  0  0  0  0  0  0  0  0  0
   25.1033  -19.3858  -14.1545 O   0  0  0  0  0  0  0  0  0  0  0  0
   25.9469  -21.9171  -10.4017 C   0  0  0  0  0  0  0  0  0  0  0  0
   25.3011  -21.9213   -9.1829 C   0  0  0  0  0  0  0  0  0  0  0  0
   23.8446  -21.1439  -13.3385 N   0  0  0  0  0  0  0  0  0  0  0  0
   22.6085  -20.4062  -13.4779 C   0  0  1  0  0  0  0  0  0  0  0  0
   22.3916  -20.1577  -14.9557 C   0  0  0  0  0  0  0  0  0  0  0  0
   20.7157  -19.5376  -15.2707 S   0  0  0  0  0  0  0  0  0  0  0  0
   21.4815  -21.0945  -12.8472 C   0  0  0  0  0  0  0  0  0  0  0  0
   21.4733  -22.3210  -12.6224 O   0  0  0  0  0  0  0  0  0  0  0  0
   20.3652  -20.3612  -12.4777 O   0  0  0  0  0  0  0  0  0  0  0  0
  2  1  1  6
  3  2  1  0
  4  3  1  0
  5  4  1  0
  5  6  1  0
  7  6  1  0
  8  2  1  0
  8  9  2  0
 10 11  1  0
 11 12  2  0
 12 13  1  0
 14 13  2  0
 14 15  1  0
 16 15  1  1
 16 17  1  0
 17  8  1  0
 18 16  1  0
 19 18  2  0
 20 14  1  0
 21 11  1  0
 21 20  2  0
 22 18  1  0
 23 26  1  0
 23 22  1  0
 23 24  1  6
 25 24  1  0
 26 28  1  0
 27 26  2  0
M  END
$$$$
