KYC.pdb
     RDKit          3D

 28 28  0  0  1  0  0  0  0  0999 V2000
   24.4962  -24.7594  -14.9667 N   0  0  0  0  0  0  0  0  0  0  0  0
   24.6988  -23.3476  -15.2125 C   0  0  1  0  0  0  0  0  0  0  0  0
   24.6750  -22.9872  -16.6768 C   0  0  0  0  0  0  0  0  0  0  0  0
   25.9495  -23.3083  -17.3516 C   0  0  0  0  0  0  0  0  0  0  0  0
   26.7379  -24.4520  -16.8407 C   0  0  0  0  0  0  0  0  0  0  0  0
   27.9292  -24.8104  -17.6912 C   0  0  0  0  0  0  0  0  0  0  0  0
   28.6372  -25.8777  -16.9973 N   0  0  0  0  0  0  0  0  0  0  0  0
   23.5753  -22.6143  -14.5633 C   0  0  0  0  0  0  0  0  0  0  0  0
   22.4943  -23.2317  -14.2592 O   0  0  0  0  0  0  0  0  0  0  0  0
   23.7631  -21.5082   -7.3117 O   0  0  0  0  0  0  0  0  0  0  0  0
   23.4782  -21.0517   -8.5833 C   0  0  0  0  0  0  0  0  0  0  0  0
   22.1950  -20.8495   -9.0467 C   0  0  0  0  0  0  0  0  0  0  0  0
   21.9868  -20.3835  -10.3523 C   0  0  0  0  0  0  0  0  0  0  0  0
   23.0527  -20.1219  -11.1877 C   0  0  0  0  0  0  0  0  0  0  0  0
   22.8288  -19.6473  -12.5269 C   0  0  0  0  0  0  0  0  0  0  0  0
   22.4546  -20.5964  -13.5918 C   0  0  2  0  0  0  0  0  0  0  0  0
   23.5933  -21.2345  -14.2378 N   0  0  0  0  0  0  0  0  0  0  0  0
   21.7602  -19.8125  -14.6824 C   0  0  0  0  0  0  0  0  0  0  0  0
   22.3872  -19.3053  -15.6463 O   0  0  0  0  0  0  0  0  0  0  0  0
   24.3131  -20.3334  -10.6962 C   0  0  0  0  0  0  0  0  0  0  0  0
   24.5618  -20.7906   -9.4188 C   0  0  0  0  0  0  0  0  0  0  0  0
   20.3527  -19.6501  -14.6058 N   0  0  0  0  0  0  0  0  0  0  0  0
   19.5402  -19.6614  -15.8022 C   0  0  1  0  0  0  0  0  0  0  0  0
   19.8093  -20.9661  -16.5220 C   0  0  0  0  0  0  0  0  0  0  0  0
   19.1271  -20.9327  -18.2031 S   0  0  0  0  0  0  0  0  0  0  0  0
   18.1213  -19.4587  -15.5071 C   0  0  0  0  0  0  0  0  0  0  0  0
   17.5097  -20.1034  -14.6322 O   0  0  0  0  0  0  0  0  0  0  0  0
   17.4122  -18.5095  -16.2258 O   0  0  0  0  0  0  0  0  0  0  0  0
  2  1  1  6
  3  2  1  0
  4  3  1  0
  5  4  1  0
  5  6  1  0
  7  6  1  0
  8  2  1  0
  8  9  2  0
 10 11  1  0
 11 12  2  0
 12 13  1  0
 14 13  2  0
 14 15  1  0
 16 15  1  1
 16 17  1  0
 17  8  1  0
 18 16  1  0
 19 18  2  0
 20 14  1  0
 21 11  1  0
 21 20  2  0
 22 18  1  0
 23 26  1  0
 23 22  1  0
 23 24  1  1
 25 24  1  0
 26 28  1  0
 27 26  2  0
M  END
$$$$
