KYC.pdb
     RDKit          3D

 28 28  0  0  1  0  0  0  0  0999 V2000
   23.7395  -25.6342  -15.1647 N   0  0  0  0  0  0  0  0  0  0  0  0
   24.9303  -24.8868  -15.5086 C   0  0  1  0  0  0  0  0  0  0  0  0
   25.3320  -25.0363  -16.9545 C   0  0  0  0  0  0  0  0  0  0  0  0
   25.9736  -26.3396  -17.2238 C   0  0  0  0  0  0  0  0  0  0  0  0
   27.3888  -26.5132  -16.8266 C   0  0  0  0  0  0  0  0  0  0  0  0
   27.9630  -27.8659  -17.1608 C   0  0  0  0  0  0  0  0  0  0  0  0
   29.3810  -27.8155  -16.8312 N   0  0  0  0  0  0  0  0  0  0  0  0
   24.6333  -23.4436  -15.2841 C   0  0  0  0  0  0  0  0  0  0  0  0
   23.4208  -23.0291  -15.2796 O   0  0  0  0  0  0  0  0  0  0  0  0
   23.1444  -20.9502   -8.7668 O   0  0  0  0  0  0  0  0  0  0  0  0
   23.8438  -20.8465   -9.9529 C   0  0  0  0  0  0  0  0  0  0  0  0
   25.1340  -21.3061  -10.1153 C   0  0  0  0  0  0  0  0  0  0  0  0
   25.7781  -21.1641  -11.3522 C   0  0  0  0  0  0  0  0  0  0  0  0
   25.1374  -20.5675  -12.4181 C   0  0  0  0  0  0  0  0  0  0  0  0
   25.8079  -20.4231  -13.6825 C   0  0  0  0  0  0  0  0  0  0  0  0
   25.2399  -21.0455  -14.8927 C   0  0  2  0  0  0  0  0  0  0  0  0
   25.6134  -22.4424  -15.0664 N   0  0  0  0  0  0  0  0  0  0  0  0
   25.8117  -20.3237  -16.0919 C   0  0  0  0  0  0  0  0  0  0  0  0
   26.9367  -20.6103  -16.5731 O   0  0  0  0  0  0  0  0  0  0  0  0
   23.8573  -20.1224  -12.2229 C   0  0  0  0  0  0  0  0  0  0  0  0
   23.1877  -20.2425  -11.0230 C   0  0  0  0  0  0  0  0  0  0  0  0
   25.0439  -19.2893  -16.6869 N   0  0  0  0  0  0  0  0  0  0  0  0
   24.9333  -19.1835  -18.1251 C   0  0  1  0  0  0  0  0  0  0  0  0
   24.4700  -20.5278  -18.6454 C   0  0  0  0  0  0  0  0  0  0  0  0
   25.1984  -20.8816  -20.2692 S   0  0  0  0  0  0  0  0  0  0  0  0
   24.0558  -18.0851  -18.5312 C   0  0  0  0  0  0  0  0  0  0  0  0
   23.0886  -17.6983  -17.8457 O   0  0  0  0  0  0  0  0  0  0  0  0
   24.2994  -17.4361  -19.7312 O   0  0  0  0  0  0  0  0  0  0  0  0
  2  1  1  6
  3  2  1  0
  4  3  1  0
  5  4  1  0
  5  6  1  0
  7  6  1  0
  8  2  1  0
  8  9  2  0
 10 11  1  0
 11 12  2  0
 12 13  1  0
 14 13  2  0
 14 15  1  0
 16 15  1  1
 16 17  1  0
 17  8  1  0
 18 16  1  0
 19 18  2  0
 20 14  1  0
 21 11  1  0
 21 20  2  0
 22 18  1  0
 23 26  1  0
 23 22  1  0
 23 24  1  1
 25 24  1  0
 26 28  1  0
 27 26  2  0
M  END
$$$$
