KYC.pdb
     RDKit          3D

 28 28  0  0  1  0  0  0  0  0999 V2000
   23.6483  -14.1025  -17.6669 N   0  0  0  0  0  0  0  0  0  0  0  0
   22.6533  -13.0748  -17.8877 C   0  0  1  0  0  0  0  0  0  0  0  0
   21.2390  -13.5627  -17.6975 C   0  0  0  0  0  0  0  0  0  0  0  0
   20.8787  -14.6210  -18.6633 C   0  0  0  0  0  0  0  0  0  0  0  0
   19.5057  -15.1715  -18.6117 C   0  0  0  0  0  0  0  0  0  0  0  0
   19.1852  -16.1378  -19.7228 C   0  0  0  0  0  0  0  0  0  0  0  0
   17.7816  -16.4988  -19.5762 N   0  0  0  0  0  0  0  0  0  0  0  0
   22.8856  -12.0027  -16.8788 C   0  0  0  0  0  0  0  0  0  0  0  0
   23.1736  -12.3094  -15.6684 O   0  0  0  0  0  0  0  0  0  0  0  0
   29.1620  -11.8238  -16.5792 O   0  0  0  0  0  0  0  0  0  0  0  0
   27.9798  -11.1104  -16.5615 C   0  0  0  0  0  0  0  0  0  0  0  0
   27.3056  -10.7310  -17.7033 C   0  0  0  0  0  0  0  0  0  0  0  0
   26.1094  -10.0072  -17.6030 C   0  0  0  0  0  0  0  0  0  0  0  0
   25.5915   -9.6654  -16.3711 C   0  0  0  0  0  0  0  0  0  0  0  0
   24.3652   -8.9194  -16.2784 C   0  0  0  0  0  0  0  0  0  0  0  0
   23.0830   -9.6279  -16.1087 C   0  0  2  0  0  0  0  0  0  0  0  0
   22.8130  -10.6124  -17.1473 N   0  0  0  0  0  0  0  0  0  0  0  0
   21.9747   -8.6059  -16.2246 C   0  0  0  0  0  0  0  0  0  0  0  0
   21.5954   -8.1514  -17.3332 O   0  0  0  0  0  0  0  0  0  0  0  0
   26.2858  -10.0575  -15.2580 C   0  0  0  0  0  0  0  0  0  0  0  0
   27.4654  -10.7704  -15.3124 C   0  0  0  0  0  0  0  0  0  0  0  0
   21.3481   -8.1513  -15.0355 N   0  0  0  0  0  0  0  0  0  0  0  0
   20.3001   -7.1558  -15.0853 C   0  0  1  0  0  0  0  0  0  0  0  0
   19.3613   -7.4259  -13.9285 C   0  0  0  0  0  0  0  0  0  0  0  0
   18.6822   -9.1060  -14.0223 S   0  0  0  0  0  0  0  0  0  0  0  0
   20.8334   -5.7931  -15.0765 C   0  0  0  0  0  0  0  0  0  0  0  0
   22.0483   -5.5389  -14.9565 O   0  0  0  0  0  0  0  0  0  0  0  0
   19.9587   -4.7261  -15.2068 O   0  0  0  0  0  0  0  0  0  0  0  0
  2  1  1  1
  3  2  1  0
  4  3  1  0
  5  4  1  0
  5  6  1  0
  7  6  1  0
  8  2  1  0
  8  9  2  0
 10 11  1  0
 11 12  2  0
 12 13  1  0
 14 13  2  0
 14 15  1  0
 16 15  1  6
 16 17  1  0
 17  8  1  0
 18 16  1  0
 19 18  2  0
 20 14  1  0
 21 11  1  0
 21 20  2  0
 22 18  1  0
 23 26  1  0
 23 22  1  0
 23 24  1  1
 25 24  1  0
 26 28  1  0
 27 26  2  0
M  END
$$$$
