KYC.pdb
     RDKit          3D

 28 28  0  0  1  0  0  0  0  0999 V2000
   24.1032  -23.0354  -16.0499 N   0  0  0  0  0  0  0  0  0  0  0  0
   25.4154  -23.6121  -15.8490 C   0  0  1  0  0  0  0  0  0  0  0  0
   26.2596  -23.6245  -17.0986 C   0  0  0  0  0  0  0  0  0  0  0  0
   26.6365  -24.9943  -17.5042 C   0  0  0  0  0  0  0  0  0  0  0  0
   27.7582  -25.6465  -16.7921 C   0  0  0  0  0  0  0  0  0  0  0  0
   28.9089  -26.0411  -17.6818 C   0  0  0  0  0  0  0  0  0  0  0  0
   28.3956  -27.0277  -18.6226 N   0  0  0  0  0  0  0  0  0  0  0  0
   26.1273  -22.7672  -14.8486 C   0  0  0  0  0  0  0  0  0  0  0  0
   27.3654  -22.9771  -14.5936 O   0  0  0  0  0  0  0  0  0  0  0  0
   28.2027  -16.8445  -17.8443 O   0  0  0  0  0  0  0  0  0  0  0  0
   27.7462  -17.5074  -16.7223 C   0  0  0  0  0  0  0  0  0  0  0  0
   28.5577  -18.2721  -15.9105 C   0  0  0  0  0  0  0  0  0  0  0  0
   28.0191  -18.9152  -14.7874 C   0  0  0  0  0  0  0  0  0  0  0  0
   26.6802  -18.7948  -14.4785 C   0  0  0  0  0  0  0  0  0  0  0  0
   26.1361  -19.4615  -13.3259 C   0  0  0  0  0  0  0  0  0  0  0  0
   26.3055  -20.9180  -13.1691 C   0  0  2  0  0  0  0  0  0  0  0  0
   25.5333  -21.7058  -14.1200 N   0  0  0  0  0  0  0  0  0  0  0  0
   25.7738  -21.2981  -11.8057 C   0  0  0  0  0  0  0  0  0  0  0  0
   24.6779  -21.8948  -11.6561 O   0  0  0  0  0  0  0  0  0  0  0  0
   25.9030  -18.0285  -15.3052 C   0  0  0  0  0  0  0  0  0  0  0  0
   26.3926  -17.3792  -16.4193 C   0  0  0  0  0  0  0  0  0  0  0  0
   26.5461  -20.9653  -10.6628 N   0  0  0  0  0  0  0  0  0  0  0  0
   25.9826  -21.0643   -9.3345 C   0  0  1  0  0  0  0  0  0  0  0  0
   26.9758  -20.4476   -8.3723 C   0  0  0  0  0  0  0  0  0  0  0  0
   26.3534  -20.5090   -6.6689 S   0  0  0  0  0  0  0  0  0  0  0  0
   24.6565  -20.4510   -9.2511 C   0  0  0  0  0  0  0  0  0  0  0  0
   24.3554  -19.3981   -9.8475 O   0  0  0  0  0  0  0  0  0  0  0  0
   23.6806  -21.0581   -8.4768 O   0  0  0  0  0  0  0  0  0  0  0  0
  2  1  1  6
  3  2  1  0
  4  3  1  0
  5  4  1  0
  5  6  1  0
  7  6  1  0
  8  2  1  0
  8  9  2  0
 10 11  1  0
 11 12  2  0
 12 13  1  0
 14 13  2  0
 14 15  1  0
 16 15  1  6
 16 17  1  0
 17  8  1  0
 18 16  1  0
 19 18  2  0
 20 14  1  0
 21 11  1  0
 21 20  2  0
 22 18  1  0
 23 26  1  0
 23 22  1  0
 23 24  1  1
 25 24  1  0
 26 28  1  0
 27 26  2  0
M  END
$$$$
