KYC.pdb
     RDKit          3D

 28 28  0  0  1  0  0  0  0  0999 V2000
   22.7105  -11.9281  -17.9426 N   0  0  0  0  0  0  0  0  0  0  0  0
   23.1553  -10.9030  -17.0228 C   0  0  1  0  0  0  0  0  0  0  0  0
   24.5643  -10.4345  -17.2872 C   0  0  0  0  0  0  0  0  0  0  0  0
   25.5607  -11.4987  -17.0476 C   0  0  0  0  0  0  0  0  0  0  0  0
   26.9911  -11.1667  -17.2337 C   0  0  0  0  0  0  0  0  0  0  0  0
   27.9255  -12.3348  -17.0504 C   0  0  0  0  0  0  0  0  0  0  0  0
   29.2692  -11.8484  -17.3329 N   0  0  0  0  0  0  0  0  0  0  0  0
   22.2617   -9.7236  -17.2006 C   0  0  0  0  0  0  0  0  0  0  0  0
   21.9015   -9.3603  -18.3754 O   0  0  0  0  0  0  0  0  0  0  0  0
   16.4939  -10.4745  -20.3246 O   0  0  0  0  0  0  0  0  0  0  0  0
   17.2241   -9.9299  -19.2868 C   0  0  0  0  0  0  0  0  0  0  0  0
   17.6286  -10.6518  -18.1835 C   0  0  0  0  0  0  0  0  0  0  0  0
   18.3683  -10.0270  -17.1698 C   0  0  0  0  0  0  0  0  0  0  0  0
   18.7008   -8.6913  -17.2586 C   0  0  0  0  0  0  0  0  0  0  0  0
   19.4571   -8.0580  -16.2118 C   0  0  0  0  0  0  0  0  0  0  0  0
   20.8933   -7.7835  -16.4033 C   0  0  2  0  0  0  0  0  0  0  0  0
   21.7515   -8.9307  -16.1416 N   0  0  0  0  0  0  0  0  0  0  0  0
   21.2999   -6.7371  -15.3905 C   0  0  0  0  0  0  0  0  0  0  0  0
   21.5397   -7.0232  -14.1904 O   0  0  0  0  0  0  0  0  0  0  0  0
   18.2835   -8.0041  -18.3670 C   0  0  0  0  0  0  0  0  0  0  0  0
   17.5546   -8.5804  -19.3864 C   0  0  0  0  0  0  0  0  0  0  0  0
   21.4119   -5.3892  -15.8197 N   0  0  0  0  0  0  0  0  0  0  0  0
   21.8163   -4.3503  -14.8983 C   0  0  1  0  0  0  0  0  0  0  0  0
   23.3300   -4.3364  -14.8649 C   0  0  0  0  0  0  0  0  0  0  0  0
   24.0129   -4.0158  -16.5151 S   0  0  0  0  0  0  0  0  0  0  0  0
   21.2448   -3.0495  -15.2488 C   0  0  0  0  0  0  0  0  0  0  0  0
   20.6037   -2.8492  -16.2994 O   0  0  0  0  0  0  0  0  0  0  0  0
   21.4166   -1.9821  -14.3819 O   0  0  0  0  0  0  0  0  0  0  0  0
  2  1  1  6
  3  2  1  0
  4  3  1  0
  5  4  1  0
  5  6  1  0
  7  6  1  0
  8  2  1  0
  8  9  2  0
 10 11  1  0
 11 12  2  0
 12 13  1  0
 14 13  2  0
 14 15  1  0
 16 15  1  1
 16 17  1  0
 17  8  1  0
 18 16  1  0
 19 18  2  0
 20 14  1  0
 21 11  1  0
 21 20  2  0
 22 18  1  0
 23 26  1  0
 23 22  1  0
 23 24  1  6
 25 24  1  0
 26 28  1  0
 27 26  2  0
M  END
$$$$
