KYC.pdb
     RDKit          3D

 28 28  0  0  1  0  0  0  0  0999 V2000
   24.5982  -23.1960  -12.7644 N   0  0  0  0  0  0  0  0  0  0  0  0
   24.8149  -21.7720  -12.9060 C   0  0  1  0  0  0  0  0  0  0  0  0
   26.2094  -21.4229  -13.3621 C   0  0  0  0  0  0  0  0  0  0  0  0
   27.0550  -20.9380  -12.2519 C   0  0  0  0  0  0  0  0  0  0  0  0
   26.4994  -20.9895  -10.8809 C   0  0  0  0  0  0  0  0  0  0  0  0
   27.3585  -20.3184   -9.8404 C   0  0  0  0  0  0  0  0  0  0  0  0
   26.6582  -20.4452   -8.5694 N   0  0  0  0  0  0  0  0  0  0  0  0
   23.8758  -21.2782  -13.9528 C   0  0  0  0  0  0  0  0  0  0  0  0
   23.5872  -22.0174  -14.9589 O   0  0  0  0  0  0  0  0  0  0  0  0
   17.8034  -21.2827  -10.4026 O   0  0  0  0  0  0  0  0  0  0  0  0
   18.6295  -20.6652  -11.3207 C   0  0  0  0  0  0  0  0  0  0  0  0
   19.4796  -19.6279  -10.9989 C   0  0  0  0  0  0  0  0  0  0  0  0
   20.2884  -19.0520  -11.9885 C   0  0  0  0  0  0  0  0  0  0  0  0
   20.2476  -19.5094  -13.2891 C   0  0  0  0  0  0  0  0  0  0  0  0
   21.0788  -18.9097  -14.2982 C   0  0  0  0  0  0  0  0  0  0  0  0
   22.1922  -19.6768  -14.8870 C   0  0  2  0  0  0  0  0  0  0  0  0
   23.2451  -20.0085  -13.9371 N   0  0  0  0  0  0  0  0  0  0  0  0
   22.8513  -18.8027  -15.9298 C   0  0  0  0  0  0  0  0  0  0  0  0
   23.3826  -17.7007  -15.6421 O   0  0  0  0  0  0  0  0  0  0  0  0
   19.3928  -20.5403  -13.5744 C   0  0  0  0  0  0  0  0  0  0  0  0
   18.5806  -21.1348  -12.6313 C   0  0  0  0  0  0  0  0  0  0  0  0
   22.8653  -19.2511  -17.2760 N   0  0  0  0  0  0  0  0  0  0  0  0
   23.4866  -18.4580  -18.3137 C   0  0  1  0  0  0  0  0  0  0  0  0
   24.3519  -19.3867  -19.1391 C   0  0  0  0  0  0  0  0  0  0  0  0
   25.5535  -20.2551  -18.0930 S   0  0  0  0  0  0  0  0  0  0  0  0
   22.5016  -17.7351  -19.1193 C   0  0  0  0  0  0  0  0  0  0  0  0
   21.2709  -17.8737  -18.9743 O   0  0  0  0  0  0  0  0  0  0  0  0
   22.9435  -16.8526  -20.0921 O   0  0  0  0  0  0  0  0  0  0  0  0
  2  1  1  6
  3  2  1  0
  4  3  1  0
  5  4  1  0
  5  6  1  0
  7  6  1  0
  8  2  1  0
  8  9  2  0
 10 11  1  0
 11 12  2  0
 12 13  1  0
 14 13  2  0
 14 15  1  0
 16 15  1  1
 16 17  1  0
 17  8  1  0
 18 16  1  0
 19 18  2  0
 20 14  1  0
 21 11  1  0
 21 20  2  0
 22 18  1  0
 23 26  1  0
 23 22  1  0
 23 24  1  6
 25 24  1  0
 26 28  1  0
 27 26  2  0
M  END
$$$$
