KYC.pdb
     RDKit          3D

 28 28  0  0  1  0  0  0  0  0999 V2000
   21.5240  -23.2060  -19.4009 N   0  0  0  0  0  0  0  0  0  0  0  0
   22.7932  -23.6915  -19.8989 C   0  0  1  0  0  0  0  0  0  0  0  0
   23.5740  -22.6492  -20.6597 C   0  0  0  0  0  0  0  0  0  0  0  0
   24.3236  -23.2299  -21.7927 C   0  0  0  0  0  0  0  0  0  0  0  0
   25.7446  -23.5838  -21.5777 C   0  0  0  0  0  0  0  0  0  0  0  0
   26.5059  -23.8805  -22.8441 C   0  0  0  0  0  0  0  0  0  0  0  0
   27.0702  -25.2151  -22.6942 N   0  0  0  0  0  0  0  0  0  0  0  0
   23.6174  -24.0810  -18.7197 C   0  0  0  0  0  0  0  0  0  0  0  0
   23.8377  -23.2366  -17.7814 O   0  0  0  0  0  0  0  0  0  0  0  0
   19.8776  -23.9328  -13.7449 O   0  0  0  0  0  0  0  0  0  0  0  0
   20.9102  -24.5666  -14.4074 C   0  0  0  0  0  0  0  0  0  0  0  0
   20.7126  -25.4961  -15.4070 C   0  0  0  0  0  0  0  0  0  0  0  0
   21.8137  -26.0968  -16.0329 C   0  0  0  0  0  0  0  0  0  0  0  0
   23.1017  -25.7710  -15.6623 C   0  0  0  0  0  0  0  0  0  0  0  0
   24.2251  -26.3954  -16.3080 C   0  0  0  0  0  0  0  0  0  0  0  0
   24.9829  -25.6626  -17.3393 C   0  0  2  0  0  0  0  0  0  0  0  0
   24.2070  -25.3568  -18.5333 N   0  0  0  0  0  0  0  0  0  0  0  0
   26.1064  -26.5594  -17.8079 C   0  0  0  0  0  0  0  0  0  0  0  0
   25.9766  -27.3433  -18.7816 O   0  0  0  0  0  0  0  0  0  0  0  0
   23.2623  -24.8447  -14.6668 C   0  0  0  0  0  0  0  0  0  0  0  0
   22.2069  -24.2303  -14.0256 C   0  0  0  0  0  0  0  0  0  0  0  0
   27.3453  -26.5065  -17.1181 N   0  0  0  0  0  0  0  0  0  0  0  0
   28.4454  -27.3613  -17.5062 C   0  0  1  0  0  0  0  0  0  0  0  0
   29.6978  -26.8147  -16.8540 C   0  0  0  0  0  0  0  0  0  0  0  0
   31.1288  -27.8728  -17.2079 S   0  0  0  0  0  0  0  0  0  0  0  0
   28.1980  -28.7643  -17.1719 C   0  0  0  0  0  0  0  0  0  0  0  0
   27.6473  -29.1241  -16.1125 O   0  0  0  0  0  0  0  0  0  0  0  0
   28.5890  -29.7492  -18.0650 O   0  0  0  0  0  0  0  0  0  0  0  0
  2  1  1  1
  3  2  1  0
  4  3  1  0
  5  4  1  0
  5  6  1  0
  7  6  1  0
  8  2  1  0
  8  9  2  0
 10 11  1  0
 11 12  2  0
 12 13  1  0
 14 13  2  0
 14 15  1  0
 16 15  1  1
 16 17  1  0
 17  8  1  0
 18 16  1  0
 19 18  2  0
 20 14  1  0
 21 11  1  0
 21 20  2  0
 22 18  1  0
 23 26  1  0
 23 22  1  0
 23 24  1  1
 25 24  1  0
 26 28  1  0
 27 26  2  0
M  END
$$$$
