KYC.pdb
     RDKit          3D

 28 28  0  0  1  0  0  0  0  0999 V2000
   21.5311  -18.4680  -17.6760 N   0  0  0  0  0  0  0  0  0  0  0  0
   22.8483  -18.2914  -17.1028 C   0  0  1  0  0  0  0  0  0  0  0  0
   23.3871  -16.8921  -17.2649 C   0  0  0  0  0  0  0  0  0  0  0  0
   24.8146  -16.8841  -17.6454 C   0  0  0  0  0  0  0  0  0  0  0  0
   25.3172  -17.9962  -18.4829 C   0  0  0  0  0  0  0  0  0  0  0  0
   26.7624  -17.8602  -18.8882 C   0  0  0  0  0  0  0  0  0  0  0  0
   27.1200  -19.0842  -19.5924 N   0  0  0  0  0  0  0  0  0  0  0  0
   22.7381  -18.5509  -15.6393 C   0  0  0  0  0  0  0  0  0  0  0  0
   22.0562  -17.7613  -14.8952 O   0  0  0  0  0  0  0  0  0  0  0  0
   18.5684  -22.8624  -16.8537 O   0  0  0  0  0  0  0  0  0  0  0  0
   19.5156  -22.3939  -15.9648 C   0  0  0  0  0  0  0  0  0  0  0  0
   20.8548  -22.7135  -16.0451 C   0  0  0  0  0  0  0  0  0  0  0  0
   21.7561  -22.1975  -15.1036 C   0  0  0  0  0  0  0  0  0  0  0  0
   21.3219  -21.3688  -14.0901 C   0  0  0  0  0  0  0  0  0  0  0  0
   22.2538  -20.8471  -13.1266 C   0  0  0  0  0  0  0  0  0  0  0  0
   23.2160  -19.8023  -13.5233 C   0  0  2  0  0  0  0  0  0  0  0  0
   23.3466  -19.6394  -14.9646 N   0  0  0  0  0  0  0  0  0  0  0  0
   24.5836  -20.2303  -13.0409 C   0  0  0  0  0  0  0  0  0  0  0  0
   25.3611  -20.9152  -13.7520 O   0  0  0  0  0  0  0  0  0  0  0  0
   19.9863  -21.0717  -14.0393 C   0  0  0  0  0  0  0  0  0  0  0  0
   19.0666  -21.5578  -14.9451 C   0  0  0  0  0  0  0  0  0  0  0  0
   24.9934  -19.8401  -11.7397 N   0  0  0  0  0  0  0  0  0  0  0  0
   26.2715  -20.2607  -11.2091 C   0  0  1  0  0  0  0  0  0  0  0  0
   26.4336  -19.6154   -9.8490 C   0  0  0  0  0  0  0  0  0  0  0  0
   25.1523  -20.1910   -8.7005 S   0  0  0  0  0  0  0  0  0  0  0  0
   26.3970  -21.7180  -11.1641 C   0  0  0  0  0  0  0  0  0  0  0  0
   25.4252  -22.4887  -11.2929 O   0  0  0  0  0  0  0  0  0  0  0  0
   27.6482  -22.2811  -10.9695 O   0  0  0  0  0  0  0  0  0  0  0  0
  2  1  1  6
  3  2  1  0
  4  3  1  0
  5  4  1  0
  5  6  1  0
  7  6  1  0
  8  2  1  0
  8  9  2  0
 10 11  1  0
 11 12  2  0
 12 13  1  0
 14 13  2  0
 14 15  1  0
 16 15  1  6
 16 17  1  0
 17  8  1  0
 18 16  1  0
 19 18  2  0
 20 14  1  0
 21 11  1  0
 21 20  2  0
 22 18  1  0
 23 26  1  0
 23 22  1  0
 23 24  1  1
 25 24  1  0
 26 28  1  0
 27 26  2  0
M  END
$$$$
