RFW.pdb
     RDKit          3D

 37 39  0  0  1  0  0  0  0  0999 V2000
    7.3582  -22.6542   17.4718 N   0  0  0  0  0  0  0  0  0  0  0  0
    8.2754  -22.3435   16.4274 C   0  0  0  0  0  0  0  0  0  0  0  0
    8.3659  -23.1470   15.3981 N   0  0  0  0  0  0  0  0  0  0  0  0
    9.1061  -21.1974   16.4405 N   0  0  0  0  0  0  0  0  0  0  0  0
    9.0847  -20.3404   17.6095 C   0  0  0  0  0  0  0  0  0  0  0  0
    9.9946  -19.1299   17.4440 C   0  0  0  0  0  0  0  0  0  0  0  0
    9.9644  -18.4005   18.7574 C   0  0  0  0  0  0  0  0  0  0  0  0
    9.8176  -16.9242   18.6590 C   0  0  2  0  0  0  0  0  0  0  0  0
   10.7144  -16.2619   17.7698 N   0  0  0  0  0  0  0  0  0  0  0  0
    9.8088  -16.2956   20.0222 C   0  0  0  0  0  0  0  0  0  0  0  0
   10.8743  -15.9941   20.6095 O   0  0  0  0  0  0  0  0  0  0  0  0
    9.0633  -22.9726   14.6404 N   0  0  0  0  0  0  0  0  0  0  0  0
    8.5765  -16.0290   20.6782 C   0  0  2  0  0  0  0  0  0  0  0  0
    8.3944  -15.5369   21.9975 C   0  0  0  0  0  0  0  0  0  0  0  0
    7.0852  -14.8079   22.2518 C   0  0  0  0  0  0  0  0  0  0  0  0
    7.0519  -14.3005   23.6366 C   0  0  0  0  0  0  0  0  0  0  0  0
    6.3575  -15.0658   24.5674 C   0  0  0  0  0  0  0  0  0  0  0  0
    6.2363  -14.7033   25.8908 C   0  0  0  0  0  0  0  0  0  0  0  0
    6.8242  -13.5339   26.3234 C   0  0  0  0  0  0  0  0  0  0  0  0
    7.5166  -12.7577   25.4251 C   0  0  0  0  0  0  0  0  0  0  0  0
    7.6192  -13.1523   24.0986 C   0  0  0  0  0  0  0  0  0  0  0  0
    8.7208  -16.5071   23.0547 O   0  0  0  0  0  0  0  0  0  0  0  0
    8.1633  -17.6327   23.1153 N   0  0  0  0  0  0  0  0  0  0  0  0
    9.6837  -16.1856   24.0374 C   0  0  2  0  0  0  0  0  0  0  0  0
   10.2069  -17.2307   24.8855 C   0  0  0  0  0  0  0  0  0  0  0  0
   11.3212  -16.5964   25.7031 C   0  0  0  0  0  0  0  0  0  0  0  0
   11.0188  -16.5122   27.1393 C   0  0  0  0  0  0  0  0  0  0  0  0
   10.8141  -17.5299   28.0572 N   0  0  0  0  0  0  0  0  0  0  0  0
   10.5629  -16.9900   29.2614 C   0  0  0  0  0  0  0  0  0  0  0  0
   10.6005  -15.6352   29.1439 C   0  0  0  0  0  0  0  0  0  0  0  0
   10.4133  -14.6091   30.0660 C   0  0  0  0  0  0  0  0  0  0  0  0
   10.5060  -13.2860   29.6850 C   0  0  0  0  0  0  0  0  0  0  0  0
   10.7883  -12.9726   28.3718 C   0  0  0  0  0  0  0  0  0  0  0  0
   10.9756  -13.9807   27.4501 C   0  0  0  0  0  0  0  0  0  0  0  0
   10.8821  -15.3205   27.8337 C   0  0  0  0  0  0  0  0  0  0  0  0
    9.1453  -17.7865   25.7669 O   0  0  0  0  0  0  0  0  0  0  0  0
    9.3279  -18.1329   26.9540 O   0  0  0  0  0  0  0  0  0  0  0  0
  2  3  2  0
  2  1  1  0
  4  2  1  0
  5  4  1  0
  6  5  1  0
  7  6  1  0
  8 10  1  0
  8  7  1  0
  8  9  1  6
 10 12  1  0
 11 10  2  0
 12 13  1  0
 13 14  1  6
 13 21  1  0
 15 14  1  0
 16 15  2  0
 17 16  1  0
 18 17  2  0
 18 19  1  0
 19 20  2  0
 20 15  1  0
 21 23  1  0
 21 22  2  0
 23 24  1  0
 24 35  1  0
 24 25  1  1
 26 27  2  0
 26 25  1  0
 28 27  1  0
 29 34  2  0
 29 28  1  0
 30 29  1  0
 31 32  1  0
 31 30  2  0
 32 33  2  0
 33 34  1  0
 34 26  1  0
 35 37  1  0
 36 35  2  0
M  END
$$$$
