RFW.pdb
     RDKit          3D

 37 39  0  0  1  0  0  0  0  0999 V2000
    7.8522  -13.4463   16.8374 N   0  0  0  0  0  0  0  0  0  0  0  0
    8.3659  -13.6484   15.5245 C   0  0  0  0  0  0  0  0  0  0  0  0
    8.7387  -12.6112   14.8187 N   0  0  0  0  0  0  0  0  0  0  0  0
    8.4980  -14.9273   14.9321 N   0  0  0  0  0  0  0  0  0  0  0  0
    8.5325  -16.0904   15.7966 C   0  0  0  0  0  0  0  0  0  0  0  0
    9.9579  -16.5524   16.0719 C   0  0  0  0  0  0  0  0  0  0  0  0
   10.3246  -15.9990   17.4200 C   0  0  0  0  0  0  0  0  0  0  0  0
   10.0482  -16.8990   18.5707 C   0  0  2  0  0  0  0  0  0  0  0  0
    8.8578  -17.6796   18.4855 N   0  0  0  0  0  0  0  0  0  0  0  0
   10.1398  -16.1507   19.8688 C   0  0  0  0  0  0  0  0  0  0  0  0
   11.1845  -15.5422   20.1998 O   0  0  0  0  0  0  0  0  0  0  0  0
    9.0275  -12.7165   13.8205 N   0  0  0  0  0  0  0  0  0  0  0  0
    9.0296  -16.1198   20.7557 C   0  0  1  0  0  0  0  0  0  0  0  0
    8.9380  -15.4311   21.9939 C   0  0  0  0  0  0  0  0  0  0  0  0
    7.5288  -15.1127   22.4659 C   0  0  0  0  0  0  0  0  0  0  0  0
    6.7737  -16.3623   22.6767 C   0  0  0  0  0  0  0  0  0  0  0  0
    6.3934  -16.6513   23.9829 C   0  0  0  0  0  0  0  0  0  0  0  0
    5.6961  -17.7896   24.3231 C   0  0  0  0  0  0  0  0  0  0  0  0
    5.3548  -18.6885   23.3354 C   0  0  0  0  0  0  0  0  0  0  0  0
    5.7179  -18.4285   22.0357 C   0  0  0  0  0  0  0  0  0  0  0  0
    6.4203  -17.2720   21.7274 C   0  0  0  0  0  0  0  0  0  0  0  0
    9.7831  -15.9910   23.0607 O   0  0  0  0  0  0  0  0  0  0  0  0
   10.4809  -17.0215   22.8802 N   0  0  0  0  0  0  0  0  0  0  0  0
    9.8265  -15.3692   24.3286 C   0  0  2  0  0  0  0  0  0  0  0  0
   10.6948  -15.9042   25.3508 C   0  0  0  0  0  0  0  0  0  0  0  0
   10.4063  -15.1073   26.6134 C   0  0  0  0  0  0  0  0  0  0  0  0
    8.9712  -14.9489   26.8909 C   0  0  0  0  0  0  0  0  0  0  0  0
    8.0507  -15.8866   27.3304 N   0  0  0  0  0  0  0  0  0  0  0  0
    6.8480  -15.2995   27.4460 C   0  0  0  0  0  0  0  0  0  0  0  0
    6.9692  -13.9924   27.0886 C   0  0  0  0  0  0  0  0  0  0  0  0
    6.0496  -12.9490   27.0260 C   0  0  0  0  0  0  0  0  0  0  0  0
    6.4339  -11.6868   26.6216 C   0  0  0  0  0  0  0  0  0  0  0  0
    7.7479  -11.4527   26.2738 C   0  0  0  0  0  0  0  0  0  0  0  0
    8.6671  -12.4786   26.3321 C   0  0  0  0  0  0  0  0  0  0  0  0
    8.2801  -13.7569   26.7411 C   0  0  0  0  0  0  0  0  0  0  0  0
   10.4415  -17.3547   25.5630 O   0  0  0  0  0  0  0  0  0  0  0  0
   11.1441  -18.0918   26.2880 O   0  0  0  0  0  0  0  0  0  0  0  0
  2  3  2  0
  2  1  1  0
  4  2  1  0
  5  4  1  0
  6  5  1  0
  7  6  1  0
  8 10  1  0
  8  7  1  0
  8  9  1  6
 10 12  1  0
 11 10  2  0
 12 13  1  0
 13 14  1  1
 13 21  1  0
 15 14  1  0
 16 15  2  0
 17 16  1  0
 18 17  2  0
 18 19  1  0
 19 20  2  0
 20 15  1  0
 21 23  1  0
 21 22  2  0
 23 24  1  0
 24 35  1  0
 24 25  1  6
 26 27  2  0
 26 25  1  0
 28 27  1  0
 29 34  2  0
 29 28  1  0
 30 29  1  0
 31 32  1  0
 31 30  2  0
 32 33  2  0
 33 34  1  0
 34 26  1  0
 35 37  1  0
 36 35  2  0
M  END
$$$$
