RFW.pdb
     RDKit          3D

 37 39  0  0  1  0  0  0  0  0999 V2000
    6.0316  -18.1653   15.7355 N   0  0  0  0  0  0  0  0  0  0  0  0
    7.1997  -17.5710   15.1779 C   0  0  0  0  0  0  0  0  0  0  0  0
    7.0767  -16.7495   14.1665 N   0  0  0  0  0  0  0  0  0  0  0  0
    8.5051  -17.8228   15.6640 N   0  0  0  0  0  0  0  0  0  0  0  0
    8.6841  -18.8583   16.6626 C   0  0  0  0  0  0  0  0  0  0  0  0
    8.2958  -18.3785   18.0554 C   0  0  0  0  0  0  0  0  0  0  0  0
    9.5845  -18.1134   18.7815 C   0  0  0  0  0  0  0  0  0  0  0  0
    9.5487  -18.3625   20.2469 C   0  0  2  0  0  0  0  0  0  0  0  0
    8.5527  -19.2746   20.7045 N   0  0  0  0  0  0  0  0  0  0  0  0
    9.5216  -17.0693   21.0086 C   0  0  0  0  0  0  0  0  0  0  0  0
   10.3554  -16.1608   20.7835 O   0  0  0  0  0  0  0  0  0  0  0  0
    7.9146  -16.2987   13.7357 N   0  0  0  0  0  0  0  0  0  0  0  0
    8.5379  -16.8509   22.0108 C   0  0  1  0  0  0  0  0  0  0  0  0
    8.2951  -15.6506   22.7293 C   0  0  0  0  0  0  0  0  0  0  0  0
    6.9305  -15.5451   23.3903 C   0  0  0  0  0  0  0  0  0  0  0  0
    6.8670  -14.3294   24.2235 C   0  0  0  0  0  0  0  0  0  0  0  0
    6.6426  -14.5135   25.5837 C   0  0  0  0  0  0  0  0  0  0  0  0
    6.5480  -13.4660   26.4734 C   0  0  0  0  0  0  0  0  0  0  0  0
    6.6797  -12.1753   26.0077 C   0  0  0  0  0  0  0  0  0  0  0  0
    6.9019  -11.9638   24.6680 C   0  0  0  0  0  0  0  0  0  0  0  0
    6.9917  -13.0419   23.7988 C   0  0  0  0  0  0  0  0  0  0  0  0
    9.3933  -15.2485   23.6227 O   0  0  0  0  0  0  0  0  0  0  0  0
    9.3378  -14.1951   24.3073 N   0  0  0  0  0  0  0  0  0  0  0  0
   10.5496  -16.0534   23.7291 C   0  0  1  0  0  0  0  0  0  0  0  0
   10.9227  -16.5908   25.0164 C   0  0  0  0  0  0  0  0  0  0  0  0
    9.6399  -17.1060   25.6499 C   0  0  0  0  0  0  0  0  0  0  0  0
    9.4381  -16.6371   27.0286 C   0  0  0  0  0  0  0  0  0  0  0  0
    8.7342  -17.2281   28.0655 N   0  0  0  0  0  0  0  0  0  0  0  0
    8.8147  -16.4436   29.1530 C   0  0  0  0  0  0  0  0  0  0  0  0
    9.5606  -15.3492   28.8420 C   0  0  0  0  0  0  0  0  0  0  0  0
    9.9499  -14.2384   29.5856 C   0  0  0  0  0  0  0  0  0  0  0  0
   10.7240  -13.2435   29.0241 C   0  0  0  0  0  0  0  0  0  0  0  0
   11.1193  -13.3485   27.7068 C   0  0  0  0  0  0  0  0  0  0  0  0
   10.7396  -14.4443   26.9611 C   0  0  0  0  0  0  0  0  0  0  0  0
    9.9561  -15.4523   27.5276 C   0  0  0  0  0  0  0  0  0  0  0  0
   11.9243  -17.6812   24.8713 O   0  0  0  0  0  0  0  0  0  0  0  0
   13.0664  -17.6580   25.3788 O   0  0  0  0  0  0  0  0  0  0  0  0
  2  3  2  0
  2  1  1  0
  4  2  1  0
  5  4  1  0
  6  5  1  0
  7  6  1  0
  8 10  1  0
  8  7  1  0
  8  9  1  6
 10 12  1  0
 11 10  2  0
 12 13  1  0
 13 14  1  6
 13 21  1  0
 15 14  1  0
 16 15  2  0
 17 16  1  0
 18 17  2  0
 18 19  1  0
 19 20  2  0
 20 15  1  0
 21 23  1  0
 21 22  2  0
 23 24  1  0
 24 35  1  0
 24 25  1  1
 26 27  2  0
 26 25  1  0
 28 27  1  0
 29 34  2  0
 29 28  1  0
 30 29  1  0
 31 32  1  0
 31 30  2  0
 32 33  2  0
 33 34  1  0
 34 26  1  0
 35 37  1  0
 36 35  2  0
M  END
$$$$
