RFW.pdb
     RDKit          3D

 37 39  0  0  1  0  0  0  0  0999 V2000
    7.6448  -14.4128   14.5431 N   0  0  0  0  0  0  0  0  0  0  0  0
    8.8965  -13.8384   14.9061 C   0  0  0  0  0  0  0  0  0  0  0  0
    9.7851  -13.6042   13.9741 N   0  0  0  0  0  0  0  0  0  0  0  0
    9.2378  -13.5016   16.2380 N   0  0  0  0  0  0  0  0  0  0  0  0
    8.2677  -13.7522   17.2856 C   0  0  0  0  0  0  0  0  0  0  0  0
    8.0715  -15.2424   17.5343 C   0  0  0  0  0  0  0  0  0  0  0  0
    7.5619  -15.3684   18.9423 C   0  0  0  0  0  0  0  0  0  0  0  0
    8.4119  -16.1796   19.8535 C   0  0  2  0  0  0  0  0  0  0  0  0
    7.9913  -17.5243   20.0733 N   0  0  0  0  0  0  0  0  0  0  0  0
    8.6634  -15.4500   21.1410 C   0  0  0  0  0  0  0  0  0  0  0  0
    9.3767  -14.4200   21.1798 O   0  0  0  0  0  0  0  0  0  0  0  0
   10.7414  -13.2619   14.2176 N   0  0  0  0  0  0  0  0  0  0  0  0
    8.0899  -15.9211   22.3531 C   0  0  1  0  0  0  0  0  0  0  0  0
    8.1405  -15.2966   23.6272 C   0  0  0  0  0  0  0  0  0  0  0  0
    6.8325  -14.6977   24.1177 C   0  0  0  0  0  0  0  0  0  0  0  0
    7.0918  -13.7635   25.2295 C   0  0  0  0  0  0  0  0  0  0  0  0
    6.6331  -14.1432   26.4864 C   0  0  0  0  0  0  0  0  0  0  0  0
    6.7962  -13.3610   27.6085 C   0  0  0  0  0  0  0  0  0  0  0  0
    7.4401  -12.1477   27.4936 C   0  0  0  0  0  0  0  0  0  0  0  0
    7.9038  -11.7470   26.2635 C   0  0  0  0  0  0  0  0  0  0  0  0
    7.7226  -12.5594   25.1530 C   0  0  0  0  0  0  0  0  0  0  0  0
    8.8279  -16.0872   24.6607 O   0  0  0  0  0  0  0  0  0  0  0  0
    8.4594  -17.2525   24.9570 N   0  0  0  0  0  0  0  0  0  0  0  0
    9.9338  -15.5414   25.3501 C   0  0  1  0  0  0  0  0  0  0  0  0
   10.5885  -16.3242   26.3718 C   0  0  0  0  0  0  0  0  0  0  0  0
   12.0758  -16.2717   26.0595 C   0  0  0  0  0  0  0  0  0  0  0  0
   12.4142  -16.8013   24.7304 C   0  0  0  0  0  0  0  0  0  0  0  0
   12.4107  -16.1623   23.5009 N   0  0  0  0  0  0  0  0  0  0  0  0
   12.7884  -17.0352   22.5521 C   0  0  0  0  0  0  0  0  0  0  0  0
   13.0386  -18.2346   23.1435 C   0  0  0  0  0  0  0  0  0  0  0  0
   13.4523  -19.4624   22.6340 C   0  0  0  0  0  0  0  0  0  0  0  0
   13.6370  -20.5498   23.4632 C   0  0  0  0  0  0  0  0  0  0  0  0
   13.4090  -20.4212   24.8175 C   0  0  0  0  0  0  0  0  0  0  0  0
   12.9992  -19.2100   25.3330 C   0  0  0  0  0  0  0  0  0  0  0  0
   12.8116  -18.1081   24.4953 C   0  0  0  0  0  0  0  0  0  0  0  0
   10.3059  -15.7793   27.7269 O   0  0  0  0  0  0  0  0  0  0  0  0
    9.6918  -14.7118   27.9407 O   0  0  0  0  0  0  0  0  0  0  0  0
  2  3  2  0
  2  1  1  0
  4  2  1  0
  5  4  1  0
  6  5  1  0
  7  6  1  0
  8 10  1  0
  8  7  1  0
  8  9  1  1
 10 12  1  0
 11 10  2  0
 12 13  1  0
 13 14  1  1
 13 21  1  0
 15 14  1  0
 16 15  2  0
 17 16  1  0
 18 17  2  0
 18 19  1  0
 19 20  2  0
 20 15  1  0
 21 23  1  0
 21 22  2  0
 23 24  1  0
 24 35  1  0
 24 25  1  1
 26 27  2  0
 26 25  1  0
 28 27  1  0
 29 34  2  0
 29 28  1  0
 30 29  1  0
 31 32  1  0
 31 30  2  0
 32 33  2  0
 33 34  1  0
 34 26  1  0
 35 37  1  0
 36 35  2  0
M  END
$$$$
