RFW.pdb
     RDKit          3D

 37 39  0  0  1  0  0  0  0  0999 V2000
    8.5009  -13.7350   15.2965 N   0  0  0  0  0  0  0  0  0  0  0  0
    8.5782  -15.1388   15.5242 C   0  0  0  0  0  0  0  0  0  0  0  0
    9.4380  -15.8496   14.8398 N   0  0  0  0  0  0  0  0  0  0  0  0
    7.7653  -15.8177   16.4634 N   0  0  0  0  0  0  0  0  0  0  0  0
    6.9850  -15.0322   17.3991 C   0  0  0  0  0  0  0  0  0  0  0  0
    7.6783  -13.7248   17.7610 C   0  0  0  0  0  0  0  0  0  0  0  0
    7.5922  -13.6051   19.2565 C   0  0  0  0  0  0  0  0  0  0  0  0
    8.7658  -14.1309   20.0027 C   0  0  2  0  0  0  0  0  0  0  0  0
    9.7454  -14.8193   19.2280 N   0  0  0  0  0  0  0  0  0  0  0  0
    8.3270  -14.9298   21.1954 C   0  0  0  0  0  0  0  0  0  0  0  0
    7.4524  -14.4999   21.9838 O   0  0  0  0  0  0  0  0  0  0  0  0
    9.5197  -16.8805   14.9860 N   0  0  0  0  0  0  0  0  0  0  0  0
    8.9034  -16.2028   21.4541 C   0  0  1  0  0  0  0  0  0  0  0  0
    8.6291  -17.0637   22.5494 C   0  0  0  0  0  0  0  0  0  0  0  0
    8.5523  -18.5449   22.2176 C   0  0  0  0  0  0  0  0  0  0  0  0
    8.0995  -19.3030   23.3993 C   0  0  0  0  0  0  0  0  0  0  0  0
    6.7270  -19.4738   23.5457 C   0  0  0  0  0  0  0  0  0  0  0  0
    6.1676  -20.1493   24.6079 C   0  0  0  0  0  0  0  0  0  0  0  0
    6.9932  -20.6836   25.5738 C   0  0  0  0  0  0  0  0  0  0  0  0
    8.3537  -20.5299   25.4548 C   0  0  0  0  0  0  0  0  0  0  0  0
    8.8844  -19.8434   24.3718 C   0  0  0  0  0  0  0  0  0  0  0  0
    9.4352  -16.7899   23.7498 O   0  0  0  0  0  0  0  0  0  0  0  0
   10.6627  -16.5264   23.6769 N   0  0  0  0  0  0  0  0  0  0  0  0
    8.8335  -16.8182   25.0278 C   0  0  1  0  0  0  0  0  0  0  0  0
    9.5623  -16.3089   26.1656 C   0  0  0  0  0  0  0  0  0  0  0  0
    8.5166  -15.8227   27.1569 C   0  0  0  0  0  0  0  0  0  0  0  0
    7.5565  -14.8725   26.5766 C   0  0  0  0  0  0  0  0  0  0  0  0
    6.3208  -15.1124   25.9975 N   0  0  0  0  0  0  0  0  0  0  0  0
    5.7890  -13.9447   25.5997 C   0  0  0  0  0  0  0  0  0  0  0  0
    6.6587  -12.9457   25.9104 C   0  0  0  0  0  0  0  0  0  0  0  0
    6.6076  -11.5671   25.7235 C   0  0  0  0  0  0  0  0  0  0  0  0
    7.6440  -10.7553   26.1373 C   0  0  0  0  0  0  0  0  0  0  0  0
    8.7481  -11.3154   26.7453 C   0  0  0  0  0  0  0  0  0  0  0  0
    8.8093  -12.6796   26.9354 C   0  0  0  0  0  0  0  0  0  0  0  0
    7.7614  -13.5030   26.5173 C   0  0  0  0  0  0  0  0  0  0  0  0
   10.4213  -17.3640   26.7671 O   0  0  0  0  0  0  0  0  0  0  0  0
   10.3965  -18.5672   26.4292 O   0  0  0  0  0  0  0  0  0  0  0  0
  2  3  2  0
  2  1  1  0
  4  2  1  0
  5  4  1  0
  6  5  1  0
  7  6  1  0
  8 10  1  0
  8  7  1  0
  8  9  1  6
 10 12  1  0
 11 10  2  0
 12 13  1  0
 13 14  1  6
 13 21  1  0
 15 14  1  0
 16 15  2  0
 17 16  1  0
 18 17  2  0
 18 19  1  0
 19 20  2  0
 20 15  1  0
 21 23  1  0
 21 22  2  0
 23 24  1  0
 24 35  1  0
 24 25  1  1
 26 27  2  0
 26 25  1  0
 28 27  1  0
 29 34  2  0
 29 28  1  0
 30 29  1  0
 31 32  1  0
 31 30  2  0
 32 33  2  0
 33 34  1  0
 34 26  1  0
 35 37  1  0
 36 35  2  0
M  END
$$$$
