RFW.pdb
     RDKit          3D

 37 39  0  0  1  0  0  0  0  0999 V2000
    6.7309  -14.0647   16.6967 N   0  0  0  0  0  0  0  0  0  0  0  0
    7.7938  -14.0557   15.7487 C   0  0  0  0  0  0  0  0  0  0  0  0
    8.1456  -12.9228   15.1956 N   0  0  0  0  0  0  0  0  0  0  0  0
    8.5013  -15.2205   15.3662 N   0  0  0  0  0  0  0  0  0  0  0  0
    8.1438  -16.4819   15.9847 C   0  0  0  0  0  0  0  0  0  0  0  0
    9.0071  -16.7828   17.2033 C   0  0  0  0  0  0  0  0  0  0  0  0
    8.2981  -17.8698   17.9608 C   0  0  0  0  0  0  0  0  0  0  0  0
    8.8688  -18.1869   19.2966 C   0  0  2  0  0  0  0  0  0  0  0  0
    8.2804  -19.2881   19.9855 N   0  0  0  0  0  0  0  0  0  0  0  0
    8.9372  -16.9568   20.1545 C   0  0  0  0  0  0  0  0  0  0  0  0
    9.7206  -16.0158   19.8860 O   0  0  0  0  0  0  0  0  0  0  0  0
    8.8361  -12.8992   14.4123 N   0  0  0  0  0  0  0  0  0  0  0  0
    8.1048  -16.8375   21.3002 C   0  0  1  0  0  0  0  0  0  0  0  0
    8.1116  -15.7932   22.2621 C   0  0  0  0  0  0  0  0  0  0  0  0
    6.8885  -15.7205   23.1615 C   0  0  0  0  0  0  0  0  0  0  0  0
    7.0397  -14.6175   24.1294 C   0  0  0  0  0  0  0  0  0  0  0  0
    6.6782  -14.8853   25.4454 C   0  0  0  0  0  0  0  0  0  0  0  0
    6.7570  -13.9436   26.4477 C   0  0  0  0  0  0  0  0  0  0  0  0
    7.2122  -12.6780   26.1460 C   0  0  0  0  0  0  0  0  0  0  0  0
    7.5762  -12.3854   24.8535 C   0  0  0  0  0  0  0  0  0  0  0  0
    7.4843  -13.3576   23.8675 C   0  0  0  0  0  0  0  0  0  0  0  0
    9.3745  -15.6658   23.0068 O   0  0  0  0  0  0  0  0  0  0  0  0
   10.0243  -14.5894   23.0289 N   0  0  0  0  0  0  0  0  0  0  0  0
    9.8879  -16.7701   23.7231 C   0  0  1  0  0  0  0  0  0  0  0  0
   11.1856  -16.6679   24.3482 C   0  0  0  0  0  0  0  0  0  0  0  0
   11.0728  -15.5588   25.3825 C   0  0  0  0  0  0  0  0  0  0  0  0
   10.6529  -16.0352   26.7085 C   0  0  0  0  0  0  0  0  0  0  0  0
   10.3994  -17.3271   27.1404 N   0  0  0  0  0  0  0  0  0  0  0  0
   10.0383  -17.2939   28.4339 C   0  0  0  0  0  0  0  0  0  0  0  0
   10.0522  -15.9998   28.8533 C   0  0  0  0  0  0  0  0  0  0  0  0
    9.7659  -15.4097   30.0813 C   0  0  0  0  0  0  0  0  0  0  0  0
    9.8569  -14.0432   30.2512 C   0  0  0  0  0  0  0  0  0  0  0  0
   10.2370  -13.2479   29.1903 C   0  0  0  0  0  0  0  0  0  0  0  0
   10.5230  -13.8217   27.9697 C   0  0  0  0  0  0  0  0  0  0  0  0
   10.4314  -15.2045   27.7957 C   0  0  0  0  0  0  0  0  0  0  0  0
   11.5769  -17.9550   24.9831 O   0  0  0  0  0  0  0  0  0  0  0  0
   10.7923  -18.9078   25.1810 O   0  0  0  0  0  0  0  0  0  0  0  0
  2  3  2  0
  2  1  1  0
  4  2  1  0
  5  4  1  0
  6  5  1  0
  7  6  1  0
  8 10  1  0
  8  7  1  0
  8  9  1  1
 10 12  1  0
 11 10  2  0
 12 13  1  0
 13 14  1  1
 13 21  1  0
 15 14  1  0
 16 15  2  0
 17 16  1  0
 18 17  2  0
 18 19  1  0
 19 20  2  0
 20 15  1  0
 21 23  1  0
 21 22  2  0
 23 24  1  0
 24 35  1  0
 24 25  1  6
 26 27  2  0
 26 25  1  0
 28 27  1  0
 29 34  2  0
 29 28  1  0
 30 29  1  0
 31 32  1  0
 31 30  2  0
 32 33  2  0
 33 34  1  0
 34 26  1  0
 35 37  1  0
 36 35  2  0
M  END
$$$$
