RFW.pdb
     RDKit          3D

 37 39  0  0  1  0  0  0  0  0999 V2000
   12.5410  -21.8038   15.1443 N   0  0  0  0  0  0  0  0  0  0  0  0
   12.5027  -20.5841   14.4098 C   0  0  0  0  0  0  0  0  0  0  0  0
   13.4127  -20.3609   13.4959 N   0  0  0  0  0  0  0  0  0  0  0  0
   11.5207  -19.5856   14.6159 N   0  0  0  0  0  0  0  0  0  0  0  0
   10.5030  -19.8130   15.6228 C   0  0  0  0  0  0  0  0  0  0  0  0
   11.0686  -20.5033   16.8575 C   0  0  0  0  0  0  0  0  0  0  0  0
   11.3452  -19.4149   17.8560 C   0  0  0  0  0  0  0  0  0  0  0  0
   10.6622  -19.5700   19.1675 C   0  0  2  0  0  0  0  0  0  0  0  0
    9.4060  -20.2444   19.1454 N   0  0  0  0  0  0  0  0  0  0  0  0
   10.5836  -18.2555   19.8882 C   0  0  0  0  0  0  0  0  0  0  0  0
   11.6042  -17.5533   20.0795 O   0  0  0  0  0  0  0  0  0  0  0  0
   13.3991  -19.4852   12.9271 N   0  0  0  0  0  0  0  0  0  0  0  0
    9.3350  -17.7794   20.3722 C   0  0  1  0  0  0  0  0  0  0  0  0
    9.0773  -16.5359   21.0071 C   0  0  0  0  0  0  0  0  0  0  0  0
    7.6147  -16.1310   21.0895 C   0  0  0  0  0  0  0  0  0  0  0  0
    7.5037  -14.7350   21.5533 C   0  0  0  0  0  0  0  0  0  0  0  0
    8.0078  -13.7523   20.7080 C   0  0  0  0  0  0  0  0  0  0  0  0
    7.9807  -12.4114   21.0221 C   0  0  0  0  0  0  0  0  0  0  0  0
    7.4329  -12.0139   22.2230 C   0  0  0  0  0  0  0  0  0  0  0  0
    6.9274  -12.9636   23.0780 C   0  0  0  0  0  0  0  0  0  0  0  0
    6.9708  -14.3065   22.7306 C   0  0  0  0  0  0  0  0  0  0  0  0
    9.7931  -16.3471   22.2790 O   0  0  0  0  0  0  0  0  0  0  0  0
   10.7831  -15.5774   22.3736 N   0  0  0  0  0  0  0  0  0  0  0  0
    9.3727  -17.0390   23.4369 C   0  0  1  0  0  0  0  0  0  0  0  0
    9.9959  -16.7420   24.7052 C   0  0  0  0  0  0  0  0  0  0  0  0
    9.7864  -15.2548   24.9436 C   0  0  0  0  0  0  0  0  0  0  0  0
    8.3747  -14.8824   25.1159 C   0  0  0  0  0  0  0  0  0  0  0  0
    7.2470  -15.6874   25.1292 N   0  0  0  0  0  0  0  0  0  0  0  0
    6.1613  -14.9180   25.3137 C   0  0  0  0  0  0  0  0  0  0  0  0
    6.5630  -13.6226   25.4211 C   0  0  0  0  0  0  0  0  0  0  0  0
    5.8602  -12.4368   25.6164 C   0  0  0  0  0  0  0  0  0  0  0  0
    6.5173  -11.2256   25.6906 C   0  0  0  0  0  0  0  0  0  0  0  0
    7.8908  -11.1863   25.5698 C   0  0  0  0  0  0  0  0  0  0  0  0
    8.5969  -12.3545   25.3762 C   0  0  0  0  0  0  0  0  0  0  0  0
    7.9336  -13.5815   25.3007 C   0  0  0  0  0  0  0  0  0  0  0  0
    9.3941  -17.5502   25.7996 O   0  0  0  0  0  0  0  0  0  0  0  0
    8.3718  -18.2577   25.6699 O   0  0  0  0  0  0  0  0  0  0  0  0
  2  3  2  0
  2  1  1  0
  4  2  1  0
  5  4  1  0
  6  5  1  0
  7  6  1  0
  8 10  1  0
  8  7  1  0
  8  9  1  6
 10 12  1  0
 11 10  2  0
 12 13  1  0
 13 14  1  1
 13 21  1  0
 15 14  1  0
 16 15  2  0
 17 16  1  0
 18 17  2  0
 18 19  1  0
 19 20  2  0
 20 15  1  0
 21 23  1  0
 21 22  2  0
 23 24  1  0
 24 35  1  0
 24 25  1  1
 26 27  2  0
 26 25  1  0
 28 27  1  0
 29 34  2  0
 29 28  1  0
 30 29  1  0
 31 32  1  0
 31 30  2  0
 32 33  2  0
 33 34  1  0
 34 26  1  0
 35 37  1  0
 36 35  2  0
M  END
$$$$
