RFW.pdb
     RDKit          3D

 37 39  0  0  1  0  0  0  0  0999 V2000
    9.7038  -13.9632   16.0679 N   0  0  0  0  0  0  0  0  0  0  0  0
    8.4536  -14.1329   16.7288 C   0  0  0  0  0  0  0  0  0  0  0  0
    7.4300  -14.5863   16.0508 N   0  0  0  0  0  0  0  0  0  0  0  0
    8.2539  -13.8346   18.0981 N   0  0  0  0  0  0  0  0  0  0  0  0
    9.2981  -14.1820   19.0417 C   0  0  0  0  0  0  0  0  0  0  0  0
    9.6630  -15.6592   18.9679 C   0  0  0  0  0  0  0  0  0  0  0  0
    9.3100  -16.2452   20.3059 C   0  0  0  0  0  0  0  0  0  0  0  0
    9.7800  -15.4667   21.4823 C   0  0  2  0  0  0  0  0  0  0  0  0
   11.0310  -14.7986   21.3339 N   0  0  0  0  0  0  0  0  0  0  0  0
    9.7306  -16.3005   22.7296 C   0  0  0  0  0  0  0  0  0  0  0  0
    8.8486  -17.1754   22.8961 O   0  0  0  0  0  0  0  0  0  0  0  0
    6.5280  -14.8116   16.5266 N   0  0  0  0  0  0  0  0  0  0  0  0
   10.6951  -16.1090   23.7557 C   0  0  2  0  0  0  0  0  0  0  0  0
   10.7958  -16.8159   24.9829 C   0  0  0  0  0  0  0  0  0  0  0  0
   11.9582  -16.4171   25.8773 C   0  0  0  0  0  0  0  0  0  0  0  0
   11.4617  -15.6564   27.0396 C   0  0  0  0  0  0  0  0  0  0  0  0
   10.8376  -14.4424   26.7732 C   0  0  0  0  0  0  0  0  0  0  0  0
   10.3393  -13.6257   27.7643 C   0  0  0  0  0  0  0  0  0  0  0  0
   10.4581  -14.0176   29.0805 C   0  0  0  0  0  0  0  0  0  0  0  0
   11.0705  -15.2126   29.3730 C   0  0  0  0  0  0  0  0  0  0  0  0
   11.5619  -16.0115   28.3501 C   0  0  0  0  0  0  0  0  0  0  0  0
    9.5263  -16.9345   25.7178 O   0  0  0  0  0  0  0  0  0  0  0  0
    9.2138  -16.1308   26.6332 N   0  0  0  0  0  0  0  0  0  0  0  0
    8.6202  -17.9714   25.4019 C   0  0  1  0  0  0  0  0  0  0  0  0
    7.5990  -18.3351   26.3559 C   0  0  0  0  0  0  0  0  0  0  0  0
    6.5273  -17.2604   26.2617 C   0  0  0  0  0  0  0  0  0  0  0  0
    6.6515  -16.4126   25.0670 C   0  0  0  0  0  0  0  0  0  0  0  0
    6.9030  -16.7740   23.7532 N   0  0  0  0  0  0  0  0  0  0  0  0
    6.9343  -15.6672   22.9924 C   0  0  0  0  0  0  0  0  0  0  0  0
    6.7067  -14.5885   23.7896 C   0  0  0  0  0  0  0  0  0  0  0  0
    6.6335  -13.2243   23.5217 C   0  0  0  0  0  0  0  0  0  0  0  0
    6.3860  -12.3147   24.5296 C   0  0  0  0  0  0  0  0  0  0  0  0
    6.2081  -12.7611   25.8225 C   0  0  0  0  0  0  0  0  0  0  0  0
    6.2785  -14.1100   26.0992 C   0  0  0  0  0  0  0  0  0  0  0  0
    6.5290  -15.0321   25.0805 C   0  0  0  0  0  0  0  0  0  0  0  0
    7.0381  -19.6793   26.0533 O   0  0  0  0  0  0  0  0  0  0  0  0
    5.8802  -19.8774   25.6262 O   0  0  0  0  0  0  0  0  0  0  0  0
  2  3  2  0
  2  1  1  0
  4  2  1  0
  5  4  1  0
  6  5  1  0
  7  6  1  0
  8 10  1  0
  8  7  1  0
  8  9  1  6
 10 12  1  0
 11 10  2  0
 12 13  1  0
 13 14  1  6
 13 21  1  0
 15 14  1  0
 16 15  2  0
 17 16  1  0
 18 17  2  0
 18 19  1  0
 19 20  2  0
 20 15  1  0
 21 23  1  0
 21 22  2  0
 23 24  1  0
 24 35  1  0
 24 25  1  1
 26 27  2  0
 26 25  1  0
 28 27  1  0
 29 34  2  0
 29 28  1  0
 30 29  1  0
 31 32  1  0
 31 30  2  0
 32 33  2  0
 33 34  1  0
 34 26  1  0
 35 37  1  0
 36 35  2  0
M  END
$$$$
