RFW.pdb
     RDKit          3D

 37 39  0  0  1  0  0  0  0  0999 V2000
    7.7322  -15.7878   14.0988 N   0  0  0  0  0  0  0  0  0  0  0  0
    8.9006  -15.0627   14.4697 C   0  0  0  0  0  0  0  0  0  0  0  0
    8.9162  -13.7618   14.3265 N   0  0  0  0  0  0  0  0  0  0  0  0
   10.0625  -15.6795   14.9924 N   0  0  0  0  0  0  0  0  0  0  0  0
   10.0476  -17.1128   15.2087 C   0  0  0  0  0  0  0  0  0  0  0  0
    9.4607  -17.4770   16.5666 C   0  0  0  0  0  0  0  0  0  0  0  0
   10.5733  -18.1212   17.3446 C   0  0  0  0  0  0  0  0  0  0  0  0
   10.2120  -18.5658   18.7166 C   0  0  2  0  0  0  0  0  0  0  0  0
    8.8656  -18.9970   18.9028 N   0  0  0  0  0  0  0  0  0  0  0  0
   10.6222  -17.5426   19.7356 C   0  0  0  0  0  0  0  0  0  0  0  0
   11.8092  -17.1500   19.8260 O   0  0  0  0  0  0  0  0  0  0  0  0
    9.7506  -13.2004   14.6084 N   0  0  0  0  0  0  0  0  0  0  0  0
    9.6594  -16.9954   20.6264 C   0  0  1  0  0  0  0  0  0  0  0  0
    9.8847  -16.0448   21.6567 C   0  0  0  0  0  0  0  0  0  0  0  0
    8.6403  -15.3755   22.2166 C   0  0  0  0  0  0  0  0  0  0  0  0
    8.0506  -14.4802   21.2032 C   0  0  0  0  0  0  0  0  0  0  0  0
    6.9481  -14.9631   20.5064 C   0  0  0  0  0  0  0  0  0  0  0  0
    6.3084  -14.2378   19.5255 C   0  0  0  0  0  0  0  0  0  0  0  0
    6.7714  -12.9779   19.2121 C   0  0  0  0  0  0  0  0  0  0  0  0
    7.8595  -12.4754   19.8846 C   0  0  0  0  0  0  0  0  0  0  0  0
    8.4808  -13.2328   20.8674 C   0  0  0  0  0  0  0  0  0  0  0  0
   10.8082  -16.5006   22.7080 O   0  0  0  0  0  0  0  0  0  0  0  0
   12.0368  -16.2351   22.6706 N   0  0  0  0  0  0  0  0  0  0  0  0
   10.3218  -17.2575   23.7974 C   0  0  1  0  0  0  0  0  0  0  0  0
   10.2480  -16.6501   25.1054 C   0  0  0  0  0  0  0  0  0  0  0  0
    9.3948  -15.4014   24.9464 C   0  0  0  0  0  0  0  0  0  0  0  0
    9.1516  -14.6932   26.2117 C   0  0  0  0  0  0  0  0  0  0  0  0
    9.6547  -14.9523   27.4765 N   0  0  0  0  0  0  0  0  0  0  0  0
    9.1604  -14.0482   28.3384 C   0  0  0  0  0  0  0  0  0  0  0  0
    8.3422  -13.2025   27.6556 C   0  0  0  0  0  0  0  0  0  0  0  0
    7.5861  -12.1040   28.0552 C   0  0  0  0  0  0  0  0  0  0  0  0
    6.8224  -11.3991   27.1473 C   0  0  0  0  0  0  0  0  0  0  0  0
    6.8061  -11.7865   25.8236 C   0  0  0  0  0  0  0  0  0  0  0  0
    7.5511  -12.8729   25.4168 C   0  0  0  0  0  0  0  0  0  0  0  0
    8.3247  -13.5877   26.3342 C   0  0  0  0  0  0  0  0  0  0  0  0
    9.6507  -17.5847   26.0967 O   0  0  0  0  0  0  0  0  0  0  0  0
    9.8975  -17.5610   27.3219 O   0  0  0  0  0  0  0  0  0  0  0  0
  2  3  2  0
  2  1  1  0
  4  2  1  0
  5  4  1  0
  6  5  1  0
  7  6  1  0
  8 10  1  0
  8  7  1  0
  8  9  1  6
 10 12  1  0
 11 10  2  0
 12 13  1  0
 13 14  1  1
 13 21  1  0
 15 14  1  0
 16 15  2  0
 17 16  1  0
 18 17  2  0
 18 19  1  0
 19 20  2  0
 20 15  1  0
 21 23  1  0
 21 22  2  0
 23 24  1  0
 24 35  1  0
 24 25  1  1
 26 27  2  0
 26 25  1  0
 28 27  1  0
 29 34  2  0
 29 28  1  0
 30 29  1  0
 31 32  1  0
 31 30  2  0
 32 33  2  0
 33 34  1  0
 34 26  1  0
 35 37  1  0
 36 35  2  0
M  END
$$$$
