RFW.pdb
     RDKit          3D

 37 39  0  0  1  0  0  0  0  0999 V2000
    7.7570  -13.9903   19.2213 N   0  0  0  0  0  0  0  0  0  0  0  0
    8.0376  -13.4882   17.9184 C   0  0  0  0  0  0  0  0  0  0  0  0
    7.2802  -12.5431   17.4222 N   0  0  0  0  0  0  0  0  0  0  0  0
    9.1057  -13.9610   17.1188 N   0  0  0  0  0  0  0  0  0  0  0  0
   10.0159  -14.9364   17.6859 C   0  0  0  0  0  0  0  0  0  0  0  0
    9.6798  -16.3541   17.2410 C   0  0  0  0  0  0  0  0  0  0  0  0
   10.4486  -17.2716   18.1494 C   0  0  0  0  0  0  0  0  0  0  0  0
    9.6682  -17.8470   19.2766 C   0  0  2  0  0  0  0  0  0  0  0  0
    8.3218  -18.2152   18.9847 N   0  0  0  0  0  0  0  0  0  0  0  0
    9.7623  -16.9728   20.4933 C   0  0  0  0  0  0  0  0  0  0  0  0
   10.8544  -16.4785   20.8597 O   0  0  0  0  0  0  0  0  0  0  0  0
    7.4773  -12.1355   16.4811 N   0  0  0  0  0  0  0  0  0  0  0  0
    8.6001  -16.6880   21.2602 C   0  0  1  0  0  0  0  0  0  0  0  0
    8.5051  -15.8359   22.3919 C   0  0  0  0  0  0  0  0  0  0  0  0
    7.1420  -15.7835   23.0622 C   0  0  0  0  0  0  0  0  0  0  0  0
    7.1607  -14.8051   24.1661 C   0  0  0  0  0  0  0  0  0  0  0  0
    7.5764  -13.5154   23.8529 C   0  0  0  0  0  0  0  0  0  0  0  0
    7.6535  -12.5077   24.7890 C   0  0  0  0  0  0  0  0  0  0  0  0
    7.3063  -12.7768   26.0955 C   0  0  0  0  0  0  0  0  0  0  0  0
    6.8920  -14.0428   26.4336 C   0  0  0  0  0  0  0  0  0  0  0  0
    6.8260  -15.0351   25.4657 C   0  0  0  0  0  0  0  0  0  0  0  0
    9.6079  -15.9849   23.3548 O   0  0  0  0  0  0  0  0  0  0  0  0
   10.4318  -15.0587   23.5663 N   0  0  0  0  0  0  0  0  0  0  0  0
    9.7629  -17.1925   24.0718 C   0  0  1  0  0  0  0  0  0  0  0  0
   11.0516  -17.5229   24.6330 C   0  0  0  0  0  0  0  0  0  0  0  0
   11.3771  -16.4202   25.6282 C   0  0  0  0  0  0  0  0  0  0  0  0
   10.6317  -16.5317   26.8906 C   0  0  0  0  0  0  0  0  0  0  0  0
   10.0440  -17.6444   27.4707 N   0  0  0  0  0  0  0  0  0  0  0  0
    9.4654  -17.2815   28.6275 C   0  0  0  0  0  0  0  0  0  0  0  0
    9.6665  -15.9487   28.8117 C   0  0  0  0  0  0  0  0  0  0  0  0
    9.2859  -15.0751   29.8266 C   0  0  0  0  0  0  0  0  0  0  0  0
    9.6218  -13.7376   29.7758 C   0  0  0  0  0  0  0  0  0  0  0  0
   10.3454  -13.2564   28.7047 C   0  0  0  0  0  0  0  0  0  0  0  0
   10.7277  -14.1126   27.6939 C   0  0  0  0  0  0  0  0  0  0  0  0
   10.3886  -15.4666   27.7434 C   0  0  0  0  0  0  0  0  0  0  0  0
   11.0206  -18.8532   25.2983 O   0  0  0  0  0  0  0  0  0  0  0  0
    9.9839  -19.5315   25.4645 O   0  0  0  0  0  0  0  0  0  0  0  0
  2  3  2  0
  2  1  1  0
  4  2  1  0
  5  4  1  0
  6  5  1  0
  7  6  1  0
  8 10  1  0
  8  7  1  0
  8  9  1  6
 10 12  1  0
 11 10  2  0
 12 13  1  0
 13 14  1  1
 13 21  1  0
 15 14  1  0
 16 15  2  0
 17 16  1  0
 18 17  2  0
 18 19  1  0
 19 20  2  0
 20 15  1  0
 21 23  1  0
 21 22  2  0
 23 24  1  0
 24 35  1  0
 24 25  1  6
 26 27  2  0
 26 25  1  0
 28 27  1  0
 29 34  2  0
 29 28  1  0
 30 29  1  0
 31 32  1  0
 31 30  2  0
 32 33  2  0
 33 34  1  0
 34 26  1  0
 35 37  1  0
 36 35  2  0
M  END
$$$$
