RFW.pdb
     RDKit          3D

 37 39  0  0  1  0  0  0  0  0999 V2000
    9.3736  -12.7137   17.3324 N   0  0  0  0  0  0  0  0  0  0  0  0
    8.4370  -13.1510   16.3526 C   0  0  0  0  0  0  0  0  0  0  0  0
    8.8104  -13.2218   15.1001 N   0  0  0  0  0  0  0  0  0  0  0  0
    7.1058  -13.5191   16.6624 N   0  0  0  0  0  0  0  0  0  0  0  0
    6.8247  -14.9081   16.9671 C   0  0  0  0  0  0  0  0  0  0  0  0
    7.6016  -15.3917   18.1851 C   0  0  0  0  0  0  0  0  0  0  0  0
    7.1813  -16.8166   18.4113 C   0  0  0  0  0  0  0  0  0  0  0  0
    7.8278  -17.4918   19.5676 C   0  0  2  0  0  0  0  0  0  0  0  0
    7.5152  -18.8719   19.7438 N   0  0  0  0  0  0  0  0  0  0  0  0
    7.6263  -16.7027   20.8286 C   0  0  0  0  0  0  0  0  0  0  0  0
    6.5417  -16.1226   21.0700 O   0  0  0  0  0  0  0  0  0  0  0  0
    8.1360  -13.5023   14.3536 N   0  0  0  0  0  0  0  0  0  0  0  0
    8.6754  -16.5985   21.7816 C   0  0  1  0  0  0  0  0  0  0  0  0
    8.6389  -15.9213   23.0290 C   0  0  0  0  0  0  0  0  0  0  0  0
    7.3946  -16.1585   23.8691 C   0  0  0  0  0  0  0  0  0  0  0  0
    7.1234  -14.9787   24.7121 C   0  0  0  0  0  0  0  0  0  0  0  0
    7.2359  -13.7339   24.1020 C   0  0  0  0  0  0  0  0  0  0  0  0
    7.0229  -12.5508   24.7745 C   0  0  0  0  0  0  0  0  0  0  0  0
    6.6832  -12.5890   26.1099 C   0  0  0  0  0  0  0  0  0  0  0  0
    6.5653  -13.8054   26.7386 C   0  0  0  0  0  0  0  0  0  0  0  0
    6.7869  -14.9787   26.0314 C   0  0  0  0  0  0  0  0  0  0  0  0
    9.8818  -16.0259   23.8100 O   0  0  0  0  0  0  0  0  0  0  0  0
   10.7861  -15.1553   23.7347 N   0  0  0  0  0  0  0  0  0  0  0  0
   10.0842  -17.1254   24.6739 C   0  0  1  0  0  0  0  0  0  0  0  0
   11.3989  -17.3637   25.2214 C   0  0  0  0  0  0  0  0  0  0  0  0
   11.7333  -16.1462   26.0690 C   0  0  0  0  0  0  0  0  0  0  0  0
   11.1044  -16.1669   27.3977 C   0  0  0  0  0  0  0  0  0  0  0  0
   11.0423  -17.1933   28.3265 N   0  0  0  0  0  0  0  0  0  0  0  0
   10.3638  -16.7679   29.4051 C   0  0  0  0  0  0  0  0  0  0  0  0
    9.9819  -15.4792   29.1948 C   0  0  0  0  0  0  0  0  0  0  0  0
    9.2668  -14.5746   29.9748 C   0  0  0  0  0  0  0  0  0  0  0  0
    9.0052  -13.2976   29.5219 C   0  0  0  0  0  0  0  0  0  0  0  0
    9.4579  -12.9089   28.2783 C   0  0  0  0  0  0  0  0  0  0  0  0
   10.1672  -13.7966   27.4974 C   0  0  0  0  0  0  0  0  0  0  0  0
   10.4329  -15.0896   27.9539 C   0  0  0  0  0  0  0  0  0  0  0  0
   11.4217  -18.6073   26.0373 O   0  0  0  0  0  0  0  0  0  0  0  0
   12.4332  -19.0394   26.6313 O   0  0  0  0  0  0  0  0  0  0  0  0
  2  3  2  0
  2  1  1  0
  4  2  1  0
  5  4  1  0
  6  5  1  0
  7  6  1  0
  8 10  1  0
  8  7  1  0
  8  9  1  1
 10 12  1  0
 11 10  2  0
 12 13  1  0
 13 14  1  1
 13 21  1  0
 15 14  1  0
 16 15  2  0
 17 16  1  0
 18 17  2  0
 18 19  1  0
 19 20  2  0
 20 15  1  0
 21 23  1  0
 21 22  2  0
 23 24  1  0
 24 35  1  0
 24 25  1  1
 26 27  2  0
 26 25  1  0
 28 27  1  0
 29 34  2  0
 29 28  1  0
 30 29  1  0
 31 32  1  0
 31 30  2  0
 32 33  2  0
 33 34  1  0
 34 26  1  0
 35 37  1  0
 36 35  2  0
M  END
$$$$
