RFW.pdb
     RDKit          3D

 37 39  0  0  1  0  0  0  0  0999 V2000
    5.2014  -19.1327   18.3898 N   0  0  0  0  0  0  0  0  0  0  0  0
    6.1406  -20.1809   18.1715 C   0  0  0  0  0  0  0  0  0  0  0  0
    6.1112  -20.8383   17.0401 N   0  0  0  0  0  0  0  0  0  0  0  0
    7.1184  -20.5564   19.1236 N   0  0  0  0  0  0  0  0  0  0  0  0
    7.0528  -19.9742   20.4496 C   0  0  0  0  0  0  0  0  0  0  0  0
    8.2770  -19.1212   20.7574 C   0  0  0  0  0  0  0  0  0  0  0  0
    8.0340  -17.7892   20.1056 C   0  0  0  0  0  0  0  0  0  0  0  0
    9.1066  -16.7797   20.3083 C   0  0  2  0  0  0  0  0  0  0  0  0
   10.4169  -17.1648   19.8980 N   0  0  0  0  0  0  0  0  0  0  0  0
    9.0878  -16.2545   21.7145 C   0  0  0  0  0  0  0  0  0  0  0  0
    9.8384  -16.7289   22.5992 O   0  0  0  0  0  0  0  0  0  0  0  0
    6.8101  -21.5870   16.8357 N   0  0  0  0  0  0  0  0  0  0  0  0
    8.2070  -15.1975   22.0708 C   0  0  2  0  0  0  0  0  0  0  0  0
    8.0828  -14.5737   23.3402 C   0  0  0  0  0  0  0  0  0  0  0  0
    7.2248  -13.3196   23.3747 C   0  0  0  0  0  0  0  0  0  0  0  0
    7.2543  -12.7261   24.7249 C   0  0  0  0  0  0  0  0  0  0  0  0
    8.2917  -11.8406   24.9971 C   0  0  0  0  0  0  0  0  0  0  0  0
    8.4463  -11.2247   26.2195 C   0  0  0  0  0  0  0  0  0  0  0  0
    7.5404  -11.4894   27.2242 C   0  0  0  0  0  0  0  0  0  0  0  0
    6.5053  -12.3607   26.9832 C   0  0  0  0  0  0  0  0  0  0  0  0
    6.3788  -12.9642   25.7400 C   0  0  0  0  0  0  0  0  0  0  0  0
    7.7806  -15.5011   24.4422 O   0  0  0  0  0  0  0  0  0  0  0  0
    6.6370  -16.0027   24.5905 N   0  0  0  0  0  0  0  0  0  0  0  0
    8.7881  -15.8508   25.3689 C   0  0  1  0  0  0  0  0  0  0  0  0
    8.4850  -16.7877   26.4251 C   0  0  0  0  0  0  0  0  0  0  0  0
    8.0674  -18.0796   25.7402 C   0  0  0  0  0  0  0  0  0  0  0  0
    7.7490  -19.1643   26.6801 C   0  0  0  0  0  0  0  0  0  0  0  0
    6.8646  -19.1739   27.7467 N   0  0  0  0  0  0  0  0  0  0  0  0
    6.8975  -20.3823   28.3326 C   0  0  0  0  0  0  0  0  0  0  0  0
    7.7900  -21.1622   27.6646 C   0  0  0  0  0  0  0  0  0  0  0  0
    8.2054  -22.4782   27.8477 C   0  0  0  0  0  0  0  0  0  0  0  0
    9.1460  -23.0487   27.0145 C   0  0  0  0  0  0  0  0  0  0  0  0
    9.6841  -22.3062   25.9841 C   0  0  0  0  0  0  0  0  0  0  0  0
    9.2800  -21.0019   25.7935 C   0  0  0  0  0  0  0  0  0  0  0  0
    8.3281  -20.4227   26.6358 C   0  0  0  0  0  0  0  0  0  0  0  0
    9.6657  -17.0043   27.3037 O   0  0  0  0  0  0  0  0  0  0  0  0
    9.6143  -17.5479   28.4282 O   0  0  0  0  0  0  0  0  0  0  0  0
  2  3  2  0
  2  1  1  0
  4  2  1  0
  5  4  1  0
  6  5  1  0
  7  6  1  0
  8 10  1  0
  8  7  1  0
  8  9  1  1
 10 12  1  0
 11 10  2  0
 12 13  1  0
 13 14  1  6
 13 21  1  0
 15 14  1  0
 16 15  2  0
 17 16  1  0
 18 17  2  0
 18 19  1  0
 19 20  2  0
 20 15  1  0
 21 23  1  0
 21 22  2  0
 23 24  1  0
 24 35  1  0
 24 25  1  1
 26 27  2  0
 26 25  1  0
 28 27  1  0
 29 34  2  0
 29 28  1  0
 30 29  1  0
 31 32  1  0
 31 30  2  0
 32 33  2  0
 33 34  1  0
 34 26  1  0
 35 37  1  0
 36 35  2  0
M  END
$$$$
