RFW.pdb
     RDKit          3D

 37 39  0  0  1  0  0  0  0  0999 V2000
    9.4035  -14.7717   14.4632 N   0  0  0  0  0  0  0  0  0  0  0  0
    8.1542  -14.0903   14.5201 C   0  0  0  0  0  0  0  0  0  0  0  0
    7.3292  -14.1852   13.5085 N   0  0  0  0  0  0  0  0  0  0  0  0
    7.7491  -13.3049   15.6260 N   0  0  0  0  0  0  0  0  0  0  0  0
    8.5469  -13.3490   16.8355 C   0  0  0  0  0  0  0  0  0  0  0  0
    8.6505  -14.7613   17.3973 C   0  0  0  0  0  0  0  0  0  0  0  0
    9.3087  -14.6299   18.7419 C   0  0  0  0  0  0  0  0  0  0  0  0
    9.4628  -15.9005   19.4986 C   0  0  2  0  0  0  0  0  0  0  0  0
    8.4603  -16.8898   19.2753 N   0  0  0  0  0  0  0  0  0  0  0  0
    9.6722  -15.6302   20.9603 C   0  0  0  0  0  0  0  0  0  0  0  0
   10.7064  -15.0576   21.3772 O   0  0  0  0  0  0  0  0  0  0  0  0
    6.3882  -13.7331   13.5386 N   0  0  0  0  0  0  0  0  0  0  0  0
    8.6892  -16.0246   21.9079 C   0  0  1  0  0  0  0  0  0  0  0  0
    8.3838  -15.3932   23.1424 C   0  0  0  0  0  0  0  0  0  0  0  0
    6.9400  -14.9506   23.3145 C   0  0  0  0  0  0  0  0  0  0  0  0
    6.7636  -14.3076   24.6304 C   0  0  0  0  0  0  0  0  0  0  0  0
    7.1313  -12.9699   24.7281 C   0  0  0  0  0  0  0  0  0  0  0  0
    7.0310  -12.2515   25.8992 C   0  0  0  0  0  0  0  0  0  0  0  0
    6.5469  -12.8742   27.0296 C   0  0  0  0  0  0  0  0  0  0  0  0
    6.1761  -14.1958   26.9621 C   0  0  0  0  0  0  0  0  0  0  0  0
    6.2902  -14.8904   25.7661 C   0  0  0  0  0  0  0  0  0  0  0  0
    8.9098  -16.0930   24.3254 O   0  0  0  0  0  0  0  0  0  0  0  0
    9.1082  -15.4956   25.4141 N   0  0  0  0  0  0  0  0  0  0  0  0
    9.2057  -17.4729   24.2577 C   0  0  1  0  0  0  0  0  0  0  0  0
   10.4853  -17.9471   24.7300 C   0  0  0  0  0  0  0  0  0  0  0  0
   11.2366  -16.7211   25.2247 C   0  0  0  0  0  0  0  0  0  0  0  0
   11.1288  -16.5143   26.6763 C   0  0  0  0  0  0  0  0  0  0  0  0
   11.3394  -17.4110   27.7114 N   0  0  0  0  0  0  0  0  0  0  0  0
   11.1241  -16.7878   28.8819 C   0  0  0  0  0  0  0  0  0  0  0  0
   10.7762  -15.4976   28.6267 C   0  0  0  0  0  0  0  0  0  0  0  0
   10.4502  -14.4324   29.4617 C   0  0  0  0  0  0  0  0  0  0  0  0
   10.1261  -13.1957   28.9421 C   0  0  0  0  0  0  0  0  0  0  0  0
   10.1244  -13.0095   27.5754 C   0  0  0  0  0  0  0  0  0  0  0  0
   10.4457  -14.0574   26.7390 C   0  0  0  0  0  0  0  0  0  0  0  0
   10.7739  -15.3099   27.2631 C   0  0  0  0  0  0  0  0  0  0  0  0
   10.3170  -18.9477   25.8178 O   0  0  0  0  0  0  0  0  0  0  0  0
    9.2164  -19.2585   26.3224 O   0  0  0  0  0  0  0  0  0  0  0  0
  2  3  2  0
  2  1  1  0
  4  2  1  0
  5  4  1  0
  6  5  1  0
  7  6  1  0
  8 10  1  0
  8  7  1  0
  8  9  1  1
 10 12  1  0
 11 10  2  0
 12 13  1  0
 13 14  1  1
 13 21  1  0
 15 14  1  0
 16 15  2  0
 17 16  1  0
 18 17  2  0
 18 19  1  0
 19 20  2  0
 20 15  1  0
 21 23  1  0
 21 22  2  0
 23 24  1  0
 24 35  1  0
 24 25  1  6
 26 27  2  0
 26 25  1  0
 28 27  1  0
 29 34  2  0
 29 28  1  0
 30 29  1  0
 31 32  1  0
 31 30  2  0
 32 33  2  0
 33 34  1  0
 34 26  1  0
 35 37  1  0
 36 35  2  0
M  END
$$$$
