RFW.pdb
     RDKit          3D

 37 39  0  0  1  0  0  0  0  0999 V2000
   10.8327  -15.1217   12.1085 N   0  0  0  0  0  0  0  0  0  0  0  0
   10.0783  -16.0482   12.8837 C   0  0  0  0  0  0  0  0  0  0  0  0
    9.0804  -16.6841   12.3245 N   0  0  0  0  0  0  0  0  0  0  0  0
   10.3519  -16.3236   14.2450 N   0  0  0  0  0  0  0  0  0  0  0  0
    9.4487  -17.1955   14.9699 C   0  0  0  0  0  0  0  0  0  0  0  0
    8.6553  -16.4394   16.0281 C   0  0  0  0  0  0  0  0  0  0  0  0
    9.6066  -16.1863   17.1635 C   0  0  0  0  0  0  0  0  0  0  0  0
    9.3845  -17.0206   18.3740 C   0  0  2  0  0  0  0  0  0  0  0  0
    8.2417  -17.8731   18.3479 N   0  0  0  0  0  0  0  0  0  0  0  0
    9.4335  -16.1816   19.6179 C   0  0  0  0  0  0  0  0  0  0  0  0
   10.4429  -15.4957   19.9039 O   0  0  0  0  0  0  0  0  0  0  0  0
    8.8421  -16.5314   11.3192 N   0  0  0  0  0  0  0  0  0  0  0  0
    8.3224  -16.1513   20.5036 C   0  0  1  0  0  0  0  0  0  0  0  0
    8.2122  -15.4258   21.7191 C   0  0  0  0  0  0  0  0  0  0  0  0
    6.8600  -15.5013   22.4090 C   0  0  0  0  0  0  0  0  0  0  0  0
    6.7846  -14.4915   23.4817 C   0  0  0  0  0  0  0  0  0  0  0  0
    6.2368  -14.9033   24.6919 C   0  0  0  0  0  0  0  0  0  0  0  0
    6.0949  -14.0608   25.7725 C   0  0  0  0  0  0  0  0  0  0  0  0
    6.5100  -12.7510   25.6619 C   0  0  0  0  0  0  0  0  0  0  0  0
    7.0550  -12.3166   24.4774 C   0  0  0  0  0  0  0  0  0  0  0  0
    7.1833  -13.1918   23.4081 C   0  0  0  0  0  0  0  0  0  0  0  0
    9.3369  -15.6266   22.6467 O   0  0  0  0  0  0  0  0  0  0  0  0
   10.2307  -14.7556   22.8017 N   0  0  0  0  0  0  0  0  0  0  0  0
    9.4336  -16.8223   23.3931 C   0  0  1  0  0  0  0  0  0  0  0  0
   10.2221  -16.8407   24.6026 C   0  0  0  0  0  0  0  0  0  0  0  0
    9.5560  -15.8641   25.5591 C   0  0  0  0  0  0  0  0  0  0  0  0
    9.9021  -16.0967   26.9689 C   0  0  0  0  0  0  0  0  0  0  0  0
    9.8939  -17.2772   27.6943 N   0  0  0  0  0  0  0  0  0  0  0  0
   10.2823  -17.0201   28.9544 C   0  0  0  0  0  0  0  0  0  0  0  0
   10.5441  -15.6895   29.0628 C   0  0  0  0  0  0  0  0  0  0  0  0
   10.9715  -14.9024   30.1286 C   0  0  0  0  0  0  0  0  0  0  0  0
   11.1663  -13.5448   29.9759 C   0  0  0  0  0  0  0  0  0  0  0  0
   10.9348  -12.9563   28.7501 C   0  0  0  0  0  0  0  0  0  0  0  0
   10.5114  -13.7262   27.6876 C   0  0  0  0  0  0  0  0  0  0  0  0
   10.3136  -15.1005   27.8402 C   0  0  0  0  0  0  0  0  0  0  0  0
   10.2767  -18.2085   25.1852 O   0  0  0  0  0  0  0  0  0  0  0  0
    9.3524  -19.0457   25.1002 O   0  0  0  0  0  0  0  0  0  0  0  0
  2  3  2  0
  2  1  1  0
  4  2  1  0
  5  4  1  0
  6  5  1  0
  7  6  1  0
  8 10  1  0
  8  7  1  0
  8  9  1  6
 10 12  1  0
 11 10  2  0
 12 13  1  0
 13 14  1  1
 13 21  1  0
 15 14  1  0
 16 15  2  0
 17 16  1  0
 18 17  2  0
 18 19  1  0
 19 20  2  0
 20 15  1  0
 21 23  1  0
 21 22  2  0
 23 24  1  0
 24 35  1  0
 24 25  1  6
 26 27  2  0
 26 25  1  0
 28 27  1  0
 29 34  2  0
 29 28  1  0
 30 29  1  0
 31 32  1  0
 31 30  2  0
 32 33  2  0
 33 34  1  0
 34 26  1  0
 35 37  1  0
 36 35  2  0
M  END
$$$$
