RFW.pdb
     RDKit          3D

 37 39  0  0  1  0  0  0  0  0999 V2000
    7.6259  -21.0027   17.4885 N   0  0  0  0  0  0  0  0  0  0  0  0
    8.4351  -20.1048   16.7351 C   0  0  0  0  0  0  0  0  0  0  0  0
    9.0667  -20.5491   15.6783 N   0  0  0  0  0  0  0  0  0  0  0  0
    8.5963  -18.7390   17.0703 N   0  0  0  0  0  0  0  0  0  0  0  0
    7.8458  -18.2082   18.1911 C   0  0  0  0  0  0  0  0  0  0  0  0
    8.3131  -18.7945   19.5173 C   0  0  0  0  0  0  0  0  0  0  0  0
    8.9790  -17.6709   20.2605 C   0  0  0  0  0  0  0  0  0  0  0  0
    8.1455  -16.4541   20.4486 C   0  0  2  0  0  0  0  0  0  0  0  0
    8.0816  -15.5593   19.3402 N   0  0  0  0  0  0  0  0  0  0  0  0
    8.5095  -15.7484   21.7226 C   0  0  0  0  0  0  0  0  0  0  0  0
    9.4133  -14.8804   21.7533 O   0  0  0  0  0  0  0  0  0  0  0  0
    9.7250  -19.9352   15.1484 N   0  0  0  0  0  0  0  0  0  0  0  0
    7.8271  -16.0569   22.9305 C   0  0  1  0  0  0  0  0  0  0  0  0
    8.0532  -15.4921   24.2134 C   0  0  0  0  0  0  0  0  0  0  0  0
    6.8125  -15.0088   24.9463 C   0  0  0  0  0  0  0  0  0  0  0  0
    7.0295  -13.6420   25.4571 C   0  0  0  0  0  0  0  0  0  0  0  0
    6.3083  -13.2743   26.5880 C   0  0  0  0  0  0  0  0  0  0  0  0
    6.4051  -12.0258   27.1621 C   0  0  0  0  0  0  0  0  0  0  0  0
    7.2497  -11.0922   26.6008 C   0  0  0  0  0  0  0  0  0  0  0  0
    7.9746  -11.4282   25.4826 C   0  0  0  0  0  0  0  0  0  0  0  0
    7.8532  -12.6951   24.9293 C   0  0  0  0  0  0  0  0  0  0  0  0
    8.9504  -16.2820   25.0718 O   0  0  0  0  0  0  0  0  0  0  0  0
    8.5279  -17.2437   25.7633 N   0  0  0  0  0  0  0  0  0  0  0  0
   10.3266  -15.9687   25.1347 C   0  0  1  0  0  0  0  0  0  0  0  0
   11.2251  -16.8598   25.8302 C   0  0  0  0  0  0  0  0  0  0  0  0
   11.0821  -18.2166   25.1587 C   0  0  0  0  0  0  0  0  0  0  0  0
   11.1530  -19.3454   26.0980 C   0  0  0  0  0  0  0  0  0  0  0  0
   10.7377  -19.4200   27.4178 N   0  0  0  0  0  0  0  0  0  0  0  0
   11.0011  -20.6492   27.8914 C   0  0  0  0  0  0  0  0  0  0  0  0
   11.5821  -21.3786   26.9008 C   0  0  0  0  0  0  0  0  0  0  0  0
   12.0484  -22.6894   26.8525 C   0  0  0  0  0  0  0  0  0  0  0  0
   12.6095  -23.2019   25.7006 C   0  0  0  0  0  0  0  0  0  0  0  0
   12.7111  -22.4057   24.5789 C   0  0  0  0  0  0  0  0  0  0  0  0
   12.2526  -21.1060   24.6154 C   0  0  0  0  0  0  0  0  0  0  0  0
   11.6843  -20.5854   25.7803 C   0  0  0  0  0  0  0  0  0  0  0  0
   12.6280  -16.3704   25.7563 O   0  0  0  0  0  0  0  0  0  0  0  0
   13.4318  -16.3948   26.7133 O   0  0  0  0  0  0  0  0  0  0  0  0
  2  3  2  0
  2  1  1  0
  4  2  1  0
  5  4  1  0
  6  5  1  0
  7  6  1  0
  8 10  1  0
  8  7  1  0
  8  9  1  6
 10 12  1  0
 11 10  2  0
 12 13  1  0
 13 14  1  1
 13 21  1  0
 15 14  1  0
 16 15  2  0
 17 16  1  0
 18 17  2  0
 18 19  1  0
 19 20  2  0
 20 15  1  0
 21 23  1  0
 21 22  2  0
 23 24  1  0
 24 35  1  0
 24 25  1  1
 26 27  2  0
 26 25  1  0
 28 27  1  0
 29 34  2  0
 29 28  1  0
 30 29  1  0
 31 32  1  0
 31 30  2  0
 32 33  2  0
 33 34  1  0
 34 26  1  0
 35 37  1  0
 36 35  2  0
M  END
$$$$
