RFW.pdb
     RDKit          3D

 37 39  0  0  1  0  0  0  0  0999 V2000
   11.5357  -21.2502   15.9023 N   0  0  0  0  0  0  0  0  0  0  0  0
   11.9253  -21.6077   17.2247 C   0  0  0  0  0  0  0  0  0  0  0  0
   13.0679  -22.2186   17.4099 N   0  0  0  0  0  0  0  0  0  0  0  0
   11.1343  -21.3349   18.3665 N   0  0  0  0  0  0  0  0  0  0  0  0
    9.7862  -20.8387   18.1721 C   0  0  0  0  0  0  0  0  0  0  0  0
    9.7671  -19.3438   17.8789 C   0  0  0  0  0  0  0  0  0  0  0  0
    9.6996  -18.6561   19.2133 C   0  0  0  0  0  0  0  0  0  0  0  0
    9.5427  -17.1786   19.1573 C   0  0  2  0  0  0  0  0  0  0  0  0
   10.4209  -16.4871   18.2719 N   0  0  0  0  0  0  0  0  0  0  0  0
    9.5527  -16.5872   20.5370 C   0  0  0  0  0  0  0  0  0  0  0  0
   10.5689  -16.6517   21.2681 O   0  0  0  0  0  0  0  0  0  0  0  0
   13.3879  -22.4800   18.3691 N   0  0  0  0  0  0  0  0  0  0  0  0
    8.3954  -15.9364   21.0439 C   0  0  1  0  0  0  0  0  0  0  0  0
    8.1982  -15.4336   22.3570 C   0  0  0  0  0  0  0  0  0  0  0  0
    7.0747  -14.4216   22.5111 C   0  0  0  0  0  0  0  0  0  0  0  0
    7.0714  -13.8775   23.8823 C   0  0  0  0  0  0  0  0  0  0  0  0
    6.3239  -14.5699   24.8289 C   0  0  0  0  0  0  0  0  0  0  0  0
    6.2233  -14.1659   26.1420 C   0  0  0  0  0  0  0  0  0  0  0  0
    6.8874  -13.0281   26.5474 C   0  0  0  0  0  0  0  0  0  0  0  0
    7.6334  -12.3238   25.6329 C   0  0  0  0  0  0  0  0  0  0  0  0
    7.7134  -12.7586   24.3175 C   0  0  0  0  0  0  0  0  0  0  0  0
    8.1806  -16.4679   23.4037 O   0  0  0  0  0  0  0  0  0  0  0  0
    7.3522  -17.4139   23.3857 N   0  0  0  0  0  0  0  0  0  0  0  0
    9.1110  -16.4157   24.4657 C   0  0  2  0  0  0  0  0  0  0  0  0
    9.4437  -17.6278   25.1765 C   0  0  0  0  0  0  0  0  0  0  0  0
   10.8098  -17.3923   25.8018 C   0  0  0  0  0  0  0  0  0  0  0  0
   10.7435  -16.8569   27.1694 C   0  0  0  0  0  0  0  0  0  0  0  0
   10.5649  -17.5264   28.3693 N   0  0  0  0  0  0  0  0  0  0  0  0
   10.5664  -16.6341   29.3736 C   0  0  0  0  0  0  0  0  0  0  0  0
   10.7433  -15.3920   28.8476 C   0  0  0  0  0  0  0  0  0  0  0  0
   10.8210  -14.1300   29.4303 C   0  0  0  0  0  0  0  0  0  0  0  0
   11.0079  -13.0014   28.6584 C   0  0  0  0  0  0  0  0  0  0  0  0
   11.1197  -13.1226   27.2890 C   0  0  0  0  0  0  0  0  0  0  0  0
   11.0443  -14.3675   26.7012 C   0  0  0  0  0  0  0  0  0  0  0  0
   10.8551  -15.5110   27.4807 C   0  0  0  0  0  0  0  0  0  0  0  0
    8.4246  -17.9359   26.2155 O   0  0  0  0  0  0  0  0  0  0  0  0
    7.4406  -17.2089   26.4717 O   0  0  0  0  0  0  0  0  0  0  0  0
  2  3  2  0
  2  1  1  0
  4  2  1  0
  5  4  1  0
  6  5  1  0
  7  6  1  0
  8 10  1  0
  8  7  1  0
  8  9  1  6
 10 12  1  0
 11 10  2  0
 12 13  1  0
 13 14  1  1
 13 21  1  0
 15 14  1  0
 16 15  2  0
 17 16  1  0
 18 17  2  0
 18 19  1  0
 19 20  2  0
 20 15  1  0
 21 23  1  0
 21 22  2  0
 23 24  1  0
 24 35  1  0
 24 25  1  1
 26 27  2  0
 26 25  1  0
 28 27  1  0
 29 34  2  0
 29 28  1  0
 30 29  1  0
 31 32  1  0
 31 30  2  0
 32 33  2  0
 33 34  1  0
 34 26  1  0
 35 37  1  0
 36 35  2  0
M  END
$$$$
