CPF.pdb
     RDKit          3D

 25 26  0  0  1  0  0  0  0  0999 V2000
    7.8556  -12.5811   18.5092 N   0  0  0  0  0  0  0  0  0  0  0  0
    8.3660  -13.9137   18.7936 C   0  0  1  0  0  0  0  0  0  0  0  0
    9.8812  -13.7840   18.7052 C   0  0  0  0  0  0  0  0  0  0  0  0
   10.5651  -15.4124   19.1408 S   0  0  0  0  0  0  0  0  0  0  0  0
    7.9045  -14.3071   20.1471 C   0  0  0  0  0  0  0  0  0  0  0  0
    7.9975  -13.4801   21.0786 O   0  0  0  0  0  0  0  0  0  0  0  0
    7.3452  -15.5960   20.4676 N   0  0  0  0  0  0  0  0  0  0  0  0
    6.9298  -16.5249   19.4235 C   0  0  0  0  0  0  0  0  0  0  0  0
    5.8642  -17.3872   20.1453 C   0  0  0  0  0  0  0  0  0  0  0  0
    6.6135  -17.5897   21.4787 C   0  0  0  0  0  0  0  0  0  0  0  0
    7.0793  -16.1764   21.7317 C   0  0  1  0  0  0  0  0  0  0  0  0
    8.1805  -16.1256   22.7087 C   0  0  0  0  0  0  0  0  0  0  0  0
    9.3610  -16.2524   22.3366 O   0  0  0  0  0  0  0  0  0  0  0  0
    7.8878  -15.9317   24.0716 N   0  0  0  0  0  0  0  0  0  0  0  0
    8.8925  -15.7599   25.1031 C   0  0  1  0  0  0  0  0  0  0  0  0
    9.1075  -14.3039   25.2994 C   0  0  0  0  0  0  0  0  0  0  0  0
    8.0113  -13.5671   25.9360 C   0  0  0  0  0  0  0  0  0  0  0  0
    6.9857  -13.0202   25.1972 C   0  0  0  0  0  0  0  0  0  0  0  0
    5.9443  -12.3213   25.7686 C   0  0  0  0  0  0  0  0  0  0  0  0
    5.9147  -12.1540   27.1493 C   0  0  0  0  0  0  0  0  0  0  0  0
    6.9190  -12.6875   27.9055 C   0  0  0  0  0  0  0  0  0  0  0  0
    7.9473  -13.3813   27.3059 C   0  0  0  0  0  0  0  0  0  0  0  0
    8.5877  -16.5196   26.3255 C   0  0  0  0  0  0  0  0  0  0  0  0
    7.4812  -17.0967   26.4197 O   0  0  0  0  0  0  0  0  0  0  0  0
    9.4938  -16.6001   27.3512 O   0  0  0  0  0  0  0  0  0  0  0  0
  2  1  1  1
  2  5  1  0
  3  2  1  0
  4  3  1  0
  5  6  2  0
  7  5  1  0
  7 11  1  0
  8  9  1  0
  8  7  1  0
  9 10  1  0
 10 11  1  0
 11 12  1  1
 12 13  2  0
 14 12  1  0
 14 15  1  0
 15 23  1  0
 15 16  1  1
 17 22  1  0
 17 16  1  0
 18 17  2  0
 19 20  2  0
 19 18  1  0
 20 21  1  0
 21 22  2  0
 23 25  1  0
 24 23  2  0
M  END
$$$$
