CPF.pdb
     RDKit          3D

 25 26  0  0  1  0  0  0  0  0999 V2000
    6.0398  -18.6506   19.9735 N   0  0  0  0  0  0  0  0  0  0  0  0
    5.6825  -17.3190   20.4385 C   0  0  1  0  0  0  0  0  0  0  0  0
    4.6112  -17.5443   21.4978 C   0  0  0  0  0  0  0  0  0  0  0  0
    3.0140  -17.5351   20.6269 S   0  0  0  0  0  0  0  0  0  0  0  0
    6.9020  -16.6775   20.9871 C   0  0  0  0  0  0  0  0  0  0  0  0
    7.6453  -17.3423   21.7392 O   0  0  0  0  0  0  0  0  0  0  0  0
    7.2972  -15.3202   20.7068 N   0  0  0  0  0  0  0  0  0  0  0  0
    6.6387  -14.5360   19.6692 C   0  0  0  0  0  0  0  0  0  0  0  0
    7.7287  -13.5042   19.2850 C   0  0  0  0  0  0  0  0  0  0  0  0
    8.2069  -13.1511   20.7087 C   0  0  0  0  0  0  0  0  0  0  0  0
    8.3197  -14.5371   21.2956 C   0  0  1  0  0  0  0  0  0  0  0  0
    8.3449  -14.5118   22.7682 C   0  0  0  0  0  0  0  0  0  0  0  0
    7.5724  -13.7688   23.4002 O   0  0  0  0  0  0  0  0  0  0  0  0
    9.2521  -15.3367   23.4590 N   0  0  0  0  0  0  0  0  0  0  0  0
    9.4366  -15.3176   24.8972 C   0  0  1  0  0  0  0  0  0  0  0  0
    8.0957  -15.3439   25.5344 C   0  0  0  0  0  0  0  0  0  0  0  0
    7.6025  -14.0667   26.0591 C   0  0  0  0  0  0  0  0  0  0  0  0
    8.4514  -13.0079   26.2940 C   0  0  0  0  0  0  0  0  0  0  0  0
    8.0158  -11.7974   26.7884 C   0  0  0  0  0  0  0  0  0  0  0  0
    6.6638  -11.6234   27.0659 C   0  0  0  0  0  0  0  0  0  0  0  0
    5.8003  -12.6572   26.8407 C   0  0  0  0  0  0  0  0  0  0  0  0
    6.2651  -13.8561   26.3459 C   0  0  0  0  0  0  0  0  0  0  0  0
   10.3734  -16.3515   25.3639 C   0  0  0  0  0  0  0  0  0  0  0  0
   10.9654  -16.1848   26.4537 O   0  0  0  0  0  0  0  0  0  0  0  0
   10.6019  -17.4830   24.6241 O   0  0  0  0  0  0  0  0  0  0  0  0
  2  1  1  1
  2  5  1  0
  3  2  1  0
  4  3  1  0
  5  6  2  0
  7  5  1  0
  7 11  1  0
  8  9  1  0
  8  7  1  0
  9 10  1  0
 10 11  1  0
 11 12  1  1
 12 13  2  0
 14 12  1  0
 14 15  1  0
 15 23  1  0
 15 16  1  1
 17 22  1  0
 17 16  1  0
 18 17  2  0
 19 20  2  0
 19 18  1  0
 20 21  1  0
 21 22  2  0
 23 25  1  0
 24 23  2  0
M  END
$$$$
