CPF.pdb
     RDKit          3D

 25 26  0  0  1  0  0  0  0  0999 V2000
   12.3630  -14.1233   18.9426 N   0  0  0  0  0  0  0  0  0  0  0  0
   11.3389  -15.1397   19.1311 C   0  0  1  0  0  0  0  0  0  0  0  0
   12.1051  -16.4428   19.3192 C   0  0  0  0  0  0  0  0  0  0  0  0
   11.3096  -17.6701   18.2372 S   0  0  0  0  0  0  0  0  0  0  0  0
   10.5359  -14.7722   20.3226 C   0  0  0  0  0  0  0  0  0  0  0  0
   11.1300  -14.4294   21.3665 O   0  0  0  0  0  0  0  0  0  0  0  0
    9.0952  -14.7807   20.3605 N   0  0  0  0  0  0  0  0  0  0  0  0
    8.3039  -14.9052   19.1425 C   0  0  0  0  0  0  0  0  0  0  0  0
    6.9646  -14.2366   19.5419 C   0  0  0  0  0  0  0  0  0  0  0  0
    6.8183  -14.8616   20.9449 C   0  0  0  0  0  0  0  0  0  0  0  0
    8.2199  -14.6581   21.4669 C   0  0  1  0  0  0  0  0  0  0  0  0
    8.5109  -15.5291   22.6186 C   0  0  0  0  0  0  0  0  0  0  0  0
    9.1525  -16.5843   22.4660 O   0  0  0  0  0  0  0  0  0  0  0  0
    8.0570  -15.1588   23.8983 N   0  0  0  0  0  0  0  0  0  0  0  0
    8.2515  -15.9572   25.0932 C   0  0  1  0  0  0  0  0  0  0  0  0
    8.6630  -15.0485   26.1929 C   0  0  0  0  0  0  0  0  0  0  0  0
    7.8182  -13.8699   26.4100 C   0  0  0  0  0  0  0  0  0  0  0  0
    6.5045  -13.9879   26.8063 C   0  0  0  0  0  0  0  0  0  0  0  0
    5.6872  -12.8979   27.0157 C   0  0  0  0  0  0  0  0  0  0  0  0
    6.1979  -11.6185   26.8228 C   0  0  0  0  0  0  0  0  0  0  0  0
    7.4982  -11.4735   26.4311 C   0  0  0  0  0  0  0  0  0  0  0  0
    8.2912  -12.5819   26.2294 C   0  0  0  0  0  0  0  0  0  0  0  0
    7.1001  -16.8228   25.3920 C   0  0  0  0  0  0  0  0  0  0  0  0
    7.2232  -17.7163   26.2595 O   0  0  0  0  0  0  0  0  0  0  0  0
    5.9069  -16.6620   24.7362 O   0  0  0  0  0  0  0  0  0  0  0  0
  2  1  1  1
  2  5  1  0
  3  2  1  0
  4  3  1  0
  5  6  2  0
  7  5  1  0
  7 11  1  0
  8  9  1  0
  8  7  1  0
  9 10  1  0
 10 11  1  0
 11 12  1  1
 12 13  2  0
 14 12  1  0
 14 15  1  0
 15 23  1  0
 15 16  1  1
 17 22  1  0
 17 16  1  0
 18 17  2  0
 19 20  2  0
 19 18  1  0
 20 21  1  0
 21 22  2  0
 23 25  1  0
 24 23  2  0
M  END
$$$$
