CPF.pdb
     RDKit          3D

 25 26  0  0  1  0  0  0  0  0999 V2000
   11.6516  -16.7507   18.8535 N   0  0  0  0  0  0  0  0  0  0  0  0
   10.2171  -16.8473   19.0773 C   0  0  1  0  0  0  0  0  0  0  0  0
    9.9389  -18.3380   19.2221 C   0  0  0  0  0  0  0  0  0  0  0  0
    8.9758  -18.8280   17.7587 S   0  0  0  0  0  0  0  0  0  0  0  0
    9.8876  -16.0830   20.3049 C   0  0  0  0  0  0  0  0  0  0  0  0
   10.7033  -16.0826   21.2508 O   0  0  0  0  0  0  0  0  0  0  0  0
    8.6741  -15.3267   20.4849 N   0  0  0  0  0  0  0  0  0  0  0  0
    7.8420  -14.9440   19.3507 C   0  0  0  0  0  0  0  0  0  0  0  0
    7.1051  -13.6892   19.8826 C   0  0  0  0  0  0  0  0  0  0  0  0
    6.7631  -14.2174   21.2913 C   0  0  0  0  0  0  0  0  0  0  0  0
    8.0938  -14.8191   21.6728 C   0  0  1  0  0  0  0  0  0  0  0  0
    7.9677  -15.7737   22.7875 C   0  0  0  0  0  0  0  0  0  0  0  0
    7.7306  -16.9750   22.5662 O   0  0  0  0  0  0  0  0  0  0  0  0
    8.1177  -15.3168   24.1101 N   0  0  0  0  0  0  0  0  0  0  0  0
    7.9404  -16.1498   25.2838 C   0  0  1  0  0  0  0  0  0  0  0  0
    8.2939  -15.3433   26.4793 C   0  0  0  0  0  0  0  0  0  0  0  0
    7.7158  -13.9975   26.5470 C   0  0  0  0  0  0  0  0  0  0  0  0
    8.4976  -12.8702   26.4251 C   0  0  0  0  0  0  0  0  0  0  0  0
    7.9816  -11.5937   26.4868 C   0  0  0  0  0  0  0  0  0  0  0  0
    6.6148  -11.4217   26.6795 C   0  0  0  0  0  0  0  0  0  0  0  0
    5.8167  -12.5231   26.8021 C   0  0  0  0  0  0  0  0  0  0  0  0
    6.3611  -13.7870   26.7363 C   0  0  0  0  0  0  0  0  0  0  0  0
    6.6183  -16.7934   25.3296 C   0  0  0  0  0  0  0  0  0  0  0  0
    6.4231  -17.7182   26.1499 O   0  0  0  0  0  0  0  0  0  0  0  0
    5.6095  -16.3946   24.4912 O   0  0  0  0  0  0  0  0  0  0  0  0
  2  1  1  1
  2  5  1  0
  3  2  1  0
  4  3  1  0
  5  6  2  0
  7  5  1  0
  7 11  1  0
  8  9  1  0
  8  7  1  0
  9 10  1  0
 10 11  1  0
 11 12  1  1
 12 13  2  0
 14 12  1  0
 14 15  1  0
 15 23  1  0
 15 16  1  1
 17 22  1  0
 17 16  1  0
 18 17  2  0
 19 20  2  0
 19 18  1  0
 20 21  1  0
 21 22  2  0
 23 25  1  0
 24 23  2  0
M  END
$$$$
