CPF.pdb
     RDKit          3D

 25 26  0  0  1  0  0  0  0  0999 V2000
    7.8779  -12.5844   18.2899 N   0  0  0  0  0  0  0  0  0  0  0  0
    8.4362  -13.9137   18.4860 C   0  0  1  0  0  0  0  0  0  0  0  0
    9.9311  -13.7551   18.2397 C   0  0  0  0  0  0  0  0  0  0  0  0
   10.6790  -15.3869   18.5350 S   0  0  0  0  0  0  0  0  0  0  0  0
    8.1282  -14.3454   19.8711 C   0  0  0  0  0  0  0  0  0  0  0  0
    8.3002  -13.5354   20.8062 O   0  0  0  0  0  0  0  0  0  0  0  0
    7.6344  -15.6539   20.2191 N   0  0  0  0  0  0  0  0  0  0  0  0
    7.2434  -16.6154   19.1954 C   0  0  0  0  0  0  0  0  0  0  0  0
    6.2315  -17.5150   19.9483 C   0  0  0  0  0  0  0  0  0  0  0  0
    7.0130  -17.6642   21.2702 C   0  0  0  0  0  0  0  0  0  0  0  0
    7.4181  -16.2277   21.4955 C   0  0  1  0  0  0  0  0  0  0  0  0
    8.5331  -16.1129   22.4512 C   0  0  0  0  0  0  0  0  0  0  0  0
    9.6912  -16.4130   22.1092 O   0  0  0  0  0  0  0  0  0  0  0  0
    8.2794  -15.6597   23.7592 N   0  0  0  0  0  0  0  0  0  0  0  0
    9.3028  -15.4796   24.7708 C   0  0  1  0  0  0  0  0  0  0  0  0
    9.4198  -14.0269   25.0546 C   0  0  0  0  0  0  0  0  0  0  0  0
    8.2743  -13.4032   25.7243 C   0  0  0  0  0  0  0  0  0  0  0  0
    7.1976  -12.9222   25.0127 C   0  0  0  0  0  0  0  0  0  0  0  0
    6.1089  -12.3298   25.6156 C   0  0  0  0  0  0  0  0  0  0  0  0
    6.0829  -12.2063   27.0009 C   0  0  0  0  0  0  0  0  0  0  0  0
    7.1374  -12.6762   27.7304 C   0  0  0  0  0  0  0  0  0  0  0  0
    8.2122  -13.2638   27.0998 C   0  0  0  0  0  0  0  0  0  0  0  0
    9.0933  -16.3344   25.9496 C   0  0  0  0  0  0  0  0  0  0  0  0
    9.9871  -16.3899   26.8239 O   0  0  0  0  0  0  0  0  0  0  0  0
    7.9414  -17.0631   26.0977 O   0  0  0  0  0  0  0  0  0  0  0  0
  2  1  1  1
  2  5  1  0
  3  2  1  0
  4  3  1  0
  5  6  2  0
  7  5  1  0
  7 11  1  0
  8  9  1  0
  8  7  1  0
  9 10  1  0
 10 11  1  0
 11 12  1  1
 12 13  2  0
 14 12  1  0
 14 15  1  0
 15 23  1  0
 15 16  1  1
 17 22  1  0
 17 16  1  0
 18 17  2  0
 19 20  2  0
 19 18  1  0
 20 21  1  0
 21 22  2  0
 23 25  1  0
 24 23  2  0
M  END
$$$$
