CPF.pdb
     RDKit          3D

 25 26  0  0  1  0  0  0  0  0999 V2000
    7.2881  -19.0881   20.6156 N   0  0  0  0  0  0  0  0  0  0  0  0
    6.6573  -18.2137   21.5927 C   0  0  1  0  0  0  0  0  0  0  0  0
    6.2356  -19.1328   22.7320 C   0  0  0  0  0  0  0  0  0  0  0  0
    5.3860  -18.0855   23.9529 S   0  0  0  0  0  0  0  0  0  0  0  0
    7.6523  -17.1987   22.0162 C   0  0  0  0  0  0  0  0  0  0  0  0
    8.6557  -17.5715   22.6598 O   0  0  0  0  0  0  0  0  0  0  0  0
    7.5421  -15.7904   21.7306 N   0  0  0  0  0  0  0  0  0  0  0  0
    6.5216  -15.2762   20.8254 C   0  0  0  0  0  0  0  0  0  0  0  0
    7.1511  -13.9514   20.3268 C   0  0  0  0  0  0  0  0  0  0  0  0
    7.6917  -13.4435   21.6796 C   0  0  0  0  0  0  0  0  0  0  0  0
    8.3309  -14.7099   22.1953 C   0  0  1  0  0  0  0  0  0  0  0  0
    8.5610  -14.6586   23.6493 C   0  0  0  0  0  0  0  0  0  0  0  0
    8.0901  -13.7301   24.3307 O   0  0  0  0  0  0  0  0  0  0  0  0
    9.3201  -15.6707   24.2659 N   0  0  0  0  0  0  0  0  0  0  0  0
    9.5802  -15.7391   25.6908 C   0  0  1  0  0  0  0  0  0  0  0  0
    8.2837  -15.6103   26.4029 C   0  0  0  0  0  0  0  0  0  0  0  0
    7.7402  -14.2535   26.5190 C   0  0  0  0  0  0  0  0  0  0  0  0
    8.5240  -13.1951   26.9218 C   0  0  0  0  0  0  0  0  0  0  0  0
    8.0393  -11.9104   27.0416 C   0  0  0  0  0  0  0  0  0  0  0  0
    6.7039  -11.6575   26.7458 C   0  0  0  0  0  0  0  0  0  0  0  0
    5.9051  -12.6893   26.3427 C   0  0  0  0  0  0  0  0  0  0  0  0
    6.4177  -13.9633   26.2323 C   0  0  0  0  0  0  0  0  0  0  0  0
   10.3883  -16.9100   26.0655 C   0  0  0  0  0  0  0  0  0  0  0  0
   10.7774  -17.0233   27.2495 O   0  0  0  0  0  0  0  0  0  0  0  0
   10.7158  -17.8672   25.1402 O   0  0  0  0  0  0  0  0  0  0  0  0
  2  1  1  6
  2  5  1  0
  3  2  1  0
  4  3  1  0
  5  6  2  0
  7  5  1  0
  7 11  1  0
  8  9  1  0
  8  7  1  0
  9 10  1  0
 10 11  1  0
 11 12  1  1
 12 13  2  0
 14 12  1  0
 14 15  1  0
 15 23  1  0
 15 16  1  1
 17 22  1  0
 17 16  1  0
 18 17  2  0
 19 20  2  0
 19 18  1  0
 20 21  1  0
 21 22  2  0
 23 25  1  0
 24 23  2  0
M  END
$$$$
