CPF.pdb
     RDKit          3D

 25 26  0  0  1  0  0  0  0  0999 V2000
   11.4858  -16.0830   17.8634 N   0  0  0  0  0  0  0  0  0  0  0  0
   10.1034  -16.2682   18.2780 C   0  0  1  0  0  0  0  0  0  0  0  0
    9.9033  -17.7776   18.3243 C   0  0  0  0  0  0  0  0  0  0  0  0
    8.2767  -18.0596   19.0885 S   0  0  0  0  0  0  0  0  0  0  0  0
    9.9281  -15.6279   19.6043 C   0  0  0  0  0  0  0  0  0  0  0  0
   10.7877  -15.8288   20.4879 O   0  0  0  0  0  0  0  0  0  0  0  0
    8.8192  -14.7747   19.9498 N   0  0  0  0  0  0  0  0  0  0  0  0
    7.9118  -14.2585   18.9322 C   0  0  0  0  0  0  0  0  0  0  0  0
    7.3601  -12.9716   19.5953 C   0  0  0  0  0  0  0  0  0  0  0  0
    7.1206  -13.5400   21.0095 C   0  0  0  0  0  0  0  0  0  0  0  0
    8.4202  -14.2798   21.2152 C   0  0  1  0  0  0  0  0  0  0  0  0
    8.3221  -15.2764   22.2954 C   0  0  0  0  0  0  0  0  0  0  0  0
    8.0336  -16.4593   22.0388 O   0  0  0  0  0  0  0  0  0  0  0  0
    8.5578  -14.8809   23.6253 N   0  0  0  0  0  0  0  0  0  0  0  0
    8.5125  -15.7803   24.7619 C   0  0  1  0  0  0  0  0  0  0  0  0
    8.8375  -14.9986   25.9817 C   0  0  0  0  0  0  0  0  0  0  0  0
    7.9828  -13.8390   26.2550 C   0  0  0  0  0  0  0  0  0  0  0  0
    8.4867  -12.5572   26.2592 C   0  0  0  0  0  0  0  0  0  0  0  0
    7.7073  -11.4496   26.5148 C   0  0  0  0  0  0  0  0  0  0  0  0
    6.3524  -11.6186   26.7807 C   0  0  0  0  0  0  0  0  0  0  0  0
    5.8270  -12.8792   26.7813 C   0  0  0  0  0  0  0  0  0  0  0  0
    6.6311  -13.9676   26.5224 C   0  0  0  0  0  0  0  0  0  0  0  0
    7.2619  -16.5525   24.8262 C   0  0  0  0  0  0  0  0  0  0  0  0
    7.2068  -17.5547   25.5736 O   0  0  0  0  0  0  0  0  0  0  0  0
    6.1686  -16.1889   24.0830 O   0  0  0  0  0  0  0  0  0  0  0  0
  2  1  1  1
  2  5  1  0
  3  2  1  0
  4  3  1  0
  5  6  2  0
  7  5  1  0
  7 11  1  0
  8  9  1  0
  8  7  1  0
  9 10  1  0
 10 11  1  0
 11 12  1  1
 12 13  2  0
 14 12  1  0
 14 15  1  0
 15 23  1  0
 15 16  1  1
 17 22  1  0
 17 16  1  0
 18 17  2  0
 19 20  2  0
 19 18  1  0
 20 21  1  0
 21 22  2  0
 23 25  1  0
 24 23  2  0
M  END
$$$$
