CPF.pdb
     RDKit          3D

 25 26  0  0  1  0  0  0  0  0999 V2000
   11.7755  -16.7574   18.8397 N   0  0  0  0  0  0  0  0  0  0  0  0
   10.3494  -16.4683   18.8276 C   0  0  1  0  0  0  0  0  0  0  0  0
    9.6710  -17.8291   18.7339 C   0  0  0  0  0  0  0  0  0  0  0  0
    9.7269  -18.5498   20.4033 S   0  0  0  0  0  0  0  0  0  0  0  0
   10.0126  -15.7472   20.0790 C   0  0  0  0  0  0  0  0  0  0  0  0
   10.8004  -15.8187   21.0456 O   0  0  0  0  0  0  0  0  0  0  0  0
    8.8224  -14.9550   20.2601 N   0  0  0  0  0  0  0  0  0  0  0  0
    8.0236  -14.5130   19.1235 C   0  0  0  0  0  0  0  0  0  0  0  0
    7.3204  -13.2488   19.6781 C   0  0  0  0  0  0  0  0  0  0  0  0
    6.9361  -13.8034   21.0656 C   0  0  0  0  0  0  0  0  0  0  0  0
    8.2389  -14.4606   21.4521 C   0  0  1  0  0  0  0  0  0  0  0  0
    8.0612  -15.4407   22.5373 C   0  0  0  0  0  0  0  0  0  0  0  0
    7.8487  -16.6388   22.2774 O   0  0  0  0  0  0  0  0  0  0  0  0
    8.1336  -15.0117   23.8757 N   0  0  0  0  0  0  0  0  0  0  0  0
    8.0460  -15.8980   25.0201 C   0  0  1  0  0  0  0  0  0  0  0  0
    8.3429  -15.1060   26.2404 C   0  0  0  0  0  0  0  0  0  0  0  0
    7.5157  -13.9150   26.4571 C   0  0  0  0  0  0  0  0  0  0  0  0
    8.0011  -12.6478   26.2217 C   0  0  0  0  0  0  0  0  0  0  0  0
    7.2469  -11.5110   26.4185 C   0  0  0  0  0  0  0  0  0  0  0  0
    5.9381  -11.6341   26.8735 C   0  0  0  0  0  0  0  0  0  0  0  0
    5.4318  -12.8795   27.1134 C   0  0  0  0  0  0  0  0  0  0  0  0
    6.2097  -13.9978   26.9076 C   0  0  0  0  0  0  0  0  0  0  0  0
    6.7863  -16.6573   25.0558 C   0  0  0  0  0  0  0  0  0  0  0  0
    5.8356  -16.2874   24.3309 O   0  0  0  0  0  0  0  0  0  0  0  0
    6.6455  -17.7536   25.8670 O   0  0  0  0  0  0  0  0  0  0  0  0
  2  1  1  1
  2  5  1  0
  3  2  1  0
  4  3  1  0
  5  6  2  0
  7  5  1  0
  7 11  1  0
  8  9  1  0
  8  7  1  0
  9 10  1  0
 10 11  1  0
 11 12  1  1
 12 13  2  0
 14 12  1  0
 14 15  1  0
 15 23  1  0
 15 16  1  1
 17 22  1  0
 17 16  1  0
 18 17  2  0
 19 20  2  0
 19 18  1  0
 20 21  1  0
 21 22  2  0
 23 25  1  0
 24 23  2  0
M  END
$$$$
