CPF.pdb
     RDKit          3D

 25 26  0  0  1  0  0  0  0  0999 V2000
    8.3318  -12.6307   18.4065 N   0  0  0  0  0  0  0  0  0  0  0  0
    8.6469  -14.0168   18.7171 C   0  0  1  0  0  0  0  0  0  0  0  0
   10.1602  -14.1196   18.5756 C   0  0  0  0  0  0  0  0  0  0  0  0
   10.6085  -15.8188   19.0458 S   0  0  0  0  0  0  0  0  0  0  0  0
    8.1818  -14.2994   20.0968 C   0  0  0  0  0  0  0  0  0  0  0  0
    8.4531  -13.4830   21.0023 O   0  0  0  0  0  0  0  0  0  0  0  0
    7.4248  -15.4671   20.4714 N   0  0  0  0  0  0  0  0  0  0  0  0
    6.8950  -16.3831   19.4686 C   0  0  0  0  0  0  0  0  0  0  0  0
    5.6942  -17.0289   20.2043 C   0  0  0  0  0  0  0  0  0  0  0  0
    6.3742  -17.2624   21.5694 C   0  0  0  0  0  0  0  0  0  0  0  0
    7.0453  -15.9235   21.7572 C   0  0  1  0  0  0  0  0  0  0  0  0
    8.1196  -15.9817   22.7633 C   0  0  0  0  0  0  0  0  0  0  0  0
    9.2986  -16.1784   22.4175 O   0  0  0  0  0  0  0  0  0  0  0  0
    7.8029  -15.8128   24.1241 N   0  0  0  0  0  0  0  0  0  0  0  0
    8.7637  -15.9308   25.2039 C   0  0  1  0  0  0  0  0  0  0  0  0
    9.0633  -14.5659   25.7057 C   0  0  0  0  0  0  0  0  0  0  0  0
    7.9175  -13.7842   26.1808 C   0  0  0  0  0  0  0  0  0  0  0  0
    8.0831  -12.5620   26.7936 C   0  0  0  0  0  0  0  0  0  0  0  0
    7.0248  -11.8070   27.2515 C   0  0  0  0  0  0  0  0  0  0  0  0
    5.7289  -12.2873   27.0940 C   0  0  0  0  0  0  0  0  0  0  0  0
    5.5367  -13.4962   26.4883 C   0  0  0  0  0  0  0  0  0  0  0  0
    6.6143  -14.2286   26.0407 C   0  0  0  0  0  0  0  0  0  0  0  0
    8.3490  -16.8998   26.2303 C   0  0  0  0  0  0  0  0  0  0  0  0
    9.1368  -17.1656   27.1656 O   0  0  0  0  0  0  0  0  0  0  0  0
    7.1215  -17.5078   26.1723 O   0  0  0  0  0  0  0  0  0  0  0  0
  2  1  1  1
  2  5  1  0
  3  2  1  0
  4  3  1  0
  5  6  2  0
  7  5  1  0
  7 11  1  0
  8  9  1  0
  8  7  1  0
  9 10  1  0
 10 11  1  0
 11 12  1  1
 12 13  2  0
 14 12  1  0
 14 15  1  0
 15 23  1  0
 15 16  1  1
 17 22  1  0
 17 16  1  0
 18 17  2  0
 19 20  2  0
 19 18  1  0
 20 21  1  0
 21 22  2  0
 23 25  1  0
 24 23  2  0
M  END
$$$$
