CPF.pdb
     RDKit          3D

 25 26  0  0  1  0  0  0  0  0999 V2000
    7.9826  -12.3573   19.0554 N   0  0  0  0  0  0  0  0  0  0  0  0
    8.6375  -13.6300   19.3172 C   0  0  1  0  0  0  0  0  0  0  0  0
   10.1256  -13.3073   19.3610 C   0  0  0  0  0  0  0  0  0  0  0  0
   10.9943  -14.7977   18.7835 S   0  0  0  0  0  0  0  0  0  0  0  0
    8.1289  -14.1555   20.6075 C   0  0  0  0  0  0  0  0  0  0  0  0
    8.0214  -13.3735   21.5755 O   0  0  0  0  0  0  0  0  0  0  0  0
    7.7415  -15.5264   20.8256 N   0  0  0  0  0  0  0  0  0  0  0  0
    7.5805  -16.4564   19.7145 C   0  0  0  0  0  0  0  0  0  0  0  0
    6.5896  -17.4992   20.2899 C   0  0  0  0  0  0  0  0  0  0  0  0
    7.2207  -17.6513   21.6895 C   0  0  0  0  0  0  0  0  0  0  0  0
    7.4388  -16.1982   22.0350 C   0  0  1  0  0  0  0  0  0  0  0  0
    8.4139  -16.0314   23.1263 C   0  0  0  0  0  0  0  0  0  0  0  0
    9.6259  -15.9021   22.8759 O   0  0  0  0  0  0  0  0  0  0  0  0
    7.9645  -16.0192   24.4599 N   0  0  0  0  0  0  0  0  0  0  0  0
    8.8395  -15.9282   25.6127 C   0  0  1  0  0  0  0  0  0  0  0  0
    8.0738  -15.3113   26.7252 C   0  0  0  0  0  0  0  0  0  0  0  0
    7.4771  -14.0001   26.4522 C   0  0  0  0  0  0  0  0  0  0  0  0
    6.1119  -13.8274   26.3943 C   0  0  0  0  0  0  0  0  0  0  0  0
    5.5241  -12.6075   26.1377 C   0  0  0  0  0  0  0  0  0  0  0  0
    6.3318  -11.4948   25.9269 C   0  0  0  0  0  0  0  0  0  0  0  0
    7.6889  -11.6384   25.9801 C   0  0  0  0  0  0  0  0  0  0  0  0
    8.2479  -12.8707   26.2386 C   0  0  0  0  0  0  0  0  0  0  0  0
    9.4918  -17.2073   25.9335 C   0  0  0  0  0  0  0  0  0  0  0  0
   10.4127  -17.2216   26.7808 O   0  0  0  0  0  0  0  0  0  0  0  0
    9.1051  -18.3706   25.3196 O   0  0  0  0  0  0  0  0  0  0  0  0
  2  1  1  1
  2  5  1  0
  3  2  1  0
  4  3  1  0
  5  6  2  0
  7  5  1  0
  7 11  1  0
  8  9  1  0
  8  7  1  0
  9 10  1  0
 10 11  1  0
 11 12  1  1
 12 13  2  0
 14 12  1  0
 14 15  1  0
 15 23  1  0
 15 16  1  1
 17 22  1  0
 17 16  1  0
 18 17  2  0
 19 20  2  0
 19 18  1  0
 20 21  1  0
 21 22  2  0
 23 25  1  0
 24 23  2  0
M  END
$$$$
