CPF.pdb
     RDKit          3D

 25 26  0  0  1  0  0  0  0  0999 V2000
    7.7141  -12.5738   18.4138 N   0  0  0  0  0  0  0  0  0  0  0  0
    8.3037  -13.8899   18.6069 C   0  0  1  0  0  0  0  0  0  0  0  0
    9.7968  -13.6916   18.3790 C   0  0  0  0  0  0  0  0  0  0  0  0
   10.5878  -15.2952   18.7141 S   0  0  0  0  0  0  0  0  0  0  0  0
    7.9911  -14.3397   19.9851 C   0  0  0  0  0  0  0  0  0  0  0  0
    8.1505  -13.5388   20.9303 O   0  0  0  0  0  0  0  0  0  0  0  0
    7.5064  -15.6561   20.3155 N   0  0  0  0  0  0  0  0  0  0  0  0
    7.1004  -16.5983   19.2798 C   0  0  0  0  0  0  0  0  0  0  0  0
    6.1035  -17.5153   20.0317 C   0  0  0  0  0  0  0  0  0  0  0  0
    6.9076  -17.6884   21.3371 C   0  0  0  0  0  0  0  0  0  0  0  0
    7.3129  -16.2556   21.5839 C   0  0  1  0  0  0  0  0  0  0  0  0
    8.4437  -16.1565   22.5227 C   0  0  0  0  0  0  0  0  0  0  0  0
    9.5963  -16.4484   22.1559 O   0  0  0  0  0  0  0  0  0  0  0  0
    8.2113  -15.7278   23.8429 N   0  0  0  0  0  0  0  0  0  0  0  0
    9.2477  -15.5892   24.8477 C   0  0  1  0  0  0  0  0  0  0  0  0
    9.4222  -14.1426   25.1335 C   0  0  0  0  0  0  0  0  0  0  0  0
    8.2938  -13.4701   25.7848 C   0  0  0  0  0  0  0  0  0  0  0  0
    7.1189  -13.2182   25.1118 C   0  0  0  0  0  0  0  0  0  0  0  0
    6.0435  -12.5863   25.6982 C   0  0  0  0  0  0  0  0  0  0  0  0
    6.1346  -12.1808   27.0257 C   0  0  0  0  0  0  0  0  0  0  0  0
    7.2883  -12.4197   27.7164 C   0  0  0  0  0  0  0  0  0  0  0  0
    8.3469  -13.0535   27.1035 C   0  0  0  0  0  0  0  0  0  0  0  0
    9.0138  -16.4379   26.0263 C   0  0  0  0  0  0  0  0  0  0  0  0
    9.8923  -16.4943   26.9158 O   0  0  0  0  0  0  0  0  0  0  0  0
    7.8557  -17.1599   26.1579 O   0  0  0  0  0  0  0  0  0  0  0  0
  2  1  1  1
  2  5  1  0
  3  2  1  0
  4  3  1  0
  5  6  2  0
  7  5  1  0
  7 11  1  0
  8  9  1  0
  8  7  1  0
  9 10  1  0
 10 11  1  0
 11 12  1  1
 12 13  2  0
 14 12  1  0
 14 15  1  0
 15 23  1  0
 15 16  1  1
 17 22  1  0
 17 16  1  0
 18 17  2  0
 19 20  2  0
 19 18  1  0
 20 21  1  0
 21 22  2  0
 23 25  1  0
 24 23  2  0
M  END
$$$$
