CPF.pdb
     RDKit          3D

 25 26  0  0  1  0  0  0  0  0999 V2000
    8.0507  -12.7933   18.0308 N   0  0  0  0  0  0  0  0  0  0  0  0
    8.4506  -14.1684   18.2887 C   0  0  1  0  0  0  0  0  0  0  0  0
    9.9474  -14.2041   18.0083 C   0  0  0  0  0  0  0  0  0  0  0  0
   10.4965  -15.9042   18.3514 S   0  0  0  0  0  0  0  0  0  0  0  0
    8.1261  -14.4879   19.7002 C   0  0  0  0  0  0  0  0  0  0  0  0
    8.4281  -13.6634   20.5886 O   0  0  0  0  0  0  0  0  0  0  0  0
    7.4744  -15.7010   20.1252 N   0  0  0  0  0  0  0  0  0  0  0  0
    6.9805  -16.6762   19.1607 C   0  0  0  0  0  0  0  0  0  0  0  0
    5.8598  -17.3948   19.9530 C   0  0  0  0  0  0  0  0  0  0  0  0
    6.6042  -17.5462   21.2959 C   0  0  0  0  0  0  0  0  0  0  0  0
    7.1774  -16.1566   21.4328 C   0  0  1  0  0  0  0  0  0  0  0  0
    8.2885  -16.1114   22.3989 C   0  0  0  0  0  0  0  0  0  0  0  0
    9.4316  -16.4707   22.0637 O   0  0  0  0  0  0  0  0  0  0  0  0
    8.0480  -15.6572   23.7090 N   0  0  0  0  0  0  0  0  0  0  0  0
    9.0517  -15.6220   24.7551 C   0  0  1  0  0  0  0  0  0  0  0  0
    9.2775  -14.2032   25.1299 C   0  0  0  0  0  0  0  0  0  0  0  0
    8.1450  -13.5088   25.7504 C   0  0  0  0  0  0  0  0  0  0  0  0
    7.9734  -13.4878   27.1168 C   0  0  0  0  0  0  0  0  0  0  0  0
    6.9177  -12.8450   27.7267 C   0  0  0  0  0  0  0  0  0  0  0  0
    5.9784  -12.1849   26.9411 C   0  0  0  0  0  0  0  0  0  0  0  0
    6.1260  -12.1893   25.5834 C   0  0  0  0  0  0  0  0  0  0  0  0
    7.1918  -12.8406   25.0020 C   0  0  0  0  0  0  0  0  0  0  0  0
    8.7384  -16.5244   25.8740 C   0  0  0  0  0  0  0  0  0  0  0  0
    7.5920  -17.0205   25.9490 O   0  0  0  0  0  0  0  0  0  0  0  0
    9.6798  -16.8233   26.8248 O   0  0  0  0  0  0  0  0  0  0  0  0
  2  1  1  1
  2  5  1  0
  3  2  1  0
  4  3  1  0
  5  6  2  0
  7  5  1  0
  7 11  1  0
  8  9  1  0
  8  7  1  0
  9 10  1  0
 10 11  1  0
 11 12  1  1
 12 13  2  0
 14 12  1  0
 14 15  1  0
 15 23  1  0
 15 16  1  1
 17 22  1  0
 17 16  1  0
 18 17  2  0
 19 20  2  0
 19 18  1  0
 20 21  1  0
 21 22  2  0
 23 25  1  0
 24 23  2  0
M  END
$$$$
