CPF.pdb
     RDKit          3D

 25 26  0  0  1  0  0  0  0  0999 V2000
    6.7223  -18.7981   19.8741 N   0  0  0  0  0  0  0  0  0  0  0  0
    6.1974  -17.8860   20.8790 C   0  0  1  0  0  0  0  0  0  0  0  0
    5.5916  -18.7839   21.9501 C   0  0  0  0  0  0  0  0  0  0  0  0
    4.9389  -17.6800   23.2405 S   0  0  0  0  0  0  0  0  0  0  0  0
    7.3213  -17.0647   21.3909 C   0  0  0  0  0  0  0  0  0  0  0  0
    8.2239  -17.6233   22.0492 O   0  0  0  0  0  0  0  0  0  0  0  0
    7.4484  -15.6452   21.1765 N   0  0  0  0  0  0  0  0  0  0  0  0
    6.5853  -14.9382   20.2382 C   0  0  0  0  0  0  0  0  0  0  0  0
    7.4439  -13.7072   19.8538 C   0  0  0  0  0  0  0  0  0  0  0  0
    7.9584  -13.3507   21.2639 C   0  0  0  0  0  0  0  0  0  0  0  0
    8.3582  -14.7231   21.7487 C   0  0  1  0  0  0  0  0  0  0  0  0
    8.4898  -14.7729   23.2150 C   0  0  0  0  0  0  0  0  0  0  0  0
    7.7226  -14.1147   23.9405 O   0  0  0  0  0  0  0  0  0  0  0  0
    9.4929  -15.5732   23.7929 N   0  0  0  0  0  0  0  0  0  0  0  0
    9.9119  -15.4789   25.1780 C   0  0  1  0  0  0  0  0  0  0  0  0
    8.7007  -15.5624   26.0327 C   0  0  0  0  0  0  0  0  0  0  0  0
    8.0263  -14.2941   26.3267 C   0  0  0  0  0  0  0  0  0  0  0  0
    8.7322  -13.1221   26.4843 C   0  0  0  0  0  0  0  0  0  0  0  0
    8.1249  -11.9166   26.7629 C   0  0  0  0  0  0  0  0  0  0  0  0
    6.7408  -11.8668   26.8926 C   0  0  0  0  0  0  0  0  0  0  0  0
    6.0169  -13.0147   26.7397 C   0  0  0  0  0  0  0  0  0  0  0  0
    6.6518  -14.2053   26.4616 C   0  0  0  0  0  0  0  0  0  0  0  0
   10.9835  -16.4293   25.5136 C   0  0  0  0  0  0  0  0  0  0  0  0
   11.3408  -17.2669   24.6551 O   0  0  0  0  0  0  0  0  0  0  0  0
   11.5874  -16.4067   26.7443 O   0  0  0  0  0  0  0  0  0  0  0  0
  2  1  1  6
  2  5  1  0
  3  2  1  0
  4  3  1  0
  5  6  2  0
  7  5  1  0
  7 11  1  0
  8  9  1  0
  8  7  1  0
  9 10  1  0
 10 11  1  0
 11 12  1  1
 12 13  2  0
 14 12  1  0
 14 15  1  0
 15 23  1  0
 15 16  1  1
 17 22  1  0
 17 16  1  0
 18 17  2  0
 19 20  2  0
 19 18  1  0
 20 21  1  0
 21 22  2  0
 23 25  1  0
 24 23  2  0
M  END
$$$$
