CPF.pdb
     RDKit          3D

 25 26  0  0  1  0  0  0  0  0999 V2000
    8.1059  -12.2561   19.5789 N   0  0  0  0  0  0  0  0  0  0  0  0
    8.3536  -13.6885   19.5162 C   0  0  1  0  0  0  0  0  0  0  0  0
    9.8492  -13.8202   19.2585 C   0  0  0  0  0  0  0  0  0  0  0  0
   10.6870  -13.0048   20.6522 S   0  0  0  0  0  0  0  0  0  0  0  0
    7.9421  -14.2866   20.8095 C   0  0  0  0  0  0  0  0  0  0  0  0
    7.9235  -13.5638   21.8280 O   0  0  0  0  0  0  0  0  0  0  0  0
    7.5537  -15.6644   20.9758 N   0  0  0  0  0  0  0  0  0  0  0  0
    7.4348  -16.5633   19.8342 C   0  0  0  0  0  0  0  0  0  0  0  0
    6.4296  -17.6254   20.3460 C   0  0  0  0  0  0  0  0  0  0  0  0
    7.0133  -17.8146   21.7615 C   0  0  0  0  0  0  0  0  0  0  0  0
    7.2130  -16.3710   22.1548 C   0  0  1  0  0  0  0  0  0  0  0  0
    8.1496  -16.2316   23.2831 C   0  0  0  0  0  0  0  0  0  0  0  0
    9.3640  -16.0553   23.0775 O   0  0  0  0  0  0  0  0  0  0  0  0
    7.6603  -16.2992   24.6009 N   0  0  0  0  0  0  0  0  0  0  0  0
    8.4963  -16.2307   25.7838 C   0  0  1  0  0  0  0  0  0  0  0  0
    7.7508  -15.4906   26.8331 C   0  0  0  0  0  0  0  0  0  0  0  0
    7.4247  -14.0930   26.5325 C   0  0  0  0  0  0  0  0  0  0  0  0
    6.1216  -13.6489   26.4955 C   0  0  0  0  0  0  0  0  0  0  0  0
    5.7861  -12.3421   26.2138 C   0  0  0  0  0  0  0  0  0  0  0  0
    6.7964  -11.4218   25.9544 C   0  0  0  0  0  0  0  0  0  0  0  0
    8.0974  -11.8360   25.9860 C   0  0  0  0  0  0  0  0  0  0  0  0
    8.4023  -13.1491   26.2706 C   0  0  0  0  0  0  0  0  0  0  0  0
    9.0133  -17.5464   26.1913 C   0  0  0  0  0  0  0  0  0  0  0  0
    8.4346  -18.5777   25.7817 O   0  0  0  0  0  0  0  0  0  0  0  0
   10.1104  -17.6523   27.0067 O   0  0  0  0  0  0  0  0  0  0  0  0
  2  1  1  1
  2  5  1  0
  3  2  1  0
  4  3  1  0
  5  6  2  0
  7  5  1  0
  7 11  1  0
  8  9  1  0
  8  7  1  0
  9 10  1  0
 10 11  1  0
 11 12  1  1
 12 13  2  0
 14 12  1  0
 14 15  1  0
 15 23  1  0
 15 16  1  1
 17 22  1  0
 17 16  1  0
 18 17  2  0
 19 20  2  0
 19 18  1  0
 20 21  1  0
 21 22  2  0
 23 25  1  0
 24 23  2  0
M  END
$$$$
