CPF.pdb
     RDKit          3D

 25 26  0  0  1  0  0  0  0  0999 V2000
    8.1639  -12.7262   18.6358 N   0  0  0  0  0  0  0  0  0  0  0  0
    8.6618  -14.0749   18.8601 C   0  0  1  0  0  0  0  0  0  0  0  0
   10.1776  -13.9578   18.7647 C   0  0  0  0  0  0  0  0  0  0  0  0
   10.6115  -14.2746   17.0266 S   0  0  0  0  0  0  0  0  0  0  0  0
    8.2066  -14.5197   20.1998 C   0  0  0  0  0  0  0  0  0  0  0  0
    8.1993  -13.6946   21.1375 O   0  0  0  0  0  0  0  0  0  0  0  0
    7.7627  -15.8575   20.4997 N   0  0  0  0  0  0  0  0  0  0  0  0
    7.4617  -16.8135   19.4410 C   0  0  0  0  0  0  0  0  0  0  0  0
    6.4641  -17.7768   20.1316 C   0  0  0  0  0  0  0  0  0  0  0  0
    7.1962  -17.9182   21.4823 C   0  0  0  0  0  0  0  0  0  0  0  0
    7.5213  -16.4694   21.7538 C   0  0  1  0  0  0  0  0  0  0  0  0
    8.5887  -16.3230   22.7584 C   0  0  0  0  0  0  0  0  0  0  0  0
    9.7793  -16.5042   22.4456 O   0  0  0  0  0  0  0  0  0  0  0  0
    8.2521  -15.9753   24.0799 N   0  0  0  0  0  0  0  0  0  0  0  0
    9.2158  -15.8301   25.1537 C   0  0  1  0  0  0  0  0  0  0  0  0
    9.4784  -14.3812   25.3446 C   0  0  0  0  0  0  0  0  0  0  0  0
    8.3633  -13.5835   25.8643 C   0  0  0  0  0  0  0  0  0  0  0  0
    8.5566  -12.6114   26.8206 C   0  0  0  0  0  0  0  0  0  0  0  0
    7.5271  -11.8485   27.3282 C   0  0  0  0  0  0  0  0  0  0  0  0
    6.2328  -12.0581   26.8636 C   0  0  0  0  0  0  0  0  0  0  0  0
    6.0139  -13.0152   25.9143 C   0  0  0  0  0  0  0  0  0  0  0  0
    7.0630  -13.7626   25.4256 C   0  0  0  0  0  0  0  0  0  0  0  0
    8.8276  -16.5629   26.3689 C   0  0  0  0  0  0  0  0  0  0  0  0
    9.6361  -16.6263   27.3220 O   0  0  0  0  0  0  0  0  0  0  0  0
    7.6024  -17.1705   26.4658 O   0  0  0  0  0  0  0  0  0  0  0  0
  2  1  1  1
  2  5  1  0
  3  2  1  0
  4  3  1  0
  5  6  2  0
  7  5  1  0
  7 11  1  0
  8  9  1  0
  8  7  1  0
  9 10  1  0
 10 11  1  0
 11 12  1  1
 12 13  2  0
 14 12  1  0
 14 15  1  0
 15 23  1  0
 15 16  1  1
 17 22  1  0
 17 16  1  0
 18 17  2  0
 19 20  2  0
 19 18  1  0
 20 21  1  0
 21 22  2  0
 23 25  1  0
 24 23  2  0
M  END
$$$$
