CPF.pdb
     RDKit          3D

 25 26  0  0  1  0  0  0  0  0999 V2000
    7.1026  -19.3218   20.7425 N   0  0  0  0  0  0  0  0  0  0  0  0
    6.6968  -18.3445   21.7413 C   0  0  1  0  0  0  0  0  0  0  0  0
    6.3396  -19.1644   22.9745 C   0  0  0  0  0  0  0  0  0  0  0  0
    4.6642  -19.8155   22.6939 S   0  0  0  0  0  0  0  0  0  0  0  0
    7.8355  -17.4241   21.9776 C   0  0  0  0  0  0  0  0  0  0  0  0
    8.9606  -17.9087   22.2214 O   0  0  0  0  0  0  0  0  0  0  0  0
    7.7339  -15.9869   21.9428 N   0  0  0  0  0  0  0  0  0  0  0  0
    6.4932  -15.3219   21.5636 C   0  0  0  0  0  0  0  0  0  0  0  0
    6.9922  -13.9501   21.0445 C   0  0  0  0  0  0  0  0  0  0  0  0
    8.0299  -13.6626   22.1494 C   0  0  0  0  0  0  0  0  0  0  0  0
    8.7172  -15.0049   22.2153 C   0  0  1  0  0  0  0  0  0  0  0  0
    9.4702  -15.1775   23.4694 C   0  0  0  0  0  0  0  0  0  0  0  0
   10.5952  -14.6638   23.6062 O   0  0  0  0  0  0  0  0  0  0  0  0
    8.9071  -15.9304   24.5167 N   0  0  0  0  0  0  0  0  0  0  0  0
    9.5375  -16.1274   25.8076 C   0  0  1  0  0  0  0  0  0  0  0  0
    9.6182  -14.8097   26.4872 C   0  0  0  0  0  0  0  0  0  0  0  0
    8.3661  -14.0531   26.5845 C   0  0  0  0  0  0  0  0  0  0  0  0
    8.3578  -12.6769   26.6368 C   0  0  0  0  0  0  0  0  0  0  0  0
    7.1965  -11.9404   26.7304 C   0  0  0  0  0  0  0  0  0  0  0  0
    5.9737  -12.6022   26.7741 C   0  0  0  0  0  0  0  0  0  0  0  0
    5.9538  -13.9667   26.7225 C   0  0  0  0  0  0  0  0  0  0  0  0
    7.1312  -14.6762   26.6291 C   0  0  0  0  0  0  0  0  0  0  0  0
    8.9051  -17.1999   26.5913 C   0  0  0  0  0  0  0  0  0  0  0  0
    7.8437  -17.7121   26.1703 O   0  0  0  0  0  0  0  0  0  0  0  0
    9.4610  -17.6383   27.7653 O   0  0  0  0  0  0  0  0  0  0  0  0
  2  1  1  6
  2  5  1  0
  3  2  1  0
  4  3  1  0
  5  6  2  0
  7  5  1  0
  7 11  1  0
  8  9  1  0
  8  7  1  0
  9 10  1  0
 10 11  1  0
 11 12  1  1
 12 13  2  0
 14 12  1  0
 14 15  1  0
 15 23  1  0
 15 16  1  1
 17 22  1  0
 17 16  1  0
 18 17  2  0
 19 20  2  0
 19 18  1  0
 20 21  1  0
 21 22  2  0
 23 25  1  0
 24 23  2  0
M  END
$$$$
