CPF.pdb
     RDKit          3D

 25 26  0  0  1  0  0  0  0  0999 V2000
    9.7093  -17.2517   17.9295 N   0  0  0  0  0  0  0  0  0  0  0  0
    8.4908  -16.9533   18.6668 C   0  0  1  0  0  0  0  0  0  0  0  0
    7.8562  -18.3094   18.9473 C   0  0  0  0  0  0  0  0  0  0  0  0
    6.3813  -17.9890   19.9630 S   0  0  0  0  0  0  0  0  0  0  0  0
    8.8652  -16.2305   19.9066 C   0  0  0  0  0  0  0  0  0  0  0  0
    9.6931  -16.7540   20.6817 O   0  0  0  0  0  0  0  0  0  0  0  0
    8.3343  -14.9452   20.2847 N   0  0  0  0  0  0  0  0  0  0  0  0
    7.4408  -14.2032   19.4035 C   0  0  0  0  0  0  0  0  0  0  0  0
    7.6592  -12.7387   19.8592 C   0  0  0  0  0  0  0  0  0  0  0  0
    7.6516  -12.9804   21.3830 C   0  0  0  0  0  0  0  0  0  0  0  0
    8.5573  -14.1855   21.4588 C   0  0  1  0  0  0  0  0  0  0  0  0
    8.4064  -14.9091   22.7330 C   0  0  0  0  0  0  0  0  0  0  0  0
    7.4666  -15.7077   22.8980 O   0  0  0  0  0  0  0  0  0  0  0  0
    9.3358  -14.6908   23.7670 N   0  0  0  0  0  0  0  0  0  0  0  0
    9.2273  -15.2664   25.0935 C   0  0  1  0  0  0  0  0  0  0  0  0
    7.8200  -15.1231   25.5446 C   0  0  0  0  0  0  0  0  0  0  0  0
    7.4157  -13.7864   25.9916 C   0  0  0  0  0  0  0  0  0  0  0  0
    6.0889  -13.4381   26.1145 C   0  0  0  0  0  0  0  0  0  0  0  0
    5.6805  -12.1891   26.5302 C   0  0  0  0  0  0  0  0  0  0  0  0
    6.6383  -11.2299   26.8427 C   0  0  0  0  0  0  0  0  0  0  0  0
    7.9612  -11.5499   26.7305 C   0  0  0  0  0  0  0  0  0  0  0  0
    8.3394  -12.8070   26.3123 C   0  0  0  0  0  0  0  0  0  0  0  0
    9.7742  -16.6301   25.1678 C   0  0  0  0  0  0  0  0  0  0  0  0
    9.7134  -17.2486   26.2541 O   0  0  0  0  0  0  0  0  0  0  0  0
   10.3438  -17.2231   24.0707 O   0  0  0  0  0  0  0  0  0  0  0  0
  2  1  1  6
  2  5  1  0
  3  2  1  0
  4  3  1  0
  5  6  2  0
  7  5  1  0
  7 11  1  0
  8  9  1  0
  8  7  1  0
  9 10  1  0
 10 11  1  0
 11 12  1  1
 12 13  2  0
 14 12  1  0
 14 15  1  0
 15 23  1  0
 15 16  1  6
 17 22  1  0
 17 16  1  0
 18 17  2  0
 19 20  2  0
 19 18  1  0
 20 21  1  0
 21 22  2  0
 23 25  1  0
 24 23  2  0
M  END
$$$$
