CPF.pdb
     RDKit          3D

 25 26  0  0  1  0  0  0  0  0999 V2000
    6.7889  -19.3946   20.9756 N   0  0  0  0  0  0  0  0  0  0  0  0
    6.5298  -18.3551   21.9602 C   0  0  1  0  0  0  0  0  0  0  0  0
    6.2336  -19.1016   23.2546 C   0  0  0  0  0  0  0  0  0  0  0  0
    5.9123  -17.8342   24.5195 S   0  0  0  0  0  0  0  0  0  0  0  0
    7.7369  -17.4990   22.0580 C   0  0  0  0  0  0  0  0  0  0  0  0
    8.8433  -18.0401   22.2661 O   0  0  0  0  0  0  0  0  0  0  0  0
    7.7232  -16.0640   21.9254 N   0  0  0  0  0  0  0  0  0  0  0  0
    6.4978  -15.3424   21.6043 C   0  0  0  0  0  0  0  0  0  0  0  0
    7.0335  -14.0471   20.9444 C   0  0  0  0  0  0  0  0  0  0  0  0
    8.1819  -13.7570   21.9330 C   0  0  0  0  0  0  0  0  0  0  0  0
    8.7866  -15.1359   22.0399 C   0  0  1  0  0  0  0  0  0  0  0  0
    9.6366  -15.2739   23.2350 C   0  0  0  0  0  0  0  0  0  0  0  0
   10.8441  -14.9774   23.1887 O   0  0  0  0  0  0  0  0  0  0  0  0
    9.0720  -15.7452   24.4349 N   0  0  0  0  0  0  0  0  0  0  0  0
    9.7756  -15.7918   25.7021 C   0  0  1  0  0  0  0  0  0  0  0  0
    9.6693  -14.4543   26.3379 C   0  0  0  0  0  0  0  0  0  0  0  0
    8.3361  -13.8441   26.3447 C   0  0  0  0  0  0  0  0  0  0  0  0
    7.2066  -14.5769   26.0552 C   0  0  0  0  0  0  0  0  0  0  0  0
    5.9418  -14.0292   26.0522 C   0  0  0  0  0  0  0  0  0  0  0  0
    5.7848  -12.6801   26.3530 C   0  0  0  0  0  0  0  0  0  0  0  0
    6.8887  -11.9310   26.6451 C   0  0  0  0  0  0  0  0  0  0  0  0
    8.1405  -12.5063   26.6402 C   0  0  0  0  0  0  0  0  0  0  0  0
    9.3550  -16.9223   26.5444 C   0  0  0  0  0  0  0  0  0  0  0  0
    9.9384  -17.1149   27.6347 O   0  0  0  0  0  0  0  0  0  0  0  0
    8.3417  -17.7576   26.1506 O   0  0  0  0  0  0  0  0  0  0  0  0
  2  1  1  6
  2  5  1  0
  3  2  1  0
  4  3  1  0
  5  6  2  0
  7  5  1  0
  7 11  1  0
  8  9  1  0
  8  7  1  0
  9 10  1  0
 10 11  1  0
 11 12  1  1
 12 13  2  0
 14 12  1  0
 14 15  1  0
 15 23  1  0
 15 16  1  1
 17 22  1  0
 17 16  1  0
 18 17  2  0
 19 20  2  0
 19 18  1  0
 20 21  1  0
 21 22  2  0
 23 25  1  0
 24 23  2  0
M  END
$$$$
