CPF.pdb
     RDKit          3D

 25 26  0  0  1  0  0  0  0  0999 V2000
    8.4977  -12.7649   18.5842 N   0  0  0  0  0  0  0  0  0  0  0  0
    8.6471  -14.1940   18.8137 C   0  0  1  0  0  0  0  0  0  0  0  0
   10.1404  -14.4624   18.6776 C   0  0  0  0  0  0  0  0  0  0  0  0
   10.4527  -14.7581   16.9100 S   0  0  0  0  0  0  0  0  0  0  0  0
    8.1330  -14.5012   20.1705 C   0  0  0  0  0  0  0  0  0  0  0  0
    8.3433  -13.6855   21.0928 O   0  0  0  0  0  0  0  0  0  0  0  0
    7.3939  -15.6925   20.5044 N   0  0  0  0  0  0  0  0  0  0  0  0
    6.8956  -16.5921   19.4710 C   0  0  0  0  0  0  0  0  0  0  0  0
    5.6979  -17.2798   20.1731 C   0  0  0  0  0  0  0  0  0  0  0  0
    6.3640  -17.5357   21.5410 C   0  0  0  0  0  0  0  0  0  0  0  0
    7.0063  -16.1895   21.7725 C   0  0  1  0  0  0  0  0  0  0  0  0
    8.0680  -16.2534   22.7917 C   0  0  0  0  0  0  0  0  0  0  0  0
    9.2096  -16.6459   22.4904 O   0  0  0  0  0  0  0  0  0  0  0  0
    7.7819  -15.8660   24.1141 N   0  0  0  0  0  0  0  0  0  0  0  0
    8.7364  -15.9259   25.2041 C   0  0  1  0  0  0  0  0  0  0  0  0
    9.0624  -14.5349   25.6084 C   0  0  0  0  0  0  0  0  0  0  0  0
    7.9431  -13.7222   26.0946 C   0  0  0  0  0  0  0  0  0  0  0  0
    7.1901  -12.9477   25.2402 C   0  0  0  0  0  0  0  0  0  0  0  0
    6.1343  -12.1729   25.6697 C   0  0  0  0  0  0  0  0  0  0  0  0
    5.8037  -12.1635   27.0209 C   0  0  0  0  0  0  0  0  0  0  0  0
    6.5337  -12.9237   27.8894 C   0  0  0  0  0  0  0  0  0  0  0  0
    7.5839  -13.6884   27.4307 C   0  0  0  0  0  0  0  0  0  0  0  0
    8.2983  -16.8102   26.2952 C   0  0  0  0  0  0  0  0  0  0  0  0
    7.1209  -17.2342   26.2952 O   0  0  0  0  0  0  0  0  0  0  0  0
    9.1579  -17.1697   27.3009 O   0  0  0  0  0  0  0  0  0  0  0  0
  2  1  1  1
  2  5  1  0
  3  2  1  0
  4  3  1  0
  5  6  2  0
  7  5  1  0
  7 11  1  0
  8  9  1  0
  8  7  1  0
  9 10  1  0
 10 11  1  0
 11 12  1  1
 12 13  2  0
 14 12  1  0
 14 15  1  0
 15 23  1  0
 15 16  1  1
 17 22  1  0
 17 16  1  0
 18 17  2  0
 19 20  2  0
 19 18  1  0
 20 21  1  0
 21 22  2  0
 23 25  1  0
 24 23  2  0
M  END
$$$$
