DIT.pdb
     RDKit          3D

 24 23  0  0  1  0  0  0  0  0999 V2000
   16.9266  -11.8035  -15.9061 N   0  0  0  0  0  0  0  0  0  0  0  0
   17.3143  -10.4902  -16.3557 C   0  0  1  0  0  0  0  0  0  0  0  0
   16.1382   -9.5851  -16.4423 C   0  0  0  0  0  0  0  0  0  0  0  0
   15.1414   -9.9634  -17.4636 C   0  0  0  0  0  0  0  0  0  0  0  0
   15.3433  -10.8427  -18.3142 O   0  0  0  0  0  0  0  0  0  0  0  0
   18.3703   -9.9833  -15.4358 C   0  0  0  0  0  0  0  0  0  0  0  0
   18.2674  -10.1893  -14.1994 O   0  0  0  0  0  0  0  0  0  0  0  0
   13.8861   -9.3276  -17.5196 O   0  0  0  0  0  0  0  0  0  0  0  0
   24.0382   -9.9801  -14.0330 C   0  0  0  0  0  0  0  0  0  0  0  0
   22.8434   -9.0723  -14.1405 C   0  0  0  0  0  0  0  0  0  0  0  0
   21.7770   -9.6445  -15.0528 C   0  0  2  0  0  0  0  0  0  0  0  0
   22.3203   -9.9079  -16.4369 C   0  0  0  0  0  0  0  0  0  0  0  0
   20.5439   -8.7675  -15.0750 C   0  0  2  0  0  0  0  0  0  0  0  0
   19.4908   -9.2744  -15.8972 N   0  0  0  0  0  0  0  0  0  0  0  0
   20.8810   -7.3517  -15.3647 C   0  0  0  0  0  0  0  0  0  0  0  0
   21.2949   -6.9862  -16.5065 O   0  0  0  0  0  0  0  0  0  0  0  0
   20.1676   -2.6344  -14.6649 C   0  0  0  0  0  0  0  0  0  0  0  0
   19.8125   -4.0533  -14.2657 C   0  0  1  0  0  0  0  0  0  0  0  0
   18.6497   -4.3893  -14.9299 O   0  0  0  0  0  0  0  0  0  0  0  0
   20.9803   -4.9254  -14.6631 C   0  0  2  0  0  0  0  0  0  0  0  0
   20.7643   -6.3205  -14.3934 N   0  0  0  0  0  0  0  0  0  0  0  0
   22.2192   -4.4207  -14.0513 C   0  0  0  0  0  0  0  0  0  0  0  0
   22.5537   -4.6381  -12.8622 O   0  0  0  0  0  0  0  0  0  0  0  0
   23.0751   -3.6569  -14.8307 O   0  0  0  0  0  0  0  0  0  0  0  0
  2  1  1  1
  2  3  1  0
  3  4  1  0
  4  8  1  0
  5  4  2  0
  6 14  1  0
  6  2  1  0
  7  6  2  0
  9 10  1  0
 11 10  1  0
 11 13  1  0
 11 12  1  6
 13 14  1  6
 15 13  1  0
 15 16  2  0
 18 17  1  6
 19 18  1  0
 20 21  1  1
 20 18  1  0
 21 15  1  0
 22 20  1  0
 23 22  2  0
 24 22  1  0
M  END
$$$$
