DIT.pdb
     RDKit          3D

 24 23  0  0  1  0  0  0  0  0999 V2000
   19.5995  -10.9225  -18.7005 N   0  0  0  0  0  0  0  0  0  0  0  0
   20.4598   -9.7751  -18.8435 C   0  0  1  0  0  0  0  0  0  0  0  0
   20.1239   -9.0037  -20.0692 C   0  0  0  0  0  0  0  0  0  0  0  0
   20.3752   -9.7179  -21.3367 C   0  0  0  0  0  0  0  0  0  0  0  0
   20.7764  -10.8901  -21.3858 O   0  0  0  0  0  0  0  0  0  0  0  0
   20.3528   -8.9633  -17.5994 C   0  0  0  0  0  0  0  0  0  0  0  0
   19.3007   -9.0163  -16.9123 O   0  0  0  0  0  0  0  0  0  0  0  0
   20.1656   -9.0852  -22.5772 O   0  0  0  0  0  0  0  0  0  0  0  0
   23.4230   -9.6454  -13.7007 C   0  0  0  0  0  0  0  0  0  0  0  0
   22.3188   -9.2088  -14.6243 C   0  0  0  0  0  0  0  0  0  0  0  0
   22.3967   -7.7287  -14.9410 C   0  0  2  0  0  0  0  0  0  0  0  0
   22.3109   -6.8924  -13.6866 C   0  0  0  0  0  0  0  0  0  0  0  0
   21.3611   -7.3314  -15.9704 C   0  0  2  0  0  0  0  0  0  0  0  0
   21.3911   -8.1290  -17.1558 N   0  0  0  0  0  0  0  0  0  0  0  0
   21.3909   -5.8737  -16.2465 C   0  0  0  0  0  0  0  0  0  0  0  0
   22.4777   -5.2619  -16.4769 O   0  0  0  0  0  0  0  0  0  0  0  0
   19.0395   -4.0275  -18.7175 C   0  0  0  0  0  0  0  0  0  0  0  0
   18.9769   -3.2724  -17.4042 C   0  0  1  0  0  0  0  0  0  0  0  0
   17.7964   -3.6262  -16.7816 O   0  0  0  0  0  0  0  0  0  0  0  0
   20.1960   -3.6758  -16.6085 C   0  0  2  0  0  0  0  0  0  0  0  0
   20.2168   -5.0729  -16.2715 N   0  0  0  0  0  0  0  0  0  0  0  0
   20.3372   -2.8113  -15.4269 C   0  0  0  0  0  0  0  0  0  0  0  0
   20.2439   -3.2185  -14.2442 O   0  0  0  0  0  0  0  0  0  0  0  0
   20.5891   -1.4619  -15.6243 O   0  0  0  0  0  0  0  0  0  0  0  0
  2  1  1  1
  2  3  1  0
  3  4  1  0
  4  8  1  0
  5  4  2  0
  6 14  1  0
  6  2  1  0
  7  6  2  0
  9 10  1  0
 11 10  1  0
 11 13  1  0
 11 12  1  1
 13 14  1  6
 15 13  1  0
 15 16  2  0
 18 17  1  6
 19 18  1  0
 20 21  1  1
 20 18  1  0
 21 15  1  0
 22 20  1  0
 23 22  2  0
 24 22  1  0
M  END
$$$$
