DIT.pdb
     RDKit          3D

 24 23  0  0  1  0  0  0  0  0999 V2000
   19.9788  -13.0985  -17.1991 N   0  0  0  0  0  0  0  0  0  0  0  0
   20.4206  -11.8204  -17.6975 C   0  0  1  0  0  0  0  0  0  0  0  0
   19.2859  -11.0460  -18.2656 C   0  0  0  0  0  0  0  0  0  0  0  0
   18.6629  -11.6494  -19.4604 C   0  0  0  0  0  0  0  0  0  0  0  0
   19.0321  -12.7298  -19.9443 O   0  0  0  0  0  0  0  0  0  0  0  0
   21.1109  -11.1081  -16.5864 C   0  0  0  0  0  0  0  0  0  0  0  0
   20.6429  -11.1751  -15.4209 O   0  0  0  0  0  0  0  0  0  0  0  0
   17.5958  -11.0104  -20.1205 O   0  0  0  0  0  0  0  0  0  0  0  0
   26.1379  -11.6065  -15.3821 C   0  0  0  0  0  0  0  0  0  0  0  0
   24.6669  -11.2915  -15.3904 C   0  0  0  0  0  0  0  0  0  0  0  0
   24.4030   -9.8233  -15.6582 C   0  0  2  0  0  0  0  0  0  0  0  0
   25.0535   -8.9479  -14.6138 C   0  0  0  0  0  0  0  0  0  0  0  0
   22.9218   -9.5477  -15.7998 C   0  0  2  0  0  0  0  0  0  0  0  0
   22.2775  -10.3537  -16.7884 N   0  0  0  0  0  0  0  0  0  0  0  0
   22.6444   -8.0984  -15.9566 C   0  0  0  0  0  0  0  0  0  0  0  0
   22.9498   -7.4731  -17.0170 O   0  0  0  0  0  0  0  0  0  0  0  0
   19.9409   -4.2119  -15.0288 C   0  0  0  0  0  0  0  0  0  0  0  0
   20.1946   -5.6833  -14.7653 C   0  0  1  0  0  0  0  0  0  0  0  0
   19.3330   -6.4005  -15.5712 O   0  0  0  0  0  0  0  0  0  0  0  0
   21.6464   -5.9428  -15.0926 C   0  0  2  0  0  0  0  0  0  0  0  0
   22.0246   -7.3211  -14.9407 N   0  0  0  0  0  0  0  0  0  0  0  0
   22.5087   -5.0356  -14.3198 C   0  0  0  0  0  0  0  0  0  0  0  0
   22.8693   -5.2478  -13.1373 O   0  0  0  0  0  0  0  0  0  0  0  0
   22.9545   -3.8723  -14.9289 O   0  0  0  0  0  0  0  0  0  0  0  0
  2  1  1  1
  2  3  1  0
  3  4  1  0
  4  8  1  0
  5  4  2  0
  6 14  1  0
  6  2  1  0
  7  6  2  0
  9 10  1  0
 11 10  1  0
 11 13  1  0
 11 12  1  1
 13 14  1  6
 15 13  1  0
 15 16  2  0
 18 17  1  6
 19 18  1  0
 20 21  1  1
 20 18  1  0
 21 15  1  0
 22 20  1  0
 23 22  2  0
 24 22  1  0
M  END
$$$$
