DIT.pdb
     RDKit          3D

 24 23  0  0  1  0  0  0  0  0999 V2000
   19.8682  -11.7113  -19.5754 N   0  0  0  0  0  0  0  0  0  0  0  0
   20.6940  -10.5314  -19.5210 C   0  0  1  0  0  0  0  0  0  0  0  0
   20.1964   -9.4864  -20.4540 C   0  0  0  0  0  0  0  0  0  0  0  0
   20.2987   -9.8362  -21.8847 C   0  0  0  0  0  0  0  0  0  0  0  0
   19.3205   -9.8676  -22.6460 O   0  0  0  0  0  0  0  0  0  0  0  0
   20.7428  -10.0702  -18.1057 C   0  0  0  0  0  0  0  0  0  0  0  0
   19.7302  -10.2083  -17.3726 O   0  0  0  0  0  0  0  0  0  0  0  0
   21.5415  -10.1577  -22.4636 O   0  0  0  0  0  0  0  0  0  0  0  0
   23.6749  -12.2458  -14.7950 C   0  0  0  0  0  0  0  0  0  0  0  0
   22.6517  -11.3839  -15.4830 C   0  0  0  0  0  0  0  0  0  0  0  0
   22.9960   -9.9109  -15.3892 C   0  0  2  0  0  0  0  0  0  0  0  0
   23.1027   -9.4612  -13.9516 C   0  0  0  0  0  0  0  0  0  0  0  0
   22.0248   -9.0674  -16.1863 C   0  0  2  0  0  0  0  0  0  0  0  0
   21.8873   -9.4785  -17.5480 N   0  0  0  0  0  0  0  0  0  0  0  0
   22.3063   -7.6178  -16.0395 C   0  0  0  0  0  0  0  0  0  0  0  0
   23.3961   -7.1074  -16.4399 O   0  0  0  0  0  0  0  0  0  0  0  0
   20.2120   -4.7011  -17.2060 C   0  0  0  0  0  0  0  0  0  0  0  0
   20.4221   -4.4633  -15.7235 C   0  0  1  0  0  0  0  0  0  0  0  0
   19.2601   -4.8362  -15.0778 O   0  0  0  0  0  0  0  0  0  0  0  0
   21.6099   -5.3001  -15.3097 C   0  0  2  0  0  0  0  0  0  0  0  0
   21.3840   -6.7129  -15.4471 N   0  0  0  0  0  0  0  0  0  0  0  0
   22.0411   -4.9298  -13.9530 C   0  0  0  0  0  0  0  0  0  0  0  0
   21.9705   -5.6943  -12.9612 O   0  0  0  0  0  0  0  0  0  0  0  0
   22.5584   -3.6592  -13.7499 O   0  0  0  0  0  0  0  0  0  0  0  0
  2  1  1  1
  2  3  1  0
  3  4  1  0
  4  8  1  0
  5  4  2  0
  6 14  1  0
  6  2  1  0
  7  6  2  0
  9 10  1  0
 11 10  1  0
 11 13  1  0
 11 12  1  1
 13 14  1  6
 15 13  1  0
 15 16  2  0
 18 17  1  6
 19 18  1  0
 20 21  1  1
 20 18  1  0
 21 15  1  0
 22 20  1  0
 23 22  2  0
 24 22  1  0
M  END
$$$$
