DIT.pdb
     RDKit          3D

 24 23  0  0  1  0  0  0  0  0999 V2000
   15.0732  -11.0893  -12.5617 N   0  0  0  0  0  0  0  0  0  0  0  0
   15.9168   -9.9442  -12.3293 C   0  0  1  0  0  0  0  0  0  0  0  0
   16.4824   -9.4284  -13.6037 C   0  0  0  0  0  0  0  0  0  0  0  0
   17.4844  -10.3093  -14.2361 C   0  0  0  0  0  0  0  0  0  0  0  0
   17.1843  -11.2300  -15.0105 O   0  0  0  0  0  0  0  0  0  0  0  0
   15.1157   -8.9253  -11.5954 C   0  0  0  0  0  0  0  0  0  0  0  0
   13.9905   -8.5824  -12.0404 O   0  0  0  0  0  0  0  0  0  0  0  0
   18.8591  -10.1399  -13.9824 O   0  0  0  0  0  0  0  0  0  0  0  0
   12.7463   -9.2592   -7.2331 C   0  0  0  0  0  0  0  0  0  0  0  0
   13.2904   -8.7858   -8.5533 C   0  0  0  0  0  0  0  0  0  0  0  0
   14.3248   -7.6917   -8.3807 C   0  0  2  0  0  0  0  0  0  0  0  0
   13.7672   -6.5255   -7.6001 C   0  0  0  0  0  0  0  0  0  0  0  0
   14.9053   -7.2688   -9.7127 C   0  0  2  0  0  0  0  0  0  0  0  0
   15.5708   -8.3224  -10.4120 N   0  0  0  0  0  0  0  0  0  0  0  0
   15.7275   -6.0396   -9.5890 C   0  0  0  0  0  0  0  0  0  0  0  0
   16.8059   -6.0244   -8.9216 O   0  0  0  0  0  0  0  0  0  0  0  0
   16.9715   -3.7598  -12.4267 C   0  0  0  0  0  0  0  0  0  0  0  0
   16.2202   -2.8695  -11.4562 C   0  0  1  0  0  0  0  0  0  0  0  0
   14.9703   -2.6364  -11.9942 O   0  0  0  0  0  0  0  0  0  0  0  0
   16.1568   -3.6106  -10.1413 C   0  0  2  0  0  0  0  0  0  0  0  0
   15.3667   -4.8096  -10.2033 N   0  0  0  0  0  0  0  0  0  0  0  0
   15.7170   -2.7032   -9.0703 C   0  0  0  0  0  0  0  0  0  0  0  0
   14.6326   -2.8220   -8.4513 O   0  0  0  0  0  0  0  0  0  0  0  0
   16.5466   -1.6493   -8.7177 O   0  0  0  0  0  0  0  0  0  0  0  0
  2  1  1  6
  2  3  1  0
  3  4  1  0
  4  8  1  0
  5  4  2  0
  6 14  1  0
  6  2  1  0
  7  6  2  0
  9 10  1  0
 11 10  1  0
 11 13  1  0
 11 12  1  6
 13 14  1  1
 15 13  1  0
 15 16  2  0
 18 17  1  6
 19 18  1  0
 20 21  1  6
 20 18  1  0
 21 15  1  0
 22 20  1  0
 23 22  2  0
 24 22  1  0
M  END
$$$$
