DIT.pdb
     RDKit          3D

 24 23  0  0  1  0  0  0  0  0999 V2000
   23.2922  -12.4554  -19.3147 N   0  0  0  0  0  0  0  0  0  0  0  0
   23.4975  -11.0442  -19.1069 C   0  0  1  0  0  0  0  0  0  0  0  0
   23.3963  -10.2943  -20.3865 C   0  0  0  0  0  0  0  0  0  0  0  0
   24.4580  -10.5985  -21.3664 C   0  0  0  0  0  0  0  0  0  0  0  0
   25.3264  -11.4632  -21.1777 O   0  0  0  0  0  0  0  0  0  0  0  0
   22.5169  -10.5832  -18.0850 C   0  0  0  0  0  0  0  0  0  0  0  0
   21.3755  -11.1093  -18.0385 O   0  0  0  0  0  0  0  0  0  0  0  0
   24.5346   -9.9038  -22.5889 O   0  0  0  0  0  0  0  0  0  0  0  0
   21.4616   -9.5091  -12.3816 C   0  0  0  0  0  0  0  0  0  0  0  0
   21.2329   -8.9724  -13.7682 C   0  0  0  0  0  0  0  0  0  0  0  0
   22.2003   -9.5660  -14.7726 C   0  0  2  0  0  0  0  0  0  0  0  0
   23.6339   -9.3378  -14.3570 C   0  0  0  0  0  0  0  0  0  0  0  0
   21.9186   -9.0622  -16.1715 C   0  0  2  0  0  0  0  0  0  0  0  0
   22.8170   -9.5714  -17.1593 N   0  0  0  0  0  0  0  0  0  0  0  0
   21.7870   -7.5845  -16.2079 C   0  0  0  0  0  0  0  0  0  0  0  0
   22.7622   -6.8224  -15.9307 O   0  0  0  0  0  0  0  0  0  0  0  0
   20.3029   -5.6486  -19.1567 C   0  0  0  0  0  0  0  0  0  0  0  0
   19.5861   -5.1381  -17.9220 C   0  0  1  0  0  0  0  0  0  0  0  0
   18.3432   -5.7385  -17.8896 O   0  0  0  0  0  0  0  0  0  0  0  0
   20.4414   -5.5105  -16.7338 C   0  0  2  0  0  0  0  0  0  0  0  0
   20.5731   -6.9301  -16.5521 N   0  0  0  0  0  0  0  0  0  0  0  0
   19.9490   -4.8331  -15.5245 C   0  0  0  0  0  0  0  0  0  0  0  0
   19.4485   -5.4291  -14.5409 O   0  0  0  0  0  0  0  0  0  0  0  0
   20.0402   -3.4508  -15.4603 O   0  0  0  0  0  0  0  0  0  0  0  0
  2  1  1  6
  2  3  1  0
  3  4  1  0
  4  8  1  0
  5  4  2  0
  6 14  1  0
  6  2  1  0
  7  6  2  0
  9 10  1  0
 11 10  1  0
 11 13  1  0
 11 12  1  1
 13 14  1  6
 15 13  1  0
 15 16  2  0
 18 17  1  6
 19 18  1  0
 20 21  1  1
 20 18  1  0
 21 15  1  0
 22 20  1  0
 23 22  2  0
 24 22  1  0
M  END
$$$$
