DIT.pdb
     RDKit          3D

 24 23  0  0  1  0  0  0  0  0999 V2000
   27.8458  -19.5093  -17.5062 N   0  0  0  0  0  0  0  0  0  0  0  0
   27.1250  -18.7872  -16.4883 C   0  0  1  0  0  0  0  0  0  0  0  0
   26.1766  -17.8145  -17.0919 C   0  0  0  0  0  0  0  0  0  0  0  0
   26.8103  -16.6184  -17.6814 C   0  0  0  0  0  0  0  0  0  0  0  0
   27.9907  -16.5943  -18.0603 O   0  0  0  0  0  0  0  0  0  0  0  0
   26.4531  -19.7830  -15.6078 C   0  0  0  0  0  0  0  0  0  0  0  0
   25.8218  -20.7409  -16.1232 O   0  0  0  0  0  0  0  0  0  0  0  0
   26.0857  -15.4219  -17.8441 O   0  0  0  0  0  0  0  0  0  0  0  0
   28.8018  -21.1347  -10.9325 C   0  0  0  0  0  0  0  0  0  0  0  0
   28.0054  -21.1753  -12.2081 C   0  0  0  0  0  0  0  0  0  0  0  0
   26.5623  -20.7678  -11.9886 C   0  0  2  0  0  0  0  0  0  0  0  0
   25.8521  -21.7317  -11.0684 C   0  0  0  0  0  0  0  0  0  0  0  0
   25.8362  -20.5857  -13.3038 C   0  0  2  0  0  0  0  0  0  0  0  0
   26.4945  -19.6954  -14.2072 N   0  0  0  0  0  0  0  0  0  0  0  0
   24.4034  -20.2571  -13.1003 C   0  0  0  0  0  0  0  0  0  0  0  0
   24.0402  -19.2923  -12.3615 O   0  0  0  0  0  0  0  0  0  0  0  0
   21.3484  -22.0626  -15.5080 C   0  0  0  0  0  0  0  0  0  0  0  0
   21.2740  -20.6415  -14.9848 C   0  0  1  0  0  0  0  0  0  0  0  0
   19.9380  -20.3040  -14.8981 O   0  0  0  0  0  0  0  0  0  0  0  0
   21.9629  -20.6332  -13.6403 C   0  0  2  0  0  0  0  0  0  0  0  0
   23.3526  -20.9927  -13.7127 N   0  0  0  0  0  0  0  0  0  0  0  0
   21.2166  -21.4660  -12.6848 C   0  0  0  0  0  0  0  0  0  0  0  0
   21.6389  -22.5525  -12.2217 O   0  0  0  0  0  0  0  0  0  0  0  0
   19.9688  -21.0300  -12.2653 O   0  0  0  0  0  0  0  0  0  0  0  0
  2  1  1  6
  2  3  1  0
  3  4  1  0
  4  8  1  0
  5  4  2  0
  6 14  1  0
  6  2  1  0
  7  6  2  0
  9 10  1  0
 11 10  1  0
 11 13  1  0
 11 12  1  1
 13 14  1  1
 15 13  1  0
 15 16  2  0
 18 17  1  1
 19 18  1  0
 20 21  1  6
 20 18  1  0
 21 15  1  0
 22 20  1  0
 23 22  2  0
 24 22  1  0
M  END
$$$$
