DIT.pdb
     RDKit          3D

 24 23  0  0  1  0  0  0  0  0999 V2000
   18.8788  -11.2081  -19.1033 N   0  0  0  0  0  0  0  0  0  0  0  0
   19.8510  -10.1442  -19.0927 C   0  0  1  0  0  0  0  0  0  0  0  0
   19.4380   -9.0327  -19.9893 C   0  0  0  0  0  0  0  0  0  0  0  0
   19.3840   -9.3827  -21.4226 C   0  0  0  0  0  0  0  0  0  0  0  0
   20.0942  -10.2620  -21.9324 O   0  0  0  0  0  0  0  0  0  0  0  0
   20.0417   -9.7106  -17.6807 C   0  0  0  0  0  0  0  0  0  0  0  0
   19.0554   -9.6853  -16.9007 O   0  0  0  0  0  0  0  0  0  0  0  0
   18.5026   -8.7180  -22.2968 O   0  0  0  0  0  0  0  0  0  0  0  0
   23.3217  -12.1503  -14.6931 C   0  0  0  0  0  0  0  0  0  0  0  0
   22.2370  -11.2692  -15.2503 C   0  0  0  0  0  0  0  0  0  0  0  0
   22.5844   -9.7988  -15.1318 C   0  0  2  0  0  0  0  0  0  0  0  0
   22.7943   -9.3972  -13.6913 C   0  0  0  0  0  0  0  0  0  0  0  0
   21.5563   -8.9332  -15.8274 C   0  0  2  0  0  0  0  0  0  0  0  0
   21.2933   -9.3225  -17.1770 N   0  0  0  0  0  0  0  0  0  0  0  0
   21.8670   -7.4890  -15.6862 C   0  0  0  0  0  0  0  0  0  0  0  0
   22.9233   -6.9845  -16.1745 O   0  0  0  0  0  0  0  0  0  0  0  0
   20.3972   -2.9042  -14.6791 C   0  0  0  0  0  0  0  0  0  0  0  0
   19.9865   -4.3633  -14.7122 C   0  0  1  0  0  0  0  0  0  0  0  0
   19.1054   -4.5194  -15.7637 O   0  0  0  0  0  0  0  0  0  0  0  0
   21.2512   -5.1702  -14.8904 C   0  0  2  0  0  0  0  0  0  0  0  0
   21.0117   -6.5830  -15.0021 N   0  0  0  0  0  0  0  0  0  0  0  0
   22.2118   -4.8463  -13.8247 C   0  0  0  0  0  0  0  0  0  0  0  0
   22.1667   -5.3301  -12.6684 O   0  0  0  0  0  0  0  0  0  0  0  0
   23.2330   -3.9517  -14.1079 O   0  0  0  0  0  0  0  0  0  0  0  0
  2  1  1  1
  2  3  1  0
  3  4  1  0
  4  8  1  0
  5  4  2  0
  6 14  1  0
  6  2  1  0
  7  6  2  0
  9 10  1  0
 11 10  1  0
 11 13  1  0
 11 12  1  1
 13 14  1  6
 15 13  1  0
 15 16  2  0
 18 17  1  6
 19 18  1  0
 20 21  1  1
 20 18  1  0
 21 15  1  0
 22 20  1  0
 23 22  2  0
 24 22  1  0
M  END
$$$$
