DIT.pdb
     RDKit          3D

 24 23  0  0  1  0  0  0  0  0999 V2000
   27.9144  -21.7853  -16.1008 N   0  0  0  0  0  0  0  0  0  0  0  0
   27.3164  -20.6445  -15.4544 C   0  0  1  0  0  0  0  0  0  0  0  0
   26.6851  -19.7362  -16.4477 C   0  0  0  0  0  0  0  0  0  0  0  0
   27.6340  -19.0445  -17.3426 C   0  0  0  0  0  0  0  0  0  0  0  0
   27.2811  -18.2105  -18.1897 O   0  0  0  0  0  0  0  0  0  0  0  0
   26.3547  -21.1469  -14.4341 C   0  0  0  0  0  0  0  0  0  0  0  0
   25.8103  -22.2694  -14.5940 O   0  0  0  0  0  0  0  0  0  0  0  0
   29.0158  -19.3066  -17.2734 O   0  0  0  0  0  0  0  0  0  0  0  0
   26.7771  -21.7116   -9.5950 C   0  0  0  0  0  0  0  0  0  0  0  0
   26.6921  -20.5225  -10.5125 C   0  0  0  0  0  0  0  0  0  0  0  0
   25.2673  -20.2418  -10.9461 C   0  0  2  0  0  0  0  0  0  0  0  0
   24.2718  -20.7737   -9.9429 C   0  0  0  0  0  0  0  0  0  0  0  0
   25.0067  -20.7567  -12.3451 C   0  0  2  0  0  0  0  0  0  0  0  0
   26.0248  -20.4095  -13.2859 N   0  0  0  0  0  0  0  0  0  0  0  0
   23.6398  -20.4153  -12.8113 C   0  0  0  0  0  0  0  0  0  0  0  0
   23.2649  -19.2116  -12.9494 O   0  0  0  0  0  0  0  0  0  0  0  0
   19.5858  -21.5156  -15.2527 C   0  0  0  0  0  0  0  0  0  0  0  0
   20.9699  -21.9614  -14.8234 C   0  0  1  0  0  0  0  0  0  0  0  0
   21.8143  -21.7775  -15.9003 O   0  0  0  0  0  0  0  0  0  0  0  0
   21.3539  -21.1132  -13.6337 C   0  0  2  0  0  0  0  0  0  0  0  0
   22.6689  -21.4029  -13.1311 N   0  0  0  0  0  0  0  0  0  0  0  0
   20.3209  -21.2082  -12.5908 C   0  0  0  0  0  0  0  0  0  0  0  0
   20.3982  -21.9647  -11.5934 O   0  0  0  0  0  0  0  0  0  0  0  0
   19.1890  -20.4159  -12.7107 O   0  0  0  0  0  0  0  0  0  0  0  0
  2  1  1  6
  2  3  1  0
  3  4  1  0
  4  8  1  0
  5  4  2  0
  6 14  1  0
  6  2  1  0
  7  6  2  0
  9 10  1  0
 11 10  1  0
 11 13  1  0
 11 12  1  1
 13 14  1  6
 15 13  1  0
 15 16  2  0
 18 17  1  6
 19 18  1  0
 20 21  1  1
 20 18  1  0
 21 15  1  0
 22 20  1  0
 23 22  2  0
 24 22  1  0
M  END
$$$$
