DIT.pdb
     RDKit          3D

 24 23  0  0  1  0  0  0  0  0999 V2000
   20.2129  -17.6961  -14.9049 N   0  0  0  0  0  0  0  0  0  0  0  0
   21.5551  -18.2195  -14.8657 C   0  0  1  0  0  0  0  0  0  0  0  0
   21.5698  -19.6776  -15.1551 C   0  0  0  0  0  0  0  0  0  0  0  0
   20.8429  -20.5092  -14.1754 C   0  0  0  0  0  0  0  0  0  0  0  0
   20.8486  -21.7489  -14.2026 O   0  0  0  0  0  0  0  0  0  0  0  0
   22.3836  -17.4302  -15.8190 C   0  0  0  0  0  0  0  0  0  0  0  0
   21.8541  -16.9573  -16.8572 O   0  0  0  0  0  0  0  0  0  0  0  0
   20.0921  -19.9184  -13.1409 O   0  0  0  0  0  0  0  0  0  0  0  0
   24.9778  -13.1145  -14.5923 C   0  0  0  0  0  0  0  0  0  0  0  0
   24.3013  -14.2711  -15.2762 C   0  0  0  0  0  0  0  0  0  0  0  0
   25.3005  -15.2829  -15.8004 C   0  0  2  0  0  0  0  0  0  0  0  0
   26.3275  -14.6299  -16.6943 C   0  0  0  0  0  0  0  0  0  0  0  0
   24.6041  -16.4445  -16.4756 C   0  0  2  0  0  0  0  0  0  0  0  0
   23.7501  -17.1894  -15.6050 N   0  0  0  0  0  0  0  0  0  0  0  0
   25.5587  -17.2967  -17.2270 C   0  0  0  0  0  0  0  0  0  0  0  0
   26.4755  -17.9469  -16.6394 O   0  0  0  0  0  0  0  0  0  0  0  0
   26.7791  -19.6524  -21.3772 C   0  0  0  0  0  0  0  0  0  0  0  0
   25.8582  -18.6055  -20.7816 C   0  0  1  0  0  0  0  0  0  0  0  0
   24.5850  -19.1392  -20.7637 O   0  0  0  0  0  0  0  0  0  0  0  0
   26.3792  -18.3011  -19.3966 C   0  0  2  0  0  0  0  0  0  0  0  0
   25.5109  -17.4409  -18.6402 N   0  0  0  0  0  0  0  0  0  0  0  0
   27.7532  -17.7821  -19.4762 C   0  0  0  0  0  0  0  0  0  0  0  0
   28.0385  -16.5882  -19.7340 O   0  0  0  0  0  0  0  0  0  0  0  0
   28.8031  -18.6604  -19.2538 O   0  0  0  0  0  0  0  0  0  0  0  0
  2  1  1  6
  2  3  1  0
  3  4  1  0
  4  8  1  0
  5  4  2  0
  6 14  1  0
  6  2  1  0
  7  6  2  0
  9 10  1  0
 11 10  1  0
 11 13  1  0
 11 12  1  6
 13 14  1  1
 15 13  1  0
 15 16  2  0
 18 17  1  1
 19 18  1  0
 20 21  1  6
 20 18  1  0
 21 15  1  0
 22 20  1  0
 23 22  2  0
 24 22  1  0
M  END
$$$$
