DIT.pdb
     RDKit          3D

 24 23  0  0  1  0  0  0  0  0999 V2000
   19.3607  -11.1370  -19.1749 N   0  0  0  0  0  0  0  0  0  0  0  0
   20.5036  -10.2740  -19.0134 C   0  0  1  0  0  0  0  0  0  0  0  0
   20.4664   -9.1489  -19.9844 C   0  0  0  0  0  0  0  0  0  0  0  0
   20.6016   -9.5491  -21.3991 C   0  0  0  0  0  0  0  0  0  0  0  0
   20.7539  -10.7260  -21.7585 O   0  0  0  0  0  0  0  0  0  0  0  0
   20.5369   -9.8168  -17.5963 C   0  0  0  0  0  0  0  0  0  0  0  0
   19.4798   -9.8302  -16.9149 O   0  0  0  0  0  0  0  0  0  0  0  0
   20.5630   -8.5896  -22.4291 O   0  0  0  0  0  0  0  0  0  0  0  0
   23.0935  -12.0611  -13.9760 C   0  0  0  0  0  0  0  0  0  0  0  0
   22.1804  -11.1615  -14.7634 C   0  0  0  0  0  0  0  0  0  0  0  0
   22.6339   -9.7160  -14.7209 C   0  0  2  0  0  0  0  0  0  0  0  0
   22.6512   -9.1862  -13.3070 C   0  0  0  0  0  0  0  0  0  0  0  0
   21.8077   -8.8530  -15.6497 C   0  0  2  0  0  0  0  0  0  0  0  0
   21.7147   -9.3640  -16.9810 N   0  0  0  0  0  0  0  0  0  0  0  0
   22.2279   -7.4307  -15.5982 C   0  0  0  0  0  0  0  0  0  0  0  0
   23.4000   -7.0707  -15.9225 O   0  0  0  0  0  0  0  0  0  0  0  0
   20.2276   -4.5413  -17.1214 C   0  0  0  0  0  0  0  0  0  0  0  0
   20.5453   -4.1192  -15.7002 C   0  0  1  0  0  0  0  0  0  0  0  0
   19.3992   -4.2982  -14.9515 O   0  0  0  0  0  0  0  0  0  0  0  0
   21.6873   -4.9891  -15.2299 C   0  0  2  0  0  0  0  0  0  0  0  0
   21.3553   -6.3869  -15.1866 N   0  0  0  0  0  0  0  0  0  0  0  0
   22.2031   -4.4947  -13.9441 C   0  0  0  0  0  0  0  0  0  0  0  0
   22.1358   -5.1353  -12.8679 O   0  0  0  0  0  0  0  0  0  0  0  0
   22.8020   -3.2442  -13.9116 O   0  0  0  0  0  0  0  0  0  0  0  0
  2  1  1  1
  2  3  1  0
  3  4  1  0
  4  8  1  0
  5  4  2  0
  6 14  1  0
  6  2  1  0
  7  6  2  0
  9 10  1  0
 11 10  1  0
 11 13  1  0
 11 12  1  1
 13 14  1  6
 15 13  1  0
 15 16  2  0
 18 17  1  6
 19 18  1  0
 20 21  1  1
 20 18  1  0
 21 15  1  0
 22 20  1  0
 23 22  2  0
 24 22  1  0
M  END
$$$$
