DIT.pdb
     RDKit          3D

 24 23  0  0  1  0  0  0  0  0999 V2000
   20.1471  -12.8284  -18.2481 N   0  0  0  0  0  0  0  0  0  0  0  0
   20.4124  -11.4204  -18.4037 C   0  0  1  0  0  0  0  0  0  0  0  0
   19.1522  -10.6567  -18.6005 C   0  0  0  0  0  0  0  0  0  0  0  0
   18.4830  -10.8921  -19.8953 C   0  0  0  0  0  0  0  0  0  0  0  0
   18.9356  -11.6534  -20.7632 O   0  0  0  0  0  0  0  0  0  0  0  0
   21.1874  -10.9654  -17.2160 C   0  0  0  0  0  0  0  0  0  0  0  0
   20.8933  -11.4083  -16.0762 O   0  0  0  0  0  0  0  0  0  0  0  0
   17.2716  -10.2474  -20.2111 O   0  0  0  0  0  0  0  0  0  0  0  0
   26.4721  -10.2710  -14.7204 C   0  0  0  0  0  0  0  0  0  0  0  0
   25.1033   -9.6623  -14.8587 C   0  0  0  0  0  0  0  0  0  0  0  0
   24.3934  -10.1418  -16.1089 C   0  0  2  0  0  0  0  0  0  0  0  0
   25.2263   -9.8941  -17.3439 C   0  0  0  0  0  0  0  0  0  0  0  0
   23.0080   -9.5429  -16.2185 C   0  0  2  0  0  0  0  0  0  0  0  0
   22.2464  -10.0493  -17.3165 N   0  0  0  0  0  0  0  0  0  0  0  0
   23.0440   -8.0603  -16.1671 C   0  0  0  0  0  0  0  0  0  0  0  0
   23.7644   -7.3839  -16.9622 O   0  0  0  0  0  0  0  0  0  0  0  0
   20.7670   -5.6796  -17.1239 C   0  0  0  0  0  0  0  0  0  0  0  0
   20.9173   -5.3019  -15.6632 C   0  0  1  0  0  0  0  0  0  0  0  0
   19.8407   -5.8392  -14.9860 O   0  0  0  0  0  0  0  0  0  0  0  0
   22.2375   -5.8696  -15.1977 C   0  0  2  0  0  0  0  0  0  0  0  0
   22.2820   -7.3058  -15.2341 N   0  0  0  0  0  0  0  0  0  0  0  0
   22.5803   -5.3309  -13.8725 C   0  0  0  0  0  0  0  0  0  0  0  0
   22.6685   -6.0274  -12.8332 O   0  0  0  0  0  0  0  0  0  0  0  0
   22.8222   -3.9702  -13.7571 O   0  0  0  0  0  0  0  0  0  0  0  0
  2  1  1  1
  2  3  1  0
  3  4  1  0
  4  8  1  0
  5  4  2  0
  6 14  1  0
  6  2  1  0
  7  6  2  0
  9 10  1  0
 11 10  1  0
 11 13  1  0
 11 12  1  6
 13 14  1  6
 15 13  1  0
 15 16  2  0
 18 17  1  6
 19 18  1  0
 20 21  1  1
 20 18  1  0
 21 15  1  0
 22 20  1  0
 23 22  2  0
 24 22  1  0
M  END
$$$$
