DIT.pdb
     RDKit          3D

 24 23  0  0  1  0  0  0  0  0999 V2000
   18.6013  -12.5436  -17.7462 N   0  0  0  0  0  0  0  0  0  0  0  0
   19.2966  -11.3487  -18.1536 C   0  0  1  0  0  0  0  0  0  0  0  0
   18.3809  -10.4080  -18.8512 C   0  0  0  0  0  0  0  0  0  0  0  0
   17.8108  -10.9220  -20.1124 C   0  0  0  0  0  0  0  0  0  0  0  0
   16.9116  -10.3392  -20.7365 O   0  0  0  0  0  0  0  0  0  0  0  0
   19.9310  -10.7522  -16.9453 C   0  0  0  0  0  0  0  0  0  0  0  0
   19.3503  -10.8383  -15.8330 O   0  0  0  0  0  0  0  0  0  0  0  0
   18.2732  -12.1261  -20.6774 O   0  0  0  0  0  0  0  0  0  0  0  0
   24.4029  -12.2144  -15.0941 C   0  0  0  0  0  0  0  0  0  0  0  0
   23.0644  -11.5867  -15.3728 C   0  0  0  0  0  0  0  0  0  0  0  0
   23.1698  -10.0865  -15.5601 C   0  0  2  0  0  0  0  0  0  0  0  0
   23.8279   -9.4283  -14.3710 C   0  0  0  0  0  0  0  0  0  0  0  0
   21.8232   -9.4768  -15.8841 C   0  0  2  0  0  0  0  0  0  0  0  0
   21.1666  -10.0877  -16.9967 N   0  0  0  0  0  0  0  0  0  0  0  0
   21.8998   -7.9987  -15.9909 C   0  0  0  0  0  0  0  0  0  0  0  0
   22.6964   -7.4300  -16.7976 O   0  0  0  0  0  0  0  0  0  0  0  0
   19.0713   -5.4921  -14.0097 C   0  0  0  0  0  0  0  0  0  0  0  0
   19.7471   -5.0712  -15.3000 C   0  0  1  0  0  0  0  0  0  0  0  0
   19.7911   -3.6912  -15.3108 O   0  0  0  0  0  0  0  0  0  0  0  0
   21.1227   -5.6954  -15.2978 C   0  0  2  0  0  0  0  0  0  0  0  0
   21.0949   -7.1295  -15.2054 N   0  0  0  0  0  0  0  0  0  0  0  0
   21.9547   -5.0817  -14.2515 C   0  0  0  0  0  0  0  0  0  0  0  0
   22.2284   -5.6335  -13.1589 O   0  0  0  0  0  0  0  0  0  0  0  0
   22.4719   -3.8152  -14.4795 O   0  0  0  0  0  0  0  0  0  0  0  0
  2  1  1  1
  2  3  1  0
  3  4  1  0
  4  8  1  0
  5  4  2  0
  6 14  1  0
  6  2  1  0
  7  6  2  0
  9 10  1  0
 11 10  1  0
 11 13  1  0
 11 12  1  1
 13 14  1  6
 15 13  1  0
 15 16  2  0
 18 17  1  1
 19 18  1  0
 20 21  1  1
 20 18  1  0
 21 15  1  0
 22 20  1  0
 23 22  2  0
 24 22  1  0
M  END
$$$$
