PKF.pdb
     RDKit          3D

 28 29  0  0  1  0  0  0  0  0999 V2000
    8.7668  -15.0721   19.1659 N   0  0  0  0  0  0  0  0  0  0  0  0
    9.0347  -14.2499   17.9994 C   0  0  0  0  0  0  0  0  0  0  0  0
    7.8924  -13.2416   18.0908 C   0  0  0  0  0  0  0  0  0  0  0  0
    7.7730  -13.0324   19.6011 C   0  0  0  0  0  0  0  0  0  0  0  0
    8.6014  -14.0995   20.2044 C   0  0  1  0  0  0  0  0  0  0  0  0
    8.0516  -14.6736   21.4524 C   0  0  0  0  0  0  0  0  0  0  0  0
    7.8433  -13.8705   22.3868 O   0  0  0  0  0  0  0  0  0  0  0  0
    7.7742  -16.0463   21.5920 N   0  0  0  0  0  0  0  0  0  0  0  0
    7.3237  -16.7388   22.7499 C   0  0  1  0  0  0  0  0  0  0  0  0
    6.8612  -18.1803   22.4831 C   0  0  0  0  0  0  0  0  0  0  0  0
    6.3366  -18.8202   23.7397 C   0  0  0  0  0  0  0  0  0  0  0  0
    5.9146  -20.2429   23.3852 C   0  0  0  0  0  0  0  0  0  0  0  0
    5.2322  -20.9077   24.5635 C   0  0  0  0  0  0  0  0  0  0  0  0
    4.9534  -22.2905   24.2252 N   0  0  0  0  0  0  0  0  0  0  0  0
    8.1307  -16.5893   23.9484 C   0  0  0  0  0  0  0  0  0  0  0  0
    9.4047  -16.6565   23.8090 O   0  0  0  0  0  0  0  0  0  0  0  0
    7.6367  -16.3749   25.2610 N   0  0  0  0  0  0  0  0  0  0  0  0
    8.5270  -16.0895   26.3716 C   0  0  1  0  0  0  0  0  0  0  0  0
    7.7879  -15.3508   27.4356 C   0  0  0  0  0  0  0  0  0  0  0  0
    7.2250  -14.0729   26.9920 C   0  0  0  0  0  0  0  0  0  0  0  0
    5.8586  -13.8967   26.9601 C   0  0  0  0  0  0  0  0  0  0  0  0
    5.3416  -12.6884   26.5419 C   0  0  0  0  0  0  0  0  0  0  0  0
    6.1294  -11.6371   26.1502 C   0  0  0  0  0  0  0  0  0  0  0  0
    7.4901  -11.8126   26.1819 C   0  0  0  0  0  0  0  0  0  0  0  0
    8.0456  -13.0291   26.6021 C   0  0  0  0  0  0  0  0  0  0  0  0
    9.2079  -17.3221   26.8375 C   0  0  0  0  0  0  0  0  0  0  0  0
    8.9000  -18.4694   26.4369 O   0  0  0  0  0  0  0  0  0  0  0  0
   10.2357  -17.2130   27.7602 O   0  0  0  0  0  0  0  0  0  0  0  0
  1  2  1  0
  3  2  1  0
  4  5  1  0
  4  3  1  0
  5  1  1  0
  6  8  1  0
  5  6  1  1
  7  6  2  0
  9 15  1  0
  9  8  1  0
  9 10  1  6
 11 10  1  0
 12 11  1  0
 13 12  1  0
 14 13  1  0
 15 17  1  0
 16 15  2  0
 17 18  1  0
 18 19  1  1
 18 26  1  0
 20 25  1  0
 20 19  1  0
 21 20  2  0
 22 21  1  0
 23 22  2  0
 23 24  1  0
 24 25  2  0
 26 27  2  0
 26 28  1  0
M  END
$$$$
