PKF.pdb
     RDKit          3D

 28 29  0  0  1  0  0  0  0  0999 V2000
    8.5993  -14.9658   19.1129 N   0  0  0  0  0  0  0  0  0  0  0  0
    8.8147  -14.1054   17.9632 C   0  0  0  0  0  0  0  0  0  0  0  0
    7.6384  -13.1424   18.1015 C   0  0  0  0  0  0  0  0  0  0  0  0
    7.5406  -12.9757   19.6186 C   0  0  0  0  0  0  0  0  0  0  0  0
    8.4187  -14.0263   20.1790 C   0  0  1  0  0  0  0  0  0  0  0  0
    7.9142  -14.6513   21.4216 C   0  0  0  0  0  0  0  0  0  0  0  0
    7.6906  -13.8795   22.3786 O   0  0  0  0  0  0  0  0  0  0  0  0
    7.6942  -16.0370   21.5325 N   0  0  0  0  0  0  0  0  0  0  0  0
    7.2447  -16.7677   22.6671 C   0  0  1  0  0  0  0  0  0  0  0  0
    6.8759  -18.2302   22.3702 C   0  0  0  0  0  0  0  0  0  0  0  0
    6.3761  -18.9229   23.6088 C   0  0  0  0  0  0  0  0  0  0  0  0
    6.1099  -20.3795   23.2409 C   0  0  0  0  0  0  0  0  0  0  0  0
    5.4632  -21.1138   24.3978 C   0  0  0  0  0  0  0  0  0  0  0  0
    5.1317  -22.4603   23.9723 N   0  0  0  0  0  0  0  0  0  0  0  0
    7.9999  -16.5861   23.8946 C   0  0  0  0  0  0  0  0  0  0  0  0
    9.2798  -16.6112   23.8042 O   0  0  0  0  0  0  0  0  0  0  0  0
    7.4492  -16.3827   25.1862 N   0  0  0  0  0  0  0  0  0  0  0  0
    8.2934  -16.2148   26.3553 C   0  0  1  0  0  0  0  0  0  0  0  0
    7.5572  -15.4543   27.4059 C   0  0  0  0  0  0  0  0  0  0  0  0
    7.2441  -14.0727   27.0316 C   0  0  0  0  0  0  0  0  0  0  0  0
    8.2162  -13.0996   27.1164 C   0  0  0  0  0  0  0  0  0  0  0  0
    7.9090  -11.8032   26.7596 C   0  0  0  0  0  0  0  0  0  0  0  0
    6.6669  -11.4270   26.3182 C   0  0  0  0  0  0  0  0  0  0  0  0
    5.6989  -12.3961   26.2338 C   0  0  0  0  0  0  0  0  0  0  0  0
    5.9806  -13.7224   26.5893 C   0  0  0  0  0  0  0  0  0  0  0  0
    8.8405  -17.5170   26.8075 C   0  0  0  0  0  0  0  0  0  0  0  0
    8.4281  -18.6207   26.3792 O   0  0  0  0  0  0  0  0  0  0  0  0
    9.8570  -17.5272   27.7489 O   0  0  0  0  0  0  0  0  0  0  0  0
  1  2  1  0
  3  2  1  0
  4  5  1  0
  4  3  1  0
  5  1  1  0
  6  8  1  0
  5  6  1  1
  7  6  2  0
  9 15  1  0
  9  8  1  0
  9 10  1  6
 11 10  1  0
 12 11  1  0
 13 12  1  0
 14 13  1  0
 15 17  1  0
 16 15  2  0
 17 18  1  0
 18 19  1  1
 18 26  1  0
 20 25  1  0
 20 19  1  0
 21 20  2  0
 22 21  1  0
 23 22  2  0
 23 24  1  0
 24 25  2  0
 26 27  2  0
 26 28  1  0
M  END
$$$$
