PKF.pdb
     RDKit          3D

 28 29  0  0  1  0  0  0  0  0999 V2000
    8.8012  -14.7199   19.1040 N   0  0  0  0  0  0  0  0  0  0  0  0
    8.8639  -13.7946   17.9867 C   0  0  0  0  0  0  0  0  0  0  0  0
    7.5674  -13.0144   18.1874 C   0  0  0  0  0  0  0  0  0  0  0  0
    7.4854  -12.9208   19.7117 C   0  0  0  0  0  0  0  0  0  0  0  0
    8.5167  -13.8566   20.2111 C   0  0  1  0  0  0  0  0  0  0  0  0
    8.1370  -14.5936   21.4367 C   0  0  0  0  0  0  0  0  0  0  0  0
    7.6755  -13.9085   22.3744 O   0  0  0  0  0  0  0  0  0  0  0  0
    8.2825  -15.9886   21.5525 N   0  0  0  0  0  0  0  0  0  0  0  0
    7.9845  -16.8136   22.6723 C   0  0  1  0  0  0  0  0  0  0  0  0
    8.0366  -18.3213   22.3771 C   0  0  0  0  0  0  0  0  0  0  0  0
    7.0577  -18.6939   21.2969 C   0  0  0  0  0  0  0  0  0  0  0  0
    7.2758  -20.1688   20.9727 C   0  0  0  0  0  0  0  0  0  0  0  0
    6.2390  -20.6575   19.9816 C   0  0  0  0  0  0  0  0  0  0  0  0
    6.4561  -22.0702   19.7339 N   0  0  0  0  0  0  0  0  0  0  0  0
    8.5965  -16.4371   23.9347 C   0  0  0  0  0  0  0  0  0  0  0  0
    9.8309  -16.0869   23.9059 O   0  0  0  0  0  0  0  0  0  0  0  0
    7.9516  -16.4211   25.1983 N   0  0  0  0  0  0  0  0  0  0  0  0
    8.6617  -16.0537   26.4101 C   0  0  1  0  0  0  0  0  0  0  0  0
    7.7395  -15.3410   27.3406 C   0  0  0  0  0  0  0  0  0  0  0  0
    7.2812  -14.0407   26.8448 C   0  0  0  0  0  0  0  0  0  0  0  0
    8.1472  -12.9689   26.8215 C   0  0  0  0  0  0  0  0  0  0  0  0
    7.7037  -11.7507   26.3509 C   0  0  0  0  0  0  0  0  0  0  0  0
    6.4258  -11.5479   25.8981 C   0  0  0  0  0  0  0  0  0  0  0  0
    5.5635  -12.6153   25.9213 C   0  0  0  0  0  0  0  0  0  0  0  0
    5.9847  -13.8659   26.3938 C   0  0  0  0  0  0  0  0  0  0  0  0
    9.3465  -17.2287   27.0020 C   0  0  0  0  0  0  0  0  0  0  0  0
   10.1359  -17.1461   27.9723 O   0  0  0  0  0  0  0  0  0  0  0  0
    9.1102  -18.4839   26.4652 O   0  0  0  0  0  0  0  0  0  0  0  0
  1  2  1  0
  3  2  1  0
  4  5  1  0
  4  3  1  0
  5  1  1  0
  6  8  1  0
  5  6  1  1
  7  6  2  0
  9 15  1  0
  9  8  1  0
  9 10  1  6
 11 10  1  0
 12 11  1  0
 13 12  1  0
 14 13  1  0
 15 17  1  0
 16 15  2  0
 17 18  1  0
 18 19  1  1
 18 26  1  0
 20 25  1  0
 20 19  1  0
 21 20  2  0
 22 21  1  0
 23 22  2  0
 23 24  1  0
 24 25  2  0
 26 27  2  0
 26 28  1  0
M  END
$$$$
