PKF.pdb
     RDKit          3D

 28 29  0  0  1  0  0  0  0  0999 V2000
    8.6988  -14.8245   18.6303 N   0  0  0  0  0  0  0  0  0  0  0  0
    8.8244  -13.8208   17.5885 C   0  0  0  0  0  0  0  0  0  0  0  0
    7.6719  -12.8872   17.9494 C   0  0  0  0  0  0  0  0  0  0  0  0
    7.7029  -12.9201   19.4782 C   0  0  0  0  0  0  0  0  0  0  0  0
    8.6160  -14.0326   19.8210 C   0  0  1  0  0  0  0  0  0  0  0  0
    8.2121  -14.8158   21.0097 C   0  0  0  0  0  0  0  0  0  0  0  0
    8.0528  -14.1724   22.0690 O   0  0  0  0  0  0  0  0  0  0  0  0
    8.0151  -16.2086   20.9629 N   0  0  0  0  0  0  0  0  0  0  0  0
    7.6376  -17.0791   22.0227 C   0  0  1  0  0  0  0  0  0  0  0  0
    7.1172  -18.4491   21.5590 C   0  0  0  0  0  0  0  0  0  0  0  0
    5.9744  -18.2935   20.5928 C   0  0  0  0  0  0  0  0  0  0  0  0
    5.5910  -19.6896   20.1111 C   0  0  0  0  0  0  0  0  0  0  0  0
    4.3962  -19.6253   19.1815 C   0  0  0  0  0  0  0  0  0  0  0  0
    4.0784  -20.9675   18.7325 N   0  0  0  0  0  0  0  0  0  0  0  0
    8.5393  -17.1433   23.1598 C   0  0  0  0  0  0  0  0  0  0  0  0
    9.7636  -16.8168   22.9559 O   0  0  0  0  0  0  0  0  0  0  0  0
    8.1878  -17.5345   24.4774 N   0  0  0  0  0  0  0  0  0  0  0  0
    8.5378  -16.7245   25.6303 C   0  0  1  0  0  0  0  0  0  0  0  0
    7.9998  -15.3439   25.4607 C   0  0  0  0  0  0  0  0  0  0  0  0
    8.1584  -14.4936   26.6434 C   0  0  0  0  0  0  0  0  0  0  0  0
    7.0558  -13.8958   27.2140 C   0  0  0  0  0  0  0  0  0  0  0  0
    7.2185  -13.0990   28.3280 C   0  0  0  0  0  0  0  0  0  0  0  0
    8.4399  -12.8675   28.9058 C   0  0  0  0  0  0  0  0  0  0  0  0
    9.5380  -13.4629   28.3374 C   0  0  0  0  0  0  0  0  0  0  0  0
    9.4047  -14.2781   27.2049 C   0  0  0  0  0  0  0  0  0  0  0  0
    8.1336  -17.3920   26.8916 C   0  0  0  0  0  0  0  0  0  0  0  0
    8.8398  -17.3874   27.9273 O   0  0  0  0  0  0  0  0  0  0  0  0
    6.9187  -18.0562   26.9397 O   0  0  0  0  0  0  0  0  0  0  0  0
  1  2  1  0
  3  2  1  0
  4  5  1  0
  4  3  1  0
  5  1  1  0
  6  8  1  0
  5  6  1  1
  7  6  2  0
  9 15  1  0
  9  8  1  0
  9 10  1  6
 11 10  1  0
 12 11  1  0
 13 12  1  0
 14 13  1  0
 15 17  1  0
 16 15  2  0
 17 18  1  0
 18 19  1  6
 18 26  1  0
 20 25  1  0
 20 19  1  0
 21 20  2  0
 22 21  1  0
 23 22  2  0
 23 24  1  0
 24 25  2  0
 26 27  2  0
 26 28  1  0
M  END
$$$$
