PKF.pdb
     RDKit          3D

 28 29  0  0  1  0  0  0  0  0999 V2000
    8.8566  -14.6911   18.0208 N   0  0  0  0  0  0  0  0  0  0  0  0
    8.7536  -13.6908   16.9732 C   0  0  0  0  0  0  0  0  0  0  0  0
    7.5045  -12.9356   17.4198 C   0  0  0  0  0  0  0  0  0  0  0  0
    7.6528  -12.9476   18.9419 C   0  0  0  0  0  0  0  0  0  0  0  0
    8.7446  -13.9080   19.2150 C   0  0  1  0  0  0  0  0  0  0  0  0
    8.5511  -14.7301   20.4299 C   0  0  0  0  0  0  0  0  0  0  0  0
    8.3815  -14.1065   21.4994 O   0  0  0  0  0  0  0  0  0  0  0  0
    8.5558  -16.1371   20.3961 N   0  0  0  0  0  0  0  0  0  0  0  0
    8.4902  -17.0430   21.4908 C   0  0  1  0  0  0  0  0  0  0  0  0
    8.6532  -18.5202   21.0982 C   0  0  0  0  0  0  0  0  0  0  0  0
    8.4567  -19.4198   22.2881 C   0  0  0  0  0  0  0  0  0  0  0  0
    8.6885  -20.8532   21.8195 C   0  0  0  0  0  0  0  0  0  0  0  0
    8.5515  -21.8227   22.9759 C   0  0  0  0  0  0  0  0  0  0  0  0
    8.8486  -23.1615   22.5033 N   0  0  0  0  0  0  0  0  0  0  0  0
    9.2213  -16.6654   22.6879 C   0  0  0  0  0  0  0  0  0  0  0  0
   10.4890  -16.5015   22.5730 O   0  0  0  0  0  0  0  0  0  0  0  0
    8.6593  -16.4608   23.9744 N   0  0  0  0  0  0  0  0  0  0  0  0
    9.4631  -15.9956   25.0903 C   0  0  1  0  0  0  0  0  0  0  0  0
    8.5765  -15.4658   26.1662 C   0  0  0  0  0  0  0  0  0  0  0  0
    9.2930  -15.0322   27.3685 C   0  0  0  0  0  0  0  0  0  0  0  0
    9.7292  -15.9655   28.2838 C   0  0  0  0  0  0  0  0  0  0  0  0
   10.4038  -15.5444   29.4107 C   0  0  0  0  0  0  0  0  0  0  0  0
   10.6668  -14.2245   29.6711 C   0  0  0  0  0  0  0  0  0  0  0  0
   10.2323  -13.2951   28.7596 C   0  0  0  0  0  0  0  0  0  0  0  0
    9.5441  -13.6921   27.6048 C   0  0  0  0  0  0  0  0  0  0  0  0
   10.4122  -17.0446   25.5358 C   0  0  0  0  0  0  0  0  0  0  0  0
   11.6223  -16.8191   25.7733 O   0  0  0  0  0  0  0  0  0  0  0  0
    9.9509  -18.3405   25.7010 O   0  0  0  0  0  0  0  0  0  0  0  0
  1  2  1  0
  3  2  1  0
  4  5  1  0
  4  3  1  0
  5  1  1  0
  6  8  1  0
  5  6  1  1
  7  6  2  0
  9 15  1  0
  9  8  1  0
  9 10  1  6
 11 10  1  0
 12 11  1  0
 13 12  1  0
 14 13  1  0
 15 17  1  0
 16 15  2  0
 17 18  1  0
 18 19  1  1
 18 26  1  0
 20 25  1  0
 20 19  1  0
 21 20  2  0
 22 21  1  0
 23 22  2  0
 23 24  1  0
 24 25  2  0
 26 27  2  0
 26 28  1  0
M  END
$$$$
