PKF.pdb
     RDKit          3D

 28 29  0  0  1  0  0  0  0  0999 V2000
    8.9188  -15.0749   17.7311 N   0  0  0  0  0  0  0  0  0  0  0  0
    9.0122  -14.1792   16.5920 C   0  0  0  0  0  0  0  0  0  0  0  0
    7.7479  -13.3445   16.7793 C   0  0  0  0  0  0  0  0  0  0  0  0
    7.6769  -13.2122   18.3013 C   0  0  0  0  0  0  0  0  0  0  0  0
    8.6735  -14.1756   18.8186 C   0  0  1  0  0  0  0  0  0  0  0  0
    8.2712  -14.8683   20.0627 C   0  0  0  0  0  0  0  0  0  0  0  0
    7.9746  -14.1380   21.0322 O   0  0  0  0  0  0  0  0  0  0  0  0
    8.2215  -16.2714   20.1614 N   0  0  0  0  0  0  0  0  0  0  0  0
    7.8857  -17.0615   21.2956 C   0  0  1  0  0  0  0  0  0  0  0  0
    8.2285  -18.5528   21.1496 C   0  0  0  0  0  0  0  0  0  0  0  0
    7.7998  -19.3269   22.3665 C   0  0  0  0  0  0  0  0  0  0  0  0
    8.1782  -20.7867   22.1352 C   0  0  0  0  0  0  0  0  0  0  0  0
    7.7349  -21.6455   23.3022 C   0  0  0  0  0  0  0  0  0  0  0  0
    8.1743  -23.0091   23.0748 N   0  0  0  0  0  0  0  0  0  0  0  0
    8.2181  -16.5031   22.5947 C   0  0  0  0  0  0  0  0  0  0  0  0
    9.4601  -16.2957   22.8428 O   0  0  0  0  0  0  0  0  0  0  0  0
    7.2922  -16.1654   23.6152 N   0  0  0  0  0  0  0  0  0  0  0  0
    7.6571  -15.2896   24.7140 C   0  0  1  0  0  0  0  0  0  0  0  0
    6.5572  -14.3160   24.9717 C   0  0  0  0  0  0  0  0  0  0  0  0
    6.8033  -13.4272   26.1103 C   0  0  0  0  0  0  0  0  0  0  0  0
    6.3657  -13.7823   27.3677 C   0  0  0  0  0  0  0  0  0  0  0  0
    6.6051  -12.9375   28.4314 C   0  0  0  0  0  0  0  0  0  0  0  0
    7.2664  -11.7440   28.2998 C   0  0  0  0  0  0  0  0  0  0  0  0
    7.7022  -11.3903   27.0474 C   0  0  0  0  0  0  0  0  0  0  0  0
    7.4740  -12.2279   25.9469 C   0  0  0  0  0  0  0  0  0  0  0  0
    8.0766  -16.0729   25.9015 C   0  0  0  0  0  0  0  0  0  0  0  0
    8.9870  -15.7040   26.6804 O   0  0  0  0  0  0  0  0  0  0  0  0
    7.4388  -17.2724   26.1737 O   0  0  0  0  0  0  0  0  0  0  0  0
  1  2  1  0
  3  2  1  0
  4  5  1  0
  4  3  1  0
  5  1  1  0
  6  8  1  0
  5  6  1  1
  7  6  2  0
  9 15  1  0
  9  8  1  0
  9 10  1  6
 11 10  1  0
 12 11  1  0
 13 12  1  0
 14 13  1  0
 15 17  1  0
 16 15  2  0
 17 18  1  0
 18 19  1  1
 18 26  1  0
 20 25  1  0
 20 19  1  0
 21 20  2  0
 22 21  1  0
 23 22  2  0
 23 24  1  0
 24 25  2  0
 26 27  2  0
 26 28  1  0
M  END
$$$$
