PKF.pdb
     RDKit          3D

 28 29  0  0  1  0  0  0  0  0999 V2000
    8.1551  -18.9373   19.9891 N   0  0  0  0  0  0  0  0  0  0  0  0
    8.0610  -20.0969   19.1203 C   0  0  0  0  0  0  0  0  0  0  0  0
    8.9449  -19.6557   17.9566 C   0  0  0  0  0  0  0  0  0  0  0  0
   10.0539  -18.8849   18.6742 C   0  0  0  0  0  0  0  0  0  0  0  0
    9.5679  -18.7124   20.0609 C   0  0  1  0  0  0  0  0  0  0  0  0
    9.9163  -17.4134   20.6777 C   0  0  0  0  0  0  0  0  0  0  0  0
   11.1213  -17.2393   20.9593 O   0  0  0  0  0  0  0  0  0  0  0  0
    8.9533  -16.4205   20.9380 N   0  0  0  0  0  0  0  0  0  0  0  0
    9.1553  -15.1197   21.4770 C   0  0  1  0  0  0  0  0  0  0  0  0
    8.4311  -14.0002   20.7121 C   0  0  0  0  0  0  0  0  0  0  0  0
    8.5604  -14.1913   19.2253 C   0  0  0  0  0  0  0  0  0  0  0  0
    7.8560  -13.0175   18.5516 C   0  0  0  0  0  0  0  0  0  0  0  0
    7.9708  -13.1186   17.0441 C   0  0  0  0  0  0  0  0  0  0  0  0
    7.2296  -12.0262   16.4429 N   0  0  0  0  0  0  0  0  0  0  0  0
    9.0720  -14.9979   22.9221 C   0  0  0  0  0  0  0  0  0  0  0  0
    9.5185  -13.9144   23.4454 O   0  0  0  0  0  0  0  0  0  0  0  0
    8.5403  -15.9699   23.8083 N   0  0  0  0  0  0  0  0  0  0  0  0
    8.5068  -15.7533   25.2434 C   0  0  1  0  0  0  0  0  0  0  0  0
    7.1234  -15.3938   25.6687 C   0  0  0  0  0  0  0  0  0  0  0  0
    6.9644  -13.9884   26.0514 C   0  0  0  0  0  0  0  0  0  0  0  0
    8.0606  -13.1537   26.0766 C   0  0  0  0  0  0  0  0  0  0  0  0
    7.8972  -11.8325   26.4371 C   0  0  0  0  0  0  0  0  0  0  0  0
    6.6812  -11.2986   26.7771 C   0  0  0  0  0  0  0  0  0  0  0  0
    5.5896  -12.1299   26.7521 C   0  0  0  0  0  0  0  0  0  0  0  0
    5.7238  -13.4773   26.3899 C   0  0  0  0  0  0  0  0  0  0  0  0
    9.0938  -16.9061   25.9689 C   0  0  0  0  0  0  0  0  0  0  0  0
    9.1184  -16.9895   27.2195 O   0  0  0  0  0  0  0  0  0  0  0  0
    9.6448  -17.9476   25.2400 O   0  0  0  0  0  0  0  0  0  0  0  0
  1  2  1  0
  3  2  1  0
  4  5  1  0
  4  3  1  0
  5  1  1  0
  6  8  1  0
  5  6  1  6
  7  6  2  0
  9 15  1  0
  9  8  1  0
  9 10  1  6
 11 10  1  0
 12 11  1  0
 13 12  1  0
 14 13  1  0
 15 17  1  0
 16 15  2  0
 17 18  1  0
 18 19  1  1
 18 26  1  0
 20 25  1  0
 20 19  1  0
 21 20  2  0
 22 21  1  0
 23 22  2  0
 23 24  1  0
 24 25  2  0
 26 27  2  0
 26 28  1  0
M  END
$$$$
