PKF.pdb
     RDKit          3D

 28 29  0  0  1  0  0  0  0  0999 V2000
    7.9432  -14.6621   18.6870 N   0  0  0  0  0  0  0  0  0  0  0  0
    8.0206  -13.5091   17.8077 C   0  0  0  0  0  0  0  0  0  0  0  0
    7.2448  -12.4760   18.6207 C   0  0  0  0  0  0  0  0  0  0  0  0
    7.6615  -12.8194   20.0516 C   0  0  0  0  0  0  0  0  0  0  0  0
    8.3537  -14.1229   19.9489 C   0  0  1  0  0  0  0  0  0  0  0  0
    8.1032  -15.0432   21.0802 C   0  0  0  0  0  0  0  0  0  0  0  0
    6.9070  -15.3133   21.3201 O   0  0  0  0  0  0  0  0  0  0  0  0
    9.1458  -15.5906   21.8511 N   0  0  0  0  0  0  0  0  0  0  0  0
    9.0571  -16.5631   22.8854 C   0  0  1  0  0  0  0  0  0  0  0  0
    9.5537  -17.9607   22.4818 C   0  0  0  0  0  0  0  0  0  0  0  0
    8.5480  -18.6591   21.6073 C   0  0  0  0  0  0  0  0  0  0  0  0
    9.1380  -20.0135   21.2258 C   0  0  0  0  0  0  0  0  0  0  0  0
    8.1731  -20.7905   20.3533 C   0  0  0  0  0  0  0  0  0  0  0  0
    8.7394  -22.0969   20.0759 N   0  0  0  0  0  0  0  0  0  0  0  0
    9.4863  -16.1424   24.2078 C   0  0  0  0  0  0  0  0  0  0  0  0
   10.6610  -15.6354   24.3088 O   0  0  0  0  0  0  0  0  0  0  0  0
    8.7227  -16.2411   25.3995 N   0  0  0  0  0  0  0  0  0  0  0  0
    9.2706  -15.8576   26.6880 C   0  0  1  0  0  0  0  0  0  0  0  0
    8.2332  -15.1433   27.4865 C   0  0  0  0  0  0  0  0  0  0  0  0
    7.7835  -13.8839   26.8878 C   0  0  0  0  0  0  0  0  0  0  0  0
    6.5852  -13.8338   26.2092 C   0  0  0  0  0  0  0  0  0  0  0  0
    6.1725  -12.6418   25.6516 C   0  0  0  0  0  0  0  0  0  0  0  0
    6.9046  -11.4861   25.7390 C   0  0  0  0  0  0  0  0  0  0  0  0
    8.0980  -11.5361   26.4148 C   0  0  0  0  0  0  0  0  0  0  0  0
    8.5442  -12.7327   26.9924 C   0  0  0  0  0  0  0  0  0  0  0  0
    9.8817  -17.0221   27.3738 C   0  0  0  0  0  0  0  0  0  0  0  0
    9.7451  -18.2027   26.9750 O   0  0  0  0  0  0  0  0  0  0  0  0
   10.6427  -16.8073   28.5115 O   0  0  0  0  0  0  0  0  0  0  0  0
  1  2  1  0
  3  2  1  0
  4  5  1  0
  4  3  1  0
  5  1  1  0
  6  8  1  0
  5  6  1  1
  7  6  2  0
  9 15  1  0
  9  8  1  0
  9 10  1  6
 11 10  1  0
 12 11  1  0
 13 12  1  0
 14 13  1  0
 15 17  1  0
 16 15  2  0
 17 18  1  0
 18 19  1  1
 18 26  1  0
 20 25  1  0
 20 19  1  0
 21 20  2  0
 22 21  1  0
 23 22  2  0
 23 24  1  0
 24 25  2  0
 26 27  2  0
 26 28  1  0
M  END
$$$$
