PKF.pdb
     RDKit          3D

 28 29  0  0  1  0  0  0  0  0999 V2000
    8.1850  -15.1413   18.2826 N   0  0  0  0  0  0  0  0  0  0  0  0
    8.3195  -14.2924   17.1122 C   0  0  0  0  0  0  0  0  0  0  0  0
    7.4620  -13.0985   17.5239 C   0  0  0  0  0  0  0  0  0  0  0  0
    7.7607  -12.9935   19.0202 C   0  0  0  0  0  0  0  0  0  0  0  0
    8.4785  -14.2422   19.3583 C   0  0  1  0  0  0  0  0  0  0  0  0
    8.1467  -14.8020   20.6871 C   0  0  0  0  0  0  0  0  0  0  0  0
    8.3776  -14.0672   21.6711 O   0  0  0  0  0  0  0  0  0  0  0  0
    7.6008  -16.0893   20.8473 N   0  0  0  0  0  0  0  0  0  0  0  0
    7.1146  -16.6960   22.0386 C   0  0  1  0  0  0  0  0  0  0  0  0
    6.5048  -18.0919   21.8323 C   0  0  0  0  0  0  0  0  0  0  0  0
    5.0481  -18.1055   22.2084 C   0  0  0  0  0  0  0  0  0  0  0  0
    4.3848  -19.2330   21.4231 C   0  0  0  0  0  0  0  0  0  0  0  0
    2.8848  -19.2237   21.6376 C   0  0  0  0  0  0  0  0  0  0  0  0
    2.2735  -20.1633   20.7169 N   0  0  0  0  0  0  0  0  0  0  0  0
    7.9637  -16.5894   23.2123 C   0  0  0  0  0  0  0  0  0  0  0  0
    9.1906  -16.9428   23.0819 O   0  0  0  0  0  0  0  0  0  0  0  0
    7.5585  -16.1288   24.4915 N   0  0  0  0  0  0  0  0  0  0  0  0
    8.5147  -15.9256   25.5648 C   0  0  1  0  0  0  0  0  0  0  0  0
    8.0388  -14.8376   26.4671 C   0  0  0  0  0  0  0  0  0  0  0  0
    8.8965  -14.6138   27.6338 C   0  0  0  0  0  0  0  0  0  0  0  0
    8.4450  -14.9440   28.8932 C   0  0  0  0  0  0  0  0  0  0  0  0
    9.2628  -14.7297   29.9830 C   0  0  0  0  0  0  0  0  0  0  0  0
   10.5213  -14.1969   29.8761 C   0  0  0  0  0  0  0  0  0  0  0  0
   10.9708  -13.8680   28.6218 C   0  0  0  0  0  0  0  0  0  0  0  0
   10.1630  -14.0739   27.4949 C   0  0  0  0  0  0  0  0  0  0  0  0
    8.8231  -17.2036   26.2512 C   0  0  0  0  0  0  0  0  0  0  0  0
    7.9621  -18.0863   26.4776 O   0  0  0  0  0  0  0  0  0  0  0  0
   10.1224  -17.4453   26.6672 O   0  0  0  0  0  0  0  0  0  0  0  0
  1  2  1  0
  3  2  1  0
  4  5  1  0
  4  3  1  0
  5  1  1  0
  6  8  1  0
  5  6  1  1
  7  6  2  0
  9 15  1  0
  9  8  1  0
  9 10  1  6
 11 10  1  0
 12 11  1  0
 13 12  1  0
 14 13  1  0
 15 17  1  0
 16 15  2  0
 17 18  1  0
 18 19  1  1
 18 26  1  0
 20 25  1  0
 20 19  1  0
 21 20  2  0
 22 21  1  0
 23 22  2  0
 23 24  1  0
 24 25  2  0
 26 27  2  0
 26 28  1  0
M  END
$$$$
