PKF.pdb
     RDKit          3D

 28 29  0  0  1  0  0  0  0  0999 V2000
    8.8140  -14.6376   17.8702 N   0  0  0  0  0  0  0  0  0  0  0  0
    8.5666  -13.6315   16.8529 C   0  0  0  0  0  0  0  0  0  0  0  0
    7.2983  -12.9793   17.3970 C   0  0  0  0  0  0  0  0  0  0  0  0
    7.5500  -13.0041   18.9054 C   0  0  0  0  0  0  0  0  0  0  0  0
    8.7257  -13.8841   19.0852 C   0  0  1  0  0  0  0  0  0  0  0  0
    8.6763  -14.7375   20.2929 C   0  0  0  0  0  0  0  0  0  0  0  0
    8.5170  -14.1467   21.3825 O   0  0  0  0  0  0  0  0  0  0  0  0
    8.8004  -16.1381   20.2314 N   0  0  0  0  0  0  0  0  0  0  0  0
    8.8158  -17.0674   21.3082 C   0  0  1  0  0  0  0  0  0  0  0  0
    9.0888  -18.5196   20.8845 C   0  0  0  0  0  0  0  0  0  0  0  0
    8.9415  -19.4588   22.0507 C   0  0  0  0  0  0  0  0  0  0  0  0
    9.2928  -20.8588   21.5561 C   0  0  0  0  0  0  0  0  0  0  0  0
    9.0916  -21.8809   22.6565 C   0  0  0  0  0  0  0  0  0  0  0  0
    9.5595  -23.1719   22.1888 N   0  0  0  0  0  0  0  0  0  0  0  0
    9.5269  -16.6577   22.5067 C   0  0  0  0  0  0  0  0  0  0  0  0
   10.7497  -16.2937   22.3668 O   0  0  0  0  0  0  0  0  0  0  0  0
    8.9907  -16.6231   23.8197 N   0  0  0  0  0  0  0  0  0  0  0  0
    9.7235  -16.0329   24.9253 C   0  0  1  0  0  0  0  0  0  0  0  0
    8.7718  -15.3931   25.8788 C   0  0  0  0  0  0  0  0  0  0  0  0
    9.4069  -14.8627   27.0881 C   0  0  0  0  0  0  0  0  0  0  0  0
    9.6429  -15.6931   28.1622 C   0  0  0  0  0  0  0  0  0  0  0  0
   10.2428  -15.1818   29.2940 C   0  0  0  0  0  0  0  0  0  0  0  0
   10.6223  -13.8694   29.4071 C   0  0  0  0  0  0  0  0  0  0  0  0
   10.3872  -13.0425   28.3374 C   0  0  0  0  0  0  0  0  0  0  0  0
    9.7793  -13.5327   27.1734 C   0  0  0  0  0  0  0  0  0  0  0  0
   10.6420  -17.0207   25.5420 C   0  0  0  0  0  0  0  0  0  0  0  0
   11.7953  -16.7310   25.9389 O   0  0  0  0  0  0  0  0  0  0  0  0
   10.2160  -18.3305   25.6922 O   0  0  0  0  0  0  0  0  0  0  0  0
  1  2  1  0
  3  2  1  0
  4  5  1  0
  4  3  1  0
  5  1  1  0
  6  8  1  0
  5  6  1  1
  7  6  2  0
  9 15  1  0
  9  8  1  0
  9 10  1  6
 11 10  1  0
 12 11  1  0
 13 12  1  0
 14 13  1  0
 15 17  1  0
 16 15  2  0
 17 18  1  0
 18 19  1  1
 18 26  1  0
 20 25  1  0
 20 19  1  0
 21 20  2  0
 22 21  1  0
 23 22  2  0
 23 24  1  0
 24 25  2  0
 26 27  2  0
 26 28  1  0
M  END
$$$$
