PKF.pdb
     RDKit          3D

 28 29  0  0  1  0  0  0  0  0999 V2000
    8.7866  -14.6425   19.0780 N   0  0  0  0  0  0  0  0  0  0  0  0
    8.9399  -13.6787   18.0028 C   0  0  0  0  0  0  0  0  0  0  0  0
    7.8130  -12.7024   18.3302 C   0  0  0  0  0  0  0  0  0  0  0  0
    7.8425  -12.6841   19.8593 C   0  0  0  0  0  0  0  0  0  0  0  0
    8.7249  -13.8086   20.2410 C   0  0  1  0  0  0  0  0  0  0  0  0
    8.2994  -14.5396   21.4550 C   0  0  0  0  0  0  0  0  0  0  0  0
    8.0422  -13.8425   22.4597 O   0  0  0  0  0  0  0  0  0  0  0  0
    8.1866  -15.9421   21.4893 N   0  0  0  0  0  0  0  0  0  0  0  0
    7.7934  -16.7660   22.5802 C   0  0  1  0  0  0  0  0  0  0  0  0
    7.6302  -18.2519   22.2220 C   0  0  0  0  0  0  0  0  0  0  0  0
    6.8240  -18.4181   20.9625 C   0  0  0  0  0  0  0  0  0  0  0  0
    6.6942  -19.9152   20.6983 C   0  0  0  0  0  0  0  0  0  0  0  0
    5.8017  -20.1716   19.5009 C   0  0  0  0  0  0  0  0  0  0  0  0
    5.7319  -21.6012   19.2654 N   0  0  0  0  0  0  0  0  0  0  0  0
    8.4708  -16.5336   23.8439 C   0  0  0  0  0  0  0  0  0  0  0  0
    9.7404  -16.3501   23.8029 O   0  0  0  0  0  0  0  0  0  0  0  0
    7.8546  -16.4907   25.1211 N   0  0  0  0  0  0  0  0  0  0  0  0
    8.6232  -16.2487   26.3287 C   0  0  1  0  0  0  0  0  0  0  0  0
    7.7618  -15.5915   27.3535 C   0  0  0  0  0  0  0  0  0  0  0  0
    7.2263  -14.2928   26.9370 C   0  0  0  0  0  0  0  0  0  0  0  0
    5.8659  -14.1209   26.8011 C   0  0  0  0  0  0  0  0  0  0  0  0
    5.3746  -12.8929   26.4099 C   0  0  0  0  0  0  0  0  0  0  0  0
    6.1828  -11.8178   26.1451 C   0  0  0  0  0  0  0  0  0  0  0  0
    7.5377  -11.9891   26.2805 C   0  0  0  0  0  0  0  0  0  0  0  0
    8.0671  -13.2251   26.6764 C   0  0  0  0  0  0  0  0  0  0  0  0
    9.2920  -17.4893   26.7908 C   0  0  0  0  0  0  0  0  0  0  0  0
    9.0570  -18.6190   26.3008 O   0  0  0  0  0  0  0  0  0  0  0  0
   10.2238  -17.4084   27.8129 O   0  0  0  0  0  0  0  0  0  0  0  0
  1  2  1  0
  3  2  1  0
  4  5  1  0
  4  3  1  0
  5  1  1  0
  6  8  1  0
  5  6  1  1
  7  6  2  0
  9 15  1  0
  9  8  1  0
  9 10  1  6
 11 10  1  0
 12 11  1  0
 13 12  1  0
 14 13  1  0
 15 17  1  0
 16 15  2  0
 17 18  1  0
 18 19  1  1
 18 26  1  0
 20 25  1  0
 20 19  1  0
 21 20  2  0
 22 21  1  0
 23 22  2  0
 23 24  1  0
 24 25  2  0
 26 27  2  0
 26 28  1  0
M  END
$$$$
