PKF.pdb
     RDKit          3D

 28 29  0  0  1  0  0  0  0  0999 V2000
    8.5862  -14.7351   19.0800 N   0  0  0  0  0  0  0  0  0  0  0  0
    8.8108  -13.8119   17.9820 C   0  0  0  0  0  0  0  0  0  0  0  0
    7.6773  -12.8150   18.2093 C   0  0  0  0  0  0  0  0  0  0  0  0
    7.6196  -12.7419   19.7359 C   0  0  0  0  0  0  0  0  0  0  0  0
    8.4669  -13.8594   20.2073 C   0  0  1  0  0  0  0  0  0  0  0  0
    7.9651  -14.5426   21.4200 C   0  0  0  0  0  0  0  0  0  0  0  0
    7.7727  -13.8217   22.4224 O   0  0  0  0  0  0  0  0  0  0  0  0
    7.7143  -15.9271   21.4555 N   0  0  0  0  0  0  0  0  0  0  0  0
    7.2410  -16.7070   22.5469 C   0  0  1  0  0  0  0  0  0  0  0  0
    6.8618  -18.1493   22.1742 C   0  0  0  0  0  0  0  0  0  0  0  0
    6.2881  -18.8797   23.3579 C   0  0  0  0  0  0  0  0  0  0  0  0
    5.8755  -20.2689   22.8806 C   0  0  0  0  0  0  0  0  0  0  0  0
    5.2515  -21.0598   24.0125 C   0  0  0  0  0  0  0  0  0  0  0  0
    4.8355  -22.3541   23.5066 N   0  0  0  0  0  0  0  0  0  0  0  0
    7.9798  -16.5932   23.7923 C   0  0  0  0  0  0  0  0  0  0  0  0
    9.2606  -16.5709   23.7137 O   0  0  0  0  0  0  0  0  0  0  0  0
    7.4124  -16.5037   25.0895 N   0  0  0  0  0  0  0  0  0  0  0  0
    8.2406  -16.3751   26.2749 C   0  0  1  0  0  0  0  0  0  0  0  0
    7.5053  -15.6142   27.3258 C   0  0  0  0  0  0  0  0  0  0  0  0
    7.2454  -14.2152   26.9760 C   0  0  0  0  0  0  0  0  0  0  0  0
    5.9563  -13.7958   26.7285 C   0  0  0  0  0  0  0  0  0  0  0  0
    5.7251  -12.4759   26.4017 C   0  0  0  0  0  0  0  0  0  0  0  0
    6.7273  -11.5453   26.3090 C   0  0  0  0  0  0  0  0  0  0  0  0
    8.0111  -11.9631   26.5554 C   0  0  0  0  0  0  0  0  0  0  0  0
    8.2779  -13.2980   26.8898 C   0  0  0  0  0  0  0  0  0  0  0  0
    8.7488  -17.6974   26.7144 C   0  0  0  0  0  0  0  0  0  0  0  0
    8.3247  -18.7834   26.2537 O   0  0  0  0  0  0  0  0  0  0  0  0
    9.7406  -17.7477   27.6806 O   0  0  0  0  0  0  0  0  0  0  0  0
  1  2  1  0
  3  2  1  0
  4  5  1  0
  4  3  1  0
  5  1  1  0
  6  8  1  0
  5  6  1  1
  7  6  2  0
  9 15  1  0
  9  8  1  0
  9 10  1  6
 11 10  1  0
 12 11  1  0
 13 12  1  0
 14 13  1  0
 15 17  1  0
 16 15  2  0
 17 18  1  0
 18 19  1  1
 18 26  1  0
 20 25  1  0
 20 19  1  0
 21 20  2  0
 22 21  1  0
 23 22  2  0
 23 24  1  0
 24 25  2  0
 26 27  2  0
 26 28  1  0
M  END
$$$$
