PKF.pdb
     RDKit          3D

 28 29  0  0  1  0  0  0  0  0999 V2000
    8.5820  -14.7538   18.8224 N   0  0  0  0  0  0  0  0  0  0  0  0
    8.6194  -13.8327   17.7005 C   0  0  0  0  0  0  0  0  0  0  0  0
    7.5490  -12.8279   18.1187 C   0  0  0  0  0  0  0  0  0  0  0  0
    7.7566  -12.7537   19.6321 C   0  0  0  0  0  0  0  0  0  0  0  0
    8.6651  -13.8767   19.9518 C   0  0  1  0  0  0  0  0  0  0  0  0
    8.3760  -14.5559   21.2342 C   0  0  0  0  0  0  0  0  0  0  0  0
    8.1793  -13.8152   22.2212 O   0  0  0  0  0  0  0  0  0  0  0  0
    8.3228  -15.9576   21.3492 N   0  0  0  0  0  0  0  0  0  0  0  0
    7.9473  -16.7332   22.4809 C   0  0  1  0  0  0  0  0  0  0  0  0
    7.8116  -18.2379   22.1978 C   0  0  0  0  0  0  0  0  0  0  0  0
    6.9155  -18.4860   21.0149 C   0  0  0  0  0  0  0  0  0  0  0  0
    6.9857  -19.9760   20.6939 C   0  0  0  0  0  0  0  0  0  0  0  0
    6.1771  -20.2944   19.4527 C   0  0  0  0  0  0  0  0  0  0  0  0
    6.3621  -21.6938   19.1185 N   0  0  0  0  0  0  0  0  0  0  0  0
    8.6226  -16.4252   23.7295 C   0  0  0  0  0  0  0  0  0  0  0  0
    9.8985  -16.2925   23.6882 O   0  0  0  0  0  0  0  0  0  0  0  0
    7.9980  -16.2572   24.9922 N   0  0  0  0  0  0  0  0  0  0  0  0
    8.7592  -15.9011   26.1760 C   0  0  1  0  0  0  0  0  0  0  0  0
    7.8839  -15.1751   27.1409 C   0  0  0  0  0  0  0  0  0  0  0  0
    7.3679  -13.9008   26.6342 C   0  0  0  0  0  0  0  0  0  0  0  0
    8.2425  -12.9234   26.2116 C   0  0  0  0  0  0  0  0  0  0  0  0
    7.7438  -11.7288   25.7354 C   0  0  0  0  0  0  0  0  0  0  0  0
    6.4018  -11.4597   25.6598 C   0  0  0  0  0  0  0  0  0  0  0  0
    5.5308  -12.4331   26.0807 C   0  0  0  0  0  0  0  0  0  0  0  0
    6.0072  -13.6574   26.5697 C   0  0  0  0  0  0  0  0  0  0  0  0
    9.4482  -17.0865   26.7416 C   0  0  0  0  0  0  0  0  0  0  0  0
    9.2037  -18.2609   26.3776 O   0  0  0  0  0  0  0  0  0  0  0  0
   10.4108  -16.8995   27.7204 O   0  0  0  0  0  0  0  0  0  0  0  0
  1  2  1  0
  3  2  1  0
  4  5  1  0
  4  3  1  0
  5  1  1  0
  6  8  1  0
  5  6  1  1
  7  6  2  0
  9 15  1  0
  9  8  1  0
  9 10  1  6
 11 10  1  0
 12 11  1  0
 13 12  1  0
 14 13  1  0
 15 17  1  0
 16 15  2  0
 17 18  1  0
 18 19  1  1
 18 26  1  0
 20 25  1  0
 20 19  1  0
 21 20  2  0
 22 21  1  0
 23 22  2  0
 23 24  1  0
 24 25  2  0
 26 27  2  0
 26 28  1  0
M  END
$$$$
