AGP.pdb
     RDKit          3D

 17 17  0  0  1  0  0  0  0  0999 V2000
   18.4557  -14.9574  -18.8429 C   0  0  0  0  0  0  0  0  0  0  0  0
   18.7148  -13.4728  -18.9154 C   0  0  2  0  0  0  0  0  0  0  0  0
   19.4186  -13.1574  -20.1206 N   0  0  0  0  0  0  0  0  0  0  0  0
   19.4843  -13.0354  -17.6965 C   0  0  0  0  0  0  0  0  0  0  0  0
   18.9396  -13.0793  -16.5740 O   0  0  0  0  0  0  0  0  0  0  0  0
   20.8177  -12.5722  -17.7879 N   0  0  0  0  0  0  0  0  0  0  0  0
   21.5723  -12.0778  -16.6333 C   0  0  0  0  0  0  0  0  0  0  0  0
   21.2350  -10.6885  -16.3149 C   0  0  0  0  0  0  0  0  0  0  0  0
   20.5238  -10.1075  -17.2382 O   0  0  0  0  0  0  0  0  0  0  0  0
   21.5530   -9.9151  -15.2023 N   0  0  0  0  0  0  0  0  0  0  0  0
   21.8529  -10.6228  -13.8903 C   0  0  0  0  0  0  0  0  0  0  0  0
   22.9243   -9.7888  -13.2501 C   0  0  0  0  0  0  0  0  0  0  0  0
   23.1285   -8.6335  -14.1957 C   0  0  0  0  0  0  0  0  0  0  0  0
   21.6975   -8.5675  -14.8104 C   0  0  1  0  0  0  0  0  0  0  0  0
   21.6547   -7.4662  -15.7213 C   0  0  0  0  0  0  0  0  0  0  0  0
   22.5120   -7.5291  -16.7034 O   0  0  0  0  0  0  0  0  0  0  0  0
   20.8804   -6.3397  -15.7695 O   0  0  0  0  0  0  0  0  0  0  0  0
  2  1  1  1
  2  3  1  0
  4  2  1  0
  4  5  2  0
  6  4  1  0
  7  6  1  0
  8  9  2  0
  8  7  1  0
 10  8  1  0
 11 12  1  0
 11 10  1  0
 13 14  1  0
 13 12  1  0
 14 10  1  0
 14 15  1  6
 15 17  1  0
 16 15  2  0
M  END
$$$$
