AGP.pdb
     RDKit          3D

 17 17  0  0  1  0  0  0  0  0999 V2000
   16.2145  -11.7552  -16.6575 C   0  0  0  0  0  0  0  0  0  0  0  0
   17.6328  -12.2465  -16.5045 C   0  0  2  0  0  0  0  0  0  0  0  0
   17.7986  -12.8725  -15.2285 N   0  0  0  0  0  0  0  0  0  0  0  0
   18.5871  -11.0946  -16.6820 C   0  0  0  0  0  0  0  0  0  0  0  0
   18.6164  -10.4789  -17.7678 O   0  0  0  0  0  0  0  0  0  0  0  0
   19.4586  -10.6868  -15.6452 N   0  0  0  0  0  0  0  0  0  0  0  0
   20.3420   -9.5231  -15.7559 C   0  0  0  0  0  0  0  0  0  0  0  0
   19.7607   -8.3345  -15.1275 C   0  0  0  0  0  0  0  0  0  0  0  0
   18.4624   -8.2882  -15.2178 O   0  0  0  0  0  0  0  0  0  0  0  0
   20.3719   -7.2737  -14.4656 N   0  0  0  0  0  0  0  0  0  0  0  0
   21.7711   -7.4786  -13.9065 C   0  0  0  0  0  0  0  0  0  0  0  0
   22.4480   -6.1518  -14.0928 C   0  0  0  0  0  0  0  0  0  0  0  0
   21.3882   -5.2596  -14.6857 C   0  0  0  0  0  0  0  0  0  0  0  0
   20.1271   -5.9409  -14.0730 C   0  0  1  0  0  0  0  0  0  0  0  0
   18.9771   -5.1926  -14.4753 C   0  0  0  0  0  0  0  0  0  0  0  0
   18.4152   -4.4929  -13.5276 O   0  0  0  0  0  0  0  0  0  0  0  0
   18.3370   -5.0615  -15.6769 O   0  0  0  0  0  0  0  0  0  0  0  0
  2  1  1  1
  2  3  1  0
  4  2  1  0
  4  5  2  0
  6  4  1  0
  7  6  1  0
  8  9  2  0
  8  7  1  0
 10  8  1  0
 11 12  1  0
 11 10  1  0
 13 14  1  0
 13 12  1  0
 14 10  1  0
 14 15  1  6
 15 17  1  0
 16 15  2  0
M  END
$$$$
