AGP.pdb
     RDKit          3D

 17 17  0  0  1  0  0  0  0  0999 V2000
   18.0379  -12.4885  -18.1721 C   0  0  0  0  0  0  0  0  0  0  0  0
   18.9106  -12.0951  -17.0059 C   0  0  2  0  0  0  0  0  0  0  0  0
   18.1352  -12.0625  -15.8038 N   0  0  0  0  0  0  0  0  0  0  0  0
   19.5527  -10.7612  -17.2845 C   0  0  0  0  0  0  0  0  0  0  0  0
   19.0707  -10.0153  -18.1620 O   0  0  0  0  0  0  0  0  0  0  0  0
   20.6959  -10.3255  -16.5744 N   0  0  0  0  0  0  0  0  0  0  0  0
   21.2738   -8.9886  -16.7341 C   0  0  0  0  0  0  0  0  0  0  0  0
   20.8027   -8.0632  -15.7011 C   0  0  0  0  0  0  0  0  0  0  0  0
   19.5778   -8.2941  -15.3239 O   0  0  0  0  0  0  0  0  0  0  0  0
   21.4507   -7.0006  -15.0782 N   0  0  0  0  0  0  0  0  0  0  0  0
   22.9709   -6.9999  -15.0429 C   0  0  0  0  0  0  0  0  0  0  0  0
   23.3491   -5.5536  -15.1778 C   0  0  0  0  0  0  0  0  0  0  0  0
   22.0361   -4.8155  -15.2214 C   0  0  0  0  0  0  0  0  0  0  0  0
   21.1735   -5.8056  -14.3815 C   0  0  1  0  0  0  0  0  0  0  0  0
   19.8628   -5.2503  -14.2468 C   0  0  0  0  0  0  0  0  0  0  0  0
   19.3193   -4.8427  -15.3612 O   0  0  0  0  0  0  0  0  0  0  0  0
   19.0504   -5.0576  -13.1634 O   0  0  0  0  0  0  0  0  0  0  0  0
  2  1  1  6
  2  3  1  0
  4  2  1  0
  4  5  2  0
  6  4  1  0
  7  6  1  0
  8  9  2  0
  8  7  1  0
 10  8  1  0
 11 12  1  0
 11 10  1  0
 13 14  1  0
 13 12  1  0
 14 10  1  0
 14 15  1  6
 15 17  1  0
 16 15  2  0
M  END
$$$$
