AGP.pdb
     RDKit          3D

 17 17  0  0  1  0  0  0  0  0999 V2000
   16.3509  -12.6781  -16.4242 C   0  0  0  0  0  0  0  0  0  0  0  0
   16.2427  -11.1732  -16.4145 C   0  0  2  0  0  0  0  0  0  0  0  0
   15.9612  -10.6946  -17.7333 N   0  0  0  0  0  0  0  0  0  0  0  0
   17.5168  -10.5798  -15.8726 C   0  0  0  0  0  0  0  0  0  0  0  0
   17.8110  -10.7425  -14.6702 O   0  0  0  0  0  0  0  0  0  0  0  0
   18.3970   -9.8370  -16.6937 N   0  0  0  0  0  0  0  0  0  0  0  0
   19.6277   -9.2199  -16.1920 C   0  0  0  0  0  0  0  0  0  0  0  0
   19.3805   -7.8931  -15.6230 C   0  0  0  0  0  0  0  0  0  0  0  0
   18.2452   -7.3764  -15.9975 O   0  0  0  0  0  0  0  0  0  0  0  0
   20.1572   -7.1206  -14.7645 N   0  0  0  0  0  0  0  0  0  0  0  0
   21.1168   -7.8290  -13.8213 C   0  0  0  0  0  0  0  0  0  0  0  0
   22.3060   -6.9165  -13.7404 C   0  0  0  0  0  0  0  0  0  0  0  0
   21.9346   -5.7254  -14.5854 C   0  0  0  0  0  0  0  0  0  0  0  0
   20.3868   -5.7751  -14.4075 C   0  0  1  0  0  0  0  0  0  0  0  0
   19.8226   -4.6610  -15.1039 C   0  0  0  0  0  0  0  0  0  0  0  0
   19.9349   -4.7085  -16.4033 O   0  0  0  0  0  0  0  0  0  0  0  0
   19.1771   -3.5351  -14.6719 O   0  0  0  0  0  0  0  0  0  0  0  0
  2  1  1  6
  2  3  1  0
  4  2  1  0
  4  5  2  0
  6  4  1  0
  7  6  1  0
  8  9  2  0
  8  7  1  0
 10  8  1  0
 11 12  1  0
 11 10  1  0
 13 14  1  0
 13 12  1  0
 14 10  1  0
 14 15  1  6
 15 17  1  0
 16 15  2  0
M  END
$$$$
