AGP.pdb
     RDKit          3D

 17 17  0  0  1  0  0  0  0  0999 V2000
   20.2701  -21.3207  -17.4886 C   0  0  0  0  0  0  0  0  0  0  0  0
   21.1525  -21.5467  -16.2859 C   0  0  2  0  0  0  0  0  0  0  0  0
   21.1364  -22.9300  -15.9204 N   0  0  0  0  0  0  0  0  0  0  0  0
   20.6911  -20.6708  -15.1505 C   0  0  0  0  0  0  0  0  0  0  0  0
   20.2619  -19.5233  -15.3912 O   0  0  0  0  0  0  0  0  0  0  0  0
   20.7304  -21.1145  -13.8080 N   0  0  0  0  0  0  0  0  0  0  0  0
   21.9230  -21.7077  -13.1975 C   0  0  0  0  0  0  0  0  0  0  0  0
   22.9435  -20.6997  -12.9010 C   0  0  0  0  0  0  0  0  0  0  0  0
   22.4641  -19.4916  -12.8185 O   0  0  0  0  0  0  0  0  0  0  0  0
   24.3140  -20.8352  -12.6999 N   0  0  0  0  0  0  0  0  0  0  0  0
   24.8023  -21.3222  -11.3447 C   0  0  0  0  0  0  0  0  0  0  0  0
   26.0040  -22.1650  -11.6591 C   0  0  0  0  0  0  0  0  0  0  0  0
   26.1651  -22.0621  -13.1538 C   0  0  0  0  0  0  0  0  0  0  0  0
   25.5425  -20.6491  -13.3680 C   0  0  1  0  0  0  0  0  0  0  0  0
   25.6506  -20.3207  -14.7554 C   0  0  0  0  0  0  0  0  0  0  0  0
   26.5557  -19.4248  -15.0412 O   0  0  0  0  0  0  0  0  0  0  0  0
   24.9826  -20.7663  -15.8627 O   0  0  0  0  0  0  0  0  0  0  0  0
  2  1  1  6
  2  3  1  0
  4  2  1  0
  4  5  2  0
  6  4  1  0
  7  6  1  0
  8  9  2  0
  8  7  1  0
 10  8  1  0
 11 12  1  0
 11 10  1  0
 13 14  1  0
 13 12  1  0
 14 10  1  0
 14 15  1  6
 15 17  1  0
 16 15  2  0
M  END
$$$$
