AGP.pdb
     RDKit          3D

 17 17  0  0  1  0  0  0  0  0999 V2000
   21.0620  -15.5639  -19.6433 C   0  0  0  0  0  0  0  0  0  0  0  0
   20.8788  -14.0861  -19.4003 C   0  0  2  0  0  0  0  0  0  0  0  0
   20.7624  -13.3959  -20.6483 N   0  0  0  0  0  0  0  0  0  0  0  0
   22.0327  -13.5624  -18.5858 C   0  0  0  0  0  0  0  0  0  0  0  0
   22.2040  -13.9766  -17.4205 O   0  0  0  0  0  0  0  0  0  0  0  0
   22.9355  -12.6066  -19.1075 N   0  0  0  0  0  0  0  0  0  0  0  0
   24.1049  -12.1253  -18.3674 C   0  0  0  0  0  0  0  0  0  0  0  0
   23.7504  -11.0767  -17.4081 C   0  0  0  0  0  0  0  0  0  0  0  0
   22.5715  -10.5648  -17.6184 O   0  0  0  0  0  0  0  0  0  0  0  0
   24.4662  -10.5577  -16.3333 N   0  0  0  0  0  0  0  0  0  0  0  0
   25.5700  -11.4058  -15.7213 C   0  0  0  0  0  0  0  0  0  0  0  0
   26.6264  -10.4166  -15.3227 C   0  0  0  0  0  0  0  0  0  0  0  0
   26.0445   -9.0712  -15.6719 C   0  0  0  0  0  0  0  0  0  0  0  0
   24.5319   -9.4125  -15.5119 C   0  0  1  0  0  0  0  0  0  0  0  0
   23.7790   -8.2204  -15.7493 C   0  0  0  0  0  0  0  0  0  0  0  0
   23.0842   -7.7947  -14.7298 O   0  0  0  0  0  0  0  0  0  0  0  0
   23.6394   -7.4227  -16.8517 O   0  0  0  0  0  0  0  0  0  0  0  0
  2  1  1  6
  2  3  1  0
  4  2  1  0
  4  5  2  0
  6  4  1  0
  7  6  1  0
  8  9  2  0
  8  7  1  0
 10  8  1  0
 11 12  1  0
 11 10  1  0
 13 14  1  0
 13 12  1  0
 14 10  1  0
 14 15  1  6
 15 17  1  0
 16 15  2  0
M  END
$$$$
