AGP.pdb
     RDKit          3D

 17 17  0  0  1  0  0  0  0  0999 V2000
   27.6651  -17.5207  -17.9898 C   0  0  0  0  0  0  0  0  0  0  0  0
   27.5765  -18.8899  -17.3623 C   0  0  2  0  0  0  0  0  0  0  0  0
   26.7185  -19.7300  -18.1403 N   0  0  0  0  0  0  0  0  0  0  0  0
   27.0860  -18.7633  -15.9436 C   0  0  0  0  0  0  0  0  0  0  0  0
   26.0728  -18.0759  -15.6998 O   0  0  0  0  0  0  0  0  0  0  0  0
   27.7461  -19.4063  -14.8704 N   0  0  0  0  0  0  0  0  0  0  0  0
   27.2534  -19.3668  -13.4911 C   0  0  0  0  0  0  0  0  0  0  0  0
   26.1528  -20.3093  -13.2771 C   0  0  0  0  0  0  0  0  0  0  0  0
   25.6480  -20.7703  -14.3855 O   0  0  0  0  0  0  0  0  0  0  0  0
   25.5794  -20.7740  -12.0972 N   0  0  0  0  0  0  0  0  0  0  0  0
   26.4991  -21.2484  -10.9830 C   0  0  0  0  0  0  0  0  0  0  0  0
   25.8027  -20.8343   -9.7193 C   0  0  0  0  0  0  0  0  0  0  0  0
   24.5117  -20.2081  -10.1794 C   0  0  0  0  0  0  0  0  0  0  0  0
   24.3178  -21.0005  -11.5078 C   0  0  1  0  0  0  0  0  0  0  0  0
   23.0810  -20.5888  -12.0952 C   0  0  0  0  0  0  0  0  0  0  0  0
   23.1341  -19.4701  -12.7653 O   0  0  0  0  0  0  0  0  0  0  0  0
   21.8308  -21.1437  -12.0950 O   0  0  0  0  0  0  0  0  0  0  0  0
  2  1  1  6
  2  3  1  0
  4  2  1  0
  4  5  2  0
  6  4  1  0
  7  6  1  0
  8  9  2  0
  8  7  1  0
 10  8  1  0
 11 12  1  0
 11 10  1  0
 13 14  1  0
 13 12  1  0
 14 10  1  0
 14 15  1  6
 15 17  1  0
 16 15  2  0
M  END
$$$$
