AGP.pdb
     RDKit          3D

 17 17  0  0  1  0  0  0  0  0999 V2000
   23.5454  -20.1815  -19.6291 C   0  0  0  0  0  0  0  0  0  0  0  0
   22.8974  -20.7823  -18.4062 C   0  0  2  0  0  0  0  0  0  0  0  0
   21.7887  -19.9770  -17.9945 N   0  0  0  0  0  0  0  0  0  0  0  0
   23.9200  -20.9159  -17.3081 C   0  0  0  0  0  0  0  0  0  0  0  0
   24.6496  -21.9280  -17.2639 O   0  0  0  0  0  0  0  0  0  0  0  0
   24.0788  -19.9191  -16.3172 N   0  0  0  0  0  0  0  0  0  0  0  0
   25.0887  -19.9991  -15.2586 C   0  0  0  0  0  0  0  0  0  0  0  0
   24.5664  -20.6474  -14.0535 C   0  0  0  0  0  0  0  0  0  0  0  0
   23.2922  -20.9079  -14.1210 O   0  0  0  0  0  0  0  0  0  0  0  0
   25.2108  -21.0171  -12.8766 N   0  0  0  0  0  0  0  0  0  0  0  0
   26.7010  -21.3151  -12.9297 C   0  0  0  0  0  0  0  0  0  0  0  0
   27.2318  -20.8109  -11.6193 C   0  0  0  0  0  0  0  0  0  0  0  0
   26.0173  -20.3145  -10.8781 C   0  0  0  0  0  0  0  0  0  0  0  0
   24.9463  -21.2538  -11.5112 C   0  0  1  0  0  0  0  0  0  0  0  0
   23.6896  -20.9807  -10.8863 C   0  0  0  0  0  0  0  0  0  0  0  0
   23.3006  -21.8728  -10.0167 O   0  0  0  0  0  0  0  0  0  0  0  0
   22.7977  -19.9524  -11.0207 O   0  0  0  0  0  0  0  0  0  0  0  0
  2  1  1  6
  2  3  1  0
  4  2  1  0
  4  5  2  0
  6  4  1  0
  7  6  1  0
  8  9  2  0
  8  7  1  0
 10  8  1  0
 11 12  1  0
 11 10  1  0
 13 14  1  0
 13 12  1  0
 14 10  1  0
 14 15  1  1
 15 17  1  0
 16 15  2  0
M  END
$$$$
