AGP.pdb
     RDKit          3D

 17 17  0  0  1  0  0  0  0  0999 V2000
   19.8798  -21.3260  -12.4003 C   0  0  0  0  0  0  0  0  0  0  0  0
   21.0199  -21.3451  -13.3883 C   0  0  2  0  0  0  0  0  0  0  0  0
   21.0391  -22.5925  -14.0891 N   0  0  0  0  0  0  0  0  0  0  0  0
   22.3180  -21.0989  -12.6648 C   0  0  0  0  0  0  0  0  0  0  0  0
   22.4967  -20.0167  -12.0685 O   0  0  0  0  0  0  0  0  0  0  0  0
   23.3493  -22.0668  -12.6412 N   0  0  0  0  0  0  0  0  0  0  0  0
   24.7020  -21.7808  -12.1562 C   0  0  0  0  0  0  0  0  0  0  0  0
   25.4269  -20.8827  -13.0581 C   0  0  0  0  0  0  0  0  0  0  0  0
   24.6895  -20.4233  -14.0282 O   0  0  0  0  0  0  0  0  0  0  0  0
   26.7520  -20.4578  -13.0352 N   0  0  0  0  0  0  0  0  0  0  0  0
   27.4943  -20.4726  -11.7081 C   0  0  0  0  0  0  0  0  0  0  0  0
   28.9022  -20.8476  -12.0695 C   0  0  0  0  0  0  0  0  0  0  0  0
   28.8951  -20.9649  -13.5718 C   0  0  0  0  0  0  0  0  0  0  0  0
   27.7544  -19.9508  -13.8887 C   0  0  1  0  0  0  0  0  0  0  0  0
   27.6186  -19.8633  -15.3094 C   0  0  0  0  0  0  0  0  0  0  0  0
   27.3913  -20.9981  -15.9126 O   0  0  0  0  0  0  0  0  0  0  0  0
   27.6806  -18.8083  -16.1778 O   0  0  0  0  0  0  0  0  0  0  0  0
  2  1  1  1
  2  3  1  0
  4  2  1  0
  4  5  2  0
  6  4  1  0
  7  6  1  0
  8  9  2  0
  8  7  1  0
 10  8  1  0
 11 12  1  0
 11 10  1  0
 13 14  1  0
 13 12  1  0
 14 10  1  0
 14 15  1  6
 15 17  1  0
 16 15  2  0
M  END
$$$$
