AGP.pdb
     RDKit          3D

 17 17  0  0  1  0  0  0  0  0999 V2000
   21.0154  -21.3728  -11.9347 C   0  0  0  0  0  0  0  0  0  0  0  0
   22.2412  -21.0940  -12.7691 C   0  0  2  0  0  0  0  0  0  0  0  0
   22.3890  -22.1024  -13.7734 N   0  0  0  0  0  0  0  0  0  0  0  0
   23.4527  -21.0225  -11.8767 C   0  0  0  0  0  0  0  0  0  0  0  0
   23.5407  -20.1119  -11.0271 O   0  0  0  0  0  0  0  0  0  0  0  0
   24.5027  -21.9653  -11.9744 N   0  0  0  0  0  0  0  0  0  0  0  0
   25.8134  -21.7686  -11.3497 C   0  0  0  0  0  0  0  0  0  0  0  0
   26.6826  -20.9142  -12.1620 C   0  0  0  0  0  0  0  0  0  0  0  0
   26.0377  -20.2415  -13.0717 O   0  0  0  0  0  0  0  0  0  0  0  0
   28.0596  -20.7187  -12.1096 N   0  0  0  0  0  0  0  0  0  0  0  0
   28.7529  -20.8083  -10.7592 C   0  0  0  0  0  0  0  0  0  0  0  0
   30.0856  -21.4292  -11.0616 C   0  0  0  0  0  0  0  0  0  0  0  0
   30.0989  -21.6006  -12.5587 C   0  0  0  0  0  0  0  0  0  0  0  0
   29.1561  -20.4212  -12.9460 C   0  0  1  0  0  0  0  0  0  0  0  0
   29.0752  -20.3660  -14.3725 C   0  0  0  0  0  0  0  0  0  0  0  0
   28.4954  -21.3927  -14.9322 O   0  0  0  0  0  0  0  0  0  0  0  0
   29.4917  -19.4350  -15.2839 O   0  0  0  0  0  0  0  0  0  0  0  0
  2  1  1  1
  2  3  1  0
  4  2  1  0
  4  5  2  0
  6  4  1  0
  7  6  1  0
  8  9  2  0
  8  7  1  0
 10  8  1  0
 11 12  1  0
 11 10  1  0
 13 14  1  0
 13 12  1  0
 14 10  1  0
 14 15  1  6
 15 17  1  0
 16 15  2  0
M  END
$$$$
