AGP.pdb
     RDKit          3D

 17 17  0  0  1  0  0  0  0  0999 V2000
   25.3038  -20.5226  -16.0832 C   0  0  0  0  0  0  0  0  0  0  0  0
   26.7903  -20.3775  -15.8695 C   0  0  2  0  0  0  0  0  0  0  0  0
   27.4515  -21.6077  -16.1805 N   0  0  0  0  0  0  0  0  0  0  0  0
   27.0562  -19.9520  -14.4491 C   0  0  0  0  0  0  0  0  0  0  0  0
   26.5256  -18.9120  -14.0067 O   0  0  0  0  0  0  0  0  0  0  0  0
   27.8969  -20.7031  -13.5948 N   0  0  0  0  0  0  0  0  0  0  0  0
   28.1670  -20.3245  -12.2054 C   0  0  0  0  0  0  0  0  0  0  0  0
   27.1760  -20.8853  -11.2841 C   0  0  0  0  0  0  0  0  0  0  0  0
   26.1738  -21.4538  -11.8909 O   0  0  0  0  0  0  0  0  0  0  0  0
   27.1449  -20.9010   -9.8928 N   0  0  0  0  0  0  0  0  0  0  0  0
   28.4655  -20.9178   -9.1391 C   0  0  0  0  0  0  0  0  0  0  0  0
   28.2099  -20.0873   -7.9150 C   0  0  0  0  0  0  0  0  0  0  0  0
   26.7570  -19.6991   -8.0105 C   0  0  0  0  0  0  0  0  0  0  0  0
   26.2313  -20.9245   -8.8180 C   0  0  1  0  0  0  0  0  0  0  0  0
   24.8172  -20.7813   -8.9740 C   0  0  0  0  0  0  0  0  0  0  0  0
   24.0983  -21.3848   -8.0672 O   0  0  0  0  0  0  0  0  0  0  0  0
   24.0540  -20.1260   -9.9008 O   0  0  0  0  0  0  0  0  0  0  0  0
  2  1  1  1
  2  3  1  0
  4  2  1  0
  4  5  2  0
  6  4  1  0
  7  6  1  0
  8  9  2  0
  8  7  1  0
 10  8  1  0
 11 12  1  0
 11 10  1  0
 13 14  1  0
 13 12  1  0
 14 10  1  0
 14 15  1  6
 15 17  1  0
 16 15  2  0
M  END
$$$$
