AGP.pdb
     RDKit          3D

 17 17  0  0  1  0  0  0  0  0999 V2000
   17.7192   -9.2093  -16.1392 C   0  0  0  0  0  0  0  0  0  0  0  0
   18.7510   -8.9564  -15.0679 C   0  0  2  0  0  0  0  0  0  0  0  0
   19.2614  -10.1997  -14.5770 N   0  0  0  0  0  0  0  0  0  0  0  0
   18.1391   -8.1362  -13.9624 C   0  0  0  0  0  0  0  0  0  0  0  0
   17.7425   -6.9767  -14.2010 O   0  0  0  0  0  0  0  0  0  0  0  0
   17.9998   -8.6463  -12.6504 N   0  0  0  0  0  0  0  0  0  0  0  0
   17.3697   -7.8926  -11.5633 C   0  0  0  0  0  0  0  0  0  0  0  0
   16.1217   -8.5168  -11.1180 C   0  0  0  0  0  0  0  0  0  0  0  0
   15.5949   -9.3062  -12.0098 O   0  0  0  0  0  0  0  0  0  0  0  0
   15.4312   -8.3956   -9.9156 N   0  0  0  0  0  0  0  0  0  0  0  0
   16.1849   -7.8898   -8.6956 C   0  0  0  0  0  0  0  0  0  0  0  0
   15.1768   -7.0690   -7.9450 C   0  0  0  0  0  0  0  0  0  0  0  0
   13.9039   -7.2021   -8.7405 C   0  0  0  0  0  0  0  0  0  0  0  0
   14.1520   -8.6104   -9.3610 C   0  0  1  0  0  0  0  0  0  0  0  0
   13.0014   -8.9662  -10.1317 C   0  0  0  0  0  0  0  0  0  0  0  0
   12.3473  -10.0087   -9.6972 O   0  0  0  0  0  0  0  0  0  0  0  0
   12.4394   -8.4219  -11.2537 O   0  0  0  0  0  0  0  0  0  0  0  0
  2  1  1  6
  2  3  1  0
  4  2  1  0
  4  5  2  0
  6  4  1  0
  7  6  1  0
  8  9  2  0
  8  7  1  0
 10  8  1  0
 11 12  1  0
 11 10  1  0
 13 14  1  0
 13 12  1  0
 14 10  1  0
 14 15  1  6
 15 17  1  0
 16 15  2  0
M  END
$$$$
