AGP.pdb
     RDKit          3D

 17 17  0  0  1  0  0  0  0  0999 V2000
   18.2929  -12.1471  -19.8894 C   0  0  0  0  0  0  0  0  0  0  0  0
   18.9633  -12.1519  -18.5378 C   0  0  2  0  0  0  0  0  0  0  0  0
   17.9889  -12.3509  -17.5091 N   0  0  0  0  0  0  0  0  0  0  0  0
   19.7148  -10.8608  -18.3435 C   0  0  0  0  0  0  0  0  0  0  0  0
   19.5416   -9.9191  -19.1447 O   0  0  0  0  0  0  0  0  0  0  0  0
   20.6189  -10.6831  -17.2702 N   0  0  0  0  0  0  0  0  0  0  0  0
   21.2494   -9.3970  -16.9617 C   0  0  0  0  0  0  0  0  0  0  0  0
   20.4062   -8.5693  -16.0960 C   0  0  0  0  0  0  0  0  0  0  0  0
   19.1361   -8.8328  -16.2113 O   0  0  0  0  0  0  0  0  0  0  0  0
   20.7496   -7.5683  -15.1920 N   0  0  0  0  0  0  0  0  0  0  0  0
   22.1265   -7.6152  -14.5484 C   0  0  0  0  0  0  0  0  0  0  0  0
   22.5292   -6.1750  -14.4177 C   0  0  0  0  0  0  0  0  0  0  0  0
   21.3464   -5.3969  -14.9335 C   0  0  0  0  0  0  0  0  0  0  0  0
   20.2168   -6.4125  -14.5834 C   0  0  1  0  0  0  0  0  0  0  0  0
   18.9639   -5.8281  -14.9485 C   0  0  0  0  0  0  0  0  0  0  0  0
   18.7944   -5.6422  -16.2291 O   0  0  0  0  0  0  0  0  0  0  0  0
   17.8883   -5.4177  -14.2098 O   0  0  0  0  0  0  0  0  0  0  0  0
  2  1  1  6
  2  3  1  0
  4  2  1  0
  4  5  2  0
  6  4  1  0
  7  6  1  0
  8  9  2  0
  8  7  1  0
 10  8  1  0
 11 12  1  0
 11 10  1  0
 13 14  1  0
 13 12  1  0
 14 10  1  0
 14 15  1  6
 15 17  1  0
 16 15  2  0
M  END
$$$$
