QNS.pdb
     RDKit          3D

 24 23  0  0  1  0  0  0  0  0999 V2000
   13.4439  -21.3967   12.9913 N   0  0  0  0  0  0  0  0  0  0  0  0
   13.4286  -20.1876   13.7689 C   0  0  0  0  0  0  0  0  0  0  0  0
   14.4384  -19.4451   13.6947 O   0  0  0  0  0  0  0  0  0  0  0  0
   12.2524  -19.8975   14.5889 C   0  0  0  0  0  0  0  0  0  0  0  0
   11.2144  -20.9836   14.6256 C   0  0  0  0  0  0  0  0  0  0  0  0
    9.8600  -20.4872   14.9886 C   0  0  2  0  0  0  0  0  0  0  0  0
    9.7367  -19.1113   14.5325 N   0  0  0  0  0  0  0  0  0  0  0  0
    9.5924  -20.5548   16.4531 C   0  0  0  0  0  0  0  0  0  0  0  0
    9.6099  -19.4937   17.1232 O   0  0  0  0  0  0  0  0  0  0  0  0
    7.9326  -22.0549   21.0757 N   0  0  0  0  0  0  0  0  0  0  0  0
    7.4555  -23.0150   20.1570 C   0  0  0  0  0  0  0  0  0  0  0  0
    6.6372  -23.8628   20.5899 O   0  0  0  0  0  0  0  0  0  0  0  0
    7.9449  -22.9547   18.7743 C   0  0  0  0  0  0  0  0  0  0  0  0
    8.9033  -21.8267   18.5116 C   0  0  2  0  0  0  0  0  0  0  0  0
    9.3191  -21.7529   17.1302 N   0  0  0  0  0  0  0  0  0  0  0  0
   10.0764  -21.8761   19.4349 C   0  0  0  0  0  0  0  0  0  0  0  0
   11.0690  -22.6140   19.2106 O   0  0  0  0  0  0  0  0  0  0  0  0
   10.2756  -19.5466   22.9905 O   0  0  0  0  0  0  0  0  0  0  0  0
   11.4413  -19.8264   22.2825 C   0  0  0  0  0  0  0  0  0  0  0  0
   11.3278  -21.0582   21.4308 C   0  0  2  0  0  0  0  0  0  0  0  0
   10.1325  -21.0843   20.6261 N   0  0  0  0  0  0  0  0  0  0  0  0
   11.3855  -22.2354   22.3385 C   0  0  0  0  0  0  0  0  0  0  0  0
   10.4253  -23.0467   22.4476 O   0  0  0  0  0  0  0  0  0  0  0  0
   12.5153  -22.4612   23.0902 O   0  0  0  0  0  0  0  0  0  0  0  0
  1  2  1  0
  2  3  2  0
  4  2  1  0
  4  5  1  0
  6  8  1  0
  6  5  1  0
  6  7  1  1
  8 15  1  0
  9  8  2  0
 11 10  1  0
 12 11  2  0
 14 13  1  6
 13 11  1  0
 15 14  1  0
 16 21  1  0
 16 14  1  0
 17 16  2  0
 19 18  1  0
 20 19  1  1
 20 21  1  0
 22 24  1  0
 22 20  1  0
 23 22  2  0
M  END
$$$$
