QNS.pdb
     RDKit          3D

 24 23  0  0  1  0  0  0  0  0999 V2000
    5.9238  -15.2638   10.3399 N   0  0  0  0  0  0  0  0  0  0  0  0
    6.4522  -16.3886   11.0626 C   0  0  0  0  0  0  0  0  0  0  0  0
    6.0608  -17.5295   10.7140 O   0  0  0  0  0  0  0  0  0  0  0  0
    7.4028  -16.1404   12.1464 C   0  0  0  0  0  0  0  0  0  0  0  0
    6.9127  -16.4974   13.5215 C   0  0  0  0  0  0  0  0  0  0  0  0
    7.8182  -17.4327   14.2413 C   0  0  2  0  0  0  0  0  0  0  0  0
    7.7149  -18.7435   13.6188 N   0  0  0  0  0  0  0  0  0  0  0  0
    7.5014  -17.5420   15.6934 C   0  0  0  0  0  0  0  0  0  0  0  0
    7.5560  -16.5105   16.4062 O   0  0  0  0  0  0  0  0  0  0  0  0
    4.6805  -19.0180   16.1911 N   0  0  0  0  0  0  0  0  0  0  0  0
    4.7756  -19.9945   17.2064 C   0  0  0  0  0  0  0  0  0  0  0  0
    3.8365  -20.8229   17.2920 O   0  0  0  0  0  0  0  0  0  0  0  0
    5.9541  -19.9724   18.0815 C   0  0  0  0  0  0  0  0  0  0  0  0
    6.9538  -18.9039   17.7369 C   0  0  2  0  0  0  0  0  0  0  0  0
    7.1416  -18.7483   16.3131 N   0  0  0  0  0  0  0  0  0  0  0  0
    8.2536  -19.1198   18.4405 C   0  0  0  0  0  0  0  0  0  0  0  0
    9.2080  -19.7346   17.9010 O   0  0  0  0  0  0  0  0  0  0  0  0
   11.1946  -18.3021   22.2473 O   0  0  0  0  0  0  0  0  0  0  0  0
    9.9810  -18.0343   21.6198 C   0  0  0  0  0  0  0  0  0  0  0  0
    9.7084  -18.9467   20.4584 C   0  0  2  0  0  0  0  0  0  0  0  0
    8.4814  -18.6372   19.7686 N   0  0  0  0  0  0  0  0  0  0  0  0
    9.6904  -20.3398   20.9797 C   0  0  0  0  0  0  0  0  0  0  0  0
    8.6309  -21.0230   21.0330 O   0  0  0  0  0  0  0  0  0  0  0  0
   10.8583  -20.9168   21.4219 O   0  0  0  0  0  0  0  0  0  0  0  0
  1  2  1  0
  2  3  2  0
  4  2  1  0
  4  5  1  0
  6  8  1  0
  6  5  1  0
  6  7  1  6
  8 15  1  0
  9  8  2  0
 11 10  1  0
 12 11  2  0
 14 13  1  6
 13 11  1  0
 15 14  1  0
 16 21  1  0
 16 14  1  0
 17 16  2  0
 19 18  1  0
 20 19  1  1
 20 21  1  0
 22 24  1  0
 22 20  1  0
 23 22  2  0
M  END
$$$$
