QNS.pdb
     RDKit          3D

 24 23  0  0  1  0  0  0  0  0999 V2000
    7.4003  -16.4285   12.7981 N   0  0  0  0  0  0  0  0  0  0  0  0
    8.5414  -16.8713   12.0441 C   0  0  0  0  0  0  0  0  0  0  0  0
    8.3267  -17.6487   11.0819 O   0  0  0  0  0  0  0  0  0  0  0  0
    9.8677  -16.3950   12.4370 C   0  0  0  0  0  0  0  0  0  0  0  0
    9.8940  -15.4972   13.6418 C   0  0  0  0  0  0  0  0  0  0  0  0
   10.0451  -16.2395   14.9220 C   0  0  2  0  0  0  0  0  0  0  0  0
    8.8910  -17.1095   15.0884 N   0  0  0  0  0  0  0  0  0  0  0  0
   10.1666  -15.3381   16.1026 C   0  0  0  0  0  0  0  0  0  0  0  0
   11.2118  -14.6575   16.2419 O   0  0  0  0  0  0  0  0  0  0  0  0
    8.2210  -11.8821   20.1185 N   0  0  0  0  0  0  0  0  0  0  0  0
    8.0883  -13.2876   20.1381 C   0  0  0  0  0  0  0  0  0  0  0  0
    8.0691  -13.8440   21.2631 O   0  0  0  0  0  0  0  0  0  0  0  0
    7.9833  -13.9920   18.8544 C   0  0  0  0  0  0  0  0  0  0  0  0
    9.3045  -14.4253   18.2828 C   0  0  2  0  0  0  0  0  0  0  0  0
    9.1653  -15.2080   17.0768 N   0  0  0  0  0  0  0  0  0  0  0  0
   10.1386  -15.1316   19.3010 C   0  0  0  0  0  0  0  0  0  0  0  0
    9.9330  -16.3318   19.6128 O   0  0  0  0  0  0  0  0  0  0  0  0
   14.2641  -15.3000   21.8907 O   0  0  0  0  0  0  0  0  0  0  0  0
   13.4139  -14.5562   21.0769 C   0  0  0  0  0  0  0  0  0  0  0  0
   12.0840  -15.2189   20.8586 C   0  0  2  0  0  0  0  0  0  0  0  0
   11.2180  -14.4779   19.9765 N   0  0  0  0  0  0  0  0  0  0  0  0
   11.4533  -15.4047   22.1930 C   0  0  0  0  0  0  0  0  0  0  0  0
   10.3824  -14.8212   22.5166 O   0  0  0  0  0  0  0  0  0  0  0  0
   12.0443  -16.2365   23.1159 O   0  0  0  0  0  0  0  0  0  0  0  0
  1  2  1  0
  2  3  2  0
  4  2  1  0
  4  5  1  0
  6  8  1  0
  6  5  1  0
  6  7  1  1
  8 15  1  0
  9  8  2  0
 11 10  1  0
 12 11  2  0
 14 13  1  1
 13 11  1  0
 15 14  1  0
 16 21  1  0
 16 14  1  0
 17 16  2  0
 19 18  1  0
 20 19  1  1
 20 21  1  0
 22 24  1  0
 22 20  1  0
 23 22  2  0
M  END
$$$$
