QNS.pdb
     RDKit          3D

 24 23  0  0  1  0  0  0  0  0999 V2000
    8.5619  -12.4259   17.8723 N   0  0  0  0  0  0  0  0  0  0  0  0
    7.9194  -13.5048   17.1723 C   0  0  0  0  0  0  0  0  0  0  0  0
    8.1092  -13.5783   15.9334 O   0  0  0  0  0  0  0  0  0  0  0  0
    7.0941  -14.4412   17.9353 C   0  0  0  0  0  0  0  0  0  0  0  0
    6.9320  -14.1105   19.3923 C   0  0  0  0  0  0  0  0  0  0  0  0
    8.2028  -14.2069   20.1596 C   0  0  2  0  0  0  0  0  0  0  0  0
    9.0657  -15.1752   19.5006 N   0  0  0  0  0  0  0  0  0  0  0  0
    7.9924  -14.6086   21.5792 C   0  0  0  0  0  0  0  0  0  0  0  0
    7.2531  -13.9023   22.3069 O   0  0  0  0  0  0  0  0  0  0  0  0
    6.5488  -16.1039   26.2046 N   0  0  0  0  0  0  0  0  0  0  0  0
    6.6241  -17.0035   25.1191 C   0  0  0  0  0  0  0  0  0  0  0  0
    6.4586  -18.2215   25.3739 O   0  0  0  0  0  0  0  0  0  0  0  0
    6.8879  -16.4567   23.7825 C   0  0  0  0  0  0  0  0  0  0  0  0
    8.3410  -16.1895   23.5051 C   0  0  2  0  0  0  0  0  0  0  0  0
    8.5823  -15.7455   22.1519 N   0  0  0  0  0  0  0  0  0  0  0  0
    9.1927  -17.3654   23.8560 C   0  0  0  0  0  0  0  0  0  0  0  0
    9.5715  -18.1943   22.9903 O   0  0  0  0  0  0  0  0  0  0  0  0
   13.2756  -17.1000   25.1759 O   0  0  0  0  0  0  0  0  0  0  0  0
   11.9293  -16.7799   25.0231 C   0  0  0  0  0  0  0  0  0  0  0  0
   11.0109  -17.8750   25.4847 C   0  0  2  0  0  0  0  0  0  0  0  0
    9.6233  -17.6108   25.1988 N   0  0  0  0  0  0  0  0  0  0  0  0
   11.2296  -18.0552   26.9450 C   0  0  0  0  0  0  0  0  0  0  0  0
   10.3632  -17.7220   27.7998 O   0  0  0  0  0  0  0  0  0  0  0  0
   12.4094  -18.6014   27.3949 O   0  0  0  0  0  0  0  0  0  0  0  0
  1  2  1  0
  2  3  2  0
  4  2  1  0
  4  5  1  0
  6  8  1  0
  6  5  1  0
  6  7  1  6
  8 15  1  0
  9  8  2  0
 11 10  1  0
 12 11  2  0
 14 13  1  6
 13 11  1  0
 15 14  1  0
 16 21  1  0
 16 14  1  0
 17 16  2  0
 19 18  1  0
 20 19  1  1
 20 21  1  0
 22 24  1  0
 22 20  1  0
 23 22  2  0
M  END
$$$$
