QNS.pdb
     RDKit          3D

 24 23  0  0  1  0  0  0  0  0999 V2000
    7.6636  -11.6385   19.6179 N   0  0  0  0  0  0  0  0  0  0  0  0
    7.7584  -13.0102   20.0379 C   0  0  0  0  0  0  0  0  0  0  0  0
    7.2787  -13.3005   21.1612 O   0  0  0  0  0  0  0  0  0  0  0  0
    8.3989  -13.9737   19.1426 C   0  0  0  0  0  0  0  0  0  0  0  0
    8.9651  -13.3931   17.8774 C   0  0  0  0  0  0  0  0  0  0  0  0
    9.6966  -14.3907   17.0514 C   0  0  2  0  0  0  0  0  0  0  0  0
    8.7390  -15.3657   16.5525 N   0  0  0  0  0  0  0  0  0  0  0  0
   10.7742  -15.0893   17.8075 C   0  0  0  0  0  0  0  0  0  0  0  0
   10.6081  -16.2904   18.1314 O   0  0  0  0  0  0  0  0  0  0  0  0
   16.0876  -16.4177   18.6463 N   0  0  0  0  0  0  0  0  0  0  0  0
   15.4768  -15.3233   19.2965 C   0  0  0  0  0  0  0  0  0  0  0  0
   15.9068  -15.0240   20.4372 O   0  0  0  0  0  0  0  0  0  0  0  0
   14.3929  -14.6198   18.5998 C   0  0  0  0  0  0  0  0  0  0  0  0
   13.0170  -15.1159   18.9472 C   0  0  2  0  0  0  0  0  0  0  0  0
   11.9768  -14.4703   18.1806 N   0  0  0  0  0  0  0  0  0  0  0  0
   12.7537  -15.0234   20.4146 C   0  0  0  0  0  0  0  0  0  0  0  0
   12.8243  -13.9328   21.0356 O   0  0  0  0  0  0  0  0  0  0  0  0
    9.7929  -16.1539   21.9373 O   0  0  0  0  0  0  0  0  0  0  0  0
   10.7069  -16.4441   22.9466 C   0  0  0  0  0  0  0  0  0  0  0  0
   12.1118  -16.0442   22.5973 C   0  0  2  0  0  0  0  0  0  0  0  0
   12.4066  -16.1736   21.1925 N   0  0  0  0  0  0  0  0  0  0  0  0
   13.0306  -16.8814   23.4145 C   0  0  0  0  0  0  0  0  0  0  0  0
   13.9232  -17.6045   22.8922 O   0  0  0  0  0  0  0  0  0  0  0  0
   12.9167  -16.8786   24.7854 O   0  0  0  0  0  0  0  0  0  0  0  0
  1  2  1  0
  2  3  2  0
  4  2  1  0
  4  5  1  0
  6  8  1  0
  6  5  1  0
  6  7  1  1
  8 15  1  0
  9  8  2  0
 11 10  1  0
 12 11  2  0
 14 13  1  1
 13 11  1  0
 15 14  1  0
 16 21  1  0
 16 14  1  0
 17 16  2  0
 19 18  1  0
 20 19  1  6
 20 21  1  0
 22 24  1  0
 22 20  1  0
 23 22  2  0
M  END
$$$$
