QNS.pdb
     RDKit          3D

 24 23  0  0  1  0  0  0  0  0999 V2000
    9.1957  -13.9995   14.3626 N   0  0  0  0  0  0  0  0  0  0  0  0
    7.8527  -13.9622   14.8740 C   0  0  0  0  0  0  0  0  0  0  0  0
    6.9229  -14.1878   14.0611 O   0  0  0  0  0  0  0  0  0  0  0  0
    7.6518  -13.6684   16.2930 C   0  0  0  0  0  0  0  0  0  0  0  0
    8.9064  -13.3925   17.0730 C   0  0  0  0  0  0  0  0  0  0  0  0
    9.5607  -14.6264   17.5851 C   0  0  2  0  0  0  0  0  0  0  0  0
    8.9874  -15.7715   16.8949 N   0  0  0  0  0  0  0  0  0  0  0  0
    9.4012  -14.7977   19.0568 C   0  0  0  0  0  0  0  0  0  0  0  0
    9.8427  -13.9073   19.8232 O   0  0  0  0  0  0  0  0  0  0  0  0
    6.3733  -14.6117   21.5271 N   0  0  0  0  0  0  0  0  0  0  0  0
    6.2892  -15.9990   21.2787 C   0  0  0  0  0  0  0  0  0  0  0  0
    5.1886  -16.4398   20.8660 O   0  0  0  0  0  0  0  0  0  0  0  0
    7.4825  -16.8199   21.5180 C   0  0  0  0  0  0  0  0  0  0  0  0
    8.7652  -16.1865   21.0561 C   0  0  2  0  0  0  0  0  0  0  0  0
    8.7776  -15.9122   19.6379 N   0  0  0  0  0  0  0  0  0  0  0  0
    9.9547  -16.9900   21.4690 C   0  0  0  0  0  0  0  0  0  0  0  0
   10.2340  -18.0904   20.9295 O   0  0  0  0  0  0  0  0  0  0  0  0
   13.3611  -15.4002   22.9205 O   0  0  0  0  0  0  0  0  0  0  0  0
   13.2892  -16.7480   22.5791 C   0  0  0  0  0  0  0  0  0  0  0  0
   11.9589  -17.3645   22.9047 C   0  0  2  0  0  0  0  0  0  0  0  0
   10.8411  -16.5486   22.5026 N   0  0  0  0  0  0  0  0  0  0  0  0
   11.9324  -17.6210   24.3698 C   0  0  0  0  0  0  0  0  0  0  0  0
   11.0619  -17.1079   25.1255 O   0  0  0  0  0  0  0  0  0  0  0  0
   12.8807  -18.4420   24.9349 O   0  0  0  0  0  0  0  0  0  0  0  0
  1  2  1  0
  2  3  2  0
  4  2  1  0
  4  5  1  0
  6  8  1  0
  6  5  1  0
  6  7  1  6
  8 15  1  0
  9  8  2  0
 11 10  1  0
 12 11  2  0
 14 13  1  6
 13 11  1  0
 15 14  1  0
 16 21  1  0
 16 14  1  0
 17 16  2  0
 19 18  1  0
 20 19  1  1
 20 21  1  0
 22 24  1  0
 22 20  1  0
 23 22  2  0
M  END
$$$$
