QNS.pdb
     RDKit          3D

 24 23  0  0  1  0  0  0  0  0999 V2000
    6.7110  -19.1928   12.4916 N   0  0  0  0  0  0  0  0  0  0  0  0
    7.9163  -19.8898   12.1334 C   0  0  0  0  0  0  0  0  0  0  0  0
    7.9449  -20.4448   11.0075 O   0  0  0  0  0  0  0  0  0  0  0  0
    9.0237  -19.9099   13.0891 C   0  0  0  0  0  0  0  0  0  0  0  0
    8.7445  -19.2417   14.4059 C   0  0  0  0  0  0  0  0  0  0  0  0
    9.9489  -18.6112   15.0097 C   0  0  2  0  0  0  0  0  0  0  0  0
   10.9620  -18.4705   13.9752 N   0  0  0  0  0  0  0  0  0  0  0  0
   10.5028  -19.3955   16.1493 C   0  0  0  0  0  0  0  0  0  0  0  0
    9.7651  -19.6377   17.1353 O   0  0  0  0  0  0  0  0  0  0  0  0
   14.2740  -22.6680   14.7465 N   0  0  0  0  0  0  0  0  0  0  0  0
   13.3169  -22.5044   15.7715 C   0  0  0  0  0  0  0  0  0  0  0  0
   12.3048  -23.2459   15.7318 O   0  0  0  0  0  0  0  0  0  0  0  0
   13.5703  -21.4891   16.8011 C   0  0  0  0  0  0  0  0  0  0  0  0
   12.3456  -20.7278   17.2260 C   0  0  2  0  0  0  0  0  0  0  0  0
   11.8182  -19.8829   16.1798 N   0  0  0  0  0  0  0  0  0  0  0  0
   12.5860  -19.9576   18.4831 C   0  0  0  0  0  0  0  0  0  0  0  0
   13.0869  -18.8048   18.4714 O   0  0  0  0  0  0  0  0  0  0  0  0
   10.4166  -20.3703   22.0010 O   0  0  0  0  0  0  0  0  0  0  0  0
   11.2347  -19.2974   21.6574 C   0  0  0  0  0  0  0  0  0  0  0  0
   12.4974  -19.7223   20.9640 C   0  0  2  0  0  0  0  0  0  0  0  0
   12.2580  -20.4925   19.7696 N   0  0  0  0  0  0  0  0  0  0  0  0
   13.3064  -20.4957   21.9441 C   0  0  0  0  0  0  0  0  0  0  0  0
   13.6005  -21.7093   21.7627 O   0  0  0  0  0  0  0  0  0  0  0  0
   13.7562  -19.8826   23.0905 O   0  0  0  0  0  0  0  0  0  0  0  0
  1  2  1  0
  2  3  2  0
  4  2  1  0
  4  5  1  0
  6  8  1  0
  6  5  1  0
  6  7  1  6
  8 15  1  0
  9  8  2  0
 11 10  1  0
 12 11  2  0
 14 13  1  6
 13 11  1  0
 15 14  1  0
 16 21  1  0
 16 14  1  0
 17 16  2  0
 19 18  1  0
 20 19  1  1
 20 21  1  0
 22 24  1  0
 22 20  1  0
 23 22  2  0
M  END
$$$$
