QNS.pdb
     RDKit          3D

 24 23  0  0  1  0  0  0  0  0999 V2000
    8.5423  -12.1989   21.0280 N   0  0  0  0  0  0  0  0  0  0  0  0
    8.0264  -13.0373   19.9803 C   0  0  0  0  0  0  0  0  0  0  0  0
    8.5258  -12.8991   18.8367 O   0  0  0  0  0  0  0  0  0  0  0  0
    6.9647  -13.9900   20.3049 C   0  0  0  0  0  0  0  0  0  0  0  0
    7.0368  -15.3015   19.5747 C   0  0  0  0  0  0  0  0  0  0  0  0
    8.1083  -16.1981   20.0857 C   0  0  2  0  0  0  0  0  0  0  0  0
    8.1527  -17.3862   19.2474 N   0  0  0  0  0  0  0  0  0  0  0  0
    7.9009  -16.5958   21.5069 C   0  0  0  0  0  0  0  0  0  0  0  0
    7.0952  -17.5224   21.7667 O   0  0  0  0  0  0  0  0  0  0  0  0
    8.9607  -17.8191   26.3308 N   0  0  0  0  0  0  0  0  0  0  0  0
    9.5263  -18.4946   25.2275 C   0  0  0  0  0  0  0  0  0  0  0  0
   10.0982  -19.5878   25.4590 O   0  0  0  0  0  0  0  0  0  0  0  0
    9.4069  -17.8773   23.9010 C   0  0  0  0  0  0  0  0  0  0  0  0
    8.6774  -16.5628   23.8998 C   0  0  2  0  0  0  0  0  0  0  0  0
    8.5646  -15.9841   22.5811 N   0  0  0  0  0  0  0  0  0  0  0  0
    9.2782  -15.6000   24.8710 C   0  0  0  0  0  0  0  0  0  0  0  0
   10.4051  -15.0774   24.6788 O   0  0  0  0  0  0  0  0  0  0  0  0
    8.3234  -12.0623   27.9620 O   0  0  0  0  0  0  0  0  0  0  0  0
    7.9056  -13.1519   27.2027 C   0  0  0  0  0  0  0  0  0  0  0  0
    9.0334  -14.0685   26.8236 C   0  0  2  0  0  0  0  0  0  0  0  0
    8.6012  -15.2209   26.0738 N   0  0  0  0  0  0  0  0  0  0  0  0
    9.7191  -14.4757   28.0794 C   0  0  0  0  0  0  0  0  0  0  0  0
   10.2359  -13.6345   28.8652 O   0  0  0  0  0  0  0  0  0  0  0  0
    9.8012  -15.8087   28.4093 O   0  0  0  0  0  0  0  0  0  0  0  0
  1  2  1  0
  2  3  2  0
  4  2  1  0
  4  5  1  0
  6  8  1  0
  6  5  1  0
  6  7  1  6
  8 15  1  0
  9  8  2  0
 11 10  1  0
 12 11  2  0
 14 13  1  6
 13 11  1  0
 15 14  1  0
 16 21  1  0
 16 14  1  0
 17 16  2  0
 19 18  1  0
 20 19  1  1
 20 21  1  0
 22 24  1  0
 22 20  1  0
 23 22  2  0
M  END
$$$$
