QNS.pdb
     RDKit          3D

 24 23  0  0  1  0  0  0  0  0999 V2000
   -2.4952  -27.8796   31.6275 N   0  0  0  0  0  0  0  0  0  0  0  0
   -1.3982  -28.0343   30.7114 C   0  0  0  0  0  0  0  0  0  0  0  0
   -0.7283  -29.0931   30.7921 O   0  0  0  0  0  0  0  0  0  0  0  0
   -1.1316  -26.9631   29.7513 C   0  0  0  0  0  0  0  0  0  0  0  0
   -2.0494  -25.7768   29.8454 C   0  0  0  0  0  0  0  0  0  0  0  0
   -3.0214  -25.6980   28.7221 C   0  0  2  0  0  0  0  0  0  0  0  0
   -2.2778  -25.5679   27.4785 N   0  0  0  0  0  0  0  0  0  0  0  0
   -3.9719  -24.5582   28.8584 C   0  0  0  0  0  0  0  0  0  0  0  0
   -3.7859  -23.7184   29.7723 O   0  0  0  0  0  0  0  0  0  0  0  0
   -7.7968  -21.1864   28.2122 N   0  0  0  0  0  0  0  0  0  0  0  0
   -7.0761  -21.3356   27.0073 C   0  0  0  0  0  0  0  0  0  0  0  0
   -7.2819  -20.4830   26.1092 O   0  0  0  0  0  0  0  0  0  0  0  0
   -6.1465  -22.4658   26.8908 C   0  0  0  0  0  0  0  0  0  0  0  0
   -6.0233  -23.2899   28.1420 C   0  0  2  0  0  0  0  0  0  0  0  0
   -5.0747  -24.3714   28.0113 N   0  0  0  0  0  0  0  0  0  0  0  0
   -7.3540  -23.7818   28.6094 C   0  0  0  0  0  0  0  0  0  0  0  0
   -8.1081  -24.4638   27.8703 O   0  0  0  0  0  0  0  0  0  0  0  0
   -8.1114  -25.8986   31.5589 O   0  0  0  0  0  0  0  0  0  0  0  0
   -8.9906  -24.8230   31.6503 C   0  0  0  0  0  0  0  0  0  0  0  0
   -9.1002  -24.0458   30.3698 C   0  0  2  0  0  0  0  0  0  0  0  0
   -7.8416  -23.5021   29.9257 N   0  0  0  0  0  0  0  0  0  0  0  0
  -10.1006  -22.9664   30.5869 C   0  0  0  0  0  0  0  0  0  0  0  0
   -9.8105  -21.7456   30.4539 O   0  0  0  0  0  0  0  0  0  0  0  0
  -11.3882  -23.2928   30.9449 O   0  0  0  0  0  0  0  0  0  0  0  0
  1  2  1  0
  2  3  2  0
  4  2  1  0
  4  5  1  0
  6  8  1  0
  6  5  1  0
  6  7  1  6
  8 15  1  0
  9  8  2  0
 11 10  1  0
 12 11  2  0
 14 13  1  6
 13 11  1  0
 15 14  1  0
 16 21  1  0
 16 14  1  0
 17 16  2  0
 19 18  1  0
 20 19  1  1
 20 21  1  0
 22 24  1  0
 22 20  1  0
 23 22  2  0
M  END
$$$$
