QNS.pdb
     RDKit          3D

 24 23  0  0  1  0  0  0  0  0999 V2000
   13.3981  -17.2428   14.6571 N   0  0  0  0  0  0  0  0  0  0  0  0
   13.1337  -16.7935   15.9969 C   0  0  0  0  0  0  0  0  0  0  0  0
   11.9360  -16.5726   16.3019 O   0  0  0  0  0  0  0  0  0  0  0  0
   14.2610  -16.6237   16.9136 C   0  0  0  0  0  0  0  0  0  0  0  0
   15.1416  -15.4389   16.6321 C   0  0  0  0  0  0  0  0  0  0  0  0
   14.6406  -14.1786   17.2433 C   0  0  2  0  0  0  0  0  0  0  0  0
   15.5538  -13.1021   16.8917 N   0  0  0  0  0  0  0  0  0  0  0  0
   14.5153  -14.2645   18.7258 C   0  0  0  0  0  0  0  0  0  0  0  0
   15.5499  -14.1661   19.4294 O   0  0  0  0  0  0  0  0  0  0  0  0
   10.3537  -15.9974   22.2492 N   0  0  0  0  0  0  0  0  0  0  0  0
   10.8428  -15.3712   21.0821 C   0  0  0  0  0  0  0  0  0  0  0  0
   10.5094  -15.8742   19.9814 O   0  0  0  0  0  0  0  0  0  0  0  0
   11.6981  -14.1881   21.2365 C   0  0  0  0  0  0  0  0  0  0  0  0
   13.1258  -14.4048   20.8186 C   0  0  2  0  0  0  0  0  0  0  0  0
   13.2905  -14.4513   19.3842 N   0  0  0  0  0  0  0  0  0  0  0  0
   13.7143  -15.6095   21.4769 C   0  0  0  0  0  0  0  0  0  0  0  0
   13.6545  -16.7502   20.9521 O   0  0  0  0  0  0  0  0  0  0  0  0
   17.2964  -15.6027   22.2053 O   0  0  0  0  0  0  0  0  0  0  0  0
   16.4652  -16.7194   22.2256 C   0  0  0  0  0  0  0  0  0  0  0  0
   15.2951  -16.5618   23.1539 C   0  0  2  0  0  0  0  0  0  0  0  0
   14.3785  -15.5287   22.7422 N   0  0  0  0  0  0  0  0  0  0  0  0
   15.8365  -16.2845   24.5115 C   0  0  0  0  0  0  0  0  0  0  0  0
   15.5889  -15.2109   25.1266 O   0  0  0  0  0  0  0  0  0  0  0  0
   16.6347  -17.2185   25.1304 O   0  0  0  0  0  0  0  0  0  0  0  0
  1  2  1  0
  2  3  2  0
  4  2  1  0
  4  5  1  0
  6  8  1  0
  6  5  1  0
  6  7  1  1
  8 15  1  0
  9  8  2  0
 11 10  1  0
 12 11  2  0
 14 13  1  6
 13 11  1  0
 15 14  1  0
 16 21  1  0
 16 14  1  0
 17 16  2  0
 19 18  1  0
 20 19  1  6
 20 21  1  0
 22 24  1  0
 22 20  1  0
 23 22  2  0
M  END
$$$$
