QNS.pdb
     RDKit          3D

 24 23  0  0  1  0  0  0  0  0999 V2000
    8.3036  -11.5173   19.2600 N   0  0  0  0  0  0  0  0  0  0  0  0
    8.0145  -12.8426   19.7362 C   0  0  0  0  0  0  0  0  0  0  0  0
    7.2919  -12.9399   20.7583 O   0  0  0  0  0  0  0  0  0  0  0  0
    8.5714  -13.9842   19.0105 C   0  0  0  0  0  0  0  0  0  0  0  0
    9.3590  -13.6367   17.7787 C   0  0  0  0  0  0  0  0  0  0  0  0
    9.9518  -14.8249   17.1081 C   0  0  2  0  0  0  0  0  0  0  0  0
    8.8703  -15.6446   16.5839 N   0  0  0  0  0  0  0  0  0  0  0  0
   10.8009  -15.6410   18.0213 C   0  0  0  0  0  0  0  0  0  0  0  0
   10.4653  -16.8253   18.2660 O   0  0  0  0  0  0  0  0  0  0  0  0
   14.8237  -13.7356   17.7984 N   0  0  0  0  0  0  0  0  0  0  0  0
   14.7823  -14.4212   19.0320 C   0  0  0  0  0  0  0  0  0  0  0  0
   15.1654  -13.7920   20.0484 O   0  0  0  0  0  0  0  0  0  0  0  0
   14.2991  -15.8074   19.0390 C   0  0  0  0  0  0  0  0  0  0  0  0
   12.8569  -15.9520   19.4377 C   0  0  2  0  0  0  0  0  0  0  0  0
   11.9673  -15.1517   18.6286 N   0  0  0  0  0  0  0  0  0  0  0  0
   12.6601  -15.6866   20.8945 C   0  0  0  0  0  0  0  0  0  0  0  0
   13.3263  -14.8147   21.5077 O   0  0  0  0  0  0  0  0  0  0  0  0
    9.3084  -16.9471   23.0080 O   0  0  0  0  0  0  0  0  0  0  0  0
   10.1892  -16.0265   23.5691 C   0  0  0  0  0  0  0  0  0  0  0  0
   11.6027  -16.2029   23.0930 C   0  0  2  0  0  0  0  0  0  0  0  0
   11.7010  -16.4122   21.6704 N   0  0  0  0  0  0  0  0  0  0  0  0
   12.1865  -17.3478   23.8421 C   0  0  0  0  0  0  0  0  0  0  0  0
   12.7043  -18.3388   23.2572 O   0  0  0  0  0  0  0  0  0  0  0  0
   12.1695  -17.3415   25.2177 O   0  0  0  0  0  0  0  0  0  0  0  0
  1  2  1  0
  2  3  2  0
  4  2  1  0
  4  5  1  0
  6  8  1  0
  6  5  1  0
  6  7  1  1
  8 15  1  0
  9  8  2  0
 11 10  1  0
 12 11  2  0
 14 13  1  6
 13 11  1  0
 15 14  1  0
 16 21  1  0
 16 14  1  0
 17 16  2  0
 19 18  1  0
 20 19  1  1
 20 21  1  0
 22 24  1  0
 22 20  1  0
 23 22  2  0
M  END
$$$$
