QNS.pdb
     RDKit          3D

 24 23  0  0  1  0  0  0  0  0999 V2000
    3.7768  -21.0949   22.4989 N   0  0  0  0  0  0  0  0  0  0  0  0
    2.9252  -20.2719   21.6838 C   0  0  0  0  0  0  0  0  0  0  0  0
    1.9297  -20.8242   21.1546 O   0  0  0  0  0  0  0  0  0  0  0  0
    3.2643  -18.8579   21.5225 C   0  0  0  0  0  0  0  0  0  0  0  0
    4.5067  -18.4121   22.2409 C   0  0  0  0  0  0  0  0  0  0  0  0
    4.7253  -16.9421   22.1755 C   0  0  2  0  0  0  0  0  0  0  0  0
    3.8211  -16.3864   21.1806 N   0  0  0  0  0  0  0  0  0  0  0  0
    6.1298  -16.5807   21.8326 C   0  0  0  0  0  0  0  0  0  0  0  0
    6.9828  -17.4949   21.7241 O   0  0  0  0  0  0  0  0  0  0  0  0
    6.8294  -12.4062   18.8899 N   0  0  0  0  0  0  0  0  0  0  0  0
    7.5768  -13.5227   19.3237 C   0  0  0  0  0  0  0  0  0  0  0  0
    7.7838  -14.4327   18.4843 O   0  0  0  0  0  0  0  0  0  0  0  0
    8.0543  -13.5405   20.7118 C   0  0  0  0  0  0  0  0  0  0  0  0
    7.9273  -14.8777   21.3869 C   0  0  2  0  0  0  0  0  0  0  0  0
    6.5544  -15.2601   21.6224 N   0  0  0  0  0  0  0  0  0  0  0  0
    8.7359  -14.9390   22.6413 C   0  0  0  0  0  0  0  0  0  0  0  0
    8.4848  -14.2062   23.6311 O   0  0  0  0  0  0  0  0  0  0  0  0
   10.0281  -16.6546   26.3767 O   0  0  0  0  0  0  0  0  0  0  0  0
    9.4401  -16.4078   25.1391 C   0  0  0  0  0  0  0  0  0  0  0  0
   10.4408  -16.0609   24.0741 C   0  0  2  0  0  0  0  0  0  0  0  0
    9.8415  -15.8371   22.7827 N   0  0  0  0  0  0  0  0  0  0  0  0
   11.4335  -17.1674   24.0169 C   0  0  0  0  0  0  0  0  0  0  0  0
   11.4598  -17.9972   23.0667 O   0  0  0  0  0  0  0  0  0  0  0  0
   12.3599  -17.3043   25.0247 O   0  0  0  0  0  0  0  0  0  0  0  0
  1  2  1  0
  2  3  2  0
  4  2  1  0
  4  5  1  0
  6  8  1  0
  6  5  1  0
  6  7  1  6
  8 15  1  0
  9  8  2  0
 11 10  1  0
 12 11  2  0
 14 13  1  1
 13 11  1  0
 15 14  1  0
 16 21  1  0
 16 14  1  0
 17 16  2  0
 19 18  1  0
 20 19  1  1
 20 21  1  0
 22 24  1  0
 22 20  1  0
 23 22  2  0
M  END
$$$$
