QNS.pdb
     RDKit          3D

 24 23  0  0  1  0  0  0  0  0999 V2000
    9.3089  -17.7294   19.2712 N   0  0  0  0  0  0  0  0  0  0  0  0
    8.3701  -17.0929   18.3879 C   0  0  0  0  0  0  0  0  0  0  0  0
    7.9727  -17.7562   17.3987 O   0  0  0  0  0  0  0  0  0  0  0  0
    7.9384  -15.7283   18.6908 C   0  0  0  0  0  0  0  0  0  0  0  0
    8.4462  -15.1703   19.9905 C   0  0  0  0  0  0  0  0  0  0  0  0
    7.7465  -13.9252   20.4064 C   0  0  2  0  0  0  0  0  0  0  0  0
    8.0808  -12.8717   19.4605 N   0  0  0  0  0  0  0  0  0  0  0  0
    8.1071  -13.4921   21.7859 C   0  0  0  0  0  0  0  0  0  0  0  0
    9.0680  -12.7000   21.9420 O   0  0  0  0  0  0  0  0  0  0  0  0
    5.8411  -12.2136   27.2591 N   0  0  0  0  0  0  0  0  0  0  0  0
    6.9090  -12.4621   26.3696 C   0  0  0  0  0  0  0  0  0  0  0  0
    8.0708  -12.2683   26.8035 O   0  0  0  0  0  0  0  0  0  0  0  0
    6.5887  -12.9249   25.0137 C   0  0  0  0  0  0  0  0  0  0  0  0
    7.7562  -13.5202   24.2772 C   0  0  2  0  0  0  0  0  0  0  0  0
    7.4235  -13.9266   22.9315 N   0  0  0  0  0  0  0  0  0  0  0  0
    8.3809  -14.6367   25.0480 C   0  0  0  0  0  0  0  0  0  0  0  0
    7.7412  -15.6756   25.3505 O   0  0  0  0  0  0  0  0  0  0  0  0
    9.9628  -15.6276   29.0133 O   0  0  0  0  0  0  0  0  0  0  0  0
    9.4425  -14.9947   27.8876 C   0  0  0  0  0  0  0  0  0  0  0  0
   10.1764  -15.3477   26.6256 C   0  0  2  0  0  0  0  0  0  0  0  0
    9.7432  -14.5826   25.4837 N   0  0  0  0  0  0  0  0  0  0  0  0
    9.9893  -16.8051   26.3932 C   0  0  0  0  0  0  0  0  0  0  0  0
    9.3522  -17.2500   25.3991 O   0  0  0  0  0  0  0  0  0  0  0  0
   10.5219  -17.7105   27.2816 O   0  0  0  0  0  0  0  0  0  0  0  0
  1  2  1  0
  2  3  2  0
  4  2  1  0
  4  5  1  0
  6  8  1  0
  6  5  1  0
  6  7  1  6
  8 15  1  0
  9  8  2  0
 11 10  1  0
 12 11  2  0
 14 13  1  1
 13 11  1  0
 15 14  1  0
 16 21  1  0
 16 14  1  0
 17 16  2  0
 19 18  1  0
 20 19  1  1
 20 21  1  0
 22 24  1  0
 22 20  1  0
 23 22  2  0
M  END
$$$$
