CFM.pdb
     RDKit          3D

 26 26  0  0  1  0  0  0  0  0999 V2000
   28.5668  -20.5303  -15.0267 N   0  0  0  0  0  0  0  0  0  0  0  0
   27.7002  -19.6372  -14.2921 C   0  0  1  0  0  0  0  0  0  0  0  0
   27.0566  -18.6070  -15.2046 C   0  0  0  0  0  0  0  0  0  0  0  0
   28.3032  -17.4120  -15.7506 S   0  0  0  0  0  0  0  0  0  0  0  0
   26.6698  -20.3928  -13.5275 C   0  0  0  0  0  0  0  0  0  0  0  0
   26.2287  -21.4908  -13.9501 O   0  0  0  0  0  0  0  0  0  0  0  0
   26.1460  -19.9101  -12.2995 N   0  0  0  0  0  0  0  0  0  0  0  0
   25.1354  -20.6100  -11.5695 C   0  0  1  0  0  0  0  0  0  0  0  0
   25.1234  -20.2582  -10.0990 C   0  0  0  0  0  0  0  0  0  0  0  0
   26.4267  -20.4195   -9.4491 C   0  0  0  0  0  0  0  0  0  0  0  0
   26.7108  -19.7325   -8.2634 C   0  0  0  0  0  0  0  0  0  0  0  0
   27.9403  -19.8901   -7.6580 C   0  0  0  0  0  0  0  0  0  0  0  0
   28.9260  -20.7074   -8.1715 C   0  0  0  0  0  0  0  0  0  0  0  0
   28.6522  -21.3865   -9.3388 C   0  0  0  0  0  0  0  0  0  0  0  0
   27.4181  -21.2332   -9.9536 C   0  0  0  0  0  0  0  0  0  0  0  0
   23.7917  -20.4955  -12.1756 C   0  0  0  0  0  0  0  0  0  0  0  0
   23.4240  -19.3904  -12.6170 O   0  0  0  0  0  0  0  0  0  0  0  0
   21.0461  -25.5583  -14.7625 C   0  0  0  0  0  0  0  0  0  0  0  0
   19.6900  -24.4167  -15.1543 S   0  0  0  0  0  0  0  0  0  0  0  0
   20.0675  -22.8249  -14.3416 C   0  0  0  0  0  0  0  0  0  0  0  0
   21.3739  -22.8973  -13.5992 C   0  0  0  0  0  0  0  0  0  0  0  0
   21.6618  -21.6212  -12.9169 C   0  0  2  0  0  0  0  0  0  0  0  0
   22.9523  -21.6033  -12.2517 N   0  0  0  0  0  0  0  0  0  0  0  0
   20.5868  -21.1636  -12.0256 C   0  0  0  0  0  0  0  0  0  0  0  0
   20.7892  -21.4014  -10.6423 O   0  0  0  0  0  0  0  0  0  0  0  0
   19.5342  -20.5991  -12.3447 O   0  0  0  0  0  0  0  0  0  0  0  0
  2  1  1  6
  3  4  1  0
  3  2  1  0
  5  2  1  0
  5  6  2  0
  7  5  1  0
  8  7  1  0
  8  9  1  1
 10  9  1  0
 10 11  2  0
 12 11  1  0
 13 12  2  0
 14 15  2  0
 14 13  1  0
 15 10  1  0
 16  8  1  0
 17 16  2  0
 18 19  1  0
 19 20  1  0
 20 21  1  0
 22 21  1  1
 22 24  1  0
 22 23  1  0
 23 16  1  0
 24 25  1  0
 26 24  2  0
M  END
$$$$
