CFM.pdb
     RDKit          3D

 26 26  0  0  1  0  0  0  0  0999 V2000
   27.5019  -22.1094  -17.6212 N   0  0  0  0  0  0  0  0  0  0  0  0
   27.7442  -21.0617  -16.6559 C   0  0  1  0  0  0  0  0  0  0  0  0
   27.4737  -19.6869  -17.2435 C   0  0  0  0  0  0  0  0  0  0  0  0
   27.2947  -19.8163  -19.0412 S   0  0  0  0  0  0  0  0  0  0  0  0
   26.9516  -21.2781  -15.4141 C   0  0  0  0  0  0  0  0  0  0  0  0
   25.8363  -21.8556  -15.4527 O   0  0  0  0  0  0  0  0  0  0  0  0
   27.4170  -20.8456  -14.1446 N   0  0  0  0  0  0  0  0  0  0  0  0
   26.6339  -20.9773  -12.9557 C   0  0  1  0  0  0  0  0  0  0  0  0
   27.4405  -20.7630  -11.6948 C   0  0  0  0  0  0  0  0  0  0  0  0
   26.6172  -20.6296  -10.4902 C   0  0  0  0  0  0  0  0  0  0  0  0
   25.9898  -21.7529   -9.9395 C   0  0  0  0  0  0  0  0  0  0  0  0
   25.2164  -21.6184   -8.8051 C   0  0  0  0  0  0  0  0  0  0  0  0
   25.0248  -20.4081   -8.1714 C   0  0  0  0  0  0  0  0  0  0  0  0
   25.6399  -19.2985   -8.7088 C   0  0  0  0  0  0  0  0  0  0  0  0
   26.4193  -19.4255   -9.8494 C   0  0  0  0  0  0  0  0  0  0  0  0
   25.4050  -20.1554  -12.9714 C   0  0  0  0  0  0  0  0  0  0  0  0
   25.4931  -18.9487  -13.2668 O   0  0  0  0  0  0  0  0  0  0  0  0
   22.4610  -19.7352  -17.3222 C   0  0  0  0  0  0  0  0  0  0  0  0
   21.0908  -18.9320  -16.4429 S   0  0  0  0  0  0  0  0  0  0  0  0
   21.3674  -19.1882  -14.6556 C   0  0  0  0  0  0  0  0  0  0  0  0
   22.6810  -19.8787  -14.4088 C   0  0  0  0  0  0  0  0  0  0  0  0
   22.8847  -20.1208  -12.9678 C   0  0  2  0  0  0  0  0  0  0  0  0
   24.1712  -20.7204  -12.6616 N   0  0  0  0  0  0  0  0  0  0  0  0
   21.7819  -20.8455  -12.3212 C   0  0  0  0  0  0  0  0  0  0  0  0
   20.9247  -20.0640  -11.5054 O   0  0  0  0  0  0  0  0  0  0  0  0
   21.5203  -22.0507  -12.4084 O   0  0  0  0  0  0  0  0  0  0  0  0
  2  1  1  6
  3  4  1  0
  3  2  1  0
  5  2  1  0
  5  6  2  0
  7  5  1  0
  8  7  1  0
  8  9  1  1
 10  9  1  0
 10 11  2  0
 12 11  1  0
 13 12  2  0
 14 15  2  0
 14 13  1  0
 15 10  1  0
 16  8  1  0
 17 16  2  0
 18 19  1  0
 19 20  1  0
 20 21  1  0
 22 21  1  6
 22 24  1  0
 22 23  1  0
 23 16  1  0
 24 25  1  0
 26 24  2  0
M  END
$$$$
