CFM.pdb
     RDKit          3D

 26 26  0  0  1  0  0  0  0  0999 V2000
   28.4132  -13.1798  -19.8859 N   0  0  0  0  0  0  0  0  0  0  0  0
   28.3092  -11.7425  -19.7786 C   0  0  1  0  0  0  0  0  0  0  0  0
   28.3665  -11.0747  -21.1421 C   0  0  0  0  0  0  0  0  0  0  0  0
   30.0392  -11.2180  -21.8218 S   0  0  0  0  0  0  0  0  0  0  0  0
   27.0798  -11.3440  -19.0390 C   0  0  0  0  0  0  0  0  0  0  0  0
   25.9456  -11.7315  -19.4161 O   0  0  0  0  0  0  0  0  0  0  0  0
   27.1351  -10.5169  -17.8865 N   0  0  0  0  0  0  0  0  0  0  0  0
   25.9589  -10.0496  -17.2215 C   0  0  1  0  0  0  0  0  0  0  0  0
   26.1277   -9.9638  -15.7213 C   0  0  0  0  0  0  0  0  0  0  0  0
   24.8954   -9.6052  -15.0144 C   0  0  0  0  0  0  0  0  0  0  0  0
   24.5401   -8.2605  -14.8587 C   0  0  0  0  0  0  0  0  0  0  0  0
   23.3782   -7.9316  -14.1917 C   0  0  0  0  0  0  0  0  0  0  0  0
   22.5297   -8.8796  -13.6586 C   0  0  0  0  0  0  0  0  0  0  0  0
   22.8740  -10.2053  -13.8086 C   0  0  0  0  0  0  0  0  0  0  0  0
   24.0409  -10.5441  -14.4781 C   0  0  0  0  0  0  0  0  0  0  0  0
   25.4267   -8.7928  -17.7900 C   0  0  0  0  0  0  0  0  0  0  0  0
   26.1992   -7.8277  -17.9422 O   0  0  0  0  0  0  0  0  0  0  0  0
   22.2199   -8.0507  -23.0902 C   0  0  0  0  0  0  0  0  0  0  0  0
   21.1898   -6.9421  -22.0873 S   0  0  0  0  0  0  0  0  0  0  0  0
   22.1209   -6.5676  -20.5611 C   0  0  0  0  0  0  0  0  0  0  0  0
   22.6540   -7.8270  -19.9343 C   0  0  0  0  0  0  0  0  0  0  0  0
   23.4759   -7.5167  -18.7490 C   0  0  2  0  0  0  0  0  0  0  0  0
   24.0858   -8.6900  -18.1490 N   0  0  0  0  0  0  0  0  0  0  0  0
   22.7910   -6.6897  -17.7459 C   0  0  0  0  0  0  0  0  0  0  0  0
   23.2032   -5.3344  -17.6782 O   0  0  0  0  0  0  0  0  0  0  0  0
   21.9027   -7.0407  -16.9608 O   0  0  0  0  0  0  0  0  0  0  0  0
  2  1  1  6
  3  4  1  0
  3  2  1  0
  5  2  1  0
  5  6  2  0
  7  5  1  0
  8  7  1  0
  8  9  1  1
 10  9  1  0
 10 11  2  0
 12 11  1  0
 13 12  2  0
 14 15  2  0
 14 13  1  0
 15 10  1  0
 16  8  1  0
 17 16  2  0
 18 19  1  0
 19 20  1  0
 20 21  1  0
 22 21  1  6
 22 24  1  0
 22 23  1  0
 23 16  1  0
 24 25  1  0
 26 24  2  0
M  END
$$$$
