CFM.pdb
     RDKit          3D

 26 26  0  0  1  0  0  0  0  0999 V2000
   25.1501  -24.7591  -18.2884 N   0  0  0  0  0  0  0  0  0  0  0  0
   24.6053  -23.5563  -17.7011 C   0  0  1  0  0  0  0  0  0  0  0  0
   23.0993  -23.6531  -17.5249 C   0  0  0  0  0  0  0  0  0  0  0  0
   22.4032  -21.9956  -17.3048 S   0  0  0  0  0  0  0  0  0  0  0  0
   25.2753  -23.2344  -16.4110 C   0  0  0  0  0  0  0  0  0  0  0  0
   25.4615  -24.1219  -15.5412 O   0  0  0  0  0  0  0  0  0  0  0  0
   25.7287  -21.9231  -16.1102 N   0  0  0  0  0  0  0  0  0  0  0  0
   26.3689  -21.5984  -14.8737 C   0  0  1  0  0  0  0  0  0  0  0  0
   27.4386  -20.5408  -15.0267 C   0  0  0  0  0  0  0  0  0  0  0  0
   28.2231  -20.3228  -13.8085 C   0  0  0  0  0  0  0  0  0  0  0  0
   27.9029  -19.2687  -12.9454 C   0  0  0  0  0  0  0  0  0  0  0  0
   28.6466  -19.0705  -11.8005 C   0  0  0  0  0  0  0  0  0  0  0  0
   29.7127  -19.8747  -11.4544 C   0  0  0  0  0  0  0  0  0  0  0  0
   30.0329  -20.9142  -12.3002 C   0  0  0  0  0  0  0  0  0  0  0  0
   29.2898  -21.1201  -13.4534 C   0  0  0  0  0  0  0  0  0  0  0  0
   25.4168  -21.2683  -13.7919 C   0  0  0  0  0  0  0  0  0  0  0  0
   24.3170  -20.7664  -14.0918 O   0  0  0  0  0  0  0  0  0  0  0  0
   27.1553  -19.5616   -7.7410 C   0  0  0  0  0  0  0  0  0  0  0  0
   25.6916  -20.5644   -7.3568 S   0  0  0  0  0  0  0  0  0  0  0  0
   24.7493  -20.7674   -8.9084 C   0  0  0  0  0  0  0  0  0  0  0  0
   25.6745  -20.9875  -10.0740 C   0  0  0  0  0  0  0  0  0  0  0  0
   24.9116  -21.1619  -11.3247 C   0  0  2  0  0  0  0  0  0  0  0  0
   25.7436  -21.5142  -12.4614 N   0  0  0  0  0  0  0  0  0  0  0  0
   24.0125  -20.0426  -11.6380 C   0  0  0  0  0  0  0  0  0  0  0  0
   22.6738  -20.1832  -11.1916 O   0  0  0  0  0  0  0  0  0  0  0  0
   24.2907  -19.0006  -12.2425 O   0  0  0  0  0  0  0  0  0  0  0  0
  2  1  1  1
  3  4  1  0
  3  2  1  0
  5  2  1  0
  5  6  2  0
  7  5  1  0
  8  7  1  0
  8  9  1  6
 10  9  1  0
 10 11  2  0
 12 11  1  0
 13 12  2  0
 14 15  2  0
 14 13  1  0
 15 10  1  0
 16  8  1  0
 17 16  2  0
 18 19  1  0
 19 20  1  0
 20 21  1  0
 22 21  1  1
 22 24  1  0
 22 23  1  0
 23 16  1  0
 24 25  1  0
 26 24  2  0
M  END
$$$$
