CFM.pdb
     RDKit          3D

 26 26  0  0  1  0  0  0  0  0999 V2000
   19.0790  -20.9118  -12.0000 N   0  0  0  0  0  0  0  0  0  0  0  0
   19.8396  -21.5102  -13.0731 C   0  0  1  0  0  0  0  0  0  0  0  0
   19.0074  -21.6521  -14.3363 C   0  0  0  0  0  0  0  0  0  0  0  0
   18.1985  -23.2725  -14.3551 S   0  0  0  0  0  0  0  0  0  0  0  0
   21.0900  -20.7468  -13.3392 C   0  0  0  0  0  0  0  0  0  0  0  0
   21.0659  -19.4989  -13.4843 O   0  0  0  0  0  0  0  0  0  0  0  0
   22.3519  -21.3894  -13.4395 N   0  0  0  0  0  0  0  0  0  0  0  0
   23.5325  -20.6991  -13.8565 C   0  0  1  0  0  0  0  0  0  0  0  0
   24.7930  -21.2728  -13.2498 C   0  0  0  0  0  0  0  0  0  0  0  0
   26.0159  -20.6053  -13.7035 C   0  0  0  0  0  0  0  0  0  0  0  0
   26.3346  -19.3263  -13.2331 C   0  0  0  0  0  0  0  0  0  0  0  0
   27.4879  -18.7050  -13.6654 C   0  0  0  0  0  0  0  0  0  0  0  0
   28.3627  -19.2913  -14.5565 C   0  0  0  0  0  0  0  0  0  0  0  0
   28.0544  -20.5505  -15.0233 C   0  0  0  0  0  0  0  0  0  0  0  0
   26.8964  -21.1819  -14.5933 C   0  0  0  0  0  0  0  0  0  0  0  0
   23.6400  -20.5598  -15.3245 C   0  0  0  0  0  0  0  0  0  0  0  0
   23.4567  -21.5639  -16.0383 O   0  0  0  0  0  0  0  0  0  0  0  0
   22.4236  -15.0790  -18.2685 C   0  0  0  0  0  0  0  0  0  0  0  0
   23.2359  -15.8570  -19.6935 S   0  0  0  0  0  0  0  0  0  0  0  0
   23.6597  -17.5669  -19.2108 C   0  0  0  0  0  0  0  0  0  0  0  0
   23.7167  -17.7042  -17.7138 C   0  0  0  0  0  0  0  0  0  0  0  0
   24.0595  -19.0856  -17.3255 C   0  0  2  0  0  0  0  0  0  0  0  0
   23.9410  -19.3282  -15.8988 N   0  0  0  0  0  0  0  0  0  0  0  0
   25.3516  -19.5508  -17.8484 C   0  0  0  0  0  0  0  0  0  0  0  0
   26.4839  -18.7901  -17.4606 O   0  0  0  0  0  0  0  0  0  0  0  0
   25.5599  -20.5234  -18.5827 O   0  0  0  0  0  0  0  0  0  0  0  0
  2  1  1  1
  3  4  1  0
  3  2  1  0
  5  2  1  0
  5  6  2  0
  7  5  1  0
  8  7  1  0
  8  9  1  6
 10  9  1  0
 10 11  2  0
 12 11  1  0
 13 12  2  0
 14 15  2  0
 14 13  1  0
 15 10  1  0
 16  8  1  0
 17 16  2  0
 18 19  1  0
 19 20  1  0
 20 21  1  0
 22 21  1  1
 22 24  1  0
 22 23  1  0
 23 16  1  0
 24 25  1  0
 26 24  2  0
M  END
$$$$
