CFM.pdb
     RDKit          3D

 26 26  0  0  1  0  0  0  0  0999 V2000
   26.0011  -22.1414  -15.0474 N   0  0  0  0  0  0  0  0  0  0  0  0
   25.0935  -21.4707  -14.1448 C   0  0  1  0  0  0  0  0  0  0  0  0
   23.6655  -21.9577  -14.3241 C   0  0  0  0  0  0  0  0  0  0  0  0
   23.2299  -21.9365  -16.0820 S   0  0  0  0  0  0  0  0  0  0  0  0
   25.5344  -21.6154  -12.7300 C   0  0  0  0  0  0  0  0  0  0  0  0
   25.8854  -22.7326  -12.2743 O   0  0  0  0  0  0  0  0  0  0  0  0
   25.5770  -20.5080  -11.8426 N   0  0  0  0  0  0  0  0  0  0  0  0
   26.0718  -20.6159  -10.5056 C   0  0  1  0  0  0  0  0  0  0  0  0
   26.9920  -19.4775  -10.1266 C   0  0  0  0  0  0  0  0  0  0  0  0
   27.5504  -19.6021   -8.7777 C   0  0  0  0  0  0  0  0  0  0  0  0
   27.0268  -18.8401   -7.7270 C   0  0  0  0  0  0  0  0  0  0  0  0
   27.5585  -18.9635   -6.4600 C   0  0  0  0  0  0  0  0  0  0  0  0
   28.6020  -19.8172   -6.1682 C   0  0  0  0  0  0  0  0  0  0  0  0
   29.1218  -20.5701   -7.1985 C   0  0  0  0  0  0  0  0  0  0  0  0
   28.5926  -20.4517   -8.4755 C   0  0  0  0  0  0  0  0  0  0  0  0
   25.0051  -20.8211   -9.5027 C   0  0  0  0  0  0  0  0  0  0  0  0
   23.9153  -20.2379   -9.6568 O   0  0  0  0  0  0  0  0  0  0  0  0
   25.4982  -20.5408   -2.9690 C   0  0  0  0  0  0  0  0  0  0  0  0
   24.7360  -22.1626   -3.2599 S   0  0  0  0  0  0  0  0  0  0  0  0
   23.9248  -22.0966   -4.8952 C   0  0  0  0  0  0  0  0  0  0  0  0
   24.9295  -21.8311   -5.9830 C   0  0  0  0  0  0  0  0  0  0  0  0
   24.2804  -21.8267   -7.3079 C   0  0  2  0  0  0  0  0  0  0  0  0
   25.2148  -21.6514   -8.4054 N   0  0  0  0  0  0  0  0  0  0  0  0
   23.1420  -20.9034   -7.4133 C   0  0  0  0  0  0  0  0  0  0  0  0
   21.8573  -21.4923   -7.2961 O   0  0  0  0  0  0  0  0  0  0  0  0
   23.1792  -19.6805   -7.5913 O   0  0  0  0  0  0  0  0  0  0  0  0
  2  1  1  6
  3  4  1  0
  3  2  1  0
  5  2  1  0
  5  6  2  0
  7  5  1  0
  8  7  1  0
  8  9  1  1
 10  9  1  0
 10 11  2  0
 12 11  1  0
 13 12  2  0
 14 15  2  0
 14 13  1  0
 15 10  1  0
 16  8  1  0
 17 16  2  0
 18 19  1  0
 19 20  1  0
 20 21  1  0
 22 21  1  1
 22 24  1  0
 22 23  1  0
 23 16  1  0
 24 25  1  0
 26 24  2  0
M  END
$$$$
