CFM.pdb
     RDKit          3D

 26 26  0  0  1  0  0  0  0  0999 V2000
   27.0227  -22.0480  -13.8174 N   0  0  0  0  0  0  0  0  0  0  0  0
   27.5954  -21.0310  -12.9654 C   0  0  1  0  0  0  0  0  0  0  0  0
   27.1253  -19.6413  -13.3605 C   0  0  0  0  0  0  0  0  0  0  0  0
   27.3992  -19.3854  -15.1325 S   0  0  0  0  0  0  0  0  0  0  0  0
   27.3084  -21.3049  -11.5302 C   0  0  0  0  0  0  0  0  0  0  0  0
   26.3015  -21.9750  -11.1898 O   0  0  0  0  0  0  0  0  0  0  0  0
   28.1519  -20.8254  -10.4938 N   0  0  0  0  0  0  0  0  0  0  0  0
   27.7401  -20.7901   -9.1252 C   0  0  1  0  0  0  0  0  0  0  0  0
   28.8173  -20.2682   -8.2014 C   0  0  0  0  0  0  0  0  0  0  0  0
   28.3699  -20.1049   -6.8157 C   0  0  0  0  0  0  0  0  0  0  0  0
   27.7072  -18.9362   -6.4240 C   0  0  0  0  0  0  0  0  0  0  0  0
   27.2893  -18.7906   -5.1174 C   0  0  0  0  0  0  0  0  0  0  0  0
   27.4950  -19.7580   -4.1557 C   0  0  0  0  0  0  0  0  0  0  0  0
   28.1469  -20.9110   -4.5352 C   0  0  0  0  0  0  0  0  0  0  0  0
   28.5703  -21.0649   -5.8473 C   0  0  0  0  0  0  0  0  0  0  0  0
   26.4520  -20.0938   -8.9204 C   0  0  0  0  0  0  0  0  0  0  0  0
   26.3487  -18.9046   -9.2762 O   0  0  0  0  0  0  0  0  0  0  0  0
   22.6941  -21.3104  -12.7663 C   0  0  0  0  0  0  0  0  0  0  0  0
   21.7093  -20.0229  -11.9488 S   0  0  0  0  0  0  0  0  0  0  0  0
   22.1685  -20.0279  -10.1808 C   0  0  0  0  0  0  0  0  0  0  0  0
   23.6174  -20.3915  -10.0031 C   0  0  0  0  0  0  0  0  0  0  0  0
   23.9781  -20.4289   -8.5730 C   0  0  2  0  0  0  0  0  0  0  0  0
   25.3736  -20.7556   -8.3403 N   0  0  0  0  0  0  0  0  0  0  0  0
   23.0839  -21.2571   -7.7520 C   0  0  0  0  0  0  0  0  0  0  0  0
   23.7218  -22.1702   -6.8743 O   0  0  0  0  0  0  0  0  0  0  0  0
   21.8477  -21.2467   -7.7414 O   0  0  0  0  0  0  0  0  0  0  0  0
  2  1  1  6
  3  4  1  0
  3  2  1  0
  5  2  1  0
  5  6  2  0
  7  5  1  0
  8  7  1  0
  8  9  1  1
 10  9  1  0
 10 11  2  0
 12 11  1  0
 13 12  2  0
 14 15  2  0
 14 13  1  0
 15 10  1  0
 16  8  1  0
 17 16  2  0
 18 19  1  0
 19 20  1  0
 20 21  1  0
 22 21  1  6
 22 24  1  0
 22 23  1  0
 23 16  1  0
 24 25  1  0
 26 24  2  0
M  END
$$$$
