CFM.pdb
     RDKit          3D

 26 26  0  0  1  0  0  0  0  0999 V2000
   27.8801  -22.2913  -18.1855 N   0  0  0  0  0  0  0  0  0  0  0  0
   27.7121  -21.1155  -17.3623 C   0  0  1  0  0  0  0  0  0  0  0  0
   26.9514  -20.0239  -18.0957 C   0  0  0  0  0  0  0  0  0  0  0  0
   28.1190  -18.9407  -18.9582 S   0  0  0  0  0  0  0  0  0  0  0  0
   27.0530  -21.4512  -16.0700 C   0  0  0  0  0  0  0  0  0  0  0  0
   26.1782  -22.3510  -16.0063 O   0  0  0  0  0  0  0  0  0  0  0  0
   27.3810  -20.7759  -14.8652 N   0  0  0  0  0  0  0  0  0  0  0  0
   26.6038  -20.9140  -13.6731 C   0  0  1  0  0  0  0  0  0  0  0  0
   27.2687  -20.2958  -12.4640 C   0  0  0  0  0  0  0  0  0  0  0  0
   26.4740  -20.4095  -11.2383 C   0  0  0  0  0  0  0  0  0  0  0  0
   26.3979  -21.6316  -10.5606 C   0  0  0  0  0  0  0  0  0  0  0  0
   25.6475  -21.7300   -9.4073 C   0  0  0  0  0  0  0  0  0  0  0  0
   24.9529  -20.6634   -8.8754 C   0  0  0  0  0  0  0  0  0  0  0  0
   25.0238  -19.4574   -9.5380 C   0  0  0  0  0  0  0  0  0  0  0  0
   25.7764  -19.3504  -10.6985 C   0  0  0  0  0  0  0  0  0  0  0  0
   25.2070  -20.4556  -13.8300 C   0  0  0  0  0  0  0  0  0  0  0  0
   24.9962  -19.3171  -14.2890 O   0  0  0  0  0  0  0  0  0  0  0  0
   21.2315  -23.3618  -17.0937 C   0  0  0  0  0  0  0  0  0  0  0  0
   19.8997  -22.5136  -16.1978 S   0  0  0  0  0  0  0  0  0  0  0  0
   20.6849  -21.4366  -14.9489 C   0  0  0  0  0  0  0  0  0  0  0  0
   22.1148  -21.8406  -14.7137 C   0  0  0  0  0  0  0  0  0  0  0  0
   22.7444  -20.9767  -13.6968 C   0  0  2  0  0  0  0  0  0  0  0  0
   24.1459  -21.2819  -13.4710 N   0  0  0  0  0  0  0  0  0  0  0  0
   21.9972  -20.8971  -12.4339 C   0  0  0  0  0  0  0  0  0  0  0  0
   22.2882  -21.9056  -11.4804 O   0  0  0  0  0  0  0  0  0  0  0  0
   21.1502  -20.0557  -12.1128 O   0  0  0  0  0  0  0  0  0  0  0  0
  2  1  1  6
  3  4  1  0
  3  2  1  0
  5  2  1  0
  5  6  2  0
  7  5  1  0
  8  7  1  0
  8  9  1  1
 10  9  1  0
 10 11  2  0
 12 11  1  0
 13 12  2  0
 14 15  2  0
 14 13  1  0
 15 10  1  0
 16  8  1  0
 17 16  2  0
 18 19  1  0
 19 20  1  0
 20 21  1  0
 22 21  1  6
 22 24  1  0
 22 23  1  0
 23 16  1  0
 24 25  1  0
 26 24  2  0
M  END
$$$$
