CFM.pdb
     RDKit          3D

 26 26  0  0  1  0  0  0  0  0999 V2000
   28.1024  -25.3814  -17.1866 N   0  0  0  0  0  0  0  0  0  0  0  0
   27.3876  -24.1428  -17.3942 C   0  0  1  0  0  0  0  0  0  0  0  0
   26.4822  -24.2175  -18.6120 C   0  0  0  0  0  0  0  0  0  0  0  0
   27.4612  -24.6436  -20.0750 S   0  0  0  0  0  0  0  0  0  0  0  0
   26.6196  -23.7529  -16.1796 C   0  0  0  0  0  0  0  0  0  0  0  0
   25.8100  -24.5507  -15.6442 O   0  0  0  0  0  0  0  0  0  0  0  0
   26.7672  -22.4749  -15.5794 N   0  0  0  0  0  0  0  0  0  0  0  0
   26.0666  -22.1010  -14.3906 C   0  0  1  0  0  0  0  0  0  0  0  0
   26.8262  -21.0974  -13.5527 C   0  0  0  0  0  0  0  0  0  0  0  0
   26.2028  -20.8296  -12.2540 C   0  0  0  0  0  0  0  0  0  0  0  0
   25.2935  -19.7749  -12.1148 C   0  0  0  0  0  0  0  0  0  0  0  0
   24.7111  -19.5297  -10.8885 C   0  0  0  0  0  0  0  0  0  0  0  0
   24.9842  -20.2863   -9.7678 C   0  0  0  0  0  0  0  0  0  0  0  0
   25.8787  -21.3262   -9.8985 C   0  0  0  0  0  0  0  0  0  0  0  0
   26.4686  -21.5792  -11.1284 C   0  0  0  0  0  0  0  0  0  0  0  0
   24.6756  -21.6688  -14.6437 C   0  0  0  0  0  0  0  0  0  0  0  0
   24.4695  -20.7628  -15.4732 O   0  0  0  0  0  0  0  0  0  0  0  0
   19.2569  -23.5040  -11.0246 C   0  0  0  0  0  0  0  0  0  0  0  0
   18.7277  -23.5223  -12.7611 S   0  0  0  0  0  0  0  0  0  0  0  0
   19.8675  -22.4369  -13.6881 C   0  0  0  0  0  0  0  0  0  0  0  0
   21.2993  -22.7363  -13.3367 C   0  0  0  0  0  0  0  0  0  0  0  0
   22.2202  -21.8888  -14.1181 C   0  0  2  0  0  0  0  0  0  0  0  0
   23.6148  -22.2639  -13.9668 N   0  0  0  0  0  0  0  0  0  0  0  0
   22.0224  -20.4467  -13.9167 C   0  0  0  0  0  0  0  0  0  0  0  0
   21.2966  -19.7757  -14.9335 O   0  0  0  0  0  0  0  0  0  0  0  0
   22.4150  -19.7589  -12.9673 O   0  0  0  0  0  0  0  0  0  0  0  0
  2  1  1  1
  3  4  1  0
  3  2  1  0
  5  2  1  0
  5  6  2  0
  7  5  1  0
  8  7  1  0
  8  9  1  6
 10  9  1  0
 10 11  2  0
 12 11  1  0
 13 12  2  0
 14 15  2  0
 14 13  1  0
 15 10  1  0
 16  8  1  0
 17 16  2  0
 18 19  1  0
 19 20  1  0
 20 21  1  0
 22 21  1  1
 22 24  1  0
 22 23  1  0
 23 16  1  0
 24 25  1  0
 26 24  2  0
M  END
$$$$
