CFM.pdb
     RDKit          3D

 26 26  0  0  1  0  0  0  0  0999 V2000
   28.5414  -20.6011  -17.4107 N   0  0  0  0  0  0  0  0  0  0  0  0
   28.0689  -19.6075  -16.4739 C   0  0  1  0  0  0  0  0  0  0  0  0
   27.4293  -18.4275  -17.1860 C   0  0  0  0  0  0  0  0  0  0  0  0
   25.7961  -18.9027  -17.8081 S   0  0  0  0  0  0  0  0  0  0  0  0
   27.1337  -20.2038  -15.4806 C   0  0  0  0  0  0  0  0  0  0  0  0
   26.5708  -21.3048  -15.7040 O   0  0  0  0  0  0  0  0  0  0  0  0
   26.8400  -19.5607  -14.2495 N   0  0  0  0  0  0  0  0  0  0  0  0
   25.9691  -20.1365  -13.2727 C   0  0  1  0  0  0  0  0  0  0  0  0
   26.4137  -19.8601  -11.8542 C   0  0  0  0  0  0  0  0  0  0  0  0
   27.7287  -20.4215  -11.5343 C   0  0  0  0  0  0  0  0  0  0  0  0
   28.8593  -20.0180  -12.2537 C   0  0  0  0  0  0  0  0  0  0  0  0
   30.0937  -20.5515  -11.9460 C   0  0  0  0  0  0  0  0  0  0  0  0
   30.2759  -21.4823  -10.9443 C   0  0  0  0  0  0  0  0  0  0  0  0
   29.1665  -21.8837  -10.2324 C   0  0  0  0  0  0  0  0  0  0  0  0
   27.9217  -21.3517  -10.5358 C   0  0  0  0  0  0  0  0  0  0  0  0
   24.5467  -19.7920  -13.4826 C   0  0  0  0  0  0  0  0  0  0  0  0
   24.2641  -18.6912  -13.9924 O   0  0  0  0  0  0  0  0  0  0  0  0
   21.4838  -20.3498  -17.7216 C   0  0  0  0  0  0  0  0  0  0  0  0
   19.9324  -20.6727  -16.8357 S   0  0  0  0  0  0  0  0  0  0  0  0
   20.3073  -20.6271  -15.0485 C   0  0  0  0  0  0  0  0  0  0  0  0
   21.7755  -20.8434  -14.8019 C   0  0  0  0  0  0  0  0  0  0  0  0
   22.1300  -20.5047  -13.4104 C   0  0  2  0  0  0  0  0  0  0  0  0
   23.5410  -20.6821  -13.1170 N   0  0  0  0  0  0  0  0  0  0  0  0
   21.2813  -21.1542  -12.4018 C   0  0  0  0  0  0  0  0  0  0  0  0
   21.8417  -22.2894  -11.7627 O   0  0  0  0  0  0  0  0  0  0  0  0
   20.1427  -20.8240  -12.0512 O   0  0  0  0  0  0  0  0  0  0  0  0
  2  1  1  6
  3  4  1  0
  3  2  1  0
  5  2  1  0
  5  6  2  0
  7  5  1  0
  8  7  1  0
  8  9  1  1
 10  9  1  0
 10 11  2  0
 12 11  1  0
 13 12  2  0
 14 15  2  0
 14 13  1  0
 15 10  1  0
 16  8  1  0
 17 16  2  0
 18 19  1  0
 19 20  1  0
 20 21  1  0
 22 21  1  6
 22 24  1  0
 22 23  1  0
 23 16  1  0
 24 25  1  0
 26 24  2  0
M  END
$$$$
