CFM.pdb
     RDKit          3D

 26 26  0  0  1  0  0  0  0  0999 V2000
   28.3727  -22.5230  -17.6155 N   0  0  0  0  0  0  0  0  0  0  0  0
   27.7670  -21.2935  -17.1576 C   0  0  1  0  0  0  0  0  0  0  0  0
   26.8634  -20.6870  -18.2177 C   0  0  0  0  0  0  0  0  0  0  0  0
   26.2261  -19.0940  -17.6374 S   0  0  0  0  0  0  0  0  0  0  0  0
   27.0303  -21.4980  -15.8799 C   0  0  0  0  0  0  0  0  0  0  0  0
   26.2130  -22.4435  -15.7503 O   0  0  0  0  0  0  0  0  0  0  0  0
   27.2174  -20.6418  -14.7630 N   0  0  0  0  0  0  0  0  0  0  0  0
   26.4681  -20.7847  -13.5538 C   0  0  1  0  0  0  0  0  0  0  0  0
   27.1468  -20.1448  -12.3637 C   0  0  0  0  0  0  0  0  0  0  0  0
   26.4016  -20.3019  -11.1120 C   0  0  0  0  0  0  0  0  0  0  0  0
   26.5953  -21.4368  -10.3162 C   0  0  0  0  0  0  0  0  0  0  0  0
   25.8895  -21.5768   -9.1392 C   0  0  0  0  0  0  0  0  0  0  0  0
   24.9831  -20.6361   -8.6959 C   0  0  0  0  0  0  0  0  0  0  0  0
   24.7880  -19.5166   -9.4750 C   0  0  0  0  0  0  0  0  0  0  0  0
   25.4939  -19.3684  -10.6600 C   0  0  0  0  0  0  0  0  0  0  0  0
   25.0601  -20.3531  -13.6845 C   0  0  0  0  0  0  0  0  0  0  0  0
   24.8188  -19.2230  -14.1492 O   0  0  0  0  0  0  0  0  0  0  0  0
   20.8467  -22.6259  -17.0334 C   0  0  0  0  0  0  0  0  0  0  0  0
   19.5893  -22.0113  -15.8771 S   0  0  0  0  0  0  0  0  0  0  0  0
   20.4664  -21.1339  -14.5363 C   0  0  0  0  0  0  0  0  0  0  0  0
   21.9144  -21.5389  -14.4867 C   0  0  0  0  0  0  0  0  0  0  0  0
   22.6111  -20.8630  -13.3755 C   0  0  2  0  0  0  0  0  0  0  0  0
   24.0223  -21.1950  -13.2950 N   0  0  0  0  0  0  0  0  0  0  0  0
   21.9450  -21.0105  -12.0739 C   0  0  0  0  0  0  0  0  0  0  0  0
   20.7817  -20.2220  -11.8836 O   0  0  0  0  0  0  0  0  0  0  0  0
   22.2830  -21.7392  -11.1341 O   0  0  0  0  0  0  0  0  0  0  0  0
  2  1  1  6
  3  4  1  0
  3  2  1  0
  5  2  1  0
  5  6  2  0
  7  5  1  0
  8  7  1  0
  8  9  1  1
 10  9  1  0
 10 11  2  0
 12 11  1  0
 13 12  2  0
 14 15  2  0
 14 13  1  0
 15 10  1  0
 16  8  1  0
 17 16  2  0
 18 19  1  0
 19 20  1  0
 20 21  1  0
 22 21  1  6
 22 24  1  0
 22 23  1  0
 23 16  1  0
 24 25  1  0
 26 24  2  0
M  END
$$$$
