CFM.pdb
     RDKit          3D

 26 26  0  0  1  0  0  0  0  0999 V2000
   19.0914   -7.9652  -18.2907 N   0  0  0  0  0  0  0  0  0  0  0  0
   19.2622   -6.7922  -17.4643 C   0  0  1  0  0  0  0  0  0  0  0  0
   18.1629   -5.7721  -17.7078 C   0  0  0  0  0  0  0  0  0  0  0  0
   18.3497   -5.0570  -19.3614 S   0  0  0  0  0  0  0  0  0  0  0  0
   19.3453   -7.1553  -16.0226 C   0  0  0  0  0  0  0  0  0  0  0  0
   18.5208   -7.9524  -15.5092 O   0  0  0  0  0  0  0  0  0  0  0  0
   20.3501   -6.6218  -15.1734 N   0  0  0  0  0  0  0  0  0  0  0  0
   20.4299   -6.9457  -13.7831 C   0  0  1  0  0  0  0  0  0  0  0  0
   21.8214   -7.3536  -13.3545 C   0  0  0  0  0  0  0  0  0  0  0  0
   22.2966   -8.5788  -14.0024 C   0  0  0  0  0  0  0  0  0  0  0  0
   22.0962   -9.8211  -13.3899 C   0  0  0  0  0  0  0  0  0  0  0  0
   22.5468  -10.9698  -14.0067 C   0  0  0  0  0  0  0  0  0  0  0  0
   23.1989  -10.9577  -15.2223 C   0  0  0  0  0  0  0  0  0  0  0  0
   23.3993   -9.7376  -15.8304 C   0  0  0  0  0  0  0  0  0  0  0  0
   22.9490   -8.5779  -15.2164 C   0  0  0  0  0  0  0  0  0  0  0  0
   19.8669   -5.8973  -12.9058 C   0  0  0  0  0  0  0  0  0  0  0  0
   20.2985   -4.7333  -13.0072 O   0  0  0  0  0  0  0  0  0  0  0  0
   14.5074   -1.3395  -10.6640 C   0  0  0  0  0  0  0  0  0  0  0  0
   15.0772   -2.6666  -11.7639 S   0  0  0  0  0  0  0  0  0  0  0  0
   16.4687   -3.5048  -10.9288 C   0  0  0  0  0  0  0  0  0  0  0  0
   17.0638   -4.5675  -11.8118 C   0  0  0  0  0  0  0  0  0  0  0  0
   18.1940   -5.2367  -11.1399 C   0  0  2  0  0  0  0  0  0  0  0  0
   18.8719   -6.2056  -11.9825 N   0  0  0  0  0  0  0  0  0  0  0  0
   17.8586   -5.8027   -9.8258 C   0  0  0  0  0  0  0  0  0  0  0  0
   17.3270   -4.8907   -8.8789 O   0  0  0  0  0  0  0  0  0  0  0  0
   17.9872   -6.9757   -9.4569 O   0  0  0  0  0  0  0  0  0  0  0  0
  2  1  1  6
  3  4  1  0
  3  2  1  0
  5  2  1  0
  5  6  2  0
  7  5  1  0
  8  7  1  0
  8  9  1  1
 10  9  1  0
 10 11  2  0
 12 11  1  0
 13 12  2  0
 14 15  2  0
 14 13  1  0
 15 10  1  0
 16  8  1  0
 17 16  2  0
 18 19  1  0
 19 20  1  0
 20 21  1  0
 22 21  1  6
 22 24  1  0
 22 23  1  0
 23 16  1  0
 24 25  1  0
 26 24  2  0
M  END
$$$$
