CFM.pdb
     RDKit          3D

 26 26  0  0  1  0  0  0  0  0999 V2000
   28.5509  -20.2725  -12.3976 N   0  0  0  0  0  0  0  0  0  0  0  0
   27.2358  -20.8347  -12.1911 C   0  0  1  0  0  0  0  0  0  0  0  0
   26.8661  -20.8652  -10.7177 C   0  0  0  0  0  0  0  0  0  0  0  0
   28.1150  -21.7969   -9.7945 S   0  0  0  0  0  0  0  0  0  0  0  0
   26.2074  -20.1081  -12.9858 C   0  0  0  0  0  0  0  0  0  0  0  0
   25.9676  -18.8930  -12.7739 O   0  0  0  0  0  0  0  0  0  0  0  0
   25.4602  -20.7504  -14.0078 N   0  0  0  0  0  0  0  0  0  0  0  0
   24.5236  -20.0484  -14.8288 C   0  0  1  0  0  0  0  0  0  0  0  0
   24.9758  -19.9314  -16.2669 C   0  0  0  0  0  0  0  0  0  0  0  0
   26.1404  -19.0601  -16.4440 C   0  0  0  0  0  0  0  0  0  0  0  0
   27.4291  -19.6055  -16.4689 C   0  0  0  0  0  0  0  0  0  0  0  0
   28.5201  -18.7781  -16.6362 C   0  0  0  0  0  0  0  0  0  0  0  0
   28.4049  -17.4113  -16.7833 C   0  0  0  0  0  0  0  0  0  0  0  0
   27.1387  -16.8683  -16.7596 C   0  0  0  0  0  0  0  0  0  0  0  0
   26.0364  -17.6938  -16.5918 C   0  0  0  0  0  0  0  0  0  0  0  0
   23.1458  -20.5744  -14.7243 C   0  0  0  0  0  0  0  0  0  0  0  0
   22.9568  -21.7968  -14.8702 O   0  0  0  0  0  0  0  0  0  0  0  0
   20.0629  -19.6916   -9.7630 C   0  0  0  0  0  0  0  0  0  0  0  0
   18.5068  -19.7634  -10.6953 S   0  0  0  0  0  0  0  0  0  0  0  0
   18.9324  -20.1094  -12.4376 C   0  0  0  0  0  0  0  0  0  0  0  0
   20.3703  -19.7671  -12.7175 C   0  0  0  0  0  0  0  0  0  0  0  0
   20.7430  -20.1483  -14.0932 C   0  0  2  0  0  0  0  0  0  0  0  0
   22.0785  -19.7186  -14.4672 N   0  0  0  0  0  0  0  0  0  0  0  0
   19.7490  -19.7722  -15.1082 C   0  0  0  0  0  0  0  0  0  0  0  0
   20.0309  -18.5901  -15.8392 O   0  0  0  0  0  0  0  0  0  0  0  0
   18.7031  -20.3665  -15.3934 O   0  0  0  0  0  0  0  0  0  0  0  0
  2  1  1  1
  3  4  1  0
  3  2  1  0
  5  2  1  0
  5  6  2  0
  7  5  1  0
  8  7  1  0
  8  9  1  6
 10  9  1  0
 10 11  2  0
 12 11  1  0
 13 12  2  0
 14 15  2  0
 14 13  1  0
 15 10  1  0
 16  8  1  0
 17 16  2  0
 18 19  1  0
 19 20  1  0
 20 21  1  0
 22 21  1  1
 22 24  1  0
 22 23  1  0
 23 16  1  0
 24 25  1  0
 26 24  2  0
M  END
$$$$
