CFM.pdb
     RDKit          3D

 26 26  0  0  1  0  0  0  0  0999 V2000
   20.9642  -26.4897  -12.8053 N   0  0  0  0  0  0  0  0  0  0  0  0
   19.5962  -26.1680  -12.4689 C   0  0  1  0  0  0  0  0  0  0  0  0
   18.6797  -27.3662  -12.6495 C   0  0  0  0  0  0  0  0  0  0  0  0
   19.4683  -28.8461  -11.9651 S   0  0  0  0  0  0  0  0  0  0  0  0
   19.4946  -25.6201  -11.0881 C   0  0  0  0  0  0  0  0  0  0  0  0
   20.1616  -26.1164  -10.1460 O   0  0  0  0  0  0  0  0  0  0  0  0
   18.6477  -24.5235  -10.7787 N   0  0  0  0  0  0  0  0  0  0  0  0
   18.6254  -23.9132   -9.4860 C   0  0  1  0  0  0  0  0  0  0  0  0
   18.2905  -22.4396   -9.5383 C   0  0  0  0  0  0  0  0  0  0  0  0
   19.4360  -21.5918   -9.8787 C   0  0  0  0  0  0  0  0  0  0  0  0
   19.7904  -21.3935  -11.2181 C   0  0  0  0  0  0  0  0  0  0  0  0
   20.8704  -20.5938  -11.5298 C   0  0  0  0  0  0  0  0  0  0  0  0
   21.6360  -19.9656  -10.5695 C   0  0  0  0  0  0  0  0  0  0  0  0
   21.2920  -20.1570   -9.2490 C   0  0  0  0  0  0  0  0  0  0  0  0
   20.2073  -20.9598   -8.9274 C   0  0  0  0  0  0  0  0  0  0  0  0
   17.7805  -24.6373   -8.5126 C   0  0  0  0  0  0  0  0  0  0  0  0
   16.6912  -25.1056   -8.8939 O   0  0  0  0  0  0  0  0  0  0  0  0
   17.2755  -27.8821   -1.3510 C   0  0  0  0  0  0  0  0  0  0  0  0
   18.3969  -27.0872   -2.5368 S   0  0  0  0  0  0  0  0  0  0  0  0
   17.3783  -26.4841   -3.9280 C   0  0  0  0  0  0  0  0  0  0  0  0
   18.2383  -25.8574   -4.9914 C   0  0  0  0  0  0  0  0  0  0  0  0
   17.4253  -25.4548   -6.1548 C   0  0  2  0  0  0  0  0  0  0  0  0
   18.1951  -24.7930   -7.1930 N   0  0  0  0  0  0  0  0  0  0  0  0
   16.2185  -24.6921   -5.8062 C   0  0  0  0  0  0  0  0  0  0  0  0
   16.3976  -23.2948   -5.6430 O   0  0  0  0  0  0  0  0  0  0  0  0
   15.0740  -25.1293   -5.6405 O   0  0  0  0  0  0  0  0  0  0  0  0
  2  1  1  1
  3  4  1  0
  3  2  1  0
  5  2  1  0
  5  6  2  0
  7  5  1  0
  8  7  1  0
  8  9  1  6
 10  9  1  0
 10 11  2  0
 12 11  1  0
 13 12  2  0
 14 15  2  0
 14 13  1  0
 15 10  1  0
 16  8  1  0
 17 16  2  0
 18 19  1  0
 19 20  1  0
 20 21  1  0
 22 21  1  1
 22 24  1  0
 22 23  1  0
 23 16  1  0
 24 25  1  0
 26 24  2  0
M  END
$$$$
