CFM.pdb
     RDKit          3D

 26 26  0  0  1  0  0  0  0  0999 V2000
   28.0720  -22.4055  -16.0486 N   0  0  0  0  0  0  0  0  0  0  0  0
   27.2164  -21.2594  -15.8422 C   0  0  1  0  0  0  0  0  0  0  0  0
   26.5527  -20.8173  -17.1354 C   0  0  0  0  0  0  0  0  0  0  0  0
   27.7336  -19.8777  -18.1370 S   0  0  0  0  0  0  0  0  0  0  0  0
   26.2027  -21.5261  -14.7846 C   0  0  0  0  0  0  0  0  0  0  0  0
   25.7524  -22.6845  -14.5997 O   0  0  0  0  0  0  0  0  0  0  0  0
   25.7056  -20.4932  -13.9472 N   0  0  0  0  0  0  0  0  0  0  0  0
   24.7579  -20.7404  -12.9056 C   0  0  1  0  0  0  0  0  0  0  0  0
   24.9728  -19.8598  -11.6954 C   0  0  0  0  0  0  0  0  0  0  0  0
   26.0453  -20.3292  -10.8143 C   0  0  0  0  0  0  0  0  0  0  0  0
   27.2989  -20.6547  -11.3446 C   0  0  0  0  0  0  0  0  0  0  0  0
   28.3032  -21.0959  -10.5080 C   0  0  0  0  0  0  0  0  0  0  0  0
   28.1326  -21.2362   -9.1464 C   0  0  0  0  0  0  0  0  0  0  0  0
   26.9006  -20.9173   -8.6182 C   0  0  0  0  0  0  0  0  0  0  0  0
   25.8855  -20.4729   -9.4530 C   0  0  0  0  0  0  0  0  0  0  0  0
   23.3553  -20.7057  -13.3717 C   0  0  0  0  0  0  0  0  0  0  0  0
   22.9539  -19.7049  -13.9951 O   0  0  0  0  0  0  0  0  0  0  0  0
   16.6756  -24.7603  -14.4007 C   0  0  0  0  0  0  0  0  0  0  0  0
   18.3241  -24.8189  -13.6427 S   0  0  0  0  0  0  0  0  0  0  0  0
   19.0872  -23.1754  -13.8736 C   0  0  0  0  0  0  0  0  0  0  0  0
   20.4933  -23.1561  -13.3392 C   0  0  0  0  0  0  0  0  0  0  0  0
   21.0979  -21.8198  -13.4991 C   0  0  2  0  0  0  0  0  0  0  0  0
   22.4982  -21.7728  -13.1182 N   0  0  0  0  0  0  0  0  0  0  0  0
   20.3291  -20.7364  -12.8708 C   0  0  0  0  0  0  0  0  0  0  0  0
   20.5934  -20.5095  -11.4961 O   0  0  0  0  0  0  0  0  0  0  0  0
   19.4847  -20.0067  -13.4028 O   0  0  0  0  0  0  0  0  0  0  0  0
  2  1  1  6
  3  4  1  0
  3  2  1  0
  5  2  1  0
  5  6  2  0
  7  5  1  0
  8  7  1  0
  8  9  1  1
 10  9  1  0
 10 11  2  0
 12 11  1  0
 13 12  2  0
 14 15  2  0
 14 13  1  0
 15 10  1  0
 16  8  1  0
 17 16  2  0
 18 19  1  0
 19 20  1  0
 20 21  1  0
 22 21  1  1
 22 24  1  0
 22 23  1  0
 23 16  1  0
 24 25  1  0
 26 24  2  0
M  END
$$$$
