CFM.pdb
     RDKit          3D

 26 26  0  0  1  0  0  0  0  0999 V2000
   28.6334  -21.8447  -14.0812 N   0  0  0  0  0  0  0  0  0  0  0  0
   28.9460  -20.7890  -13.1453 C   0  0  1  0  0  0  0  0  0  0  0  0
   28.4030  -19.4492  -13.6124 C   0  0  0  0  0  0  0  0  0  0  0  0
   28.0245  -19.5277  -15.3819 S   0  0  0  0  0  0  0  0  0  0  0  0
   28.4563  -21.1175  -11.7780 C   0  0  0  0  0  0  0  0  0  0  0  0
   27.4408  -21.8387  -11.6121 O   0  0  0  0  0  0  0  0  0  0  0  0
   29.1090  -20.6347  -10.6134 N   0  0  0  0  0  0  0  0  0  0  0  0
   28.5177  -20.7156   -9.3143 C   0  0  1  0  0  0  0  0  0  0  0  0
   29.4291  -20.2037   -8.2217 C   0  0  0  0  0  0  0  0  0  0  0  0
   28.7870  -20.1429   -6.9061 C   0  0  0  0  0  0  0  0  0  0  0  0
   28.0942  -18.9917   -6.5145 C   0  0  0  0  0  0  0  0  0  0  0  0
   27.4925  -18.9428   -5.2741 C   0  0  0  0  0  0  0  0  0  0  0  0
   27.5391  -19.9922   -4.3799 C   0  0  0  0  0  0  0  0  0  0  0  0
   28.2197  -21.1285   -4.7597 C   0  0  0  0  0  0  0  0  0  0  0  0
   28.8274  -21.1854   -6.0055 C   0  0  0  0  0  0  0  0  0  0  0  0
   27.1740  -20.1028   -9.2447 C   0  0  0  0  0  0  0  0  0  0  0  0
   27.0597  -18.8803   -9.4540 O   0  0  0  0  0  0  0  0  0  0  0  0
   22.9289  -22.2243  -13.0127 C   0  0  0  0  0  0  0  0  0  0  0  0
   22.3308  -20.5718  -12.5575 S   0  0  0  0  0  0  0  0  0  0  0  0
   22.8547  -20.2594  -10.8357 C   0  0  0  0  0  0  0  0  0  0  0  0
   24.2634  -20.7355  -10.6080 C   0  0  0  0  0  0  0  0  0  0  0  0
   24.6832  -20.4877   -9.2155 C   0  0  2  0  0  0  0  0  0  0  0  0
   26.0563  -20.8784   -8.9506 N   0  0  0  0  0  0  0  0  0  0  0  0
   23.7617  -21.0301   -8.2074 C   0  0  0  0  0  0  0  0  0  0  0  0
   22.4187  -20.5832   -8.2954 O   0  0  0  0  0  0  0  0  0  0  0  0
   24.0247  -21.8260   -7.2987 O   0  0  0  0  0  0  0  0  0  0  0  0
  2  1  1  6
  3  4  1  0
  3  2  1  0
  5  2  1  0
  5  6  2  0
  7  5  1  0
  8  7  1  0
  8  9  1  1
 10  9  1  0
 10 11  2  0
 12 11  1  0
 13 12  2  0
 14 15  2  0
 14 13  1  0
 15 10  1  0
 16  8  1  0
 17 16  2  0
 18 19  1  0
 19 20  1  0
 20 21  1  0
 22 21  1  6
 22 24  1  0
 22 23  1  0
 23 16  1  0
 24 25  1  0
 26 24  2  0
M  END
$$$$
