DEH.pdb
     RDKit          3D

 28 28  0  0  1  0  0  0  0  0999 V2000
    9.7182  -14.9628   18.2329 N   0  0  0  0  0  0  0  0  0  0  0  0
    8.8243  -14.1965   19.0696 C   0  0  1  0  0  0  0  0  0  0  0  0
    7.6439  -13.6921   18.2929 C   0  0  0  0  0  0  0  0  0  0  0  0
    7.8917  -13.8753   16.8412 C   0  0  0  0  0  0  0  0  0  0  0  0
    8.1096  -14.9988   16.3308 O   0  0  0  0  0  0  0  0  0  0  0  0
    8.4827  -14.9611   20.2651 C   0  0  0  0  0  0  0  0  0  0  0  0
    7.7776  -14.3605   21.1452 O   0  0  0  0  0  0  0  0  0  0  0  0
    7.8865  -12.7736   15.9995 O   0  0  0  0  0  0  0  0  0  0  0  0
    8.8849  -16.3059   20.4927 N   0  0  0  0  0  0  0  0  0  0  0  0
    8.7165  -16.8277   21.8475 C   0  0  1  0  0  0  0  0  0  0  0  0
    9.2366  -18.2433   21.7866 C   0  0  0  0  0  0  0  0  0  0  0  0
    9.0712  -19.0106   23.0505 C   0  0  0  0  0  0  0  0  0  0  0  0
    9.5386  -20.4258   22.7780 C   0  0  0  0  0  0  0  0  0  0  0  0
    8.7529  -21.3921   22.9424 O   0  0  0  0  0  0  0  0  0  0  0  0
    9.5220  -16.0686   22.8134 C   0  0  0  0  0  0  0  0  0  0  0  0
   10.2847  -15.1753   22.3894 O   0  0  0  0  0  0  0  0  0  0  0  0
   10.8400  -20.6011   22.3497 O   0  0  0  0  0  0  0  0  0  0  0  0
    9.4927  -16.2839   24.2132 N   0  0  0  0  0  0  0  0  0  0  0  0
    9.0530  -15.2531   25.1363 C   0  0  1  0  0  0  0  0  0  0  0  0
    7.7384  -14.6485   24.6878 C   0  0  0  0  0  0  0  0  0  0  0  0
    7.2516  -13.6224   25.6334 C   0  0  0  0  0  0  0  0  0  0  0  0
    7.8829  -13.1965   26.7792 C   0  0  0  0  0  0  0  0  0  0  0  0
    7.1121  -12.2726   27.3459 N   0  0  0  0  0  0  0  0  0  0  0  0
    6.0065  -12.1097   26.5767 C   0  0  0  0  0  0  0  0  0  0  0  0
    6.0812  -12.9347   25.5208 N   0  0  0  0  0  0  0  0  0  0  0  0
    9.0532  -15.7238   26.5227 C   0  0  0  0  0  0  0  0  0  0  0  0
    8.9920  -17.0292   26.9437 O   0  0  0  0  0  0  0  0  0  0  0  0
    9.1152  -14.8487   27.4415 O   0  0  0  0  0  0  0  0  0  0  0  0
  2  6  1  0
  2  1  1  6
  3  2  1  0
  3  4  1  0
  4  5  2  0
  6  7  2  0
  8  4  1  0
  9 10  1  0
  9  6  1  0
 10 11  1  6
 11 12  1  0
 12 13  1  0
 13 14  2  0
 13 17  1  0
 15 10  1  0
 16 15  2  0
 18 15  1  0
 19 20  1  6
 19 18  1  0
 20 21  1  0
 21 25  1  0
 21 22  2  0
 22 23  1  0
 24 23  1  0
 25 24  2  0
 26 19  1  0
 27 26  1  0
 28 26  2  0
M  END
$$$$
