DEH.pdb
     RDKit          3D

 28 28  0  0  1  0  0  0  0  0999 V2000
   11.4737  -14.7142   18.0477 N   0  0  0  0  0  0  0  0  0  0  0  0
   11.9822  -15.1401   19.3309 C   0  0  1  0  0  0  0  0  0  0  0  0
   12.9104  -14.1186   19.9191 C   0  0  0  0  0  0  0  0  0  0  0  0
   14.1745  -14.0927   19.1421 C   0  0  0  0  0  0  0  0  0  0  0  0
   14.5081  -13.1175   18.4293 O   0  0  0  0  0  0  0  0  0  0  0  0
   10.8766  -15.5284   20.2010 C   0  0  0  0  0  0  0  0  0  0  0  0
    9.8139  -14.8234   20.1236 O   0  0  0  0  0  0  0  0  0  0  0  0
   15.0338  -15.1796   19.1926 O   0  0  0  0  0  0  0  0  0  0  0  0
   10.9222  -16.6238   21.1066 N   0  0  0  0  0  0  0  0  0  0  0  0
    9.6840  -16.9550   21.8090 C   0  0  1  0  0  0  0  0  0  0  0  0
    9.5167  -18.4433   21.6217 C   0  0  0  0  0  0  0  0  0  0  0  0
    8.2977  -19.0071   22.2618 C   0  0  0  0  0  0  0  0  0  0  0  0
    8.2162  -20.4655   21.8595 C   0  0  0  0  0  0  0  0  0  0  0  0
    9.1314  -20.9820   21.1711 O   0  0  0  0  0  0  0  0  0  0  0  0
    9.7948  -16.6682   23.2455 C   0  0  0  0  0  0  0  0  0  0  0  0
   10.9290  -16.4931   23.7377 O   0  0  0  0  0  0  0  0  0  0  0  0
    7.1135  -21.1858   22.2754 O   0  0  0  0  0  0  0  0  0  0  0  0
    8.6870  -16.5756   24.1234 N   0  0  0  0  0  0  0  0  0  0  0  0
    8.8548  -16.3080   25.5406 C   0  0  1  0  0  0  0  0  0  0  0  0
    7.5955  -15.7089   26.1321 C   0  0  0  0  0  0  0  0  0  0  0  0
    7.4423  -14.2829   25.7753 C   0  0  0  0  0  0  0  0  0  0  0  0
    8.3738  -13.4894   25.1465 C   0  0  0  0  0  0  0  0  0  0  0  0
    7.8491  -12.2740   25.0186 N   0  0  0  0  0  0  0  0  0  0  0  0
    6.6035  -12.2888   25.5559 C   0  0  0  0  0  0  0  0  0  0  0  0
    6.3424  -13.5190   26.0245 N   0  0  0  0  0  0  0  0  0  0  0  0
    9.3571  -17.4783   26.2627 C   0  0  0  0  0  0  0  0  0  0  0  0
    9.9378  -17.4851   27.5069 O   0  0  0  0  0  0  0  0  0  0  0  0
    9.2535  -18.6099   25.6947 O   0  0  0  0  0  0  0  0  0  0  0  0
  2  6  1  0
  2  1  1  6
  3  2  1  0
  3  4  1  0
  4  5  2  0
  6  7  2  0
  8  4  1  0
  9 10  1  0
  9  6  1  0
 10 11  1  1
 11 12  1  0
 12 13  1  0
 13 14  2  0
 13 17  1  0
 15 10  1  0
 16 15  2  0
 18 15  1  0
 19 20  1  1
 19 18  1  0
 20 21  1  0
 21 25  1  0
 21 22  2  0
 22 23  1  0
 24 23  1  0
 25 24  2  0
 26 19  1  0
 27 26  1  0
 28 26  2  0
M  END
$$$$
