DEH.pdb
     RDKit          3D

 28 28  0  0  1  0  0  0  0  0999 V2000
    7.7212  -15.2111   20.0510 N   0  0  0  0  0  0  0  0  0  0  0  0
    7.8785  -16.6284   19.8206 C   0  0  1  0  0  0  0  0  0  0  0  0
    8.3188  -16.9095   18.4141 C   0  0  0  0  0  0  0  0  0  0  0  0
    8.1869  -18.3611   18.1349 C   0  0  0  0  0  0  0  0  0  0  0  0
    9.1396  -19.0554   17.7099 O   0  0  0  0  0  0  0  0  0  0  0  0
    8.7327  -17.2091   20.8518 C   0  0  0  0  0  0  0  0  0  0  0  0
    8.2633  -18.2165   21.4819 O   0  0  0  0  0  0  0  0  0  0  0  0
    6.9709  -18.9930   18.3455 O   0  0  0  0  0  0  0  0  0  0  0  0
   10.0276  -16.7222   21.1811 N   0  0  0  0  0  0  0  0  0  0  0  0
   10.7345  -17.4004   22.2658 C   0  0  1  0  0  0  0  0  0  0  0  0
   12.1853  -17.3925   21.8493 C   0  0  0  0  0  0  0  0  0  0  0  0
   12.6679  -18.6836   21.2894 C   0  0  0  0  0  0  0  0  0  0  0  0
   14.1097  -18.4781   20.8719 C   0  0  0  0  0  0  0  0  0  0  0  0
   14.4515  -18.6563   19.6762 O   0  0  0  0  0  0  0  0  0  0  0  0
   10.6009  -16.6636   23.5297 C   0  0  0  0  0  0  0  0  0  0  0  0
   10.4074  -15.4306   23.4890 O   0  0  0  0  0  0  0  0  0  0  0  0
   15.0116  -18.0939   21.8448 O   0  0  0  0  0  0  0  0  0  0  0  0
   10.6779  -17.2648   24.8100 N   0  0  0  0  0  0  0  0  0  0  0  0
    9.7522  -16.9193   25.8738 C   0  0  1  0  0  0  0  0  0  0  0  0
    8.3258  -16.8940   25.3644 C   0  0  0  0  0  0  0  0  0  0  0  0
    7.9426  -15.5579   24.8623 C   0  0  0  0  0  0  0  0  0  0  0  0
    8.7308  -14.4304   24.8450 C   0  0  0  0  0  0  0  0  0  0  0  0
    8.0106  -13.4416   24.3229 N   0  0  0  0  0  0  0  0  0  0  0  0
    6.7828  -13.9273   24.0113 C   0  0  0  0  0  0  0  0  0  0  0  0
    6.7293  -15.2277   24.3387 N   0  0  0  0  0  0  0  0  0  0  0  0
    9.9486  -17.7520   27.0620 C   0  0  0  0  0  0  0  0  0  0  0  0
   10.7864  -18.8340   27.1735 O   0  0  0  0  0  0  0  0  0  0  0  0
    9.2839  -17.4576   28.1037 O   0  0  0  0  0  0  0  0  0  0  0  0
  2  6  1  0
  2  1  1  1
  3  2  1  0
  3  4  1  0
  4  5  2  0
  6  7  2  0
  8  4  1  0
  9 10  1  0
  9  6  1  0
 10 11  1  6
 11 12  1  0
 12 13  1  0
 13 14  2  0
 13 17  1  0
 15 10  1  0
 16 15  2  0
 18 15  1  0
 19 20  1  6
 19 18  1  0
 20 21  1  0
 21 25  1  0
 21 22  2  0
 22 23  1  0
 24 23  1  0
 25 24  2  0
 26 19  1  0
 27 26  1  0
 28 26  2  0
M  END
$$$$
