DEH.pdb
     RDKit          3D

 28 28  0  0  1  0  0  0  0  0999 V2000
   14.7815  -15.4112   16.2578 N   0  0  0  0  0  0  0  0  0  0  0  0
   14.9047  -15.3357   17.6950 C   0  0  1  0  0  0  0  0  0  0  0  0
   15.1683  -13.9304   18.1495 C   0  0  0  0  0  0  0  0  0  0  0  0
   16.4827  -13.4798   17.6281 C   0  0  0  0  0  0  0  0  0  0  0  0
   17.5139  -14.1885   17.6956 O   0  0  0  0  0  0  0  0  0  0  0  0
   13.7542  -15.9728   18.3279 C   0  0  0  0  0  0  0  0  0  0  0  0
   12.6225  -15.8019   17.7600 O   0  0  0  0  0  0  0  0  0  0  0  0
   16.5958  -12.2293   17.0399 O   0  0  0  0  0  0  0  0  0  0  0  0
   13.8283  -16.7540   19.5137 N   0  0  0  0  0  0  0  0  0  0  0  0
   12.5773  -17.3218   20.0126 C   0  0  1  0  0  0  0  0  0  0  0  0
   12.9662  -18.6492   20.6166 C   0  0  0  0  0  0  0  0  0  0  0  0
   11.8386  -19.3892   21.2446 C   0  0  0  0  0  0  0  0  0  0  0  0
   12.3938  -20.7062   21.7473 C   0  0  0  0  0  0  0  0  0  0  0  0
   12.3623  -20.9770   22.9737 O   0  0  0  0  0  0  0  0  0  0  0  0
   11.9918  -16.4774   21.0625 C   0  0  0  0  0  0  0  0  0  0  0  0
   12.7561  -15.8611   21.8341 O   0  0  0  0  0  0  0  0  0  0  0  0
   12.9247  -21.5769   20.8157 O   0  0  0  0  0  0  0  0  0  0  0  0
   10.5992  -16.3123   21.2627 N   0  0  0  0  0  0  0  0  0  0  0  0
   10.0729  -15.3775   22.2411 C   0  0  1  0  0  0  0  0  0  0  0  0
    8.6896  -14.9020   21.8473 C   0  0  0  0  0  0  0  0  0  0  0  0
    8.6983  -14.1908   20.5519 C   0  0  0  0  0  0  0  0  0  0  0  0
    9.7988  -13.9184   19.7724 C   0  0  0  0  0  0  0  0  0  0  0  0
    9.3790  -13.2578   18.6970 N   0  0  0  0  0  0  0  0  0  0  0  0
    8.0334  -13.1097   18.7862 C   0  0  0  0  0  0  0  0  0  0  0  0
    7.6037  -13.6794   19.9228 N   0  0  0  0  0  0  0  0  0  0  0  0
   10.1588  -15.9056   23.6039 C   0  0  0  0  0  0  0  0  0  0  0  0
    9.8955  -15.2213   24.7648 O   0  0  0  0  0  0  0  0  0  0  0  0
   10.5119  -17.1177   23.7445 O   0  0  0  0  0  0  0  0  0  0  0  0
  2  6  1  0
  2  1  1  6
  3  2  1  0
  3  4  1  0
  4  5  2  0
  6  7  2  0
  8  4  1  0
  9 10  1  0
  9  6  1  0
 10 11  1  1
 11 12  1  0
 12 13  1  0
 13 14  2  0
 13 17  1  0
 15 10  1  0
 16 15  2  0
 18 15  1  0
 19 20  1  6
 19 18  1  0
 20 21  1  0
 21 25  1  0
 21 22  2  0
 22 23  1  0
 24 23  1  0
 25 24  2  0
 26 19  1  0
 27 26  1  0
 28 26  2  0
M  END
$$$$
