DEH.pdb
     RDKit          3D

 28 28  0  0  1  0  0  0  0  0999 V2000
    9.8016  -13.2908   18.5255 N   0  0  0  0  0  0  0  0  0  0  0  0
    8.5145  -13.5063   19.1447 C   0  0  1  0  0  0  0  0  0  0  0  0
    7.4539  -13.7864   18.1213 C   0  0  0  0  0  0  0  0  0  0  0  0
    8.0722  -14.4121   16.9260 C   0  0  0  0  0  0  0  0  0  0  0  0
    8.7608  -15.4569   16.9919 O   0  0  0  0  0  0  0  0  0  0  0  0
    8.6287  -14.5158   20.1928 C   0  0  0  0  0  0  0  0  0  0  0  0
    7.5803  -14.7380   20.8885 O   0  0  0  0  0  0  0  0  0  0  0  0
    7.8935  -13.8340   15.6785 O   0  0  0  0  0  0  0  0  0  0  0  0
    9.8173  -15.2452   20.4704 N   0  0  0  0  0  0  0  0  0  0  0  0
    9.7780  -16.1711   21.6007 C   0  0  1  0  0  0  0  0  0  0  0  0
   10.8591  -17.1839   21.3117 C   0  0  0  0  0  0  0  0  0  0  0  0
   10.9884  -18.2508   22.3405 C   0  0  0  0  0  0  0  0  0  0  0  0
   12.1006  -19.1748   21.8880 C   0  0  0  0  0  0  0  0  0  0  0  0
   13.2806  -18.9759   22.2706 O   0  0  0  0  0  0  0  0  0  0  0  0
   10.0960  -15.4856   22.8605 C   0  0  0  0  0  0  0  0  0  0  0  0
   10.6753  -14.3804   22.8138 O   0  0  0  0  0  0  0  0  0  0  0  0
   11.7651  -20.2232   21.0538 O   0  0  0  0  0  0  0  0  0  0  0  0
    9.7863  -16.0003   24.1434 N   0  0  0  0  0  0  0  0  0  0  0  0
    9.1884  -15.1724   25.1754 C   0  0  1  0  0  0  0  0  0  0  0  0
    7.9131  -14.5231   24.6786 C   0  0  0  0  0  0  0  0  0  0  0  0
    7.3304  -13.6102   25.6841 C   0  0  0  0  0  0  0  0  0  0  0  0
    7.8985  -13.2358   26.8798 C   0  0  0  0  0  0  0  0  0  0  0  0
    7.0502  -12.4133   27.4904 N   0  0  0  0  0  0  0  0  0  0  0  0
    5.9581  -12.2635   26.6997 C   0  0  0  0  0  0  0  0  0  0  0  0
    6.1191  -12.9950   25.5861 N   0  0  0  0  0  0  0  0  0  0  0  0
    9.0384  -15.8964   26.4391 C   0  0  0  0  0  0  0  0  0  0  0  0
    9.2638  -17.2346   26.6473 O   0  0  0  0  0  0  0  0  0  0  0  0
    8.6616  -15.2344   27.4558 O   0  0  0  0  0  0  0  0  0  0  0  0
  2  6  1  0
  2  1  1  6
  3  2  1  0
  3  4  1  0
  4  5  2  0
  6  7  2  0
  8  4  1  0
  9 10  1  0
  9  6  1  0
 10 11  1  6
 11 12  1  0
 12 13  1  0
 13 14  2  0
 13 17  1  0
 15 10  1  0
 16 15  2  0
 18 15  1  0
 19 20  1  6
 19 18  1  0
 20 21  1  0
 21 25  1  0
 21 22  2  0
 22 23  1  0
 24 23  1  0
 25 24  2  0
 26 19  1  0
 27 26  1  0
 28 26  2  0
M  END
$$$$
