DEH.pdb
     RDKit          3D

 28 28  0  0  1  0  0  0  0  0999 V2000
   10.7734  -16.0143   15.1315 N   0  0  0  0  0  0  0  0  0  0  0  0
   11.5778  -17.0793   15.6840 C   0  0  1  0  0  0  0  0  0  0  0  0
   13.0074  -16.9724   15.2417 C   0  0  0  0  0  0  0  0  0  0  0  0
   13.0782  -17.0865   13.7637 C   0  0  0  0  0  0  0  0  0  0  0  0
   14.0613  -16.6789   13.1022 O   0  0  0  0  0  0  0  0  0  0  0  0
   11.3929  -17.1444   17.1303 C   0  0  0  0  0  0  0  0  0  0  0  0
   11.7453  -16.1138   17.7983 O   0  0  0  0  0  0  0  0  0  0  0  0
   12.0262  -17.6631   13.0685 O   0  0  0  0  0  0  0  0  0  0  0  0
   10.8539  -18.2681   17.8149 N   0  0  0  0  0  0  0  0  0  0  0  0
   10.7831  -18.1849   19.2724 C   0  0  1  0  0  0  0  0  0  0  0  0
    9.9351  -19.3622   19.6885 C   0  0  0  0  0  0  0  0  0  0  0  0
    9.8375  -19.5558   21.1604 C   0  0  0  0  0  0  0  0  0  0  0  0
    8.8663  -20.6942   21.3975 C   0  0  0  0  0  0  0  0  0  0  0  0
    8.3777  -21.3196   20.4236 O   0  0  0  0  0  0  0  0  0  0  0  0
   12.1144  -18.3229   19.8779 C   0  0  0  0  0  0  0  0  0  0  0  0
   12.9199  -19.1367   19.3796 O   0  0  0  0  0  0  0  0  0  0  0  0
    8.5496  -21.0064   22.7052 O   0  0  0  0  0  0  0  0  0  0  0  0
   12.5532  -17.5857   21.0051 N   0  0  0  0  0  0  0  0  0  0  0  0
   13.6214  -16.6070   20.9099 C   0  0  1  0  0  0  0  0  0  0  0  0
   13.4357  -15.7178   19.6976 C   0  0  0  0  0  0  0  0  0  0  0  0
   14.5432  -14.7509   19.5473 C   0  0  0  0  0  0  0  0  0  0  0  0
   14.4276  -13.4003   19.3119 C   0  0  0  0  0  0  0  0  0  0  0  0
   15.6561  -12.8967   19.2351 N   0  0  0  0  0  0  0  0  0  0  0  0
   16.5430  -13.9068   19.4182 C   0  0  0  0  0  0  0  0  0  0  0  0
   15.8701  -15.0519   19.6110 N   0  0  0  0  0  0  0  0  0  0  0  0
   13.8078  -15.8765   22.1650 C   0  0  0  0  0  0  0  0  0  0  0  0
   13.0220  -15.9645   23.2874 O   0  0  0  0  0  0  0  0  0  0  0  0
   14.7909  -15.0755   22.2397 O   0  0  0  0  0  0  0  0  0  0  0  0
  2  6  1  0
  2  1  1  1
  3  2  1  0
  3  4  1  0
  4  5  2  0
  6  7  2  0
  8  4  1  0
  9 10  1  0
  9  6  1  0
 10 11  1  1
 11 12  1  0
 12 13  1  0
 13 14  2  0
 13 17  1  0
 15 10  1  0
 16 15  2  0
 18 15  1  0
 19 20  1  6
 19 18  1  0
 20 21  1  0
 21 25  1  0
 21 22  2  0
 22 23  1  0
 24 23  1  0
 25 24  2  0
 26 19  1  0
 27 26  1  0
 28 26  2  0
M  END
$$$$
