DEH.pdb
     RDKit          3D

 28 28  0  0  1  0  0  0  0  0999 V2000
    8.9654  -16.5826   15.3534 N   0  0  0  0  0  0  0  0  0  0  0  0
    7.9701  -16.5042   16.3973 C   0  0  1  0  0  0  0  0  0  0  0  0
    6.6952  -17.1829   15.9911 C   0  0  0  0  0  0  0  0  0  0  0  0
    7.0029  -18.5275   15.4436 C   0  0  0  0  0  0  0  0  0  0  0  0
    6.1135  -19.3056   15.0266 O   0  0  0  0  0  0  0  0  0  0  0  0
    8.5331  -16.9747   17.6590 C   0  0  0  0  0  0  0  0  0  0  0  0
    7.7022  -17.2310   18.5951 O   0  0  0  0  0  0  0  0  0  0  0  0
    8.3191  -18.9592   15.3825 O   0  0  0  0  0  0  0  0  0  0  0  0
    9.9239  -17.1576   17.8919 N   0  0  0  0  0  0  0  0  0  0  0  0
   10.3211  -17.5831   19.2326 C   0  0  1  0  0  0  0  0  0  0  0  0
   11.7708  -17.9820   19.1005 C   0  0  0  0  0  0  0  0  0  0  0  0
   12.3704  -18.5298   20.3471 C   0  0  0  0  0  0  0  0  0  0  0  0
   13.7714  -18.9924   20.0028 C   0  0  0  0  0  0  0  0  0  0  0  0
   14.4129  -19.7137   20.8068 O   0  0  0  0  0  0  0  0  0  0  0  0
   10.2204  -16.4762   20.1932 C   0  0  0  0  0  0  0  0  0  0  0  0
    9.9540  -15.3330   19.7671 O   0  0  0  0  0  0  0  0  0  0  0  0
   14.2997  -18.5935   18.7905 O   0  0  0  0  0  0  0  0  0  0  0  0
   10.4078  -16.6188   21.5900 N   0  0  0  0  0  0  0  0  0  0  0  0
    9.6891  -15.7955   22.5459 C   0  0  1  0  0  0  0  0  0  0  0  0
    8.1960  -15.8531   22.2965 C   0  0  0  0  0  0  0  0  0  0  0  0
    7.7735  -14.8968   21.2520 C   0  0  0  0  0  0  0  0  0  0  0  0
    7.9312  -13.5303   21.2778 C   0  0  0  0  0  0  0  0  0  0  0  0
    7.4107  -13.0419   20.1555 N   0  0  0  0  0  0  0  0  0  0  0  0
    6.9281  -14.0774   19.4238 C   0  0  0  0  0  0  0  0  0  0  0  0
    7.1455  -15.2230   20.0881 N   0  0  0  0  0  0  0  0  0  0  0  0
   10.0774  -16.0936   23.9257 C   0  0  0  0  0  0  0  0  0  0  0  0
   10.0769  -15.2180   24.9832 O   0  0  0  0  0  0  0  0  0  0  0  0
   10.4562  -17.2774   24.1881 O   0  0  0  0  0  0  0  0  0  0  0  0
  2  6  1  0
  2  1  1  6
  3  2  1  0
  3  4  1  0
  4  5  2  0
  6  7  2  0
  8  4  1  0
  9 10  1  0
  9  6  1  0
 10 11  1  6
 11 12  1  0
 12 13  1  0
 13 14  2  0
 13 17  1  0
 15 10  1  0
 16 15  2  0
 18 15  1  0
 19 20  1  1
 19 18  1  0
 20 21  1  0
 21 25  1  0
 21 22  2  0
 22 23  1  0
 24 23  1  0
 25 24  2  0
 26 19  1  0
 27 26  1  0
 28 26  2  0
M  END
$$$$
