DEH.pdb
     RDKit          3D

 28 28  0  0  1  0  0  0  0  0999 V2000
    8.8767  -16.3368   17.4721 N   0  0  0  0  0  0  0  0  0  0  0  0
    8.7851  -15.4287   18.5917 C   0  0  1  0  0  0  0  0  0  0  0  0
    7.6369  -14.4763   18.4325 C   0  0  0  0  0  0  0  0  0  0  0  0
    7.8736  -13.6083   17.2523 C   0  0  0  0  0  0  0  0  0  0  0  0
    7.3023  -13.7946   16.1527 O   0  0  0  0  0  0  0  0  0  0  0  0
    8.7822  -16.1796   19.8433 C   0  0  0  0  0  0  0  0  0  0  0  0
    7.6644  -16.6809   20.2062 O   0  0  0  0  0  0  0  0  0  0  0  0
    8.7576  -12.5445   17.3488 O   0  0  0  0  0  0  0  0  0  0  0  0
    9.9315  -16.3760   20.6573 N   0  0  0  0  0  0  0  0  0  0  0  0
    9.8206  -17.3573   21.7348 C   0  0  1  0  0  0  0  0  0  0  0  0
   10.9758  -18.3043   21.5189 C   0  0  0  0  0  0  0  0  0  0  0  0
   10.8724  -19.1230   20.2809 C   0  0  0  0  0  0  0  0  0  0  0  0
   12.0687  -20.0524   20.2590 C   0  0  0  0  0  0  0  0  0  0  0  0
   12.9577  -19.9570   21.1415 O   0  0  0  0  0  0  0  0  0  0  0  0
    9.9696  -16.7210   23.0505 C   0  0  0  0  0  0  0  0  0  0  0  0
   10.8807  -15.8826   23.2129 O   0  0  0  0  0  0  0  0  0  0  0  0
   12.1356  -20.9893   19.2464 O   0  0  0  0  0  0  0  0  0  0  0  0
    9.1388  -16.9977   24.1639 N   0  0  0  0  0  0  0  0  0  0  0  0
    9.4210  -16.4573   25.4816 C   0  0  1  0  0  0  0  0  0  0  0  0
    8.1563  -15.9456   26.1400 C   0  0  0  0  0  0  0  0  0  0  0  0
    7.7082  -14.6649   25.5542 C   0  0  0  0  0  0  0  0  0  0  0  0
    8.3750  -13.9149   24.6131 C   0  0  0  0  0  0  0  0  0  0  0  0
    7.6396  -12.8357   24.3612 N   0  0  0  0  0  0  0  0  0  0  0  0
    6.5216  -12.8935   25.1275 C   0  0  0  0  0  0  0  0  0  0  0  0
    6.5529  -14.0140   25.8654 N   0  0  0  0  0  0  0  0  0  0  0  0
   10.1873  -17.3946   26.3049 C   0  0  0  0  0  0  0  0  0  0  0  0
   10.6270  -18.6407   25.9322 O   0  0  0  0  0  0  0  0  0  0  0  0
   10.4831  -17.0344   27.4866 O   0  0  0  0  0  0  0  0  0  0  0  0
  2  6  1  0
  2  1  1  6
  3  2  1  0
  3  4  1  0
  4  5  2  0
  6  7  2  0
  8  4  1  0
  9 10  1  0
  9  6  1  0
 10 11  1  6
 11 12  1  0
 12 13  1  0
 13 14  2  0
 13 17  1  0
 15 10  1  0
 16 15  2  0
 18 15  1  0
 19 20  1  1
 19 18  1  0
 20 21  1  0
 21 25  1  0
 21 22  2  0
 22 23  1  0
 24 23  1  0
 25 24  2  0
 26 19  1  0
 27 26  1  0
 28 26  2  0
M  END
$$$$
