DEH.pdb
     RDKit          3D

 28 28  0  0  1  0  0  0  0  0999 V2000
    6.9972  -20.8584   20.4113 N   0  0  0  0  0  0  0  0  0  0  0  0
    5.8778  -20.1259   20.9562 C   0  0  1  0  0  0  0  0  0  0  0  0
    4.5959  -20.4921   20.2681 C   0  0  0  0  0  0  0  0  0  0  0  0
    4.7262  -20.2391   18.8115 C   0  0  0  0  0  0  0  0  0  0  0  0
    3.8562  -19.6222   18.1537 O   0  0  0  0  0  0  0  0  0  0  0  0
    5.8493  -20.2674   22.4086 C   0  0  0  0  0  0  0  0  0  0  0  0
    5.5343  -19.2258   23.0780 O   0  0  0  0  0  0  0  0  0  0  0  0
    5.8461  -20.6950   18.1330 O   0  0  0  0  0  0  0  0  0  0  0  0
    6.1464  -21.4754   23.0974 N   0  0  0  0  0  0  0  0  0  0  0  0
    6.1768  -21.4155   24.5575 C   0  0  1  0  0  0  0  0  0  0  0  0
    5.9151  -22.8314   25.0104 C   0  0  0  0  0  0  0  0  0  0  0  0
    4.5419  -23.3233   24.7174 C   0  0  0  0  0  0  0  0  0  0  0  0
    4.4953  -24.7832   25.1196 C   0  0  0  0  0  0  0  0  0  0  0  0
    4.9140  -25.6680   24.3321 O   0  0  0  0  0  0  0  0  0  0  0  0
    7.4986  -20.9993   25.0450 C   0  0  0  0  0  0  0  0  0  0  0  0
    8.5150  -21.3909   24.4344 O   0  0  0  0  0  0  0  0  0  0  0  0
    3.9828  -25.0903   26.3649 O   0  0  0  0  0  0  0  0  0  0  0  0
    7.7020  -20.1724   26.1769 N   0  0  0  0  0  0  0  0  0  0  0  0
    9.0330  -19.8077   26.6281 C   0  0  1  0  0  0  0  0  0  0  0  0
    9.6166  -18.7092   25.7634 C   0  0  0  0  0  0  0  0  0  0  0  0
    8.6843  -17.5727   25.6109 C   0  0  0  0  0  0  0  0  0  0  0  0
    7.3728  -17.5257   26.0237 C   0  0  0  0  0  0  0  0  0  0  0  0
    6.8870  -16.3328   25.6920 N   0  0  0  0  0  0  0  0  0  0  0  0
    7.8701  -15.6282   25.0776 C   0  0  0  0  0  0  0  0  0  0  0  0
    8.9800  -16.3806   25.0219 N   0  0  0  0  0  0  0  0  0  0  0  0
    9.0646  -19.5201   28.0633 C   0  0  0  0  0  0  0  0  0  0  0  0
   10.1733  -19.2102   28.8115 O   0  0  0  0  0  0  0  0  0  0  0  0
    7.9635  -19.5574   28.6957 O   0  0  0  0  0  0  0  0  0  0  0  0
  2  6  1  0
  2  1  1  6
  3  2  1  0
  3  4  1  0
  4  5  2  0
  6  7  2  0
  8  4  1  0
  9 10  1  0
  9  6  1  0
 10 11  1  1
 11 12  1  0
 12 13  1  0
 13 14  2  0
 13 17  1  0
 15 10  1  0
 16 15  2  0
 18 15  1  0
 19 20  1  6
 19 18  1  0
 20 21  1  0
 21 25  1  0
 21 22  2  0
 22 23  1  0
 24 23  1  0
 25 24  2  0
 26 19  1  0
 27 26  1  0
 28 26  2  0
M  END
$$$$
