DEH.pdb
     RDKit          3D

 28 28  0  0  1  0  0  0  0  0999 V2000
   16.2882  -18.1842   17.1849 N   0  0  0  0  0  0  0  0  0  0  0  0
   16.4604  -18.9696   18.3848 C   0  0  1  0  0  0  0  0  0  0  0  0
   17.8050  -18.7327   19.0068 C   0  0  0  0  0  0  0  0  0  0  0  0
   18.8692  -19.0793   18.0322 C   0  0  0  0  0  0  0  0  0  0  0  0
   20.0416  -18.6483   18.1322 O   0  0  0  0  0  0  0  0  0  0  0  0
   15.3300  -18.7600   19.2841 C   0  0  0  0  0  0  0  0  0  0  0  0
   14.8266  -17.5858   19.3048 O   0  0  0  0  0  0  0  0  0  0  0  0
   18.5758  -19.9107   16.9621 O   0  0  0  0  0  0  0  0  0  0  0  0
   14.7755  -19.7711   20.1160 N   0  0  0  0  0  0  0  0  0  0  0  0
   13.6618  -19.3823   20.9791 C   0  0  1  0  0  0  0  0  0  0  0  0
   12.7018  -20.5457   20.9231 C   0  0  0  0  0  0  0  0  0  0  0  0
   13.3226  -21.8656   21.2163 C   0  0  0  0  0  0  0  0  0  0  0  0
   12.2300  -22.9087   21.0991 C   0  0  0  0  0  0  0  0  0  0  0  0
   12.2909  -23.7878   20.2037 O   0  0  0  0  0  0  0  0  0  0  0  0
   14.1042  -19.2001   22.3680 C   0  0  0  0  0  0  0  0  0  0  0  0
   14.9701  -19.9727   22.8293 O   0  0  0  0  0  0  0  0  0  0  0  0
   11.1867  -22.8502   22.0022 O   0  0  0  0  0  0  0  0  0  0  0  0
   13.6084  -18.1935   23.2326 N   0  0  0  0  0  0  0  0  0  0  0  0
   14.0343  -18.0972   24.6174 C   0  0  1  0  0  0  0  0  0  0  0  0
   14.4933  -16.6917   24.9470 C   0  0  0  0  0  0  0  0  0  0  0  0
   15.7246  -16.3273   24.2153 C   0  0  0  0  0  0  0  0  0  0  0  0
   16.4740  -17.1515   23.4080 C   0  0  0  0  0  0  0  0  0  0  0  0
   17.5011  -16.4423   22.9485 N   0  0  0  0  0  0  0  0  0  0  0  0
   17.4111  -15.1860   23.4527 C   0  0  0  0  0  0  0  0  0  0  0  0
   16.3225  -15.1036   24.2333 N   0  0  0  0  0  0  0  0  0  0  0  0
   13.0276  -18.6293   25.5377 C   0  0  0  0  0  0  0  0  0  0  0  0
   11.7774  -19.0897   25.2058 O   0  0  0  0  0  0  0  0  0  0  0  0
   13.3245  -18.6763   26.7720 O   0  0  0  0  0  0  0  0  0  0  0  0
  2  6  1  0
  2  1  1  6
  3  2  1  0
  3  4  1  0
  4  5  2  0
  6  7  2  0
  8  4  1  0
  9 10  1  0
  9  6  1  0
 10 11  1  1
 11 12  1  0
 12 13  1  0
 13 14  2  0
 13 17  1  0
 15 10  1  0
 16 15  2  0
 18 15  1  0
 19 20  1  1
 19 18  1  0
 20 21  1  0
 21 25  1  0
 21 22  2  0
 22 23  1  0
 24 23  1  0
 25 24  2  0
 26 19  1  0
 27 26  1  0
 28 26  2  0
M  END
$$$$
