DEH.pdb
     RDKit          3D

 28 28  0  0  1  0  0  0  0  0999 V2000
    9.0554  -17.5010   19.0246 N   0  0  0  0  0  0  0  0  0  0  0  0
   10.0448  -16.6545   18.3991 C   0  0  1  0  0  0  0  0  0  0  0  0
    9.4507  -15.8526   17.2788 C   0  0  0  0  0  0  0  0  0  0  0  0
    9.0559  -16.7618   16.1744 C   0  0  0  0  0  0  0  0  0  0  0  0
    9.7590  -17.7363   15.8190 O   0  0  0  0  0  0  0  0  0  0  0  0
   10.7358  -15.8632   19.4123 C   0  0  0  0  0  0  0  0  0  0  0  0
   11.6688  -15.0945   18.9986 O   0  0  0  0  0  0  0  0  0  0  0  0
    7.8667  -16.5421   15.4962 O   0  0  0  0  0  0  0  0  0  0  0  0
   10.4302  -15.9040   20.8004 N   0  0  0  0  0  0  0  0  0  0  0  0
   11.4709  -15.4521   21.7218 C   0  0  1  0  0  0  0  0  0  0  0  0
   10.9227  -15.7387   23.0985 C   0  0  0  0  0  0  0  0  0  0  0  0
   10.8106  -17.1863   23.4231 C   0  0  0  0  0  0  0  0  0  0  0  0
   10.3463  -17.2867   24.8617 C   0  0  0  0  0  0  0  0  0  0  0  0
   10.0741  -16.2460   25.5107 O   0  0  0  0  0  0  0  0  0  0  0  0
   12.7120  -16.2163   21.5379 C   0  0  0  0  0  0  0  0  0  0  0  0
   12.7581  -17.0799   20.6371 O   0  0  0  0  0  0  0  0  0  0  0  0
   10.2381  -18.5475   25.4152 O   0  0  0  0  0  0  0  0  0  0  0  0
   13.8767  -16.0384   22.3241 N   0  0  0  0  0  0  0  0  0  0  0  0
   15.0976  -15.4837   21.7674 C   0  0  1  0  0  0  0  0  0  0  0  0
   14.8084  -14.2292   20.9691 C   0  0  0  0  0  0  0  0  0  0  0  0
   15.5090  -14.2291   19.6679 C   0  0  0  0  0  0  0  0  0  0  0  0
   16.2657  -15.2512   19.1430 C   0  0  0  0  0  0  0  0  0  0  0  0
   16.7253  -14.8485   17.9617 N   0  0  0  0  0  0  0  0  0  0  0  0
   16.2710  -13.5907   17.7339 C   0  0  0  0  0  0  0  0  0  0  0  0
   15.5219  -13.1993   18.7765 N   0  0  0  0  0  0  0  0  0  0  0  0
   16.1375  -15.3192   22.7848 C   0  0  0  0  0  0  0  0  0  0  0  0
   17.4935  -15.2902   22.5717 O   0  0  0  0  0  0  0  0  0  0  0  0
   15.7646  -15.1895   23.9923 O   0  0  0  0  0  0  0  0  0  0  0  0
  2  6  1  0
  2  1  1  1
  3  2  1  0
  3  4  1  0
  4  5  2  0
  6  7  2  0
  8  4  1  0
  9 10  1  0
  9  6  1  0
 10 11  1  1
 11 12  1  0
 12 13  1  0
 13 14  2  0
 13 17  1  0
 15 10  1  0
 16 15  2  0
 18 15  1  0
 19 20  1  1
 19 18  1  0
 20 21  1  0
 21 25  1  0
 21 22  2  0
 22 23  1  0
 24 23  1  0
 25 24  2  0
 26 19  1  0
 27 26  1  0
 28 26  2  0
M  END
$$$$
