DEH.pdb
     RDKit          3D

 28 28  0  0  1  0  0  0  0  0999 V2000
   12.8898  -16.2755   16.2074 N   0  0  0  0  0  0  0  0  0  0  0  0
   14.0373  -15.4203   16.4032 C   0  0  1  0  0  0  0  0  0  0  0  0
   14.1584  -14.4056   15.3047 C   0  0  0  0  0  0  0  0  0  0  0  0
   14.6216  -15.0732   14.0629 C   0  0  0  0  0  0  0  0  0  0  0  0
   14.8682  -16.3006   14.0089 O   0  0  0  0  0  0  0  0  0  0  0  0
   14.0155  -14.8577   17.7498 C   0  0  0  0  0  0  0  0  0  0  0  0
   14.9547  -14.0430   18.0438 O   0  0  0  0  0  0  0  0  0  0  0  0
   14.7950  -14.3281   12.9065 O   0  0  0  0  0  0  0  0  0  0  0  0
   13.0267  -15.1631   18.7250 N   0  0  0  0  0  0  0  0  0  0  0  0
   13.1873  -14.5554   20.0445 C   0  0  1  0  0  0  0  0  0  0  0  0
   11.7996  -14.5418   20.6380 C   0  0  0  0  0  0  0  0  0  0  0  0
   10.8022  -15.3442   19.8798 C   0  0  0  0  0  0  0  0  0  0  0  0
    9.5084  -15.3077   20.6672 C   0  0  0  0  0  0  0  0  0  0  0  0
    9.4687  -14.7445   21.7895 O   0  0  0  0  0  0  0  0  0  0  0  0
   14.0607  -15.3685   20.9014 C   0  0  0  0  0  0  0  0  0  0  0  0
   14.0679  -16.6078   20.7484 O   0  0  0  0  0  0  0  0  0  0  0  0
    8.3983  -15.9088   20.1068 O   0  0  0  0  0  0  0  0  0  0  0  0
   14.9072  -14.8353   21.9041 N   0  0  0  0  0  0  0  0  0  0  0  0
   15.7813  -15.6817   22.6964 C   0  0  1  0  0  0  0  0  0  0  0  0
   17.1954  -15.1388   22.7099 C   0  0  0  0  0  0  0  0  0  0  0  0
   17.8174  -15.1851   21.3701 C   0  0  0  0  0  0  0  0  0  0  0  0
   17.3066  -15.7970   20.2488 C   0  0  0  0  0  0  0  0  0  0  0  0
   18.1746  -15.6144   19.2577 N   0  0  0  0  0  0  0  0  0  0  0  0
   19.2228  -14.8980   19.7359 C   0  0  0  0  0  0  0  0  0  0  0  0
   19.0142  -14.6284   21.0340 N   0  0  0  0  0  0  0  0  0  0  0  0
   15.2289  -15.9459   24.0263 C   0  0  0  0  0  0  0  0  0  0  0  0
   15.7301  -16.8163   24.9624 O   0  0  0  0  0  0  0  0  0  0  0  0
   14.1794  -15.3148   24.3640 O   0  0  0  0  0  0  0  0  0  0  0  0
  2  6  1  0
  2  1  1  6
  3  2  1  0
  3  4  1  0
  4  5  2  0
  6  7  2  0
  8  4  1  0
  9 10  1  0
  9  6  1  0
 10 11  1  1
 11 12  1  0
 12 13  1  0
 13 14  2  0
 13 17  1  0
 15 10  1  0
 16 15  2  0
 18 15  1  0
 19 20  1  1
 19 18  1  0
 20 21  1  0
 21 25  1  0
 21 22  2  0
 22 23  1  0
 24 23  1  0
 25 24  2  0
 26 19  1  0
 27 26  1  0
 28 26  2  0
M  END
$$$$
