DEH.pdb
     RDKit          3D

 28 28  0  0  1  0  0  0  0  0999 V2000
   12.7954  -17.0711   14.8080 N   0  0  0  0  0  0  0  0  0  0  0  0
   13.6874  -17.5781   15.8247 C   0  0  1  0  0  0  0  0  0  0  0  0
   14.9868  -16.8282   15.8373 C   0  0  0  0  0  0  0  0  0  0  0  0
   15.6382  -16.9441   14.5089 C   0  0  0  0  0  0  0  0  0  0  0  0
   15.9251  -18.0492   13.9925 O   0  0  0  0  0  0  0  0  0  0  0  0
   13.0008  -17.6248   17.1118 C   0  0  0  0  0  0  0  0  0  0  0  0
   12.4666  -16.5361   17.5141 O   0  0  0  0  0  0  0  0  0  0  0  0
   15.9502  -15.7972   13.7949 O   0  0  0  0  0  0  0  0  0  0  0  0
   12.8992  -18.7911   17.9189 N   0  0  0  0  0  0  0  0  0  0  0  0
   12.1491  -18.6699   19.1674 C   0  0  1  0  0  0  0  0  0  0  0  0
   11.8120  -20.0883   19.5579 C   0  0  0  0  0  0  0  0  0  0  0  0
   10.6077  -20.6395   18.8801 C   0  0  0  0  0  0  0  0  0  0  0  0
   10.4279  -22.0602   19.3749 C   0  0  0  0  0  0  0  0  0  0  0  0
   11.1989  -22.5252   20.2510 O   0  0  0  0  0  0  0  0  0  0  0  0
   12.9725  -18.0704   20.2260 C   0  0  0  0  0  0  0  0  0  0  0  0
   14.1377  -17.7144   19.9522 O   0  0  0  0  0  0  0  0  0  0  0  0
    9.3996  -22.8045   18.8306 O   0  0  0  0  0  0  0  0  0  0  0  0
   12.5289  -17.8658   21.5557 N   0  0  0  0  0  0  0  0  0  0  0  0
   12.6425  -16.5744   22.2094 C   0  0  1  0  0  0  0  0  0  0  0  0
   12.0850  -15.4719   21.3327 C   0  0  0  0  0  0  0  0  0  0  0  0
   13.1286  -14.8612   20.4831 C   0  0  0  0  0  0  0  0  0  0  0  0
   14.4684  -15.1737   20.4765 C   0  0  0  0  0  0  0  0  0  0  0  0
   15.0611  -14.3933   19.5772 N   0  0  0  0  0  0  0  0  0  0  0  0
   14.1176  -13.5951   19.0178 C   0  0  0  0  0  0  0  0  0  0  0  0
   12.9252  -13.8738   19.5672 N   0  0  0  0  0  0  0  0  0  0  0  0
   12.0912  -16.5972   23.5655 C   0  0  0  0  0  0  0  0  0  0  0  0
   11.4242  -17.6396   24.1603 O   0  0  0  0  0  0  0  0  0  0  0  0
   12.2351  -15.5548   24.2773 O   0  0  0  0  0  0  0  0  0  0  0  0
  2  6  1  0
  2  1  1  6
  3  2  1  0
  3  4  1  0
  4  5  2  0
  6  7  2  0
  8  4  1  0
  9 10  1  0
  9  6  1  0
 10 11  1  1
 11 12  1  0
 12 13  1  0
 13 14  2  0
 13 17  1  0
 15 10  1  0
 16 15  2  0
 18 15  1  0
 19 20  1  6
 19 18  1  0
 20 21  1  0
 21 25  1  0
 21 22  2  0
 22 23  1  0
 24 23  1  0
 25 24  2  0
 26 19  1  0
 27 26  1  0
 28 26  2  0
M  END
$$$$
