HNH.pdb
     RDKit          3D

 29 30  0  0  1  0  0  0  0  0999 V2000
   20.9246  -13.2077  -16.0747 N   0  0  0  0  0  0  0  0  0  0  0  0
   20.3781  -11.9237  -16.4539 C   0  0  1  0  0  0  0  0  0  0  0  0
   19.0598  -11.6482  -15.7731 C   0  0  0  0  0  0  0  0  0  0  0  0
   18.0372  -12.6586  -16.1338 C   0  0  0  0  0  0  0  0  0  0  0  0
   17.0601  -12.4369  -17.0808 C   0  0  0  0  0  0  0  0  0  0  0  0
   16.2955  -13.5594  -17.1714 N   0  0  0  0  0  0  0  0  0  0  0  0
   16.7836  -14.4631  -16.3002 C   0  0  0  0  0  0  0  0  0  0  0  0
   17.8329  -13.9064  -15.6821 N   0  0  0  0  0  0  0  0  0  0  0  0
   21.3233  -10.8490  -16.1136 C   0  0  0  0  0  0  0  0  0  0  0  0
   21.5706  -10.5895  -14.9198 O   0  0  0  0  0  0  0  0  0  0  0  0
   24.7356   -7.0430  -16.4342 N   0  0  0  0  0  0  0  0  0  0  0  0
   24.9220   -7.8970  -17.5389 C   0  0  0  0  0  0  0  0  0  0  0  0
   25.9071   -7.7347  -18.2861 O   0  0  0  0  0  0  0  0  0  0  0  0
   23.9602   -8.9729  -17.8089 C   0  0  0  0  0  0  0  0  0  0  0  0
   22.8415   -9.0250  -16.8147 C   0  0  2  0  0  0  0  0  0  0  0  0
   21.9452  -10.1190  -17.1494 N   0  0  0  0  0  0  0  0  0  0  0  0
   22.1031   -7.7518  -16.8236 C   0  0  0  0  0  0  0  0  0  0  0  0
   21.1195   -7.6211  -17.5887 O   0  0  0  0  0  0  0  0  0  0  0  0
   22.5079   -6.6931  -15.9727 N   0  0  0  0  0  0  0  0  0  0  0  0
   21.5973   -5.6155  -15.6672 C   0  0  1  0  0  0  0  0  0  0  0  0
   20.2885   -6.0766  -15.1037 C   0  0  0  0  0  0  0  0  0  0  0  0
   19.3502   -4.9385  -14.8583 C   0  0  0  0  0  0  0  0  0  0  0  0
   19.5434   -3.9791  -13.8878 C   0  0  0  0  0  0  0  0  0  0  0  0
   18.5253   -3.1085  -13.9336 N   0  0  0  0  0  0  0  0  0  0  0  0
   17.7183   -3.5152  -14.9081 C   0  0  0  0  0  0  0  0  0  0  0  0
   18.2085   -4.6255  -15.4770 N   0  0  0  0  0  0  0  0  0  0  0  0
   22.2201   -4.6148  -14.7802 C   0  0  0  0  0  0  0  0  0  0  0  0
   23.2187   -4.8833  -14.1007 O   0  0  0  0  0  0  0  0  0  0  0  0
   21.6863   -3.3437  -14.6963 O   0  0  0  0  0  0  0  0  0  0  0  0
  2  1  1  1
  3  2  1  0
  3  4  1  0
  4  8  1  0
  5  4  2  0
  5  6  1  0
  6  7  1  0
  8  7  2  0
  9  2  1  0
  9 10  2  0
 12 14  1  0
 12 11  1  0
 13 12  2  0
 15 14  1  6
 15 17  1  0
 15 16  1  0
 16  9  1  0
 17 19  1  0
 18 17  2  0
 19 20  1  0
 20 27  1  0
 20 21  1  1
 22 21  1  0
 23 22  2  0
 24 25  1  0
 24 23  1  0
 25 26  2  0
 26 22  1  0
 27 28  2  0
 27 29  1  0
M  END
$$$$
