HNH.pdb
     RDKit          3D

 29 30  0  0  1  0  0  0  0  0999 V2000
   24.4801  -14.6172  -20.4234 N   0  0  0  0  0  0  0  0  0  0  0  0
   24.5679  -14.1695  -19.0512 C   0  0  1  0  0  0  0  0  0  0  0  0
   25.9715  -13.7565  -18.6810 C   0  0  0  0  0  0  0  0  0  0  0  0
   26.9111  -14.9012  -18.7407 C   0  0  0  0  0  0  0  0  0  0  0  0
   26.4982  -16.2165  -18.7260 C   0  0  0  0  0  0  0  0  0  0  0  0
   27.6031  -17.0082  -18.7977 N   0  0  0  0  0  0  0  0  0  0  0  0
   28.6832  -16.2058  -18.8557 C   0  0  0  0  0  0  0  0  0  0  0  0
   28.2509  -14.9389  -18.8205 N   0  0  0  0  0  0  0  0  0  0  0  0
   23.6629  -13.0311  -18.8296 C   0  0  0  0  0  0  0  0  0  0  0  0
   23.5208  -12.1646  -19.7142 O   0  0  0  0  0  0  0  0  0  0  0  0
   19.9582  -10.0174  -17.1164 N   0  0  0  0  0  0  0  0  0  0  0  0
   19.6550  -11.3672  -16.8512 C   0  0  0  0  0  0  0  0  0  0  0  0
   18.5009  -11.6839  -16.5004 O   0  0  0  0  0  0  0  0  0  0  0  0
   20.6935  -12.3962  -16.9872 C   0  0  0  0  0  0  0  0  0  0  0  0
   22.0178  -11.8423  -17.4138 C   0  0  2  0  0  0  0  0  0  0  0  0
   22.9593  -12.9320  -17.6098 N   0  0  0  0  0  0  0  0  0  0  0  0
   22.5283  -10.9176  -16.3888 C   0  0  0  0  0  0  0  0  0  0  0  0
   22.7279  -11.3426  -15.2271 O   0  0  0  0  0  0  0  0  0  0  0  0
   22.7880   -9.5648  -16.7225 N   0  0  0  0  0  0  0  0  0  0  0  0
   23.3450   -8.6663  -15.7396 C   0  0  1  0  0  0  0  0  0  0  0  0
   24.3540   -7.7125  -16.3012 C   0  0  0  0  0  0  0  0  0  0  0  0
   25.5927   -8.4119  -16.7622 C   0  0  0  0  0  0  0  0  0  0  0  0
   25.9151   -9.7079  -16.4215 C   0  0  0  0  0  0  0  0  0  0  0  0
   27.0827  -10.0271  -16.9972 N   0  0  0  0  0  0  0  0  0  0  0  0
   27.4775   -8.9570  -17.6793 C   0  0  0  0  0  0  0  0  0  0  0  0
   26.5811   -7.9697  -17.5443 N   0  0  0  0  0  0  0  0  0  0  0  0
   22.2891   -7.9359  -15.0132 C   0  0  0  0  0  0  0  0  0  0  0  0
   22.5559   -7.1743  -14.0753 O   0  0  0  0  0  0  0  0  0  0  0  0
   20.9667   -8.0966  -15.3780 O   0  0  0  0  0  0  0  0  0  0  0  0
  2  1  1  6
  3  2  1  0
  3  4  1  0
  4  8  1  0
  5  4  2  0
  5  6  1  0
  6  7  1  0
  8  7  2  0
  9  2  1  0
  9 10  2  0
 12 14  1  0
 12 11  1  0
 13 12  2  0
 15 14  1  1
 15 17  1  0
 15 16  1  0
 16  9  1  0
 17 19  1  0
 18 17  2  0
 19 20  1  0
 20 27  1  0
 20 21  1  6
 22 21  1  0
 23 22  2  0
 24 25  1  0
 24 23  1  0
 25 26  2  0
 26 22  1  0
 27 28  2  0
 27 29  1  0
M  END
$$$$
