HNH.pdb
     RDKit          3D

 29 30  0  0  1  0  0  0  0  0999 V2000
   18.7595   -9.2213  -17.6128 N   0  0  0  0  0  0  0  0  0  0  0  0
   18.2941   -8.2732  -18.6004 C   0  0  1  0  0  0  0  0  0  0  0  0
   17.0040   -8.7173  -19.2453 C   0  0  0  0  0  0  0  0  0  0  0  0
   17.1307  -10.0655  -19.8480 C   0  0  0  0  0  0  0  0  0  0  0  0
   18.3349  -10.5977  -20.2573 C   0  0  0  0  0  0  0  0  0  0  0  0
   18.1003  -11.8423  -20.7560 N   0  0  0  0  0  0  0  0  0  0  0  0
   16.7787  -12.0831  -20.6608 C   0  0  0  0  0  0  0  0  0  0  0  0
   16.2072  -11.0037  -20.1119 N   0  0  0  0  0  0  0  0  0  0  0  0
   18.0872   -6.9550  -17.9809 C   0  0  0  0  0  0  0  0  0  0  0  0
   17.7901   -5.9722  -18.6878 O   0  0  0  0  0  0  0  0  0  0  0  0
   15.3421   -5.2737  -16.6692 N   0  0  0  0  0  0  0  0  0  0  0  0
   15.6224   -5.5216  -15.3112 C   0  0  0  0  0  0  0  0  0  0  0  0
   14.6844   -5.6300  -14.4965 O   0  0  0  0  0  0  0  0  0  0  0  0
   17.0127   -5.6515  -14.8575 C   0  0  0  0  0  0  0  0  0  0  0  0
   18.0085   -5.5177  -15.9679 C   0  0  2  0  0  0  0  0  0  0  0  0
   18.2270   -6.8163  -16.5831 N   0  0  0  0  0  0  0  0  0  0  0  0
   19.2789   -4.9926  -15.4417 C   0  0  0  0  0  0  0  0  0  0  0  0
   19.2550   -4.0594  -14.6060 O   0  0  0  0  0  0  0  0  0  0  0  0
   20.5086   -5.5434  -15.8813 N   0  0  0  0  0  0  0  0  0  0  0  0
   21.7600   -4.9872  -15.4254 C   0  0  1  0  0  0  0  0  0  0  0  0
   22.8069   -6.0191  -15.1383 C   0  0  0  0  0  0  0  0  0  0  0  0
   22.2962   -7.1047  -14.2458 C   0  0  0  0  0  0  0  0  0  0  0  0
   21.0350   -7.1123  -13.6899 C   0  0  0  0  0  0  0  0  0  0  0  0
   20.8980   -8.2200  -12.9476 N   0  0  0  0  0  0  0  0  0  0  0  0
   22.0448   -8.8854  -13.0389 C   0  0  0  0  0  0  0  0  0  0  0  0
   22.9018   -8.2182  -13.8245 N   0  0  0  0  0  0  0  0  0  0  0  0
   22.2758   -3.9722  -16.3635 C   0  0  0  0  0  0  0  0  0  0  0  0
   21.7258   -3.7556  -17.4504 O   0  0  0  0  0  0  0  0  0  0  0  0
   23.3987   -3.2388  -16.0334 O   0  0  0  0  0  0  0  0  0  0  0  0
  2  1  1  1
  3  2  1  0
  3  4  1  0
  4  8  1  0
  5  4  2  0
  5  6  1  0
  6  7  1  0
  8  7  2  0
  9  2  1  0
  9 10  2  0
 12 14  1  0
 12 11  1  0
 13 12  2  0
 15 14  1  1
 15 17  1  0
 15 16  1  0
 16  9  1  0
 17 19  1  0
 18 17  2  0
 19 20  1  0
 20 27  1  0
 20 21  1  6
 22 21  1  0
 23 22  2  0
 24 25  1  0
 24 23  1  0
 25 26  2  0
 26 22  1  0
 27 28  2  0
 27 29  1  0
M  END
$$$$
