HNH.pdb
     RDKit          3D

 29 30  0  0  1  0  0  0  0  0999 V2000
   18.7283  -19.9080  -20.8828 N   0  0  0  0  0  0  0  0  0  0  0  0
   17.6436  -20.6190  -21.5222 C   0  0  1  0  0  0  0  0  0  0  0  0
   18.1372  -21.7958  -22.3277 C   0  0  0  0  0  0  0  0  0  0  0  0
   19.0380  -21.3678  -23.4241 C   0  0  0  0  0  0  0  0  0  0  0  0
   18.6812  -20.4298  -24.3695 C   0  0  0  0  0  0  0  0  0  0  0  0
   19.7306  -20.2662  -25.2209 N   0  0  0  0  0  0  0  0  0  0  0  0
   20.7216  -21.0837  -24.8170 C   0  0  0  0  0  0  0  0  0  0  0  0
   20.2901  -21.7412  -23.7333 N   0  0  0  0  0  0  0  0  0  0  0  0
   16.6875  -21.1005  -20.5131 C   0  0  0  0  0  0  0  0  0  0  0  0
   15.8665  -21.9917  -20.8055 O   0  0  0  0  0  0  0  0  0  0  0  0
   14.1653  -22.2997  -16.3742 N   0  0  0  0  0  0  0  0  0  0  0  0
   15.5327  -22.1521  -16.0697 C   0  0  0  0  0  0  0  0  0  0  0  0
   15.9850  -22.6300  -15.0104 O   0  0  0  0  0  0  0  0  0  0  0  0
   16.4209  -21.4384  -16.9957 C   0  0  0  0  0  0  0  0  0  0  0  0
   15.7246  -20.9727  -18.2371 C   0  0  2  0  0  0  0  0  0  0  0  0
   16.7108  -20.5453  -19.2154 N   0  0  0  0  0  0  0  0  0  0  0  0
   14.8209  -19.8561  -17.9162 C   0  0  0  0  0  0  0  0  0  0  0  0
   13.7178  -20.0992  -17.3740 O   0  0  0  0  0  0  0  0  0  0  0  0
   15.2037  -18.5259  -18.2209 N   0  0  0  0  0  0  0  0  0  0  0  0
   14.2589  -17.4446  -18.0744 C   0  0  1  0  0  0  0  0  0  0  0  0
   12.8355  -17.8569  -18.2914 C   0  0  0  0  0  0  0  0  0  0  0  0
   12.5120  -18.0177  -19.7424 C   0  0  0  0  0  0  0  0  0  0  0  0
   12.8902  -17.1204  -20.7178 C   0  0  0  0  0  0  0  0  0  0  0  0
   12.4442  -17.5591  -21.9033 N   0  0  0  0  0  0  0  0  0  0  0  0
   11.8045  -18.7008  -21.6721 C   0  0  0  0  0  0  0  0  0  0  0  0
   11.8388  -18.9899  -20.3637 N   0  0  0  0  0  0  0  0  0  0  0  0
   14.4095  -16.7658  -16.7733 C   0  0  0  0  0  0  0  0  0  0  0  0
   15.3152  -17.0675  -15.9861 O   0  0  0  0  0  0  0  0  0  0  0  0
   13.5255  -15.7679  -16.4123 O   0  0  0  0  0  0  0  0  0  0  0  0
  2  1  1  1
  3  2  1  0
  3  4  1  0
  4  8  1  0
  5  4  2  0
  5  6  1  0
  6  7  1  0
  8  7  2  0
  9  2  1  0
  9 10  2  0
 12 14  1  0
 12 11  1  0
 13 12  2  0
 15 14  1  1
 15 17  1  0
 15 16  1  0
 16  9  1  0
 17 19  1  0
 18 17  2  0
 19 20  1  0
 20 27  1  0
 20 21  1  1
 22 21  1  0
 23 22  2  0
 24 25  1  0
 24 23  1  0
 25 26  2  0
 26 22  1  0
 27 28  2  0
 27 29  1  0
M  END
$$$$
