HNH.pdb
     RDKit          3D

 29 30  0  0  1  0  0  0  0  0999 V2000
   28.5969  -20.7102  -16.9088 N   0  0  0  0  0  0  0  0  0  0  0  0
   27.9428  -19.7159  -16.0875 C   0  0  1  0  0  0  0  0  0  0  0  0
   27.2281  -18.6787  -16.9186 C   0  0  0  0  0  0  0  0  0  0  0  0
   28.1830  -17.7959  -17.6297 C   0  0  0  0  0  0  0  0  0  0  0  0
   29.3932  -17.4088  -17.0944 C   0  0  0  0  0  0  0  0  0  0  0  0
   30.0215  -16.6110  -18.0007 N   0  0  0  0  0  0  0  0  0  0  0  0
   29.2220  -16.5015  -19.0790 C   0  0  0  0  0  0  0  0  0  0  0  0
   28.1178  -17.2207  -18.8411 N   0  0  0  0  0  0  0  0  0  0  0  0
   26.9707  -20.3587  -15.1896 C   0  0  0  0  0  0  0  0  0  0  0  0
   26.1438  -21.1730  -15.6443 O   0  0  0  0  0  0  0  0  0  0  0  0
   25.9071  -22.0963   -9.7855 N   0  0  0  0  0  0  0  0  0  0  0  0
   25.4547  -20.9989  -10.5440 C   0  0  0  0  0  0  0  0  0  0  0  0
   24.2891  -20.5819  -10.3930 O   0  0  0  0  0  0  0  0  0  0  0  0
   26.3517  -20.3496  -11.5080 C   0  0  0  0  0  0  0  0  0  0  0  0
   25.9971  -20.6451  -12.9326 C   0  0  2  0  0  0  0  0  0  0  0  0
   26.9855  -20.0452  -13.8133 N   0  0  0  0  0  0  0  0  0  0  0  0
   24.6616  -20.1076  -13.2389 C   0  0  0  0  0  0  0  0  0  0  0  0
   24.5463  -18.9006  -13.5549 O   0  0  0  0  0  0  0  0  0  0  0  0
   23.5264  -20.9537  -13.1744 N   0  0  0  0  0  0  0  0  0  0  0  0
   22.2478  -20.4955  -13.6630 C   0  0  1  0  0  0  0  0  0  0  0  0
   22.2648  -20.0943  -15.1059 C   0  0  0  0  0  0  0  0  0  0  0  0
   20.9229  -19.6321  -15.5765 C   0  0  0  0  0  0  0  0  0  0  0  0
   19.9489  -19.1260  -14.7429 C   0  0  0  0  0  0  0  0  0  0  0  0
   18.8747  -18.8078  -15.4787 N   0  0  0  0  0  0  0  0  0  0  0  0
   19.1721  -19.1079  -16.7388 C   0  0  0  0  0  0  0  0  0  0  0  0
   20.4131  -19.6093  -16.8109 N   0  0  0  0  0  0  0  0  0  0  0  0
   21.1850  -21.4875  -13.4130 C   0  0  0  0  0  0  0  0  0  0  0  0
   20.0417  -21.1442  -13.0879 O   0  0  0  0  0  0  0  0  0  0  0  0
   21.4588  -22.8352  -13.5413 O   0  0  0  0  0  0  0  0  0  0  0  0
  2  1  1  6
  3  2  1  0
  3  4  1  0
  4  8  1  0
  5  4  2  0
  5  6  1  0
  6  7  1  0
  8  7  2  0
  9  2  1  0
  9 10  2  0
 12 14  1  0
 12 11  1  0
 13 12  2  0
 15 14  1  1
 15 17  1  0
 15 16  1  0
 16  9  1  0
 17 19  1  0
 18 17  2  0
 19 20  1  0
 20 27  1  0
 20 21  1  6
 22 21  1  0
 23 22  2  0
 24 25  1  0
 24 23  1  0
 25 26  2  0
 26 22  1  0
 27 28  2  0
 27 29  1  0
M  END
$$$$
