HNH.pdb
     RDKit          3D

 29 30  0  0  1  0  0  0  0  0999 V2000
   40.8984  -25.9881    4.2938 N   0  0  0  0  0  0  0  0  0  0  0  0
   39.5885  -26.0235    3.6823 C   0  0  1  0  0  0  0  0  0  0  0  0
   39.3235  -27.3389    2.9917 C   0  0  0  0  0  0  0  0  0  0  0  0
   40.3027  -27.5943    1.9088 C   0  0  0  0  0  0  0  0  0  0  0  0
   41.3309  -26.7282    1.6031 C   0  0  0  0  0  0  0  0  0  0  0  0
   42.0407  -27.2609    0.5711 N   0  0  0  0  0  0  0  0  0  0  0  0
   41.4691  -28.4341    0.2386 C   0  0  0  0  0  0  0  0  0  0  0  0
   40.4230  -28.6219    1.0531 N   0  0  0  0  0  0  0  0  0  0  0  0
   38.5477  -25.8009    4.6978 C   0  0  0  0  0  0  0  0  0  0  0  0
   38.6551  -26.3191    5.8263 O   0  0  0  0  0  0  0  0  0  0  0  0
   35.3447  -22.7621    7.6261 N   0  0  0  0  0  0  0  0  0  0  0  0
   34.9107  -23.0337    6.3138 C   0  0  0  0  0  0  0  0  0  0  0  0
   33.6945  -22.9833    6.0423 O   0  0  0  0  0  0  0  0  0  0  0  0
   35.8861  -23.3748    5.2708 C   0  0  0  0  0  0  0  0  0  0  0  0
   36.4024  -24.7759    5.3841 C   0  0  2  0  0  0  0  0  0  0  0  0
   37.4315  -24.9965    4.3818 N   0  0  0  0  0  0  0  0  0  0  0  0
   35.3014  -25.7333    5.1906 C   0  0  0  0  0  0  0  0  0  0  0  0
   34.6238  -25.6808    4.1380 O   0  0  0  0  0  0  0  0  0  0  0  0
   35.0197  -26.6990    6.1890 N   0  0  0  0  0  0  0  0  0  0  0  0
   33.8711  -27.5639    6.0621 C   0  0  1  0  0  0  0  0  0  0  0  0
   34.2203  -29.0179    5.9772 C   0  0  0  0  0  0  0  0  0  0  0  0
   34.6592  -29.4110    4.6028 C   0  0  0  0  0  0  0  0  0  0  0  0
   34.6841  -28.5483    3.5282 C   0  0  0  0  0  0  0  0  0  0  0  0
   35.1255  -29.2137    2.4516 N   0  0  0  0  0  0  0  0  0  0  0  0
   35.3693  -30.4593    2.8456 C   0  0  0  0  0  0  0  0  0  0  0  0
   35.0899  -30.5915    4.1499 N   0  0  0  0  0  0  0  0  0  0  0  0
   32.8931  -27.3277    7.1410 C   0  0  0  0  0  0  0  0  0  0  0  0
   31.7991  -27.9054    7.1618 O   0  0  0  0  0  0  0  0  0  0  0  0
   33.1926  -26.4431    8.1586 O   0  0  0  0  0  0  0  0  0  0  0  0
  2  1  1  1
  3  2  1  0
  3  4  1  0
  4  8  1  0
  5  4  2  0
  5  6  1  0
  6  7  1  0
  8  7  2  0
  9  2  1  0
  9 10  2  0
 12 14  1  0
 12 11  1  0
 13 12  2  0
 15 14  1  6
 15 17  1  0
 15 16  1  0
 16  9  1  0
 17 19  1  0
 18 17  2  0
 19 20  1  0
 20 27  1  0
 20 21  1  1
 22 21  1  0
 23 22  2  0
 24 25  1  0
 24 23  1  0
 25 26  2  0
 26 22  1  0
 27 28  2  0
 27 29  1  0
M  END
$$$$
