HNH.pdb
     RDKit          3D

 29 30  0  0  1  0  0  0  0  0999 V2000
   25.2548  -15.4080  -17.3254 N   0  0  0  0  0  0  0  0  0  0  0  0
   25.1496  -14.0818  -17.8922 C   0  0  1  0  0  0  0  0  0  0  0  0
   24.0891  -14.0083  -18.9634 C   0  0  0  0  0  0  0  0  0  0  0  0
   24.4462  -14.8320  -20.1427 C   0  0  0  0  0  0  0  0  0  0  0  0
   25.5488  -15.6589  -20.1782 C   0  0  0  0  0  0  0  0  0  0  0  0
   25.5819  -16.2688  -21.3947 N   0  0  0  0  0  0  0  0  0  0  0  0
   24.5235  -15.8329  -22.1043 C   0  0  0  0  0  0  0  0  0  0  0  0
   23.8482  -14.9677  -21.3372 N   0  0  0  0  0  0  0  0  0  0  0  0
   24.8320  -13.1037  -16.8402 C   0  0  0  0  0  0  0  0  0  0  0  0
   23.9018  -13.3260  -16.0408 O   0  0  0  0  0  0  0  0  0  0  0  0
   28.4470  -10.5572  -16.6952 N   0  0  0  0  0  0  0  0  0  0  0  0
   27.4160   -9.7899  -16.1185 C   0  0  0  0  0  0  0  0  0  0  0  0
   27.2710   -8.5977  -16.4546 O   0  0  0  0  0  0  0  0  0  0  0  0
   26.5167  -10.3915  -15.1260 C   0  0  0  0  0  0  0  0  0  0  0  0
   25.2573  -10.9351  -15.7267 C   0  0  2  0  0  0  0  0  0  0  0  0
   25.5897  -11.9165  -16.7458 N   0  0  0  0  0  0  0  0  0  0  0  0
   24.4727   -9.8412  -16.3218 C   0  0  0  0  0  0  0  0  0  0  0  0
   24.3963   -9.7523  -17.5693 O   0  0  0  0  0  0  0  0  0  0  0  0
   23.8152   -8.9053  -15.4848 N   0  0  0  0  0  0  0  0  0  0  0  0
   22.4637   -8.4907  -15.7767 C   0  0  1  0  0  0  0  0  0  0  0  0
   21.5158   -9.6324  -15.9797 C   0  0  0  0  0  0  0  0  0  0  0  0
   21.3313   -9.9591  -17.4272 C   0  0  0  0  0  0  0  0  0  0  0  0
   21.9494   -9.2776  -18.4533 C   0  0  0  0  0  0  0  0  0  0  0  0
   21.5722   -9.8200  -19.6196 N   0  0  0  0  0  0  0  0  0  0  0  0
   20.7403  -10.8142  -19.3273 C   0  0  0  0  0  0  0  0  0  0  0  0
   20.5859  -10.9086  -17.9991 N   0  0  0  0  0  0  0  0  0  0  0  0
   21.9477   -7.5642  -14.7513 C   0  0  0  0  0  0  0  0  0  0  0  0
   22.5398   -7.3893  -13.6791 O   0  0  0  0  0  0  0  0  0  0  0  0
   20.7766   -6.8687  -14.9804 O   0  0  0  0  0  0  0  0  0  0  0  0
  2  1  1  1
  3  2  1  0
  3  4  1  0
  4  8  1  0
  5  4  2  0
  5  6  1  0
  6  7  1  0
  8  7  2  0
  9  2  1  0
  9 10  2  0
 12 14  1  0
 12 11  1  0
 13 12  2  0
 15 14  1  6
 15 17  1  0
 15 16  1  0
 16  9  1  0
 17 19  1  0
 18 17  2  0
 19 20  1  0
 20 27  1  0
 20 21  1  1
 22 21  1  0
 23 22  2  0
 24 25  1  0
 24 23  1  0
 25 26  2  0
 26 22  1  0
 27 28  2  0
 27 29  1  0
M  END
$$$$
