HNH.pdb
     RDKit          3D

 29 30  0  0  1  0  0  0  0  0999 V2000
   21.4020  -12.0385  -16.7180 N   0  0  0  0  0  0  0  0  0  0  0  0
   20.1512  -11.3318  -16.8818 C   0  0  1  0  0  0  0  0  0  0  0  0
   18.9671  -12.1823  -16.4916 C   0  0  0  0  0  0  0  0  0  0  0  0
   18.9360  -13.4556  -17.2495 C   0  0  0  0  0  0  0  0  0  0  0  0
   18.6064  -13.5289  -18.5862 C   0  0  0  0  0  0  0  0  0  0  0  0
   18.6793  -14.8330  -18.9695 N   0  0  0  0  0  0  0  0  0  0  0  0
   19.0462  -15.5592  -17.8963 C   0  0  0  0  0  0  0  0  0  0  0  0
   19.1973  -14.7159  -16.8672 N   0  0  0  0  0  0  0  0  0  0  0  0
   20.1483  -10.1085  -16.0647 C   0  0  0  0  0  0  0  0  0  0  0  0
   19.6183  -10.1121  -14.9365 O   0  0  0  0  0  0  0  0  0  0  0  0
   21.0120   -5.6278  -13.9672 N   0  0  0  0  0  0  0  0  0  0  0  0
   21.6948   -6.8167  -13.6435 C   0  0  0  0  0  0  0  0  0  0  0  0
   22.4142   -6.8585  -12.6257 O   0  0  0  0  0  0  0  0  0  0  0  0
   21.5598   -8.0007  -14.5011 C   0  0  0  0  0  0  0  0  0  0  0  0
   20.7777   -7.7360  -15.7504 C   0  0  2  0  0  0  0  0  0  0  0  0
   20.7508   -8.9360  -16.5697 N   0  0  0  0  0  0  0  0  0  0  0  0
   21.3925   -6.6299  -16.5020 C   0  0  0  0  0  0  0  0  0  0  0  0
   22.4222   -6.8505  -17.1811 O   0  0  0  0  0  0  0  0  0  0  0  0
   20.8186   -5.3350  -16.4518 N   0  0  0  0  0  0  0  0  0  0  0  0
   21.3334   -4.2772  -17.2881 C   0  0  1  0  0  0  0  0  0  0  0  0
   20.2682   -3.5033  -18.0019 C   0  0  0  0  0  0  0  0  0  0  0  0
   19.5422   -4.3407  -19.0056 C   0  0  0  0  0  0  0  0  0  0  0  0
   20.1518   -4.9552  -20.0782 C   0  0  0  0  0  0  0  0  0  0  0  0
   19.2235   -5.6239  -20.7765 N   0  0  0  0  0  0  0  0  0  0  0  0
   18.0649   -5.4309  -20.1547 C   0  0  0  0  0  0  0  0  0  0  0  0
   18.2455   -4.6532  -19.0779 N   0  0  0  0  0  0  0  0  0  0  0  0
   22.2155   -3.3687  -16.5312 C   0  0  0  0  0  0  0  0  0  0  0  0
   22.4086   -3.5148  -15.3179 O   0  0  0  0  0  0  0  0  0  0  0  0
   22.8473   -2.3258  -17.1799 O   0  0  0  0  0  0  0  0  0  0  0  0
  2  1  1  1
  3  2  1  0
  3  4  1  0
  4  8  1  0
  5  4  2  0
  5  6  1  0
  6  7  1  0
  8  7  2  0
  9  2  1  0
  9 10  2  0
 12 14  1  0
 12 11  1  0
 13 12  2  0
 15 14  1  1
 15 17  1  0
 15 16  1  0
 16  9  1  0
 17 19  1  0
 18 17  2  0
 19 20  1  0
 20 27  1  0
 20 21  1  1
 22 21  1  0
 23 22  2  0
 24 25  1  0
 24 23  1  0
 25 26  2  0
 26 22  1  0
 27 28  2  0
 27 29  1  0
M  END
$$$$
