HNH.pdb
     RDKit          3D

 29 30  0  0  1  0  0  0  0  0999 V2000
   34.6031  -30.7684  -20.1370 N   0  0  0  0  0  0  0  0  0  0  0  0
   33.6025  -30.4437  -19.1449 C   0  0  1  0  0  0  0  0  0  0  0  0
   32.9870  -29.0873  -19.3871 C   0  0  0  0  0  0  0  0  0  0  0  0
   33.9883  -28.0022  -19.2579 C   0  0  0  0  0  0  0  0  0  0  0  0
   34.6886  -27.7577  -18.0958 C   0  0  0  0  0  0  0  0  0  0  0  0
   35.5222  -26.7047  -18.3171 N   0  0  0  0  0  0  0  0  0  0  0  0
   35.3471  -26.2995  -19.5895 C   0  0  0  0  0  0  0  0  0  0  0  0
   34.4199  -27.0905  -20.1441 N   0  0  0  0  0  0  0  0  0  0  0  0
   32.5365  -31.4575  -19.1481 C   0  0  0  0  0  0  0  0  0  0  0  0
   31.9356  -31.7288  -20.2060 O   0  0  0  0  0  0  0  0  0  0  0  0
   32.5038  -36.3589  -16.3406 N   0  0  0  0  0  0  0  0  0  0  0  0
   32.4677  -35.1873  -17.1217 C   0  0  0  0  0  0  0  0  0  0  0  0
   33.2607  -35.0556  -18.0751 O   0  0  0  0  0  0  0  0  0  0  0  0
   31.5007  -34.1261  -16.8141 C   0  0  0  0  0  0  0  0  0  0  0  0
   31.2454  -33.2098  -17.9707 C   0  0  2  0  0  0  0  0  0  0  0  0
   32.2039  -32.1176  -17.9455 N   0  0  0  0  0  0  0  0  0  0  0  0
   29.8758  -32.6761  -17.8948 C   0  0  0  0  0  0  0  0  0  0  0  0
   29.6263  -31.7446  -17.0947 O   0  0  0  0  0  0  0  0  0  0  0  0
   28.8590  -33.2162  -18.7213 N   0  0  0  0  0  0  0  0  0  0  0  0
   27.5327  -32.6467  -18.7106 C   0  0  1  0  0  0  0  0  0  0  0  0
   27.1064  -32.0923  -20.0350 C   0  0  0  0  0  0  0  0  0  0  0  0
   27.8087  -30.8131  -20.3612 C   0  0  0  0  0  0  0  0  0  0  0  0
   28.7459  -30.2209  -19.5423 C   0  0  0  0  0  0  0  0  0  0  0  0
   29.1779  -29.0943  -20.1261 N   0  0  0  0  0  0  0  0  0  0  0  0
   28.5263  -28.9875  -21.2795 C   0  0  0  0  0  0  0  0  0  0  0  0
   27.6920  -30.0253  -21.4336 N   0  0  0  0  0  0  0  0  0  0  0  0
   26.5343  -33.6078  -18.2051 C   0  0  0  0  0  0  0  0  0  0  0  0
   26.8420  -34.7717  -17.9194 O   0  0  0  0  0  0  0  0  0  0  0  0
   25.2210  -33.2126  -18.0419 O   0  0  0  0  0  0  0  0  0  0  0  0
  2  1  1  6
  3  2  1  0
  3  4  1  0
  4  8  1  0
  5  4  2  0
  5  6  1  0
  6  7  1  0
  8  7  2  0
  9  2  1  0
  9 10  2  0
 12 14  1  0
 12 11  1  0
 13 12  2  0
 15 14  1  1
 15 17  1  0
 15 16  1  0
 16  9  1  0
 17 19  1  0
 18 17  2  0
 19 20  1  0
 20 27  1  0
 20 21  1  6
 22 21  1  0
 23 22  2  0
 24 25  1  0
 24 23  1  0
 25 26  2  0
 26 22  1  0
 27 28  2  0
 27 29  1  0
M  END
$$$$
