HNH.pdb
     RDKit          3D

 29 30  0  0  1  0  0  0  0  0999 V2000
   15.1663  -18.9370    6.1376 N   0  0  0  0  0  0  0  0  0  0  0  0
   16.5853  -19.1031    5.9144 C   0  0  1  0  0  0  0  0  0  0  0  0
   17.0283  -18.4820    4.6124 C   0  0  0  0  0  0  0  0  0  0  0  0
   16.4264  -19.1706    3.4461 C   0  0  0  0  0  0  0  0  0  0  0  0
   16.9809  -20.2904    2.8636 C   0  0  0  0  0  0  0  0  0  0  0  0
   16.1818  -20.6695    1.8289 N   0  0  0  0  0  0  0  0  0  0  0  0
   15.1504  -19.8058    1.7657 C   0  0  0  0  0  0  0  0  0  0  0  0
   15.3110  -18.9082    2.7462 N   0  0  0  0  0  0  0  0  0  0  0  0
   17.3473  -18.4943    7.0157 C   0  0  0  0  0  0  0  0  0  0  0  0
   17.0548  -17.3525    7.4213 O   0  0  0  0  0  0  0  0  0  0  0  0
   22.2006  -19.5612   10.6376 N   0  0  0  0  0  0  0  0  0  0  0  0
   20.8999  -19.0840   10.3831 C   0  0  0  0  0  0  0  0  0  0  0  0
   20.4012  -18.2202   11.1316 O   0  0  0  0  0  0  0  0  0  0  0  0
   20.1352  -19.6020    9.2418 C   0  0  0  0  0  0  0  0  0  0  0  0
   19.2007  -18.5911    8.6525 C   0  0  2  0  0  0  0  0  0  0  0  0
   18.4078  -19.2148    7.6063 N   0  0  0  0  0  0  0  0  0  0  0  0
   19.9669  -17.4643    8.0960 C   0  0  0  0  0  0  0  0  0  0  0  0
   19.9972  -17.2999    6.8542 O   0  0  0  0  0  0  0  0  0  0  0  0
   20.6581  -16.5816    8.9631 N   0  0  0  0  0  0  0  0  0  0  0  0
   20.7926  -15.1850    8.6245 C   0  0  1  0  0  0  0  0  0  0  0  0
   19.5070  -14.5423    8.2035 C   0  0  0  0  0  0  0  0  0  0  0  0
   19.7248  -13.4518    7.2039 C   0  0  0  0  0  0  0  0  0  0  0  0
   20.9562  -13.1283    6.6760 C   0  0  0  0  0  0  0  0  0  0  0  0
   20.8027  -12.1125    5.8152 N   0  0  0  0  0  0  0  0  0  0  0  0
   19.5084  -11.8108    5.8070 C   0  0  0  0  0  0  0  0  0  0  0  0
   18.8435  -12.6171    6.6463 N   0  0  0  0  0  0  0  0  0  0  0  0
   21.4207  -14.4202    9.7186 C   0  0  0  0  0  0  0  0  0  0  0  0
   21.7111  -13.2245    9.5897 O   0  0  0  0  0  0  0  0  0  0  0  0
   21.6968  -15.0413   10.9210 O   0  0  0  0  0  0  0  0  0  0  0  0
  2  1  1  1
  3  2  1  0
  3  4  1  0
  4  8  1  0
  5  4  2  0
  5  6  1  0
  6  7  1  0
  8  7  2  0
  9  2  1  0
  9 10  2  0
 12 14  1  0
 12 11  1  0
 13 12  2  0
 15 14  1  6
 15 17  1  0
 15 16  1  0
 16  9  1  0
 17 19  1  0
 18 17  2  0
 19 20  1  0
 20 27  1  0
 20 21  1  1
 22 21  1  0
 23 22  2  0
 24 25  1  0
 24 23  1  0
 25 26  2  0
 26 22  1  0
 27 28  2  0
 27 29  1  0
M  END
$$$$
