HNH.pdb
     RDKit          3D

 29 30  0  0  1  0  0  0  0  0999 V2000
   25.8422  -19.3790  -17.2438 N   0  0  0  0  0  0  0  0  0  0  0  0
   25.4187  -18.7908  -15.9926 C   0  0  1  0  0  0  0  0  0  0  0  0
   24.9660  -17.3616  -16.1654 C   0  0  0  0  0  0  0  0  0  0  0  0
   26.0781  -16.4858  -16.6046 C   0  0  0  0  0  0  0  0  0  0  0  0
   26.2378  -16.0673  -17.9085 C   0  0  0  0  0  0  0  0  0  0  0  0
   27.3452  -15.2781  -17.9675 N   0  0  0  0  0  0  0  0  0  0  0  0
   27.8667  -15.2047  -16.7279 C   0  0  0  0  0  0  0  0  0  0  0  0
   27.0927  -15.9372  -15.9172 N   0  0  0  0  0  0  0  0  0  0  0  0
   24.3161  -19.5723  -15.4115 C   0  0  0  0  0  0  0  0  0  0  0  0
   23.5476  -20.2152  -16.1529 O   0  0  0  0  0  0  0  0  0  0  0  0
   25.8315  -21.3813  -11.1785 N   0  0  0  0  0  0  0  0  0  0  0  0
   24.7635  -21.6928  -12.0427 C   0  0  0  0  0  0  0  0  0  0  0  0
   24.8499  -22.6788  -12.8013 O   0  0  0  0  0  0  0  0  0  0  0  0
   23.5545  -20.8598  -12.0499 C   0  0  0  0  0  0  0  0  0  0  0  0
   23.1290  -20.4527  -13.4267 C   0  0  2  0  0  0  0  0  0  0  0  0
   24.1396  -19.5870  -14.0110 N   0  0  0  0  0  0  0  0  0  0  0  0
   21.8393  -19.7461  -13.3646 C   0  0  0  0  0  0  0  0  0  0  0  0
   21.6473  -18.9032  -12.4577 O   0  0  0  0  0  0  0  0  0  0  0  0
   20.8337  -20.0232  -14.3242 N   0  0  0  0  0  0  0  0  0  0  0  0
   19.5952  -19.2820  -14.3159 C   0  0  1  0  0  0  0  0  0  0  0  0
   19.3142  -18.5671  -15.6017 C   0  0  0  0  0  0  0  0  0  0  0  0
   20.3491  -17.5317  -15.9067 C   0  0  0  0  0  0  0  0  0  0  0  0
   21.2670  -17.6409  -16.9290 C   0  0  0  0  0  0  0  0  0  0  0  0
   22.0442  -16.5490  -16.9288 N   0  0  0  0  0  0  0  0  0  0  0  0
   21.6212  -15.7790  -15.9316 C   0  0  0  0  0  0  0  0  0  0  0  0
   20.5922  -16.3651  -15.3035 N   0  0  0  0  0  0  0  0  0  0  0  0
   18.4542  -20.1375  -13.9382 C   0  0  0  0  0  0  0  0  0  0  0  0
   18.4732  -21.3610  -14.1212 O   0  0  0  0  0  0  0  0  0  0  0  0
   17.3315  -19.5724  -13.3656 O   0  0  0  0  0  0  0  0  0  0  0  0
  2  1  1  6
  3  2  1  0
  3  4  1  0
  4  8  1  0
  5  4  2  0
  5  6  1  0
  6  7  1  0
  8  7  2  0
  9  2  1  0
  9 10  2  0
 12 14  1  0
 12 11  1  0
 13 12  2  0
 15 14  1  1
 15 17  1  0
 15 16  1  0
 16  9  1  0
 17 19  1  0
 18 17  2  0
 19 20  1  0
 20 27  1  0
 20 21  1  6
 22 21  1  0
 23 22  2  0
 24 25  1  0
 24 23  1  0
 25 26  2  0
 26 22  1  0
 27 28  2  0
 27 29  1  0
M  END
$$$$
