HNH.pdb
     RDKit          3D

 29 30  0  0  1  0  0  0  0  0999 V2000
   20.5177  -15.6465  -18.1175 N   0  0  0  0  0  0  0  0  0  0  0  0
   20.5469  -14.8643  -16.9016 C   0  0  1  0  0  0  0  0  0  0  0  0
   21.6738  -15.2820  -15.9888 C   0  0  0  0  0  0  0  0  0  0  0  0
   21.5187  -16.6848  -15.5364 C   0  0  0  0  0  0  0  0  0  0  0  0
   20.4786  -17.4955  -15.9385 C   0  0  0  0  0  0  0  0  0  0  0  0
   20.6370  -18.7118  -15.3482 N   0  0  0  0  0  0  0  0  0  0  0  0
   21.7514  -18.6628  -14.5936 C   0  0  0  0  0  0  0  0  0  0  0  0
   22.2721  -17.4354  -14.7167 N   0  0  0  0  0  0  0  0  0  0  0  0
   20.6970  -13.4360  -17.2201 C   0  0  0  0  0  0  0  0  0  0  0  0
   21.4773  -13.0759  -18.1230 O   0  0  0  0  0  0  0  0  0  0  0  0
   17.6520  -10.2423  -19.3649 N   0  0  0  0  0  0  0  0  0  0  0  0
   17.8903  -11.1067  -18.2785 C   0  0  0  0  0  0  0  0  0  0  0  0
   17.5362  -12.3003  -18.3493 O   0  0  0  0  0  0  0  0  0  0  0  0
   18.5523  -10.6038  -17.0683 C   0  0  0  0  0  0  0  0  0  0  0  0
   19.9602  -11.0925  -16.9219 C   0  0  2  0  0  0  0  0  0  0  0  0
   19.9500  -12.4820  -16.4959 N   0  0  0  0  0  0  0  0  0  0  0  0
   20.6761  -10.2706  -15.9327 C   0  0  0  0  0  0  0  0  0  0  0  0
   20.3658  -10.3628  -14.7222 O   0  0  0  0  0  0  0  0  0  0  0  0
   21.7024   -9.3890  -16.3549 N   0  0  0  0  0  0  0  0  0  0  0  0
   22.3086   -8.4748  -15.4168 C   0  0  1  0  0  0  0  0  0  0  0  0
   23.7367   -8.1506  -15.7314 C   0  0  0  0  0  0  0  0  0  0  0  0
   24.6274   -9.3436  -15.5927 C   0  0  0  0  0  0  0  0  0  0  0  0
   24.1967  -10.5770  -15.1535 C   0  0  0  0  0  0  0  0  0  0  0  0
   25.2388  -11.4199  -15.1462 N   0  0  0  0  0  0  0  0  0  0  0  0
   26.2920  -10.7291  -15.5701 C   0  0  0  0  0  0  0  0  0  0  0  0
   25.9334   -9.4670  -15.8443 N   0  0  0  0  0  0  0  0  0  0  0  0
   21.5155   -7.2390  -15.2748 C   0  0  0  0  0  0  0  0  0  0  0  0
   20.5822   -6.9762  -16.0432 O   0  0  0  0  0  0  0  0  0  0  0  0
   21.8110   -6.3451  -14.2642 O   0  0  0  0  0  0  0  0  0  0  0  0
  2  1  1  6
  3  2  1  0
  3  4  1  0
  4  8  1  0
  5  4  2  0
  5  6  1  0
  6  7  1  0
  8  7  2  0
  9  2  1  0
  9 10  2  0
 12 14  1  0
 12 11  1  0
 13 12  2  0
 15 14  1  1
 15 17  1  0
 15 16  1  0
 16  9  1  0
 17 19  1  0
 18 17  2  0
 19 20  1  0
 20 27  1  0
 20 21  1  6
 22 21  1  0
 23 22  2  0
 24 25  1  0
 24 23  1  0
 25 26  2  0
 26 22  1  0
 27 28  2  0
 27 29  1  0
M  END
$$$$
