HNH.pdb
     RDKit          3D

 29 30  0  0  1  0  0  0  0  0999 V2000
   18.4157  -12.3455  -15.9685 N   0  0  0  0  0  0  0  0  0  0  0  0
   19.1502  -11.4715  -16.8559 C   0  0  1  0  0  0  0  0  0  0  0  0
   18.5835  -11.4813  -18.2545 C   0  0  0  0  0  0  0  0  0  0  0  0
   18.6079  -12.8410  -18.8441 C   0  0  0  0  0  0  0  0  0  0  0  0
   19.6815  -13.3351  -19.5541 C   0  0  0  0  0  0  0  0  0  0  0  0
   19.3815  -14.6031  -19.9477 N   0  0  0  0  0  0  0  0  0  0  0  0
   18.1476  -14.8956  -19.4939 C   0  0  0  0  0  0  0  0  0  0  0  0
   17.6939  -13.8244  -18.8308 N   0  0  0  0  0  0  0  0  0  0  0  0
   19.1286  -10.0927  -16.3433 C   0  0  0  0  0  0  0  0  0  0  0  0
   18.0594   -9.5913  -15.9444 O   0  0  0  0  0  0  0  0  0  0  0  0
   19.4687   -8.5536  -13.1077 N   0  0  0  0  0  0  0  0  0  0  0  0
   20.8504   -8.3487  -13.2896 C   0  0  0  0  0  0  0  0  0  0  0  0
   21.6263   -8.4732  -12.3212 O   0  0  0  0  0  0  0  0  0  0  0  0
   21.3741   -7.9900  -14.6135 C   0  0  0  0  0  0  0  0  0  0  0  0
   20.3329   -8.0323  -15.6890 C   0  0  2  0  0  0  0  0  0  0  0  0
   20.3270   -9.3476  -16.3074 N   0  0  0  0  0  0  0  0  0  0  0  0
   20.6169   -7.0035  -16.7026 C   0  0  0  0  0  0  0  0  0  0  0  0
   21.6475   -7.1080  -17.4074 O   0  0  0  0  0  0  0  0  0  0  0  0
   19.7285   -5.9122  -16.8713 N   0  0  0  0  0  0  0  0  0  0  0  0
   20.0067   -4.8918  -17.8536 C   0  0  1  0  0  0  0  0  0  0  0  0
   18.8115   -4.4978  -18.6656 C   0  0  0  0  0  0  0  0  0  0  0  0
   18.2989   -5.6300  -19.4971 C   0  0  0  0  0  0  0  0  0  0  0  0
   19.0561   -6.2988  -20.4345 C   0  0  0  0  0  0  0  0  0  0  0  0
   18.3009   -7.2522  -20.9980 N   0  0  0  0  0  0  0  0  0  0  0  0
   17.1036   -7.1790  -20.4259 C   0  0  0  0  0  0  0  0  0  0  0  0
   17.0899   -6.1977  -19.5128 N   0  0  0  0  0  0  0  0  0  0  0  0
   20.6309   -3.7045  -17.2397 C   0  0  0  0  0  0  0  0  0  0  0  0
   21.0140   -2.7472  -17.9236 O   0  0  0  0  0  0  0  0  0  0  0  0
   20.7979   -3.6466  -15.8699 O   0  0  0  0  0  0  0  0  0  0  0  0
  2  1  1  1
  3  2  1  0
  3  4  1  0
  4  8  1  0
  5  4  2  0
  5  6  1  0
  6  7  1  0
  8  7  2  0
  9  2  1  0
  9 10  2  0
 12 14  1  0
 12 11  1  0
 13 12  2  0
 15 14  1  1
 15 17  1  0
 15 16  1  0
 16  9  1  0
 17 19  1  0
 18 17  2  0
 19 20  1  0
 20 27  1  0
 20 21  1  1
 22 21  1  0
 23 22  2  0
 24 25  1  0
 24 23  1  0
 25 26  2  0
 26 22  1  0
 27 28  2  0
 27 29  1  0
M  END
$$$$
