HNH.pdb
     RDKit          3D

 29 30  0  0  1  0  0  0  0  0999 V2000
   29.4048  -21.3610  -10.6838 N   0  0  0  0  0  0  0  0  0  0  0  0
   28.9846  -20.8070  -11.9517 C   0  0  1  0  0  0  0  0  0  0  0  0
   29.8184  -21.3248  -13.0980 C   0  0  0  0  0  0  0  0  0  0  0  0
   31.1304  -21.8338  -12.6327 C   0  0  0  0  0  0  0  0  0  0  0  0
   31.4675  -21.9405  -11.3001 C   0  0  0  0  0  0  0  0  0  0  0  0
   32.7300  -22.4431  -11.2215 N   0  0  0  0  0  0  0  0  0  0  0  0
   33.1727  -22.6461  -12.4771 C   0  0  0  0  0  0  0  0  0  0  0  0
   32.1982  -22.2745  -13.3169 N   0  0  0  0  0  0  0  0  0  0  0  0
   27.5725  -21.1328  -12.2051 C   0  0  0  0  0  0  0  0  0  0  0  0
   27.2733  -22.1640  -12.8382 O   0  0  0  0  0  0  0  0  0  0  0  0
   25.6476  -20.0169   -8.4561 N   0  0  0  0  0  0  0  0  0  0  0  0
   25.2121  -20.9302   -9.4363 C   0  0  0  0  0  0  0  0  0  0  0  0
   25.4822  -22.1416   -9.3154 O   0  0  0  0  0  0  0  0  0  0  0  0
   24.4441  -20.4572  -10.5948 C   0  0  0  0  0  0  0  0  0  0  0  0
   25.1685  -20.6358  -11.8932 C   0  0  2  0  0  0  0  0  0  0  0  0
   26.5647  -20.2691  -11.7246 N   0  0  0  0  0  0  0  0  0  0  0  0
   24.5515  -19.7945  -12.9315 C   0  0  0  0  0  0  0  0  0  0  0  0
   25.2442  -18.9184  -13.4996 O   0  0  0  0  0  0  0  0  0  0  0  0
   23.1899  -19.9816  -13.2771 N   0  0  0  0  0  0  0  0  0  0  0  0
   22.8029  -20.1271  -14.6601 C   0  0  1  0  0  0  0  0  0  0  0  0
   23.4960  -21.2538  -15.3625 C   0  0  0  0  0  0  0  0  0  0  0  0
   24.7315  -20.7990  -16.0713 C   0  0  0  0  0  0  0  0  0  0  0  0
   25.1632  -19.4904  -16.0995 C   0  0  0  0  0  0  0  0  0  0  0  0
   26.2946  -19.4252  -16.8153 N   0  0  0  0  0  0  0  0  0  0  0  0
   26.5609  -20.6618  -17.2226 C   0  0  0  0  0  0  0  0  0  0  0  0
   25.6189  -21.5050  -16.7772 N   0  0  0  0  0  0  0  0  0  0  0  0
   21.3397  -20.2484  -14.8035 C   0  0  0  0  0  0  0  0  0  0  0  0
   20.7376  -21.2729  -14.4592 O   0  0  0  0  0  0  0  0  0  0  0  0
   20.6119  -19.2008  -15.3333 O   0  0  0  0  0  0  0  0  0  0  0  0
  2  1  1  1
  3  2  1  0
  3  4  1  0
  4  8  1  0
  5  4  2  0
  5  6  1  0
  6  7  1  0
  8  7  2  0
  9  2  1  0
  9 10  2  0
 12 14  1  0
 12 11  1  0
 13 12  2  0
 15 14  1  1
 15 17  1  0
 15 16  1  0
 16  9  1  0
 17 19  1  0
 18 17  2  0
 19 20  1  0
 20 27  1  0
 20 21  1  1
 22 21  1  0
 23 22  2  0
 24 25  1  0
 24 23  1  0
 25 26  2  0
 26 22  1  0
 27 28  2  0
 27 29  1  0
M  END
$$$$
