LRA.pdb
     RDKit          3D

 25 24  0  0  1  0  0  0  0  0999 V2000
   27.2619  -15.5341  -17.1114 C   0  0  0  0  0  0  0  0  0  0  0  0
   27.0065  -14.3692  -16.2030 C   0  0  2  0  0  0  0  0  0  0  0  0
   26.4540  -14.8987  -14.8560 C   0  0  0  0  0  0  0  0  0  0  0  0
   25.9962  -13.4332  -16.7498 C   0  0  0  0  0  0  0  0  0  0  0  0
   24.5954  -13.8785  -16.9670 C   0  0  2  0  0  0  0  0  0  0  0  0
   24.7262  -14.8214  -18.1411 N   0  0  0  0  0  0  0  0  0  0  0  0
   23.6507  -12.8215  -17.4658 C   0  0  0  0  0  0  0  0  0  0  0  0
   23.7399  -12.4714  -18.6503 O   0  0  0  0  0  0  0  0  0  0  0  0
   15.7717  -13.7076  -15.5082 N   0  0  0  0  0  0  0  0  0  0  0  0
   16.6400  -13.9729  -16.6462 C   0  0  0  0  0  0  0  0  0  0  0  0
   16.4348  -14.9889  -17.3361 N   0  0  0  0  0  0  0  0  0  0  0  0
   17.7116  -13.1022  -16.9540 N   0  0  0  0  0  0  0  0  0  0  0  0
   17.8512  -11.7721  -16.4916 C   0  0  0  0  0  0  0  0  0  0  0  0
   19.1024  -11.0316  -16.7809 C   0  0  0  0  0  0  0  0  0  0  0  0
   20.3024  -11.9646  -16.6395 C   0  0  0  0  0  0  0  0  0  0  0  0
   21.6260  -11.3129  -16.9520 C   0  0  2  0  0  0  0  0  0  0  0  0
   22.7063  -12.2816  -16.5846 N   0  0  0  0  0  0  0  0  0  0  0  0
   21.9335  -10.0758  -16.2802 C   0  0  0  0  0  0  0  0  0  0  0  0
   22.2346  -10.1483  -15.0113 O   0  0  0  0  0  0  0  0  0  0  0  0
   16.7063  -15.4961  -18.1271 C   0  0  0  0  0  0  0  0  0  0  0  0
   22.4110   -6.3997  -16.7457 C   0  0  1  0  0  0  0  0  0  0  0  0
   22.1381   -7.6402  -15.9414 N   0  0  0  0  0  0  0  0  0  0  0  0
   21.9474   -8.7667  -16.8274 C   0  0  0  0  0  0  0  0  0  0  0  0
   20.9344   -7.4832  -15.0520 O   0  0  0  0  0  0  0  0  0  0  0  0
   21.0941   -6.7848  -13.8711 O   0  0  0  0  0  0  0  0  0  0  0  0
  2  1  1  6
  3  2  1  0
  4  2  1  0
  4  5  1  0
  5  7  1  0
  5  6  1  6
  7  8  2  0
 10 12  1  0
 10  9  1  0
 11 10  2  0
 13 14  1  0
 13 12  1  0
 14 15  1  0
 16 15  1  1
 17 16  1  0
 17  7  1  0
 18 16  1  0
 19 18  2  0
 21 20  1  1
 21 23  1  0
 21 22  1  0
 22 18  1  0
 23 24  1  0
 25 23  2  0
M  END
$$$$
