LRA.pdb
     RDKit          3D

 25 24  0  0  1  0  0  0  0  0999 V2000
   27.6400  -30.8628  -19.4210 C   0  0  0  0  0  0  0  0  0  0  0  0
   28.9693  -30.9897  -18.7398 C   0  0  2  0  0  0  0  0  0  0  0  0
   29.9611  -31.6836  -19.7066 C   0  0  0  0  0  0  0  0  0  0  0  0
   28.9028  -31.8207  -17.5146 C   0  0  0  0  0  0  0  0  0  0  0  0
   28.0148  -31.4334  -16.3882 C   0  0  2  0  0  0  0  0  0  0  0  0
   28.8294  -30.3812  -15.6712 N   0  0  0  0  0  0  0  0  0  0  0  0
   27.8007  -32.4895  -15.3406 C   0  0  0  0  0  0  0  0  0  0  0  0
   28.7511  -32.7788  -14.6013 O   0  0  0  0  0  0  0  0  0  0  0  0
   22.6045  -32.3758   -8.9180 N   0  0  0  0  0  0  0  0  0  0  0  0
   23.9852  -32.1735   -9.3331 C   0  0  0  0  0  0  0  0  0  0  0  0
   24.6878  -31.3565   -8.7093 N   0  0  0  0  0  0  0  0  0  0  0  0
   24.5166  -32.8788  -10.4383 N   0  0  0  0  0  0  0  0  0  0  0  0
   23.8077  -33.7990  -11.2464 C   0  0  0  0  0  0  0  0  0  0  0  0
   24.5265  -34.5230  -12.3219 C   0  0  0  0  0  0  0  0  0  0  0  0
   25.1774  -33.5238  -13.2751 C   0  0  0  0  0  0  0  0  0  0  0  0
   26.1651  -34.1431  -14.2318 C   0  0  2  0  0  0  0  0  0  0  0  0
   26.5439  -33.0966  -15.2328 N   0  0  0  0  0  0  0  0  0  0  0  0
   25.7326  -35.2953  -14.9812 C   0  0  0  0  0  0  0  0  0  0  0  0
   24.9394  -35.0797  -15.9963 O   0  0  0  0  0  0  0  0  0  0  0  0
   25.5824  -30.9750   -8.6049 C   0  0  0  0  0  0  0  0  0  0  0  0
   26.4914  -38.8128  -15.7473 C   0  0  1  0  0  0  0  0  0  0  0  0
   25.5280  -37.6633  -15.6441 N   0  0  0  0  0  0  0  0  0  0  0  0
   26.0593  -36.6570  -14.7522 C   0  0  0  0  0  0  0  0  0  0  0  0
   24.1720  -38.1043  -15.1634 O   0  0  0  0  0  0  0  0  0  0  0  0
   23.4827  -39.0198  -15.9344 O   0  0  0  0  0  0  0  0  0  0  0  0
  2  1  1  6
  3  2  1  0
  4  2  1  0
  4  5  1  0
  5  7  1  0
  5  6  1  1
  7  8  2  0
 10 12  1  0
 10  9  1  0
 11 10  2  0
 13 14  1  0
 13 12  1  0
 14 15  1  0
 16 15  1  1
 17 16  1  0
 17  7  1  0
 18 16  1  0
 19 18  2  0
 21 20  1  6
 21 23  1  0
 21 22  1  0
 22 18  1  0
 23 24  1  0
 25 23  2  0
M  END
$$$$
