LRA.pdb
     RDKit          3D

 25 24  0  0  1  0  0  0  0  0999 V2000
   27.2908  -18.1467   -6.0201 C   0  0  0  0  0  0  0  0  0  0  0  0
   27.3539  -19.6334   -5.8385 C   0  0  2  0  0  0  0  0  0  0  0  0
   28.7653  -20.0140   -5.3256 C   0  0  0  0  0  0  0  0  0  0  0  0
   27.1384  -20.3702   -7.1061 C   0  0  0  0  0  0  0  0  0  0  0  0
   25.8571  -20.2381   -7.8465 C   0  0  2  0  0  0  0  0  0  0  0  0
   24.8829  -20.9752   -6.9562 N   0  0  0  0  0  0  0  0  0  0  0  0
   25.7819  -20.9858   -9.1480 C   0  0  0  0  0  0  0  0  0  0  0  0
   26.1115  -22.1794   -9.1549 O   0  0  0  0  0  0  0  0  0  0  0  0
   22.5226  -23.9375  -14.1957 N   0  0  0  0  0  0  0  0  0  0  0  0
   21.2593  -23.3007  -13.8519 C   0  0  0  0  0  0  0  0  0  0  0  0
   20.2184  -23.9839  -13.8623 N   0  0  0  0  0  0  0  0  0  0  0  0
   21.2098  -21.9243  -13.5292 N   0  0  0  0  0  0  0  0  0  0  0  0
   22.1483  -20.9478  -13.9391 C   0  0  0  0  0  0  0  0  0  0  0  0
   23.5779  -21.1241  -13.5888 C   0  0  0  0  0  0  0  0  0  0  0  0
   23.8164  -20.6878  -12.1454 C   0  0  0  0  0  0  0  0  0  0  0  0
   25.2280  -20.9093  -11.6632 C   0  0  2  0  0  0  0  0  0  0  0  0
   25.3378  -20.3151  -10.2938 N   0  0  0  0  0  0  0  0  0  0  0  0
   26.2956  -20.3420  -12.4473 C   0  0  0  0  0  0  0  0  0  0  0  0
   26.5714  -19.0806  -12.2500 O   0  0  0  0  0  0  0  0  0  0  0  0
   19.2556  -23.9911  -13.6903 C   0  0  0  0  0  0  0  0  0  0  0  0
   29.1379  -21.1181  -14.7057 C   0  0  1  0  0  0  0  0  0  0  0  0
   28.0775  -20.2093  -14.1491 N   0  0  0  0  0  0  0  0  0  0  0  0
   27.0964  -20.9865  -13.4254 C   0  0  0  0  0  0  0  0  0  0  0  0
   27.3978  -19.4082  -15.2265 O   0  0  0  0  0  0  0  0  0  0  0  0
   28.1449  -18.4505  -15.8839 O   0  0  0  0  0  0  0  0  0  0  0  0
  2  1  1  6
  3  2  1  0
  4  2  1  0
  4  5  1  0
  5  7  1  0
  5  6  1  1
  7  8  2  0
 10 12  1  0
 10  9  1  0
 11 10  2  0
 13 14  1  0
 13 12  1  0
 14 15  1  0
 16 15  1  6
 17 16  1  0
 17  7  1  0
 18 16  1  0
 19 18  2  0
 21 20  1  1
 21 23  1  0
 21 22  1  0
 22 18  1  0
 23 24  1  0
 25 23  2  0
M  END
$$$$
