LRA.pdb
     RDKit          3D

 25 24  0  0  1  0  0  0  0  0999 V2000
   27.4232  -18.3688   -6.2950 C   0  0  0  0  0  0  0  0  0  0  0  0
   27.3501  -19.8537   -6.1028 C   0  0  2  0  0  0  0  0  0  0  0  0
   28.7300  -20.3623   -5.6158 C   0  0  0  0  0  0  0  0  0  0  0  0
   27.0396  -20.5747   -7.3597 C   0  0  0  0  0  0  0  0  0  0  0  0
   25.7592  -20.3301   -8.0726 C   0  0  2  0  0  0  0  0  0  0  0  0
   24.7546  -21.0553   -7.2068 N   0  0  0  0  0  0  0  0  0  0  0  0
   25.6245  -21.0028   -9.4097 C   0  0  0  0  0  0  0  0  0  0  0  0
   25.9098  -22.2052   -9.4891 O   0  0  0  0  0  0  0  0  0  0  0  0
   20.9455  -22.8902  -14.3449 N   0  0  0  0  0  0  0  0  0  0  0  0
   20.2652  -21.7425  -13.7625 C   0  0  0  0  0  0  0  0  0  0  0  0
   19.0619  -21.8459  -13.4595 N   0  0  0  0  0  0  0  0  0  0  0  0
   20.9528  -20.5228  -13.5603 N   0  0  0  0  0  0  0  0  0  0  0  0
   22.0879  -20.0873  -14.2842 C   0  0  0  0  0  0  0  0  0  0  0  0
   23.4308  -20.5750  -13.8890 C   0  0  0  0  0  0  0  0  0  0  0  0
   23.6798  -20.2719  -12.4136 C   0  0  0  0  0  0  0  0  0  0  0  0
   25.0069  -20.7716  -11.9005 C   0  0  2  0  0  0  0  0  0  0  0  0
   25.1772  -20.2556  -10.5058 N   0  0  0  0  0  0  0  0  0  0  0  0
   26.1891  -20.3893  -12.6303 C   0  0  0  0  0  0  0  0  0  0  0  0
   26.6822  -19.2053  -12.3834 O   0  0  0  0  0  0  0  0  0  0  0  0
   18.2373  -22.3554  -13.5902 C   0  0  0  0  0  0  0  0  0  0  0  0
   29.0291  -21.6301  -14.6206 C   0  0  1  0  0  0  0  0  0  0  0  0
   28.0499  -20.5538  -14.2425 N   0  0  0  0  0  0  0  0  0  0  0  0
   26.8959  -21.1441  -13.6019 C   0  0  0  0  0  0  0  0  0  0  0  0
   27.6122  -19.7447  -15.4335 O   0  0  0  0  0  0  0  0  0  0  0  0
   28.5655  -18.9800  -16.0768 O   0  0  0  0  0  0  0  0  0  0  0  0
  2  1  1  6
  3  2  1  0
  4  2  1  0
  4  5  1  0
  5  7  1  0
  5  6  1  1
  7  8  2  0
 10 12  1  0
 10  9  1  0
 11 10  2  0
 13 14  1  0
 13 12  1  0
 14 15  1  0
 16 15  1  6
 17 16  1  0
 17  7  1  0
 18 16  1  0
 19 18  2  0
 21 20  1  1
 21 23  1  0
 21 22  1  0
 22 18  1  0
 23 24  1  0
 25 23  2  0
M  END
$$$$
