LRA.pdb
     RDKit          3D

 25 24  0  0  1  0  0  0  0  0999 V2000
   14.2236  -21.9237    2.9941 C   0  0  0  0  0  0  0  0  0  0  0  0
   15.4978  -22.3337    2.3191 C   0  0  2  0  0  0  0  0  0  0  0  0
   15.8170  -23.7999    2.7042 C   0  0  0  0  0  0  0  0  0  0  0  0
   16.6552  -21.5109    2.7427 C   0  0  0  0  0  0  0  0  0  0  0  0
   16.6764  -20.0484    2.4817 C   0  0  2  0  0  0  0  0  0  0  0  0
   16.8653  -19.9822    0.9835 N   0  0  0  0  0  0  0  0  0  0  0  0
   17.8702  -19.3121    3.0215 C   0  0  0  0  0  0  0  0  0  0  0  0
   18.8673  -19.2056    2.2950 O   0  0  0  0  0  0  0  0  0  0  0  0
   18.7772  -11.3959    5.0717 N   0  0  0  0  0  0  0  0  0  0  0  0
   19.8869  -11.9499    5.8340 C   0  0  0  0  0  0  0  0  0  0  0  0
   20.8335  -11.2042    6.1476 N   0  0  0  0  0  0  0  0  0  0  0  0
   19.9008  -13.3170    6.1976 N   0  0  0  0  0  0  0  0  0  0  0  0
   19.0675  -14.3227    5.6532 C   0  0  0  0  0  0  0  0  0  0  0  0
   19.1973  -15.7156    6.1435 C   0  0  0  0  0  0  0  0  0  0  0  0
   18.2582  -16.6309    5.3617 C   0  0  0  0  0  0  0  0  0  0  0  0
   18.8776  -17.9458    4.9599 C   0  0  2  0  0  0  0  0  0  0  0  0
   17.8100  -18.7703    4.3110 N   0  0  0  0  0  0  0  0  0  0  0  0
   19.4505  -18.7578    6.0034 C   0  0  0  0  0  0  0  0  0  0  0  0
   18.6216  -19.4399    6.7475 O   0  0  0  0  0  0  0  0  0  0  0  0
   21.7290  -11.1570    6.5380 C   0  0  0  0  0  0  0  0  0  0  0  0
   20.4647  -19.1707    8.7077 C   0  0  2  0  0  0  0  0  0  0  0  0
   21.1771  -19.6992    7.4939 N   0  0  0  0  0  0  0  0  0  0  0  0
   20.8216  -18.9112    6.3350 C   0  0  0  0  0  0  0  0  0  0  0  0
   20.8611  -21.1485    7.2399 O   0  0  0  0  0  0  0  0  0  0  0  0
   21.2601  -22.0695    8.1887 O   0  0  0  0  0  0  0  0  0  0  0  0
  2  1  1  1
  3  2  1  0
  4  2  1  0
  4  5  1  0
  5  7  1  0
  5  6  1  6
  7  8  2  0
 10 12  1  0
 10  9  1  0
 11 10  2  0
 13 14  1  0
 13 12  1  0
 14 15  1  0
 16 15  1  1
 17 16  1  0
 17  7  1  0
 18 16  1  0
 19 18  2  0
 21 20  1  1
 21 23  1  0
 21 22  1  0
 22 18  1  0
 23 24  1  0
 25 23  2  0
M  END
$$$$
