LRA.pdb
     RDKit          3D

 25 24  0  0  1  0  0  0  0  0999 V2000
   21.0416  -21.7648  -17.0076 C   0  0  0  0  0  0  0  0  0  0  0  0
   20.0455  -20.9177  -16.2746 C   0  0  2  0  0  0  0  0  0  0  0  0
   19.5228  -19.8193  -17.2340 C   0  0  0  0  0  0  0  0  0  0  0  0
   20.6383  -20.2274  -15.1049 C   0  0  0  0  0  0  0  0  0  0  0  0
   21.3508  -21.0002  -14.0549 C   0  0  2  0  0  0  0  0  0  0  0  0
   20.2448  -21.3300  -13.0788 N   0  0  0  0  0  0  0  0  0  0  0  0
   22.3305  -20.2164  -13.2275 C   0  0  0  0  0  0  0  0  0  0  0  0
   21.8857  -19.3525  -12.4598 O   0  0  0  0  0  0  0  0  0  0  0  0
   29.1747  -20.9379   -8.1129 N   0  0  0  0  0  0  0  0  0  0  0  0
   27.9389  -20.4631   -7.5071 C   0  0  0  0  0  0  0  0  0  0  0  0
   27.9995  -19.8106   -6.4484 N   0  0  0  0  0  0  0  0  0  0  0  0
   26.6875  -20.7529   -8.0997 N   0  0  0  0  0  0  0  0  0  0  0  0
   26.4917  -21.2471   -9.4111 C   0  0  0  0  0  0  0  0  0  0  0  0
   26.2660  -20.2900  -10.5204 C   0  0  0  0  0  0  0  0  0  0  0  0
   25.1324  -20.7881  -11.4133 C   0  0  0  0  0  0  0  0  0  0  0  0
   24.7889  -19.8542  -12.5465 C   0  0  2  0  0  0  0  0  0  0  0  0
   23.6974  -20.4940  -13.3464 N   0  0  0  0  0  0  0  0  0  0  0  0
   25.8395  -19.5190  -13.4740 C   0  0  0  0  0  0  0  0  0  0  0  0
   26.2815  -20.4783  -14.2424 O   0  0  0  0  0  0  0  0  0  0  0  0
   27.4876  -19.3566   -5.7494 C   0  0  0  0  0  0  0  0  0  0  0  0
   28.5002  -19.2707  -14.4853 C   0  0  2  0  0  0  0  0  0  0  0  0
   27.5185  -18.1438  -14.6481 N   0  0  0  0  0  0  0  0  0  0  0  0
   26.4692  -18.2612  -13.6604 C   0  0  0  0  0  0  0  0  0  0  0  0
   26.9176  -18.1131  -16.0274 O   0  0  0  0  0  0  0  0  0  0  0  0
   27.7633  -17.8708  -17.0922 O   0  0  0  0  0  0  0  0  0  0  0  0
  2  1  1  6
  3  2  1  0
  4  2  1  0
  4  5  1  0
  5  7  1  0
  5  6  1  1
  7  8  2  0
 10 12  1  0
 10  9  1  0
 11 10  2  0
 13 14  1  0
 13 12  1  0
 14 15  1  0
 16 15  1  1
 17 16  1  0
 17  7  1  0
 18 16  1  0
 19 18  2  0
 21 20  1  1
 21 23  1  0
 21 22  1  0
 22 18  1  0
 23 24  1  0
 25 23  2  0
M  END
$$$$
