LRA.pdb
     RDKit          3D

 25 24  0  0  1  0  0  0  0  0999 V2000
   27.5063  -17.5854  -15.4463 C   0  0  0  0  0  0  0  0  0  0  0  0
   27.1104  -18.2881  -16.7100 C   0  0  2  0  0  0  0  0  0  0  0  0
   25.5655  -18.2753  -16.8249 C   0  0  0  0  0  0  0  0  0  0  0  0
   27.5362  -19.7074  -16.7281 C   0  0  0  0  0  0  0  0  0  0  0  0
   27.7819  -20.4371  -15.4575 C   0  0  2  0  0  0  0  0  0  0  0  0
   28.5219  -21.6706  -15.9220 N   0  0  0  0  0  0  0  0  0  0  0  0
   26.5587  -20.9915  -14.7829 C   0  0  0  0  0  0  0  0  0  0  0  0
   25.9448  -21.9063  -15.3485 O   0  0  0  0  0  0  0  0  0  0  0  0
   22.2930  -20.3662   -7.0449 N   0  0  0  0  0  0  0  0  0  0  0  0
   22.6659  -21.7126   -7.4544 C   0  0  0  0  0  0  0  0  0  0  0  0
   21.9304  -22.6648   -7.1337 N   0  0  0  0  0  0  0  0  0  0  0  0
   23.8534  -21.9402   -8.1887 N   0  0  0  0  0  0  0  0  0  0  0  0
   24.5233  -20.9843   -8.9886 C   0  0  0  0  0  0  0  0  0  0  0  0
   24.0585  -20.7463  -10.3760 C   0  0  0  0  0  0  0  0  0  0  0  0
   25.2585  -20.5492  -11.2989 C   0  0  0  0  0  0  0  0  0  0  0  0
   24.9969  -20.9296  -12.7346 C   0  0  2  0  0  0  0  0  0  0  0  0
   26.1653  -20.4653  -13.5468 N   0  0  0  0  0  0  0  0  0  0  0  0
   23.8168  -20.3901  -13.3613 C   0  0  0  0  0  0  0  0  0  0  0  0
   23.6785  -19.0913  -13.3479 O   0  0  0  0  0  0  0  0  0  0  0  0
   21.7900  -23.6311   -7.1899 C   0  0  0  0  0  0  0  0  0  0  0  0
   21.2834  -20.9481  -15.8962 C   0  0  1  0  0  0  0  0  0  0  0  0
   21.6646  -20.3565  -14.5677 N   0  0  0  0  0  0  0  0  0  0  0  0
   22.7661  -21.0999  -13.9980 C   0  0  0  0  0  0  0  0  0  0  0  0
   20.5089  -20.3410  -13.6039 O   0  0  0  0  0  0  0  0  0  0  0  0
   20.5446  -21.2243  -12.5428 O   0  0  0  0  0  0  0  0  0  0  0  0
  2  1  1  1
  3  2  1  0
  4  2  1  0
  4  5  1  0
  5  7  1  0
  5  6  1  6
  7  8  2  0
 10 12  1  0
 10  9  1  0
 11 10  2  0
 13 14  1  0
 13 12  1  0
 14 15  1  0
 16 15  1  1
 17 16  1  0
 17  7  1  0
 18 16  1  0
 19 18  2  0
 21 20  1  6
 21 23  1  0
 21 22  1  0
 22 18  1  0
 23 24  1  0
 25 23  2  0
M  END
$$$$
