LRA.pdb
     RDKit          3D

 25 24  0  0  1  0  0  0  0  0999 V2000
   24.3005  -15.0525  -14.3996 C   0  0  0  0  0  0  0  0  0  0  0  0
   24.4887  -14.6849  -15.8407 C   0  0  2  0  0  0  0  0  0  0  0  0
   25.9404  -14.1828  -16.0420 C   0  0  0  0  0  0  0  0  0  0  0  0
   23.5864  -13.5907  -16.2705 C   0  0  0  0  0  0  0  0  0  0  0  0
   22.1124  -13.7437  -16.1648 C   0  0  2  0  0  0  0  0  0  0  0  0
   21.8138  -14.7998  -17.2042 N   0  0  0  0  0  0  0  0  0  0  0  0
   21.3050  -12.5609  -16.6204 C   0  0  0  0  0  0  0  0  0  0  0  0
   21.2633  -12.3155  -17.8335 O   0  0  0  0  0  0  0  0  0  0  0  0
   13.7771  -12.2469  -13.2079 N   0  0  0  0  0  0  0  0  0  0  0  0
   13.9345  -12.8459  -14.5254 C   0  0  0  0  0  0  0  0  0  0  0  0
   13.0158  -13.5534  -14.9787 N   0  0  0  0  0  0  0  0  0  0  0  0
   15.1188  -12.6441  -15.2725 N   0  0  0  0  0  0  0  0  0  0  0  0
   16.2296  -11.8695  -14.8623 C   0  0  0  0  0  0  0  0  0  0  0  0
   17.3937  -11.7338  -15.7701 C   0  0  0  0  0  0  0  0  0  0  0  0
   18.4587  -10.8536  -15.1207 C   0  0  0  0  0  0  0  0  0  0  0  0
   19.6930  -10.6605  -15.9654 C   0  0  2  0  0  0  0  0  0  0  0  0
   20.6278  -11.7910  -15.6673 N   0  0  0  0  0  0  0  0  0  0  0  0
   20.4425   -9.4439  -15.7797 C   0  0  0  0  0  0  0  0  0  0  0  0
   21.1219   -9.3287  -14.6701 O   0  0  0  0  0  0  0  0  0  0  0  0
   12.7052  -14.0834  -15.7399 C   0  0  0  0  0  0  0  0  0  0  0  0
   21.6711   -6.3964  -17.5422 C   0  0  1  0  0  0  0  0  0  0  0  0
   21.4377   -7.2539  -16.3295 N   0  0  0  0  0  0  0  0  0  0  0  0
   20.5358   -8.3347  -16.6596 C   0  0  0  0  0  0  0  0  0  0  0  0
   20.8825   -6.4623  -15.1764 O   0  0  0  0  0  0  0  0  0  0  0  0
   21.7383   -5.6040  -14.5143 O   0  0  0  0  0  0  0  0  0  0  0  0
  2  1  1  1
  3  2  1  0
  4  2  1  0
  4  5  1  0
  5  7  1  0
  5  6  1  6
  7  8  2  0
 10 12  1  0
 10  9  1  0
 11 10  2  0
 13 14  1  0
 13 12  1  0
 14 15  1  0
 16 15  1  1
 17 16  1  0
 17  7  1  0
 18 16  1  0
 19 18  2  0
 21 20  1  6
 21 23  1  0
 21 22  1  0
 22 18  1  0
 23 24  1  0
 25 23  2  0
M  END
$$$$
