LRA.pdb
     RDKit          3D

 25 24  0  0  1  0  0  0  0  0999 V2000
   19.6673  -30.1909  -16.1120 C   0  0  0  0  0  0  0  0  0  0  0  0
   21.1467  -30.0668  -15.9041 C   0  0  2  0  0  0  0  0  0  0  0  0
   21.4478  -28.6835  -15.2752 C   0  0  0  0  0  0  0  0  0  0  0  0
   21.9072  -30.1423  -17.1737 C   0  0  0  0  0  0  0  0  0  0  0  0
   23.3839  -29.9784  -17.1790 C   0  0  2  0  0  0  0  0  0  0  0  0
   23.6419  -29.3454  -18.5272 N   0  0  0  0  0  0  0  0  0  0  0  0
   24.1761  -31.2544  -17.2300 C   0  0  0  0  0  0  0  0  0  0  0  0
   24.0400  -31.9863  -18.2196 O   0  0  0  0  0  0  0  0  0  0  0  0
   32.5129  -31.8074  -16.4657 N   0  0  0  0  0  0  0  0  0  0  0  0
   31.4314  -31.6808  -17.4319 C   0  0  0  0  0  0  0  0  0  0  0  0
   31.6634  -31.1362  -18.5273 N   0  0  0  0  0  0  0  0  0  0  0  0
   30.1327  -32.1515  -17.1265 N   0  0  0  0  0  0  0  0  0  0  0  0
   29.7554  -32.8121  -15.9334 C   0  0  0  0  0  0  0  0  0  0  0  0
   28.3867  -33.3692  -15.8149 C   0  0  0  0  0  0  0  0  0  0  0  0
   27.3558  -32.2691  -16.0548 C   0  0  0  0  0  0  0  0  0  0  0  0
   25.9313  -32.7623  -16.0965 C   0  0  2  0  0  0  0  0  0  0  0  0
   25.0384  -31.5633  -16.1712 N   0  0  0  0  0  0  0  0  0  0  0  0
   25.4686  -33.5541  -14.9851 C   0  0  0  0  0  0  0  0  0  0  0  0
   25.2015  -32.9200  -13.8748 O   0  0  0  0  0  0  0  0  0  0  0  0
   31.3120  -30.9280  -19.4160 C   0  0  0  0  0  0  0  0  0  0  0  0
   23.5063  -36.3057  -13.9855 C   0  0  1  0  0  0  0  0  0  0  0  0
   24.7803  -35.5548  -13.7153 N   0  0  0  0  0  0  0  0  0  0  0  0
   25.2665  -34.9578  -14.9391 C   0  0  0  0  0  0  0  0  0  0  0  0
   25.8435  -36.4407  -13.1241 O   0  0  0  0  0  0  0  0  0  0  0  0
   25.7468  -36.7539  -11.7824 O   0  0  0  0  0  0  0  0  0  0  0  0
  2  1  1  6
  3  2  1  0
  4  2  1  0
  4  5  1  0
  5  7  1  0
  5  6  1  6
  7  8  2  0
 10 12  1  0
 10  9  1  0
 11 10  2  0
 13 14  1  0
 13 12  1  0
 14 15  1  0
 16 15  1  1
 17 16  1  0
 17  7  1  0
 18 16  1  0
 19 18  2  0
 21 20  1  1
 21 23  1  0
 21 22  1  0
 22 18  1  0
 23 24  1  0
 25 23  2  0
M  END
$$$$
