LRA.pdb
     RDKit          3D

 25 24  0  0  1  0  0  0  0  0999 V2000
   26.8049  -19.8293   -6.1283 C   0  0  0  0  0  0  0  0  0  0  0  0
   27.7546  -20.3326   -7.1734 C   0  0  2  0  0  0  0  0  0  0  0  0
   29.1318  -19.6548   -6.9640 C   0  0  0  0  0  0  0  0  0  0  0  0
   27.3123  -20.0032   -8.5488 C   0  0  0  0  0  0  0  0  0  0  0  0
   26.0613  -20.5866   -9.0986 C   0  0  2  0  0  0  0  0  0  0  0  0
   26.5491  -21.8593   -9.7522 N   0  0  0  0  0  0  0  0  0  0  0  0
   25.4356  -19.8241  -10.2324 C   0  0  0  0  0  0  0  0  0  0  0  0
   25.0242  -18.6779  -10.0077 O   0  0  0  0  0  0  0  0  0  0  0  0
   30.0528  -22.3600  -14.3783 N   0  0  0  0  0  0  0  0  0  0  0  0
   29.1996  -22.0857  -15.5256 C   0  0  0  0  0  0  0  0  0  0  0  0
   29.1589  -22.9114  -16.4566 N   0  0  0  0  0  0  0  0  0  0  0  0
   28.4425  -20.8925  -15.5924 N   0  0  0  0  0  0  0  0  0  0  0  0
   28.1382  -20.0477  -14.4988 C   0  0  0  0  0  0  0  0  0  0  0  0
   27.0739  -20.4479  -13.5478 C   0  0  0  0  0  0  0  0  0  0  0  0
   25.8867  -19.4955  -13.6663 C   0  0  0  0  0  0  0  0  0  0  0  0
   24.7558  -19.8042  -12.7176 C   0  0  2  0  0  0  0  0  0  0  0  0
   25.3489  -20.4274  -11.4927 N   0  0  0  0  0  0  0  0  0  0  0  0
   23.7254  -20.6994  -13.1796 C   0  0  0  0  0  0  0  0  0  0  0  0
   23.8851  -21.9704  -12.9248 O   0  0  0  0  0  0  0  0  0  0  0  0
   28.7972  -23.1116  -17.3430 C   0  0  0  0  0  0  0  0  0  0  0  0
   22.3841  -22.6364  -14.7139 C   0  0  2  0  0  0  0  0  0  0  0  0
   21.6206  -21.4316  -14.2391 N   0  0  0  0  0  0  0  0  0  0  0  0
   22.5420  -20.3730  -13.8913 C   0  0  0  0  0  0  0  0  0  0  0  0
   20.7416  -21.7487  -13.0596 O   0  0  0  0  0  0  0  0  0  0  0  0
   19.7379  -22.6807  -13.2376 O   0  0  0  0  0  0  0  0  0  0  0  0
  2  1  1  1
  3  2  1  0
  4  2  1  0
  4  5  1  0
  5  7  1  0
  5  6  1  6
  7  8  2  0
 10 12  1  0
 10  9  1  0
 11 10  2  0
 13 14  1  0
 13 12  1  0
 14 15  1  0
 16 15  1  6
 17 16  1  0
 17  7  1  0
 18 16  1  0
 19 18  2  0
 21 20  1  6
 21 23  1  0
 21 22  1  0
 22 18  1  0
 23 24  1  0
 25 23  2  0
M  END
$$$$
