LRA.pdb
     RDKit          3D

 25 24  0  0  1  0  0  0  0  0999 V2000
   24.7251  -11.0322  -14.1032 C   0  0  0  0  0  0  0  0  0  0  0  0
   24.4974  -11.0705  -15.5845 C   0  0  2  0  0  0  0  0  0  0  0  0
   25.6602  -10.3265  -16.2874 C   0  0  0  0  0  0  0  0  0  0  0  0
   23.2421  -10.3918  -15.9840 C   0  0  0  0  0  0  0  0  0  0  0  0
   21.9386  -10.8217  -15.4152 C   0  0  2  0  0  0  0  0  0  0  0  0
   21.6884  -12.1365  -16.1176 N   0  0  0  0  0  0  0  0  0  0  0  0
   20.7545   -9.9820  -15.8043 C   0  0  0  0  0  0  0  0  0  0  0  0
   20.3088  -10.0991  -16.9537 O   0  0  0  0  0  0  0  0  0  0  0  0
   14.2885  -10.1556  -10.6831 N   0  0  0  0  0  0  0  0  0  0  0  0
   14.2932  -10.9984  -11.8701 C   0  0  0  0  0  0  0  0  0  0  0  0
   13.4549  -11.9145  -11.9612 N   0  0  0  0  0  0  0  0  0  0  0  0
   15.2453  -10.7937  -12.8961 N   0  0  0  0  0  0  0  0  0  0  0  0
   16.2148   -9.7634  -12.9268 C   0  0  0  0  0  0  0  0  0  0  0  0
   17.0633   -9.6021  -14.1316 C   0  0  0  0  0  0  0  0  0  0  0  0
   18.0584   -8.4643  -13.9172 C   0  0  0  0  0  0  0  0  0  0  0  0
   18.9970   -8.2440  -15.0767 C   0  0  2  0  0  0  0  0  0  0  0  0
   20.1971   -9.1118  -14.8599 N   0  0  0  0  0  0  0  0  0  0  0  0
   19.4872   -6.9060  -15.2909 C   0  0  0  0  0  0  0  0  0  0  0  0
   20.2700   -6.4064  -14.3724 O   0  0  0  0  0  0  0  0  0  0  0  0
   13.1164  -12.6473  -12.5137 C   0  0  0  0  0  0  0  0  0  0  0  0
   19.7301   -4.1659  -17.8132 C   0  0  1  0  0  0  0  0  0  0  0  0
   19.8717   -4.7550  -16.4373 N   0  0  0  0  0  0  0  0  0  0  0  0
   19.2212   -6.0453  -16.3872 C   0  0  0  0  0  0  0  0  0  0  0  0
   19.2989   -3.8550  -15.3759 O   0  0  0  0  0  0  0  0  0  0  0  0
   20.0341   -2.7450  -15.0085 O   0  0  0  0  0  0  0  0  0  0  0  0
  2  1  1  1
  3  2  1  0
  4  2  1  0
  4  5  1  0
  5  7  1  0
  5  6  1  6
  7  8  2  0
 10 12  1  0
 10  9  1  0
 11 10  2  0
 13 14  1  0
 13 12  1  0
 14 15  1  0
 16 15  1  1
 17 16  1  0
 17  7  1  0
 18 16  1  0
 19 18  2  0
 21 20  1  6
 21 23  1  0
 21 22  1  0
 22 18  1  0
 23 24  1  0
 25 23  2  0
M  END
$$$$
