LRA.pdb
     RDKit          3D

 25 24  0  0  1  0  0  0  0  0999 V2000
   10.3552   -9.1084  -10.0394 C   0  0  0  0  0  0  0  0  0  0  0  0
   10.9164   -9.9865   -8.9618 C   0  0  2  0  0  0  0  0  0  0  0  0
   10.3042   -9.5626   -7.6034 C   0  0  0  0  0  0  0  0  0  0  0  0
   12.3874   -9.8599   -8.8345 C   0  0  0  0  0  0  0  0  0  0  0  0
   13.2703  -10.1206  -10.0007 C   0  0  2  0  0  0  0  0  0  0  0  0
   13.4688  -11.6178   -9.9374 N   0  0  0  0  0  0  0  0  0  0  0  0
   14.6659   -9.5739   -9.8904 C   0  0  0  0  0  0  0  0  0  0  0  0
   15.4716  -10.1734   -9.1660 O   0  0  0  0  0  0  0  0  0  0  0  0
   21.2396   -6.2020  -13.5654 N   0  0  0  0  0  0  0  0  0  0  0  0
   21.4323   -7.6446  -13.5353 C   0  0  0  0  0  0  0  0  0  0  0  0
   22.5916   -8.0979  -13.5680 N   0  0  0  0  0  0  0  0  0  0  0  0
   20.3218   -8.5197  -13.4885 N   0  0  0  0  0  0  0  0  0  0  0  0
   18.9632   -8.1256  -13.4550 C   0  0  0  0  0  0  0  0  0  0  0  0
   18.3895   -7.6082  -12.1898 C   0  0  0  0  0  0  0  0  0  0  0  0
   17.0332   -8.2592  -11.9304 C   0  0  0  0  0  0  0  0  0  0  0  0
   16.3630   -7.7951  -10.6616 C   0  0  2  0  0  0  0  0  0  0  0  0
   15.0048   -8.4223  -10.6107 N   0  0  0  0  0  0  0  0  0  0  0  0
   16.1706   -6.3773  -10.4911 C   0  0  0  0  0  0  0  0  0  0  0  0
   15.4748   -5.7582  -11.4069 O   0  0  0  0  0  0  0  0  0  0  0  0
   23.1431   -8.9057  -13.5638 C   0  0  0  0  0  0  0  0  0  0  0  0
   16.5418   -3.5321   -8.1258 C   0  0  1  0  0  0  0  0  0  0  0  0
   16.3980   -4.1300   -9.4976 N   0  0  0  0  0  0  0  0  0  0  0  0
   16.6511   -5.5524   -9.4413 C   0  0  0  0  0  0  0  0  0  0  0  0
   17.3248   -3.4873  -10.4939 O   0  0  0  0  0  0  0  0  0  0  0  0
   17.0809   -2.1740  -10.8449 O   0  0  0  0  0  0  0  0  0  0  0  0
  2  1  1  6
  3  2  1  0
  4  2  1  0
  4  5  1  0
  5  7  1  0
  5  6  1  1
  7  8  2  0
 10 12  1  0
 10  9  1  0
 11 10  2  0
 13 14  1  0
 13 12  1  0
 14 15  1  0
 16 15  1  6
 17 16  1  0
 17  7  1  0
 18 16  1  0
 19 18  2  0
 21 20  1  1
 21 23  1  0
 21 22  1  0
 22 18  1  0
 23 24  1  0
 25 23  2  0
M  END
$$$$
