LRA.pdb
     RDKit          3D

 25 24  0  0  1  0  0  0  0  0999 V2000
   28.2268  -23.0195  -19.1447 C   0  0  0  0  0  0  0  0  0  0  0  0
   27.2613  -24.1573  -19.2879 C   0  0  2  0  0  0  0  0  0  0  0  0
   26.5163  -24.0125  -20.6385 C   0  0  0  0  0  0  0  0  0  0  0  0
   26.2318  -24.1662  -18.2221 C   0  0  0  0  0  0  0  0  0  0  0  0
   26.6286  -24.2103  -16.7909 C   0  0  2  0  0  0  0  0  0  0  0  0
   27.0323  -25.6549  -16.6038 N   0  0  0  0  0  0  0  0  0  0  0  0
   25.5107  -24.0247  -15.8037 C   0  0  0  0  0  0  0  0  0  0  0  0
   24.7323  -24.9701  -15.6195 O   0  0  0  0  0  0  0  0  0  0  0  0
   24.4269  -20.8448   -8.2618 N   0  0  0  0  0  0  0  0  0  0  0  0
   25.7239  -20.7077   -8.9087 C   0  0  0  0  0  0  0  0  0  0  0  0
   26.7527  -20.7432   -8.2083 N   0  0  0  0  0  0  0  0  0  0  0  0
   25.8155  -20.5187  -10.3076 N   0  0  0  0  0  0  0  0  0  0  0  0
   24.7752  -20.0523  -11.1458 C   0  0  0  0  0  0  0  0  0  0  0  0
   24.0662  -21.0132  -12.0242 C   0  0  0  0  0  0  0  0  0  0  0  0
   25.0242  -21.5531  -13.0832 C   0  0  0  0  0  0  0  0  0  0  0  0
   24.3770  -22.4830  -14.0784 C   0  0  2  0  0  0  0  0  0  0  0  0
   25.3954  -22.8046  -15.1272 N   0  0  0  0  0  0  0  0  0  0  0  0
   23.2065  -22.0065  -14.7707 C   0  0  0  0  0  0  0  0  0  0  0  0
   23.3683  -20.9997  -15.5869 O   0  0  0  0  0  0  0  0  0  0  0  0
   27.7208  -20.6050   -8.1879 C   0  0  0  0  0  0  0  0  0  0  0  0
   19.7009  -22.7701  -15.6799 C   0  0  1  0  0  0  0  0  0  0  0  0
   20.8286  -21.8157  -15.4014 N   0  0  0  0  0  0  0  0  0  0  0  0
   21.8778  -22.4953  -14.6751 C   0  0  0  0  0  0  0  0  0  0  0  0
   20.3701  -20.6111  -14.6248 O   0  0  0  0  0  0  0  0  0  0  0  0
   19.6369  -19.6531  -15.2973 O   0  0  0  0  0  0  0  0  0  0  0  0
  2  1  1  1
  3  2  1  0
  4  2  1  0
  4  5  1  0
  5  7  1  0
  5  6  1  1
  7  8  2  0
 10 12  1  0
 10  9  1  0
 11 10  2  0
 13 14  1  0
 13 12  1  0
 14 15  1  0
 16 15  1  1
 17 16  1  0
 17  7  1  0
 18 16  1  0
 19 18  2  0
 21 20  1  6
 21 23  1  0
 21 22  1  0
 22 18  1  0
 23 24  1  0
 25 23  2  0
M  END
$$$$
