LRA.pdb
     RDKit          3D

 25 24  0  0  1  0  0  0  0  0999 V2000
   13.6875  -11.3323  -20.1860 C   0  0  0  0  0  0  0  0  0  0  0  0
   13.0019  -11.5052  -18.8641 C   0  0  2  0  0  0  0  0  0  0  0  0
   11.5563  -10.9597  -18.9768 C   0  0  0  0  0  0  0  0  0  0  0  0
   13.6677  -10.7512  -17.7759 C   0  0  0  0  0  0  0  0  0  0  0  0
   15.0830  -11.0315  -17.4210 C   0  0  2  0  0  0  0  0  0  0  0  0
   14.9944  -12.3829  -16.7497 N   0  0  0  0  0  0  0  0  0  0  0  0
   15.6708  -10.1464  -16.3581 C   0  0  0  0  0  0  0  0  0  0  0  0
   15.4069  -10.4012  -15.1753 O   0  0  0  0  0  0  0  0  0  0  0  0
   20.9251   -4.2621  -15.3586 N   0  0  0  0  0  0  0  0  0  0  0  0
   21.6118   -5.1975  -14.4794 C   0  0  0  0  0  0  0  0  0  0  0  0
   22.0061   -4.7997  -13.3674 N   0  0  0  0  0  0  0  0  0  0  0  0
   21.8448   -6.5320  -14.8869 N   0  0  0  0  0  0  0  0  0  0  0  0
   20.9088   -7.3698  -15.5383 C   0  0  0  0  0  0  0  0  0  0  0  0
   19.4595   -7.1189  -15.3532 C   0  0  0  0  0  0  0  0  0  0  0  0
   18.6508   -8.2170  -16.0394 C   0  0  0  0  0  0  0  0  0  0  0  0
   17.1641   -8.1209  -15.8052 C   0  0  2  0  0  0  0  0  0  0  0  0
   16.4951   -9.0808  -16.7386 N   0  0  0  0  0  0  0  0  0  0  0  0
   16.5395   -6.8389  -16.0124 C   0  0  0  0  0  0  0  0  0  0  0  0
   16.5446   -6.3659  -17.2299 O   0  0  0  0  0  0  0  0  0  0  0  0
   22.4118   -5.0566  -12.5152 C   0  0  0  0  0  0  0  0  0  0  0  0
   14.1791   -4.3615  -14.7218 C   0  0  1  0  0  0  0  0  0  0  0  0
   15.4530   -4.6970  -15.4463 N   0  0  0  0  0  0  0  0  0  0  0  0
   15.9129   -6.0084  -15.0475 C   0  0  0  0  0  0  0  0  0  0  0  0
   16.5324   -3.6800  -15.1912 O   0  0  0  0  0  0  0  0  0  0  0  0
   16.4198   -2.4526  -15.8144 O   0  0  0  0  0  0  0  0  0  0  0  0
  2  1  1  6
  3  2  1  0
  4  2  1  0
  4  5  1  0
  5  7  1  0
  5  6  1  1
  7  8  2  0
 10 12  1  0
 10  9  1  0
 11 10  2  0
 13 14  1  0
 13 12  1  0
 14 15  1  0
 16 15  1  6
 17 16  1  0
 17  7  1  0
 18 16  1  0
 19 18  2  0
 21 20  1  6
 21 23  1  0
 21 22  1  0
 22 18  1  0
 23 24  1  0
 25 23  2  0
M  END
$$$$
