LRA.pdb
     RDKit          3D

 25 24  0  0  1  0  0  0  0  0999 V2000
   22.5938  -15.3653  -20.6376 C   0  0  0  0  0  0  0  0  0  0  0  0
   22.6768  -16.6568  -21.3941 C   0  0  2  0  0  0  0  0  0  0  0  0
   21.6478  -16.6239  -22.5518 C   0  0  0  0  0  0  0  0  0  0  0  0
   22.3467  -17.8307  -20.5521 C   0  0  0  0  0  0  0  0  0  0  0  0
   23.1200  -18.1125  -19.3151 C   0  0  2  0  0  0  0  0  0  0  0  0
   24.4480  -18.5901  -19.8566 N   0  0  0  0  0  0  0  0  0  0  0  0
   22.6322  -19.2759  -18.4983 C   0  0  0  0  0  0  0  0  0  0  0  0
   22.7416  -20.4122  -18.9782 O   0  0  0  0  0  0  0  0  0  0  0  0
   23.7279  -23.5595  -13.0378 N   0  0  0  0  0  0  0  0  0  0  0  0
   24.6586  -22.4405  -13.0685 C   0  0  0  0  0  0  0  0  0  0  0  0
   25.8715  -22.6705  -13.2310 N   0  0  0  0  0  0  0  0  0  0  0  0
   24.1974  -21.1140  -12.8982 N   0  0  0  0  0  0  0  0  0  0  0  0
   22.8486  -20.7283  -12.7128 C   0  0  0  0  0  0  0  0  0  0  0  0
   21.9070  -20.8126  -13.8546 C   0  0  0  0  0  0  0  0  0  0  0  0
   22.3979  -19.9293  -14.9989 C   0  0  0  0  0  0  0  0  0  0  0  0
   21.6112  -20.0864  -16.2758 C   0  0  2  0  0  0  0  0  0  0  0  0
   22.0847  -19.0369  -17.2322 N   0  0  0  0  0  0  0  0  0  0  0  0
   20.1784  -19.9562  -16.1948 C   0  0  0  0  0  0  0  0  0  0  0  0
   19.7047  -18.7705  -15.9192 O   0  0  0  0  0  0  0  0  0  0  0  0
   26.7684  -22.2825  -13.2724 C   0  0  0  0  0  0  0  0  0  0  0  0
   16.9604  -21.5094  -17.0936 C   0  0  1  0  0  0  0  0  0  0  0  0
   17.8036  -20.6260  -16.2167 N   0  0  0  0  0  0  0  0  0  0  0  0
   19.1996  -20.9676  -16.3745 C   0  0  0  0  0  0  0  0  0  0  0  0
   17.4145  -20.7326  -14.7670 O   0  0  0  0  0  0  0  0  0  0  0  0
   16.1444  -20.3239  -14.4103 O   0  0  0  0  0  0  0  0  0  0  0  0
  2  1  1  1
  3  2  1  0
  4  2  1  0
  4  5  1  0
  5  7  1  0
  5  6  1  6
  7  8  2  0
 10 12  1  0
 10  9  1  0
 11 10  2  0
 13 14  1  0
 13 12  1  0
 14 15  1  0
 16 15  1  1
 17 16  1  0
 17  7  1  0
 18 16  1  0
 19 18  2  0
 21 20  1  6
 21 23  1  0
 21 22  1  0
 22 18  1  0
 23 24  1  0
 25 23  2  0
M  END
$$$$
