LRA.pdb
     RDKit          3D

 25 24  0  0  1  0  0  0  0  0999 V2000
   27.5464  -35.1790   -6.5505 C   0  0  0  0  0  0  0  0  0  0  0  0
   27.8001  -33.7308   -6.8433 C   0  0  2  0  0  0  0  0  0  0  0  0
   28.4491  -33.0763   -5.5983 C   0  0  0  0  0  0  0  0  0  0  0  0
   26.5534  -32.9821   -7.1284 C   0  0  0  0  0  0  0  0  0  0  0  0
   25.6743  -33.3833   -8.2569 C   0  0  2  0  0  0  0  0  0  0  0  0
   26.3540  -32.7480   -9.4481 N   0  0  0  0  0  0  0  0  0  0  0  0
   24.3041  -32.7658   -8.2607 C   0  0  0  0  0  0  0  0  0  0  0  0
   24.2158  -31.5433   -8.4371 O   0  0  0  0  0  0  0  0  0  0  0  0
   17.4276  -37.0813  -10.6904 N   0  0  0  0  0  0  0  0  0  0  0  0
   18.2683  -36.3235  -11.6061 C   0  0  0  0  0  0  0  0  0  0  0  0
   18.4112  -36.7350  -12.7726 N   0  0  0  0  0  0  0  0  0  0  0  0
   18.9279  -35.1487  -11.1749 N   0  0  0  0  0  0  0  0  0  0  0  0
   18.9029  -34.6252   -9.8605 C   0  0  0  0  0  0  0  0  0  0  0  0
   19.6662  -33.3911   -9.5570 C   0  0  0  0  0  0  0  0  0  0  0  0
   21.1447  -33.7262   -9.3772 C   0  0  0  0  0  0  0  0  0  0  0  0
   21.7585  -33.1420   -8.1297 C   0  0  2  0  0  0  0  0  0  0  0  0
   23.1863  -33.5879   -8.0752 N   0  0  0  0  0  0  0  0  0  0  0  0
   21.1650  -33.4992   -6.8662 C   0  0  0  0  0  0  0  0  0  0  0  0
   21.6100  -34.5815   -6.2860 O   0  0  0  0  0  0  0  0  0  0  0  0
   18.8459  -36.5818  -13.6353 C   0  0  0  0  0  0  0  0  0  0  0  0
   18.9098  -32.3015   -4.1496 C   0  0  1  0  0  0  0  0  0  0  0  0
   19.6889  -33.3496   -4.8944 N   0  0  0  0  0  0  0  0  0  0  0  0
   20.1393  -32.8177   -6.1612 C   0  0  0  0  0  0  0  0  0  0  0  0
   18.8797  -34.5971   -5.1254 O   0  0  0  0  0  0  0  0  0  0  0  0
   18.5594  -35.3687   -4.0255 O   0  0  0  0  0  0  0  0  0  0  0  0
  2  1  1  1
  3  2  1  0
  4  2  1  0
  4  5  1  0
  5  7  1  0
  5  6  1  6
  7  8  2  0
 10 12  1  0
 10  9  1  0
 11 10  2  0
 13 14  1  0
 13 12  1  0
 14 15  1  0
 16 15  1  6
 17 16  1  0
 17  7  1  0
 18 16  1  0
 19 18  2  0
 21 20  1  1
 21 23  1  0
 21 22  1  0
 22 18  1  0
 23 24  1  0
 25 23  2  0
M  END
$$$$
