LRA.pdb
     RDKit          3D

 25 24  0  0  1  0  0  0  0  0999 V2000
   26.6381  -16.5326  -18.6765 C   0  0  0  0  0  0  0  0  0  0  0  0
   25.6532  -17.1804  -19.6026 C   0  0  2  0  0  0  0  0  0  0  0  0
   24.7823  -16.0778  -20.2551 C   0  0  0  0  0  0  0  0  0  0  0  0
   24.7317  -18.1021  -18.8974 C   0  0  0  0  0  0  0  0  0  0  0  0
   25.2655  -19.1950  -18.0442 C   0  0  2  0  0  0  0  0  0  0  0  0
   25.8003  -20.1775  -19.0609 N   0  0  0  0  0  0  0  0  0  0  0  0
   24.2356  -19.9901  -17.2919 C   0  0  0  0  0  0  0  0  0  0  0  0
   23.2743  -20.4466  -17.9252 O   0  0  0  0  0  0  0  0  0  0  0  0
   26.8628  -21.1483  -10.9878 N   0  0  0  0  0  0  0  0  0  0  0  0
   25.6942  -20.6841  -10.2539 C   0  0  0  0  0  0  0  0  0  0  0  0
   25.8406  -19.8094   -9.3800 N   0  0  0  0  0  0  0  0  0  0  0  0
   24.4153  -21.2297  -10.5147 N   0  0  0  0  0  0  0  0  0  0  0  0
   24.1241  -22.2210  -11.4815 C   0  0  0  0  0  0  0  0  0  0  0  0
   23.2999  -21.8635  -12.6607 C   0  0  0  0  0  0  0  0  0  0  0  0
   24.1766  -21.2170  -13.7302 C   0  0  0  0  0  0  0  0  0  0  0  0
   23.4559  -20.9319  -15.0239 C   0  0  2  0  0  0  0  0  0  0  0  0
   24.4024  -20.1921  -15.9167 N   0  0  0  0  0  0  0  0  0  0  0  0
   22.2512  -20.1444  -14.9548 C   0  0  0  0  0  0  0  0  0  0  0  0
   22.3639  -18.9258  -14.4983 O   0  0  0  0  0  0  0  0  0  0  0  0
   25.3947  -19.2613   -8.7036 C   0  0  0  0  0  0  0  0  0  0  0  0
   19.1785  -19.3224  -16.4518 C   0  0  2  0  0  0  0  0  0  0  0  0
   19.8538  -19.5887  -15.1353 N   0  0  0  0  0  0  0  0  0  0  0  0
   20.9356  -20.5298  -15.3208 C   0  0  0  0  0  0  0  0  0  0  0  0
   18.8928  -20.1151  -14.1039 O   0  0  0  0  0  0  0  0  0  0  0  0
   17.8846  -19.2739  -13.6756 O   0  0  0  0  0  0  0  0  0  0  0  0
  2  1  1  1
  3  2  1  0
  4  2  1  0
  4  5  1  0
  5  7  1  0
  5  6  1  6
  7  8  2  0
 10 12  1  0
 10  9  1  0
 11 10  2  0
 13 14  1  0
 13 12  1  0
 14 15  1  0
 16 15  1  1
 17 16  1  0
 17  7  1  0
 18 16  1  0
 19 18  2  0
 21 20  1  6
 21 23  1  0
 21 22  1  0
 22 18  1  0
 23 24  1  0
 25 23  2  0
M  END
$$$$
