EKT.pdb
     RDKit          3D

 26 25  0  0  1  0  0  0  0  0999 V2000
    8.9266  -16.2396   18.3525 N   0  0  0  0  0  0  0  0  0  0  0  0
    8.2752  -16.8275   19.5043 C   0  0  1  0  0  0  0  0  0  0  0  0
    8.5390  -18.3055   19.4531 C   0  0  0  0  0  0  0  0  0  0  0  0
    8.0441  -19.0505   20.6359 C   0  0  0  0  0  0  0  0  0  0  0  0
    8.3505  -20.4817   20.6683 C   0  0  0  0  0  0  0  0  0  0  0  0
    8.9915  -21.0558   19.7549 O   0  0  0  0  0  0  0  0  0  0  0  0
    8.8040  -16.2306   20.7484 C   0  0  0  0  0  0  0  0  0  0  0  0
   10.0461  -16.0692   20.8558 O   0  0  0  0  0  0  0  0  0  0  0  0
    7.9348  -21.2698   21.7309 O   0  0  0  0  0  0  0  0  0  0  0  0
    8.0078  -15.8243   21.8363 N   0  0  0  0  0  0  0  0  0  0  0  0
    8.5465  -15.1731   23.0360 C   0  0  1  0  0  0  0  0  0  0  0  0
    7.4079  -14.4098   23.6465 C   0  0  0  0  0  0  0  0  0  0  0  0
    7.7226  -13.7762   24.9606 C   0  0  0  0  0  0  0  0  0  0  0  0
    6.5778  -12.9591   25.5224 C   0  0  0  0  0  0  0  0  0  0  0  0
    6.9396  -12.4160   26.8841 C   0  0  0  0  0  0  0  0  0  0  0  0
    5.7847  -11.6880   27.4074 N   0  0  0  0  0  0  0  0  0  0  0  0
    9.1323  -16.1803   23.9587 C   0  0  0  0  0  0  0  0  0  0  0  0
    8.3888  -17.1234   24.3263 O   0  0  0  0  0  0  0  0  0  0  0  0
   13.0302  -18.4078   25.9418 C   0  0  0  0  0  0  0  0  0  0  0  0
   12.4945  -17.2997   25.0601 C   0  0  1  0  0  0  0  0  0  0  0  0
   12.8088  -17.6190   23.7434 O   0  0  0  0  0  0  0  0  0  0  0  0
   10.9974  -17.1970   25.2528 C   0  0  2  0  0  0  0  0  0  0  0  0
   10.4648  -16.1284   24.4346 N   0  0  0  0  0  0  0  0  0  0  0  0
   10.7227  -16.9629   26.6934 C   0  0  0  0  0  0  0  0  0  0  0  0
   10.9482  -17.9519   27.6351 O   0  0  0  0  0  0  0  0  0  0  0  0
   10.2796  -15.8409   27.0334 O   0  0  0  0  0  0  0  0  0  0  0  0
  2  7  1  0
  2  1  1  6
  3  2  1  0
  4  3  1  0
  5  4  1  0
  5  6  2  0
  7 10  1  0
  8  7  2  0
  9  5  1  0
 10 11  1  0
 11 12  1  1
 13 12  1  0
 13 14  1  0
 14 15  1  0
 15 16  1  0
 17 18  2  0
 17 11  1  0
 20 19  1  1
 20 22  1  0
 21 20  1  0
 22 23  1  6
 23 17  1  0
 24 22  1  0
 24 25  1  0
 26 24  2  0
M  END
$$$$
