EKT.pdb
     RDKit          3D

 26 25  0  0  1  0  0  0  0  0999 V2000
    7.4218  -17.4798   17.6509 N   0  0  0  0  0  0  0  0  0  0  0  0
    7.3338  -18.6506   18.4983 C   0  0  1  0  0  0  0  0  0  0  0  0
    8.6702  -19.3347   18.4451 C   0  0  0  0  0  0  0  0  0  0  0  0
    9.8239  -18.4057   18.3761 C   0  0  0  0  0  0  0  0  0  0  0  0
   11.1448  -19.0283   18.2730 C   0  0  0  0  0  0  0  0  0  0  0  0
   11.8027  -19.0432   17.2044 O   0  0  0  0  0  0  0  0  0  0  0  0
    6.9878  -18.2550   19.8794 C   0  0  0  0  0  0  0  0  0  0  0  0
    7.4192  -17.1575   20.3151 O   0  0  0  0  0  0  0  0  0  0  0  0
   11.7280  -19.6359   19.3747 O   0  0  0  0  0  0  0  0  0  0  0  0
    6.2000  -19.0275   20.7542 N   0  0  0  0  0  0  0  0  0  0  0  0
    5.8239  -18.5922   22.1041 C   0  0  1  0  0  0  0  0  0  0  0  0
    4.5950  -19.3719   22.4695 C   0  0  0  0  0  0  0  0  0  0  0  0
    3.3864  -19.0355   21.6612 C   0  0  0  0  0  0  0  0  0  0  0  0
    2.1518  -19.8075   22.0777 C   0  0  0  0  0  0  0  0  0  0  0  0
    0.9698  -19.4048   21.2286 C   0  0  0  0  0  0  0  0  0  0  0  0
   -0.1937  -20.1708   21.6722 N   0  0  0  0  0  0  0  0  0  0  0  0
    6.9487  -18.8013   23.0529 C   0  0  0  0  0  0  0  0  0  0  0  0
    7.6177  -19.8568   22.9267 O   0  0  0  0  0  0  0  0  0  0  0  0
    9.8675  -16.6205   23.6175 C   0  0  0  0  0  0  0  0  0  0  0  0
    9.3129  -16.9033   24.9976 C   0  0  1  0  0  0  0  0  0  0  0  0
    8.5841  -15.7879   25.3962 O   0  0  0  0  0  0  0  0  0  0  0  0
    8.4340  -18.1332   24.9328 C   0  0  2  0  0  0  0  0  0  0  0  0
    7.2959  -17.8840   24.0739 N   0  0  0  0  0  0  0  0  0  0  0  0
    8.0048  -18.4788   26.3119 C   0  0  0  0  0  0  0  0  0  0  0  0
    6.6674  -18.4718   26.6684 O   0  0  0  0  0  0  0  0  0  0  0  0
    8.8907  -18.7780   27.1465 O   0  0  0  0  0  0  0  0  0  0  0  0
  2  7  1  0
  2  1  1  6
  3  2  1  0
  4  3  1  0
  5  4  1  0
  5  6  2  0
  7 10  1  0
  8  7  2  0
  9  5  1  0
 10 11  1  0
 11 12  1  1
 13 12  1  0
 13 14  1  0
 14 15  1  0
 15 16  1  0
 17 18  2  0
 17 11  1  0
 20 19  1  6
 20 22  1  0
 21 20  1  0
 22 23  1  6
 23 17  1  0
 24 22  1  0
 24 25  1  0
 26 24  2  0
M  END
$$$$
