EKT.pdb
     RDKit          3D

 26 25  0  0  1  0  0  0  0  0999 V2000
   10.1377  -19.9299   17.0078 N   0  0  0  0  0  0  0  0  0  0  0  0
   11.4511  -19.3284   16.9092 C   0  0  1  0  0  0  0  0  0  0  0  0
   11.6487  -18.9342   15.4731 C   0  0  0  0  0  0  0  0  0  0  0  0
   12.9878  -18.3691   15.1789 C   0  0  0  0  0  0  0  0  0  0  0  0
   13.2074  -17.9198   13.8031 C   0  0  0  0  0  0  0  0  0  0  0  0
   12.5651  -18.3845   12.8303 O   0  0  0  0  0  0  0  0  0  0  0  0
   11.5436  -18.1570   17.8051 C   0  0  0  0  0  0  0  0  0  0  0  0
   12.6638  -17.6083   17.9618 O   0  0  0  0  0  0  0  0  0  0  0  0
   14.1521  -16.9449   13.5200 O   0  0  0  0  0  0  0  0  0  0  0  0
   10.4545  -17.6034   18.5053 N   0  0  0  0  0  0  0  0  0  0  0  0
   10.5833  -16.4963   19.4598 C   0  0  1  0  0  0  0  0  0  0  0  0
    9.4594  -15.5489   19.1581 C   0  0  0  0  0  0  0  0  0  0  0  0
    9.3782  -14.3742   20.0749 C   0  0  0  0  0  0  0  0  0  0  0  0
    8.1876  -13.4795   19.8001 C   0  0  0  0  0  0  0  0  0  0  0  0
    8.1647  -12.3233   20.7712 C   0  0  0  0  0  0  0  0  0  0  0  0
    6.9386  -11.5601   20.5443 N   0  0  0  0  0  0  0  0  0  0  0  0
   10.5562  -17.0047   20.8562 C   0  0  0  0  0  0  0  0  0  0  0  0
    9.4911  -17.5400   21.2519 O   0  0  0  0  0  0  0  0  0  0  0  0
   11.7822  -19.7543   22.4274 C   0  0  0  0  0  0  0  0  0  0  0  0
   12.3697  -18.6513   23.2820 C   0  0  1  0  0  0  0  0  0  0  0  0
   13.6807  -18.4473   22.8650 O   0  0  0  0  0  0  0  0  0  0  0  0
   11.5412  -17.3976   23.1061 C   0  0  2  0  0  0  0  0  0  0  0  0
   11.6541  -16.9161   21.7458 N   0  0  0  0  0  0  0  0  0  0  0  0
   12.0129  -16.3806   24.0802 C   0  0  0  0  0  0  0  0  0  0  0  0
   11.8101  -16.5433   25.4397 O   0  0  0  0  0  0  0  0  0  0  0  0
   12.6016  -15.3676   23.6350 O   0  0  0  0  0  0  0  0  0  0  0  0
  2  7  1  0
  2  1  1  6
  3  2  1  0
  4  3  1  0
  5  4  1  0
  5  6  2  0
  7 10  1  0
  8  7  2  0
  9  5  1  0
 10 11  1  0
 11 12  1  1
 13 12  1  0
 13 14  1  0
 14 15  1  0
 15 16  1  0
 17 18  2  0
 17 11  1  0
 20 19  1  6
 20 22  1  0
 21 20  1  0
 22 23  1  6
 23 17  1  0
 24 22  1  0
 24 25  1  0
 26 24  2  0
M  END
$$$$
