EKT.pdb
     RDKit          3D

 26 25  0  0  1  0  0  0  0  0999 V2000
    8.4230  -13.4631   18.4044 N   0  0  0  0  0  0  0  0  0  0  0  0
    9.1548  -14.4369   19.1873 C   0  0  1  0  0  0  0  0  0  0  0  0
   10.5717  -13.9478   19.2866 C   0  0  0  0  0  0  0  0  0  0  0  0
   11.4667  -14.8382   20.0645 C   0  0  0  0  0  0  0  0  0  0  0  0
   12.8417  -14.3691   20.2441 C   0  0  0  0  0  0  0  0  0  0  0  0
   13.5273  -14.6586   21.2546 O   0  0  0  0  0  0  0  0  0  0  0  0
    8.5414  -14.5804   20.5241 C   0  0  0  0  0  0  0  0  0  0  0  0
    8.0234  -13.5672   21.0585 O   0  0  0  0  0  0  0  0  0  0  0  0
   13.4479  -13.5722   19.2847 O   0  0  0  0  0  0  0  0  0  0  0  0
    8.4942  -15.7846   21.2523 N   0  0  0  0  0  0  0  0  0  0  0  0
    7.6716  -15.9739   22.4526 C   0  0  1  0  0  0  0  0  0  0  0  0
    7.2388  -17.4107   22.4426 C   0  0  0  0  0  0  0  0  0  0  0  0
    5.9301  -17.6574   21.7690 C   0  0  0  0  0  0  0  0  0  0  0  0
    5.5524  -19.1228   21.7099 C   0  0  0  0  0  0  0  0  0  0  0  0
    4.1694  -19.2851   21.1255 C   0  0  0  0  0  0  0  0  0  0  0  0
    3.8458  -20.7106   21.1062 N   0  0  0  0  0  0  0  0  0  0  0  0
    8.4356  -15.6053   23.6731 C   0  0  0  0  0  0  0  0  0  0  0  0
    9.6311  -15.9848   23.7386 O   0  0  0  0  0  0  0  0  0  0  0  0
    6.6715  -13.5575   26.9082 C   0  0  0  0  0  0  0  0  0  0  0  0
    8.1307  -13.3056   26.5924 C   0  0  1  0  0  0  0  0  0  0  0  0
    8.7868  -13.0634   27.7944 O   0  0  0  0  0  0  0  0  0  0  0  0
    8.7011  -14.5218   25.8961 C   0  0  2  0  0  0  0  0  0  0  0  0
    7.8899  -14.8601   24.7461 N   0  0  0  0  0  0  0  0  0  0  0  0
    8.7517  -15.6417   26.8701 C   0  0  0  0  0  0  0  0  0  0  0  0
    9.6219  -15.6160   27.9462 O   0  0  0  0  0  0  0  0  0  0  0  0
    7.9816  -16.6140   26.6896 O   0  0  0  0  0  0  0  0  0  0  0  0
  2  7  1  0
  2  1  1  6
  3  2  1  0
  4  3  1  0
  5  4  1  0
  5  6  2  0
  7 10  1  0
  8  7  2  0
  9  5  1  0
 10 11  1  0
 11 12  1  1
 13 12  1  0
 13 14  1  0
 14 15  1  0
 15 16  1  0
 17 18  2  0
 17 11  1  0
 20 19  1  1
 20 22  1  0
 21 20  1  0
 22 23  1  6
 23 17  1  0
 24 22  1  0
 24 25  1  0
 26 24  2  0
M  END
$$$$
