EKT.pdb
     RDKit          3D

 26 25  0  0  1  0  0  0  0  0999 V2000
    9.0079  -16.4482   18.2789 N   0  0  0  0  0  0  0  0  0  0  0  0
    8.3800  -17.0100   19.4565 C   0  0  1  0  0  0  0  0  0  0  0  0
    8.7083  -18.4758   19.4741 C   0  0  0  0  0  0  0  0  0  0  0  0
    7.6465  -19.3413   18.9063 C   0  0  0  0  0  0  0  0  0  0  0  0
    7.3262  -20.5494   19.6684 C   0  0  0  0  0  0  0  0  0  0  0  0
    6.3919  -21.3229   19.3466 O   0  0  0  0  0  0  0  0  0  0  0  0
    8.8789  -16.3334   20.6717 C   0  0  0  0  0  0  0  0  0  0  0  0
   10.1188  -16.1722   20.8026 O   0  0  0  0  0  0  0  0  0  0  0  0
    8.0586  -20.8890   20.7960 O   0  0  0  0  0  0  0  0  0  0  0  0
    8.0563  -15.8499   21.7072 N   0  0  0  0  0  0  0  0  0  0  0  0
    8.5748  -15.2183   22.9261 C   0  0  1  0  0  0  0  0  0  0  0  0
    7.4317  -14.4476   23.5185 C   0  0  0  0  0  0  0  0  0  0  0  0
    7.7309  -13.8127   24.8355 C   0  0  0  0  0  0  0  0  0  0  0  0
    6.5725  -13.0118   25.3927 C   0  0  0  0  0  0  0  0  0  0  0  0
    6.9296  -12.4441   26.7456 C   0  0  0  0  0  0  0  0  0  0  0  0
    5.7360  -11.8129   27.3060 N   0  0  0  0  0  0  0  0  0  0  0  0
    9.1268  -16.2426   23.8509 C   0  0  0  0  0  0  0  0  0  0  0  0
    8.3533  -17.1615   24.2177 O   0  0  0  0  0  0  0  0  0  0  0  0
   12.1391  -18.4038   23.4291 C   0  0  0  0  0  0  0  0  0  0  0  0
   12.2762  -17.7693   24.7969 C   0  0  1  0  0  0  0  0  0  0  0  0
   13.1943  -16.7301   24.6898 O   0  0  0  0  0  0  0  0  0  0  0  0
   10.9234  -17.2569   25.2402 C   0  0  2  0  0  0  0  0  0  0  0  0
   10.4592  -16.2320   24.3296 N   0  0  0  0  0  0  0  0  0  0  0  0
   11.0482  -16.7337   26.6245 C   0  0  0  0  0  0  0  0  0  0  0  0
   11.3549  -17.5725   27.6819 O   0  0  0  0  0  0  0  0  0  0  0  0
   10.8672  -15.5072   26.8087 O   0  0  0  0  0  0  0  0  0  0  0  0
  2  7  1  0
  2  1  1  6
  3  2  1  0
  4  3  1  0
  5  4  1  0
  5  6  2  0
  7 10  1  0
  8  7  2  0
  9  5  1  0
 10 11  1  0
 11 12  1  1
 13 12  1  0
 13 14  1  0
 14 15  1  0
 15 16  1  0
 17 18  2  0
 17 11  1  0
 20 19  1  6
 20 22  1  0
 21 20  1  0
 22 23  1  6
 23 17  1  0
 24 22  1  0
 24 25  1  0
 26 24  2  0
M  END
$$$$
