EKT.pdb
     RDKit          3D

 26 25  0  0  1  0  0  0  0  0999 V2000
    8.3389  -14.2400   18.8158 N   0  0  0  0  0  0  0  0  0  0  0  0
    9.2356  -14.8361   19.7840 C   0  0  1  0  0  0  0  0  0  0  0  0
   10.4089  -13.9090   19.9274 C   0  0  0  0  0  0  0  0  0  0  0  0
   11.6845  -14.4624   19.4121 C   0  0  0  0  0  0  0  0  0  0  0  0
   12.8667  -13.6153   19.5798 C   0  0  0  0  0  0  0  0  0  0  0  0
   13.1423  -12.6773   18.7931 O   0  0  0  0  0  0  0  0  0  0  0  0
    8.5397  -15.0249   21.0739 C   0  0  0  0  0  0  0  0  0  0  0  0
    7.6295  -14.2168   21.3886 O   0  0  0  0  0  0  0  0  0  0  0  0
   13.7416  -13.8234   20.6354 O   0  0  0  0  0  0  0  0  0  0  0  0
    8.8255  -16.0570   21.9880 N   0  0  0  0  0  0  0  0  0  0  0  0
    8.0543  -16.2895   23.2147 C   0  0  1  0  0  0  0  0  0  0  0  0
    8.2139  -17.7454   23.5413 C   0  0  0  0  0  0  0  0  0  0  0  0
    7.6016  -18.1587   24.8381 C   0  0  0  0  0  0  0  0  0  0  0  0
    7.7363  -19.6406   25.1201 C   0  0  0  0  0  0  0  0  0  0  0  0
    6.9565  -20.0120   26.3587 C   0  0  0  0  0  0  0  0  0  0  0  0
    6.9563  -21.4690   26.4789 N   0  0  0  0  0  0  0  0  0  0  0  0
    8.5237  -15.3943   24.3044 C   0  0  0  0  0  0  0  0  0  0  0  0
    9.7582  -15.3675   24.5339 O   0  0  0  0  0  0  0  0  0  0  0  0
    7.4514  -11.6094   25.3057 C   0  0  0  0  0  0  0  0  0  0  0  0
    7.2805  -12.6061   26.4325 C   0  0  1  0  0  0  0  0  0  0  0  0
    5.9433  -12.9871   26.4596 O   0  0  0  0  0  0  0  0  0  0  0  0
    8.1804  -13.7956   26.1787 C   0  0  2  0  0  0  0  0  0  0  0  0
    7.6610  -14.5847   25.0821 N   0  0  0  0  0  0  0  0  0  0  0  0
    8.2668  -14.5958   27.4268 C   0  0  0  0  0  0  0  0  0  0  0  0
    7.8320  -15.9092   27.4668 O   0  0  0  0  0  0  0  0  0  0  0  0
    8.7462  -14.0463   28.4463 O   0  0  0  0  0  0  0  0  0  0  0  0
  2  7  1  0
  2  1  1  6
  3  2  1  0
  4  3  1  0
  5  4  1  0
  5  6  2  0
  7 10  1  0
  8  7  2  0
  9  5  1  0
 10 11  1  0
 11 12  1  1
 13 12  1  0
 13 14  1  0
 14 15  1  0
 15 16  1  0
 17 18  2  0
 17 11  1  0
 20 19  1  6
 20 22  1  0
 21 20  1  0
 22 23  1  6
 23 17  1  0
 24 22  1  0
 24 25  1  0
 26 24  2  0
M  END
$$$$
