EKT.pdb
     RDKit          3D

 26 25  0  0  1  0  0  0  0  0999 V2000
   10.8428  -17.5345   17.8028 N   0  0  0  0  0  0  0  0  0  0  0  0
   10.8425  -18.3301   19.0127 C   0  0  1  0  0  0  0  0  0  0  0  0
   12.0559  -19.2142   18.9591 C   0  0  0  0  0  0  0  0  0  0  0  0
   12.9910  -18.8930   17.8540 C   0  0  0  0  0  0  0  0  0  0  0  0
   14.0091  -19.9030   17.5598 C   0  0  0  0  0  0  0  0  0  0  0  0
   14.0884  -20.9853   18.1899 O   0  0  0  0  0  0  0  0  0  0  0  0
   10.8706  -17.4512   20.2003 C   0  0  0  0  0  0  0  0  0  0  0  0
   11.9722  -16.9638   20.5601 O   0  0  0  0  0  0  0  0  0  0  0  0
   14.9410  -19.6955   16.5539 O   0  0  0  0  0  0  0  0  0  0  0  0
    9.7391  -17.1155   20.9680 N   0  0  0  0  0  0  0  0  0  0  0  0
    9.7666  -16.1492   22.0722 C   0  0  1  0  0  0  0  0  0  0  0  0
    8.6420  -15.1889   21.8179 C   0  0  0  0  0  0  0  0  0  0  0  0
    8.7679  -14.4112   20.5504 C   0  0  0  0  0  0  0  0  0  0  0  0
    7.5584  -13.5498   20.2521 C   0  0  0  0  0  0  0  0  0  0  0  0
    7.7783  -12.7569   18.9859 C   0  0  0  0  0  0  0  0  0  0  0  0
    6.6157  -11.8952   18.7786 N   0  0  0  0  0  0  0  0  0  0  0  0
    9.6514  -16.8466   23.3797 C   0  0  0  0  0  0  0  0  0  0  0  0
    8.5883  -17.4772   23.6024 O   0  0  0  0  0  0  0  0  0  0  0  0
   11.2799  -19.6917   24.6040 C   0  0  0  0  0  0  0  0  0  0  0  0
   11.5443  -18.6690   25.6886 C   0  0  1  0  0  0  0  0  0  0  0  0
   12.8220  -18.1588   25.4850 O   0  0  0  0  0  0  0  0  0  0  0  0
   10.5015  -17.5764   25.6003 C   0  0  2  0  0  0  0  0  0  0  0  0
   10.6647  -16.8342   24.3684 N   0  0  0  0  0  0  0  0  0  0  0  0
   10.6427  -16.6933   26.7860 C   0  0  0  0  0  0  0  0  0  0  0  0
   10.4719  -17.1842   28.0688 O   0  0  0  0  0  0  0  0  0  0  0  0
   10.9219  -15.4869   26.5915 O   0  0  0  0  0  0  0  0  0  0  0  0
  2  7  1  0
  2  1  1  6
  3  2  1  0
  4  3  1  0
  5  4  1  0
  5  6  2  0
  7 10  1  0
  8  7  2  0
  9  5  1  0
 10 11  1  0
 11 12  1  6
 13 12  1  0
 13 14  1  0
 14 15  1  0
 15 16  1  0
 17 18  2  0
 17 11  1  0
 20 19  1  6
 20 22  1  0
 21 20  1  0
 22 23  1  6
 23 17  1  0
 24 22  1  0
 24 25  1  0
 26 24  2  0
M  END
$$$$
