EKT.pdb
     RDKit          3D

 26 25  0  0  1  0  0  0  0  0999 V2000
    9.9271  -15.8860   19.6473 N   0  0  0  0  0  0  0  0  0  0  0  0
    9.4172  -16.7099   20.7233 C   0  0  1  0  0  0  0  0  0  0  0  0
   10.1931  -17.9960   20.6995 C   0  0  0  0  0  0  0  0  0  0  0  0
   10.0326  -18.7772   19.4493 C   0  0  0  0  0  0  0  0  0  0  0  0
   10.7563  -20.0483   19.3885 C   0  0  0  0  0  0  0  0  0  0  0  0
   11.4821  -20.4576   20.3268 O   0  0  0  0  0  0  0  0  0  0  0  0
    9.5733  -16.0125   22.0167 C   0  0  0  0  0  0  0  0  0  0  0  0
   10.7352  -15.8005   22.4476 O   0  0  0  0  0  0  0  0  0  0  0  0
   10.6637  -20.8617   18.2692 O   0  0  0  0  0  0  0  0  0  0  0  0
    8.5021  -15.5625   22.8120 N   0  0  0  0  0  0  0  0  0  0  0  0
    8.6780  -14.9116   24.1154 C   0  0  1  0  0  0  0  0  0  0  0  0
    7.4687  -14.0471   24.3196 C   0  0  0  0  0  0  0  0  0  0  0  0
    7.4238  -13.3484   25.6376 C   0  0  0  0  0  0  0  0  0  0  0  0
    6.1905  -12.4883   25.8193 C   0  0  0  0  0  0  0  0  0  0  0  0
    6.1893  -11.8556   27.1904 C   0  0  0  0  0  0  0  0  0  0  0  0
    4.9547  -11.0866   27.3378 N   0  0  0  0  0  0  0  0  0  0  0  0
    8.8547  -15.9268   25.1866 C   0  0  0  0  0  0  0  0  0  0  0  0
    7.9201  -16.7478   25.3595 O   0  0  0  0  0  0  0  0  0  0  0  0
   11.0561  -18.6398   25.3787 C   0  0  0  0  0  0  0  0  0  0  0  0
   11.3018  -17.9407   26.6990 C   0  0  1  0  0  0  0  0  0  0  0  0
   12.4712  -17.1987   26.5722 O   0  0  0  0  0  0  0  0  0  0  0  0
   10.1212  -17.0473   27.0106 C   0  0  2  0  0  0  0  0  0  0  0  0
   10.0057  -16.0110   26.0067 N   0  0  0  0  0  0  0  0  0  0  0  0
   10.3126  -16.4689   28.3649 C   0  0  0  0  0  0  0  0  0  0  0  0
   10.4508  -15.1038   28.5474 O   0  0  0  0  0  0  0  0  0  0  0  0
   10.3455  -17.2543   29.3412 O   0  0  0  0  0  0  0  0  0  0  0  0
  2  7  1  0
  2  1  1  6
  3  2  1  0
  4  3  1  0
  5  4  1  0
  5  6  2  0
  7 10  1  0
  8  7  2  0
  9  5  1  0
 10 11  1  0
 11 12  1  1
 13 12  1  0
 13 14  1  0
 14 15  1  0
 15 16  1  0
 17 18  2  0
 17 11  1  0
 20 19  1  6
 20 22  1  0
 21 20  1  0
 22 23  1  6
 23 17  1  0
 24 22  1  0
 24 25  1  0
 26 24  2  0
M  END
$$$$
