EKT.pdb
     RDKit          3D

 26 25  0  0  1  0  0  0  0  0999 V2000
    9.8704  -14.7789   18.4888 N   0  0  0  0  0  0  0  0  0  0  0  0
   10.3563  -15.4112   19.6974 C   0  0  1  0  0  0  0  0  0  0  0  0
   11.6846  -14.7872   20.0179 C   0  0  0  0  0  0  0  0  0  0  0  0
   12.8308  -15.4041   19.3076 C   0  0  0  0  0  0  0  0  0  0  0  0
   14.1408  -14.7991   19.5545 C   0  0  0  0  0  0  0  0  0  0  0  0
   14.4988  -13.7220   19.0192 O   0  0  0  0  0  0  0  0  0  0  0  0
    9.3909  -15.2143   20.7987 C   0  0  0  0  0  0  0  0  0  0  0  0
    8.7838  -14.1161   20.8753 O   0  0  0  0  0  0  0  0  0  0  0  0
   15.0512  -15.4070   20.4059 O   0  0  0  0  0  0  0  0  0  0  0  0
    9.0977  -16.1793   21.7812 N   0  0  0  0  0  0  0  0  0  0  0  0
    8.0307  -16.0240   22.7767 C   0  0  1  0  0  0  0  0  0  0  0  0
    7.4932  -17.4011   23.0343 C   0  0  0  0  0  0  0  0  0  0  0  0
    6.7425  -17.9958   21.8898 C   0  0  0  0  0  0  0  0  0  0  0  0
    6.2156  -19.3866   22.1754 C   0  0  0  0  0  0  0  0  0  0  0  0
    5.4618  -19.9181   20.9798 C   0  0  0  0  0  0  0  0  0  0  0  0
    5.0242  -21.2795   21.2836 N   0  0  0  0  0  0  0  0  0  0  0  0
    8.5518  -15.3644   24.0025 C   0  0  0  0  0  0  0  0  0  0  0  0
    9.7473  -15.5921   24.3130 O   0  0  0  0  0  0  0  0  0  0  0  0
    7.4376  -11.7047   25.6371 C   0  0  0  0  0  0  0  0  0  0  0  0
    7.4198  -12.8831   26.5876 C   0  0  1  0  0  0  0  0  0  0  0  0
    6.1064  -13.3312   26.6793 O   0  0  0  0  0  0  0  0  0  0  0  0
    8.3279  -13.9658   26.0471 C   0  0  2  0  0  0  0  0  0  0  0  0
    7.7787  -14.5071   24.8221 N   0  0  0  0  0  0  0  0  0  0  0  0
    8.4756  -15.0182   27.0844 C   0  0  0  0  0  0  0  0  0  0  0  0
    9.0347  -14.7338   28.3183 O   0  0  0  0  0  0  0  0  0  0  0  0
    8.0784  -16.1749   26.8102 O   0  0  0  0  0  0  0  0  0  0  0  0
  2  7  1  0
  2  1  1  6
  3  2  1  0
  4  3  1  0
  5  4  1  0
  5  6  2  0
  7 10  1  0
  8  7  2  0
  9  5  1  0
 10 11  1  0
 11 12  1  1
 13 12  1  0
 13 14  1  0
 14 15  1  0
 15 16  1  0
 17 18  2  0
 17 11  1  0
 20 19  1  6
 20 22  1  0
 21 20  1  0
 22 23  1  6
 23 17  1  0
 24 22  1  0
 24 25  1  0
 26 24  2  0
M  END
$$$$
