EKT.pdb
     RDKit          3D

 26 25  0  0  1  0  0  0  0  0999 V2000
    9.6418  -16.9269   20.0386 N   0  0  0  0  0  0  0  0  0  0  0  0
    8.5957  -15.9297   20.1277 C   0  0  1  0  0  0  0  0  0  0  0  0
    7.6029  -16.2342   19.0422 C   0  0  0  0  0  0  0  0  0  0  0  0
    8.1802  -16.9436   17.8749 C   0  0  0  0  0  0  0  0  0  0  0  0
    7.2377  -17.3152   16.8183 C   0  0  0  0  0  0  0  0  0  0  0  0
    6.7414  -18.4643   16.7296 O   0  0  0  0  0  0  0  0  0  0  0  0
    7.9625  -15.9735   21.4621 C   0  0  0  0  0  0  0  0  0  0  0  0
    6.8960  -15.3325   21.6415 O   0  0  0  0  0  0  0  0  0  0  0  0
    6.8518  -16.3918   15.8583 O   0  0  0  0  0  0  0  0  0  0  0  0
    8.4730  -16.6901   22.5614 N   0  0  0  0  0  0  0  0  0  0  0  0
    7.8595  -16.6743   23.8944 C   0  0  1  0  0  0  0  0  0  0  0  0
    8.2658  -17.9570   24.5588 C   0  0  0  0  0  0  0  0  0  0  0  0
    7.8314  -18.0809   25.9812 C   0  0  0  0  0  0  0  0  0  0  0  0
    8.2243  -19.3986   26.6161 C   0  0  0  0  0  0  0  0  0  0  0  0
    7.6447  -19.5047   28.0064 C   0  0  0  0  0  0  0  0  0  0  0  0
    8.1957  -20.7008   28.6412 N   0  0  0  0  0  0  0  0  0  0  0  0
    8.2847  -15.4676   24.6509 C   0  0  0  0  0  0  0  0  0  0  0  0
    9.4981  -15.1495   24.5897 O   0  0  0  0  0  0  0  0  0  0  0  0
    6.8353  -11.8172   24.8338 C   0  0  0  0  0  0  0  0  0  0  0  0
    6.8930  -12.4379   26.2135 C   0  0  1  0  0  0  0  0  0  0  0  0
    5.6206  -12.9102   26.5172 O   0  0  0  0  0  0  0  0  0  0  0  0
    7.9039  -13.5637   26.2054 C   0  0  2  0  0  0  0  0  0  0  0  0
    7.4028  -14.6737   25.4233 N   0  0  0  0  0  0  0  0  0  0  0  0
    8.1698  -13.9682   27.6094 C   0  0  0  0  0  0  0  0  0  0  0  0
    8.6093  -13.0507   28.5479 O   0  0  0  0  0  0  0  0  0  0  0  0
    7.9844  -15.1679   27.9215 O   0  0  0  0  0  0  0  0  0  0  0  0
  2  7  1  0
  2  1  1  1
  3  2  1  0
  4  3  1  0
  5  4  1  0
  5  6  2  0
  7 10  1  0
  8  7  2  0
  9  5  1  0
 10 11  1  0
 11 12  1  1
 13 12  1  0
 13 14  1  0
 14 15  1  0
 15 16  1  0
 17 18  2  0
 17 11  1  0
 20 19  1  6
 20 22  1  0
 21 20  1  0
 22 23  1  6
 23 17  1  0
 24 22  1  0
 24 25  1  0
 26 24  2  0
M  END
$$$$
