EKT.pdb
     RDKit          3D

 26 25  0  0  1  0  0  0  0  0999 V2000
    9.8938  -18.7792   21.2273 N   0  0  0  0  0  0  0  0  0  0  0  0
   10.9382  -18.2881   22.1017 C   0  0  1  0  0  0  0  0  0  0  0  0
   12.2082  -18.2615   21.2998 C   0  0  0  0  0  0  0  0  0  0  0  0
   12.0011  -18.3499   19.8341 C   0  0  0  0  0  0  0  0  0  0  0  0
   13.1091  -17.8827   18.9992 C   0  0  0  0  0  0  0  0  0  0  0  0
   13.2156  -16.6899   18.6241 O   0  0  0  0  0  0  0  0  0  0  0  0
   10.5916  -16.9420   22.6033 C   0  0  0  0  0  0  0  0  0  0  0  0
   11.4455  -16.3161   23.2812 O   0  0  0  0  0  0  0  0  0  0  0  0
   14.1006  -18.7592   18.5848 O   0  0  0  0  0  0  0  0  0  0  0  0
    9.3589  -16.3012   22.3743 N   0  0  0  0  0  0  0  0  0  0  0  0
    9.0327  -14.9653   22.8868 C   0  0  1  0  0  0  0  0  0  0  0  0
    8.0096  -14.3944   21.9493 C   0  0  0  0  0  0  0  0  0  0  0  0
    8.4774  -14.2454   20.5400 C   0  0  0  0  0  0  0  0  0  0  0  0
    7.4485  -13.6070   19.6303 C   0  0  0  0  0  0  0  0  0  0  0  0
    7.9755  -13.5261   18.2175 C   0  0  0  0  0  0  0  0  0  0  0  0
    6.9131  -12.9983   17.3630 N   0  0  0  0  0  0  0  0  0  0  0  0
    8.5529  -15.0473   24.2911 C   0  0  0  0  0  0  0  0  0  0  0  0
    7.5476  -15.7666   24.5135 O   0  0  0  0  0  0  0  0  0  0  0  0
    9.2667  -16.7862   27.0006 C   0  0  0  0  0  0  0  0  0  0  0  0
    9.4019  -15.3853   27.5588 C   0  0  1  0  0  0  0  0  0  0  0  0
   10.7524  -15.0534   27.5428 O   0  0  0  0  0  0  0  0  0  0  0  0
    8.5973  -14.4334   26.7011 C   0  0  2  0  0  0  0  0  0  0  0  0
    9.1641  -14.3655   25.3709 N   0  0  0  0  0  0  0  0  0  0  0  0
    8.5918  -13.1001   27.3549 C   0  0  0  0  0  0  0  0  0  0  0  0
    8.0286  -12.9186   28.6062 O   0  0  0  0  0  0  0  0  0  0  0  0
    9.1131  -12.1406   26.7397 O   0  0  0  0  0  0  0  0  0  0  0  0
  2  7  1  0
  2  1  1  6
  3  2  1  0
  4  3  1  0
  5  4  1  0
  5  6  2  0
  7 10  1  0
  8  7  2  0
  9  5  1  0
 10 11  1  0
 11 12  1  6
 13 12  1  0
 13 14  1  0
 14 15  1  0
 15 16  1  0
 17 18  2  0
 17 11  1  0
 20 19  1  6
 20 22  1  0
 21 20  1  0
 22 23  1  6
 23 17  1  0
 24 22  1  0
 24 25  1  0
 26 24  2  0
M  END
$$$$
