EKT.pdb
     RDKit          3D

 26 25  0  0  1  0  0  0  0  0999 V2000
    8.8991  -15.7598   18.9751 N   0  0  0  0  0  0  0  0  0  0  0  0
    9.7277  -16.1152   20.1082 C   0  0  1  0  0  0  0  0  0  0  0  0
   10.9137  -15.1933   20.0934 C   0  0  0  0  0  0  0  0  0  0  0  0
   12.0515  -15.6832   19.2783 C   0  0  0  0  0  0  0  0  0  0  0  0
   13.3071  -14.9436   19.4175 C   0  0  0  0  0  0  0  0  0  0  0  0
   13.6328  -14.0138   18.6401 O   0  0  0  0  0  0  0  0  0  0  0  0
    8.9591  -15.9811   21.3631 C   0  0  0  0  0  0  0  0  0  0  0  0
    8.0774  -15.0878   21.4342 O   0  0  0  0  0  0  0  0  0  0  0  0
   14.1994  -15.2502   20.4338 O   0  0  0  0  0  0  0  0  0  0  0  0
    9.1447  -16.7913   22.4997 N   0  0  0  0  0  0  0  0  0  0  0  0
    8.2706  -16.7472   23.6777 C   0  0  1  0  0  0  0  0  0  0  0  0
    8.3753  -18.0951   24.3288 C   0  0  0  0  0  0  0  0  0  0  0  0
    7.6193  -18.2234   25.6091 C   0  0  0  0  0  0  0  0  0  0  0  0
    7.8305  -19.5545   26.3000 C   0  0  0  0  0  0  0  0  0  0  0  0
    7.0884  -19.5869   27.6147 C   0  0  0  0  0  0  0  0  0  0  0  0
    7.2811  -20.9056   28.2159 N   0  0  0  0  0  0  0  0  0  0  0  0
    8.6652  -15.6336   24.5795 C   0  0  0  0  0  0  0  0  0  0  0  0
    9.8945  -15.4349   24.7428 O   0  0  0  0  0  0  0  0  0  0  0  0
    7.0061  -11.9511   24.8357 C   0  0  0  0  0  0  0  0  0  0  0  0
    7.1271  -12.6436   26.1767 C   0  0  1  0  0  0  0  0  0  0  0  0
    5.8887  -13.2006   26.4770 O   0  0  0  0  0  0  0  0  0  0  0  0
    8.1962  -13.7104   26.0855 C   0  0  2  0  0  0  0  0  0  0  0  0
    7.7379  -14.8009   25.2513 N   0  0  0  0  0  0  0  0  0  0  0  0
    8.5142  -14.1773   27.4590 C   0  0  0  0  0  0  0  0  0  0  0  0
    9.0092  -13.3067   28.4144 O   0  0  0  0  0  0  0  0  0  0  0  0
    8.3211  -15.3858   27.7293 O   0  0  0  0  0  0  0  0  0  0  0  0
  2  7  1  0
  2  1  1  6
  3  2  1  0
  4  3  1  0
  5  4  1  0
  5  6  2  0
  7 10  1  0
  8  7  2  0
  9  5  1  0
 10 11  1  0
 11 12  1  1
 13 12  1  0
 13 14  1  0
 14 15  1  0
 15 16  1  0
 17 18  2  0
 17 11  1  0
 20 19  1  6
 20 22  1  0
 21 20  1  0
 22 23  1  6
 23 17  1  0
 24 22  1  0
 24 25  1  0
 26 24  2  0
M  END
$$$$
