EKT.pdb
     RDKit          3D

 26 25  0  0  1  0  0  0  0  0999 V2000
   14.4452  -18.0181   15.9672 N   0  0  0  0  0  0  0  0  0  0  0  0
   14.5194  -18.8670   17.1379 C   0  0  1  0  0  0  0  0  0  0  0  0
   15.7948  -18.5216   17.8526 C   0  0  0  0  0  0  0  0  0  0  0  0
   16.9298  -19.4218   17.5355 C   0  0  0  0  0  0  0  0  0  0  0  0
   18.1515  -19.2146   18.3149 C   0  0  0  0  0  0  0  0  0  0  0  0
   18.3701  -18.1608   18.9602 O   0  0  0  0  0  0  0  0  0  0  0  0
   13.3422  -18.6455   18.0032 C   0  0  0  0  0  0  0  0  0  0  0  0
   12.8481  -17.4909   18.0600 O   0  0  0  0  0  0  0  0  0  0  0  0
   19.1304  -20.1953   18.3691 O   0  0  0  0  0  0  0  0  0  0  0  0
   12.7257  -19.6462   18.7785 N   0  0  0  0  0  0  0  0  0  0  0  0
   11.5426  -19.4100   19.6140 C   0  0  1  0  0  0  0  0  0  0  0  0
   10.7474  -20.6823   19.5851 C   0  0  0  0  0  0  0  0  0  0  0  0
    9.7222  -20.7460   18.5024 C   0  0  0  0  0  0  0  0  0  0  0  0
    8.9174  -22.0289   18.5127 C   0  0  0  0  0  0  0  0  0  0  0  0
    7.8328  -21.9763   17.4634 C   0  0  0  0  0  0  0  0  0  0  0  0
    7.0327  -23.1952   17.5715 N   0  0  0  0  0  0  0  0  0  0  0  0
   11.9447  -19.0067   20.9869 C   0  0  0  0  0  0  0  0  0  0  0  0
   13.0327  -19.4582   21.4226 O   0  0  0  0  0  0  0  0  0  0  0  0
   11.2328  -15.3422   22.6075 C   0  0  0  0  0  0  0  0  0  0  0  0
   10.9301  -16.4837   23.5549 C   0  0  1  0  0  0  0  0  0  0  0  0
    9.5558  -16.6962   23.5341 O   0  0  0  0  0  0  0  0  0  0  0  0
   11.6785  -17.7161   23.0964 C   0  0  2  0  0  0  0  0  0  0  0  0
   11.1735  -18.1532   21.8122 N   0  0  0  0  0  0  0  0  0  0  0  0
   11.5212  -18.7736   24.1273 C   0  0  0  0  0  0  0  0  0  0  0  0
   10.8159  -19.9343   23.8605 O   0  0  0  0  0  0  0  0  0  0  0  0
   12.0468  -18.5846   25.2494 O   0  0  0  0  0  0  0  0  0  0  0  0
  2  7  1  0
  2  1  1  6
  3  2  1  0
  4  3  1  0
  5  4  1  0
  5  6  2  0
  7 10  1  0
  8  7  2  0
  9  5  1  0
 10 11  1  0
 11 12  1  1
 13 12  1  0
 13 14  1  0
 14 15  1  0
 15 16  1  0
 17 18  2  0
 17 11  1  0
 20 19  1  6
 20 22  1  0
 21 20  1  0
 22 23  1  6
 23 17  1  0
 24 22  1  0
 24 25  1  0
 26 24  2  0
M  END
$$$$
