EKT.pdb
     RDKit          3D

 26 25  0  0  1  0  0  0  0  0999 V2000
    5.8065  -18.4080   20.2898 N   0  0  0  0  0  0  0  0  0  0  0  0
    7.0701  -18.0513   20.9004 C   0  0  1  0  0  0  0  0  0  0  0  0
    7.6539  -16.9332   20.0845 C   0  0  0  0  0  0  0  0  0  0  0  0
    8.6567  -17.3727   19.0844 C   0  0  0  0  0  0  0  0  0  0  0  0
    9.3780  -16.3070   18.3865 C   0  0  0  0  0  0  0  0  0  0  0  0
   10.5795  -16.0358   18.6263 O   0  0  0  0  0  0  0  0  0  0  0  0
    6.8593  -17.6387   22.3036 C   0  0  0  0  0  0  0  0  0  0  0  0
    5.9261  -16.8360   22.5593 O   0  0  0  0  0  0  0  0  0  0  0  0
    8.7464  -15.5439   17.4160 O   0  0  0  0  0  0  0  0  0  0  0  0
    7.6374  -18.0846   23.3891 N   0  0  0  0  0  0  0  0  0  0  0  0
    7.4117  -17.6611   24.7759 C   0  0  1  0  0  0  0  0  0  0  0  0
    7.9956  -18.7371   25.6437 C   0  0  0  0  0  0  0  0  0  0  0  0
    7.9328  -18.4526   27.1074 C   0  0  0  0  0  0  0  0  0  0  0  0
    8.6760  -19.4692   27.9488 C   0  0  0  0  0  0  0  0  0  0  0  0
    8.5046  -19.1610   29.4171 C   0  0  0  0  0  0  0  0  0  0  0  0
    9.1138  -20.2451   30.1858 N   0  0  0  0  0  0  0  0  0  0  0  0
    8.0169  -16.3255   25.0193 C   0  0  0  0  0  0  0  0  0  0  0  0
    9.2010  -16.1535   24.6377 O   0  0  0  0  0  0  0  0  0  0  0  0
    6.5550  -12.5758   24.6092 C   0  0  0  0  0  0  0  0  0  0  0  0
    7.0365  -12.8775   26.0126 C   0  0  1  0  0  0  0  0  0  0  0  0
    5.9240  -13.2112   26.7776 O   0  0  0  0  0  0  0  0  0  0  0  0
    8.0238  -14.0227   25.9591 C   0  0  2  0  0  0  0  0  0  0  0  0
    7.3343  -15.2571   25.6494 N   0  0  0  0  0  0  0  0  0  0  0  0
    8.7197  -14.1062   27.2684 C   0  0  0  0  0  0  0  0  0  0  0  0
    9.4145  -13.0240   27.7803 O   0  0  0  0  0  0  0  0  0  0  0  0
    8.6599  -15.1879   27.8989 O   0  0  0  0  0  0  0  0  0  0  0  0
  2  7  1  0
  2  1  1  6
  3  2  1  0
  4  3  1  0
  5  4  1  0
  5  6  2  0
  7 10  1  0
  8  7  2  0
  9  5  1  0
 10 11  1  0
 11 12  1  1
 13 12  1  0
 13 14  1  0
 14 15  1  0
 15 16  1  0
 17 18  2  0
 17 11  1  0
 20 19  1  6
 20 22  1  0
 21 20  1  0
 22 23  1  1
 23 17  1  0
 24 22  1  0
 24 25  1  0
 26 24  2  0
M  END
$$$$
