YMA.pdb
     RDKit          3D

 26 26  0  0  1  0  0  0  0  0999 V2000
   20.5490  -12.9666  -24.2542 O   0  0  0  0  0  0  0  0  0  0  0  0
   20.5503  -12.4093  -22.9957 C   0  0  0  0  0  0  0  0  0  0  0  0
   19.4952  -12.6208  -22.1254 C   0  0  0  0  0  0  0  0  0  0  0  0
   19.4961  -12.0631  -20.8656 C   0  0  0  0  0  0  0  0  0  0  0  0
   20.5403  -11.2934  -20.4601 C   0  0  0  0  0  0  0  0  0  0  0  0
   20.5378  -10.6941  -19.1007 C   0  0  0  0  0  0  0  0  0  0  0  0
   21.6059  -11.4077  -18.2970 C   0  0  2  0  0  0  0  0  0  0  0  0
   21.0731  -12.7053  -17.9234 N   0  0  0  0  0  0  0  0  0  0  0  0
   22.0018  -10.6230  -17.0985 C   0  0  0  0  0  0  0  0  0  0  0  0
   21.3263  -10.6226  -16.0315 O   0  0  0  0  0  0  0  0  0  0  0  0
   21.6050  -11.0637  -21.3013 C   0  0  0  0  0  0  0  0  0  0  0  0
   21.6044  -11.6259  -22.5717 C   0  0  0  0  0  0  0  0  0  0  0  0
   27.8528  -12.0937  -14.4868 C   0  0  0  0  0  0  0  0  0  0  0  0
   27.3328  -10.5298  -15.2278 S   0  0  0  0  0  0  0  0  0  0  0  0
   25.5190  -10.3996  -15.2925 C   0  0  0  0  0  0  0  0  0  0  0  0
   25.0794   -9.0567  -15.8027 C   0  0  0  0  0  0  0  0  0  0  0  0
   23.6105   -9.0225  -15.9669 C   0  0  2  0  0  0  0  0  0  0  0  0
   23.1683   -9.8335  -17.1052 N   0  0  0  0  0  0  0  0  0  0  0  0
   22.9902   -7.6904  -16.1074 C   0  0  0  0  0  0  0  0  0  0  0  0
   22.8962   -7.0178  -17.1537 O   0  0  0  0  0  0  0  0  0  0  0  0
   21.0242   -5.4898  -13.7418 C   0  0  0  0  0  0  0  0  0  0  0  0
   21.7366   -5.7578  -15.0513 C   0  0  2  0  0  0  0  0  0  0  0  0
   22.4098   -7.0378  -14.9450 N   0  0  0  0  0  0  0  0  0  0  0  0
   22.7426   -4.6642  -15.2770 C   0  0  0  0  0  0  0  0  0  0  0  0
   23.9534   -4.8274  -15.0823 O   0  0  0  0  0  0  0  0  0  0  0  0
   22.2518   -3.4487  -15.7181 O   0  0  0  0  0  0  0  0  0  0  0  0
  2  3  2  0
  2  1  1  0
  4  3  1  0
  5  4  2  0
  6  5  1  0
  7  9  1  0
  7  6  1  0
  7  8  1  1
  9 10  2  0
 11  5  1  0
 11 12  2  0
 12  2  1  0
 14 13  1  0
 15 14  1  0
 16 15  1  0
 17 16  1  6
 18  9  1  0
 18 17  1  0
 19 23  1  0
 19 17  1  0
 20 19  2  0
 22 21  1  1
 22 24  1  0
 22 23  1  0
 24 26  1  0
 25 24  2  0
M  END
$$$$
