YMA.pdb
     RDKit          3D

 26 26  0  0  1  0  0  0  0  0999 V2000
   22.9884  -14.1287  -23.1923 O   0  0  0  0  0  0  0  0  0  0  0  0
   22.1842  -14.6506  -22.2047 C   0  0  0  0  0  0  0  0  0  0  0  0
   20.9378  -15.1711  -22.5063 C   0  0  0  0  0  0  0  0  0  0  0  0
   20.1325  -15.6935  -21.5180 C   0  0  0  0  0  0  0  0  0  0  0  0
   20.5556  -15.7038  -20.2265 C   0  0  0  0  0  0  0  0  0  0  0  0
   19.6845  -16.2683  -19.1636 C   0  0  0  0  0  0  0  0  0  0  0  0
   18.3640  -15.5282  -19.2297 C   0  0  2  0  0  0  0  0  0  0  0  0
   18.5891  -14.1923  -18.7083 N   0  0  0  0  0  0  0  0  0  0  0  0
   17.3045  -16.2338  -18.4628 C   0  0  0  0  0  0  0  0  0  0  0  0
   17.1574  -16.0923  -17.2165 O   0  0  0  0  0  0  0  0  0  0  0  0
   21.7896  -15.1938  -19.8931 C   0  0  0  0  0  0  0  0  0  0  0  0
   22.6018  -14.6670  -20.8894 C   0  0  0  0  0  0  0  0  0  0  0  0
   10.0967  -19.1972  -18.1222 C   0  0  0  0  0  0  0  0  0  0  0  0
   11.3765  -18.3953  -19.1143 S   0  0  0  0  0  0  0  0  0  0  0  0
   13.0009  -18.4897  -18.2997 C   0  0  0  0  0  0  0  0  0  0  0  0
   14.0526  -17.7507  -19.0772 C   0  0  0  0  0  0  0  0  0  0  0  0
   15.3662  -17.8680  -18.4090 C   0  0  2  0  0  0  0  0  0  0  0  0
   16.4052  -17.1054  -19.1076 N   0  0  0  0  0  0  0  0  0  0  0  0
   15.8856  -19.2345  -18.2036 C   0  0  0  0  0  0  0  0  0  0  0  0
   15.3626  -20.1361  -17.5183 O   0  0  0  0  0  0  0  0  0  0  0  0
   18.9518  -21.0683  -19.4682 C   0  0  0  0  0  0  0  0  0  0  0  0
   17.6128  -21.0022  -18.7633 C   0  0  2  0  0  0  0  0  0  0  0  0
   17.1310  -19.6365  -18.8370 N   0  0  0  0  0  0  0  0  0  0  0  0
   17.8117  -21.4014  -17.3280 C   0  0  0  0  0  0  0  0  0  0  0  0
   17.7507  -22.5789  -16.9535 O   0  0  0  0  0  0  0  0  0  0  0  0
   18.0694  -20.3827  -16.4288 O   0  0  0  0  0  0  0  0  0  0  0  0
  2  3  2  0
  2  1  1  0
  4  3  1  0
  5  4  2  0
  6  5  1  0
  7  9  1  0
  7  6  1  0
  7  8  1  1
  9 10  2  0
 11  5  1  0
 11 12  2  0
 12  2  1  0
 14 13  1  0
 15 14  1  0
 16 15  1  0
 17 16  1  6
 18  9  1  0
 18 17  1  0
 19 23  1  0
 19 17  1  0
 20 19  2  0
 22 21  1  6
 22 24  1  0
 22 23  1  0
 24 26  1  0
 25 24  2  0
M  END
$$$$
