YMA.pdb
     RDKit          3D

 26 26  0  0  1  0  0  0  0  0999 V2000
   19.2973  -22.4275   -8.0666 O   0  0  0  0  0  0  0  0  0  0  0  0
   20.5219  -21.9226   -8.4405 C   0  0  0  0  0  0  0  0  0  0  0  0
   21.5941  -21.9420   -7.5656 C   0  0  0  0  0  0  0  0  0  0  0  0
   22.8201  -21.4368   -7.9395 C   0  0  0  0  0  0  0  0  0  0  0  0
   22.9921  -20.9098   -9.1804 C   0  0  0  0  0  0  0  0  0  0  0  0
   24.3158  -20.3663   -9.5800 C   0  0  0  0  0  0  0  0  0  0  0  0
   24.5112  -20.7008  -11.0448 C   0  0  2  0  0  0  0  0  0  0  0  0
   24.3843  -22.1404  -11.1816 N   0  0  0  0  0  0  0  0  0  0  0  0
   25.8295  -20.2270  -11.5411 C   0  0  0  0  0  0  0  0  0  0  0  0
   26.1887  -19.0183  -11.4715 O   0  0  0  0  0  0  0  0  0  0  0  0
   21.9462  -20.8755  -10.0742 C   0  0  0  0  0  0  0  0  0  0  0  0
   20.7099  -21.3848   -9.6975 C   0  0  0  0  0  0  0  0  0  0  0  0
   31.7243  -21.9232   -9.8402 C   0  0  0  0  0  0  0  0  0  0  0  0
   31.8376  -22.0119  -11.6414 S   0  0  0  0  0  0  0  0  0  0  0  0
   30.4967  -21.0723  -12.4354 C   0  0  0  0  0  0  0  0  0  0  0  0
   29.1453  -21.5610  -11.9975 C   0  0  0  0  0  0  0  0  0  0  0  0
   28.0776  -20.7340  -12.5990 C   0  0  2  0  0  0  0  0  0  0  0  0
   26.7482  -21.1243  -12.1199 N   0  0  0  0  0  0  0  0  0  0  0  0
   28.0208  -20.6951  -14.0736 C   0  0  0  0  0  0  0  0  0  0  0  0
   27.6351  -21.6092  -14.8297 O   0  0  0  0  0  0  0  0  0  0  0  0
   28.7522  -17.9987  -16.6311 C   0  0  0  0  0  0  0  0  0  0  0  0
   28.3928  -19.4137  -16.2280 C   0  0  2  0  0  0  0  0  0  0  0  0
   28.4435  -19.4974  -14.7812 N   0  0  0  0  0  0  0  0  0  0  0  0
   29.4002  -20.3504  -16.8336 C   0  0  0  0  0  0  0  0  0  0  0  0
   30.3569  -20.7998  -16.1907 O   0  0  0  0  0  0  0  0  0  0  0  0
   29.2112  -20.6946  -18.1596 O   0  0  0  0  0  0  0  0  0  0  0  0
  2  3  2  0
  2  1  1  0
  4  3  1  0
  5  4  2  0
  6  5  1  0
  7  9  1  0
  7  6  1  0
  7  8  1  1
  9 10  2  0
 11  5  1  0
 11 12  2  0
 12  2  1  0
 14 13  1  0
 15 14  1  0
 16 15  1  0
 17 16  1  6
 18  9  1  0
 18 17  1  0
 19 23  1  0
 19 17  1  0
 20 19  2  0
 22 21  1  1
 22 24  1  0
 22 23  1  0
 24 26  1  0
 25 24  2  0
M  END
$$$$
