YMA.pdb
     RDKit          3D

 26 26  0  0  1  0  0  0  0  0999 V2000
   24.1322  -10.5761  -13.3161 O   0  0  0  0  0  0  0  0  0  0  0  0
   23.8415   -9.4617  -14.0699 C   0  0  0  0  0  0  0  0  0  0  0  0
   22.8476   -8.5812  -13.6798 C   0  0  0  0  0  0  0  0  0  0  0  0
   22.5563   -7.4657  -14.4340 C   0  0  0  0  0  0  0  0  0  0  0  0
   23.2463   -7.2152  -15.5778 C   0  0  0  0  0  0  0  0  0  0  0  0
   22.9295   -6.0111  -16.3882 C   0  0  0  0  0  0  0  0  0  0  0  0
   21.5018   -6.1626  -16.8725 C   0  0  2  0  0  0  0  0  0  0  0  0
   21.4609   -7.3210  -17.7463 N   0  0  0  0  0  0  0  0  0  0  0  0
   21.0321   -4.9407  -17.5761 C   0  0  0  0  0  0  0  0  0  0  0  0
   20.8249   -4.9095  -18.8215 O   0  0  0  0  0  0  0  0  0  0  0  0
   24.2407   -8.0709  -15.9936 C   0  0  0  0  0  0  0  0  0  0  0  0
   24.5347   -9.1959  -15.2333 C   0  0  0  0  0  0  0  0  0  0  0  0
   16.1925   -0.3437  -20.3877 C   0  0  0  0  0  0  0  0  0  0  0  0
   16.8605   -1.8678  -19.6833 S   0  0  0  0  0  0  0  0  0  0  0  0
   18.4387   -1.5655  -18.8295 C   0  0  0  0  0  0  0  0  0  0  0  0
   18.9337   -2.7994  -18.1302 C   0  0  0  0  0  0  0  0  0  0  0  0
   20.2334   -2.5360  -17.4765 C   0  0  2  0  0  0  0  0  0  0  0  0
   20.7950   -3.7460  -16.8685 N   0  0  0  0  0  0  0  0  0  0  0  0
   20.2560   -1.4756  -16.4499 C   0  0  0  0  0  0  0  0  0  0  0  0
   19.7594   -1.5329  -15.3071 O   0  0  0  0  0  0  0  0  0  0  0  0
   21.7472    2.0074  -16.3448 C   0  0  0  0  0  0  0  0  0  0  0  0
   20.9732    0.8510  -15.7467 C   0  0  2  0  0  0  0  0  0  0  0  0
   20.9085   -0.2081  -16.7352 N   0  0  0  0  0  0  0  0  0  0  0  0
   19.5879    1.3290  -15.4128 C   0  0  0  0  0  0  0  0  0  0  0  0
   18.6466    1.2410  -16.2108 O   0  0  0  0  0  0  0  0  0  0  0  0
   19.4056    1.8800  -14.1575 O   0  0  0  0  0  0  0  0  0  0  0  0
  2  3  2  0
  2  1  1  0
  4  3  1  0
  5  4  2  0
  6  5  1  0
  7  9  1  0
  7  6  1  0
  7  8  1  6
  9 10  2  0
 11  5  1  0
 11 12  2  0
 12  2  1  0
 14 13  1  0
 15 14  1  0
 16 15  1  0
 17 16  1  1
 18  9  1  0
 18 17  1  0
 19 23  1  0
 19 17  1  0
 20 19  2  0
 22 21  1  6
 22 24  1  0
 22 23  1  0
 24 26  1  0
 25 24  2  0
M  END
$$$$
