YMA.pdb
     RDKit          3D

 26 26  0  0  1  0  0  0  0  0999 V2000
   20.5263  -18.4905  -24.9507 O   0  0  0  0  0  0  0  0  0  0  0  0
   20.4687  -17.5057  -23.9909 C   0  0  0  0  0  0  0  0  0  0  0  0
   21.6020  -16.7959  -23.6342 C   0  0  0  0  0  0  0  0  0  0  0  0
   21.5448  -15.8100  -22.6735 C   0  0  0  0  0  0  0  0  0  0  0  0
   20.3666  -15.5211  -22.0606 C   0  0  0  0  0  0  0  0  0  0  0  0
   20.3088  -14.4570  -21.0254 C   0  0  0  0  0  0  0  0  0  0  0  0
   20.8402  -15.0569  -19.7395 C   0  0  2  0  0  0  0  0  0  0  0  0
   19.7628  -15.8239  -19.1411 N   0  0  0  0  0  0  0  0  0  0  0  0
   21.3335  -14.0066  -18.8110 C   0  0  0  0  0  0  0  0  0  0  0  0
   20.5925  -13.4586  -17.9475 O   0  0  0  0  0  0  0  0  0  0  0  0
   19.2213  -16.2083  -22.3924 C   0  0  0  0  0  0  0  0  0  0  0  0
   19.2787  -17.2024  -23.3611 C   0  0  0  0  0  0  0  0  0  0  0  0
   26.8410  -11.4793  -14.2857 C   0  0  0  0  0  0  0  0  0  0  0  0
   26.2616  -12.6381  -15.5454 S   0  0  0  0  0  0  0  0  0  0  0  0
   25.2936  -11.7881  -16.8306 C   0  0  0  0  0  0  0  0  0  0  0  0
   24.7297  -12.7580  -17.8296 C   0  0  0  0  0  0  0  0  0  0  0  0
   23.2584  -12.6305  -17.8992 C   0  0  2  0  0  0  0  0  0  0  0  0
   22.6726  -13.5721  -18.8580 N   0  0  0  0  0  0  0  0  0  0  0  0
   22.7235  -11.2911  -18.2137 C   0  0  0  0  0  0  0  0  0  0  0  0
   22.7791  -10.7049  -19.3133 O   0  0  0  0  0  0  0  0  0  0  0  0
   20.4695   -8.8557  -16.4798 C   0  0  0  0  0  0  0  0  0  0  0  0
   21.6301   -9.1522  -17.4068 C   0  0  2  0  0  0  0  0  0  0  0  0
   22.0503  -10.5214  -17.1801 N   0  0  0  0  0  0  0  0  0  0  0  0
   22.7527   -8.2081  -17.0790 C   0  0  0  0  0  0  0  0  0  0  0  0
   23.7918   -8.5827  -16.5218 O   0  0  0  0  0  0  0  0  0  0  0  0
   22.5738   -6.8826  -17.4311 O   0  0  0  0  0  0  0  0  0  0  0  0
  2  3  2  0
  2  1  1  0
  4  3  1  0
  5  4  2  0
  6  5  1  0
  7  9  1  0
  7  6  1  0
  7  8  1  1
  9 10  2  0
 11  5  1  0
 11 12  2  0
 12  2  1  0
 14 13  1  0
 15 14  1  0
 16 15  1  0
 17 16  1  6
 18  9  1  0
 18 17  1  0
 19 23  1  0
 19 17  1  0
 20 19  2  0
 22 21  1  1
 22 24  1  0
 22 23  1  0
 24 26  1  0
 25 24  2  0
M  END
$$$$
