YMA.pdb
     RDKit          3D

 26 26  0  0  1  0  0  0  0  0999 V2000
   20.5745  -15.3520  -24.7531 O   0  0  0  0  0  0  0  0  0  0  0  0
   20.8945  -14.8335  -23.5189 C   0  0  0  0  0  0  0  0  0  0  0  0
   20.6707  -15.5624  -22.3639 C   0  0  0  0  0  0  0  0  0  0  0  0
   20.9909  -15.0438  -21.1282 C   0  0  0  0  0  0  0  0  0  0  0  0
   21.5337  -13.8018  -21.0285 C   0  0  0  0  0  0  0  0  0  0  0  0
   21.8779  -13.2462  -19.6944 C   0  0  0  0  0  0  0  0  0  0  0  0
   23.3675  -13.4439  -19.5000 C   0  0  2  0  0  0  0  0  0  0  0  0
   23.5799  -14.8410  -19.1681 N   0  0  0  0  0  0  0  0  0  0  0  0
   23.9021  -12.5513  -18.4388 C   0  0  0  0  0  0  0  0  0  0  0  0
   23.9003  -12.8696  -17.2167 O   0  0  0  0  0  0  0  0  0  0  0  0
   21.7689  -13.0511  -22.1578 C   0  0  0  0  0  0  0  0  0  0  0  0
   21.4462  -13.5738  -23.4038 C   0  0  0  0  0  0  0  0  0  0  0  0
   29.7841  -10.0966  -17.9568 C   0  0  0  0  0  0  0  0  0  0  0  0
   28.7598   -8.6510  -17.6013 S   0  0  0  0  0  0  0  0  0  0  0  0
   27.0682   -9.1368  -17.1391 C   0  0  0  0  0  0  0  0  0  0  0  0
   26.4433  -10.0210  -18.1804 C   0  0  0  0  0  0  0  0  0  0  0  0
   25.0713  -10.3996  -17.7803 C   0  0  2  0  0  0  0  0  0  0  0  0
   24.4422  -11.2905  -18.7599 N   0  0  0  0  0  0  0  0  0  0  0  0
   24.1280   -9.2943  -17.5202 C   0  0  0  0  0  0  0  0  0  0  0  0
   23.6561   -8.5028  -18.3610 O   0  0  0  0  0  0  0  0  0  0  0  0
   22.1998   -8.1747  -14.4722 C   0  0  0  0  0  0  0  0  0  0  0  0
   22.7584   -7.9534  -15.8625 C   0  0  2  0  0  0  0  0  0  0  0  0
   23.6605   -9.0475  -16.1658 N   0  0  0  0  0  0  0  0  0  0  0  0
   23.5078   -6.6506  -15.8713 C   0  0  0  0  0  0  0  0  0  0  0  0
   22.9326   -5.5555  -15.8501 O   0  0  0  0  0  0  0  0  0  0  0  0
   24.8883   -6.7271  -15.9048 O   0  0  0  0  0  0  0  0  0  0  0  0
  2  3  2  0
  2  1  1  0
  4  3  1  0
  5  4  2  0
  6  5  1  0
  7  9  1  0
  7  6  1  0
  7  8  1  1
  9 10  2  0
 11  5  1  0
 11 12  2  0
 12  2  1  0
 14 13  1  0
 15 14  1  0
 16 15  1  0
 17 16  1  6
 18  9  1  0
 18 17  1  0
 19 23  1  0
 19 17  1  0
 20 19  2  0
 22 21  1  1
 22 24  1  0
 22 23  1  0
 24 26  1  0
 25 24  2  0
M  END
$$$$
