YMA.pdb
     RDKit          3D

 26 26  0  0  1  0  0  0  0  0999 V2000
   28.1903  -13.0679  -17.4995 O   0  0  0  0  0  0  0  0  0  0  0  0
   27.5551  -14.2288  -17.1209 C   0  0  0  0  0  0  0  0  0  0  0  0
   27.1940  -15.1785  -18.0605 C   0  0  0  0  0  0  0  0  0  0  0  0
   26.5580  -16.3406  -17.6819 C   0  0  0  0  0  0  0  0  0  0  0  0
   26.2760  -16.5693  -16.3722 C   0  0  0  0  0  0  0  0  0  0  0  0
   25.5905  -17.8238  -15.9679 C   0  0  0  0  0  0  0  0  0  0  0  0
   26.5920  -18.6458  -15.1823 C   0  0  2  0  0  0  0  0  0  0  0  0
   27.5200  -19.2259  -16.1360 N   0  0  0  0  0  0  0  0  0  0  0  0
   25.9206  -19.6984  -14.3761 C   0  0  0  0  0  0  0  0  0  0  0  0
   25.5653  -20.8073  -14.8648 O   0  0  0  0  0  0  0  0  0  0  0  0
   26.6217  -15.6451  -15.4130 C   0  0  0  0  0  0  0  0  0  0  0  0
   27.2629  -14.4733  -15.7944 C   0  0  0  0  0  0  0  0  0  0  0  0
   24.1484  -22.3890   -7.1309 C   0  0  0  0  0  0  0  0  0  0  0  0
   25.0188  -21.1639   -8.1343 S   0  0  0  0  0  0  0  0  0  0  0  0
   24.6114  -21.3443   -9.8986 C   0  0  0  0  0  0  0  0  0  0  0  0
   25.3669  -20.3584  -10.7436 C   0  0  0  0  0  0  0  0  0  0  0  0
   24.9634  -20.4773  -12.1609 C   0  0  2  0  0  0  0  0  0  0  0  0
   25.6486  -19.4972  -13.0087 N   0  0  0  0  0  0  0  0  0  0  0  0
   23.5192  -20.3766  -12.4494 C   0  0  0  0  0  0  0  0  0  0  0  0
   22.8158  -19.3484  -12.3864 O   0  0  0  0  0  0  0  0  0  0  0  0
   20.9648  -22.7386  -13.8956 C   0  0  0  0  0  0  0  0  0  0  0  0
   21.3479  -21.5197  -13.0823 C   0  0  2  0  0  0  0  0  0  0  0  0
   22.7793  -21.5609  -12.8543 N   0  0  0  0  0  0  0  0  0  0  0  0
   20.6158  -21.5747  -11.7708 C   0  0  0  0  0  0  0  0  0  0  0  0
   21.1767  -21.8807  -10.7114 O   0  0  0  0  0  0  0  0  0  0  0  0
   19.2682  -21.2646  -11.7970 O   0  0  0  0  0  0  0  0  0  0  0  0
  2  3  2  0
  2  1  1  0
  4  3  1  0
  5  4  2  0
  6  5  1  0
  7  9  1  0
  7  6  1  0
  7  8  1  6
  9 10  2  0
 11  5  1  0
 11 12  2  0
 12  2  1  0
 14 13  1  0
 15 14  1  0
 16 15  1  0
 17 16  1  1
 18  9  1  0
 18 17  1  0
 19 23  1  0
 19 17  1  0
 20 19  2  0
 22 21  1  6
 22 24  1  0
 22 23  1  0
 24 26  1  0
 25 24  2  0
M  END
$$$$
