YMA.pdb
     RDKit          3D

 26 26  0  0  1  0  0  0  0  0999 V2000
   29.3017  -14.6240  -17.7249 O   0  0  0  0  0  0  0  0  0  0  0  0
   28.5849  -15.6789  -17.2073 C   0  0  0  0  0  0  0  0  0  0  0  0
   28.1223  -15.6499  -15.9032 C   0  0  0  0  0  0  0  0  0  0  0  0
   27.4048  -16.7056  -15.3846 C   0  0  0  0  0  0  0  0  0  0  0  0
   27.1412  -17.7952  -16.1529 C   0  0  0  0  0  0  0  0  0  0  0  0
   26.3669  -18.9314  -15.5903 C   0  0  0  0  0  0  0  0  0  0  0  0
   27.3291  -19.7614  -14.7650 C   0  0  2  0  0  0  0  0  0  0  0  0
   28.1008  -20.5751  -15.6868 N   0  0  0  0  0  0  0  0  0  0  0  0
   26.6106  -20.6047  -13.7744 C   0  0  0  0  0  0  0  0  0  0  0  0
   26.0987  -21.7198  -14.0736 O   0  0  0  0  0  0  0  0  0  0  0  0
   27.5869  -17.8554  -17.4536 C   0  0  0  0  0  0  0  0  0  0  0  0
   28.3104  -16.7912  -17.9768 C   0  0  0  0  0  0  0  0  0  0  0  0
   27.1254  -20.0782   -7.2445 C   0  0  0  0  0  0  0  0  0  0  0  0
   25.4291  -20.6861   -7.3791 S   0  0  0  0  0  0  0  0  0  0  0  0
   25.0181  -21.1243   -9.0968 C   0  0  0  0  0  0  0  0  0  0  0  0
   25.9980  -20.5300  -10.0681 C   0  0  0  0  0  0  0  0  0  0  0  0
   25.6146  -20.8626  -11.4567 C   0  0  2  0  0  0  0  0  0  0  0  0
   26.4692  -20.1859  -12.4369 N   0  0  0  0  0  0  0  0  0  0  0  0
   24.2130  -20.6000  -11.8382 C   0  0  0  0  0  0  0  0  0  0  0  0
   23.6797  -19.4836  -11.9973 O   0  0  0  0  0  0  0  0  0  0  0  0
   21.5282  -22.6436  -13.3852 C   0  0  0  0  0  0  0  0  0  0  0  0
   21.9321  -21.4998  -12.4782 C   0  0  2  0  0  0  0  0  0  0  0  0
   23.3063  -21.7132  -12.0675 N   0  0  0  0  0  0  0  0  0  0  0  0
   21.0289  -21.5047  -11.2769 C   0  0  0  0  0  0  0  0  0  0  0  0
   21.4298  -21.8139  -10.1481 O   0  0  0  0  0  0  0  0  0  0  0  0
   19.7106  -21.1439  -11.4882 O   0  0  0  0  0  0  0  0  0  0  0  0
  2  3  2  0
  2  1  1  0
  4  3  1  0
  5  4  2  0
  6  5  1  0
  7  9  1  0
  7  6  1  0
  7  8  1  6
  9 10  2  0
 11  5  1  0
 11 12  2  0
 12  2  1  0
 14 13  1  0
 15 14  1  0
 16 15  1  0
 17 16  1  1
 18  9  1  0
 18 17  1  0
 19 23  1  0
 19 17  1  0
 20 19  2  0
 22 21  1  6
 22 24  1  0
 22 23  1  0
 24 26  1  0
 25 24  2  0
M  END
$$$$
