YMA.pdb
     RDKit          3D

 26 26  0  0  1  0  0  0  0  0999 V2000
   20.6599  -16.7339  -17.3844 O   0  0  0  0  0  0  0  0  0  0  0  0
   20.9176  -17.5468  -16.3041 C   0  0  0  0  0  0  0  0  0  0  0  0
   21.6128  -17.0691  -15.2069 C   0  0  0  0  0  0  0  0  0  0  0  0
   21.8711  -17.8825  -14.1253 C   0  0  0  0  0  0  0  0  0  0  0  0
   21.4431  -19.1725  -14.1232 C   0  0  0  0  0  0  0  0  0  0  0  0
   21.7231  -20.0464  -12.9549 C   0  0  0  0  0  0  0  0  0  0  0  0
   23.2294  -20.1477  -12.8249 C   0  0  2  0  0  0  0  0  0  0  0  0
   23.7180  -20.8631  -13.9897 N   0  0  0  0  0  0  0  0  0  0  0  0
   23.6231  -20.8345  -11.5671 C   0  0  0  0  0  0  0  0  0  0  0  0
   23.4138  -22.0640  -11.3685 O   0  0  0  0  0  0  0  0  0  0  0  0
   20.7491  -19.6784  -15.1985 C   0  0  0  0  0  0  0  0  0  0  0  0
   20.4886  -18.8585  -16.2893 C   0  0  0  0  0  0  0  0  0  0  0  0
   27.6925  -18.1861   -6.9437 C   0  0  0  0  0  0  0  0  0  0  0  0
   27.5385  -19.9332   -6.5089 S   0  0  0  0  0  0  0  0  0  0  0  0
   26.0632  -20.6768   -7.2715 C   0  0  0  0  0  0  0  0  0  0  0  0
   25.7956  -20.1014   -8.6331 C   0  0  0  0  0  0  0  0  0  0  0  0
   24.5885  -20.7163   -9.2252 C   0  0  2  0  0  0  0  0  0  0  0  0
   24.2573  -20.1280  -10.5265 N   0  0  0  0  0  0  0  0  0  0  0  0
   23.3615  -20.6907   -8.4049 C   0  0  0  0  0  0  0  0  0  0  0  0
   22.5839  -19.7269   -8.2555 O   0  0  0  0  0  0  0  0  0  0  0  0
   21.1086  -23.2428   -6.9800 C   0  0  0  0  0  0  0  0  0  0  0  0
   21.7732  -21.8895   -6.8358 C   0  0  2  0  0  0  0  0  0  0  0  0
   22.9601  -21.8786   -7.6689 N   0  0  0  0  0  0  0  0  0  0  0  0
   22.1539  -21.6986   -5.3945 C   0  0  0  0  0  0  0  0  0  0  0  0
   23.3307  -21.7119   -5.0129 O   0  0  0  0  0  0  0  0  0  0  0  0
   21.1189  -21.5045   -4.4980 O   0  0  0  0  0  0  0  0  0  0  0  0
  2  3  2  0
  2  1  1  0
  4  3  1  0
  5  4  2  0
  6  5  1  0
  7  9  1  0
  7  6  1  0
  7  8  1  6
  9 10  2  0
 11  5  1  0
 11 12  2  0
 12  2  1  0
 14 13  1  0
 15 14  1  0
 16 15  1  0
 17 16  1  1
 18  9  1  0
 18 17  1  0
 19 23  1  0
 19 17  1  0
 20 19  2  0
 22 21  1  1
 22 24  1  0
 22 23  1  0
 24 26  1  0
 25 24  2  0
M  END
$$$$
