YMA.pdb
     RDKit          3D

 26 26  0  0  1  0  0  0  0  0999 V2000
   14.8704  -13.1823  -22.5371 O   0  0  0  0  0  0  0  0  0  0  0  0
   15.5387  -12.6078  -21.4799 C   0  0  0  0  0  0  0  0  0  0  0  0
   16.7470  -11.9608  -21.6720 C   0  0  0  0  0  0  0  0  0  0  0  0
   17.4163  -11.3856  -20.6140 C   0  0  0  0  0  0  0  0  0  0  0  0
   16.8942  -11.4473  -19.3607 C   0  0  0  0  0  0  0  0  0  0  0  0
   17.6188  -10.8255  -18.2225 C   0  0  0  0  0  0  0  0  0  0  0  0
   18.6774  -11.8129  -17.7751 C   0  0  2  0  0  0  0  0  0  0  0  0
   17.9915  -12.9356  -17.1616 N   0  0  0  0  0  0  0  0  0  0  0  0
   19.6404  -11.1891  -16.8306 C   0  0  0  0  0  0  0  0  0  0  0  0
   19.3951  -11.0528  -15.5993 O   0  0  0  0  0  0  0  0  0  0  0  0
   15.6947  -12.0832  -19.1358 C   0  0  0  0  0  0  0  0  0  0  0  0
   15.0195  -12.6633  -20.2024 C   0  0  0  0  0  0  0  0  0  0  0  0
   27.0962  -10.0111  -14.8010 C   0  0  0  0  0  0  0  0  0  0  0  0
   25.8805  -10.8306  -15.8572 S   0  0  0  0  0  0  0  0  0  0  0  0
   24.2368  -10.0684  -15.6878 C   0  0  0  0  0  0  0  0  0  0  0  0
   23.2258  -10.7316  -16.5794 C   0  0  0  0  0  0  0  0  0  0  0  0
   21.8955  -10.1115  -16.4019 C   0  0  2  0  0  0  0  0  0  0  0  0
   20.8889  -10.7159  -17.2797 N   0  0  0  0  0  0  0  0  0  0  0  0
   21.8168   -8.6486  -16.5830 C   0  0  0  0  0  0  0  0  0  0  0  0
   21.8919   -8.0251  -17.6607 O   0  0  0  0  0  0  0  0  0  0  0  0
   21.1220   -5.7698  -14.2288 C   0  0  0  0  0  0  0  0  0  0  0  0
   21.5617   -6.3444  -15.5594 C   0  0  2  0  0  0  0  0  0  0  0  0
   21.6332   -7.7867  -15.4266 N   0  0  0  0  0  0  0  0  0  0  0  0
   22.9187   -5.7899  -15.8910 C   0  0  0  0  0  0  0  0  0  0  0  0
   23.9586   -6.4387  -15.7227 O   0  0  0  0  0  0  0  0  0  0  0  0
   22.9582   -4.5045  -16.3998 O   0  0  0  0  0  0  0  0  0  0  0  0
  2  3  2  0
  2  1  1  0
  4  3  1  0
  5  4  2  0
  6  5  1  0
  7  9  1  0
  7  6  1  0
  7  8  1  1
  9 10  2  0
 11  5  1  0
 11 12  2  0
 12  2  1  0
 14 13  1  0
 15 14  1  0
 16 15  1  0
 17 16  1  6
 18  9  1  0
 18 17  1  0
 19 23  1  0
 19 17  1  0
 20 19  2  0
 22 21  1  1
 22 24  1  0
 22 23  1  0
 24 26  1  0
 25 24  2  0
M  END
$$$$
