YMA.pdb
     RDKit          3D

 26 26  0  0  1  0  0  0  0  0999 V2000
   29.9607  -15.6876  -19.1694 O   0  0  0  0  0  0  0  0  0  0  0  0
   29.1305  -16.5601  -18.5031 C   0  0  0  0  0  0  0  0  0  0  0  0
   28.5917  -17.6592  -19.1488 C   0  0  0  0  0  0  0  0  0  0  0  0
   27.7607  -18.5329  -18.4823 C   0  0  0  0  0  0  0  0  0  0  0  0
   27.4582  -18.3240  -17.1738 C   0  0  0  0  0  0  0  0  0  0  0  0
   26.5620  -19.2685  -16.4584 C   0  0  0  0  0  0  0  0  0  0  0  0
   27.4265  -20.0671  -15.5040 C   0  0  2  0  0  0  0  0  0  0  0  0
   28.1844  -21.0175  -16.2973 N   0  0  0  0  0  0  0  0  0  0  0  0
   26.6073  -20.7577  -14.4742 C   0  0  0  0  0  0  0  0  0  0  0  0
   26.0408  -21.8664  -14.6860 O   0  0  0  0  0  0  0  0  0  0  0  0
   27.9775  -17.2406  -16.5027 C   0  0  0  0  0  0  0  0  0  0  0  0
   28.8155  -16.3595  -17.1745 C   0  0  0  0  0  0  0  0  0  0  0  0
   24.6872  -21.3466   -6.8082 C   0  0  0  0  0  0  0  0  0  0  0  0
   25.7722  -20.6343   -8.0655 S   0  0  0  0  0  0  0  0  0  0  0  0
   25.2022  -21.0496   -9.7430 C   0  0  0  0  0  0  0  0  0  0  0  0
   26.0839  -20.4368  -10.7935 C   0  0  0  0  0  0  0  0  0  0  0  0
   25.6065  -20.8007  -12.1446 C   0  0  2  0  0  0  0  0  0  0  0  0
   26.4266  -20.1925  -13.1967 N   0  0  0  0  0  0  0  0  0  0  0  0
   24.1957  -20.4951  -12.4536 C   0  0  0  0  0  0  0  0  0  0  0  0
   23.6936  -19.3635  -12.6062 O   0  0  0  0  0  0  0  0  0  0  0  0
   21.3446  -22.5374  -13.7295 C   0  0  0  0  0  0  0  0  0  0  0  0
   21.8605  -21.3266  -12.9801 C   0  0  2  0  0  0  0  0  0  0  0  0
   23.2394  -21.5792  -12.6092 N   0  0  0  0  0  0  0  0  0  0  0  0
   21.0218  -21.1384  -11.7472 C   0  0  0  0  0  0  0  0  0  0  0  0
   21.4626  -21.3405  -10.6090 O   0  0  0  0  0  0  0  0  0  0  0  0
   19.7166  -20.7236  -11.9399 O   0  0  0  0  0  0  0  0  0  0  0  0
  2  3  2  0
  2  1  1  0
  4  3  1  0
  5  4  2  0
  6  5  1  0
  7  9  1  0
  7  6  1  0
  7  8  1  6
  9 10  2  0
 11  5  1  0
 11 12  2  0
 12  2  1  0
 14 13  1  0
 15 14  1  0
 16 15  1  0
 17 16  1  1
 18  9  1  0
 18 17  1  0
 19 23  1  0
 19 17  1  0
 20 19  2  0
 22 21  1  1
 22 24  1  0
 22 23  1  0
 24 26  1  0
 25 24  2  0
M  END
$$$$
