YMA.pdb
     RDKit          3D

 26 26  0  0  1  0  0  0  0  0999 V2000
   27.2836  -16.9564  -21.7085 O   0  0  0  0  0  0  0  0  0  0  0  0
   26.9229  -17.8552  -20.7304 C   0  0  0  0  0  0  0  0  0  0  0  0
   27.8637  -18.6892  -20.1519 C   0  0  0  0  0  0  0  0  0  0  0  0
   27.5031  -19.5890  -19.1729 C   0  0  0  0  0  0  0  0  0  0  0  0
   26.2104  -19.6686  -18.7610 C   0  0  0  0  0  0  0  0  0  0  0  0
   25.8255  -20.6399  -17.7048 C   0  0  0  0  0  0  0  0  0  0  0  0
   25.2446  -19.8416  -16.5554 C   0  0  2  0  0  0  0  0  0  0  0  0
   26.3337  -19.0962  -15.9509 N   0  0  0  0  0  0  0  0  0  0  0  0
   24.5785  -20.7228  -15.5612 C   0  0  0  0  0  0  0  0  0  0  0  0
   23.6771  -21.5483  -15.8791 O   0  0  0  0  0  0  0  0  0  0  0  0
   25.2505  -18.8534  -19.3160 C   0  0  0  0  0  0  0  0  0  0  0  0
   25.6138  -17.9460  -20.3032 C   0  0  0  0  0  0  0  0  0  0  0  0
   24.5452  -20.9643   -8.4643 C   0  0  0  0  0  0  0  0  0  0  0  0
   25.9072  -20.5199   -9.5655 S   0  0  0  0  0  0  0  0  0  0  0  0
   25.3314  -20.3133  -11.2793 C   0  0  0  0  0  0  0  0  0  0  0  0
   25.1692  -21.6370  -11.9709 C   0  0  0  0  0  0  0  0  0  0  0  0
   24.3042  -21.4948  -13.1614 C   0  0  2  0  0  0  0  0  0  0  0  0
   24.9326  -20.6714  -14.1988 N   0  0  0  0  0  0  0  0  0  0  0  0
   22.9477  -20.9585  -12.9347 C   0  0  0  0  0  0  0  0  0  0  0  0
   22.6561  -19.8567  -12.4278 O   0  0  0  0  0  0  0  0  0  0  0  0
   19.4878  -22.0715  -13.9289 C   0  0  0  0  0  0  0  0  0  0  0  0
   20.4376  -21.2884  -13.0465 C   0  0  2  0  0  0  0  0  0  0  0  0
   21.7868  -21.7449  -13.3191 N   0  0  0  0  0  0  0  0  0  0  0  0
   20.0831  -21.5577  -11.6110 C   0  0  0  0  0  0  0  0  0  0  0  0
   20.7033  -22.3729  -10.9172 O   0  0  0  0  0  0  0  0  0  0  0  0
   19.0183  -20.8459  -11.0890 O   0  0  0  0  0  0  0  0  0  0  0  0
  2  3  2  0
  2  1  1  0
  4  3  1  0
  5  4  2  0
  6  5  1  0
  7  9  1  0
  7  6  1  0
  7  8  1  1
  9 10  2  0
 11  5  1  0
 11 12  2  0
 12  2  1  0
 14 13  1  0
 15 14  1  0
 16 15  1  0
 17 16  1  1
 18  9  1  0
 18 17  1  0
 19 23  1  0
 19 17  1  0
 20 19  2  0
 22 21  1  6
 22 24  1  0
 22 23  1  0
 24 26  1  0
 25 24  2  0
M  END
$$$$
