KHI.pdb
     RDKit          3D

 28 28  0  0  1  0  0  0  0  0999 V2000
   25.3017  -17.2186  -18.1142 N   0  0  0  0  0  0  0  0  0  0  0  0
   25.7924  -18.3543  -17.3640 C   0  0  1  0  0  0  0  0  0  0  0  0
   27.1469  -18.0222  -16.8130 C   0  0  0  0  0  0  0  0  0  0  0  0
   28.1086  -19.1252  -17.1290 C   0  0  0  0  0  0  0  0  0  0  0  0
   28.0058  -19.5079  -18.5741 C   0  0  0  0  0  0  0  0  0  0  0  0
   28.9037  -20.6684  -18.8760 C   0  0  0  0  0  0  0  0  0  0  0  0
   28.5656  -21.1453  -20.2075 N   0  0  0  0  0  0  0  0  0  0  0  0
   24.8968  -18.5819  -16.1618 C   0  0  0  0  0  0  0  0  0  0  0  0
   24.6188  -17.5456  -15.5289 O   0  0  0  0  0  0  0  0  0  0  0  0
   24.4530  -19.8587  -15.8411 N   0  0  0  0  0  0  0  0  0  0  0  0
   23.8143  -20.2434  -14.6357 C   0  0  1  0  0  0  0  0  0  0  0  0
   22.5147  -20.9471  -14.9180 C   0  0  0  0  0  0  0  0  0  0  0  0
   21.5488  -19.9545  -15.4688 C   0  0  0  0  0  0  0  0  0  0  0  0
   20.7281  -19.1679  -14.7175 C   0  0  0  0  0  0  0  0  0  0  0  0
   19.9778  -18.3784  -15.5285 N   0  0  0  0  0  0  0  0  0  0  0  0
   20.3355  -18.6776  -16.7807 C   0  0  0  0  0  0  0  0  0  0  0  0
   21.2921  -19.6371  -16.7460 N   0  0  0  0  0  0  0  0  0  0  0  0
   24.6592  -20.9391  -13.6332 C   0  0  0  0  0  0  0  0  0  0  0  0
   25.6008  -21.7066  -13.8293 O   0  0  0  0  0  0  0  0  0  0  0  0
   28.6490  -20.7554  -12.8619 C   0  0  0  0  0  0  0  0  0  0  0  0
   27.2170  -21.1892  -12.6458 C   0  0  0  0  0  0  0  0  0  0  0  0
   26.6146  -20.6481  -11.3844 C   0  0  2  0  0  0  0  0  0  0  0  0
   27.5035  -20.9851  -10.2063 C   0  0  0  0  0  0  0  0  0  0  0  0
   25.1927  -21.0839  -11.1621 C   0  0  2  0  0  0  0  0  0  0  0  0
   24.3380  -20.6837  -12.2550 N   0  0  0  0  0  0  0  0  0  0  0  0
   24.6648  -20.8133   -9.8330 C   0  0  0  0  0  0  0  0  0  0  0  0
   23.9532  -19.8034   -9.6443 O   0  0  0  0  0  0  0  0  0  0  0  0
   24.9183  -21.6342   -8.7514 O   0  0  0  0  0  0  0  0  0  0  0  0
  2  8  1  0
  2  1  1  1
  3  2  1  0
  4  3  1  0
  5  4  1  0
  6  5  1  0
  7  6  1  0
  8  9  2  0
 10 11  1  0
 10  8  1  0
 12 13  1  0
 11 12  1  6
 13 14  2  0
 15 14  1  0
 16 15  1  0
 17 16  2  0
 17 13  1  0
 18 11  1  0
 18 19  2  0
 20 21  1  0
 21 22  1  0
 22 24  1  0
 22 23  1  1
 24 25  1  6
 24 26  1  0
 25 18  1  0
 26 27  2  0
 26 28  1  0
M  END
$$$$
