KHI.pdb
     RDKit          3D

 28 28  0  0  1  0  0  0  0  0999 V2000
   26.3765  -21.5258  -18.6388 N   0  0  0  0  0  0  0  0  0  0  0  0
   27.0897  -20.8320  -17.5885 C   0  0  1  0  0  0  0  0  0  0  0  0
   27.8866  -19.7178  -18.1985 C   0  0  0  0  0  0  0  0  0  0  0  0
   28.1945  -20.0369  -19.6285 C   0  0  0  0  0  0  0  0  0  0  0  0
   29.6692  -20.2274  -19.8139 C   0  0  0  0  0  0  0  0  0  0  0  0
   29.9476  -21.5146  -20.5279 C   0  0  0  0  0  0  0  0  0  0  0  0
   30.4211  -21.1791  -21.8613 N   0  0  0  0  0  0  0  0  0  0  0  0
   26.0899  -20.1706  -16.6600 C   0  0  0  0  0  0  0  0  0  0  0  0
   25.6064  -19.1110  -17.1020 O   0  0  0  0  0  0  0  0  0  0  0  0
   25.7768  -20.7425  -15.4334 N   0  0  0  0  0  0  0  0  0  0  0  0
   25.5146  -20.0443  -14.2281 C   0  0  1  0  0  0  0  0  0  0  0  0
   24.4242  -19.0261  -14.4241 C   0  0  0  0  0  0  0  0  0  0  0  0
   23.1268  -19.7445  -14.5726 C   0  0  0  0  0  0  0  0  0  0  0  0
   22.9711  -21.0954  -14.4858 C   0  0  0  0  0  0  0  0  0  0  0  0
   21.6654  -21.4211  -14.6677 N   0  0  0  0  0  0  0  0  0  0  0  0
   21.0149  -20.2710  -14.8667 C   0  0  0  0  0  0  0  0  0  0  0  0
   21.9034  -19.2491  -14.8090 N   0  0  0  0  0  0  0  0  0  0  0  0
   25.3393  -20.8729  -13.0093 C   0  0  0  0  0  0  0  0  0  0  0  0
   24.8776  -22.0100  -12.9192 O   0  0  0  0  0  0  0  0  0  0  0  0
   29.3990  -20.4929   -9.4799 C   0  0  0  0  0  0  0  0  0  0  0  0
   28.2017  -21.0837  -10.1892 C   0  0  0  0  0  0  0  0  0  0  0  0
   26.8902  -20.6106   -9.6389 C   0  0  2  0  0  0  0  0  0  0  0  0
   26.7196  -21.1098   -8.2200 C   0  0  0  0  0  0  0  0  0  0  0  0
   25.7129  -20.9608  -10.5063 C   0  0  2  0  0  0  0  0  0  0  0  0
   25.7641  -20.2714  -11.7741 N   0  0  0  0  0  0  0  0  0  0  0  0
   24.4212  -20.9283   -9.8364 C   0  0  0  0  0  0  0  0  0  0  0  0
   24.1127  -21.8440   -9.0438 O   0  0  0  0  0  0  0  0  0  0  0  0
   23.5041  -19.9156  -10.0394 O   0  0  0  0  0  0  0  0  0  0  0  0
  2  8  1  0
  2  1  1  6
  3  2  1  0
  4  3  1  0
  5  4  1  0
  6  5  1  0
  7  6  1  0
  8  9  2  0
 10 11  1  0
 10  8  1  0
 12 13  1  0
 11 12  1  6
 13 14  2  0
 15 14  1  0
 16 15  1  0
 17 16  2  0
 17 13  1  0
 18 11  1  0
 18 19  2  0
 20 21  1  0
 21 22  1  0
 22 24  1  0
 22 23  1  1
 24 25  1  6
 24 26  1  0
 25 18  1  0
 26 27  2  0
 26 28  1  0
M  END
$$$$
