KHI.pdb
     RDKit          3D

 28 28  0  0  1  0  0  0  0  0999 V2000
   24.5782  -36.3770  -12.3454 N   0  0  0  0  0  0  0  0  0  0  0  0
   23.7016  -35.3737  -11.7812 C   0  0  1  0  0  0  0  0  0  0  0  0
   22.3100  -35.9284  -11.7149 C   0  0  0  0  0  0  0  0  0  0  0  0
   21.7529  -36.0700  -13.0973 C   0  0  0  0  0  0  0  0  0  0  0  0
   20.6029  -35.1298  -13.2945 C   0  0  0  0  0  0  0  0  0  0  0  0
   19.9794  -35.3364  -14.6409 C   0  0  0  0  0  0  0  0  0  0  0  0
   18.9296  -34.3416  -14.7916 N   0  0  0  0  0  0  0  0  0  0  0  0
   24.1121  -35.1031  -10.3469 C   0  0  0  0  0  0  0  0  0  0  0  0
   24.3561  -36.1289   -9.6835 O   0  0  0  0  0  0  0  0  0  0  0  0
   24.1934  -33.8019   -9.8671 N   0  0  0  0  0  0  0  0  0  0  0  0
   24.4565  -33.4196   -8.5278 C   0  0  1  0  0  0  0  0  0  0  0  0
   25.0388  -32.0335   -8.4700 C   0  0  0  0  0  0  0  0  0  0  0  0
   26.3618  -32.0468   -9.1562 C   0  0  0  0  0  0  0  0  0  0  0  0
   26.9971  -33.1678   -9.5995 C   0  0  0  0  0  0  0  0  0  0  0  0
   28.1787  -32.8295  -10.1771 N   0  0  0  0  0  0  0  0  0  0  0  0
   28.2727  -31.4994  -10.0904 C   0  0  0  0  0  0  0  0  0  0  0  0
   27.1672  -31.0213   -9.4691 N   0  0  0  0  0  0  0  0  0  0  0  0
   23.3629  -33.6442   -7.5498 C   0  0  0  0  0  0  0  0  0  0  0  0
   22.1481  -33.6217   -7.7445 O   0  0  0  0  0  0  0  0  0  0  0  0
   21.1554  -37.9032   -4.8748 C   0  0  0  0  0  0  0  0  0  0  0  0
   21.6101  -36.5136   -4.4901 C   0  0  0  0  0  0  0  0  0  0  0  0
   22.6036  -35.9259   -5.4464 C   0  0  2  0  0  0  0  0  0  0  0  0
   23.8706  -36.7544   -5.4427 C   0  0  0  0  0  0  0  0  0  0  0  0
   22.8813  -34.4680   -5.2043 C   0  0  2  0  0  0  0  0  0  0  0  0
   23.7743  -33.9253   -6.2008 N   0  0  0  0  0  0  0  0  0  0  0  0
   23.2062  -34.1218   -3.8285 C   0  0  0  0  0  0  0  0  0  0  0  0
   24.3992  -33.9459   -3.5006 O   0  0  0  0  0  0  0  0  0  0  0  0
   22.2411  -33.9766   -2.8510 O   0  0  0  0  0  0  0  0  0  0  0  0
  2  8  1  0
  2  1  1  1
  3  2  1  0
  4  3  1  0
  5  4  1  0
  6  5  1  0
  7  6  1  0
  8  9  2  0
 10 11  1  0
 10  8  1  0
 12 13  1  0
 11 12  1  6
 13 14  2  0
 15 14  1  0
 16 15  1  0
 17 16  2  0
 17 13  1  0
 18 11  1  0
 18 19  2  0
 20 21  1  0
 21 22  1  0
 22 24  1  0
 22 23  1  1
 24 25  1  6
 24 26  1  0
 25 18  1  0
 26 27  2  0
 26 28  1  0
M  END
$$$$
