KHI.pdb
     RDKit          3D

 28 28  0  0  1  0  0  0  0  0999 V2000
   29.2811  -21.8701  -16.7548 N   0  0  0  0  0  0  0  0  0  0  0  0
   28.4808  -20.8937  -16.0481 C   0  0  1  0  0  0  0  0  0  0  0  0
   27.5867  -20.1979  -17.0306 C   0  0  0  0  0  0  0  0  0  0  0  0
   28.4089  -19.3680  -17.9668 C   0  0  0  0  0  0  0  0  0  0  0  0
   28.5334  -20.0500  -19.2952 C   0  0  0  0  0  0  0  0  0  0  0  0
   29.2473  -19.1689  -20.2740 C   0  0  0  0  0  0  0  0  0  0  0  0
   29.3817  -19.9158  -21.5145 N   0  0  0  0  0  0  0  0  0  0  0  0
   27.5597  -21.6107  -15.0803 C   0  0  0  0  0  0  0  0  0  0  0  0
   27.9263  -22.7645  -14.7865 O   0  0  0  0  0  0  0  0  0  0  0  0
   26.4186  -20.9855  -14.5938 N   0  0  0  0  0  0  0  0  0  0  0  0
   25.9528  -21.0196  -13.2555 C   0  0  1  0  0  0  0  0  0  0  0  0
   27.0653  -20.7067  -12.2920 C   0  0  0  0  0  0  0  0  0  0  0  0
   26.5288  -20.7963  -10.9043 C   0  0  0  0  0  0  0  0  0  0  0  0
   25.2480  -21.1351  -10.5856 C   0  0  0  0  0  0  0  0  0  0  0  0
   25.0903  -21.1225   -9.2369 N   0  0  0  0  0  0  0  0  0  0  0  0
   26.2740  -20.7760   -8.7229 C   0  0  0  0  0  0  0  0  0  0  0  0
   27.1510  -20.5771   -9.7369 N   0  0  0  0  0  0  0  0  0  0  0  0
   24.6985  -20.2780  -12.9735 C   0  0  0  0  0  0  0  0  0  0  0  0
   24.5485  -19.0685  -12.8041 O   0  0  0  0  0  0  0  0  0  0  0  0
   22.0505  -21.5509  -16.8908 C   0  0  0  0  0  0  0  0  0  0  0  0
   22.5814  -20.9507  -15.6088 C   0  0  0  0  0  0  0  0  0  0  0  0
   21.6355  -21.0815  -14.4534 C   0  0  2  0  0  0  0  0  0  0  0  0
   20.3046  -20.4526  -14.8068 C   0  0  0  0  0  0  0  0  0  0  0  0
   22.1876  -20.5466  -13.1610 C   0  0  2  0  0  0  0  0  0  0  0  0
   23.5038  -21.0738  -12.8876 N   0  0  0  0  0  0  0  0  0  0  0  0
   21.2640  -20.5753  -12.0365 C   0  0  0  0  0  0  0  0  0  0  0  0
   21.1754  -21.6062  -11.3356 O   0  0  0  0  0  0  0  0  0  0  0  0
   20.4666  -19.4982  -11.7021 O   0  0  0  0  0  0  0  0  0  0  0  0
  2  8  1  0
  2  1  1  6
  3  2  1  0
  4  3  1  0
  5  4  1  0
  6  5  1  0
  7  6  1  0
  8  9  2  0
 10 11  1  0
 10  8  1  0
 12 13  1  0
 11 12  1  1
 13 14  2  0
 15 14  1  0
 16 15  1  0
 17 16  2  0
 17 13  1  0
 18 11  1  0
 18 19  2  0
 20 21  1  0
 21 22  1  0
 22 24  1  0
 22 23  1  6
 24 25  1  1
 24 26  1  0
 25 18  1  0
 26 27  2  0
 26 28  1  0
M  END
$$$$
