KHI.pdb
     RDKit          3D

 28 28  0  0  1  0  0  0  0  0999 V2000
   23.1159  -12.1205  -18.3008 N   0  0  0  0  0  0  0  0  0  0  0  0
   21.8833  -11.4508  -18.6549 C   0  0  1  0  0  0  0  0  0  0  0  0
   20.7926  -12.4733  -18.7708 C   0  0  0  0  0  0  0  0  0  0  0  0
   21.3408  -13.7371  -19.3569 C   0  0  0  0  0  0  0  0  0  0  0  0
   20.2539  -14.7582  -19.5025 C   0  0  0  0  0  0  0  0  0  0  0  0
   20.8160  -16.0592  -19.9879 C   0  0  0  0  0  0  0  0  0  0  0  0
   21.3412  -16.7654  -18.8303 N   0  0  0  0  0  0  0  0  0  0  0  0
   21.4736  -10.5296  -17.5223 C   0  0  0  0  0  0  0  0  0  0  0  0
   20.3292  -10.7435  -17.0791 O   0  0  0  0  0  0  0  0  0  0  0  0
   22.3412   -9.5490  -17.0580 N   0  0  0  0  0  0  0  0  0  0  0  0
   22.0300   -8.5342  -16.1187 C   0  0  1  0  0  0  0  0  0  0  0  0
   23.1113   -8.4152  -15.0793 C   0  0  0  0  0  0  0  0  0  0  0  0
   24.2447   -9.2999  -15.4719 C   0  0  0  0  0  0  0  0  0  0  0  0
   24.2697  -10.0844  -16.5858 C   0  0  0  0  0  0  0  0  0  0  0  0
   25.4453  -10.7614  -16.6460 N   0  0  0  0  0  0  0  0  0  0  0  0
   26.1463  -10.3947  -15.5692 C   0  0  0  0  0  0  0  0  0  0  0  0
   25.4166   -9.5048  -14.8533 N   0  0  0  0  0  0  0  0  0  0  0  0
   21.5975   -7.2283  -16.6760 C   0  0  0  0  0  0  0  0  0  0  0  0
   21.9354   -6.7007  -17.7351 O   0  0  0  0  0  0  0  0  0  0  0  0
   17.7278   -4.5596  -19.3711 C   0  0  0  0  0  0  0  0  0  0  0  0
   18.5088   -4.3083  -18.1012 C   0  0  0  0  0  0  0  0  0  0  0  0
   19.1570   -5.5409  -17.5469 C   0  0  2  0  0  0  0  0  0  0  0  0
   18.1051   -6.5950  -17.2746 C   0  0  0  0  0  0  0  0  0  0  0  0
   20.0179   -5.2775  -16.3425 C   0  0  2  0  0  0  0  0  0  0  0  0
   20.6625   -6.4829  -15.8771 N   0  0  0  0  0  0  0  0  0  0  0  0
   19.3963   -4.4684  -15.3045 C   0  0  0  0  0  0  0  0  0  0  0  0
   19.1128   -3.2740  -15.5387 O   0  0  0  0  0  0  0  0  0  0  0  0
   19.1005   -4.9671  -14.0509 O   0  0  0  0  0  0  0  0  0  0  0  0
  2  8  1  0
  2  1  1  1
  3  2  1  0
  4  3  1  0
  5  4  1  0
  6  5  1  0
  7  6  1  0
  8  9  2  0
 10 11  1  0
 10  8  1  0
 12 13  1  0
 11 12  1  6
 13 14  2  0
 15 14  1  0
 16 15  1  0
 17 16  2  0
 17 13  1  0
 18 11  1  0
 18 19  2  0
 20 21  1  0
 21 22  1  0
 22 24  1  0
 22 23  1  1
 24 25  1  1
 24 26  1  0
 25 18  1  0
 26 27  2  0
 26 28  1  0
M  END
$$$$
