KHI.pdb
     RDKit          3D

 28 28  0  0  1  0  0  0  0  0999 V2000
   27.3971  -19.0175  -20.0134 N   0  0  0  0  0  0  0  0  0  0  0  0
   27.2375  -20.0686  -19.0321 C   0  0  1  0  0  0  0  0  0  0  0  0
   28.4923  -20.1645  -18.2166 C   0  0  0  0  0  0  0  0  0  0  0  0
   29.6876  -20.1352  -19.1177 C   0  0  0  0  0  0  0  0  0  0  0  0
   30.4582  -18.8655  -18.9199 C   0  0  0  0  0  0  0  0  0  0  0  0
   31.7223  -18.8868  -19.7235 C   0  0  0  0  0  0  0  0  0  0  0  0
   32.4937  -17.7112  -19.3524 N   0  0  0  0  0  0  0  0  0  0  0  0
   26.1377  -19.6822  -18.0624 C   0  0  0  0  0  0  0  0  0  0  0  0
   26.1032  -18.4677  -17.7874 O   0  0  0  0  0  0  0  0  0  0  0  0
   25.2705  -20.6422  -17.5563 N   0  0  0  0  0  0  0  0  0  0  0  0
   24.1929  -20.4089  -16.6656 C   0  0  1  0  0  0  0  0  0  0  0  0
   22.8767  -20.4494  -17.3935 C   0  0  0  0  0  0  0  0  0  0  0  0
   21.7955  -20.0768  -16.4376 C   0  0  0  0  0  0  0  0  0  0  0  0
   21.3240  -18.8121  -16.2505 C   0  0  0  0  0  0  0  0  0  0  0  0
   20.3430  -18.8205  -15.3116 N   0  0  0  0  0  0  0  0  0  0  0  0
   20.2087  -20.0907  -14.9191 C   0  0  0  0  0  0  0  0  0  0  0  0
   21.0924  -20.8569  -15.6039 N   0  0  0  0  0  0  0  0  0  0  0  0
   24.1969  -21.1914  -15.4044 C   0  0  0  0  0  0  0  0  0  0  0  0
   24.2977  -22.4095  -15.2622 O   0  0  0  0  0  0  0  0  0  0  0  0
   26.6232  -21.2909  -10.0409 C   0  0  0  0  0  0  0  0  0  0  0  0
   25.3278  -21.5011  -10.7915 C   0  0  0  0  0  0  0  0  0  0  0  0
   25.2761  -20.7793  -12.1042 C   0  0  2  0  0  0  0  0  0  0  0  0
   25.5161  -19.3007  -11.8858 C   0  0  0  0  0  0  0  0  0  0  0  0
   24.0163  -21.0381  -12.8834 C   0  0  2  0  0  0  0  0  0  0  0  0
   24.0672  -20.4295  -14.1918 N   0  0  0  0  0  0  0  0  0  0  0  0
   22.7797  -20.8203  -12.1475 C   0  0  0  0  0  0  0  0  0  0  0  0
   22.5497  -21.4852  -11.1146 O   0  0  0  0  0  0  0  0  0  0  0  0
   21.8316  -19.8975  -12.5443 O   0  0  0  0  0  0  0  0  0  0  0  0
  2  8  1  0
  2  1  1  6
  3  2  1  0
  4  3  1  0
  5  4  1  0
  6  5  1  0
  7  6  1  0
  8  9  2  0
 10 11  1  0
 10  8  1  0
 12 13  1  0
 11 12  1  6
 13 14  2  0
 15 14  1  0
 16 15  1  0
 17 16  2  0
 17 13  1  0
 18 11  1  0
 18 19  2  0
 20 21  1  0
 21 22  1  0
 22 24  1  0
 22 23  1  1
 24 25  1  6
 24 26  1  0
 25 18  1  0
 26 27  2  0
 26 28  1  0
M  END
$$$$
