KHI.pdb
     RDKit          3D

 28 28  0  0  1  0  0  0  0  0999 V2000
   20.7490  -14.3911  -18.1707 N   0  0  0  0  0  0  0  0  0  0  0  0
   20.5620  -13.0798  -18.7527 C   0  0  1  0  0  0  0  0  0  0  0  0
   19.1222  -12.9232  -19.1414 C   0  0  0  0  0  0  0  0  0  0  0  0
   18.5930  -14.2221  -19.6652 C   0  0  0  0  0  0  0  0  0  0  0  0
   17.1510  -14.0810  -20.0472 C   0  0  0  0  0  0  0  0  0  0  0  0
   16.6290  -15.3655  -20.6146 C   0  0  0  0  0  0  0  0  0  0  0  0
   17.3206  -15.5985  -21.8724 N   0  0  0  0  0  0  0  0  0  0  0  0
   20.8269  -12.0238  -17.6973 C   0  0  0  0  0  0  0  0  0  0  0  0
   20.1799  -12.1809  -16.6444 O   0  0  0  0  0  0  0  0  0  0  0  0
   21.7256  -10.9921  -17.9378 N   0  0  0  0  0  0  0  0  0  0  0  0
   22.0399   -9.9332  -17.0496 C   0  0  1  0  0  0  0  0  0  0  0  0
   23.4892   -9.9818  -16.6483 C   0  0  0  0  0  0  0  0  0  0  0  0
   23.7464  -11.2781  -15.9593 C   0  0  0  0  0  0  0  0  0  0  0  0
   23.6807  -11.4696  -14.6117 C   0  0  0  0  0  0  0  0  0  0  0  0
   23.9695  -12.7630  -14.3157 N   0  0  0  0  0  0  0  0  0  0  0  0
   24.2135  -13.3702  -15.4807 C   0  0  0  0  0  0  0  0  0  0  0  0
   24.0780  -12.4674  -16.4825 N   0  0  0  0  0  0  0  0  0  0  0  0
   21.5802   -8.5791  -17.4470 C   0  0  0  0  0  0  0  0  0  0  0  0
   21.8305   -7.9609  -18.4811 O   0  0  0  0  0  0  0  0  0  0  0  0
   16.7684   -7.4418  -18.2199 C   0  0  0  0  0  0  0  0  0  0  0  0
   18.2728   -7.3671  -18.0903 C   0  0  0  0  0  0  0  0  0  0  0  0
   18.7299   -6.5707  -16.9055 C   0  0  2  0  0  0  0  0  0  0  0  0
   18.1639   -5.1687  -16.9811 C   0  0  0  0  0  0  0  0  0  0  0  0
   20.2224   -6.5683  -16.7223 C   0  0  2  0  0  0  0  0  0  0  0  0
   20.7323   -7.9014  -16.5036 N   0  0  0  0  0  0  0  0  0  0  0  0
   20.7306   -5.5544  -15.8103 C   0  0  0  0  0  0  0  0  0  0  0  0
   21.0105   -5.8665  -14.6329 O   0  0  0  0  0  0  0  0  0  0  0  0
   20.9209   -4.2404  -16.1912 O   0  0  0  0  0  0  0  0  0  0  0  0
  2  8  1  0
  2  1  1  1
  3  2  1  0
  4  3  1  0
  5  4  1  0
  6  5  1  0
  7  6  1  0
  8  9  2  0
 10 11  1  0
 10  8  1  0
 12 13  1  0
 11 12  1  6
 13 14  2  0
 15 14  1  0
 16 15  1  0
 17 16  2  0
 17 13  1  0
 18 11  1  0
 18 19  2  0
 20 21  1  0
 21 22  1  0
 22 24  1  0
 22 23  1  6
 24 25  1  1
 24 26  1  0
 25 18  1  0
 26 27  2  0
 26 28  1  0
M  END
$$$$
