KHI.pdb
     RDKit          3D

 28 28  0  0  1  0  0  0  0  0999 V2000
   25.8121  -19.0676  -15.5481 N   0  0  0  0  0  0  0  0  0  0  0  0
   26.8859  -18.8770  -14.5974 C   0  0  1  0  0  0  0  0  0  0  0  0
   27.3383  -17.4486  -14.6576 C   0  0  0  0  0  0  0  0  0  0  0  0
   27.6643  -17.0778  -16.0710 C   0  0  0  0  0  0  0  0  0  0  0  0
   28.7387  -17.9726  -16.6097 C   0  0  0  0  0  0  0  0  0  0  0  0
   29.1298  -17.5511  -17.9931 C   0  0  0  0  0  0  0  0  0  0  0  0
   30.1712  -18.4591  -18.4467 N   0  0  0  0  0  0  0  0  0  0  0  0
   26.3521  -19.0872  -13.1938 C   0  0  0  0  0  0  0  0  0  0  0  0
   25.9965  -18.0398  -12.6208 O   0  0  0  0  0  0  0  0  0  0  0  0
   26.2869  -20.3615  -12.6445 N   0  0  0  0  0  0  0  0  0  0  0  0
   25.7885  -20.6935  -11.3598 C   0  0  1  0  0  0  0  0  0  0  0  0
   24.8608  -21.8758  -11.4333 C   0  0  0  0  0  0  0  0  0  0  0  0
   23.6466  -21.4778  -12.2006 C   0  0  0  0  0  0  0  0  0  0  0  0
   23.4305  -20.2401  -12.7281 C   0  0  0  0  0  0  0  0  0  0  0  0
   22.2308  -20.2134  -13.3638 N   0  0  0  0  0  0  0  0  0  0  0  0
   21.7062  -21.4349  -13.2288 C   0  0  0  0  0  0  0  0  0  0  0  0
   22.5671  -22.2060  -12.5208 N   0  0  0  0  0  0  0  0  0  0  0  0
   26.7893  -20.7926  -10.2683 C   0  0  0  0  0  0  0  0  0  0  0  0
   27.9055  -21.3094  -10.3007 O   0  0  0  0  0  0  0  0  0  0  0  0
   29.4941  -19.4968   -5.2062 C   0  0  0  0  0  0  0  0  0  0  0  0
   28.4812  -20.4106   -5.8579 C   0  0  0  0  0  0  0  0  0  0  0  0
   27.8561  -19.8256   -7.0883 C   0  0  2  0  0  0  0  0  0  0  0  0
   27.2781  -18.4629   -6.7712 C   0  0  0  0  0  0  0  0  0  0  0  0
   26.8457  -20.7306   -7.7375 C   0  0  2  0  0  0  0  0  0  0  0  0
   26.4071  -20.2093   -9.0107 N   0  0  0  0  0  0  0  0  0  0  0  0
   25.7820  -21.1975   -6.8608 C   0  0  0  0  0  0  0  0  0  0  0  0
   24.5916  -20.9419   -7.1428 O   0  0  0  0  0  0  0  0  0  0  0  0
   26.0306  -21.9220   -5.7113 O   0  0  0  0  0  0  0  0  0  0  0  0
  2  8  1  0
  2  1  1  6
  3  2  1  0
  4  3  1  0
  5  4  1  0
  6  5  1  0
  7  6  1  0
  8  9  2  0
 10 11  1  0
 10  8  1  0
 12 13  1  0
 11 12  1  6
 13 14  2  0
 15 14  1  0
 16 15  1  0
 17 16  2  0
 17 13  1  0
 18 11  1  0
 18 19  2  0
 20 21  1  0
 21 22  1  0
 22 24  1  0
 22 23  1  1
 24 25  1  6
 24 26  1  0
 25 18  1  0
 26 27  2  0
 26 28  1  0
M  END
$$$$
