KHI.pdb
     RDKit          3D

 28 28  0  0  1  0  0  0  0  0999 V2000
   17.1534  -12.0382  -14.9421 N   0  0  0  0  0  0  0  0  0  0  0  0
   16.2662  -10.9354  -14.6425 C   0  0  1  0  0  0  0  0  0  0  0  0
   14.9759  -11.4827  -14.1096 C   0  0  0  0  0  0  0  0  0  0  0  0
   14.3233  -12.3449  -15.1450 C   0  0  0  0  0  0  0  0  0  0  0  0
   13.0874  -12.9832  -14.5879 C   0  0  0  0  0  0  0  0  0  0  0  0
   12.4217  -13.8347  -15.6253 C   0  0  0  0  0  0  0  0  0  0  0  0
   11.1878  -14.3414  -15.0461 N   0  0  0  0  0  0  0  0  0  0  0  0
   16.8627  -10.1062  -13.5218 C   0  0  0  0  0  0  0  0  0  0  0  0
   17.2305  -10.7714  -12.5348 O   0  0  0  0  0  0  0  0  0  0  0  0
   16.9665   -8.7260  -13.6402 N   0  0  0  0  0  0  0  0  0  0  0  0
   17.4889   -7.8403  -12.6647 C   0  0  1  0  0  0  0  0  0  0  0  0
   18.5897   -6.9934  -13.2434 C   0  0  0  0  0  0  0  0  0  0  0  0
   19.7079   -7.8881  -13.6565 C   0  0  0  0  0  0  0  0  0  0  0  0
   20.6966   -8.3303  -12.8296 C   0  0  0  0  0  0  0  0  0  0  0  0
   21.5533   -9.1258  -13.5205 N   0  0  0  0  0  0  0  0  0  0  0  0
   21.0932   -9.1749  -14.7740 C   0  0  0  0  0  0  0  0  0  0  0  0
   19.9695   -8.4218  -14.8584 N   0  0  0  0  0  0  0  0  0  0  0  0
   16.4975   -7.0660  -11.8769 C   0  0  0  0  0  0  0  0  0  0  0  0
   15.6110   -6.3187  -12.2889 O   0  0  0  0  0  0  0  0  0  0  0  0
   13.3831   -9.3131   -8.5872 C   0  0  0  0  0  0  0  0  0  0  0  0
   14.0585   -8.2695   -9.4478 C   0  0  0  0  0  0  0  0  0  0  0  0
   14.9198   -7.3217   -8.6689 C   0  0  2  0  0  0  0  0  0  0  0  0
   14.0647   -6.5244   -7.7073 C   0  0  0  0  0  0  0  0  0  0  0  0
   15.7732   -6.4358   -9.5338 C   0  0  2  0  0  0  0  0  0  0  0  0
   16.5820   -7.2069  -10.4483 N   0  0  0  0  0  0  0  0  0  0  0  0
   16.4782   -5.3769   -8.8266 C   0  0  0  0  0  0  0  0  0  0  0  0
   15.9165   -4.2757   -8.6432 O   0  0  0  0  0  0  0  0  0  0  0  0
   17.7616   -5.5345   -8.3408 O   0  0  0  0  0  0  0  0  0  0  0  0
  2  8  1  0
  2  1  1  1
  3  2  1  0
  4  3  1  0
  5  4  1  0
  6  5  1  0
  7  6  1  0
  8  9  2  0
 10 11  1  0
 10  8  1  0
 12 13  1  0
 11 12  1  6
 13 14  2  0
 15 14  1  0
 16 15  1  0
 17 16  2  0
 17 13  1  0
 18 11  1  0
 18 19  2  0
 20 21  1  0
 21 22  1  0
 22 24  1  0
 22 23  1  6
 24 25  1  1
 24 26  1  0
 25 18  1  0
 26 27  2  0
 26 28  1  0
M  END
$$$$
