KHI.pdb
     RDKit          3D

 28 28  0  0  1  0  0  0  0  0999 V2000
   27.5814  -18.0788  -18.8733 N   0  0  0  0  0  0  0  0  0  0  0  0
   27.6924  -19.1358  -17.8917 C   0  0  1  0  0  0  0  0  0  0  0  0
   28.9595  -18.9428  -17.1133 C   0  0  0  0  0  0  0  0  0  0  0  0
   29.9116  -20.0602  -17.4067 C   0  0  0  0  0  0  0  0  0  0  0  0
   29.6583  -20.6146  -18.7756 C   0  0  0  0  0  0  0  0  0  0  0  0
   30.6324  -21.7088  -19.0886 C   0  0  0  0  0  0  0  0  0  0  0  0
   30.2298  -22.3011  -20.3542 N   0  0  0  0  0  0  0  0  0  0  0  0
   26.5624  -19.0057  -16.8891 C   0  0  0  0  0  0  0  0  0  0  0  0
   26.9008  -18.5020  -15.8012 O   0  0  0  0  0  0  0  0  0  0  0  0
   25.2785  -19.4276  -17.2106 N   0  0  0  0  0  0  0  0  0  0  0  0
   24.1511  -19.4036  -16.3518 C   0  0  1  0  0  0  0  0  0  0  0  0
   22.8733  -19.3582  -17.1449 C   0  0  0  0  0  0  0  0  0  0  0  0
   21.7475  -19.0672  -16.2125 C   0  0  0  0  0  0  0  0  0  0  0  0
   21.8889  -18.7752  -14.8891 C   0  0  0  0  0  0  0  0  0  0  0  0
   20.6692  -18.5628  -14.3314 N   0  0  0  0  0  0  0  0  0  0  0  0
   19.7745  -18.7236  -15.3108 C   0  0  0  0  0  0  0  0  0  0  0  0
   20.4295  -19.0307  -16.4569 N   0  0  0  0  0  0  0  0  0  0  0  0
   24.1334  -20.4052  -15.2567 C   0  0  0  0  0  0  0  0  0  0  0  0
   24.1144  -21.6324  -15.3448 O   0  0  0  0  0  0  0  0  0  0  0  0
   27.8336  -20.7644  -11.7696 C   0  0  0  0  0  0  0  0  0  0  0  0
   26.5889  -20.9593  -12.6054 C   0  0  0  0  0  0  0  0  0  0  0  0
   25.3295  -20.5510  -11.9025 C   0  0  2  0  0  0  0  0  0  0  0  0
   25.2183  -21.2844  -10.5828 C   0  0  0  0  0  0  0  0  0  0  0  0
   24.0931  -20.7104  -12.7433 C   0  0  2  0  0  0  0  0  0  0  0  0
   24.1403  -19.8749  -13.9200 N   0  0  0  0  0  0  0  0  0  0  0  0
   22.8376  -20.6728  -12.0080 C   0  0  0  0  0  0  0  0  0  0  0  0
   22.2960  -19.5730  -11.7655 O   0  0  0  0  0  0  0  0  0  0  0  0
   22.2059  -21.8155  -11.5572 O   0  0  0  0  0  0  0  0  0  0  0  0
  2  8  1  0
  2  1  1  6
  3  2  1  0
  4  3  1  0
  5  4  1  0
  6  5  1  0
  7  6  1  0
  8  9  2  0
 10 11  1  0
 10  8  1  0
 12 13  1  0
 11 12  1  6
 13 14  2  0
 15 14  1  0
 16 15  1  0
 17 16  2  0
 17 13  1  0
 18 11  1  0
 18 19  2  0
 20 21  1  0
 21 22  1  0
 22 24  1  0
 22 23  1  1
 24 25  1  6
 24 26  1  0
 25 18  1  0
 26 27  2  0
 26 28  1  0
M  END
$$$$
