KHI.pdb
     RDKit          3D

 28 28  0  0  1  0  0  0  0  0999 V2000
   35.7153  -28.7950    2.2415 N   0  0  0  0  0  0  0  0  0  0  0  0
   36.5132  -29.3484    3.3139 C   0  0  1  0  0  0  0  0  0  0  0  0
   37.7144  -30.0253    2.7242 C   0  0  0  0  0  0  0  0  0  0  0  0
   37.2803  -31.1617    1.8516 C   0  0  0  0  0  0  0  0  0  0  0  0
   38.4737  -31.8809    1.3007 C   0  0  0  0  0  0  0  0  0  0  0  0
   38.0460  -32.9683    0.3632 C   0  0  0  0  0  0  0  0  0  0  0  0
   39.2503  -33.5442   -0.2138 N   0  0  0  0  0  0  0  0  0  0  0  0
   37.0494  -28.2181    4.1706 C   0  0  0  0  0  0  0  0  0  0  0  0
   37.6675  -28.5950    5.1844 O   0  0  0  0  0  0  0  0  0  0  0  0
   36.8404  -26.8937    3.8073 N   0  0  0  0  0  0  0  0  0  0  0  0
   37.1302  -25.7540    4.5986 C   0  0  1  0  0  0  0  0  0  0  0  0
   38.1828  -24.9004    3.9448 C   0  0  0  0  0  0  0  0  0  0  0  0
   38.8227  -24.0537    4.9913 C   0  0  0  0  0  0  0  0  0  0  0  0
   39.9190  -24.4104    5.7177 C   0  0  0  0  0  0  0  0  0  0  0  0
   40.2430  -23.4142    6.5818 N   0  0  0  0  0  0  0  0  0  0  0  0
   39.3467  -22.4422    6.3886 C   0  0  0  0  0  0  0  0  0  0  0  0
   38.4812  -22.8300    5.4204 N   0  0  0  0  0  0  0  0  0  0  0  0
   35.9647  -24.9808    5.0953 C   0  0  0  0  0  0  0  0  0  0  0  0
   34.7889  -25.0604    4.7412 O   0  0  0  0  0  0  0  0  0  0  0  0
   33.0007  -22.4307    3.7772 C   0  0  0  0  0  0  0  0  0  0  0  0
   34.2401  -22.5554    4.6339 C   0  0  0  0  0  0  0  0  0  0  0  0
   33.9721  -23.1406    5.9876 C   0  0  2  0  0  0  0  0  0  0  0  0
   32.9028  -22.3335    6.6924 C   0  0  0  0  0  0  0  0  0  0  0  0
   35.2078  -23.2984    6.8297 C   0  0  2  0  0  0  0  0  0  0  0  0
   36.2436  -24.0147    6.1232 N   0  0  0  0  0  0  0  0  0  0  0  0
   34.9714  -23.7410    8.1959 C   0  0  0  0  0  0  0  0  0  0  0  0
   34.6612  -22.9050    9.0716 O   0  0  0  0  0  0  0  0  0  0  0  0
   35.0761  -25.0646    8.5769 O   0  0  0  0  0  0  0  0  0  0  0  0
  2  8  1  0
  2  1  1  6
  3  2  1  0
  4  3  1  0
  5  4  1  0
  6  5  1  0
  7  6  1  0
  8  9  2  0
 10 11  1  0
 10  8  1  0
 12 13  1  0
 11 12  1  6
 13 14  2  0
 15 14  1  0
 16 15  1  0
 17 16  2  0
 17 13  1  0
 18 11  1  0
 18 19  2  0
 20 21  1  0
 21 22  1  0
 22 24  1  0
 22 23  1  1
 24 25  1  6
 24 26  1  0
 25 18  1  0
 26 27  2  0
 26 28  1  0
M  END
$$$$
