KHI.pdb
     RDKit          3D

 28 28  0  0  1  0  0  0  0  0999 V2000
   26.5754  -21.2920  -18.4575 N   0  0  0  0  0  0  0  0  0  0  0  0
   26.1700  -20.1090  -17.7298 C   0  0  1  0  0  0  0  0  0  0  0  0
   25.4116  -19.2065  -18.6566 C   0  0  0  0  0  0  0  0  0  0  0  0
   26.3567  -18.5544  -19.6174 C   0  0  0  0  0  0  0  0  0  0  0  0
   27.2635  -17.6062  -18.8937 C   0  0  0  0  0  0  0  0  0  0  0  0
   28.2016  -16.9398  -19.8530 C   0  0  0  0  0  0  0  0  0  0  0  0
   29.0496  -16.0450  -19.0818 N   0  0  0  0  0  0  0  0  0  0  0  0
   25.1929  -20.5047  -16.6400 C   0  0  0  0  0  0  0  0  0  0  0  0
   24.2431  -21.2067  -17.0362 O   0  0  0  0  0  0  0  0  0  0  0  0
   25.3902  -20.0923  -15.3282 N   0  0  0  0  0  0  0  0  0  0  0  0
   24.5094  -20.3151  -14.2403 C   0  0  1  0  0  0  0  0  0  0  0  0
   25.1498  -19.9116  -12.9400 C   0  0  0  0  0  0  0  0  0  0  0  0
   24.3061  -20.4169  -11.8199 C   0  0  0  0  0  0  0  0  0  0  0  0
   23.1005  -21.0337  -11.9709 C   0  0  0  0  0  0  0  0  0  0  0  0
   22.5986  -21.3678  -10.7541 N   0  0  0  0  0  0  0  0  0  0  0  0
   23.4946  -20.9573   -9.8519 C   0  0  0  0  0  0  0  0  0  0  0  0
   24.5350  -20.3781  -10.4993 N   0  0  0  0  0  0  0  0  0  0  0  0
   23.1225  -19.8111  -14.3993 C   0  0  0  0  0  0  0  0  0  0  0  0
   22.7466  -18.6523  -14.5729 O   0  0  0  0  0  0  0  0  0  0  0  0
   20.2605  -21.1177  -18.2247 C   0  0  0  0  0  0  0  0  0  0  0  0
   20.7609  -20.4776  -16.9497 C   0  0  0  0  0  0  0  0  0  0  0  0
   20.0779  -20.9903  -15.7179 C   0  0  2  0  0  0  0  0  0  0  0  0
   18.5928  -20.7090  -15.8006 C   0  0  0  0  0  0  0  0  0  0  0  0
   20.6797  -20.4770  -14.4390 C   0  0  2  0  0  0  0  0  0  0  0  0
   22.0831  -20.8034  -14.3444 N   0  0  0  0  0  0  0  0  0  0  0  0
   19.9004  -20.7443  -13.2392 C   0  0  0  0  0  0  0  0  0  0  0  0
   19.9479  -21.8757  -12.7105 O   0  0  0  0  0  0  0  0  0  0  0  0
   19.0961  -19.7898  -12.6476 O   0  0  0  0  0  0  0  0  0  0  0  0
  2  8  1  0
  2  1  1  6
  3  2  1  0
  4  3  1  0
  5  4  1  0
  6  5  1  0
  7  6  1  0
  8  9  2  0
 10 11  1  0
 10  8  1  0
 12 13  1  0
 11 12  1  1
 13 14  2  0
 15 14  1  0
 16 15  1  0
 17 16  2  0
 17 13  1  0
 18 11  1  0
 18 19  2  0
 20 21  1  0
 21 22  1  0
 22 24  1  0
 22 23  1  6
 24 25  1  1
 24 26  1  0
 25 18  1  0
 26 27  2  0
 26 28  1  0
M  END
$$$$
