KHI.pdb
     RDKit          3D

 28 28  0  0  1  0  0  0  0  0999 V2000
   24.2889  -19.8955  -17.4529 N   0  0  0  0  0  0  0  0  0  0  0  0
   24.1721  -19.3124  -16.1340 C   0  0  1  0  0  0  0  0  0  0  0  0
   22.7512  -19.4399  -15.6722 C   0  0  0  0  0  0  0  0  0  0  0  0
   21.8215  -19.0039  -16.7617 C   0  0  0  0  0  0  0  0  0  0  0  0
   20.8367  -20.0898  -17.0718 C   0  0  0  0  0  0  0  0  0  0  0  0
   19.8913  -19.6511  -18.1479 C   0  0  0  0  0  0  0  0  0  0  0  0
   19.0310  -20.7815  -18.4589 N   0  0  0  0  0  0  0  0  0  0  0  0
   25.0031  -20.1205  -15.1565 C   0  0  0  0  0  0  0  0  0  0  0  0
   24.5351  -21.2454  -14.8969 O   0  0  0  0  0  0  0  0  0  0  0  0
   26.1781  -19.6013  -14.6277 N   0  0  0  0  0  0  0  0  0  0  0  0
   26.9514  -20.1743  -13.5872 C   0  0  1  0  0  0  0  0  0  0  0  0
   28.4051  -20.2357  -13.9706 C   0  0  0  0  0  0  0  0  0  0  0  0
   28.5301  -21.0259  -15.2281 C   0  0  0  0  0  0  0  0  0  0  0  0
   28.5026  -20.4986  -16.4843 C   0  0  0  0  0  0  0  0  0  0  0  0
   28.6421  -21.4892  -17.4027 N   0  0  0  0  0  0  0  0  0  0  0  0
   28.7558  -22.6282  -16.7133 C   0  0  0  0  0  0  0  0  0  0  0  0
   28.6878  -22.3477  -15.3891 N   0  0  0  0  0  0  0  0  0  0  0  0
   26.7208  -19.6403  -12.2218 C   0  0  0  0  0  0  0  0  0  0  0  0
   26.6014  -18.4669  -11.8711 O   0  0  0  0  0  0  0  0  0  0  0  0
   22.6170  -20.4986   -9.6271 C   0  0  0  0  0  0  0  0  0  0  0  0
   23.9865  -20.0430  -10.0774 C   0  0  0  0  0  0  0  0  0  0  0  0
   25.1044  -20.6246   -9.2659 C   0  0  2  0  0  0  0  0  0  0  0  0
   24.9291  -20.2504   -7.8095 C   0  0  0  0  0  0  0  0  0  0  0  0
   26.4709  -20.2658   -9.7808 C   0  0  2  0  0  0  0  0  0  0  0  0
   26.6231  -20.6190  -11.1726 N   0  0  0  0  0  0  0  0  0  0  0  0
   27.5772  -20.6558   -8.9192 C   0  0  0  0  0  0  0  0  0  0  0  0
   28.2386  -21.6814   -9.1885 O   0  0  0  0  0  0  0  0  0  0  0  0
   27.9363  -19.9334   -7.7980 O   0  0  0  0  0  0  0  0  0  0  0  0
  2  8  1  0
  2  1  1  6
  3  2  1  0
  4  3  1  0
  5  4  1  0
  6  5  1  0
  7  6  1  0
  8  9  2  0
 10 11  1  0
 10  8  1  0
 12 13  1  0
 11 12  1  6
 13 14  2  0
 15 14  1  0
 16 15  1  0
 17 16  2  0
 17 13  1  0
 18 11  1  0
 18 19  2  0
 20 21  1  0
 21 22  1  0
 22 24  1  0
 22 23  1  1
 24 25  1  6
 24 26  1  0
 25 18  1  0
 26 27  2  0
 26 28  1  0
M  END
$$$$
