KHI.pdb
     RDKit          3D

 28 28  0  0  1  0  0  0  0  0999 V2000
   19.2423  -12.1103  -16.0170 N   0  0  0  0  0  0  0  0  0  0  0  0
   18.3887  -10.9900  -15.6861 C   0  0  1  0  0  0  0  0  0  0  0  0
   16.9588  -11.4385  -15.7390 C   0  0  0  0  0  0  0  0  0  0  0  0
   16.7386  -12.2935  -16.9480 C   0  0  0  0  0  0  0  0  0  0  0  0
   15.2764  -12.5599  -17.1385 C   0  0  0  0  0  0  0  0  0  0  0  0
   15.0449  -13.3561  -18.3862 C   0  0  0  0  0  0  0  0  0  0  0  0
   13.6201  -13.6353  -18.4662 N   0  0  0  0  0  0  0  0  0  0  0  0
   18.6438  -10.5763  -14.2498 C   0  0  0  0  0  0  0  0  0  0  0  0
   18.7644  -11.5301  -13.4576 O   0  0  0  0  0  0  0  0  0  0  0  0
   18.7275   -9.2335  -13.9040 N   0  0  0  0  0  0  0  0  0  0  0  0
   18.9159   -8.7168  -12.5976 C   0  0  1  0  0  0  0  0  0  0  0  0
   20.3458   -8.2983  -12.3872 C   0  0  0  0  0  0  0  0  0  0  0  0
   20.7261   -7.3502  -13.4725 C   0  0  0  0  0  0  0  0  0  0  0  0
   19.9195   -6.9919  -14.5106 C   0  0  0  0  0  0  0  0  0  0  0  0
   20.5698   -6.1143  -15.3175 N   0  0  0  0  0  0  0  0  0  0  0  0
   21.7781   -5.9308  -14.7773 C   0  0  0  0  0  0  0  0  0  0  0  0
   21.8748   -6.6826  -13.6538 N   0  0  0  0  0  0  0  0  0  0  0  0
   17.9294   -7.7079  -12.1374 C   0  0  0  0  0  0  0  0  0  0  0  0
   17.2845   -6.9073  -12.8136 O   0  0  0  0  0  0  0  0  0  0  0  0
   13.7000   -9.0895  -10.0192 C   0  0  0  0  0  0  0  0  0  0  0  0
   14.8194   -8.2527  -10.5957 C   0  0  0  0  0  0  0  0  0  0  0  0
   15.5585   -7.4547   -9.5644 C   0  0  2  0  0  0  0  0  0  0  0  0
   14.6039   -6.5094   -8.8667 C   0  0  0  0  0  0  0  0  0  0  0  0
   16.7646   -6.7399  -10.1081 C   0  0  2  0  0  0  0  0  0  0  0  0
   17.6954   -7.6592  -10.7194 N   0  0  0  0  0  0  0  0  0  0  0  0
   17.3606   -5.7630   -9.2088 C   0  0  0  0  0  0  0  0  0  0  0  0
   18.1954   -6.1358   -8.3567 O   0  0  0  0  0  0  0  0  0  0  0  0
   17.0410   -4.4200   -9.2532 O   0  0  0  0  0  0  0  0  0  0  0  0
  2  8  1  0
  2  1  1  1
  3  2  1  0
  4  3  1  0
  5  4  1  0
  6  5  1  0
  7  6  1  0
  8  9  2  0
 10 11  1  0
 10  8  1  0
 12 13  1  0
 11 12  1  6
 13 14  2  0
 15 14  1  0
 16 15  1  0
 17 16  2  0
 17 13  1  0
 18 11  1  0
 18 19  2  0
 20 21  1  0
 21 22  1  0
 22 24  1  0
 22 23  1  6
 24 25  1  1
 24 26  1  0
 25 18  1  0
 26 27  2  0
 26 28  1  0
M  END
$$$$
