YQG.pdb
     RDKit          3D

 26 26  0  0  1  0  0  0  0  0999 V2000
   20.5587  -12.1775  -16.8266 O   0  0  0  0  0  0  0  0  0  0  0  0
   19.7510  -11.2167  -16.2186 C   0  0  0  0  0  0  0  0  0  0  0  0
   18.9691  -10.4294  -17.0414 C   0  0  0  0  0  0  0  0  0  0  0  0
   18.1373   -9.4500  -16.5134 C   0  0  0  0  0  0  0  0  0  0  0  0
   18.0854   -9.2544  -15.1505 C   0  0  0  0  0  0  0  0  0  0  0  0
   17.2207   -8.2267  -14.5072 C   0  0  0  0  0  0  0  0  0  0  0  0
   16.1138   -8.9622  -13.8099 C   0  0  2  0  0  0  0  0  0  0  0  0
   15.3504   -9.6609  -14.8224 N   0  0  0  0  0  0  0  0  0  0  0  0
   15.2322   -8.1363  -13.0079 C   0  0  0  0  0  0  0  0  0  0  0  0
   14.2388   -7.6025  -13.5595 O   0  0  0  0  0  0  0  0  0  0  0  0
   18.8733  -10.0503  -14.3469 C   0  0  0  0  0  0  0  0  0  0  0  0
   19.7074  -11.0301  -14.8537 C   0  0  0  0  0  0  0  0  0  0  0  0
   12.2269   -9.3318   -8.1161 N   0  0  0  0  0  0  0  0  0  0  0  0
   12.0610   -9.5826   -9.4955 C   0  0  0  0  0  0  0  0  0  0  0  0
   11.2494  -10.4533   -9.8955 O   0  0  0  0  0  0  0  0  0  0  0  0
   12.8431   -8.8206  -10.4888 C   0  0  0  0  0  0  0  0  0  0  0  0
   13.7701   -7.8380   -9.8018 C   0  0  0  0  0  0  0  0  0  0  0  0
   14.4688   -7.0496  -10.8850 C   0  0  2  0  0  0  0  0  0  0  0  0
   15.4031   -7.8751  -11.6180 N   0  0  0  0  0  0  0  0  0  0  0  0
   15.1317   -5.8299  -10.3542 C   0  0  0  0  0  0  0  0  0  0  0  0
   16.2215   -5.9194   -9.7120 O   0  0  0  0  0  0  0  0  0  0  0  0
   14.5642   -4.5446  -10.5524 N   0  0  0  0  0  0  0  0  0  0  0  0
   15.3010   -3.3616  -10.1645 C   0  0  0  0  0  0  0  0  0  0  0  0
   15.0732   -3.0554   -8.7353 C   0  0  0  0  0  0  0  0  0  0  0  0
   14.3010   -3.7655   -8.0424 O   0  0  0  0  0  0  0  0  0  0  0  0
   15.7330   -1.9589   -8.1642 O   0  0  0  0  0  0  0  0  0  0  0  0
  2  3  2  0
  2  1  1  0
  4  3  1  0
  5  4  2  0
  6  5  1  0
  7  6  1  0
  7  9  1  0
  7  8  1  6
  9 19  1  0
  9 10  2  0
 11  5  1  0
 11 12  2  0
 12  2  1  0
 14 15  2  0
 14 13  1  0
 16 14  1  0
 17 16  1  0
 18 17  1  1
 19 18  1  0
 20 18  1  0
 20 21  2  0
 22 20  1  0
 23 22  1  0
 24 23  1  0
 25 24  2  0
 26 24  1  0
M  END
$$$$
