YQG.pdb
     RDKit          3D

 26 26  0  0  1  0  0  0  0  0999 V2000
   21.7322  -22.2973   -6.6055 O   0  0  0  0  0  0  0  0  0  0  0  0
   22.3681  -21.6728   -7.6783 C   0  0  0  0  0  0  0  0  0  0  0  0
   21.6727  -21.5882   -8.8688 C   0  0  0  0  0  0  0  0  0  0  0  0
   22.2364  -20.9812   -9.9840 C   0  0  0  0  0  0  0  0  0  0  0  0
   23.5071  -20.4534   -9.9102 C   0  0  0  0  0  0  0  0  0  0  0  0
   24.1808  -19.7876  -11.0593 C   0  0  0  0  0  0  0  0  0  0  0  0
   24.5528  -20.8678  -12.0326 C   0  0  2  0  0  0  0  0  0  0  0  0
   25.7845  -21.4686  -11.5656 N   0  0  0  0  0  0  0  0  0  0  0  0
   24.7040  -20.4350  -13.4082 C   0  0  0  0  0  0  0  0  0  0  0  0
   25.7950  -19.9256  -13.7635 O   0  0  0  0  0  0  0  0  0  0  0  0
   24.1842  -20.5481   -8.7133 C   0  0  0  0  0  0  0  0  0  0  0  0
   23.6399  -21.1484   -7.5925 C   0  0  0  0  0  0  0  0  0  0  0  0
   27.2537  -22.6506  -15.9571 N   0  0  0  0  0  0  0  0  0  0  0  0
   25.9810  -23.2619  -15.9582 C   0  0  0  0  0  0  0  0  0  0  0  0
   25.8623  -24.4954  -15.7552 O   0  0  0  0  0  0  0  0  0  0  0  0
   24.7689  -22.4546  -16.1993 C   0  0  0  0  0  0  0  0  0  0  0  0
   25.1217  -20.9878  -16.3437 C   0  0  0  0  0  0  0  0  0  0  0  0
   23.9636  -20.1921  -15.7879 C   0  0  2  0  0  0  0  0  0  0  0  0
   23.6971  -20.5420  -14.4102 N   0  0  0  0  0  0  0  0  0  0  0  0
   22.7401  -20.3227  -16.6214 C   0  0  0  0  0  0  0  0  0  0  0  0
   22.8058  -20.1992  -17.8818 O   0  0  0  0  0  0  0  0  0  0  0  0
   21.4776  -20.5869  -16.0301 N   0  0  0  0  0  0  0  0  0  0  0  0
   20.6178  -19.4903  -15.6417 C   0  0  0  0  0  0  0  0  0  0  0  0
   19.8500  -18.9969  -16.8059 C   0  0  0  0  0  0  0  0  0  0  0  0
   20.4370  -18.4663  -17.7830 O   0  0  0  0  0  0  0  0  0  0  0  0
   18.4550  -19.1303  -16.8030 O   0  0  0  0  0  0  0  0  0  0  0  0
  2  3  2  0
  2  1  1  0
  4  3  1  0
  5  4  2  0
  6  5  1  0
  7  6  1  0
  7  9  1  0
  7  8  1  1
  9 19  1  0
  9 10  2  0
 11  5  1  0
 11 12  2  0
 12  2  1  0
 14 15  2  0
 14 13  1  0
 16 14  1  0
 17 16  1  0
 18 17  1  6
 19 18  1  0
 20 18  1  0
 20 21  2  0
 22 20  1  0
 23 22  1  0
 24 23  1  0
 25 24  2  0
 26 24  1  0
M  END
$$$$
