YQG.pdb
     RDKit          3D

 26 26  0  0  1  0  0  0  0  0999 V2000
   22.8692  -12.8090  -20.0638 O   0  0  0  0  0  0  0  0  0  0  0  0
   22.8449  -14.1200  -19.5884 C   0  0  0  0  0  0  0  0  0  0  0  0
   23.2769  -15.1152  -20.4434 C   0  0  0  0  0  0  0  0  0  0  0  0
   23.2835  -16.4461  -20.0453 C   0  0  0  0  0  0  0  0  0  0  0  0
   22.8546  -16.7871  -18.7810 C   0  0  0  0  0  0  0  0  0  0  0  0
   22.8311  -18.1890  -18.2791 C   0  0  0  0  0  0  0  0  0  0  0  0
   24.0683  -18.3766  -17.4503 C   0  0  2  0  0  0  0  0  0  0  0  0
   25.1758  -18.5755  -18.3613 N   0  0  0  0  0  0  0  0  0  0  0  0
   24.0124  -19.4653  -16.4943 C   0  0  0  0  0  0  0  0  0  0  0  0
   24.4530  -20.5904  -16.8353 O   0  0  0  0  0  0  0  0  0  0  0  0
   22.4275  -15.7793  -17.9432 C   0  0  0  0  0  0  0  0  0  0  0  0
   22.4136  -14.4491  -18.3214 C   0  0  0  0  0  0  0  0  0  0  0  0
   25.3889  -23.4415  -11.5834 N   0  0  0  0  0  0  0  0  0  0  0  0
   25.2574  -22.2265  -12.2905 C   0  0  0  0  0  0  0  0  0  0  0  0
   26.1335  -21.8669  -13.1151 O   0  0  0  0  0  0  0  0  0  0  0  0
   24.0830  -21.3603  -12.0679 C   0  0  0  0  0  0  0  0  0  0  0  0
   24.1489  -20.1304  -12.9508 C   0  0  0  0  0  0  0  0  0  0  0  0
   23.5000  -20.4894  -14.2674 C   0  0  2  0  0  0  0  0  0  0  0  0
   23.4886  -19.3623  -15.1736 N   0  0  0  0  0  0  0  0  0  0  0  0
   22.1345  -21.0477  -14.0876 C   0  0  0  0  0  0  0  0  0  0  0  0
   21.9609  -22.1225  -13.4372 O   0  0  0  0  0  0  0  0  0  0  0  0
   21.0000  -20.3955  -14.6361 N   0  0  0  0  0  0  0  0  0  0  0  0
   19.6762  -20.9309  -14.4044 C   0  0  0  0  0  0  0  0  0  0  0  0
   19.1970  -20.5609  -13.0547 C   0  0  0  0  0  0  0  0  0  0  0  0
   19.9302  -19.9058  -12.2711 O   0  0  0  0  0  0  0  0  0  0  0  0
   17.9102  -20.9529  -12.6619 O   0  0  0  0  0  0  0  0  0  0  0  0
  2  3  2  0
  2  1  1  0
  4  3  1  0
  5  4  2  0
  6  5  1  0
  7  6  1  0
  7  9  1  0
  7  8  1  6
  9 19  1  0
  9 10  2  0
 11  5  1  0
 11 12  2  0
 12  2  1  0
 14 15  2  0
 14 13  1  0
 16 14  1  0
 17 16  1  0
 18 17  1  1
 19 18  1  0
 20 18  1  0
 20 21  2  0
 22 20  1  0
 23 22  1  0
 24 23  1  0
 25 24  2  0
 26 24  1  0
M  END
$$$$
