YQG.pdb
     RDKit          3D

 26 26  0  0  1  0  0  0  0  0999 V2000
   21.6385  -21.5132   -8.6954 O   0  0  0  0  0  0  0  0  0  0  0  0
   22.7655  -21.0770   -9.3917 C   0  0  0  0  0  0  0  0  0  0  0  0
   22.6452  -20.9119  -10.7578 C   0  0  0  0  0  0  0  0  0  0  0  0
   23.7215  -20.4806  -11.5229 C   0  0  0  0  0  0  0  0  0  0  0  0
   24.9301  -20.2113  -10.9183 C   0  0  0  0  0  0  0  0  0  0  0  0
   26.1299  -19.7456  -11.6674 C   0  0  0  0  0  0  0  0  0  0  0  0
   26.4009  -20.7653  -12.7349 C   0  0  2  0  0  0  0  0  0  0  0  0
   27.0585  -21.8906  -12.1045 N   0  0  0  0  0  0  0  0  0  0  0  0
   27.1927  -20.2930  -13.8540 C   0  0  0  0  0  0  0  0  0  0  0  0
   28.3487  -19.8560  -13.6328 O   0  0  0  0  0  0  0  0  0  0  0  0
   25.0294  -20.3823   -9.5542 C   0  0  0  0  0  0  0  0  0  0  0  0
   23.9695  -20.8107   -8.7759 C   0  0  0  0  0  0  0  0  0  0  0  0
   27.0264  -23.3851  -17.5506 N   0  0  0  0  0  0  0  0  0  0  0  0
   28.2731  -23.1852  -16.9190 C   0  0  0  0  0  0  0  0  0  0  0  0
   28.9471  -24.1617  -16.5077 O   0  0  0  0  0  0  0  0  0  0  0  0
   28.8019  -21.8195  -16.7337 C   0  0  0  0  0  0  0  0  0  0  0  0
   27.8595  -20.7941  -17.3312 C   0  0  0  0  0  0  0  0  0  0  0  0
   27.5951  -19.7552  -16.2663 C   0  0  2  0  0  0  0  0  0  0  0  0
   26.7593  -20.2836  -15.2109 N   0  0  0  0  0  0  0  0  0  0  0  0
   27.0222  -18.5051  -16.8300 C   0  0  0  0  0  0  0  0  0  0  0  0
   25.7702  -18.3046  -16.8055 O   0  0  0  0  0  0  0  0  0  0  0  0
   27.8574  -17.5127  -17.4052 N   0  0  0  0  0  0  0  0  0  0  0  0
   27.2821  -16.2792  -17.8953 C   0  0  0  0  0  0  0  0  0  0  0  0
   26.9628  -16.3931  -19.3353 C   0  0  0  0  0  0  0  0  0  0  0  0
   26.9953  -17.5093  -19.9130 O   0  0  0  0  0  0  0  0  0  0  0  0
   26.6226  -15.2350  -20.0471 O   0  0  0  0  0  0  0  0  0  0  0  0
  2  3  2  0
  2  1  1  0
  4  3  1  0
  5  4  2  0
  6  5  1  0
  7  6  1  0
  7  9  1  0
  7  8  1  1
  9 19  1  0
  9 10  2  0
 11  5  1  0
 11 12  2  0
 12  2  1  0
 14 15  2  0
 14 13  1  0
 16 14  1  0
 17 16  1  0
 18 17  1  6
 19 18  1  0
 20 18  1  0
 20 21  2  0
 22 20  1  0
 23 22  1  0
 24 23  1  0
 25 24  2  0
 26 24  1  0
M  END
$$$$
