YQG.pdb
     RDKit          3D

 26 26  0  0  1  0  0  0  0  0999 V2000
   29.9256  -21.6928   -8.9705 O   0  0  0  0  0  0  0  0  0  0  0  0
   28.9666  -21.2878   -9.8987 C   0  0  0  0  0  0  0  0  0  0  0  0
   29.4095  -20.9340  -11.1584 C   0  0  0  0  0  0  0  0  0  0  0  0
   28.5173  -20.5196  -12.1392 C   0  0  0  0  0  0  0  0  0  0  0  0
   27.1695  -20.4576  -11.8599 C   0  0  0  0  0  0  0  0  0  0  0  0
   26.1502  -20.0243  -12.8554 C   0  0  0  0  0  0  0  0  0  0  0  0
   25.3111  -21.2275  -13.1729 C   0  0  2  0  0  0  0  0  0  0  0  0
   26.1635  -22.1880  -13.8415 N   0  0  0  0  0  0  0  0  0  0  0  0
   24.1344  -20.9653  -13.9785 C   0  0  0  0  0  0  0  0  0  0  0  0
   24.2401  -20.9991  -15.2290 O   0  0  0  0  0  0  0  0  0  0  0  0
   26.7479  -20.8148  -10.5971 C   0  0  0  0  0  0  0  0  0  0  0  0
   27.6207  -21.2297   -9.6077 C   0  0  0  0  0  0  0  0  0  0  0  0
   18.4906  -23.1644  -13.8832 N   0  0  0  0  0  0  0  0  0  0  0  0
   19.0100  -22.5344  -12.7314 C   0  0  0  0  0  0  0  0  0  0  0  0
   18.4099  -22.6146  -11.6313 O   0  0  0  0  0  0  0  0  0  0  0  0
   20.2708  -21.7703  -12.8068 C   0  0  0  0  0  0  0  0  0  0  0  0
   20.7697  -21.6990  -14.2361 C   0  0  0  0  0  0  0  0  0  0  0  0
   21.6971  -20.5095  -14.3275 C   0  0  2  0  0  0  0  0  0  0  0  0
   22.8423  -20.6664  -13.4585 N   0  0  0  0  0  0  0  0  0  0  0  0
   20.9943  -19.2268  -14.0634 C   0  0  0  0  0  0  0  0  0  0  0  0
   21.1736  -18.6099  -12.9701 O   0  0  0  0  0  0  0  0  0  0  0  0
   20.1118  -18.6660  -15.0225 N   0  0  0  0  0  0  0  0  0  0  0  0
   19.3387  -17.4887  -14.6919 C   0  0  0  0  0  0  0  0  0  0  0  0
   19.9459  -16.2837  -15.2982 C   0  0  0  0  0  0  0  0  0  0  0  0
   21.1077  -16.3228  -15.7773 O   0  0  0  0  0  0  0  0  0  0  0  0
   19.2045  -15.0950  -15.3302 O   0  0  0  0  0  0  0  0  0  0  0  0
  2  3  2  0
  2  1  1  0
  4  3  1  0
  5  4  2  0
  6  5  1  0
  7  6  1  0
  7  9  1  0
  7  8  1  6
  9 19  1  0
  9 10  2  0
 11  5  1  0
 11 12  2  0
 12  2  1  0
 14 15  2  0
 14 13  1  0
 16 14  1  0
 17 16  1  0
 18 17  1  1
 19 18  1  0
 20 18  1  0
 20 21  2  0
 22 20  1  0
 23 22  1  0
 24 23  1  0
 25 24  2  0
 26 24  1  0
M  END
$$$$
