YQG.pdb
     RDKit          3D

 26 26  0  0  1  0  0  0  0  0999 V2000
   21.9568  -22.3908   -7.0068 O   0  0  0  0  0  0  0  0  0  0  0  0
   22.6618  -21.7717   -8.0388 C   0  0  0  0  0  0  0  0  0  0  0  0
   23.9451  -21.3408   -7.7638 C   0  0  0  0  0  0  0  0  0  0  0  0
   24.7128  -20.7151   -8.7379 C   0  0  0  0  0  0  0  0  0  0  0  0
   24.1944  -20.5174   -9.9992 C   0  0  0  0  0  0  0  0  0  0  0  0
   24.9523  -19.8557  -11.0971 C   0  0  0  0  0  0  0  0  0  0  0  0
   25.3185  -20.9272  -12.0821 C   0  0  2  0  0  0  0  0  0  0  0  0
   26.5358  -21.5534  -11.6110 N   0  0  0  0  0  0  0  0  0  0  0  0
   25.4911  -20.4769  -13.4496 C   0  0  0  0  0  0  0  0  0  0  0  0
   26.4103  -19.6606  -13.7040 O   0  0  0  0  0  0  0  0  0  0  0  0
   22.9121  -20.9546  -10.2533 C   0  0  0  0  0  0  0  0  0  0  0  0
   22.1326  -21.5795   -9.2968 C   0  0  0  0  0  0  0  0  0  0  0  0
   26.5949  -23.2042  -18.3699 N   0  0  0  0  0  0  0  0  0  0  0  0
   27.0198  -23.1171  -17.0263 C   0  0  0  0  0  0  0  0  0  0  0  0
   27.9123  -23.8827  -16.5854 O   0  0  0  0  0  0  0  0  0  0  0  0
   26.4172  -22.1205  -16.1193 C   0  0  0  0  0  0  0  0  0  0  0  0
   25.4015  -21.2704  -16.8558 C   0  0  0  0  0  0  0  0  0  0  0  0
   24.8304  -20.2901  -15.8577 C   0  0  2  0  0  0  0  0  0  0  0  0
   24.6880  -20.8922  -14.5505 N   0  0  0  0  0  0  0  0  0  0  0  0
   23.5470  -19.7002  -16.3199 C   0  0  0  0  0  0  0  0  0  0  0  0
   22.4431  -20.1294  -15.8666 O   0  0  0  0  0  0  0  0  0  0  0  0
   23.5269  -18.6495  -17.2732 N   0  0  0  0  0  0  0  0  0  0  0  0
   22.2636  -18.1282  -17.7476 C   0  0  0  0  0  0  0  0  0  0  0  0
   21.5355  -19.1586  -18.5200 C   0  0  0  0  0  0  0  0  0  0  0  0
   22.0995  -19.7720  -19.4615 O   0  0  0  0  0  0  0  0  0  0  0  0
   20.2044  -19.4411  -18.1853 O   0  0  0  0  0  0  0  0  0  0  0  0
  2  3  2  0
  2  1  1  0
  4  3  1  0
  5  4  2  0
  6  5  1  0
  7  6  1  0
  7  9  1  0
  7  8  1  1
  9 19  1  0
  9 10  2  0
 11  5  1  0
 11 12  2  0
 12  2  1  0
 14 15  2  0
 14 13  1  0
 16 14  1  0
 17 16  1  0
 18 17  1  6
 19 18  1  0
 20 18  1  0
 20 21  2  0
 22 20  1  0
 23 22  1  0
 24 23  1  0
 25 24  2  0
 26 24  1  0
M  END
$$$$
