YQG.pdb
     RDKit          3D

 26 26  0  0  1  0  0  0  0  0999 V2000
   20.2475  -16.0797  -20.5736 O   0  0  0  0  0  0  0  0  0  0  0  0
   19.6612  -14.9408  -20.0217 C   0  0  0  0  0  0  0  0  0  0  0  0
   20.4772  -13.8483  -19.8010 C   0  0  0  0  0  0  0  0  0  0  0  0
   19.9697  -12.6763  -19.2545 C   0  0  0  0  0  0  0  0  0  0  0  0
   18.6344  -12.5939  -18.9250 C   0  0  0  0  0  0  0  0  0  0  0  0
   18.0142  -11.3748  -18.3360 C   0  0  0  0  0  0  0  0  0  0  0  0
   18.6525  -11.1655  -16.9938 C   0  0  2  0  0  0  0  0  0  0  0  0
   17.9830  -12.0389  -16.0530 N   0  0  0  0  0  0  0  0  0  0  0  0
   18.6295   -9.8008  -16.5045 C   0  0  0  0  0  0  0  0  0  0  0  0
   17.5599   -9.3496  -16.0264 O   0  0  0  0  0  0  0  0  0  0  0  0
   17.8371  -13.6950  -19.1531 C   0  0  0  0  0  0  0  0  0  0  0  0
   18.3238  -14.8701  -19.6961 C   0  0  0  0  0  0  0  0  0  0  0  0
   22.1262   -7.0854  -12.5821 N   0  0  0  0  0  0  0  0  0  0  0  0
   20.9033   -7.7771  -12.4426 C   0  0  0  0  0  0  0  0  0  0  0  0
   20.5176   -8.1763  -11.3162 O   0  0  0  0  0  0  0  0  0  0  0  0
   20.0593   -8.0405  -13.6247 C   0  0  0  0  0  0  0  0  0  0  0  0
   20.6326   -7.3645  -14.8540 C   0  0  0  0  0  0  0  0  0  0  0  0
   19.6472   -7.5737  -15.9803 C   0  0  2  0  0  0  0  0  0  0  0  0
   19.7422   -8.9114  -16.5216 N   0  0  0  0  0  0  0  0  0  0  0  0
   19.7889   -6.5507  -17.0490 C   0  0  0  0  0  0  0  0  0  0  0  0
   20.5958   -6.7338  -18.0100 O   0  0  0  0  0  0  0  0  0  0  0  0
   19.0295   -5.3525  -17.0192 N   0  0  0  0  0  0  0  0  0  0  0  0
   19.2197   -4.3506  -18.0452 C   0  0  0  0  0  0  0  0  0  0  0  0
   18.2259   -3.2646  -17.8989 C   0  0  0  0  0  0  0  0  0  0  0  0
   17.0530   -3.5152  -17.5218 O   0  0  0  0  0  0  0  0  0  0  0  0
   18.6129   -1.9491  -18.1878 O   0  0  0  0  0  0  0  0  0  0  0  0
  2  3  2  0
  2  1  1  0
  4  3  1  0
  5  4  2  0
  6  5  1  0
  7  6  1  0
  7  9  1  0
  7  8  1  1
  9 19  1  0
  9 10  2  0
 11  5  1  0
 11 12  2  0
 12  2  1  0
 14 15  2  0
 14 13  1  0
 16 14  1  0
 17 16  1  0
 18 17  1  1
 19 18  1  0
 20 18  1  0
 20 21  2  0
 22 20  1  0
 23 22  1  0
 24 23  1  0
 25 24  2  0
 26 24  1  0
M  END
$$$$
