YQG.pdb
     RDKit          3D

 26 26  0  0  1  0  0  0  0  0999 V2000
   26.9224  -17.6248  -15.2550 O   0  0  0  0  0  0  0  0  0  0  0  0
   26.3375  -16.3955  -15.5584 C   0  0  0  0  0  0  0  0  0  0  0  0
   25.8947  -16.2035  -16.8526 C   0  0  0  0  0  0  0  0  0  0  0  0
   25.3010  -15.0071  -17.2345 C   0  0  0  0  0  0  0  0  0  0  0  0
   25.1477  -13.9921  -16.3154 C   0  0  0  0  0  0  0  0  0  0  0  0
   24.5222  -12.6816  -16.6454 C   0  0  0  0  0  0  0  0  0  0  0  0
   23.0867  -12.7624  -16.2149 C   0  0  2  0  0  0  0  0  0  0  0  0
   22.4682  -13.8367  -16.9629 N   0  0  0  0  0  0  0  0  0  0  0  0
   22.3224  -11.5413  -16.3795 C   0  0  0  0  0  0  0  0  0  0  0  0
   21.6869  -11.3671  -17.4481 O   0  0  0  0  0  0  0  0  0  0  0  0
   25.5962  -14.2036  -15.0292 C   0  0  0  0  0  0  0  0  0  0  0  0
   26.1896  -15.3874  -14.6302 C   0  0  0  0  0  0  0  0  0  0  0  0
   17.2380  -10.2393  -16.1135 N   0  0  0  0  0  0  0  0  0  0  0  0
   17.6988   -8.9335  -16.3891 C   0  0  0  0  0  0  0  0  0  0  0  0
   16.9127   -8.0541  -16.8198 O   0  0  0  0  0  0  0  0  0  0  0  0
   19.1169   -8.5848  -16.1733 C   0  0  0  0  0  0  0  0  0  0  0  0
   19.9184   -9.8124  -15.7898 C   0  0  0  0  0  0  0  0  0  0  0  0
   21.3505   -9.3699  -15.5979 C   0  0  2  0  0  0  0  0  0  0  0  0
   22.2308  -10.5018  -15.4098 N   0  0  0  0  0  0  0  0  0  0  0  0
   21.4924   -8.3892  -14.4902 C   0  0  0  0  0  0  0  0  0  0  0  0
   21.4247   -8.7705  -13.2827 O   0  0  0  0  0  0  0  0  0  0  0  0
   21.7058   -7.0119  -14.7563 N   0  0  0  0  0  0  0  0  0  0  0  0
   21.7792   -6.0676  -13.6629 C   0  0  0  0  0  0  0  0  0  0  0  0
   22.0927   -4.7132  -14.1687 C   0  0  0  0  0  0  0  0  0  0  0  0
   22.2824   -4.5149  -15.3957 O   0  0  0  0  0  0  0  0  0  0  0  0
   22.1751   -3.6522  -13.2570 O   0  0  0  0  0  0  0  0  0  0  0  0
  2  3  2  0
  2  1  1  0
  4  3  1  0
  5  4  2  0
  6  5  1  0
  7  6  1  0
  7  9  1  0
  7  8  1  6
  9 19  1  0
  9 10  2  0
 11  5  1  0
 11 12  2  0
 12  2  1  0
 14 15  2  0
 14 13  1  0
 16 14  1  0
 17 16  1  0
 18 17  1  1
 19 18  1  0
 20 18  1  0
 20 21  2  0
 22 20  1  0
 23 22  1  0
 24 23  1  0
 25 24  2  0
 26 24  1  0
M  END
$$$$
