YQG.pdb
     RDKit          3D

 26 26  0  0  1  0  0  0  0  0999 V2000
   27.7743  -20.0449   -5.1276 O   0  0  0  0  0  0  0  0  0  0  0  0
   27.5106  -19.8816   -6.4874 C   0  0  0  0  0  0  0  0  0  0  0  0
   26.4471  -20.5851   -7.0185 C   0  0  0  0  0  0  0  0  0  0  0  0
   26.1194  -20.4768   -8.3641 C   0  0  0  0  0  0  0  0  0  0  0  0
   26.8607  -19.6580   -9.1879 C   0  0  0  0  0  0  0  0  0  0  0  0
   26.5741  -19.4877  -10.6393 C   0  0  0  0  0  0  0  0  0  0  0  0
   25.8762  -20.7356  -11.0957 C   0  0  2  0  0  0  0  0  0  0  0  0
   26.8929  -21.7352  -11.3474 N   0  0  0  0  0  0  0  0  0  0  0  0
   25.0347  -20.5803  -12.2662 C   0  0  0  0  0  0  0  0  0  0  0  0
   25.5815  -20.4310  -13.3864 O   0  0  0  0  0  0  0  0  0  0  0  0
   27.9178  -18.9647   -8.6386 C   0  0  0  0  0  0  0  0  0  0  0  0
   28.2594  -19.0595   -7.3018 C   0  0  0  0  0  0  0  0  0  0  0  0
   23.1763  -23.4750  -16.0069 N   0  0  0  0  0  0  0  0  0  0  0  0
   23.8471  -23.6345  -14.7748 C   0  0  0  0  0  0  0  0  0  0  0  0
   24.7601  -24.4872  -14.6479 O   0  0  0  0  0  0  0  0  0  0  0  0
   23.4816  -22.7967  -13.6157 C   0  0  0  0  0  0  0  0  0  0  0  0
   22.4059  -21.7984  -13.9937 C   0  0  0  0  0  0  0  0  0  0  0  0
   22.8420  -20.4503  -13.4685 C   0  0  2  0  0  0  0  0  0  0  0  0
   23.6102  -20.5830  -12.2504 N   0  0  0  0  0  0  0  0  0  0  0  0
   21.6965  -19.5218  -13.2824 C   0  0  0  0  0  0  0  0  0  0  0  0
   20.9658  -19.6028  -12.2492 O   0  0  0  0  0  0  0  0  0  0  0  0
   21.3955  -18.5292  -14.2506 N   0  0  0  0  0  0  0  0  0  0  0  0
   20.6007  -18.8687  -15.4107 C   0  0  0  0  0  0  0  0  0  0  0  0
   19.1645  -18.9144  -15.0589 C   0  0  0  0  0  0  0  0  0  0  0  0
   18.6700  -19.9335  -14.5135 O   0  0  0  0  0  0  0  0  0  0  0  0
   18.3619  -17.8015  -15.3437 O   0  0  0  0  0  0  0  0  0  0  0  0
  2  3  2  0
  2  1  1  0
  4  3  1  0
  5  4  2  0
  6  5  1  0
  7  6  1  0
  7  9  1  0
  7  8  1  6
  9 19  1  0
  9 10  2  0
 11  5  1  0
 11 12  2  0
 12  2  1  0
 14 15  2  0
 14 13  1  0
 16 14  1  0
 17 16  1  0
 18 17  1  1
 19 18  1  0
 20 18  1  0
 20 21  2  0
 22 20  1  0
 23 22  1  0
 24 23  1  0
 25 24  2  0
 26 24  1  0
M  END
$$$$
