YQG.pdb
     RDKit          3D

 26 26  0  0  1  0  0  0  0  0999 V2000
   28.5462  -19.3951   -5.7645 O   0  0  0  0  0  0  0  0  0  0  0  0
   28.2187  -19.6981   -7.0860 C   0  0  0  0  0  0  0  0  0  0  0  0
   29.0452  -20.5747   -7.7616 C   0  0  0  0  0  0  0  0  0  0  0  0
   28.7875  -20.9273   -9.0803 C   0  0  0  0  0  0  0  0  0  0  0  0
   27.6937  -20.3996   -9.7313 C   0  0  0  0  0  0  0  0  0  0  0  0
   27.3492  -20.7272  -11.1425 C   0  0  0  0  0  0  0  0  0  0  0  0
   25.9692  -21.3173  -11.1293 C   0  0  2  0  0  0  0  0  0  0  0  0
   26.0780  -22.6660  -10.6144 N   0  0  0  0  0  0  0  0  0  0  0  0
   25.2902  -21.3301  -12.4103 C   0  0  0  0  0  0  0  0  0  0  0  0
   25.5539  -22.2497  -13.2233 O   0  0  0  0  0  0  0  0  0  0  0  0
   26.8814  -19.5268   -9.0396 C   0  0  0  0  0  0  0  0  0  0  0  0
   27.1216  -19.1639   -7.7268 C   0  0  0  0  0  0  0  0  0  0  0  0
   20.2594  -20.4769  -11.9210 N   0  0  0  0  0  0  0  0  0  0  0  0
   20.5805  -21.6970  -12.5546 C   0  0  0  0  0  0  0  0  0  0  0  0
   20.0373  -22.7697  -12.1924 O   0  0  0  0  0  0  0  0  0  0  0  0
   21.5634  -21.7266  -13.6556 C   0  0  0  0  0  0  0  0  0  0  0  0
   22.1339  -20.3444  -13.9022 C   0  0  0  0  0  0  0  0  0  0  0  0
   23.6252  -20.5024  -14.0875 C   0  0  2  0  0  0  0  0  0  0  0  0
   24.3293  -20.3665  -12.8316 N   0  0  0  0  0  0  0  0  0  0  0  0
   24.1667  -19.5700  -15.1104 C   0  0  0  0  0  0  0  0  0  0  0  0
   23.8363  -18.3457  -15.1020 O   0  0  0  0  0  0  0  0  0  0  0  0
   25.0606  -20.0251  -16.1139 N   0  0  0  0  0  0  0  0  0  0  0  0
   25.5816  -19.0961  -17.0929 C   0  0  0  0  0  0  0  0  0  0  0  0
   24.7170  -19.0697  -18.2930 C   0  0  0  0  0  0  0  0  0  0  0  0
   23.6237  -19.6904  -18.3095 O   0  0  0  0  0  0  0  0  0  0  0  0
   25.1362  -18.3404  -19.4137 O   0  0  0  0  0  0  0  0  0  0  0  0
  2  3  2  0
  2  1  1  0
  4  3  1  0
  5  4  2  0
  6  5  1  0
  7  6  1  0
  7  9  1  0
  7  8  1  6
  9 19  1  0
  9 10  2  0
 11  5  1  0
 11 12  2  0
 12  2  1  0
 14 15  2  0
 14 13  1  0
 16 14  1  0
 17 16  1  0
 18 17  1  1
 19 18  1  0
 20 18  1  0
 20 21  2  0
 22 20  1  0
 23 22  1  0
 24 23  1  0
 25 24  2  0
 26 24  1  0
M  END
$$$$
