YQG.pdb
     RDKit          3D

 26 26  0  0  1  0  0  0  0  0999 V2000
   40.2706  -39.4948   -4.6029 O   0  0  0  0  0  0  0  0  0  0  0  0
   39.2773  -38.5214   -4.7079 C   0  0  0  0  0  0  0  0  0  0  0  0
   38.7243  -38.0473   -3.5342 C   0  0  0  0  0  0  0  0  0  0  0  0
   37.7298  -37.0775   -3.5536 C   0  0  0  0  0  0  0  0  0  0  0  0
   37.2828  -36.5759   -4.7566 C   0  0  0  0  0  0  0  0  0  0  0  0
   36.2216  -35.5364   -4.8621 C   0  0  0  0  0  0  0  0  0  0  0  0
   34.9425  -36.2502   -5.1894 C   0  0  2  0  0  0  0  0  0  0  0  0
   35.0431  -36.7183   -6.5557 N   0  0  0  0  0  0  0  0  0  0  0  0
   33.7359  -35.4634   -5.0236 C   0  0  0  0  0  0  0  0  0  0  0  0
   33.2553  -34.8782   -6.0250 O   0  0  0  0  0  0  0  0  0  0  0  0
   37.8474  -37.0622   -5.9163 C   0  0  0  0  0  0  0  0  0  0  0  0
   38.8381  -38.0272   -5.9172 C   0  0  0  0  0  0  0  0  0  0  0  0
   28.3530  -36.2230   -4.1780 N   0  0  0  0  0  0  0  0  0  0  0  0
   28.3378  -34.8186   -4.3215 C   0  0  0  0  0  0  0  0  0  0  0  0
   27.2637  -34.1757   -4.2215 O   0  0  0  0  0  0  0  0  0  0  0  0
   29.5902  -34.0855   -4.5921 C   0  0  0  0  0  0  0  0  0  0  0  0
   30.7660  -35.0393   -4.6581 C   0  0  0  0  0  0  0  0  0  0  0  0
   31.8237  -34.5115   -3.7168 C   0  0  2  0  0  0  0  0  0  0  0  0
   33.0363  -35.2958   -3.7940 N   0  0  0  0  0  0  0  0  0  0  0  0
   31.3339  -34.4165   -2.3168 C   0  0  0  0  0  0  0  0  0  0  0  0
   30.4046  -33.6081   -2.0154 O   0  0  0  0  0  0  0  0  0  0  0  0
   31.8911  -35.2232   -1.2912 N   0  0  0  0  0  0  0  0  0  0  0  0
   31.4434  -35.0661    0.0754 C   0  0  0  0  0  0  0  0  0  0  0  0
   30.3252  -35.9907    0.3635 C   0  0  0  0  0  0  0  0  0  0  0  0
   29.8424  -36.7153   -0.5435 O   0  0  0  0  0  0  0  0  0  0  0  0
   29.8111  -36.0466    1.6659 O   0  0  0  0  0  0  0  0  0  0  0  0
  2  3  2  0
  2  1  1  0
  4  3  1  0
  5  4  2  0
  6  5  1  0
  7  6  1  0
  7  9  1  0
  7  8  1  6
  9 19  1  0
  9 10  2  0
 11  5  1  0
 11 12  2  0
 12  2  1  0
 14 15  2  0
 14 13  1  0
 16 14  1  0
 17 16  1  0
 18 17  1  6
 19 18  1  0
 20 18  1  0
 20 21  2  0
 22 20  1  0
 23 22  1  0
 24 23  1  0
 25 24  2  0
 26 24  1  0
M  END
$$$$
