YQG.pdb
     RDKit          3D

 26 26  0  0  1  0  0  0  0  0999 V2000
   16.4217  -18.1888    4.8903 O   0  0  0  0  0  0  0  0  0  0  0  0
   16.3312  -19.5695    4.7149 C   0  0  0  0  0  0  0  0  0  0  0  0
   17.4777  -20.3132    4.9166 C   0  0  0  0  0  0  0  0  0  0  0  0
   17.4703  -21.6937    4.7618 C   0  0  0  0  0  0  0  0  0  0  0  0
   16.3069  -22.3384    4.4021 C   0  0  0  0  0  0  0  0  0  0  0  0
   16.2166  -23.8132    4.2164 C   0  0  0  0  0  0  0  0  0  0  0  0
   16.3399  -24.0760    2.7438 C   0  0  2  0  0  0  0  0  0  0  0  0
   15.0860  -23.6961    2.1278 N   0  0  0  0  0  0  0  0  0  0  0  0
   16.6736  -25.4408    2.3854 C   0  0  0  0  0  0  0  0  0  0  0  0
   15.7557  -26.2965    2.3497 O   0  0  0  0  0  0  0  0  0  0  0  0
   15.1739  -21.5783    4.2056 C   0  0  0  0  0  0  0  0  0  0  0  0
   15.1615  -20.2034    4.3549 C   0  0  0  0  0  0  0  0  0  0  0  0
   20.2982  -27.6407   -1.8105 N   0  0  0  0  0  0  0  0  0  0  0  0
   19.0341  -27.0125   -1.7850 C   0  0  0  0  0  0  0  0  0  0  0  0
   18.5291  -26.5456   -2.8357 O   0  0  0  0  0  0  0  0  0  0  0  0
   18.2872  -26.8963   -0.5170 C   0  0  0  0  0  0  0  0  0  0  0  0
   19.0490  -27.5541    0.6160 C   0  0  0  0  0  0  0  0  0  0  0  0
   18.2657  -27.3075    1.8844 C   0  0  2  0  0  0  0  0  0  0  0  0
   17.9830  -25.9006    2.0639 N   0  0  0  0  0  0  0  0  0  0  0  0
   18.9388  -27.8770    3.0808 C   0  0  0  0  0  0  0  0  0  0  0  0
   19.5726  -27.1237    3.8802 O   0  0  0  0  0  0  0  0  0  0  0  0
   18.8884  -29.2682    3.3550 N   0  0  0  0  0  0  0  0  0  0  0  0
   19.4419  -29.7822    4.5887 C   0  0  0  0  0  0  0  0  0  0  0  0
   20.8651  -30.1428    4.4070 C   0  0  0  0  0  0  0  0  0  0  0  0
   21.4236  -30.0062    3.2889 O   0  0  0  0  0  0  0  0  0  0  0  0
   21.5829  -30.6401    5.5030 O   0  0  0  0  0  0  0  0  0  0  0  0
  2  3  2  0
  2  1  1  0
  4  3  1  0
  5  4  2  0
  6  5  1  0
  7  6  1  0
  7  9  1  0
  7  8  1  6
  9 19  1  0
  9 10  2  0
 11  5  1  0
 11 12  2  0
 12  2  1  0
 14 15  2  0
 14 13  1  0
 16 14  1  0
 17 16  1  0
 18 17  1  6
 19 18  1  0
 20 18  1  0
 20 21  2  0
 22 20  1  0
 23 22  1  0
 24 23  1  0
 25 24  2  0
 26 24  1  0
M  END
$$$$
