YQG.pdb
     RDKit          3D

 26 26  0  0  1  0  0  0  0  0999 V2000
   28.4403  -19.8996   -3.7922 O   0  0  0  0  0  0  0  0  0  0  0  0
   28.0733  -19.7430   -5.1286 C   0  0  0  0  0  0  0  0  0  0  0  0
   26.9505  -20.4199   -5.5638 C   0  0  0  0  0  0  0  0  0  0  0  0
   26.5192  -20.3162   -6.8802 C   0  0  0  0  0  0  0  0  0  0  0  0
   27.2156  -19.5291   -7.7713 C   0  0  0  0  0  0  0  0  0  0  0  0
   26.8185  -19.3659   -9.1973 C   0  0  0  0  0  0  0  0  0  0  0  0
   26.8729  -20.7285   -9.8241 C   0  0  2  0  0  0  0  0  0  0  0  0
   28.2686  -21.0723   -9.9969 N   0  0  0  0  0  0  0  0  0  0  0  0
   26.1720  -20.8562  -11.0870 C   0  0  0  0  0  0  0  0  0  0  0  0
   26.6871  -20.3541  -12.1159 O   0  0  0  0  0  0  0  0  0  0  0  0
   28.3331  -18.8619   -7.3173 C   0  0  0  0  0  0  0  0  0  0  0  0
   28.7779  -18.9526   -6.0109 C   0  0  0  0  0  0  0  0  0  0  0  0
   25.0203  -25.3171  -14.7481 N   0  0  0  0  0  0  0  0  0  0  0  0
   24.5428  -24.1269  -15.3387 C   0  0  0  0  0  0  0  0  0  0  0  0
   24.6450  -23.9396  -16.5761 O   0  0  0  0  0  0  0  0  0  0  0  0
   23.9146  -23.0835  -14.5046 C   0  0  0  0  0  0  0  0  0  0  0  0
   24.5436  -23.0482  -13.1262 C   0  0  0  0  0  0  0  0  0  0  0  0
   24.3205  -21.6620  -12.5678 C   0  0  2  0  0  0  0  0  0  0  0  0
   24.9223  -21.5175  -11.2607 N   0  0  0  0  0  0  0  0  0  0  0  0
   22.8814  -21.2916  -12.5403 C   0  0  0  0  0  0  0  0  0  0  0  0
   22.2263  -21.3418  -11.4557 O   0  0  0  0  0  0  0  0  0  0  0  0
   22.2110  -20.8759  -13.7197 N   0  0  0  0  0  0  0  0  0  0  0  0
   20.7763  -20.6909  -13.7084 C   0  0  0  0  0  0  0  0  0  0  0  0
   20.4322  -19.2907  -14.0392 C   0  0  0  0  0  0  0  0  0  0  0  0
   21.3113  -18.4967  -14.4607 O   0  0  0  0  0  0  0  0  0  0  0  0
   19.1082  -18.8618  -13.8750 O   0  0  0  0  0  0  0  0  0  0  0  0
  2  3  2  0
  2  1  1  0
  4  3  1  0
  5  4  2  0
  6  5  1  0
  7  6  1  0
  7  9  1  0
  7  8  1  6
  9 19  1  0
  9 10  2  0
 11  5  1  0
 11 12  2  0
 12  2  1  0
 14 15  2  0
 14 13  1  0
 16 14  1  0
 17 16  1  0
 18 17  1  1
 19 18  1  0
 20 18  1  0
 20 21  2  0
 22 20  1  0
 23 22  1  0
 24 23  1  0
 25 24  2  0
 26 24  1  0
M  END
$$$$
