YQG.pdb
     RDKit          3D

 26 26  0  0  1  0  0  0  0  0999 V2000
   28.5779  -20.2987   -3.3364 O   0  0  0  0  0  0  0  0  0  0  0  0
   28.1664  -20.0463   -4.6449 C   0  0  0  0  0  0  0  0  0  0  0  0
   29.0823  -19.4633   -5.4989 C   0  0  0  0  0  0  0  0  0  0  0  0
   28.7499  -19.1799   -6.8177 C   0  0  0  0  0  0  0  0  0  0  0  0
   27.4906  -19.4814   -7.2887 C   0  0  0  0  0  0  0  0  0  0  0  0
   27.0572  -19.2095   -8.6872 C   0  0  0  0  0  0  0  0  0  0  0  0
   26.8768  -20.5415   -9.3550 C   0  0  2  0  0  0  0  0  0  0  0  0
   28.1845  -21.1526   -9.4668 N   0  0  0  0  0  0  0  0  0  0  0  0
   26.2378  -20.4991  -10.6559 C   0  0  0  0  0  0  0  0  0  0  0  0
   26.9330  -20.2083  -11.6600 O   0  0  0  0  0  0  0  0  0  0  0  0
   26.5914  -20.0627   -6.4207 C   0  0  0  0  0  0  0  0  0  0  0  0
   26.9037  -20.3524   -5.1049 C   0  0  0  0  0  0  0  0  0  0  0  0
   25.7164  -23.1017  -15.1751 N   0  0  0  0  0  0  0  0  0  0  0  0
   25.1535  -23.6606  -14.0072 C   0  0  0  0  0  0  0  0  0  0  0  0
   25.0483  -24.9054  -13.8789 O   0  0  0  0  0  0  0  0  0  0  0  0
   24.6798  -22.7845  -12.9177 C   0  0  0  0  0  0  0  0  0  0  0  0
   24.8932  -21.3263  -13.2713 C   0  0  0  0  0  0  0  0  0  0  0  0
   24.2506  -20.5025  -12.1796 C   0  0  2  0  0  0  0  0  0  0  0  0
   24.8588  -20.7655  -10.8941 N   0  0  0  0  0  0  0  0  0  0  0  0
   22.7775  -20.6915  -12.1255 C   0  0  0  0  0  0  0  0  0  0  0  0
   22.2838  -21.7500  -11.6314 O   0  0  0  0  0  0  0  0  0  0  0  0
   21.8944  -19.6983  -12.6223 N   0  0  0  0  0  0  0  0  0  0  0  0
   20.6221  -20.0828  -13.1935 C   0  0  0  0  0  0  0  0  0  0  0  0
   19.7682  -20.7248  -12.1703 C   0  0  0  0  0  0  0  0  0  0  0  0
   20.1729  -21.7336  -11.5384 O   0  0  0  0  0  0  0  0  0  0  0  0
   18.4982  -20.1901  -11.9156 O   0  0  0  0  0  0  0  0  0  0  0  0
  2  3  2  0
  2  1  1  0
  4  3  1  0
  5  4  2  0
  6  5  1  0
  7  6  1  0
  7  9  1  0
  7  8  1  6
  9 19  1  0
  9 10  2  0
 11  5  1  0
 11 12  2  0
 12  2  1  0
 14 15  2  0
 14 13  1  0
 16 14  1  0
 17 16  1  0
 18 17  1  6
 19 18  1  0
 20 18  1  0
 20 21  2  0
 22 20  1  0
 23 22  1  0
 24 23  1  0
 25 24  2  0
 26 24  1  0
M  END
$$$$
