YQG.pdb
     RDKit          3D

 26 26  0  0  1  0  0  0  0  0999 V2000
   32.9731  -10.3040  -19.0148 O   0  0  0  0  0  0  0  0  0  0  0  0
   31.9615   -9.3593  -18.8431 C   0  0  0  0  0  0  0  0  0  0  0  0
   32.2212   -8.0666  -19.2552 C   0  0  0  0  0  0  0  0  0  0  0  0
   31.2657   -7.0676  -19.1185 C   0  0  0  0  0  0  0  0  0  0  0  0
   30.0386   -7.3617  -18.5650 C   0  0  0  0  0  0  0  0  0  0  0  0
   28.9624   -6.3484  -18.3843 C   0  0  0  0  0  0  0  0  0  0  0  0
   27.9089   -6.6426  -19.4121 C   0  0  2  0  0  0  0  0  0  0  0  0
   28.3751   -6.1131  -20.6764 N   0  0  0  0  0  0  0  0  0  0  0  0
   26.5902   -6.1194  -19.1127 C   0  0  0  0  0  0  0  0  0  0  0  0
   26.2719   -4.9921  -19.5645 O   0  0  0  0  0  0  0  0  0  0  0  0
   29.7993   -8.6574  -18.1602 C   0  0  0  0  0  0  0  0  0  0  0  0
   30.7377   -9.6653  -18.2879 C   0  0  0  0  0  0  0  0  0  0  0  0
   21.2142   -8.4996  -20.1213 N   0  0  0  0  0  0  0  0  0  0  0  0
   20.8879   -7.2501  -19.5506 C   0  0  0  0  0  0  0  0  0  0  0  0
   19.7215   -6.7924  -19.6341 O   0  0  0  0  0  0  0  0  0  0  0  0
   21.9187   -6.4631  -18.8456 C   0  0  0  0  0  0  0  0  0  0  0  0
   23.2588   -7.1690  -18.8947 C   0  0  0  0  0  0  0  0  0  0  0  0
   24.2617   -6.2737  -18.2046 C   0  0  2  0  0  0  0  0  0  0  0  0
   25.6059   -6.7917  -18.3327 N   0  0  0  0  0  0  0  0  0  0  0  0
   23.9130   -6.0315  -16.7804 C   0  0  0  0  0  0  0  0  0  0  0  0
   24.2781   -6.8488  -15.8821 O   0  0  0  0  0  0  0  0  0  0  0  0
   23.1680   -4.8872  -16.3947 N   0  0  0  0  0  0  0  0  0  0  0  0
   22.8071   -4.6937  -15.0072 C   0  0  0  0  0  0  0  0  0  0  0  0
   21.6982   -5.5971  -14.6299 C   0  0  0  0  0  0  0  0  0  0  0  0
   21.1578   -6.3418  -15.4867 O   0  0  0  0  0  0  0  0  0  0  0  0
   21.2582   -5.6102  -13.2994 O   0  0  0  0  0  0  0  0  0  0  0  0
  2  3  2  0
  2  1  1  0
  4  3  1  0
  5  4  2  0
  6  5  1  0
  7  6  1  0
  7  9  1  0
  7  8  1  6
  9 19  1  0
  9 10  2  0
 11  5  1  0
 11 12  2  0
 12  2  1  0
 14 15  2  0
 14 13  1  0
 16 14  1  0
 17 16  1  0
 18 17  1  1
 19 18  1  0
 20 18  1  0
 20 21  2  0
 22 20  1  0
 23 22  1  0
 24 23  1  0
 25 24  2  0
 26 24  1  0
M  END
$$$$
