CWT.pdb
     RDKit          3D

 28 29  0  0  1  0  0  0  0  0999 V2000
   28.5652  -22.2159  -15.6590 N   0  0  0  0  0  0  0  0  0  0  0  0
   28.5397  -21.0222  -14.8251 C   0  0  1  0  0  0  0  0  0  0  0  0
   28.1464  -19.8639  -15.7401 C   0  0  0  0  0  0  0  0  0  0  0  0
   28.0478  -18.3065  -14.8239 S   0  0  0  0  0  0  0  0  0  0  0  0
   27.5641  -21.2379  -13.7346 C   0  0  0  0  0  0  0  0  0  0  0  0
   26.4550  -21.7391  -13.9962 O   0  0  0  0  0  0  0  0  0  0  0  0
   27.9159  -20.8695  -12.4236 N   0  0  0  0  0  0  0  0  0  0  0  0
   27.0484  -21.0013  -11.2933 C   0  0  1  0  0  0  0  0  0  0  0  0
   27.8204  -20.9521  -10.0290 C   0  0  0  0  0  0  0  0  0  0  0  0
   27.0411  -20.8536   -8.7927 C   0  0  0  0  0  0  0  0  0  0  0  0
   25.6680  -21.0874   -8.6371 C   0  0  0  0  0  0  0  0  0  0  0  0
   25.3292  -20.8231   -7.3663 N   0  0  0  0  0  0  0  0  0  0  0  0
   26.4258  -20.4252   -6.6812 C   0  0  0  0  0  0  0  0  0  0  0  0
   26.6133  -20.0842   -5.3550 C   0  0  0  0  0  0  0  0  0  0  0  0
   27.8771  -19.7492   -4.8630 C   0  0  0  0  0  0  0  0  0  0  0  0
   28.9463  -19.7651   -5.7383 C   0  0  0  0  0  0  0  0  0  0  0  0
   28.7245  -20.1053   -7.0429 C   0  0  0  0  0  0  0  0  0  0  0  0
   27.4893  -20.4429   -7.5664 C   0  0  0  0  0  0  0  0  0  0  0  0
   25.8063  -20.2483  -11.4162 C   0  0  0  0  0  0  0  0  0  0  0  0
   25.8174  -18.9694  -11.4828 O   0  0  0  0  0  0  0  0  0  0  0  0
   23.9995  -19.5474  -14.0706 C   0  0  0  0  0  0  0  0  0  0  0  0
   22.9776  -20.2066  -13.1834 C   0  0  1  0  0  0  0  0  0  0  0  0
   22.9002  -21.5756  -13.5344 O   0  0  0  0  0  0  0  0  0  0  0  0
   23.3119  -20.0564  -11.7390 C   0  0  2  0  0  0  0  0  0  0  0  0
   24.5220  -20.8622  -11.4571 N   0  0  0  0  0  0  0  0  0  0  0  0
   22.1961  -20.6847  -10.9368 C   0  0  0  0  0  0  0  0  0  0  0  0
   22.4023  -21.7397  -10.3500 O   0  0  0  0  0  0  0  0  0  0  0  0
   20.9902  -20.0363  -10.9036 O   0  0  0  0  0  0  0  0  0  0  0  0
  2  1  1  6
  2  3  1  0
  4  3  1  0
  5  2  1  0
  5  6  2  0
  7  5  1  0
  8  7  1  0
  8  9  1  1
 10  9  1  0
 10 18  1  0
 11 12  1  0
 11 10  2  0
 12 13  1  0
 13 18  2  0
 13 14  1  0
 14 15  2  0
 15 16  1  0
 17 16  2  0
 18 17  1  0
 19  8  1  0
 19 20  2  0
 22 21  1  6
 23 22  1  0
 24 25  1  6
 24 22  1  0
 25 19  1  0
 26 24  1  0
 27 26  2  0
 28 26  1  0
M  END
$$$$
