CWT.pdb
     RDKit          3D

 28 29  0  0  1  0  0  0  0  0999 V2000
   28.6703  -21.9883  -15.3664 N   0  0  0  0  0  0  0  0  0  0  0  0
   28.6332  -20.8268  -14.4886 C   0  0  1  0  0  0  0  0  0  0  0  0
   28.2112  -19.6424  -15.3563 C   0  0  0  0  0  0  0  0  0  0  0  0
   28.1780  -18.1061  -14.4006 S   0  0  0  0  0  0  0  0  0  0  0  0
   27.6724  -21.0993  -13.3976 C   0  0  0  0  0  0  0  0  0  0  0  0
   26.5808  -21.6354  -13.6634 O   0  0  0  0  0  0  0  0  0  0  0  0
   28.0181  -20.7441  -12.0814 N   0  0  0  0  0  0  0  0  0  0  0  0
   27.1370  -20.8643  -10.9605 C   0  0  1  0  0  0  0  0  0  0  0  0
   27.8832  -20.7257   -9.6873 C   0  0  0  0  0  0  0  0  0  0  0  0
   27.0853  -20.7399   -8.4590 C   0  0  0  0  0  0  0  0  0  0  0  0
   25.7281  -21.0669   -8.3355 C   0  0  0  0  0  0  0  0  0  0  0  0
   25.3589  -20.8901   -7.0580 N   0  0  0  0  0  0  0  0  0  0  0  0
   26.4203  -20.4602   -6.3377 C   0  0  0  0  0  0  0  0  0  0  0  0
   26.5708  -20.1768   -4.9933 C   0  0  0  0  0  0  0  0  0  0  0  0
   27.8052  -19.7892   -4.4667 C   0  0  0  0  0  0  0  0  0  0  0  0
   28.8831  -19.6930   -5.3260 C   0  0  0  0  0  0  0  0  0  0  0  0
   28.6981  -19.9789   -6.6493 C   0  0  0  0  0  0  0  0  0  0  0  0
   27.4927  -20.3657   -7.2071 C   0  0  0  0  0  0  0  0  0  0  0  0
   25.8658  -20.1730  -11.1368 C   0  0  0  0  0  0  0  0  0  0  0  0
   25.8083  -18.8936  -11.1354 O   0  0  0  0  0  0  0  0  0  0  0  0
   23.9383  -19.8442  -14.0479 C   0  0  0  0  0  0  0  0  0  0  0  0
   22.9994  -20.4395  -13.0330 C   0  0  1  0  0  0  0  0  0  0  0  0
   22.9818  -21.8435  -13.2124 O   0  0  0  0  0  0  0  0  0  0  0  0
   23.3947  -20.0968  -11.6377 C   0  0  2  0  0  0  0  0  0  0  0  0
   24.6252  -20.8513  -11.3060 N   0  0  0  0  0  0  0  0  0  0  0  0
   22.3223  -20.6190  -10.7101 C   0  0  0  0  0  0  0  0  0  0  0  0
   22.5881  -21.5390   -9.9466 O   0  0  0  0  0  0  0  0  0  0  0  0
   21.0865  -20.0314  -10.7679 O   0  0  0  0  0  0  0  0  0  0  0  0
  2  1  1  6
  2  3  1  0
  4  3  1  0
  5  2  1  0
  5  6  2  0
  7  5  1  0
  8  7  1  0
  8  9  1  1
 10  9  1  0
 10 18  1  0
 11 12  1  0
 11 10  2  0
 12 13  1  0
 13 18  2  0
 13 14  1  0
 14 15  2  0
 15 16  1  0
 17 16  2  0
 18 17  1  0
 19  8  1  0
 19 20  2  0
 22 21  1  6
 23 22  1  0
 24 25  1  1
 24 22  1  0
 25 19  1  0
 26 24  1  0
 27 26  2  0
 28 26  1  0
M  END
$$$$
