CWT.pdb
     RDKit          3D

 28 29  0  0  1  0  0  0  0  0999 V2000
   28.5026  -23.1119  -15.7195 N   0  0  0  0  0  0  0  0  0  0  0  0
   27.7639  -21.8576  -15.6716 C   0  0  1  0  0  0  0  0  0  0  0  0
   26.9458  -21.7883  -16.9599 C   0  0  0  0  0  0  0  0  0  0  0  0
   28.0038  -21.4773  -18.3946 S   0  0  0  0  0  0  0  0  0  0  0  0
   26.9137  -21.8650  -14.4614 C   0  0  0  0  0  0  0  0  0  0  0  0
   26.4006  -22.9334  -14.0806 O   0  0  0  0  0  0  0  0  0  0  0  0
   26.7055  -20.6590  -13.7684 N   0  0  0  0  0  0  0  0  0  0  0  0
   25.8258  -20.5190  -12.6486 C   0  0  1  0  0  0  0  0  0  0  0  0
   26.4242  -19.6403  -11.6158 C   0  0  0  0  0  0  0  0  0  0  0  0
   27.4616  -20.2385  -10.7723 C   0  0  0  0  0  0  0  0  0  0  0  0
   28.6179  -20.9061  -11.1985 C   0  0  0  0  0  0  0  0  0  0  0  0
   29.2708  -21.3642  -10.1199 N   0  0  0  0  0  0  0  0  0  0  0  0
   28.5890  -21.0235   -9.0022 C   0  0  0  0  0  0  0  0  0  0  0  0
   28.8572  -21.2194   -7.6606 C   0  0  0  0  0  0  0  0  0  0  0  0
   28.0085  -20.7198   -6.6699 C   0  0  0  0  0  0  0  0  0  0  0  0
   26.8837  -20.0197   -7.0626 C   0  0  0  0  0  0  0  0  0  0  0  0
   26.6484  -19.8463   -8.3973 C   0  0  0  0  0  0  0  0  0  0  0  0
   27.4648  -20.3252   -9.4064 C   0  0  0  0  0  0  0  0  0  0  0  0
   24.4255  -20.3553  -13.0195 C   0  0  0  0  0  0  0  0  0  0  0  0
   24.0433  -19.3490  -13.7133 O   0  0  0  0  0  0  0  0  0  0  0  0
   20.1117  -22.2332  -14.1850 C   0  0  0  0  0  0  0  0  0  0  0  0
   21.5750  -22.2779  -13.8348 C   0  0  1  0  0  0  0  0  0  0  0  0
   22.3161  -22.4051  -15.0340 O   0  0  0  0  0  0  0  0  0  0  0  0
   22.0063  -21.0671  -13.0809 C   0  0  2  0  0  0  0  0  0  0  0  0
   23.4044  -21.2711  -12.6369 N   0  0  0  0  0  0  0  0  0  0  0  0
   21.1762  -20.9850  -11.8210 C   0  0  0  0  0  0  0  0  0  0  0  0
   21.7029  -21.2237  -10.7413 O   0  0  0  0  0  0  0  0  0  0  0  0
   19.8560  -20.6432  -11.9473 O   0  0  0  0  0  0  0  0  0  0  0  0
  2  1  1  6
  2  3  1  0
  4  3  1  0
  5  2  1  0
  5  6  2  0
  7  5  1  0
  8  7  1  0
  8  9  1  6
 10  9  1  0
 10 18  1  0
 11 12  1  0
 11 10  2  0
 12 13  1  0
 13 18  2  0
 13 14  1  0
 14 15  2  0
 15 16  1  0
 17 16  2  0
 18 17  1  0
 19  8  1  0
 19 20  2  0
 22 21  1  6
 23 22  1  0
 24 25  1  1
 24 22  1  0
 25 19  1  0
 26 24  1  0
 27 26  2  0
 28 26  1  0
M  END
$$$$
