CWT.pdb
     RDKit          3D

 28 29  0  0  1  0  0  0  0  0999 V2000
   19.5596  -12.5230  -15.4919 N   0  0  0  0  0  0  0  0  0  0  0  0
   19.3078  -11.2594  -16.1708 C   0  0  1  0  0  0  0  0  0  0  0  0
   17.9292  -10.7887  -15.7108 C   0  0  0  0  0  0  0  0  0  0  0  0
   16.6187  -11.8471  -16.3718 S   0  0  0  0  0  0  0  0  0  0  0  0
   20.3814  -10.3115  -15.8016 C   0  0  0  0  0  0  0  0  0  0  0  0
   20.8702  -10.3560  -14.6576 O   0  0  0  0  0  0  0  0  0  0  0  0
   20.8247   -9.3793  -16.7569 N   0  0  0  0  0  0  0  0  0  0  0  0
   21.9623   -8.5295  -16.5805 C   0  0  1  0  0  0  0  0  0  0  0  0
   22.9994   -8.8203  -17.5988 C   0  0  0  0  0  0  0  0  0  0  0  0
   23.6499  -10.1298  -17.5112 C   0  0  0  0  0  0  0  0  0  0  0  0
   23.2477  -11.3179  -18.1363 C   0  0  0  0  0  0  0  0  0  0  0  0
   24.0673  -12.3060  -17.7474 N   0  0  0  0  0  0  0  0  0  0  0  0
   24.9922  -11.8135  -16.8916 C   0  0  0  0  0  0  0  0  0  0  0  0
   26.0661  -12.4034  -16.2522 C   0  0  0  0  0  0  0  0  0  0  0  0
   26.9253  -11.6598  -15.4396 C   0  0  0  0  0  0  0  0  0  0  0  0
   26.6765  -10.3092  -15.2860 C   0  0  0  0  0  0  0  0  0  0  0  0
   25.6051   -9.7592  -15.9315 C   0  0  0  0  0  0  0  0  0  0  0  0
   24.7332  -10.4622  -16.7436 C   0  0  0  0  0  0  0  0  0  0  0  0
   21.6193   -7.1478  -16.2666 C   0  0  0  0  0  0  0  0  0  0  0  0
   21.0943   -6.3843  -17.1507 O   0  0  0  0  0  0  0  0  0  0  0  0
   19.1763   -5.7791  -13.8631 C   0  0  0  0  0  0  0  0  0  0  0  0
   20.5162   -5.1742  -13.5395 C   0  0  1  0  0  0  0  0  0  0  0  0
   21.0926   -5.9112  -12.4774 O   0  0  0  0  0  0  0  0  0  0  0  0
   21.4246   -5.1641  -14.7207 C   0  0  2  0  0  0  0  0  0  0  0  0
   21.8485   -6.5571  -14.9913 N   0  0  0  0  0  0  0  0  0  0  0  0
   22.6783   -4.4138  -14.3354 C   0  0  0  0  0  0  0  0  0  0  0  0
   23.7296   -5.0299  -14.2117 O   0  0  0  0  0  0  0  0  0  0  0  0
   22.5788   -3.0620  -14.1395 O   0  0  0  0  0  0  0  0  0  0  0  0
  2  1  1  1
  2  3  1  0
  4  3  1  0
  5  2  1  0
  5  6  2  0
  7  5  1  0
  8  7  1  0
  8  9  1  6
 10  9  1  0
 10 18  1  0
 11 12  1  0
 11 10  2  0
 12 13  1  0
 13 18  2  0
 13 14  1  0
 14 15  2  0
 15 16  1  0
 17 16  2  0
 18 17  1  0
 19  8  1  0
 19 20  2  0
 22 21  1  6
 23 22  1  0
 24 25  1  1
 24 22  1  0
 25 19  1  0
 26 24  1  0
 27 26  2  0
 28 26  1  0
M  END
$$$$
