CWT.pdb
     RDKit          3D

 28 29  0  0  1  0  0  0  0  0999 V2000
   27.7609  -20.1262  -17.0430 N   0  0  0  0  0  0  0  0  0  0  0  0
   26.9180  -20.6665  -15.9855 C   0  0  1  0  0  0  0  0  0  0  0  0
   27.7631  -20.6595  -14.7129 C   0  0  0  0  0  0  0  0  0  0  0  0
   29.0639  -21.9156  -14.7806 S   0  0  0  0  0  0  0  0  0  0  0  0
   25.7143  -19.8149  -15.8698 C   0  0  0  0  0  0  0  0  0  0  0  0
   25.8464  -18.5881  -15.7043 O   0  0  0  0  0  0  0  0  0  0  0  0
   24.4451  -20.4154  -15.9500 N   0  0  0  0  0  0  0  0  0  0  0  0
   23.2108  -19.6966  -15.8657 C   0  0  1  0  0  0  0  0  0  0  0  0
   22.7437  -19.2929  -17.2133 C   0  0  0  0  0  0  0  0  0  0  0  0
   21.5335  -18.4693  -17.2642 C   0  0  0  0  0  0  0  0  0  0  0  0
   21.3779  -17.1632  -16.7805 C   0  0  0  0  0  0  0  0  0  0  0  0
   20.1016  -16.7898  -16.9565 N   0  0  0  0  0  0  0  0  0  0  0  0
   19.4129  -17.7993  -17.5370 C   0  0  0  0  0  0  0  0  0  0  0  0
   18.1001  -17.9001  -17.9575 C   0  0  0  0  0  0  0  0  0  0  0  0
   17.6264  -19.0527  -18.5888 C   0  0  0  0  0  0  0  0  0  0  0  0
   18.5055  -20.1006  -18.7854 C   0  0  0  0  0  0  0  0  0  0  0  0
   19.7957  -19.9674  -18.3556 C   0  0  0  0  0  0  0  0  0  0  0  0
   20.3011  -18.8431  -17.7277 C   0  0  0  0  0  0  0  0  0  0  0  0
   22.2674  -20.2611  -14.9084 C   0  0  0  0  0  0  0  0  0  0  0  0
   22.1025  -21.5279  -14.8179 O   0  0  0  0  0  0  0  0  0  0  0  0
   19.1657  -19.6234  -11.0719 C   0  0  0  0  0  0  0  0  0  0  0  0
   20.3123  -19.1868  -11.9440 C   0  0  1  0  0  0  0  0  0  0  0  0
   21.4811  -19.1303  -11.1475 O   0  0  0  0  0  0  0  0  0  0  0  0
   20.5139  -20.1029  -13.1019 C   0  0  2  0  0  0  0  0  0  0  0  0
   21.4712  -19.4661  -14.0355 N   0  0  0  0  0  0  0  0  0  0  0  0
   19.2045  -20.2007  -13.8496 C   0  0  0  0  0  0  0  0  0  0  0  0
   18.9025  -19.3193  -14.6445 O   0  0  0  0  0  0  0  0  0  0  0  0
   18.4059  -21.2848  -13.5995 O   0  0  0  0  0  0  0  0  0  0  0  0
  2  1  1  6
  2  3  1  0
  4  3  1  0
  5  2  1  0
  5  6  2  0
  7  5  1  0
  8  7  1  0
  8  9  1  6
 10  9  1  0
 10 18  1  0
 11 12  1  0
 11 10  2  0
 12 13  1  0
 13 18  2  0
 13 14  1  0
 14 15  2  0
 15 16  1  0
 17 16  2  0
 18 17  1  0
 19  8  1  0
 19 20  2  0
 22 21  1  1
 23 22  1  0
 24 25  1  6
 24 22  1  0
 25 19  1  0
 26 24  1  0
 27 26  2  0
 28 26  1  0
M  END
$$$$
