CWT.pdb
     RDKit          3D

 28 29  0  0  1  0  0  0  0  0999 V2000
   28.8575  -20.3731  -12.4286 N   0  0  0  0  0  0  0  0  0  0  0  0
   27.6819  -21.0127  -11.8543 C   0  0  1  0  0  0  0  0  0  0  0  0
   27.7558  -20.7791  -10.3465 C   0  0  0  0  0  0  0  0  0  0  0  0
   29.1737  -21.6348   -9.6173 S   0  0  0  0  0  0  0  0  0  0  0  0
   26.4784  -20.4050  -12.4626 C   0  0  0  0  0  0  0  0  0  0  0  0
   26.2228  -19.2060  -12.2464 O   0  0  0  0  0  0  0  0  0  0  0  0
   25.6495  -21.2010  -13.2733 N   0  0  0  0  0  0  0  0  0  0  0  0
   24.4729  -20.7221  -13.9319 C   0  0  1  0  0  0  0  0  0  0  0  0
   24.6448  -20.7515  -15.4038 C   0  0  0  0  0  0  0  0  0  0  0  0
   23.5502  -20.1908  -16.1994 C   0  0  0  0  0  0  0  0  0  0  0  0
   23.2184  -18.8372  -16.3469 C   0  0  0  0  0  0  0  0  0  0  0  0
   22.1116  -18.7463  -17.0992 N   0  0  0  0  0  0  0  0  0  0  0  0
   21.7035  -19.9871  -17.4519 C   0  0  0  0  0  0  0  0  0  0  0  0
   20.6584  -20.4260  -18.2427 C   0  0  0  0  0  0  0  0  0  0  0  0
   20.4680  -21.7846  -18.5061 C   0  0  0  0  0  0  0  0  0  0  0  0
   21.3542  -22.6896  -17.9537 C   0  0  0  0  0  0  0  0  0  0  0  0
   22.3749  -22.2210  -17.1756 C   0  0  0  0  0  0  0  0  0  0  0  0
   22.5958  -20.8849  -16.8927 C   0  0  0  0  0  0  0  0  0  0  0  0
   23.2314  -21.1996  -13.3355 C   0  0  0  0  0  0  0  0  0  0  0  0
   23.1081  -22.4187  -12.9629 O   0  0  0  0  0  0  0  0  0  0  0  0
   21.6676  -20.7459  -10.2082 C   0  0  0  0  0  0  0  0  0  0  0  0
   20.6466  -20.2883  -11.2153 C   0  0  1  0  0  0  0  0  0  0  0  0
   20.7271  -18.8792  -11.3220 O   0  0  0  0  0  0  0  0  0  0  0  0
   20.8511  -20.9248  -12.5470 C   0  0  2  0  0  0  0  0  0  0  0  0
   22.0899  -20.3709  -13.1402 N   0  0  0  0  0  0  0  0  0  0  0  0
   19.7228  -20.4840  -13.4501 C   0  0  0  0  0  0  0  0  0  0  0  0
   19.9561  -19.6939  -14.3564 O   0  0  0  0  0  0  0  0  0  0  0  0
   18.4752  -20.9952  -13.2093 O   0  0  0  0  0  0  0  0  0  0  0  0
  2  1  1  6
  2  3  1  0
  4  3  1  0
  5  2  1  0
  5  6  2  0
  7  5  1  0
  8  7  1  0
  8  9  1  6
 10  9  1  0
 10 18  1  0
 11 12  1  0
 11 10  2  0
 12 13  1  0
 13 18  2  0
 13 14  1  0
 14 15  2  0
 15 16  1  0
 17 16  2  0
 18 17  1  0
 19  8  1  0
 19 20  2  0
 22 21  1  1
 23 22  1  0
 24 25  1  6
 24 22  1  0
 25 19  1  0
 26 24  1  0
 27 26  2  0
 28 26  1  0
M  END
$$$$
