CWT.pdb
     RDKit          3D

 28 29  0  0  1  0  0  0  0  0999 V2000
   27.8403  -24.5193  -16.5964 N   0  0  0  0  0  0  0  0  0  0  0  0
   27.1912  -23.2625  -16.9431 C   0  0  1  0  0  0  0  0  0  0  0  0
   26.5975  -23.4529  -18.3377 C   0  0  0  0  0  0  0  0  0  0  0  0
   27.8857  -23.4382  -19.6083 S   0  0  0  0  0  0  0  0  0  0  0  0
   26.1591  -22.9757  -15.9232 C   0  0  0  0  0  0  0  0  0  0  0  0
   25.7051  -23.9073  -15.2335 O   0  0  0  0  0  0  0  0  0  0  0  0
   25.7148  -21.6516  -15.7579 N   0  0  0  0  0  0  0  0  0  0  0  0
   24.8048  -21.2326  -14.7363 C   0  0  1  0  0  0  0  0  0  0  0  0
   25.3085  -20.0204  -14.0478 C   0  0  0  0  0  0  0  0  0  0  0  0
   26.4292  -20.2133  -13.1245 C   0  0  0  0  0  0  0  0  0  0  0  0
   27.7898  -20.2940  -13.4506 C   0  0  0  0  0  0  0  0  0  0  0  0
   28.4851  -20.5433  -12.3308 N   0  0  0  0  0  0  0  0  0  0  0  0
   27.6347  -20.6294  -11.2822 C   0  0  0  0  0  0  0  0  0  0  0  0
   27.8505  -20.8275   -9.9315 C   0  0  0  0  0  0  0  0  0  0  0  0
   26.7924  -20.8267   -9.0194 C   0  0  0  0  0  0  0  0  0  0  0  0
   25.5130  -20.6226   -9.5000 C   0  0  0  0  0  0  0  0  0  0  0  0
   25.3360  -20.4317  -10.8413 C   0  0  0  0  0  0  0  0  0  0  0  0
   26.3575  -20.4255  -11.7743 C   0  0  0  0  0  0  0  0  0  0  0  0
   23.4033  -21.3160  -15.1288 C   0  0  0  0  0  0  0  0  0  0  0  0
   23.0174  -20.9028  -16.2779 O   0  0  0  0  0  0  0  0  0  0  0  0
   18.9562  -23.3561  -14.4673 C   0  0  0  0  0  0  0  0  0  0  0  0
   20.4476  -23.2662  -14.2839 C   0  0  1  0  0  0  0  0  0  0  0  0
   21.0471  -24.3455  -14.9762 O   0  0  0  0  0  0  0  0  0  0  0  0
   20.9930  -21.9674  -14.7697 C   0  0  2  0  0  0  0  0  0  0  0  0
   22.3849  -21.8373  -14.2809 N   0  0  0  0  0  0  0  0  0  0  0  0
   20.2118  -20.8582  -14.1043 C   0  0  0  0  0  0  0  0  0  0  0  0
   20.7474  -20.1930  -13.2265 O   0  0  0  0  0  0  0  0  0  0  0  0
   18.9240  -20.6463  -14.5195 O   0  0  0  0  0  0  0  0  0  0  0  0
  2  1  1  1
  2  3  1  0
  4  3  1  0
  5  2  1  0
  5  6  2  0
  7  5  1  0
  8  7  1  0
  8  9  1  6
 10  9  1  0
 10 18  1  0
 11 12  1  0
 11 10  2  0
 12 13  1  0
 13 18  2  0
 13 14  1  0
 14 15  2  0
 15 16  1  0
 17 16  2  0
 18 17  1  0
 19  8  1  0
 19 20  2  0
 22 21  1  6
 23 22  1  0
 24 25  1  1
 24 22  1  0
 25 19  1  0
 26 24  1  0
 27 26  2  0
 28 26  1  0
M  END
$$$$
