CWT.pdb
     RDKit          3D

 28 29  0  0  1  0  0  0  0  0999 V2000
   26.9768  -23.8634  -16.1740 N   0  0  0  0  0  0  0  0  0  0  0  0
   26.0306  -22.8152  -16.5303 C   0  0  1  0  0  0  0  0  0  0  0  0
   25.4650  -23.1902  -17.8990 C   0  0  0  0  0  0  0  0  0  0  0  0
   26.0360  -22.0485  -19.1815 S   0  0  0  0  0  0  0  0  0  0  0  0
   24.9868  -22.7560  -15.4840 C   0  0  0  0  0  0  0  0  0  0  0  0
   24.7206  -23.7792  -14.8268 O   0  0  0  0  0  0  0  0  0  0  0  0
   24.3185  -21.5395  -15.2572 N   0  0  0  0  0  0  0  0  0  0  0  0
   23.2784  -21.3639  -14.2903 C   0  0  1  0  0  0  0  0  0  0  0  0
   23.5439  -20.1784  -13.4412 C   0  0  0  0  0  0  0  0  0  0  0  0
   24.6041  -20.3176  -12.4402 C   0  0  0  0  0  0  0  0  0  0  0  0
   25.9871  -20.2533  -12.6579 C   0  0  0  0  0  0  0  0  0  0  0  0
   26.6157  -20.4991  -11.4986 N   0  0  0  0  0  0  0  0  0  0  0  0
   25.6999  -20.7222  -10.5281 C   0  0  0  0  0  0  0  0  0  0  0  0
   25.8300  -20.9746   -9.1755 C   0  0  0  0  0  0  0  0  0  0  0  0
   24.7103  -21.1230   -8.3535 C   0  0  0  0  0  0  0  0  0  0  0  0
   23.4576  -21.0120   -8.9263 C   0  0  0  0  0  0  0  0  0  0  0  0
   23.3660  -20.7637  -10.2668 C   0  0  0  0  0  0  0  0  0  0  0  0
   24.4504  -20.6106  -11.1121 C   0  0  0  0  0  0  0  0  0  0  0  0
   21.9399  -21.5932  -14.8203 C   0  0  0  0  0  0  0  0  0  0  0  0
   21.5159  -20.9413  -15.8378 O   0  0  0  0  0  0  0  0  0  0  0  0
   19.2694  -24.5424  -13.2098 C   0  0  0  0  0  0  0  0  0  0  0  0
   19.3177  -24.1710  -14.6678 C   0  0  1  0  0  0  0  0  0  0  0  0
   18.0479  -24.4321  -15.2360 O   0  0  0  0  0  0  0  0  0  0  0  0
   19.6955  -22.7436  -14.8685 C   0  0  2  0  0  0  0  0  0  0  0  0
   21.0247  -22.5250  -14.2529 N   0  0  0  0  0  0  0  0  0  0  0  0
   18.7263  -21.8921  -14.0818 C   0  0  0  0  0  0  0  0  0  0  0  0
   19.1213  -21.3048  -13.0823 O   0  0  0  0  0  0  0  0  0  0  0  0
   17.4341  -21.8164  -14.5293 O   0  0  0  0  0  0  0  0  0  0  0  0
  2  1  1  1
  2  3  1  0
  4  3  1  0
  5  2  1  0
  5  6  2  0
  7  5  1  0
  8  7  1  0
  8  9  1  6
 10  9  1  0
 10 18  1  0
 11 12  1  0
 11 10  2  0
 12 13  1  0
 13 18  2  0
 13 14  1  0
 14 15  2  0
 15 16  1  0
 17 16  2  0
 18 17  1  0
 19  8  1  0
 19 20  2  0
 22 21  1  1
 23 22  1  0
 24 25  1  1
 24 22  1  0
 25 19  1  0
 26 24  1  0
 27 26  2  0
 28 26  1  0
M  END
$$$$
