CWT.pdb
     RDKit          3D

 28 29  0  0  1  0  0  0  0  0999 V2000
   28.7340  -22.6208  -16.1013 N   0  0  0  0  0  0  0  0  0  0  0  0
   28.6829  -21.3710  -15.3553 C   0  0  1  0  0  0  0  0  0  0  0  0
   28.2764  -20.2882  -16.3533 C   0  0  0  0  0  0  0  0  0  0  0  0
   28.1014  -18.6797  -15.5431 S   0  0  0  0  0  0  0  0  0  0  0  0
   27.7037  -21.5248  -14.2575 C   0  0  0  0  0  0  0  0  0  0  0  0
   26.6144  -22.0836  -14.4831 O   0  0  0  0  0  0  0  0  0  0  0  0
   28.0295  -21.0332  -12.9808 N   0  0  0  0  0  0  0  0  0  0  0  0
   27.1405  -21.0602  -11.8599 C   0  0  1  0  0  0  0  0  0  0  0  0
   27.8769  -20.8106  -10.5980 C   0  0  0  0  0  0  0  0  0  0  0  0
   27.0783  -20.7900   -9.3703 C   0  0  0  0  0  0  0  0  0  0  0  0
   25.6865  -20.9156   -9.2640 C   0  0  0  0  0  0  0  0  0  0  0  0
   25.3403  -20.7752   -7.9757 N   0  0  0  0  0  0  0  0  0  0  0  0
   26.4499  -20.5625   -7.2316 C   0  0  0  0  0  0  0  0  0  0  0  0
   26.6331  -20.4003   -5.8713 C   0  0  0  0  0  0  0  0  0  0  0  0
   27.9087  -20.2420   -5.3242 C   0  0  0  0  0  0  0  0  0  0  0  0
   28.9941  -20.2500   -6.1794 C   0  0  0  0  0  0  0  0  0  0  0  0
   28.7763  -20.4108   -7.5186 C   0  0  0  0  0  0  0  0  0  0  0  0
   27.5298  -20.5706   -8.0969 C   0  0  0  0  0  0  0  0  0  0  0  0
   25.8686  -20.3910  -12.1038 C   0  0  0  0  0  0  0  0  0  0  0  0
   25.8173  -19.1244  -12.2864 O   0  0  0  0  0  0  0  0  0  0  0  0
   23.8440  -20.2830  -14.9257 C   0  0  0  0  0  0  0  0  0  0  0  0
   22.9366  -20.7971  -13.8401 C   0  0  1  0  0  0  0  0  0  0  0  0
   22.9117  -22.2105  -13.9130 O   0  0  0  0  0  0  0  0  0  0  0  0
   23.3757  -20.3521  -12.4876 C   0  0  2  0  0  0  0  0  0  0  0  0
   24.6209  -21.0762  -12.1430 N   0  0  0  0  0  0  0  0  0  0  0  0
   22.3376  -20.8088  -11.4891 C   0  0  0  0  0  0  0  0  0  0  0  0
   22.6268  -21.6858  -10.6846 O   0  0  0  0  0  0  0  0  0  0  0  0
   21.1052  -20.2129  -11.5316 O   0  0  0  0  0  0  0  0  0  0  0  0
  2  1  1  6
  2  3  1  0
  4  3  1  0
  5  2  1  0
  5  6  2  0
  7  5  1  0
  8  7  1  0
  8  9  1  1
 10  9  1  0
 10 18  1  0
 11 12  1  0
 11 10  2  0
 12 13  1  0
 13 18  2  0
 13 14  1  0
 14 15  2  0
 15 16  1  0
 17 16  2  0
 18 17  1  0
 19  8  1  0
 19 20  2  0
 22 21  1  6
 23 22  1  0
 24 25  1  1
 24 22  1  0
 25 19  1  0
 26 24  1  0
 27 26  2  0
 28 26  1  0
M  END
$$$$
