CWT.pdb
     RDKit          3D

 28 29  0  0  1  0  0  0  0  0999 V2000
   28.3179  -21.5963  -15.4877 N   0  0  0  0  0  0  0  0  0  0  0  0
   28.4499  -20.6426  -14.3949 C   0  0  1  0  0  0  0  0  0  0  0  0
   28.0453  -19.2813  -14.9578 C   0  0  0  0  0  0  0  0  0  0  0  0
   28.9183  -18.9224  -16.5017 S   0  0  0  0  0  0  0  0  0  0  0  0
   27.5724  -21.0803  -13.2876 C   0  0  0  0  0  0  0  0  0  0  0  0
   26.4694  -21.5952  -13.5481 O   0  0  0  0  0  0  0  0  0  0  0  0
   28.0086  -20.9027  -11.9624 N   0  0  0  0  0  0  0  0  0  0  0  0
   27.1478  -20.9559  -10.8207 C   0  0  1  0  0  0  0  0  0  0  0  0
   27.9161  -20.7397   -9.5717 C   0  0  0  0  0  0  0  0  0  0  0  0
   27.1348  -20.6149   -8.3390 C   0  0  0  0  0  0  0  0  0  0  0  0
   25.7583  -20.8282   -8.1844 C   0  0  0  0  0  0  0  0  0  0  0  0
   25.4197  -20.5433   -6.9181 N   0  0  0  0  0  0  0  0  0  0  0  0
   26.5197  -20.1516   -6.2349 C   0  0  0  0  0  0  0  0  0  0  0  0
   26.7083  -19.7964   -4.9125 C   0  0  0  0  0  0  0  0  0  0  0  0
   27.9752  -19.4723   -4.4213 C   0  0  0  0  0  0  0  0  0  0  0  0
   29.0464  -19.5137   -5.2932 C   0  0  0  0  0  0  0  0  0  0  0  0
   28.8236  -19.8674   -6.5940 C   0  0  0  0  0  0  0  0  0  0  0  0
   27.5853  -20.1949   -7.1167 C   0  0  0  0  0  0  0  0  0  0  0  0
   25.8720  -20.2780  -11.0158 C   0  0  0  0  0  0  0  0  0  0  0  0
   25.8116  -19.0008  -11.0895 O   0  0  0  0  0  0  0  0  0  0  0  0
   21.8795  -20.2104  -13.5652 C   0  0  0  0  0  0  0  0  0  0  0  0
   23.2313  -20.6303  -13.0530 C   0  0  1  0  0  0  0  0  0  0  0  0
   24.2220  -20.0167  -13.8563 O   0  0  0  0  0  0  0  0  0  0  0  0
   23.4231  -20.2678  -11.6204 C   0  0  2  0  0  0  0  0  0  0  0  0
   24.6303  -20.9668  -11.1231 N   0  0  0  0  0  0  0  0  0  0  0  0
   22.2609  -20.8350  -10.8387 C   0  0  0  0  0  0  0  0  0  0  0  0
   21.2974  -20.1191  -10.5959 O   0  0  0  0  0  0  0  0  0  0  0  0
   22.3410  -22.1406  -10.4327 O   0  0  0  0  0  0  0  0  0  0  0  0
  2  1  1  6
  2  3  1  0
  4  3  1  0
  5  2  1  0
  5  6  2  0
  7  5  1  0
  8  7  1  0
  8  9  1  1
 10  9  1  0
 10 18  1  0
 11 12  1  0
 11 10  2  0
 12 13  1  0
 13 18  2  0
 13 14  1  0
 14 15  2  0
 15 16  1  0
 17 16  2  0
 18 17  1  0
 19  8  1  0
 19 20  2  0
 22 21  1  6
 23 22  1  0
 24 25  1  1
 24 22  1  0
 25 19  1  0
 26 24  1  0
 27 26  2  0
 28 26  1  0
M  END
$$$$
