CWT.pdb
     RDKit          3D

 28 29  0  0  1  0  0  0  0  0999 V2000
   28.5396  -21.8406  -14.9442 N   0  0  0  0  0  0  0  0  0  0  0  0
   27.8111  -20.6996  -14.4071 C   0  0  1  0  0  0  0  0  0  0  0  0
   27.2324  -19.9523  -15.6072 C   0  0  0  0  0  0  0  0  0  0  0  0
   26.1674  -18.5874  -15.0805 S   0  0  0  0  0  0  0  0  0  0  0  0
   26.7615  -21.2055  -13.4960 C   0  0  0  0  0  0  0  0  0  0  0  0
   26.1622  -22.2595  -13.7785 O   0  0  0  0  0  0  0  0  0  0  0  0
   26.4657  -20.4795  -12.3283 N   0  0  0  0  0  0  0  0  0  0  0  0
   25.4205  -20.8229  -11.4135 C   0  0  1  0  0  0  0  0  0  0  0  0
   25.7520  -20.3700  -10.0416 C   0  0  0  0  0  0  0  0  0  0  0  0
   27.0683  -20.7559   -9.5279 C   0  0  0  0  0  0  0  0  0  0  0  0
   28.0074  -21.5908  -10.1486 C   0  0  0  0  0  0  0  0  0  0  0  0
   29.0523  -21.7495   -9.3226 N   0  0  0  0  0  0  0  0  0  0  0  0
   28.8366  -21.0514   -8.1840 C   0  0  0  0  0  0  0  0  0  0  0  0
   29.6138  -20.8582   -7.0575 C   0  0  0  0  0  0  0  0  0  0  0  0
   29.1859  -20.0358   -6.0125 C   0  0  0  0  0  0  0  0  0  0  0  0
   27.9573  -19.4141   -6.1289 C   0  0  0  0  0  0  0  0  0  0  0  0
   27.2146  -19.6287   -7.2555 C   0  0  0  0  0  0  0  0  0  0  0  0
   27.6043  -20.4348   -8.3101 C   0  0  0  0  0  0  0  0  0  0  0  0
   24.0806  -20.6077  -11.9461 C   0  0  0  0  0  0  0  0  0  0  0  0
   23.5615  -19.4371  -11.9646 O   0  0  0  0  0  0  0  0  0  0  0  0
   21.8459  -23.7507  -13.8180 C   0  0  0  0  0  0  0  0  0  0  0  0
   21.8983  -22.3330  -14.3211 C   0  0  1  0  0  0  0  0  0  0  0  0
   20.7237  -22.0828  -15.0703 O   0  0  0  0  0  0  0  0  0  0  0  0
   22.0269  -21.3498  -13.2088 C   0  0  2  0  0  0  0  0  0  0  0  0
   23.2668  -21.6574  -12.4594 N   0  0  0  0  0  0  0  0  0  0  0  0
   20.8873  -21.5874  -12.2454 C   0  0  0  0  0  0  0  0  0  0  0  0
   19.7484  -21.2867  -12.5806 O   0  0  0  0  0  0  0  0  0  0  0  0
   21.1857  -22.1350  -11.0261 O   0  0  0  0  0  0  0  0  0  0  0  0
  2  1  1  6
  2  3  1  0
  4  3  1  0
  5  2  1  0
  5  6  2  0
  7  5  1  0
  8  7  1  0
  8  9  1  1
 10  9  1  0
 10 18  1  0
 11 12  1  0
 11 10  2  0
 12 13  1  0
 13 18  2  0
 13 14  1  0
 14 15  2  0
 15 16  1  0
 17 16  2  0
 18 17  1  0
 19  8  1  0
 19 20  2  0
 22 21  1  1
 23 22  1  0
 24 25  1  1
 24 22  1  0
 25 19  1  0
 26 24  1  0
 27 26  2  0
 28 26  1  0
M  END
$$$$
