CWT.pdb
     RDKit          3D

 28 29  0  0  1  0  0  0  0  0999 V2000
   21.9754  -20.1061  -10.6183 N   0  0  0  0  0  0  0  0  0  0  0  0
   22.8745  -21.1362  -11.1198 C   0  0  1  0  0  0  0  0  0  0  0  0
   22.3889  -21.4872  -12.5250 C   0  0  0  0  0  0  0  0  0  0  0  0
   21.2330  -22.8790  -12.4926 S   0  0  0  0  0  0  0  0  0  0  0  0
   24.2506  -20.5939  -11.1159 C   0  0  0  0  0  0  0  0  0  0  0  0
   24.4650  -19.4656  -11.5963 O   0  0  0  0  0  0  0  0  0  0  0  0
   25.2868  -21.3705  -10.5672 N   0  0  0  0  0  0  0  0  0  0  0  0
   26.6752  -21.0378  -10.6623 C   0  0  1  0  0  0  0  0  0  0  0  0
   27.4048  -21.4716   -9.4472 C   0  0  0  0  0  0  0  0  0  0  0  0
   27.2798  -20.6101   -8.2692 C   0  0  0  0  0  0  0  0  0  0  0  0
   26.4343  -19.5029   -8.1166 C   0  0  0  0  0  0  0  0  0  0  0  0
   26.6703  -18.9446   -6.9200 N   0  0  0  0  0  0  0  0  0  0  0  0
   27.6376  -19.6417   -6.2806 C   0  0  0  0  0  0  0  0  0  0  0  0
   28.2022  -19.5014   -5.0268 C   0  0  0  0  0  0  0  0  0  0  0  0
   29.1698  -20.3954   -4.5621 C   0  0  0  0  0  0  0  0  0  0  0  0
   29.5553  -21.4325   -5.3900 C   0  0  0  0  0  0  0  0  0  0  0  0
   28.9777  -21.5400   -6.6236 C   0  0  0  0  0  0  0  0  0  0  0  0
   28.0174  -20.6757   -7.1181 C   0  0  0  0  0  0  0  0  0  0  0  0
   27.2482  -21.2825  -11.9803 C   0  0  0  0  0  0  0  0  0  0  0  0
   27.9522  -22.3281  -12.2065 O   0  0  0  0  0  0  0  0  0  0  0  0
   25.2083  -19.8326  -15.1547 C   0  0  0  0  0  0  0  0  0  0  0  0
   26.0681  -21.0682  -15.1572 C   0  0  1  0  0  0  0  0  0  0  0  0
   26.2852  -21.4569  -16.5008 O   0  0  0  0  0  0  0  0  0  0  0  0
   27.3673  -20.8462  -14.4619 C   0  0  2  0  0  0  0  0  0  0  0  0
   27.0824  -20.3940  -13.0807 N   0  0  0  0  0  0  0  0  0  0  0  0
   28.0666  -19.6927  -15.1427 C   0  0  0  0  0  0  0  0  0  0  0  0
   28.7245  -19.9050  -16.1537 O   0  0  0  0  0  0  0  0  0  0  0  0
   27.9304  -18.4472  -14.5896 O   0  0  0  0  0  0  0  0  0  0  0  0
  2  1  1  6
  2  3  1  0
  4  3  1  0
  5  2  1  0
  5  6  2  0
  7  5  1  0
  8  7  1  0
  8  9  1  1
 10  9  1  0
 10 18  1  0
 11 12  1  0
 11 10  2  0
 12 13  1  0
 13 18  2  0
 13 14  1  0
 14 15  2  0
 15 16  1  0
 17 16  2  0
 18 17  1  0
 19  8  1  0
 19 20  2  0
 22 21  1  6
 23 22  1  0
 24 25  1  1
 24 22  1  0
 25 19  1  0
 26 24  1  0
 27 26  2  0
 28 26  1  0
M  END
$$$$
