HKG.pdb
     RDKit          3D

 24 24  0  0  1  0  0  0  0  0999 V2000
   29.0375  -22.6708  -16.9357 N   0  0  0  0  0  0  0  0  0  0  0  0
   28.0268  -21.9602  -17.6802 C   0  0  1  0  0  0  0  0  0  0  0  0
   26.9277  -22.9448  -17.9949 C   0  0  0  0  0  0  0  0  0  0  0  0
   27.4538  -24.0588  -18.8238 C   0  0  0  0  0  0  0  0  0  0  0  0
   27.3158  -25.4079  -18.6051 C   0  0  0  0  0  0  0  0  0  0  0  0
   27.9411  -26.0946  -19.5920 N   0  0  0  0  0  0  0  0  0  0  0  0
   28.4690  -25.1834  -20.4259 C   0  0  0  0  0  0  0  0  0  0  0  0
   28.1823  -23.9461  -19.9739 N   0  0  0  0  0  0  0  0  0  0  0  0
   27.5602  -20.7329  -17.0224 C   0  0  0  0  0  0  0  0  0  0  0  0
   28.2017  -20.3498  -15.9975 O   0  0  0  0  0  0  0  0  0  0  0  0
   26.4636  -19.9774  -17.4622 N   0  0  0  0  0  0  0  0  0  0  0  0
   26.0876  -18.6794  -16.9278 C   0  0  1  0  0  0  0  0  0  0  0  0
   26.2021  -17.6494  -18.0249 C   0  0  0  0  0  0  0  0  0  0  0  0
   26.7194  -16.3245  -17.5944 C   0  0  0  0  0  0  0  0  0  0  0  0
   26.8625  -15.3138  -18.6903 C   0  0  0  0  0  0  0  0  0  0  0  0
   27.4045  -14.0355  -18.0567 C   0  0  0  0  0  0  0  0  0  0  0  0
   27.5507  -12.9837  -19.0397 N   0  0  0  0  0  0  0  0  0  0  0  0
   24.6246  -18.7590  -16.5962 C   0  0  0  0  0  0  0  0  0  0  0  0
   23.7588  -19.1010  -17.4423 O   0  0  0  0  0  0  0  0  0  0  0  0
   24.1411  -18.4488  -15.2979 N   0  0  0  0  0  0  0  0  0  0  0  0
   22.7192  -18.5601  -14.9687 C   0  0  0  0  0  0  0  0  0  0  0  0
   22.3576  -19.9254  -14.5735 C   0  0  0  0  0  0  0  0  0  0  0  0
   21.0460  -20.1664  -14.1911 O   0  0  0  0  0  0  0  0  0  0  0  0
   23.1561  -20.8956  -14.5571 O   0  0  0  0  0  0  0  0  0  0  0  0
  2  1  1  1
  2  9  1  0
  3  2  1  0
  3  4  1  0
  4  8  1  0
  4  5  2  0
  5  6  1  0
  7  6  1  0
  8  7  2  0
  9 10  2  0
 11 12  1  0
 11  9  1  0
 12 18  1  0
 13 14  1  0
 12 13  1  6
 14 15  1  0
 16 15  1  0
 16 17  1  0
 18 19  2  0
 20 18  1  0
 20 21  1  0
 22 23  1  0
 22 21  1  0
 24 22  2  0
M  END
$$$$
