HKG.pdb
     RDKit          3D

 24 24  0  0  1  0  0  0  0  0999 V2000
   23.0967  -11.6251  -17.4458 N   0  0  0  0  0  0  0  0  0  0  0  0
   23.2790  -10.7462  -16.3165 C   0  0  1  0  0  0  0  0  0  0  0  0
   24.7215  -10.3038  -16.3220 C   0  0  0  0  0  0  0  0  0  0  0  0
   25.6205  -11.4708  -16.1354 C   0  0  0  0  0  0  0  0  0  0  0  0
   25.2680  -12.7923  -16.0082 C   0  0  0  0  0  0  0  0  0  0  0  0
   26.3829  -13.5474  -15.8554 N   0  0  0  0  0  0  0  0  0  0  0  0
   27.4298  -12.7063  -15.8863 C   0  0  0  0  0  0  0  0  0  0  0  0
   26.9840  -11.4452  -16.0553 N   0  0  0  0  0  0  0  0  0  0  0  0
   22.3142   -9.6401  -16.2654 C   0  0  0  0  0  0  0  0  0  0  0  0
   21.8783   -9.2051  -17.3742 O   0  0  0  0  0  0  0  0  0  0  0  0
   21.8589   -9.0531  -15.0760 N   0  0  0  0  0  0  0  0  0  0  0  0
   20.8341   -8.0254  -15.0022 C   0  0  1  0  0  0  0  0  0  0  0  0
   19.6017   -8.6119  -14.3580 C   0  0  0  0  0  0  0  0  0  0  0  0
   18.7346   -9.4084  -15.2645 C   0  0  0  0  0  0  0  0  0  0  0  0
   17.5396  -10.0320  -14.6120 C   0  0  0  0  0  0  0  0  0  0  0  0
   16.8117  -10.8402  -15.6826 C   0  0  0  0  0  0  0  0  0  0  0  0
   15.7030  -11.5796  -15.1188 N   0  0  0  0  0  0  0  0  0  0  0  0
   21.3378   -6.9847  -14.0431 C   0  0  0  0  0  0  0  0  0  0  0  0
   21.8290   -7.2807  -12.9235 O   0  0  0  0  0  0  0  0  0  0  0  0
   21.2840   -5.6009  -14.3556 N   0  0  0  0  0  0  0  0  0  0  0  0
   21.7975   -4.5909  -13.4290 C   0  0  0  0  0  0  0  0  0  0  0  0
   21.6406   -3.2337  -13.9621 C   0  0  0  0  0  0  0  0  0  0  0  0
   22.0556   -2.1719  -13.1715 O   0  0  0  0  0  0  0  0  0  0  0  0
   21.1545   -2.9646  -15.0893 O   0  0  0  0  0  0  0  0  0  0  0  0
  2  1  1  6
  2  9  1  0
  3  2  1  0
  3  4  1  0
  4  8  1  0
  4  5  2  0
  5  6  1  0
  7  6  1  0
  8  7  2  0
  9 10  2  0
 11 12  1  0
 11  9  1  0
 12 18  1  0
 13 14  1  0
 12 13  1  1
 14 15  1  0
 16 15  1  0
 16 17  1  0
 18 19  2  0
 20 18  1  0
 20 21  1  0
 22 23  1  0
 22 21  1  0
 24 22  2  0
M  END
$$$$
