HKG.pdb
     RDKit          3D

 24 24  0  0  1  0  0  0  0  0999 V2000
   26.5406  -19.3810  -13.4944 N   0  0  0  0  0  0  0  0  0  0  0  0
   26.4031  -20.6327  -14.1981 C   0  0  1  0  0  0  0  0  0  0  0  0
   26.5834  -21.7372  -13.1862 C   0  0  0  0  0  0  0  0  0  0  0  0
   27.8499  -21.5476  -12.4346 C   0  0  0  0  0  0  0  0  0  0  0  0
   29.0846  -21.2163  -12.9370 C   0  0  0  0  0  0  0  0  0  0  0  0
   29.9815  -21.1385  -11.9241 N   0  0  0  0  0  0  0  0  0  0  0  0
   29.3152  -21.4190  -10.7919 C   0  0  0  0  0  0  0  0  0  0  0  0
   28.0232  -21.6689  -11.0850 N   0  0  0  0  0  0  0  0  0  0  0  0
   25.1669  -20.7373  -14.9841 C   0  0  0  0  0  0  0  0  0  0  0  0
   25.0228  -21.7785  -15.6939 O   0  0  0  0  0  0  0  0  0  0  0  0
   24.1573  -19.7639  -14.9883 N   0  0  0  0  0  0  0  0  0  0  0  0
   22.9759  -19.8036  -15.8336 C   0  0  1  0  0  0  0  0  0  0  0  0
   21.8167  -19.2001  -15.0788 C   0  0  0  0  0  0  0  0  0  0  0  0
   20.5153  -19.8938  -15.2619 C   0  0  0  0  0  0  0  0  0  0  0  0
   20.2134  -20.9524  -14.2466 C   0  0  0  0  0  0  0  0  0  0  0  0
   18.8848  -21.5909  -14.6423 C   0  0  0  0  0  0  0  0  0  0  0  0
   18.5113  -22.6405  -13.7189 N   0  0  0  0  0  0  0  0  0  0  0  0
   23.2396  -18.8743  -16.9840 C   0  0  0  0  0  0  0  0  0  0  0  0
   22.4397  -18.7486  -17.9467 O   0  0  0  0  0  0  0  0  0  0  0  0
   24.4170  -18.0832  -17.0427 N   0  0  0  0  0  0  0  0  0  0  0  0
   24.7189  -17.2535  -18.2102 C   0  0  0  0  0  0  0  0  0  0  0  0
   24.1394  -15.9117  -18.0885 C   0  0  0  0  0  0  0  0  0  0  0  0
   24.6426  -14.9090  -18.9045 O   0  0  0  0  0  0  0  0  0  0  0  0
   23.2153  -15.6061  -17.2936 O   0  0  0  0  0  0  0  0  0  0  0  0
  2  1  1  1
  2  9  1  0
  3  2  1  0
  3  4  1  0
  4  8  1  0
  4  5  2  0
  5  6  1  0
  7  6  1  0
  8  7  2  0
  9 10  2  0
 11 12  1  0
 11  9  1  0
 12 18  1  0
 13 14  1  0
 12 13  1  1
 14 15  1  0
 16 15  1  0
 16 17  1  0
 18 19  2  0
 20 18  1  0
 20 21  1  0
 22 23  1  0
 22 21  1  0
 24 22  2  0
M  END
$$$$
