HKG.pdb
     RDKit          3D

 24 24  0  0  1  0  0  0  0  0999 V2000
   31.8907  -36.0841   -3.6462 N   0  0  0  0  0  0  0  0  0  0  0  0
   31.3697  -35.1140   -2.7145 C   0  0  1  0  0  0  0  0  0  0  0  0
   29.8692  -35.2715   -2.6967 C   0  0  0  0  0  0  0  0  0  0  0  0
   29.2810  -34.7595   -3.9603 C   0  0  0  0  0  0  0  0  0  0  0  0
   29.9424  -34.2377   -5.0452 C   0  0  0  0  0  0  0  0  0  0  0  0
   29.0454  -33.8844   -5.9977 N   0  0  0  0  0  0  0  0  0  0  0  0
   27.8277  -34.1820   -5.5149 C   0  0  0  0  0  0  0  0  0  0  0  0
   27.9541  -34.7127   -4.2820 N   0  0  0  0  0  0  0  0  0  0  0  0
   31.9933  -35.1744   -1.3862 C   0  0  0  0  0  0  0  0  0  0  0  0
   32.4137  -36.3066   -0.9990 O   0  0  0  0  0  0  0  0  0  0  0  0
   32.1454  -34.0652   -0.5418 N   0  0  0  0  0  0  0  0  0  0  0  0
   32.7051  -34.1184    0.7983 C   0  0  1  0  0  0  0  0  0  0  0  0
   33.0377  -32.7152    1.2432 C   0  0  0  0  0  0  0  0  0  0  0  0
   33.6188  -32.6069    2.6065 C   0  0  0  0  0  0  0  0  0  0  0  0
   34.0326  -31.2256    3.0110 C   0  0  0  0  0  0  0  0  0  0  0  0
   34.7124  -31.3391    4.3727 C   0  0  0  0  0  0  0  0  0  0  0  0
   35.2229  -30.0586    4.8127 N   0  0  0  0  0  0  0  0  0  0  0  0
   31.6017  -34.5818    1.7063 C   0  0  0  0  0  0  0  0  0  0  0  0
   30.4218  -34.1577    1.6050 O   0  0  0  0  0  0  0  0  0  0  0  0
   31.8381  -35.5314    2.7349 N   0  0  0  0  0  0  0  0  0  0  0  0
   30.7848  -35.9092    3.6785 C   0  0  0  0  0  0  0  0  0  0  0  0
   31.2884  -36.8030    4.7265 C   0  0  0  0  0  0  0  0  0  0  0  0
   32.5929  -37.2626    4.6186 O   0  0  0  0  0  0  0  0  0  0  0  0
   30.6180  -37.1829    5.7192 O   0  0  0  0  0  0  0  0  0  0  0  0
  2  1  1  6
  2  9  1  0
  3  2  1  0
  3  4  1  0
  4  8  1  0
  4  5  2  0
  5  6  1  0
  7  6  1  0
  8  7  2  0
  9 10  2  0
 11 12  1  0
 11  9  1  0
 12 18  1  0
 13 14  1  0
 12 13  1  1
 14 15  1  0
 16 15  1  0
 16 17  1  0
 18 19  2  0
 20 18  1  0
 20 21  1  0
 22 23  1  0
 22 21  1  0
 24 22  2  0
M  END
$$$$
