HKG.pdb
     RDKit          3D

 24 24  0  0  1  0  0  0  0  0999 V2000
   21.0714  -19.6473  -14.1564 N   0  0  0  0  0  0  0  0  0  0  0  0
   22.0367  -20.7090  -14.3046 C   0  0  1  0  0  0  0  0  0  0  0  0
   21.8547  -21.2898  -15.6852 C   0  0  0  0  0  0  0  0  0  0  0  0
   20.5031  -21.8898  -15.8191 C   0  0  0  0  0  0  0  0  0  0  0  0
   20.1183  -23.1727  -15.5147 C   0  0  0  0  0  0  0  0  0  0  0  0
   18.7978  -23.3259  -15.7782 N   0  0  0  0  0  0  0  0  0  0  0  0
   18.3550  -22.1469  -16.2454 C   0  0  0  0  0  0  0  0  0  0  0  0
   19.3761  -21.2672  -16.2760 N   0  0  0  0  0  0  0  0  0  0  0  0
   23.4154  -20.3019  -14.0039 C   0  0  0  0  0  0  0  0  0  0  0  0
   23.7814  -19.1601  -14.4175 O   0  0  0  0  0  0  0  0  0  0  0  0
   24.3290  -21.0956  -13.2955 N   0  0  0  0  0  0  0  0  0  0  0  0
   25.6765  -20.6847  -12.9386 C   0  0  1  0  0  0  0  0  0  0  0  0
   26.0068  -21.2329  -11.5718 C   0  0  0  0  0  0  0  0  0  0  0  0
   25.4291  -20.4747  -10.4318 C   0  0  0  0  0  0  0  0  0  0  0  0
   25.6647  -21.0816   -9.0831 C   0  0  0  0  0  0  0  0  0  0  0  0
   25.0337  -20.1492   -8.0527 C   0  0  0  0  0  0  0  0  0  0  0  0
   25.2028  -20.6601   -6.7095 N   0  0  0  0  0  0  0  0  0  0  0  0
   26.6048  -21.3824  -13.8914 C   0  0  0  0  0  0  0  0  0  0  0  0
   27.8533  -21.2356  -13.8461 O   0  0  0  0  0  0  0  0  0  0  0  0
   26.1142  -22.2515  -14.9012 N   0  0  0  0  0  0  0  0  0  0  0  0
   27.0242  -23.0211  -15.7509 C   0  0  0  0  0  0  0  0  0  0  0  0
   27.0742  -22.4889  -17.1166 C   0  0  0  0  0  0  0  0  0  0  0  0
   27.9354  -23.0945  -18.0200 O   0  0  0  0  0  0  0  0  0  0  0  0
   26.3887  -21.5188  -17.5269 O   0  0  0  0  0  0  0  0  0  0  0  0
  2  1  1  6
  2  9  1  0
  3  2  1  0
  3  4  1  0
  4  8  1  0
  4  5  2  0
  5  6  1  0
  7  6  1  0
  8  7  2  0
  9 10  2  0
 11 12  1  0
 11  9  1  0
 12 18  1  0
 13 14  1  0
 12 13  1  1
 14 15  1  0
 16 15  1  0
 16 17  1  0
 18 19  2  0
 20 18  1  0
 20 21  1  0
 22 23  1  0
 22 21  1  0
 24 22  2  0
M  END
$$$$
