HKG.pdb
     RDKit          3D

 24 24  0  0  1  0  0  0  0  0999 V2000
   17.8394  -11.7003  -15.0533 N   0  0  0  0  0  0  0  0  0  0  0  0
   18.5482  -10.7380  -15.8611 C   0  0  1  0  0  0  0  0  0  0  0  0
   17.6526   -9.5330  -16.0107 C   0  0  0  0  0  0  0  0  0  0  0  0
   16.3894   -9.9098  -16.6941 C   0  0  0  0  0  0  0  0  0  0  0  0
   16.0413  -11.1380  -17.2011 C   0  0  0  0  0  0  0  0  0  0  0  0
   14.8026  -11.0702  -17.7466 N   0  0  0  0  0  0  0  0  0  0  0  0
   14.3744   -9.8075  -17.5838 C   0  0  0  0  0  0  0  0  0  0  0  0
   15.3244   -9.0927  -16.9480 N   0  0  0  0  0  0  0  0  0  0  0  0
   19.8943  -10.4249  -15.3643 C   0  0  0  0  0  0  0  0  0  0  0  0
   20.0559  -10.4169  -14.1063 O   0  0  0  0  0  0  0  0  0  0  0  0
   20.9886  -10.1412  -16.1941 N   0  0  0  0  0  0  0  0  0  0  0  0
   22.3384   -9.8839  -15.7214 C   0  0  1  0  0  0  0  0  0  0  0  0
   23.3190  -10.3622  -16.7641 C   0  0  0  0  0  0  0  0  0  0  0  0
   24.7504  -10.1388  -16.4332 C   0  0  0  0  0  0  0  0  0  0  0  0
   25.5605  -11.3851  -16.2512 C   0  0  0  0  0  0  0  0  0  0  0  0
   26.9736  -10.9527  -15.8698 C   0  0  0  0  0  0  0  0  0  0  0  0
   27.8526  -12.0939  -15.7325 N   0  0  0  0  0  0  0  0  0  0  0  0
   22.4976   -8.3910  -15.6685 C   0  0  0  0  0  0  0  0  0  0  0  0
   22.1326   -7.6400  -16.6093 O   0  0  0  0  0  0  0  0  0  0  0  0
   23.0740   -7.7467  -14.5423 N   0  0  0  0  0  0  0  0  0  0  0  0
   23.3218   -6.3041  -14.5352 C   0  0  0  0  0  0  0  0  0  0  0  0
   22.2007   -5.5626  -13.9485 C   0  0  0  0  0  0  0  0  0  0  0  0
   22.3841   -4.2150  -13.6744 O   0  0  0  0  0  0  0  0  0  0  0  0
   21.0814   -6.0647  -13.6759 O   0  0  0  0  0  0  0  0  0  0  0  0
  2  1  1  1
  2  9  1  0
  3  2  1  0
  3  4  1  0
  4  8  1  0
  4  5  2  0
  5  6  1  0
  7  6  1  0
  8  7  2  0
  9 10  2  0
 11 12  1  0
 11  9  1  0
 12 18  1  0
 13 14  1  0
 12 13  1  6
 14 15  1  0
 16 15  1  0
 16 17  1  0
 18 19  2  0
 20 18  1  0
 20 21  1  0
 22 23  1  0
 22 21  1  0
 24 22  2  0
M  END
$$$$
