HKG.pdb
     RDKit          3D

 24 24  0  0  1  0  0  0  0  0999 V2000
   18.9815  -13.8524  -16.2200 N   0  0  0  0  0  0  0  0  0  0  0  0
   18.8008  -12.4241  -16.3089 C   0  0  1  0  0  0  0  0  0  0  0  0
   17.6807  -12.0552  -15.3678 C   0  0  0  0  0  0  0  0  0  0  0  0
   16.3965  -12.6298  -15.8426 C   0  0  0  0  0  0  0  0  0  0  0  0
   16.1586  -13.3009  -17.0172 C   0  0  0  0  0  0  0  0  0  0  0  0
   14.8546  -13.6653  -17.0765 N   0  0  0  0  0  0  0  0  0  0  0  0
   14.2763  -13.2262  -15.9464 C   0  0  0  0  0  0  0  0  0  0  0  0
   15.1973  -12.5971  -15.1891 N   0  0  0  0  0  0  0  0  0  0  0  0
   20.0355  -11.6570  -16.0992 C   0  0  0  0  0  0  0  0  0  0  0  0
   20.8348  -12.0845  -15.2121 O   0  0  0  0  0  0  0  0  0  0  0  0
   20.3692  -10.4993  -16.8169 N   0  0  0  0  0  0  0  0  0  0  0  0
   21.5478   -9.6858  -16.5699 C   0  0  1  0  0  0  0  0  0  0  0  0
   22.1826   -9.3339  -17.8931 C   0  0  0  0  0  0  0  0  0  0  0  0
   23.4114   -8.5033  -17.8019 C   0  0  0  0  0  0  0  0  0  0  0  0
   24.1241   -8.2819  -19.1003 C   0  0  0  0  0  0  0  0  0  0  0  0
   25.3828   -7.4756  -18.7920 C   0  0  0  0  0  0  0  0  0  0  0  0
   26.1281   -7.1847  -19.9976 N   0  0  0  0  0  0  0  0  0  0  0  0
   21.0599   -8.3865  -15.9950 C   0  0  0  0  0  0  0  0  0  0  0  0
   20.0318   -7.8026  -16.4244 O   0  0  0  0  0  0  0  0  0  0  0  0
   21.7421   -7.7461  -14.9272 N   0  0  0  0  0  0  0  0  0  0  0  0
   21.2720   -6.4731  -14.3787 C   0  0  0  0  0  0  0  0  0  0  0  0
   21.6274   -5.3435  -15.2440 C   0  0  0  0  0  0  0  0  0  0  0  0
   22.2600   -5.6195  -16.4475 O   0  0  0  0  0  0  0  0  0  0  0  0
   21.3978   -4.1387  -14.9702 O   0  0  0  0  0  0  0  0  0  0  0  0
  2  1  1  1
  2  9  1  0
  3  2  1  0
  3  4  1  0
  4  8  1  0
  4  5  2  0
  5  6  1  0
  7  6  1  0
  8  7  2  0
  9 10  2  0
 11 12  1  0
 11  9  1  0
 12 18  1  0
 13 14  1  0
 12 13  1  6
 14 15  1  0
 16 15  1  0
 16 17  1  0
 18 19  2  0
 20 18  1  0
 20 21  1  0
 22 23  1  0
 22 21  1  0
 24 22  2  0
M  END
$$$$
