HKG.pdb
     RDKit          3D

 24 24  0  0  1  0  0  0  0  0999 V2000
   15.9530  -10.9627  -14.3538 N   0  0  0  0  0  0  0  0  0  0  0  0
   16.4091   -9.6586  -14.7689 C   0  0  1  0  0  0  0  0  0  0  0  0
   15.3129   -8.6755  -14.4398 C   0  0  0  0  0  0  0  0  0  0  0  0
   14.0766   -9.0096  -15.1914 C   0  0  0  0  0  0  0  0  0  0  0  0
   12.9444   -9.6258  -14.7168 C   0  0  0  0  0  0  0  0  0  0  0  0
   12.0401   -9.7489  -15.7186 N   0  0  0  0  0  0  0  0  0  0  0  0
   12.5998   -9.2134  -16.8161 C   0  0  0  0  0  0  0  0  0  0  0  0
   13.8332   -8.7615  -16.5125 N   0  0  0  0  0  0  0  0  0  0  0  0
   17.7241   -9.2915  -14.2280 C   0  0  0  0  0  0  0  0  0  0  0  0
   17.9157   -9.4981  -12.9913 O   0  0  0  0  0  0  0  0  0  0  0  0
   18.7586   -8.7360  -14.9948 N   0  0  0  0  0  0  0  0  0  0  0  0
   20.1020   -8.4771  -14.5048 C   0  0  1  0  0  0  0  0  0  0  0  0
   21.0948   -9.1154  -15.4454 C   0  0  0  0  0  0  0  0  0  0  0  0
   22.5229   -8.9007  -15.0955 C   0  0  0  0  0  0  0  0  0  0  0  0
   23.5065   -9.4630  -16.0749 C   0  0  0  0  0  0  0  0  0  0  0  0
   23.2845  -10.9723  -16.1207 C   0  0  0  0  0  0  0  0  0  0  0  0
   24.2951  -11.6273  -16.9229 N   0  0  0  0  0  0  0  0  0  0  0  0
   20.3243   -6.9962  -14.6232 C   0  0  0  0  0  0  0  0  0  0  0  0
   21.3417   -6.4269  -14.1507 O   0  0  0  0  0  0  0  0  0  0  0  0
   19.3875   -6.1565  -15.2811 N   0  0  0  0  0  0  0  0  0  0  0  0
   19.5789   -4.7068  -15.3455 C   0  0  0  0  0  0  0  0  0  0  0  0
   20.5137   -4.3283  -16.4102 C   0  0  0  0  0  0  0  0  0  0  0  0
   20.7432   -2.9770  -16.6249 O   0  0  0  0  0  0  0  0  0  0  0  0
   21.1236   -5.1458  -17.1443 O   0  0  0  0  0  0  0  0  0  0  0  0
  2  1  1  1
  2  9  1  0
  3  2  1  0
  3  4  1  0
  4  8  1  0
  4  5  2  0
  5  6  1  0
  7  6  1  0
  8  7  2  0
  9 10  2  0
 11 12  1  0
 11  9  1  0
 12 18  1  0
 13 14  1  0
 12 13  1  6
 14 15  1  0
 16 15  1  0
 16 17  1  0
 18 19  2  0
 20 18  1  0
 20 21  1  0
 22 23  1  0
 22 21  1  0
 24 22  2  0
M  END
$$$$
