HKG.pdb
     RDKit          3D

 24 24  0  0  1  0  0  0  0  0999 V2000
   24.4980  -12.2439  -17.9402 N   0  0  0  0  0  0  0  0  0  0  0  0
   24.4741  -11.3403  -16.8160 C   0  0  1  0  0  0  0  0  0  0  0  0
   25.8576  -10.7527  -16.6846 C   0  0  0  0  0  0  0  0  0  0  0  0
   26.8457  -11.8198  -16.3850 C   0  0  0  0  0  0  0  0  0  0  0  0
   26.6082  -13.1614  -16.2109 C   0  0  0  0  0  0  0  0  0  0  0  0
   27.7754  -13.8000  -15.9534 N   0  0  0  0  0  0  0  0  0  0  0  0
   28.7408  -12.8661  -15.9655 C   0  0  0  0  0  0  0  0  0  0  0  0
   28.1933  -11.6618  -16.2255 N   0  0  0  0  0  0  0  0  0  0  0  0
   23.4026  -10.3383  -16.8845 C   0  0  0  0  0  0  0  0  0  0  0  0
   23.1593   -9.8330  -18.0221 O   0  0  0  0  0  0  0  0  0  0  0  0
   22.6491   -9.9212  -15.7778 N   0  0  0  0  0  0  0  0  0  0  0  0
   21.5402   -8.9841  -15.8398 C   0  0  1  0  0  0  0  0  0  0  0  0
   20.3124   -9.6435  -15.2607 C   0  0  0  0  0  0  0  0  0  0  0  0
   19.0898   -8.7990  -15.2478 C   0  0  0  0  0  0  0  0  0  0  0  0
   17.8679   -9.4619  -14.6908 C   0  0  0  0  0  0  0  0  0  0  0  0
   16.7003   -8.5006  -14.8957 C   0  0  0  0  0  0  0  0  0  0  0  0
   15.4497   -9.0975  -14.4792 N   0  0  0  0  0  0  0  0  0  0  0  0
   21.8764   -7.8583  -14.9038 C   0  0  0  0  0  0  0  0  0  0  0  0
   22.4101   -8.0510  -13.7812 O   0  0  0  0  0  0  0  0  0  0  0  0
   21.6059   -6.5065  -15.2432 N   0  0  0  0  0  0  0  0  0  0  0  0
   21.7975   -5.4258  -14.2748 C   0  0  0  0  0  0  0  0  0  0  0  0
   21.5709   -4.1083  -14.8780 C   0  0  0  0  0  0  0  0  0  0  0  0
   21.6512   -2.9936  -14.0560 O   0  0  0  0  0  0  0  0  0  0  0  0
   21.3080   -3.9183  -16.0921 O   0  0  0  0  0  0  0  0  0  0  0  0
  2  1  1  6
  2  9  1  0
  3  2  1  0
  3  4  1  0
  4  8  1  0
  4  5  2  0
  5  6  1  0
  7  6  1  0
  8  7  2  0
  9 10  2  0
 11 12  1  0
 11  9  1  0
 12 18  1  0
 13 14  1  0
 12 13  1  1
 14 15  1  0
 16 15  1  0
 16 17  1  0
 18 19  2  0
 20 18  1  0
 20 21  1  0
 22 23  1  0
 22 21  1  0
 24 22  2  0
M  END
$$$$
