HKG.pdb
     RDKit          3D

 24 24  0  0  1  0  0  0  0  0999 V2000
   16.2872   -8.1253   -8.8909 N   0  0  0  0  0  0  0  0  0  0  0  0
   15.7824   -7.9295  -10.2279 C   0  0  1  0  0  0  0  0  0  0  0  0
   14.5770   -7.0280  -10.1237 C   0  0  0  0  0  0  0  0  0  0  0  0
   13.4785   -7.7158   -9.3992 C   0  0  0  0  0  0  0  0  0  0  0  0
   13.4447   -9.0177   -8.9625 C   0  0  0  0  0  0  0  0  0  0  0  0
   12.2634   -9.2591   -8.3439 N   0  0  0  0  0  0  0  0  0  0  0  0
   11.5587   -8.1165   -8.3912 C   0  0  0  0  0  0  0  0  0  0  0  0
   12.2814   -7.1727   -9.0273 N   0  0  0  0  0  0  0  0  0  0  0  0
   16.7974   -7.4635  -11.1816 C   0  0  0  0  0  0  0  0  0  0  0  0
   17.8118   -6.8740  -10.6999 O   0  0  0  0  0  0  0  0  0  0  0  0
   16.7039   -7.6351  -12.5703 N   0  0  0  0  0  0  0  0  0  0  0  0
   17.7464   -7.2791  -13.5181 C   0  0  1  0  0  0  0  0  0  0  0  0
   17.7000   -8.2438  -14.6778 C   0  0  0  0  0  0  0  0  0  0  0  0
   18.0948   -9.6392  -14.3535 C   0  0  0  0  0  0  0  0  0  0  0  0
   18.0015  -10.6053  -15.4941 C   0  0  0  0  0  0  0  0  0  0  0  0
   18.3809  -11.9807  -14.9522 C   0  0  0  0  0  0  0  0  0  0  0  0
   18.3244  -12.9875  -15.9899 N   0  0  0  0  0  0  0  0  0  0  0  0
   17.3703   -5.9409  -14.0875 C   0  0  0  0  0  0  0  0  0  0  0  0
   18.0748   -5.3514  -14.9469 O   0  0  0  0  0  0  0  0  0  0  0  0
   16.1887   -5.2677  -13.6799 N   0  0  0  0  0  0  0  0  0  0  0  0
   15.8403   -3.9505  -14.2148 C   0  0  0  0  0  0  0  0  0  0  0  0
   16.4751   -2.8692  -13.4540 C   0  0  0  0  0  0  0  0  0  0  0  0
   16.1550   -1.5619  -13.7902 O   0  0  0  0  0  0  0  0  0  0  0  0
   17.2918   -3.0452  -12.5152 O   0  0  0  0  0  0  0  0  0  0  0  0
  2  1  1  1
  2  9  1  0
  3  2  1  0
  3  4  1  0
  4  8  1  0
  4  5  2  0
  5  6  1  0
  7  6  1  0
  8  7  2  0
  9 10  2  0
 11 12  1  0
 11  9  1  0
 12 18  1  0
 13 14  1  0
 12 13  1  6
 14 15  1  0
 16 15  1  0
 16 17  1  0
 18 19  2  0
 20 18  1  0
 20 21  1  0
 22 23  1  0
 22 21  1  0
 24 22  2  0
M  END
$$$$
