HKG.pdb
     RDKit          3D

 24 24  0  0  1  0  0  0  0  0999 V2000
   25.1199  -21.9753  -13.0869 N   0  0  0  0  0  0  0  0  0  0  0  0
   24.1087  -20.9466  -13.0938 C   0  0  1  0  0  0  0  0  0  0  0  0
   24.6139  -19.8166  -12.2311 C   0  0  0  0  0  0  0  0  0  0  0  0
   24.6827  -20.2422  -10.8103 C   0  0  0  0  0  0  0  0  0  0  0  0
   25.8053  -20.5158  -10.0675 C   0  0  0  0  0  0  0  0  0  0  0  0
   25.4433  -20.8717   -8.8109 N   0  0  0  0  0  0  0  0  0  0  0  0
   24.1018  -20.8222   -8.7637 C   0  0  0  0  0  0  0  0  0  0  0  0
   23.6268  -20.4426   -9.9670 N   0  0  0  0  0  0  0  0  0  0  0  0
   23.6949  -20.5322  -14.4406 C   0  0  0  0  0  0  0  0  0  0  0  0
   24.5985  -20.4783  -15.3290 O   0  0  0  0  0  0  0  0  0  0  0  0
   22.3771  -20.2008  -14.7874 N   0  0  0  0  0  0  0  0  0  0  0  0
   21.9394  -19.8505  -16.1281 C   0  0  1  0  0  0  0  0  0  0  0  0
   20.5518  -20.4021  -16.3469 C   0  0  0  0  0  0  0  0  0  0  0  0
   20.4963  -21.8385  -16.7235 C   0  0  0  0  0  0  0  0  0  0  0  0
   20.3161  -22.7870  -15.5787 C   0  0  0  0  0  0  0  0  0  0  0  0
   21.3969  -23.8571  -15.7052 C   0  0  0  0  0  0  0  0  0  0  0  0
   21.2746  -24.8525  -14.6621 N   0  0  0  0  0  0  0  0  0  0  0  0
   21.7914  -18.3559  -16.1547 C   0  0  0  0  0  0  0  0  0  0  0  0
   21.3947  -17.6995  -15.1576 O   0  0  0  0  0  0  0  0  0  0  0  0
   22.0949  -17.6018  -17.3186 N   0  0  0  0  0  0  0  0  0  0  0  0
   21.8710  -16.1561  -17.3686 C   0  0  0  0  0  0  0  0  0  0  0  0
   22.2771  -15.5871  -18.6578 C   0  0  0  0  0  0  0  0  0  0  0  0
   23.2276  -14.5766  -18.6528 O   0  0  0  0  0  0  0  0  0  0  0  0
   21.8222  -15.9524  -19.7709 O   0  0  0  0  0  0  0  0  0  0  0  0
  2  1  1  6
  2  9  1  0
  3  2  1  0
  3  4  1  0
  4  8  1  0
  4  5  2  0
  5  6  1  0
  7  6  1  0
  8  7  2  0
  9 10  2  0
 11 12  1  0
 11  9  1  0
 12 18  1  0
 13 14  1  0
 12 13  1  1
 14 15  1  0
 16 15  1  0
 16 17  1  0
 18 19  2  0
 20 18  1  0
 20 21  1  0
 22 23  1  0
 22 21  1  0
 24 22  2  0
M  END
$$$$
