HKG.pdb
     RDKit          3D

 24 24  0  0  1  0  0  0  0  0999 V2000
   27.0709  -21.8335  -16.5460 N   0  0  0  0  0  0  0  0  0  0  0  0
   27.6376  -20.6962  -15.8632 C   0  0  1  0  0  0  0  0  0  0  0  0
   28.0508  -19.7007  -16.9190 C   0  0  0  0  0  0  0  0  0  0  0  0
   28.9733  -20.3350  -17.8944 C   0  0  0  0  0  0  0  0  0  0  0  0
   29.5799  -21.5639  -17.8020 C   0  0  0  0  0  0  0  0  0  0  0  0
   30.3467  -21.7759  -18.8991 N   0  0  0  0  0  0  0  0  0  0  0  0
   30.2231  -20.6874  -19.6765 C   0  0  0  0  0  0  0  0  0  0  0  0
   29.3945  -19.8060  -19.0814 N   0  0  0  0  0  0  0  0  0  0  0  0
   26.7666  -20.1367  -14.8215 C   0  0  0  0  0  0  0  0  0  0  0  0
   27.1174  -19.0295  -14.3118 O   0  0  0  0  0  0  0  0  0  0  0  0
   25.5895  -20.7521  -14.3716 N   0  0  0  0  0  0  0  0  0  0  0  0
   24.7300  -20.2245  -13.3254 C   0  0  1  0  0  0  0  0  0  0  0  0
   23.2903  -20.4123  -13.7371 C   0  0  0  0  0  0  0  0  0  0  0  0
   22.8182  -19.5023  -14.8129 C   0  0  0  0  0  0  0  0  0  0  0  0
   21.3718  -19.6451  -15.1740 C   0  0  0  0  0  0  0  0  0  0  0  0
   21.0838  -18.6415  -16.2872 C   0  0  0  0  0  0  0  0  0  0  0  0
   19.7203  -18.7564  -16.7575 N   0  0  0  0  0  0  0  0  0  0  0  0
   24.9269  -21.1040  -12.1236 C   0  0  0  0  0  0  0  0  0  0  0  0
   25.4324  -22.2531  -12.2043 O   0  0  0  0  0  0  0  0  0  0  0  0
   24.5484  -20.6778  -10.8234 N   0  0  0  0  0  0  0  0  0  0  0  0
   24.7852  -21.5178   -9.6482 C   0  0  0  0  0  0  0  0  0  0  0  0
   23.9834  -21.0842   -8.4993 C   0  0  0  0  0  0  0  0  0  0  0  0
   24.0934  -21.8058   -7.3195 O   0  0  0  0  0  0  0  0  0  0  0  0
   23.2009  -20.1009   -8.5092 O   0  0  0  0  0  0  0  0  0  0  0  0
  2  1  1  6
  2  9  1  0
  3  2  1  0
  3  4  1  0
  4  8  1  0
  4  5  2  0
  5  6  1  0
  7  6  1  0
  8  7  2  0
  9 10  2  0
 11 12  1  0
 11  9  1  0
 12 18  1  0
 13 14  1  0
 12 13  1  6
 14 15  1  0
 16 15  1  0
 16 17  1  0
 18 19  2  0
 20 18  1  0
 20 21  1  0
 22 23  1  0
 22 21  1  0
 24 22  2  0
M  END
$$$$
