RSF.pdb
     RDKit          3D

 29 29  0  0  1  0  0  0  0  0999 V2000
    7.6055  -12.7312   16.2072 N   0  0  0  0  0  0  0  0  0  0  0  0
    7.9606  -14.0300   15.7838 C   0  0  0  0  0  0  0  0  0  0  0  0
    8.7743  -14.2633   14.8216 N   0  0  0  0  0  0  0  0  0  0  0  0
    7.3772  -15.1265   16.4790 N   0  0  0  0  0  0  0  0  0  0  0  0
    7.1749  -15.1254   17.9068 C   0  0  0  0  0  0  0  0  0  0  0  0
    7.8782  -13.8551   18.4226 C   0  0  0  0  0  0  0  0  0  0  0  0
    7.6340  -13.6708   19.8838 C   0  0  0  0  0  0  0  0  0  0  0  0
    8.9708  -13.9379   20.6190 C   0  0  2  0  0  0  0  0  0  0  0  0
    9.7704  -14.8137   19.7539 N   0  0  0  0  0  0  0  0  0  0  0  0
    8.5364  -14.7236   21.8476 C   0  0  0  0  0  0  0  0  0  0  0  0
    7.5164  -14.2766   22.3909 O   0  0  0  0  0  0  0  0  0  0  0  0
    9.0482  -15.2013   14.5061 O   0  0  0  0  0  0  0  0  0  0  0  0
   10.9800  -18.0897   22.6845 C   0  0  0  0  0  0  0  0  0  0  0  0
    9.6658  -18.1156   23.0843 C   0  0  1  0  0  0  0  0  0  0  0  0
    9.0705  -16.7006   23.3014 N   0  0  0  0  0  0  0  0  0  0  0  0
    9.3003  -15.8222   22.2234 C   0  0  0  0  0  0  0  0  0  0  0  0
    9.5733  -16.1429   24.5502 O   0  0  0  0  0  0  0  0  0  0  0  0
   10.6501  -15.4445   24.5426 N   0  0  0  0  0  0  0  0  0  0  0  0
    8.9981  -16.2777   25.8383 C   0  0  1  0  0  0  0  0  0  0  0  0
    9.6926  -15.8225   27.0092 C   0  0  0  0  0  0  0  0  0  0  0  0
    8.6414  -15.0671   27.8508 C   0  0  0  0  0  0  0  0  0  0  0  0
    8.1302  -13.8690   27.1800 C   0  0  0  0  0  0  0  0  0  0  0  0
    8.8064  -12.6538   27.1248 C   0  0  0  0  0  0  0  0  0  0  0  0
    8.2596  -11.5800   26.4681 C   0  0  0  0  0  0  0  0  0  0  0  0
    7.0372  -11.6727   25.8532 C   0  0  0  0  0  0  0  0  0  0  0  0
    6.3313  -12.8448   25.8801 C   0  0  0  0  0  0  0  0  0  0  0  0
    6.9086  -13.9208   26.5517 C   0  0  0  0  0  0  0  0  0  0  0  0
   10.2273  -16.9151   27.8257 O   0  0  0  0  0  0  0  0  0  0  0  0
   10.9484  -16.5307   28.9701 O   0  0  0  0  0  0  0  0  0  0  0  0
  1  2  1  0
  2  4  1  0
  2  3  2  0
  4  5  1  0
  6  5  1  0
  7  6  1  0
  8  7  1  0
  8  9  1  6
 10  8  1  0
 11 10  2  0
 13 12  1  0
 14 13  1  6
 14 16  1  0
 14 15  1  0
 15 10  1  0
 16 18  1  0
 17 16  2  0
 18 19  1  0
 19 27  1  0
 20 21  1  0
 19 20  1  1
 21 26  2  0
 22 23  2  0
 22 21  1  0
 23 24  1  0
 24 25  2  0
 26 25  1  0
 27 29  2  0
 27 28  1  0
M  END
$$$$
