RSF.pdb
     RDKit          3D

 29 29  0  0  1  0  0  0  0  0999 V2000
    8.9953  -14.8118   17.4425 N   0  0  0  0  0  0  0  0  0  0  0  0
    8.7490  -13.5988   18.1207 C   0  0  0  0  0  0  0  0  0  0  0  0
    8.0501  -12.6428   17.6307 N   0  0  0  0  0  0  0  0  0  0  0  0
    9.3109  -13.4506   19.4201 N   0  0  0  0  0  0  0  0  0  0  0  0
    9.2356  -14.4829   20.4241 C   0  0  0  0  0  0  0  0  0  0  0  0
    7.9175  -14.2282   21.1805 C   0  0  0  0  0  0  0  0  0  0  0  0
    6.8358  -15.1251   20.6763 C   0  0  0  0  0  0  0  0  0  0  0  0
    7.2608  -16.5842   20.9745 C   0  0  2  0  0  0  0  0  0  0  0  0
    6.1804  -17.4541   20.4941 N   0  0  0  0  0  0  0  0  0  0  0  0
    7.2897  -16.6298   22.4952 C   0  0  0  0  0  0  0  0  0  0  0  0
    6.1874  -16.4219   23.0217 O   0  0  0  0  0  0  0  0  0  0  0  0
    7.8636  -11.7540   18.1098 O   0  0  0  0  0  0  0  0  0  0  0  0
   10.5453  -18.8376   23.9630 C   0  0  0  0  0  0  0  0  0  0  0  0
    9.3219  -18.7163   24.5765 C   0  0  1  0  0  0  0  0  0  0  0  0
    8.7194  -17.2934   24.4504 N   0  0  0  0  0  0  0  0  0  0  0  0
    8.5052  -16.8892   23.1174 C   0  0  0  0  0  0  0  0  0  0  0  0
    9.5616  -16.3392   25.1600 O   0  0  0  0  0  0  0  0  0  0  0  0
   10.6378  -15.9119   24.6066 N   0  0  0  0  0  0  0  0  0  0  0  0
    9.3349  -15.7928   26.4478 C   0  0  1  0  0  0  0  0  0  0  0  0
   10.4231  -15.2989   27.2432 C   0  0  0  0  0  0  0  0  0  0  0  0
    9.9978  -13.8872   27.7017 C   0  0  0  0  0  0  0  0  0  0  0  0
    8.6686  -13.5080   27.2158 C   0  0  0  0  0  0  0  0  0  0  0  0
    8.1561  -12.2150   27.2656 C   0  0  0  0  0  0  0  0  0  0  0  0
    6.9016  -11.9423   26.7807 C   0  0  0  0  0  0  0  0  0  0  0  0
    6.1207  -12.9310   26.2388 C   0  0  0  0  0  0  0  0  0  0  0  0
    6.5777  -14.2190   26.1680 C   0  0  0  0  0  0  0  0  0  0  0  0
    7.8552  -14.4699   26.6654 C   0  0  0  0  0  0  0  0  0  0  0  0
   10.6785  -16.1063   28.4387 O   0  0  0  0  0  0  0  0  0  0  0  0
    9.8186  -17.2015   28.6355 O   0  0  0  0  0  0  0  0  0  0  0  0
  1  2  1  0
  2  4  1  0
  2  3  2  0
  4  5  1  0
  6  5  1  0
  7  6  1  0
  8  7  1  0
  8  9  1  1
 10  8  1  0
 11 10  2  0
 13 12  1  0
 14 13  1  1
 14 16  1  0
 14 15  1  0
 15 10  1  0
 16 18  1  0
 17 16  2  0
 18 19  1  0
 19 27  1  0
 20 21  1  0
 19 20  1  1
 21 26  2  0
 22 23  2  0
 22 21  1  0
 23 24  1  0
 24 25  2  0
 26 25  1  0
 27 29  2  0
 27 28  1  0
M  END
$$$$
