RSF.pdb
     RDKit          3D

 29 29  0  0  1  0  0  0  0  0999 V2000
    6.9548  -13.0416   17.2044 N   0  0  0  0  0  0  0  0  0  0  0  0
    7.8104  -14.1463   17.0051 C   0  0  0  0  0  0  0  0  0  0  0  0
    7.5238  -15.1354   16.2422 N   0  0  0  0  0  0  0  0  0  0  0  0
    9.0566  -14.1404   17.6930 N   0  0  0  0  0  0  0  0  0  0  0  0
   10.0130  -15.2139   17.5821 C   0  0  0  0  0  0  0  0  0  0  0  0
    9.4664  -16.3477   18.4710 C   0  0  0  0  0  0  0  0  0  0  0  0
   10.5544  -16.9370   19.3063 C   0  0  0  0  0  0  0  0  0  0  0  0
    9.9115  -18.0032   20.2276 C   0  0  2  0  0  0  0  0  0  0  0  0
    8.7782  -18.5794   19.4938 N   0  0  0  0  0  0  0  0  0  0  0  0
    9.3771  -17.1772   21.3885 C   0  0  0  0  0  0  0  0  0  0  0  0
    9.9959  -16.1199   21.5751 O   0  0  0  0  0  0  0  0  0  0  0  0
    8.1135  -15.9673   16.1223 O   0  0  0  0  0  0  0  0  0  0  0  0
    6.8472  -19.1991   24.1908 C   0  0  0  0  0  0  0  0  0  0  0  0
    6.4807  -17.9446   23.7669 C   0  0  1  0  0  0  0  0  0  0  0  0
    7.6751  -17.1122   23.2340 N   0  0  0  0  0  0  0  0  0  0  0  0
    8.2897  -17.6742   22.0971 C   0  0  0  0  0  0  0  0  0  0  0  0
    8.6418  -16.9004   24.3035 O   0  0  0  0  0  0  0  0  0  0  0  0
    9.7111  -17.6094   24.3389 N   0  0  0  0  0  0  0  0  0  0  0  0
    8.5507  -15.9649   25.3640 C   0  0  1  0  0  0  0  0  0  0  0  0
    9.5892  -15.8615   26.3497 C   0  0  0  0  0  0  0  0  0  0  0  0
    9.7154  -14.3556   26.6666 C   0  0  0  0  0  0  0  0  0  0  0  0
    8.4211  -13.7180   26.9221 C   0  0  0  0  0  0  0  0  0  0  0  0
    7.8973  -13.4903   28.1912 C   0  0  0  0  0  0  0  0  0  0  0  0
    6.6783  -12.8787   28.3436 C   0  0  0  0  0  0  0  0  0  0  0  0
    5.9447  -12.4792   27.2559 C   0  0  0  0  0  0  0  0  0  0  0  0
    6.4146  -12.6817   25.9867 C   0  0  0  0  0  0  0  0  0  0  0  0
    7.6555  -13.3030   25.8584 C   0  0  0  0  0  0  0  0  0  0  0  0
    9.2745  -16.5626   27.5969 O   0  0  0  0  0  0  0  0  0  0  0  0
   10.2939  -16.5809   28.5654 O   0  0  0  0  0  0  0  0  0  0  0  0
  1  2  1  0
  2  4  1  0
  2  3  2  0
  4  5  1  0
  6  5  1  0
  7  6  1  0
  8  7  1  0
  8  9  1  6
 10  8  1  0
 11 10  2  0
 13 12  1  0
 14 13  1  6
 14 16  1  0
 14 15  1  0
 15 10  1  0
 16 18  1  0
 17 16  2  0
 18 19  1  0
 19 27  1  0
 20 21  1  0
 19 20  1  1
 21 26  2  0
 22 23  2  0
 22 21  1  0
 23 24  1  0
 24 25  2  0
 26 25  1  0
 27 29  2  0
 27 28  1  0
M  END
$$$$
