RSF.pdb
     RDKit          3D

 29 29  0  0  1  0  0  0  0  0999 V2000
    9.4784  -13.5734   19.9528 N   0  0  0  0  0  0  0  0  0  0  0  0
    8.3992  -13.3632   19.0679 C   0  0  0  0  0  0  0  0  0  0  0  0
    7.7332  -12.2698   19.0105 N   0  0  0  0  0  0  0  0  0  0  0  0
    8.0504  -14.4333   18.1964 N   0  0  0  0  0  0  0  0  0  0  0  0
    8.7946  -15.6672   18.1408 C   0  0  0  0  0  0  0  0  0  0  0  0
    7.9177  -16.7112   18.8588 C   0  0  0  0  0  0  0  0  0  0  0  0
    8.2066  -16.7281   20.3234 C   0  0  0  0  0  0  0  0  0  0  0  0
    7.3913  -17.8875   20.9478 C   0  0  2  0  0  0  0  0  0  0  0  0
    6.1485  -18.0047   20.1755 N   0  0  0  0  0  0  0  0  0  0  0  0
    7.0593  -17.3647   22.3377 C   0  0  0  0  0  0  0  0  0  0  0  0
    6.4082  -16.3104   22.3319 O   0  0  0  0  0  0  0  0  0  0  0  0
    6.9750  -12.0849   18.3432 O   0  0  0  0  0  0  0  0  0  0  0  0
    7.9665  -20.0581   25.5253 C   0  0  0  0  0  0  0  0  0  0  0  0
    6.9630  -19.1242   25.6198 C   0  0  1  0  0  0  0  0  0  0  0  0
    7.2488  -17.8423   24.7960 N   0  0  0  0  0  0  0  0  0  0  0  0
    7.5047  -18.0948   23.4333 C   0  0  0  0  0  0  0  0  0  0  0  0
    8.3432  -17.0997   25.4075 O   0  0  0  0  0  0  0  0  0  0  0  0
    9.5059  -17.1253   24.8646 N   0  0  0  0  0  0  0  0  0  0  0  0
    8.2880  -16.3117   26.5840 C   0  0  1  0  0  0  0  0  0  0  0  0
    9.4715  -15.7034   27.1225 C   0  0  0  0  0  0  0  0  0  0  0  0
    8.9853  -14.4628   27.9025 C   0  0  0  0  0  0  0  0  0  0  0  0
    8.0307  -13.6515   27.1426 C   0  0  0  0  0  0  0  0  0  0  0  0
    8.2627  -13.1667   25.8589 C   0  0  0  0  0  0  0  0  0  0  0  0
    7.3107  -12.4188   25.2126 C   0  0  0  0  0  0  0  0  0  0  0  0
    6.1115  -12.1275   25.8110 C   0  0  0  0  0  0  0  0  0  0  0  0
    5.8352  -12.5792   27.0729 C   0  0  0  0  0  0  0  0  0  0  0  0
    6.8171  -13.3378   27.7073 C   0  0  0  0  0  0  0  0  0  0  0  0
   10.1943  -16.5712   28.0557 O   0  0  0  0  0  0  0  0  0  0  0  0
   11.3950  -16.0527   28.5722 O   0  0  0  0  0  0  0  0  0  0  0  0
  1  2  1  0
  2  4  1  0
  2  3  2  0
  4  5  1  0
  6  5  1  0
  7  6  1  0
  8  7  1  0
  8  9  1  6
 10  8  1  0
 11 10  2  0
 13 12  1  0
 14 13  1  6
 14 16  1  0
 14 15  1  0
 15 10  1  0
 16 18  1  0
 17 16  2  0
 18 19  1  0
 19 27  1  0
 20 21  1  0
 19 20  1  1
 21 26  2  0
 22 23  2  0
 22 21  1  0
 23 24  1  0
 24 25  2  0
 26 25  1  0
 27 29  2  0
 27 28  1  0
M  END
$$$$
