RSF.pdb
     RDKit          3D

 29 29  0  0  1  0  0  0  0  0999 V2000
    9.4884  -13.7095   20.1466 N   0  0  0  0  0  0  0  0  0  0  0  0
    8.6950  -13.2787   19.0617 C   0  0  0  0  0  0  0  0  0  0  0  0
    8.5811  -12.0512   18.7113 N   0  0  0  0  0  0  0  0  0  0  0  0
    7.9960  -14.2768   18.3260 N   0  0  0  0  0  0  0  0  0  0  0  0
    8.0318  -15.6742   18.6801 C   0  0  0  0  0  0  0  0  0  0  0  0
    6.5733  -16.0576   18.9968 C   0  0  0  0  0  0  0  0  0  0  0  0
    6.3255  -16.0273   20.4687 C   0  0  0  0  0  0  0  0  0  0  0  0
    6.7265  -17.4101   21.0394 C   0  0  2  0  0  0  0  0  0  0  0  0
    5.7563  -18.3852   20.5268 N   0  0  0  0  0  0  0  0  0  0  0  0
    6.5097  -17.2404   22.5359 C   0  0  0  0  0  0  0  0  0  0  0  0
    5.6518  -16.3935   22.8229 O   0  0  0  0  0  0  0  0  0  0  0  0
    7.9829  -11.7179   17.9462 O   0  0  0  0  0  0  0  0  0  0  0  0
    8.1745  -20.2260   25.0910 C   0  0  0  0  0  0  0  0  0  0  0  0
    7.1903  -19.3526   25.4861 C   0  0  1  0  0  0  0  0  0  0  0  0
    7.3037  -17.9640   24.8059 N   0  0  0  0  0  0  0  0  0  0  0  0
    7.2687  -18.0226   23.3982 C   0  0  0  0  0  0  0  0  0  0  0  0
    8.5048  -17.2848   25.2740 O   0  0  0  0  0  0  0  0  0  0  0  0
    9.6285  -17.5199   24.7002 N   0  0  0  0  0  0  0  0  0  0  0  0
    8.5986  -16.3498   26.3348 C   0  0  1  0  0  0  0  0  0  0  0  0
    9.8660  -16.0293   26.9277 C   0  0  0  0  0  0  0  0  0  0  0  0
   10.2261  -14.6209   26.4073 C   0  0  0  0  0  0  0  0  0  0  0  0
    9.0825  -13.7049   26.4084 C   0  0  0  0  0  0  0  0  0  0  0  0
    8.0040  -13.7977   25.5337 C   0  0  0  0  0  0  0  0  0  0  0  0
    6.9671  -12.9017   25.6066 C   0  0  0  0  0  0  0  0  0  0  0  0
    6.9656  -11.8935   26.5363 C   0  0  0  0  0  0  0  0  0  0  0  0
    8.0034  -11.7578   27.4180 C   0  0  0  0  0  0  0  0  0  0  0  0
    9.0432  -12.6810   27.3249 C   0  0  0  0  0  0  0  0  0  0  0  0
    9.8225  -15.9746   28.3911 O   0  0  0  0  0  0  0  0  0  0  0  0
   11.0451  -15.7072   29.0324 O   0  0  0  0  0  0  0  0  0  0  0  0
  1  2  1  0
  2  4  1  0
  2  3  2  0
  4  5  1  0
  6  5  1  0
  7  6  1  0
  8  7  1  0
  8  9  1  6
 10  8  1  0
 11 10  2  0
 13 12  1  0
 14 13  1  1
 14 16  1  0
 14 15  1  0
 15 10  1  0
 16 18  1  0
 17 16  2  0
 18 19  1  0
 19 27  1  0
 20 21  1  0
 19 20  1  1
 21 26  2  0
 22 23  2  0
 22 21  1  0
 23 24  1  0
 24 25  2  0
 26 25  1  0
 27 29  2  0
 27 28  1  0
M  END
$$$$
