RSF.pdb
     RDKit          3D

 29 29  0  0  1  0  0  0  0  0999 V2000
    8.2285  -11.9929   19.0286 N   0  0  0  0  0  0  0  0  0  0  0  0
    9.0073  -13.1674   19.1069 C   0  0  0  0  0  0  0  0  0  0  0  0
   10.1869  -13.2687   18.6164 N   0  0  0  0  0  0  0  0  0  0  0  0
    8.4364  -14.2870   19.7752 N   0  0  0  0  0  0  0  0  0  0  0  0
    7.9981  -15.4706   19.0778 C   0  0  0  0  0  0  0  0  0  0  0  0
    6.4778  -15.5511   19.3158 C   0  0  0  0  0  0  0  0  0  0  0  0
    6.1771  -15.7148   20.7689 C   0  0  0  0  0  0  0  0  0  0  0  0
    6.8499  -17.0276   21.2409 C   0  0  2  0  0  0  0  0  0  0  0  0
    6.1400  -18.1341   20.5879 N   0  0  0  0  0  0  0  0  0  0  0  0
    6.5407  -17.0559   22.7306 C   0  0  0  0  0  0  0  0  0  0  0  0
    5.3639  -16.7779   23.0014 O   0  0  0  0  0  0  0  0  0  0  0  0
   10.7220  -14.1436   18.5644 O   0  0  0  0  0  0  0  0  0  0  0  0
    8.7154  -19.6302   25.0494 C   0  0  0  0  0  0  0  0  0  0  0  0
    7.5848  -18.9851   25.4891 C   0  0  1  0  0  0  0  0  0  0  0  0
    7.4997  -17.5144   25.0060 N   0  0  0  0  0  0  0  0  0  0  0  0
    7.5719  -17.3774   23.6052 C   0  0  0  0  0  0  0  0  0  0  0  0
    8.5285  -16.7208   25.6654 O   0  0  0  0  0  0  0  0  0  0  0  0
    9.6483  -16.5184   25.0720 N   0  0  0  0  0  0  0  0  0  0  0  0
    8.4492  -16.1113   26.9424 C   0  0  1  0  0  0  0  0  0  0  0  0
    9.5824  -15.4391   27.5122 C   0  0  0  0  0  0  0  0  0  0  0  0
    9.0150  -14.1865   28.2143 C   0  0  0  0  0  0  0  0  0  0  0  0
    8.1628  -13.3798   27.3368 C   0  0  0  0  0  0  0  0  0  0  0  0
    8.6070  -12.7471   26.1796 C   0  0  0  0  0  0  0  0  0  0  0  0
    7.7401  -12.0149   25.4078 C   0  0  0  0  0  0  0  0  0  0  0  0
    6.4195  -11.8845   25.7544 C   0  0  0  0  0  0  0  0  0  0  0  0
    5.9334  -12.4857   26.8837 C   0  0  0  0  0  0  0  0  0  0  0  0
    6.8331  -13.2249   27.6494 C   0  0  0  0  0  0  0  0  0  0  0  0
   10.2863  -16.2416   28.5155 O   0  0  0  0  0  0  0  0  0  0  0  0
   11.4554  -15.6705   29.0490 O   0  0  0  0  0  0  0  0  0  0  0  0
  1  2  1  0
  2  4  1  0
  2  3  2  0
  4  5  1  0
  6  5  1  0
  7  6  1  0
  8  7  1  0
  8  9  1  6
 10  8  1  0
 11 10  2  0
 13 12  1  0
 14 13  1  6
 14 16  1  0
 14 15  1  0
 15 10  1  0
 16 18  1  0
 17 16  2  0
 18 19  1  0
 19 27  1  0
 20 21  1  0
 19 20  1  1
 21 26  2  0
 22 23  2  0
 22 21  1  0
 23 24  1  0
 24 25  2  0
 26 25  1  0
 27 29  2  0
 27 28  1  0
M  END
$$$$
