RSF.pdb
     RDKit          3D

 29 29  0  0  1  0  0  0  0  0999 V2000
    8.5601  -16.2120   12.5237 N   0  0  0  0  0  0  0  0  0  0  0  0
    9.5388  -17.0509   11.9488 C   0  0  0  0  0  0  0  0  0  0  0  0
    9.5191  -17.4254   10.7233 N   0  0  0  0  0  0  0  0  0  0  0  0
   10.5997  -17.4896   12.7902 N   0  0  0  0  0  0  0  0  0  0  0  0
   10.6719  -17.1563   14.1913 C   0  0  0  0  0  0  0  0  0  0  0  0
    9.4688  -17.8618   14.8463 C   0  0  0  0  0  0  0  0  0  0  0  0
    9.3584  -17.4915   16.2884 C   0  0  0  0  0  0  0  0  0  0  0  0
    9.3806  -18.8034   17.1114 C   0  0  2  0  0  0  0  0  0  0  0  0
    8.3032  -19.6551   16.5930 N   0  0  0  0  0  0  0  0  0  0  0  0
    9.0087  -18.3372   18.5113 C   0  0  0  0  0  0  0  0  0  0  0  0
    8.2144  -17.3862   18.5260 O   0  0  0  0  0  0  0  0  0  0  0  0
   10.2784  -17.9378   10.2595 O   0  0  0  0  0  0  0  0  0  0  0  0
   11.0255  -20.3529   21.7085 C   0  0  0  0  0  0  0  0  0  0  0  0
    9.6838  -20.0787   21.8194 C   0  0  1  0  0  0  0  0  0  0  0  0
    9.2386  -18.8715   20.9544 N   0  0  0  0  0  0  0  0  0  0  0  0
    9.5776  -18.9999   19.5925 C   0  0  0  0  0  0  0  0  0  0  0  0
    9.7775  -17.6398   21.5164 O   0  0  0  0  0  0  0  0  0  0  0  0
   10.8990  -17.1867   21.0874 N   0  0  0  0  0  0  0  0  0  0  0  0
    9.1940  -16.8353   22.5266 C   0  0  1  0  0  0  0  0  0  0  0  0
    9.8741  -15.6774   23.0341 C   0  0  0  0  0  0  0  0  0  0  0  0
    8.8036  -14.5680   23.1180 C   0  0  0  0  0  0  0  0  0  0  0  0
    8.3971  -14.0695   21.8016 C   0  0  0  0  0  0  0  0  0  0  0  0
    9.2252  -13.3467   20.9480 C   0  0  0  0  0  0  0  0  0  0  0  0
    8.7679  -12.9223   19.7257 C   0  0  0  0  0  0  0  0  0  0  0  0
    7.4883  -13.1945   19.3141 C   0  0  0  0  0  0  0  0  0  0  0  0
    6.6339  -13.9002   20.1171 C   0  0  0  0  0  0  0  0  0  0  0  0
    7.1225  -14.3215   21.3524 C   0  0  0  0  0  0  0  0  0  0  0  0
   10.4291  -15.8745   24.3756 O   0  0  0  0  0  0  0  0  0  0  0  0
   10.0695  -17.0719   25.0193 O   0  0  0  0  0  0  0  0  0  0  0  0
  1  2  1  0
  2  4  1  0
  2  3  2  0
  4  5  1  0
  6  5  1  0
  7  6  1  0
  8  7  1  0
  8  9  1  6
 10  8  1  0
 11 10  2  0
 13 12  1  0
 14 13  1  6
 14 16  1  0
 14 15  1  0
 15 10  1  0
 16 18  1  0
 17 16  2  0
 18 19  1  0
 19 27  1  0
 20 21  1  0
 19 20  1  1
 21 26  2  0
 22 23  2  0
 22 21  1  0
 23 24  1  0
 24 25  2  0
 26 25  1  0
 27 29  2  0
 27 28  1  0
M  END
$$$$
