RSF.pdb
     RDKit          3D

 29 29  0  0  1  0  0  0  0  0999 V2000
    7.9253  -13.2756   14.7988 N   0  0  0  0  0  0  0  0  0  0  0  0
    8.5165  -14.5023   15.1698 C   0  0  0  0  0  0  0  0  0  0  0  0
    8.7147  -15.4689   14.3520 N   0  0  0  0  0  0  0  0  0  0  0  0
    8.9122  -14.6527   16.5289 N   0  0  0  0  0  0  0  0  0  0  0  0
    8.7242  -13.6169   17.5144 C   0  0  0  0  0  0  0  0  0  0  0  0
    7.3356  -13.8784   18.1289 C   0  0  0  0  0  0  0  0  0  0  0  0
    7.4217  -13.9588   19.6172 C   0  0  0  0  0  0  0  0  0  0  0  0
    8.7489  -14.6745   19.9711 C   0  0  2  0  0  0  0  0  0  0  0  0
    8.8733  -15.8232   19.0657 N   0  0  0  0  0  0  0  0  0  0  0  0
    8.4982  -15.1854   21.3823 C   0  0  0  0  0  0  0  0  0  0  0  0
    8.0146  -14.3346   22.1425 O   0  0  0  0  0  0  0  0  0  0  0  0
    9.1945  -16.3445   14.5917 O   0  0  0  0  0  0  0  0  0  0  0  0
   10.2843  -18.9413   22.3346 C   0  0  0  0  0  0  0  0  0  0  0  0
    9.0211  -18.6918   22.8141 C   0  0  1  0  0  0  0  0  0  0  0  0
    8.6924  -17.1790   22.8973 N   0  0  0  0  0  0  0  0  0  0  0  0
    8.8260  -16.5058   21.6663 C   0  0  0  0  0  0  0  0  0  0  0  0
    9.5104  -16.5549   23.9291 O   0  0  0  0  0  0  0  0  0  0  0  0
   10.6800  -16.1186   23.6310 N   0  0  0  0  0  0  0  0  0  0  0  0
    9.1645  -16.3563   25.2889 C   0  0  1  0  0  0  0  0  0  0  0  0
   10.1506  -15.9533   26.2512 C   0  0  0  0  0  0  0  0  0  0  0  0
   10.3151  -14.4292   26.0670 C   0  0  0  0  0  0  0  0  0  0  0  0
    9.0620  -13.6947   26.2596 C   0  0  0  0  0  0  0  0  0  0  0  0
    8.7511  -12.9624   27.4014 C   0  0  0  0  0  0  0  0  0  0  0  0
    7.5556  -12.2955   27.4989 C   0  0  0  0  0  0  0  0  0  0  0  0
    6.6375  -12.3338   26.4807 C   0  0  0  0  0  0  0  0  0  0  0  0
    6.8945  -13.0411   25.3377 C   0  0  0  0  0  0  0  0  0  0  0  0
    8.1158  -13.7080   25.2623 C   0  0  0  0  0  0  0  0  0  0  0  0
    9.7423  -16.2014   27.6361 O   0  0  0  0  0  0  0  0  0  0  0  0
   10.6968  -15.8946   28.6222 O   0  0  0  0  0  0  0  0  0  0  0  0
  1  2  1  0
  2  4  1  0
  2  3  2  0
  4  5  1  0
  6  5  1  0
  7  6  1  0
  8  7  1  0
  8  9  1  6
 10  8  1  0
 11 10  2  0
 13 12  1  0
 14 13  1  6
 14 16  1  0
 14 15  1  0
 15 10  1  0
 16 18  1  0
 17 16  2  0
 18 19  1  0
 19 27  1  0
 20 21  1  0
 19 20  1  1
 21 26  2  0
 22 23  2  0
 22 21  1  0
 23 24  1  0
 24 25  2  0
 26 25  1  0
 27 29  2  0
 27 28  1  0
M  END
$$$$
