RSF.pdb
     RDKit          3D

 29 29  0  0  1  0  0  0  0  0999 V2000
   10.5148  -12.9181   19.2727 N   0  0  0  0  0  0  0  0  0  0  0  0
    9.1057  -12.8483   19.3141 C   0  0  0  0  0  0  0  0  0  0  0  0
    8.4441  -11.7688   19.1156 N   0  0  0  0  0  0  0  0  0  0  0  0
    8.3992  -14.0535   19.5870 N   0  0  0  0  0  0  0  0  0  0  0  0
    8.4060  -14.6842   20.8838 C   0  0  0  0  0  0  0  0  0  0  0  0
    7.1070  -14.2248   21.5735 C   0  0  0  0  0  0  0  0  0  0  0  0
    6.1604  -15.3679   21.7352 C   0  0  0  0  0  0  0  0  0  0  0  0
    6.9767  -16.6758   21.5878 C   0  0  2  0  0  0  0  0  0  0  0  0
    6.0614  -17.6981   21.0664 N   0  0  0  0  0  0  0  0  0  0  0  0
    7.3335  -17.0224   23.0259 C   0  0  0  0  0  0  0  0  0  0  0  0
    6.3560  -17.0637   23.7864 O   0  0  0  0  0  0  0  0  0  0  0  0
    7.4198  -11.7150   19.0670 O   0  0  0  0  0  0  0  0  0  0  0  0
   11.3378  -18.3289   23.4847 C   0  0  0  0  0  0  0  0  0  0  0  0
   10.3389  -18.7988   24.3028 C   0  0  1  0  0  0  0  0  0  0  0  0
    9.2039  -17.7669   24.5273 N   0  0  0  0  0  0  0  0  0  0  0  0
    8.6706  -17.2479   23.3304 C   0  0  0  0  0  0  0  0  0  0  0  0
    9.6767  -16.6990   25.3986 O   0  0  0  0  0  0  0  0  0  0  0  0
   10.3991  -15.7574   24.9100 N   0  0  0  0  0  0  0  0  0  0  0  0
    9.4295  -16.5571   26.7868 C   0  0  1  0  0  0  0  0  0  0  0  0
   10.2150  -15.6634   27.5899 C   0  0  0  0  0  0  0  0  0  0  0  0
    9.2010  -14.7475   28.3087 C   0  0  0  0  0  0  0  0  0  0  0  0
    8.3501  -14.0010   27.3783 C   0  0  0  0  0  0  0  0  0  0  0  0
    7.1825  -14.5024   26.8107 C   0  0  0  0  0  0  0  0  0  0  0  0
    6.4375  -13.7332   25.9524 C   0  0  0  0  0  0  0  0  0  0  0  0
    6.8216  -12.4568   25.6296 C   0  0  0  0  0  0  0  0  0  0  0  0
    7.9625  -11.9179   26.1596 C   0  0  0  0  0  0  0  0  0  0  0  0
    8.7005  -12.7182   27.0296 C   0  0  0  0  0  0  0  0  0  0  0  0
   11.0090  -16.3506   28.6115 O   0  0  0  0  0  0  0  0  0  0  0  0
   11.7844  -15.5251   29.4450 O   0  0  0  0  0  0  0  0  0  0  0  0
  1  2  1  0
  2  4  1  0
  2  3  2  0
  4  5  1  0
  6  5  1  0
  7  6  1  0
  8  7  1  0
  8  9  1  1
 10  8  1  0
 11 10  2  0
 13 12  1  0
 14 13  1  6
 14 16  1  0
 14 15  1  0
 15 10  1  0
 16 18  1  0
 17 16  2  0
 18 19  1  0
 19 27  1  0
 20 21  1  0
 19 20  1  1
 21 26  2  0
 22 23  2  0
 22 21  1  0
 23 24  1  0
 24 25  2  0
 26 25  1  0
 27 29  2  0
 27 28  1  0
M  END
$$$$
