RSF.pdb
     RDKit          3D

 29 29  0  0  1  0  0  0  0  0999 V2000
   10.9910  -14.3845   20.7064 N   0  0  0  0  0  0  0  0  0  0  0  0
   11.4392  -13.8866   19.4642 C   0  0  0  0  0  0  0  0  0  0  0  0
   12.6265  -14.0660   19.0162 N   0  0  0  0  0  0  0  0  0  0  0  0
   10.5060  -13.1531   18.6787 N   0  0  0  0  0  0  0  0  0  0  0  0
    9.1229  -12.9970   19.0556 C   0  0  0  0  0  0  0  0  0  0  0  0
    8.6758  -14.3795   19.5686 C   0  0  0  0  0  0  0  0  0  0  0  0
    7.2327  -14.3615   19.9502 C   0  0  0  0  0  0  0  0  0  0  0  0
    6.7045  -15.8142   19.8522 C   0  0  2  0  0  0  0  0  0  0  0  0
    5.4711  -15.7712   19.0575 N   0  0  0  0  0  0  0  0  0  0  0  0
    6.3496  -16.1488   21.2936 C   0  0  0  0  0  0  0  0  0  0  0  0
    5.1478  -16.0038   21.5581 O   0  0  0  0  0  0  0  0  0  0  0  0
   12.9453  -13.7804   18.0829 O   0  0  0  0  0  0  0  0  0  0  0  0
    8.6710  -19.0788   22.9010 C   0  0  0  0  0  0  0  0  0  0  0  0
    7.4457  -18.6999   23.3936 C   0  0  1  0  0  0  0  0  0  0  0  0
    7.2479  -17.1623   23.4086 N   0  0  0  0  0  0  0  0  0  0  0  0
    7.3720  -16.5667   22.1373 C   0  0  0  0  0  0  0  0  0  0  0  0
    8.1676  -16.5583   24.3639 O   0  0  0  0  0  0  0  0  0  0  0  0
    9.3419  -16.2120   23.9789 N   0  0  0  0  0  0  0  0  0  0  0  0
    7.9213  -16.2892   25.7333 C   0  0  1  0  0  0  0  0  0  0  0  0
    8.9847  -15.8897   26.6110 C   0  0  0  0  0  0  0  0  0  0  0  0
    8.3227  -15.0152   27.6977 C   0  0  0  0  0  0  0  0  0  0  0  0
    7.6973  -13.8075   27.1526 C   0  0  0  0  0  0  0  0  0  0  0  0
    8.3824  -12.6288   26.8732 C   0  0  0  0  0  0  0  0  0  0  0  0
    7.7215  -11.5432   26.3556 C   0  0  0  0  0  0  0  0  0  0  0  0
    6.3742  -11.5879   26.1029 C   0  0  0  0  0  0  0  0  0  0  0  0
    5.6545  -12.7227   26.3618 C   0  0  0  0  0  0  0  0  0  0  0  0
    6.3488  -13.8118   26.8853 C   0  0  0  0  0  0  0  0  0  0  0  0
    9.6413  -17.0185   27.2749 O   0  0  0  0  0  0  0  0  0  0  0  0
   10.7573  -16.6995   28.0688 O   0  0  0  0  0  0  0  0  0  0  0  0
  1  2  1  0
  2  4  1  0
  2  3  2  0
  4  5  1  0
  6  5  1  0
  7  6  1  0
  8  7  1  0
  8  9  1  6
 10  8  1  0
 11 10  2  0
 13 12  1  0
 14 13  1  6
 14 16  1  0
 14 15  1  0
 15 10  1  0
 16 18  1  0
 17 16  2  0
 18 19  1  0
 19 27  1  0
 20 21  1  0
 19 20  1  1
 21 26  2  0
 22 23  2  0
 22 21  1  0
 23 24  1  0
 24 25  2  0
 26 25  1  0
 27 29  2  0
 27 28  1  0
M  END
$$$$
