RSF.pdb
     RDKit          3D

 29 29  0  0  1  0  0  0  0  0999 V2000
    7.1151  -14.9517   17.2252 N   0  0  0  0  0  0  0  0  0  0  0  0
    8.1956  -14.1786   16.7488 C   0  0  0  0  0  0  0  0  0  0  0  0
    8.2235  -12.8980   16.7926 N   0  0  0  0  0  0  0  0  0  0  0  0
    9.3070  -14.8772   16.1986 N   0  0  0  0  0  0  0  0  0  0  0  0
    9.3190  -16.3087   16.0245 C   0  0  0  0  0  0  0  0  0  0  0  0
    9.4425  -16.8964   17.4435 C   0  0  0  0  0  0  0  0  0  0  0  0
   10.8027  -16.6439   18.0048 C   0  0  0  0  0  0  0  0  0  0  0  0
   10.9120  -17.4269   19.3366 C   0  0  2  0  0  0  0  0  0  0  0  0
    9.9879  -18.5637   19.2449 N   0  0  0  0  0  0  0  0  0  0  0  0
   10.3755  -16.4383   20.3615 C   0  0  0  0  0  0  0  0  0  0  0  0
   11.1776  -15.5411   20.6569 O   0  0  0  0  0  0  0  0  0  0  0  0
    9.0236  -12.3235   16.5028 O   0  0  0  0  0  0  0  0  0  0  0  0
    6.5308  -17.3870   22.4651 C   0  0  0  0  0  0  0  0  0  0  0  0
    6.9409  -16.1655   21.9882 C   0  0  1  0  0  0  0  0  0  0  0  0
    8.4835  -16.0138   21.9575 N   0  0  0  0  0  0  0  0  0  0  0  0
    9.0878  -16.6349   20.8461 C   0  0  0  0  0  0  0  0  0  0  0  0
    9.0500  -16.5054   23.2067 O   0  0  0  0  0  0  0  0  0  0  0  0
    8.7017  -17.6591   23.6482 N   0  0  0  0  0  0  0  0  0  0  0  0
    9.9841  -15.8415   24.0404 C   0  0  2  0  0  0  0  0  0  0  0  0
    9.5474  -15.0468   25.1532 C   0  0  0  0  0  0  0  0  0  0  0  0
    8.3215  -14.2568   24.6465 C   0  0  0  0  0  0  0  0  0  0  0  0
    7.7405  -13.3883   25.6736 C   0  0  0  0  0  0  0  0  0  0  0  0
    6.4265  -12.9299   25.6598 C   0  0  0  0  0  0  0  0  0  0  0  0
    5.9578  -12.1240   26.6669 C   0  0  0  0  0  0  0  0  0  0  0  0
    6.7671  -11.7476   27.7082 C   0  0  0  0  0  0  0  0  0  0  0  0
    8.0674  -12.1700   27.7674 C   0  0  0  0  0  0  0  0  0  0  0  0
    8.5189  -12.9888   26.7340 C   0  0  0  0  0  0  0  0  0  0  0  0
    9.1263  -15.8474   26.3056 O   0  0  0  0  0  0  0  0  0  0  0  0
    8.1297  -16.8075   26.0554 O   0  0  0  0  0  0  0  0  0  0  0  0
  1  2  1  0
  2  4  1  0
  2  3  2  0
  4  5  1  0
  6  5  1  0
  7  6  1  0
  8  7  1  0
  8  9  1  6
 10  8  1  0
 11 10  2  0
 13 12  1  0
 14 13  1  6
 14 16  1  0
 14 15  1  0
 15 10  1  0
 16 18  1  0
 17 16  2  0
 18 19  1  0
 19 27  1  0
 20 21  1  0
 19 20  1  6
 21 26  2  0
 22 23  2  0
 22 21  1  0
 23 24  1  0
 24 25  2  0
 26 25  1  0
 27 29  2  0
 27 28  1  0
M  END
$$$$
