RSF.pdb
     RDKit          3D

 29 29  0  0  1  0  0  0  0  0999 V2000
    9.6800  -14.8158   14.9324 N   0  0  0  0  0  0  0  0  0  0  0  0
    8.4090  -14.2664   14.6589 C   0  0  0  0  0  0  0  0  0  0  0  0
    7.9452  -14.1099   13.4745 N   0  0  0  0  0  0  0  0  0  0  0  0
    7.6122  -13.8762   15.7720 N   0  0  0  0  0  0  0  0  0  0  0  0
    7.7242  -14.4999   17.0673 C   0  0  0  0  0  0  0  0  0  0  0  0
    7.9715  -13.3481   18.0605 C   0  0  0  0  0  0  0  0  0  0  0  0
    7.5761  -13.7473   19.4436 C   0  0  0  0  0  0  0  0  0  0  0  0
    8.7606  -14.5314   20.0610 C   0  0  2  0  0  0  0  0  0  0  0  0
    9.0100  -15.6886   19.1930 N   0  0  0  0  0  0  0  0  0  0  0  0
    8.1945  -15.0227   21.3853 C   0  0  0  0  0  0  0  0  0  0  0  0
    7.7452  -14.1175   22.1024 O   0  0  0  0  0  0  0  0  0  0  0  0
    6.9807  -13.8307   13.2597 O   0  0  0  0  0  0  0  0  0  0  0  0
    9.0576  -19.0560   22.3631 C   0  0  0  0  0  0  0  0  0  0  0  0
    7.7893  -18.6091   22.6448 C   0  0  1  0  0  0  0  0  0  0  0  0
    7.7026  -17.0655   22.7608 N   0  0  0  0  0  0  0  0  0  0  0  0
    8.2383  -16.3868   21.6478 C   0  0  0  0  0  0  0  0  0  0  0  0
    8.3378  -16.6298   23.9977 O   0  0  0  0  0  0  0  0  0  0  0  0
    9.5624  -16.2462   23.9787 N   0  0  0  0  0  0  0  0  0  0  0  0
    7.7488  -16.5709   25.2853 C   0  0  1  0  0  0  0  0  0  0  0  0
    8.5060  -16.1380   26.4254 C   0  0  0  0  0  0  0  0  0  0  0  0
    7.5462  -15.2569   27.2539 C   0  0  0  0  0  0  0  0  0  0  0  0
    7.3800  -13.9138   26.6924 C   0  0  0  0  0  0  0  0  0  0  0  0
    8.3900  -13.2025   26.0516 C   0  0  0  0  0  0  0  0  0  0  0  0
    8.1486  -11.9497   25.5460 C   0  0  0  0  0  0  0  0  0  0  0  0
    6.9130  -11.3654   25.6596 C   0  0  0  0  0  0  0  0  0  0  0  0
    5.8867  -12.0225   26.2824 C   0  0  0  0  0  0  0  0  0  0  0  0
    6.1566  -13.2937   26.7857 C   0  0  0  0  0  0  0  0  0  0  0  0
    8.9543  -17.2438   27.2755 O   0  0  0  0  0  0  0  0  0  0  0  0
    9.8328  -16.8997   28.3183 O   0  0  0  0  0  0  0  0  0  0  0  0
  1  2  1  0
  2  4  1  0
  2  3  2  0
  4  5  1  0
  6  5  1  0
  7  6  1  0
  8  7  1  0
  8  9  1  6
 10  8  1  0
 11 10  2  0
 13 12  1  0
 14 13  1  6
 14 16  1  0
 14 15  1  0
 15 10  1  0
 16 18  1  0
 17 16  2  0
 18 19  1  0
 19 27  1  0
 20 21  1  0
 19 20  1  1
 21 26  2  0
 22 23  2  0
 22 21  1  0
 23 24  1  0
 24 25  2  0
 26 25  1  0
 27 29  2  0
 27 28  1  0
M  END
$$$$
