RSF.pdb
     RDKit          3D

 29 29  0  0  1  0  0  0  0  0999 V2000
    7.0446  -13.4417   13.9416 N   0  0  0  0  0  0  0  0  0  0  0  0
    7.8826  -14.4784   14.4053 C   0  0  0  0  0  0  0  0  0  0  0  0
    7.6579  -15.7213   14.1878 N   0  0  0  0  0  0  0  0  0  0  0  0
    9.0374  -14.1029   15.1478 N   0  0  0  0  0  0  0  0  0  0  0  0
    8.9951  -13.8088   16.5589 C   0  0  0  0  0  0  0  0  0  0  0  0
    7.6490  -14.3690   17.0574 C   0  0  0  0  0  0  0  0  0  0  0  0
    7.4962  -14.1514   18.5264 C   0  0  0  0  0  0  0  0  0  0  0  0
    8.6197  -14.9467   19.2365 C   0  0  2  0  0  0  0  0  0  0  0  0
    8.5718  -16.3182   18.7155 N   0  0  0  0  0  0  0  0  0  0  0  0
    8.1682  -14.9564   20.6896 C   0  0  0  0  0  0  0  0  0  0  0  0
    7.8608  -13.8374   21.1242 O   0  0  0  0  0  0  0  0  0  0  0  0
    8.2960  -16.4821   14.4490 O   0  0  0  0  0  0  0  0  0  0  0  0
    6.9129  -18.6356   22.8376 C   0  0  0  0  0  0  0  0  0  0  0  0
    6.6459  -17.2951   22.9778 C   0  0  1  0  0  0  0  0  0  0  0  0
    7.8866  -16.4005   22.7250 N   0  0  0  0  0  0  0  0  0  0  0  0
    8.1481  -16.1745   21.3586 C   0  0  0  0  0  0  0  0  0  0  0  0
    9.0479  -16.9711   23.3950 O   0  0  0  0  0  0  0  0  0  0  0  0
    9.3514  -18.2021   23.1958 N   0  0  0  0  0  0  0  0  0  0  0  0
    9.9319  -16.3094   24.2832 C   0  0  2  0  0  0  0  0  0  0  0  0
    9.4312  -15.5166   25.3702 C   0  0  0  0  0  0  0  0  0  0  0  0
    8.3945  -14.5584   24.7450 C   0  0  0  0  0  0  0  0  0  0  0  0
    7.8602  -13.5921   25.7081 C   0  0  0  0  0  0  0  0  0  0  0  0
    8.6459  -12.7837   26.5242 C   0  0  0  0  0  0  0  0  0  0  0  0
    8.0647  -11.8973   27.3959 C   0  0  0  0  0  0  0  0  0  0  0  0
    6.7010  -11.7853   27.4888 C   0  0  0  0  0  0  0  0  0  0  0  0
    5.8842  -12.5587   26.7094 C   0  0  0  0  0  0  0  0  0  0  0  0
    6.4984  -13.4497   25.8312 C   0  0  0  0  0  0  0  0  0  0  0  0
    8.7536  -16.3089   26.3995 O   0  0  0  0  0  0  0  0  0  0  0  0
    9.2869  -16.2146   27.6973 O   0  0  0  0  0  0  0  0  0  0  0  0
  1  2  1  0
  2  4  1  0
  2  3  2  0
  4  5  1  0
  6  5  1  0
  7  6  1  0
  8  7  1  0
  8  9  1  6
 10  8  1  0
 11 10  2  0
 13 12  1  0
 14 13  1  1
 14 16  1  0
 14 15  1  0
 15 10  1  0
 16 18  1  0
 17 16  2  0
 18 19  1  0
 19 27  1  0
 20 21  1  0
 19 20  1  6
 21 26  2  0
 22 23  2  0
 22 21  1  0
 23 24  1  0
 24 25  2  0
 26 25  1  0
 27 29  2  0
 27 28  1  0
M  END
$$$$
