FDS.pdb
     RDKit          3D

 26 26  0  0  1  0  0  0  0  0999 V2000
   25.8675   -8.4604  -16.3805 N   0  0  0  0  0  0  0  0  0  0  0  0
   24.8910   -9.5122  -16.2753 C   0  0  1  0  0  0  0  0  0  0  0  0
   25.3834  -10.6629  -15.4263 C   0  0  0  0  0  0  0  0  0  0  0  0
   26.5358  -11.3637  -15.9961 C   0  0  0  0  0  0  0  0  0  0  0  0
   26.3731  -12.2744  -17.0075 C   0  0  0  0  0  0  0  0  0  0  0  0
   27.4720  -12.9471  -17.5550 C   0  0  0  0  0  0  0  0  0  0  0  0
   28.7180  -12.6806  -17.0629 C   0  0  0  0  0  0  0  0  0  0  0  0
   28.9046  -11.7697  -16.0473 C   0  0  0  0  0  0  0  0  0  0  0  0
   27.7969  -11.1121  -15.5176 C   0  0  0  0  0  0  0  0  0  0  0  0
   23.6769   -8.9808  -15.6272 C   0  0  0  0  0  0  0  0  0  0  0  0
   23.7668   -8.1209  -14.7337 O   0  0  0  0  0  0  0  0  0  0  0  0
   22.4117   -9.4416  -16.0143 N   0  0  0  0  0  0  0  0  0  0  0  0
   21.1628   -8.9382  -15.4984 C   0  0  1  0  0  0  0  0  0  0  0  0
   21.0975   -7.4534  -15.4183 C   0  0  0  0  0  0  0  0  0  0  0  0
   19.8162   -6.9163  -14.9617 C   0  0  0  0  0  0  0  0  0  0  0  0
   19.3970   -7.2989  -13.8300 O   0  0  0  0  0  0  0  0  0  0  0  0
   20.0575   -9.5490  -16.2532 C   0  0  0  0  0  0  0  0  0  0  0  0
   19.8330   -9.2692  -17.4601 O   0  0  0  0  0  0  0  0  0  0  0  0
   19.0169   -6.0288  -15.6492 O   0  0  0  0  0  0  0  0  0  0  0  0
   17.6009  -12.2071  -14.3317 O   0  0  0  0  0  0  0  0  0  0  0  0
   17.7922  -12.4477  -15.7051 C   0  0  0  0  0  0  0  0  0  0  0  0
   18.1168  -11.1461  -16.4317 C   0  0  2  0  0  0  0  0  0  0  0  0
   19.1615  -10.5057  -15.6603 N   0  0  0  0  0  0  0  0  0  0  0  0
   16.9302  -10.2774  -16.4421 C   0  0  0  0  0  0  0  0  0  0  0  0
   15.8084  -10.5693  -17.1976 O   0  0  0  0  0  0  0  0  0  0  0  0
   16.9230   -9.2349  -15.7475 O   0  0  0  0  0  0  0  0  0  0  0  0
  2  1  1  1
  2 10  1  0
  3  2  1  0
  4  5  2  0
  4  3  1  0
  6  5  1  0
  7  6  2  0
  8  7  1  0
  8  9  2  0
  9  4  1  0
 10 11  2  0
 10 12  1  0
 12 13  1  0
 13 14  1  6
 14 15  1  0
 15 16  2  0
 15 19  1  0
 17 13  1  0
 17 18  2  0
 20 21  1  0
 22 21  1  1
 22 24  1  0
 22 23  1  0
 23 17  1  0
 24 25  1  0
 26 24  2  0
M  END
$$$$
