FDS.pdb
     RDKit          3D

 26 26  0  0  1  0  0  0  0  0999 V2000
   27.5549  -21.8808  -12.9154 N   0  0  0  0  0  0  0  0  0  0  0  0
   26.3802  -21.4868  -12.1835 C   0  0  1  0  0  0  0  0  0  0  0  0
   26.6350  -20.2836  -11.3034 C   0  0  0  0  0  0  0  0  0  0  0  0
   27.5087  -20.5634  -10.1623 C   0  0  0  0  0  0  0  0  0  0  0  0
   28.8329  -20.8636  -10.3498 C   0  0  0  0  0  0  0  0  0  0  0  0
   29.6718  -21.1321   -9.2617 C   0  0  0  0  0  0  0  0  0  0  0  0
   29.1475  -21.0904   -8.0011 C   0  0  0  0  0  0  0  0  0  0  0  0
   27.8202  -20.7911   -7.7896 C   0  0  0  0  0  0  0  0  0  0  0  0
   27.0040  -20.5273   -8.8869 C   0  0  0  0  0  0  0  0  0  0  0  0
   25.3197  -21.1117  -13.1381 C   0  0  0  0  0  0  0  0  0  0  0  0
   25.5828  -20.3958  -14.1199 O   0  0  0  0  0  0  0  0  0  0  0  0
   24.0065  -21.5601  -12.9453 N   0  0  0  0  0  0  0  0  0  0  0  0
   22.9295  -21.3712  -13.8852 C   0  0  1  0  0  0  0  0  0  0  0  0
   22.7312  -22.5170  -14.8143 C   0  0  0  0  0  0  0  0  0  0  0  0
   23.3456  -22.3562  -16.1316 C   0  0  0  0  0  0  0  0  0  0  0  0
   23.1512  -21.2589  -16.7324 O   0  0  0  0  0  0  0  0  0  0  0  0
   21.7189  -20.9792  -13.1466 C   0  0  0  0  0  0  0  0  0  0  0  0
   21.3162  -21.6100  -12.1341 O   0  0  0  0  0  0  0  0  0  0  0  0
   24.1204  -23.2899  -16.7853 O   0  0  0  0  0  0  0  0  0  0  0  0
   17.9464  -17.8565  -12.9159 O   0  0  0  0  0  0  0  0  0  0  0  0
   19.1839  -18.2244  -13.4762 C   0  0  0  0  0  0  0  0  0  0  0  0
   19.6957  -19.5103  -12.8344 C   0  0  2  0  0  0  0  0  0  0  0  0
   20.9172  -19.8494  -13.5342 N   0  0  0  0  0  0  0  0  0  0  0  0
   18.7149  -20.5873  -13.0367 C   0  0  0  0  0  0  0  0  0  0  0  0
   17.8358  -20.9810  -12.0434 O   0  0  0  0  0  0  0  0  0  0  0  0
   18.6640  -21.1756  -14.1414 O   0  0  0  0  0  0  0  0  0  0  0  0
  2  1  1  6
  2 10  1  0
  3  2  1  0
  4  5  2  0
  4  3  1  0
  6  5  1  0
  7  6  2  0
  8  7  1  0
  8  9  2  0
  9  4  1  0
 10 11  2  0
 10 12  1  0
 12 13  1  0
 13 14  1  1
 14 15  1  0
 15 16  2  0
 15 19  1  0
 17 13  1  0
 17 18  2  0
 20 21  1  0
 22 21  1  6
 22 24  1  0
 22 23  1  0
 23 17  1  0
 24 25  1  0
 26 24  2  0
M  END
$$$$
