FDS.pdb
     RDKit          3D

 26 26  0  0  1  0  0  0  0  0999 V2000
   27.3335  -22.3880   -8.6610 N   0  0  0  0  0  0  0  0  0  0  0  0
   26.7257  -21.1048   -8.8952 C   0  0  1  0  0  0  0  0  0  0  0  0
   27.7047  -19.9681   -8.7042 C   0  0  0  0  0  0  0  0  0  0  0  0
   28.0214  -19.6935   -7.3013 C   0  0  0  0  0  0  0  0  0  0  0  0
   28.9909  -20.4091   -6.6480 C   0  0  0  0  0  0  0  0  0  0  0  0
   29.2968  -20.1502   -5.3067 C   0  0  0  0  0  0  0  0  0  0  0  0
   28.6099  -19.1667   -4.6535 C   0  0  0  0  0  0  0  0  0  0  0  0
   27.6322  -18.4355   -5.2902 C   0  0  0  0  0  0  0  0  0  0  0  0
   27.3444  -18.7102   -6.6249 C   0  0  0  0  0  0  0  0  0  0  0  0
   26.2522  -21.0422  -10.2911 C   0  0  0  0  0  0  0  0  0  0  0  0
   26.8710  -21.6356  -11.1915 O   0  0  0  0  0  0  0  0  0  0  0  0
   25.1003  -20.3128  -10.6129 N   0  0  0  0  0  0  0  0  0  0  0  0
   24.4758  -20.2982  -11.9126 C   0  0  1  0  0  0  0  0  0  0  0  0
   23.0253  -19.9659  -11.8816 C   0  0  0  0  0  0  0  0  0  0  0  0
   22.1862  -20.9325  -11.1742 C   0  0  0  0  0  0  0  0  0  0  0  0
   22.2826  -22.1466  -11.5197 O   0  0  0  0  0  0  0  0  0  0  0  0
   25.2693  -19.4445  -12.8104 C   0  0  0  0  0  0  0  0  0  0  0  0
   25.5710  -18.2580  -12.5161 O   0  0  0  0  0  0  0  0  0  0  0  0
   21.2958  -20.6468  -10.1619 O   0  0  0  0  0  0  0  0  0  0  0  0
   27.6885  -19.0974  -17.0451 O   0  0  0  0  0  0  0  0  0  0  0  0
   27.0755  -19.8898  -16.0567 C   0  0  0  0  0  0  0  0  0  0  0  0
   26.3508  -19.0085  -15.0440 C   0  0  2  0  0  0  0  0  0  0  0  0
   25.7519  -19.9108  -14.0828 N   0  0  0  0  0  0  0  0  0  0  0  0
   25.2843  -18.2544  -15.7199 C   0  0  0  0  0  0  0  0  0  0  0  0
   25.4617  -16.9524  -16.1530 O   0  0  0  0  0  0  0  0  0  0  0  0
   24.1732  -18.7987  -15.9158 O   0  0  0  0  0  0  0  0  0  0  0  0
  2  1  1  6
  2 10  1  0
  3  2  1  0
  4  5  2  0
  4  3  1  0
  6  5  1  0
  7  6  2  0
  8  7  1  0
  8  9  2  0
  9  4  1  0
 10 11  2  0
 10 12  1  0
 12 13  1  0
 13 14  1  1
 14 15  1  0
 15 16  2  0
 15 19  1  0
 17 13  1  0
 17 18  2  0
 20 21  1  0
 22 21  1  6
 22 24  1  0
 22 23  1  0
 23 17  1  0
 24 25  1  0
 26 24  2  0
M  END
$$$$
