FDS.pdb
     RDKit          3D

 26 26  0  0  1  0  0  0  0  0999 V2000
   23.5035  -13.0512  -18.6171 N   0  0  0  0  0  0  0  0  0  0  0  0
   23.4051  -12.3300  -17.3757 C   0  0  1  0  0  0  0  0  0  0  0  0
   24.7641  -11.9965  -16.8021 C   0  0  0  0  0  0  0  0  0  0  0  0
   25.5627  -13.1743  -16.4575 C   0  0  0  0  0  0  0  0  0  0  0  0
   25.3947  -13.8078  -15.2536 C   0  0  0  0  0  0  0  0  0  0  0  0
   26.1563  -14.9341  -14.9197 C   0  0  0  0  0  0  0  0  0  0  0  0
   27.0760  -15.3958  -15.8178 C   0  0  0  0  0  0  0  0  0  0  0  0
   27.2613  -14.7750  -17.0328 C   0  0  0  0  0  0  0  0  0  0  0  0
   26.4926  -13.6560  -17.3439 C   0  0  0  0  0  0  0  0  0  0  0  0
   22.7069  -11.0523  -17.6136 C   0  0  0  0  0  0  0  0  0  0  0  0
   22.5760  -10.6137  -18.7695 O   0  0  0  0  0  0  0  0  0  0  0  0
   22.1856  -10.3225  -16.5373 N   0  0  0  0  0  0  0  0  0  0  0  0
   21.3613   -9.1465  -16.6670 C   0  0  1  0  0  0  0  0  0  0  0  0
   19.9058   -9.4079  -16.4978 C   0  0  0  0  0  0  0  0  0  0  0  0
   19.0536   -8.2218  -16.5733 C   0  0  0  0  0  0  0  0  0  0  0  0
   18.3395   -7.9553  -15.5625 O   0  0  0  0  0  0  0  0  0  0  0  0
   21.8906   -8.0967  -15.7825 C   0  0  0  0  0  0  0  0  0  0  0  0
   22.2879   -8.3411  -14.6130 O   0  0  0  0  0  0  0  0  0  0  0  0
   18.9528   -7.3617  -17.6454 O   0  0  0  0  0  0  0  0  0  0  0  0
   24.1635   -5.0318  -16.8839 O   0  0  0  0  0  0  0  0  0  0  0  0
   23.0229   -4.5830  -16.1923 C   0  0  0  0  0  0  0  0  0  0  0  0
   22.4715   -5.6924  -15.3019 C   0  0  2  0  0  0  0  0  0  0  0  0
   21.9883   -6.7227  -16.1973 N   0  0  0  0  0  0  0  0  0  0  0  0
   21.3422   -5.1771  -14.5133 C   0  0  0  0  0  0  0  0  0  0  0  0
   21.5245   -4.3849  -13.3937 O   0  0  0  0  0  0  0  0  0  0  0  0
   20.1708   -5.4581  -14.8570 O   0  0  0  0  0  0  0  0  0  0  0  0
  2  1  1  6
  2 10  1  0
  3  2  1  0
  4  5  2  0
  4  3  1  0
  6  5  1  0
  7  6  2  0
  8  7  1  0
  8  9  2  0
  9  4  1  0
 10 11  2  0
 10 12  1  0
 12 13  1  0
 13 14  1  1
 14 15  1  0
 15 16  2  0
 15 19  1  0
 17 13  1  0
 17 18  2  0
 20 21  1  0
 22 21  1  6
 22 24  1  0
 22 23  1  0
 23 17  1  0
 24 25  1  0
 26 24  2  0
M  END
$$$$
