FDS.pdb
     RDKit          3D

 26 26  0  0  1  0  0  0  0  0999 V2000
   27.9958  -19.4749  -16.4553 N   0  0  0  0  0  0  0  0  0  0  0  0
   27.2732  -18.7065  -15.4764 C   0  0  1  0  0  0  0  0  0  0  0  0
   26.3719  -17.6740  -16.1158 C   0  0  0  0  0  0  0  0  0  0  0  0
   27.0971  -16.5709  -16.7491 C   0  0  0  0  0  0  0  0  0  0  0  0
   27.3907  -16.6013  -18.0876 C   0  0  0  0  0  0  0  0  0  0  0  0
   28.0842  -15.5490  -18.6972 C   0  0  0  0  0  0  0  0  0  0  0  0
   28.4668  -14.4835  -17.9329 C   0  0  0  0  0  0  0  0  0  0  0  0
   28.1824  -14.4321  -16.5866 C   0  0  0  0  0  0  0  0  0  0  0  0
   27.4915  -15.4903  -16.0012 C   0  0  0  0  0  0  0  0  0  0  0  0
   26.4114  -19.6115  -14.6923 C   0  0  0  0  0  0  0  0  0  0  0  0
   25.9389  -20.6368  -15.2130 O   0  0  0  0  0  0  0  0  0  0  0  0
   26.1185  -19.3219  -13.3532 N   0  0  0  0  0  0  0  0  0  0  0  0
   25.2699  -20.1244  -12.5077 C   0  0  1  0  0  0  0  0  0  0  0  0
   25.6876  -20.1456  -11.0792 C   0  0  0  0  0  0  0  0  0  0  0  0
   25.7721  -21.4776  -10.4812 C   0  0  0  0  0  0  0  0  0  0  0  0
   26.9184  -21.8841  -10.1298 O   0  0  0  0  0  0  0  0  0  0  0  0
   23.8712  -19.7203  -12.7193 C   0  0  0  0  0  0  0  0  0  0  0  0
   23.5589  -18.5734  -13.1345 O   0  0  0  0  0  0  0  0  0  0  0  0
   24.7175  -22.3374  -10.2625 O   0  0  0  0  0  0  0  0  0  0  0  0
   21.6353  -19.8599  -15.5604 O   0  0  0  0  0  0  0  0  0  0  0  0
   21.9748  -20.9085  -14.6852 C   0  0  0  0  0  0  0  0  0  0  0  0
   21.5590  -20.5643  -13.2583 C   0  0  2  0  0  0  0  0  0  0  0  0
   22.7697  -20.6102  -12.4654 N   0  0  0  0  0  0  0  0  0  0  0  0
   20.6220  -21.5815  -12.7581 C   0  0  0  0  0  0  0  0  0  0  0  0
   19.2905  -21.2994  -12.5090 O   0  0  0  0  0  0  0  0  0  0  0  0
   21.0314  -22.7463  -12.5467 O   0  0  0  0  0  0  0  0  0  0  0  0
  2  1  1  6
  2 10  1  0
  3  2  1  0
  4  5  2  0
  4  3  1  0
  6  5  1  0
  7  6  2  0
  8  7  1  0
  8  9  2  0
  9  4  1  0
 10 11  2  0
 10 12  1  0
 12 13  1  0
 13 14  1  1
 14 15  1  0
 15 16  2  0
 15 19  1  0
 17 13  1  0
 17 18  2  0
 20 21  1  0
 22 21  1  6
 22 24  1  0
 22 23  1  0
 23 17  1  0
 24 25  1  0
 26 24  2  0
M  END
$$$$
