FDS.pdb
     RDKit          3D

 26 26  0  0  1  0  0  0  0  0999 V2000
   36.6209  -23.1075    5.0208 N   0  0  0  0  0  0  0  0  0  0  0  0
   35.5958  -23.8280    5.7285 C   0  0  1  0  0  0  0  0  0  0  0  0
   34.2576  -23.7482    5.0284 C   0  0  0  0  0  0  0  0  0  0  0  0
   33.5969  -22.4491    5.1679 C   0  0  0  0  0  0  0  0  0  0  0  0
   33.2981  -21.6920    4.0650 C   0  0  0  0  0  0  0  0  0  0  0  0
   32.6667  -20.4492    4.1937 C   0  0  0  0  0  0  0  0  0  0  0  0
   32.3503  -19.9986    5.4437 C   0  0  0  0  0  0  0  0  0  0  0  0
   32.6412  -20.7425    6.5654 C   0  0  0  0  0  0  0  0  0  0  0  0
   33.2697  -21.9761    6.4137 C   0  0  0  0  0  0  0  0  0  0  0  0
   35.9674  -25.2541    5.7970 C   0  0  0  0  0  0  0  0  0  0  0  0
   36.7411  -25.7427    4.9552 O   0  0  0  0  0  0  0  0  0  0  0  0
   35.4508  -26.0695    6.8123 N   0  0  0  0  0  0  0  0  0  0  0  0
   35.8409  -27.4385    7.0423 C   0  0  1  0  0  0  0  0  0  0  0  0
   35.3983  -27.9796    8.3564 C   0  0  0  0  0  0  0  0  0  0  0  0
   35.8650  -29.3331    8.6546 C   0  0  0  0  0  0  0  0  0  0  0  0
   35.1302  -30.0500    9.3955 O   0  0  0  0  0  0  0  0  0  0  0  0
   35.4263  -28.2501    5.8873 C   0  0  0  0  0  0  0  0  0  0  0  0
   34.4537  -27.9288    5.1551 O   0  0  0  0  0  0  0  0  0  0  0  0
   37.0345  -29.9061    8.2038 O   0  0  0  0  0  0  0  0  0  0  0  0
   37.0987  -30.1740    2.1000 O   0  0  0  0  0  0  0  0  0  0  0  0
   37.1736  -29.6526    3.4051 C   0  0  0  0  0  0  0  0  0  0  0  0
   35.9426  -30.0581    4.2099 C   0  0  2  0  0  0  0  0  0  0  0  0
   36.1060  -29.4636    5.5201 N   0  0  0  0  0  0  0  0  0  0  0  0
   35.9050  -31.5214    4.3510 C   0  0  0  0  0  0  0  0  0  0  0  0
   35.4260  -32.3474    3.3495 O   0  0  0  0  0  0  0  0  0  0  0  0
   36.3178  -32.0499    5.4090 O   0  0  0  0  0  0  0  0  0  0  0  0
  2  1  1  6
  2 10  1  0
  3  2  1  0
  4  5  2  0
  4  3  1  0
  6  5  1  0
  7  6  2  0
  8  7  1  0
  8  9  2  0
  9  4  1  0
 10 11  2  0
 10 12  1  0
 12 13  1  0
 13 14  1  1
 14 15  1  0
 15 16  2  0
 15 19  1  0
 17 13  1  0
 17 18  2  0
 20 21  1  0
 22 21  1  6
 22 24  1  0
 22 23  1  0
 23 17  1  0
 24 25  1  0
 26 24  2  0
M  END
$$$$
