FDS.pdb
     RDKit          3D

 26 26  0  0  1  0  0  0  0  0999 V2000
   24.4697  -35.5206   -5.9691 N   0  0  0  0  0  0  0  0  0  0  0  0
   25.9056  -35.5871   -5.9030 C   0  0  1  0  0  0  0  0  0  0  0  0
   26.5329  -34.2180   -5.7645 C   0  0  0  0  0  0  0  0  0  0  0  0
   26.2878  -33.3396   -6.9100 C   0  0  0  0  0  0  0  0  0  0  0  0
   25.1521  -32.5752   -6.9774 C   0  0  0  0  0  0  0  0  0  0  0  0
   24.9135  -31.7342   -8.0709 C   0  0  0  0  0  0  0  0  0  0  0  0
   25.8360  -31.6862   -9.0771 C   0  0  0  0  0  0  0  0  0  0  0  0
   26.9838  -32.4454   -9.0301 C   0  0  0  0  0  0  0  0  0  0  0  0
   27.2005  -33.2750   -7.9325 C   0  0  0  0  0  0  0  0  0  0  0  0
   26.2987  -36.3688   -4.7151 C   0  0  0  0  0  0  0  0  0  0  0  0
   25.4694  -36.6136   -3.8217 O   0  0  0  0  0  0  0  0  0  0  0  0
   27.6109  -36.8416   -4.5846 N   0  0  0  0  0  0  0  0  0  0  0  0
   28.0590  -37.7414   -3.5508 C   0  0  1  0  0  0  0  0  0  0  0  0
   29.2338  -38.5691   -3.9384 C   0  0  0  0  0  0  0  0  0  0  0  0
   29.0057  -39.4747   -5.0638 C   0  0  0  0  0  0  0  0  0  0  0  0
   27.8912  -40.0735   -5.1098 O   0  0  0  0  0  0  0  0  0  0  0  0
   28.2448  -36.9790   -2.3063 C   0  0  0  0  0  0  0  0  0  0  0  0
   28.8970  -35.9026   -2.2691 O   0  0  0  0  0  0  0  0  0  0  0  0
   29.8926  -39.7401   -6.0847 O   0  0  0  0  0  0  0  0  0  0  0  0
   25.6311  -36.0881    0.5072 O   0  0  0  0  0  0  0  0  0  0  0  0
   26.6851  -36.8613    1.0288 C   0  0  0  0  0  0  0  0  0  0  0  0
   27.9399  -36.6907    0.1782 C   0  0  2  0  0  0  0  0  0  0  0  0
   27.6927  -37.4145   -1.0513 N   0  0  0  0  0  0  0  0  0  0  0  0
   29.0892  -37.2974    0.8665 C   0  0  0  0  0  0  0  0  0  0  0  0
   29.8037  -38.3500    0.3226 O   0  0  0  0  0  0  0  0  0  0  0  0
   29.4429  -36.8548    1.9838 O   0  0  0  0  0  0  0  0  0  0  0  0
  2  1  1  1
  2 10  1  0
  3  2  1  0
  4  5  2  0
  4  3  1  0
  6  5  1  0
  7  6  2  0
  8  7  1  0
  8  9  2  0
  9  4  1  0
 10 11  2  0
 10 12  1  0
 12 13  1  0
 13 14  1  6
 14 15  1  0
 15 16  2  0
 15 19  1  0
 17 13  1  0
 17 18  2  0
 20 21  1  0
 22 21  1  1
 22 24  1  0
 22 23  1  0
 23 17  1  0
 24 25  1  0
 26 24  2  0
M  END
$$$$
