FDS.pdb
     RDKit          3D

 26 26  0  0  1  0  0  0  0  0999 V2000
   20.3777  -11.3943  -17.7701 N   0  0  0  0  0  0  0  0  0  0  0  0
   21.1302  -10.2009  -18.0534 C   0  0  1  0  0  0  0  0  0  0  0  0
   20.8184   -9.6436  -19.4243 C   0  0  0  0  0  0  0  0  0  0  0  0
   21.1418  -10.5599  -20.5196 C   0  0  0  0  0  0  0  0  0  0  0  0
   20.1512  -11.2298  -21.1894 C   0  0  0  0  0  0  0  0  0  0  0  0
   20.4559  -12.1070  -22.2370 C   0  0  0  0  0  0  0  0  0  0  0  0
   21.7645  -12.2869  -22.5846 C   0  0  0  0  0  0  0  0  0  0  0  0
   22.7757  -11.6243  -21.9254 C   0  0  0  0  0  0  0  0  0  0  0  0
   22.4494  -10.7563  -20.8862 C   0  0  0  0  0  0  0  0  0  0  0  0
   20.7748   -9.1609  -17.0691 C   0  0  0  0  0  0  0  0  0  0  0  0
   19.6753   -9.1938  -16.4898 O   0  0  0  0  0  0  0  0  0  0  0  0
   21.6749   -8.1272  -16.7794 N   0  0  0  0  0  0  0  0  0  0  0  0
   21.3954   -7.0195  -15.8996 C   0  0  1  0  0  0  0  0  0  0  0  0
   22.3606   -6.8835  -14.7747 C   0  0  0  0  0  0  0  0  0  0  0  0
   22.1015   -5.7625  -13.8720 C   0  0  0  0  0  0  0  0  0  0  0  0
   21.2157   -5.9267  -12.9826 O   0  0  0  0  0  0  0  0  0  0  0  0
   21.2381   -5.8001  -16.7077 C   0  0  0  0  0  0  0  0  0  0  0  0
   22.1827   -5.3171  -17.3857 O   0  0  0  0  0  0  0  0  0  0  0  0
   22.7327   -4.5377  -13.8970 O   0  0  0  0  0  0  0  0  0  0  0  0
   17.5808   -4.0256  -16.7886 O   0  0  0  0  0  0  0  0  0  0  0  0
   18.3700   -3.7843  -17.9286 C   0  0  0  0  0  0  0  0  0  0  0  0
   19.8517   -3.8851  -17.5793 C   0  0  2  0  0  0  0  0  0  0  0  0
   19.9940   -5.0810  -16.7753 N   0  0  0  0  0  0  0  0  0  0  0  0
   20.2498   -2.7195  -16.7757 C   0  0  0  0  0  0  0  0  0  0  0  0
   20.6250   -2.8314  -15.4486 O   0  0  0  0  0  0  0  0  0  0  0  0
   20.2534   -1.5816  -17.2994 O   0  0  0  0  0  0  0  0  0  0  0  0
  2  1  1  1
  2 10  1  0
  3  2  1  0
  4  5  2  0
  4  3  1  0
  6  5  1  0
  7  6  2  0
  8  7  1  0
  8  9  2  0
  9  4  1  0
 10 11  2  0
 10 12  1  0
 12 13  1  0
 13 14  1  1
 14 15  1  0
 15 16  2  0
 15 19  1  0
 17 13  1  0
 17 18  2  0
 20 21  1  0
 22 21  1  1
 22 24  1  0
 22 23  1  0
 23 17  1  0
 24 25  1  0
 26 24  2  0
M  END
$$$$
