FDS.pdb
     RDKit          3D

 26 26  0  0  1  0  0  0  0  0999 V2000
   24.6962  -16.4362  -18.6113 N   0  0  0  0  0  0  0  0  0  0  0  0
   23.5734  -17.3300  -18.7178 C   0  0  1  0  0  0  0  0  0  0  0  0
   23.9854  -18.7079  -19.1858 C   0  0  0  0  0  0  0  0  0  0  0  0
   24.4392  -18.7456  -20.5774 C   0  0  0  0  0  0  0  0  0  0  0  0
   25.7750  -18.6984  -20.8812 C   0  0  0  0  0  0  0  0  0  0  0  0
   26.2133  -18.7339  -22.2102 C   0  0  0  0  0  0  0  0  0  0  0  0
   25.2835  -18.8168  -23.2074 C   0  0  0  0  0  0  0  0  0  0  0  0
   23.9366  -18.8654  -22.9252 C   0  0  0  0  0  0  0  0  0  0  0  0
   23.5232  -18.8288  -21.5956 C   0  0  0  0  0  0  0  0  0  0  0  0
   22.9545  -17.4885  -17.3880 C   0  0  0  0  0  0  0  0  0  0  0  0
   23.6210  -17.2904  -16.3573 O   0  0  0  0  0  0  0  0  0  0  0  0
   21.6094  -17.8638  -17.2765 N   0  0  0  0  0  0  0  0  0  0  0  0
   20.8693  -17.9035  -16.0395 C   0  0  1  0  0  0  0  0  0  0  0  0
   19.7065  -16.9752  -16.0017 C   0  0  0  0  0  0  0  0  0  0  0  0
   19.2477  -16.6160  -14.6604 C   0  0  0  0  0  0  0  0  0  0  0  0
   19.2495  -17.5286  -13.7829 O   0  0  0  0  0  0  0  0  0  0  0  0
   20.5322  -19.3026  -15.7334 C   0  0  0  0  0  0  0  0  0  0  0  0
   20.0325  -20.0763  -16.5919 O   0  0  0  0  0  0  0  0  0  0  0  0
   18.8110  -15.3724  -14.2579 O   0  0  0  0  0  0  0  0  0  0  0  0
   20.4223  -20.6693  -11.8088 O   0  0  0  0  0  0  0  0  0  0  0  0
   20.9779  -21.5476  -12.7579 C   0  0  0  0  0  0  0  0  0  0  0  0
   20.4147  -21.2551  -14.1452 C   0  0  2  0  0  0  0  0  0  0  0  0
   20.7521  -19.8767  -14.4329 N   0  0  0  0  0  0  0  0  0  0  0  0
   18.9507  -21.3935  -14.1229 C   0  0  0  0  0  0  0  0  0  0  0  0
   18.3263  -22.6281  -14.1016 O   0  0  0  0  0  0  0  0  0  0  0  0
   18.2341  -20.3661  -14.1229 O   0  0  0  0  0  0  0  0  0  0  0  0
  2  1  1  1
  2 10  1  0
  3  2  1  0
  4  5  2  0
  4  3  1  0
  6  5  1  0
  7  6  2  0
  8  7  1  0
  8  9  2  0
  9  4  1  0
 10 11  2  0
 10 12  1  0
 12 13  1  0
 13 14  1  6
 14 15  1  0
 15 16  2  0
 15 19  1  0
 17 13  1  0
 17 18  2  0
 20 21  1  0
 22 21  1  1
 22 24  1  0
 22 23  1  0
 23 17  1  0
 24 25  1  0
 26 24  2  0
M  END
$$$$
