FDS.pdb
     RDKit          3D

 26 26  0  0  1  0  0  0  0  0999 V2000
   23.2918  -13.0995  -18.3507 N   0  0  0  0  0  0  0  0  0  0  0  0
   22.6719  -14.3978  -18.3816 C   0  0  1  0  0  0  0  0  0  0  0  0
   23.6914  -15.5146  -18.4081 C   0  0  0  0  0  0  0  0  0  0  0  0
   24.4639  -15.5769  -19.6503 C   0  0  0  0  0  0  0  0  0  0  0  0
   25.7686  -15.1584  -19.6868 C   0  0  0  0  0  0  0  0  0  0  0  0
   26.5109  -15.2159  -20.8723 C   0  0  0  0  0  0  0  0  0  0  0  0
   25.9115  -15.6988  -22.0007 C   0  0  0  0  0  0  0  0  0  0  0  0
   24.6021  -16.1246  -21.9869 C   0  0  0  0  0  0  0  0  0  0  0  0
   23.8826  -16.0583  -20.7962 C   0  0  0  0  0  0  0  0  0  0  0  0
   21.8625  -14.5757  -17.1610 C   0  0  0  0  0  0  0  0  0  0  0  0
   22.1912  -14.0137  -16.1018 O   0  0  0  0  0  0  0  0  0  0  0  0
   20.7158  -15.3801  -17.1863 N   0  0  0  0  0  0  0  0  0  0  0  0
   19.8229  -15.5700  -16.0700 C   0  0  1  0  0  0  0  0  0  0  0  0
   18.5035  -14.9005  -16.2318 C   0  0  0  0  0  0  0  0  0  0  0  0
   18.4755  -13.4909  -15.8432 C   0  0  0  0  0  0  0  0  0  0  0  0
   18.0191  -12.6653  -16.6874 O   0  0  0  0  0  0  0  0  0  0  0  0
   19.7351  -17.0082  -15.7725 C   0  0  0  0  0  0  0  0  0  0  0  0
   19.5243  -17.8677  -16.6680 O   0  0  0  0  0  0  0  0  0  0  0  0
   18.9009  -12.9724  -14.6392 O   0  0  0  0  0  0  0  0  0  0  0  0
   19.8835  -18.3149  -11.8414 O   0  0  0  0  0  0  0  0  0  0  0  0
   20.4972  -19.1381  -12.8039 C   0  0  0  0  0  0  0  0  0  0  0  0
   19.8362  -18.9462  -14.1654 C   0  0  2  0  0  0  0  0  0  0  0  0
   19.8846  -17.5250  -14.4383 N   0  0  0  0  0  0  0  0  0  0  0  0
   18.4300  -19.3713  -14.0958 C   0  0  0  0  0  0  0  0  0  0  0  0
   17.3819  -18.4728  -14.1893 O   0  0  0  0  0  0  0  0  0  0  0  0
   18.1594  -20.5853  -13.9470 O   0  0  0  0  0  0  0  0  0  0  0  0
  2  1  1  1
  2 10  1  0
  3  2  1  0
  4  5  2  0
  4  3  1  0
  6  5  1  0
  7  6  2  0
  8  7  1  0
  8  9  2  0
  9  4  1  0
 10 11  2  0
 10 12  1  0
 12 13  1  0
 13 14  1  6
 14 15  1  0
 15 16  2  0
 15 19  1  0
 17 13  1  0
 17 18  2  0
 20 21  1  0
 22 21  1  1
 22 24  1  0
 22 23  1  0
 23 17  1  0
 24 25  1  0
 26 24  2  0
M  END
$$$$
