INQ.pdb
     RDKit          3D

 26 25  0  0  1  0  0  0  0  0999 V2000
   15.8973  -13.0401  -18.0514 C   0  0  0  0  0  0  0  0  0  0  0  0
   16.6536  -12.8593  -16.7808 C   0  0  0  0  0  0  0  0  0  0  0  0
   17.9301  -12.0606  -16.9416 C   0  0  2  0  0  0  0  0  0  0  0  0
   18.7472  -12.7050  -18.0089 C   0  0  0  0  0  0  0  0  0  0  0  0
   18.6332  -11.8528  -15.6316 C   0  0  2  0  0  0  0  0  0  0  0  0
   17.6664  -11.1111  -14.7969 N   0  0  0  0  0  0  0  0  0  0  0  0
   19.8083  -10.9756  -15.7952 C   0  0  0  0  0  0  0  0  0  0  0  0
   20.8966  -11.3556  -16.2996 O   0  0  0  0  0  0  0  0  0  0  0  0
   23.0669   -7.1827  -16.4163 N   0  0  0  0  0  0  0  0  0  0  0  0
   22.2899   -7.7488  -17.4503 C   0  0  0  0  0  0  0  0  0  0  0  0
   22.5869   -7.5065  -18.6381 O   0  0  0  0  0  0  0  0  0  0  0  0
   21.1474   -8.6110  -17.1444 C   0  0  0  0  0  0  0  0  0  0  0  0
   20.9674   -8.7290  -15.6502 C   0  0  2  0  0  0  0  0  0  0  0  0
   19.7920   -9.5998  -15.3824 N   0  0  0  0  0  0  0  0  0  0  0  0
   20.6126   -7.4110  -15.1109 C   0  0  0  0  0  0  0  0  0  0  0  0
   19.5391   -6.8551  -15.5383 O   0  0  0  0  0  0  0  0  0  0  0  0
   19.2369   -4.8356   -8.8240 N   0  0  0  0  0  0  0  0  0  0  0  0
   18.9271   -5.4414  -10.0579 C   0  0  0  0  0  0  0  0  0  0  0  0
   18.1482   -6.4079  -10.1017 O   0  0  0  0  0  0  0  0  0  0  0  0
   19.5388   -4.9170  -11.3114 C   0  0  0  0  0  0  0  0  0  0  0  0
   20.1762   -6.0097  -12.1134 C   0  0  0  0  0  0  0  0  0  0  0  0
   20.6961   -5.5340  -13.4491 C   0  0  2  0  0  0  0  0  0  0  0  0
   21.3189   -6.6618  -14.1517 N   0  0  0  0  0  0  0  0  0  0  0  0
   21.6500   -4.4353  -13.2753 C   0  0  0  0  0  0  0  0  0  0  0  0
   21.2189   -3.3240  -12.8137 O   0  0  0  0  0  0  0  0  0  0  0  0
   22.9966   -4.4958  -13.5675 O   0  0  0  0  0  0  0  0  0  0  0  0
  2  1  1  0
  3  5  1  0
  3  2  1  0
  3  4  1  6
  5  6  1  1
  7  5  1  0
  7  8  2  0
  9 10  1  0
 10 12  1  0
 10 11  2  0
 13 12  1  6
 13 14  1  0
 14  7  1  0
 15 23  1  0
 15 13  1  0
 16 15  2  0
 18 17  1  0
 18 19  2  0
 20 21  1  0
 20 18  1  0
 22 21  1  1
 22 23  1  0
 22 24  1  0
 24 25  2  0
 24 26  1  0
M  END
$$$$
