INQ.pdb
     RDKit          3D

 26 25  0  0  1  0  0  0  0  0999 V2000
   18.5489  -12.6904  -19.0580 C   0  0  0  0  0  0  0  0  0  0  0  0
   19.7954  -12.0178  -18.5965 C   0  0  0  0  0  0  0  0  0  0  0  0
   19.5474  -10.8575  -17.6553 C   0  0  2  0  0  0  0  0  0  0  0  0
   18.6233   -9.9032  -18.3315 C   0  0  0  0  0  0  0  0  0  0  0  0
   20.8278  -10.2610  -17.1471 C   0  0  2  0  0  0  0  0  0  0  0  0
   21.5012  -11.3638  -16.4318 N   0  0  0  0  0  0  0  0  0  0  0  0
   20.5612   -9.2103  -16.1461 C   0  0  0  0  0  0  0  0  0  0  0  0
   19.8632   -9.3914  -15.1149 O   0  0  0  0  0  0  0  0  0  0  0  0
   20.5899   -4.9355  -13.3287 N   0  0  0  0  0  0  0  0  0  0  0  0
   21.8899   -5.4191  -13.5922 C   0  0  0  0  0  0  0  0  0  0  0  0
   22.8601   -4.9199  -12.9860 O   0  0  0  0  0  0  0  0  0  0  0  0
   22.1089   -6.4927  -14.5625 C   0  0  0  0  0  0  0  0  0  0  0  0
   20.8094   -6.8599  -15.2373 C   0  0  2  0  0  0  0  0  0  0  0  0
   21.0902   -7.8816  -16.2808 N   0  0  0  0  0  0  0  0  0  0  0  0
   20.3035   -5.6870  -15.9599 C   0  0  0  0  0  0  0  0  0  0  0  0
   20.9330   -5.3108  -17.0117 O   0  0  0  0  0  0  0  0  0  0  0  0
   14.7779   -4.8228  -16.0821 N   0  0  0  0  0  0  0  0  0  0  0  0
   15.4051   -5.2879  -17.2550 C   0  0  0  0  0  0  0  0  0  0  0  0
   14.8164   -6.0838  -18.0053 O   0  0  0  0  0  0  0  0  0  0  0  0
   16.7793   -4.8204  -17.5919 C   0  0  0  0  0  0  0  0  0  0  0  0
   17.2637   -3.7868  -16.6222 C   0  0  0  0  0  0  0  0  0  0  0  0
   18.7668   -3.7732  -16.4771 C   0  0  2  0  0  0  0  0  0  0  0  0
   19.1790   -4.9046  -15.6383 N   0  0  0  0  0  0  0  0  0  0  0  0
   19.2233   -2.5042  -15.9041 C   0  0  0  0  0  0  0  0  0  0  0  0
   19.7758   -2.5220  -14.7515 O   0  0  0  0  0  0  0  0  0  0  0  0
   19.1112   -1.2703  -16.5102 O   0  0  0  0  0  0  0  0  0  0  0  0
  2  1  1  0
  3  5  1  0
  3  2  1  0
  3  4  1  6
  5  6  1  1
  7  5  1  0
  7  8  2  0
  9 10  1  0
 10 12  1  0
 10 11  2  0
 13 12  1  6
 13 14  1  0
 14  7  1  0
 15 23  1  0
 15 13  1  0
 16 15  2  0
 18 17  1  0
 18 19  2  0
 20 21  1  0
 20 18  1  0
 22 21  1  1
 22 23  1  0
 22 24  1  0
 24 25  2  0
 24 26  1  0
M  END
$$$$
