INQ.pdb
     RDKit          3D

 26 25  0  0  1  0  0  0  0  0999 V2000
   20.9914  -17.5893  -17.9200 C   0  0  0  0  0  0  0  0  0  0  0  0
   21.3601  -16.3006  -18.5700 C   0  0  0  0  0  0  0  0  0  0  0  0
   21.9680  -15.2918  -17.6181 C   0  0  2  0  0  0  0  0  0  0  0  0
   21.0688  -15.1722  -16.4352 C   0  0  0  0  0  0  0  0  0  0  0  0
   22.3014  -13.9992  -18.3050 C   0  0  2  0  0  0  0  0  0  0  0  0
   23.2271  -14.3764  -19.3922 N   0  0  0  0  0  0  0  0  0  0  0  0
   23.0510  -13.1006  -17.4063 C   0  0  0  0  0  0  0  0  0  0  0  0
   22.5724  -12.6149  -16.3488 O   0  0  0  0  0  0  0  0  0  0  0  0
   26.5694   -9.9637  -15.3541 N   0  0  0  0  0  0  0  0  0  0  0  0
   27.2350  -10.6353  -16.4026 C   0  0  0  0  0  0  0  0  0  0  0  0
   28.4446  -10.4028  -16.6040 O   0  0  0  0  0  0  0  0  0  0  0  0
   26.5248  -11.5948  -17.2493 C   0  0  0  0  0  0  0  0  0  0  0  0
   25.0918  -11.7322  -16.7946 C   0  0  2  0  0  0  0  0  0  0  0  0
   24.4058  -12.7098  -17.6807 N   0  0  0  0  0  0  0  0  0  0  0  0
   24.4028  -10.4543  -17.0092 C   0  0  0  0  0  0  0  0  0  0  0  0
   23.7121  -10.3158  -18.0806 O   0  0  0  0  0  0  0  0  0  0  0  0
   19.4706   -9.9004  -16.0543 N   0  0  0  0  0  0  0  0  0  0  0  0
   19.5744   -8.4978  -16.1407 C   0  0  0  0  0  0  0  0  0  0  0  0
   18.5501   -7.7955  -16.1658 O   0  0  0  0  0  0  0  0  0  0  0  0
   20.9196   -7.8599  -16.2020 C   0  0  0  0  0  0  0  0  0  0  0  0
   22.0164   -8.8776  -16.1331 C   0  0  0  0  0  0  0  0  0  0  0  0
   23.3915   -8.2738  -16.2923 C   0  0  2  0  0  0  0  0  0  0  0  0
   24.3994   -9.3321  -16.1603 N   0  0  0  0  0  0  0  0  0  0  0  0
   23.6129   -7.2148  -15.3040 C   0  0  0  0  0  0  0  0  0  0  0  0
   24.5238   -7.3864  -14.4238 O   0  0  0  0  0  0  0  0  0  0  0  0
   22.9158   -6.0264  -15.2400 O   0  0  0  0  0  0  0  0  0  0  0  0
  2  1  1  0
  3  5  1  0
  3  2  1  0
  3  4  1  1
  5  6  1  6
  7  5  1  0
  7  8  2  0
  9 10  1  0
 10 12  1  0
 10 11  2  0
 13 12  1  6
 13 14  1  0
 14  7  1  0
 15 23  1  0
 15 13  1  0
 16 15  2  0
 18 17  1  0
 18 19  2  0
 20 21  1  0
 20 18  1  0
 22 21  1  1
 22 23  1  0
 22 24  1  0
 24 25  2  0
 24 26  1  0
M  END
$$$$
