INQ.pdb
     RDKit          3D

 26 25  0  0  1  0  0  0  0  0999 V2000
   18.1740  -15.2465  -16.0833 C   0  0  0  0  0  0  0  0  0  0  0  0
   18.2408  -13.9467  -16.8080 C   0  0  0  0  0  0  0  0  0  0  0  0
   18.1108  -12.7390  -15.9034 C   0  0  2  0  0  0  0  0  0  0  0  0
   16.8950  -12.9216  -15.0605 C   0  0  0  0  0  0  0  0  0  0  0  0
   18.1723  -11.4508  -16.6717 C   0  0  2  0  0  0  0  0  0  0  0  0
   19.2445  -11.6546  -17.6668 N   0  0  0  0  0  0  0  0  0  0  0  0
   18.6076  -10.3385  -15.8054 C   0  0  0  0  0  0  0  0  0  0  0  0
   17.9585   -9.9404  -14.8037 O   0  0  0  0  0  0  0  0  0  0  0  0
   20.9645   -6.1407  -13.9892 N   0  0  0  0  0  0  0  0  0  0  0  0
   21.9378   -6.8282  -14.7465 C   0  0  0  0  0  0  0  0  0  0  0  0
   23.1075   -6.3935  -14.7737 O   0  0  0  0  0  0  0  0  0  0  0  0
   21.5904   -8.0372  -15.4947 C   0  0  0  0  0  0  0  0  0  0  0  0
   20.1475   -8.4070  -15.2487 C   0  0  2  0  0  0  0  0  0  0  0  0
   19.8264   -9.6185  -16.0493 N   0  0  0  0  0  0  0  0  0  0  0  0
   19.2888   -7.3430  -15.7819 C   0  0  0  0  0  0  0  0  0  0  0  0
   18.8660   -7.4583  -16.9869 O   0  0  0  0  0  0  0  0  0  0  0  0
   14.0315   -6.0719  -18.3474 N   0  0  0  0  0  0  0  0  0  0  0  0
   15.2253   -5.4504  -17.9300 C   0  0  0  0  0  0  0  0  0  0  0  0
   16.0740   -5.1012  -18.7671 O   0  0  0  0  0  0  0  0  0  0  0  0
   15.4655   -5.2136  -16.4786 C   0  0  0  0  0  0  0  0  0  0  0  0
   16.5808   -6.0669  -15.9576 C   0  0  0  0  0  0  0  0  0  0  0  0
   17.8511   -5.2890  -15.7087 C   0  0  2  0  0  0  0  0  0  0  0  0
   18.8535   -6.1822  -15.1163 N   0  0  0  0  0  0  0  0  0  0  0  0
   17.5953   -4.1392  -14.8370 C   0  0  0  0  0  0  0  0  0  0  0  0
   16.8026   -3.2266  -15.2524 O   0  0  0  0  0  0  0  0  0  0  0  0
   18.1409   -3.9524  -13.5840 O   0  0  0  0  0  0  0  0  0  0  0  0
  2  1  1  0
  3  5  1  0
  3  2  1  0
  3  4  1  6
  5  6  1  6
  7  5  1  0
  7  8  2  0
  9 10  1  0
 10 12  1  0
 10 11  2  0
 13 12  1  6
 13 14  1  0
 14  7  1  0
 15 23  1  0
 15 13  1  0
 16 15  2  0
 18 17  1  0
 18 19  2  0
 20 21  1  0
 20 18  1  0
 22 21  1  1
 22 23  1  0
 22 24  1  0
 24 25  2  0
 24 26  1  0
M  END
$$$$
