INQ.pdb
     RDKit          3D

 26 25  0  0  1  0  0  0  0  0999 V2000
   23.8594  -11.5730  -15.4317 C   0  0  0  0  0  0  0  0  0  0  0  0
   22.4824  -11.0089  -15.5016 C   0  0  0  0  0  0  0  0  0  0  0  0
   22.2940   -9.7601  -14.6659 C   0  0  2  0  0  0  0  0  0  0  0  0
   22.7369  -10.0632  -13.2753 C   0  0  0  0  0  0  0  0  0  0  0  0
   20.9055   -9.2032  -14.7909 C   0  0  2  0  0  0  0  0  0  0  0  0
   20.7165   -8.9793  -16.2385 N   0  0  0  0  0  0  0  0  0  0  0  0
   20.8057   -7.8809  -14.1436 C   0  0  0  0  0  0  0  0  0  0  0  0
   20.8313   -7.7116  -12.8971 O   0  0  0  0  0  0  0  0  0  0  0  0
   20.4630   -2.8569  -13.1611 N   0  0  0  0  0  0  0  0  0  0  0  0
   20.8042   -2.9594  -14.5273 C   0  0  0  0  0  0  0  0  0  0  0  0
   21.0689   -1.9220  -15.1686 O   0  0  0  0  0  0  0  0  0  0  0  0
   20.8502   -4.2618  -15.1937 C   0  0  0  0  0  0  0  0  0  0  0  0
   20.5409   -5.3635  -14.2090 C   0  0  2  0  0  0  0  0  0  0  0  0
   20.6698   -6.6710  -14.9058 N   0  0  0  0  0  0  0  0  0  0  0  0
   19.1307   -5.2639  -13.8152 C   0  0  0  0  0  0  0  0  0  0  0  0
   18.2416   -5.6237  -14.6661 O   0  0  0  0  0  0  0  0  0  0  0  0
   16.1932   -6.8101   -8.7399 N   0  0  0  0  0  0  0  0  0  0  0  0
   15.1310   -6.1999   -9.4361 C   0  0  0  0  0  0  0  0  0  0  0  0
   13.9686   -6.2912   -9.0078 O   0  0  0  0  0  0  0  0  0  0  0  0
   15.4083   -5.4437  -10.6897 C   0  0  0  0  0  0  0  0  0  0  0  0
   16.8561   -5.5136  -11.0674 C   0  0  0  0  0  0  0  0  0  0  0  0
   17.1723   -4.7535  -12.3334 C   0  0  2  0  0  0  0  0  0  0  0  0
   18.6168   -4.8166  -12.5839 N   0  0  0  0  0  0  0  0  0  0  0  0
   16.7193   -3.3636  -12.2333 C   0  0  0  0  0  0  0  0  0  0  0  0
   15.4620   -3.1349  -12.2071 O   0  0  0  0  0  0  0  0  0  0  0  0
   17.5439   -2.2603  -12.1599 O   0  0  0  0  0  0  0  0  0  0  0  0
  2  1  1  0
  3  5  1  0
  3  2  1  0
  3  4  1  1
  5  6  1  6
  7  5  1  0
  7  8  2  0
  9 10  1  0
 10 12  1  0
 10 11  2  0
 13 12  1  6
 13 14  1  0
 14  7  1  0
 15 23  1  0
 15 13  1  0
 16 15  2  0
 18 17  1  0
 18 19  2  0
 20 21  1  0
 20 18  1  0
 22 21  1  1
 22 23  1  0
 22 24  1  0
 24 25  2  0
 24 26  1  0
M  END
$$$$
