INQ.pdb
     RDKit          3D

 26 25  0  0  1  0  0  0  0  0999 V2000
   27.4162  -20.2204   -5.6353 C   0  0  0  0  0  0  0  0  0  0  0  0
   27.3615  -19.4049   -6.8808 C   0  0  0  0  0  0  0  0  0  0  0  0
   27.2811  -20.2328   -8.1464 C   0  0  2  0  0  0  0  0  0  0  0  0
   28.6660  -20.4206   -8.6647 C   0  0  0  0  0  0  0  0  0  0  0  0
   26.2988  -19.6648   -9.1293 C   0  0  2  0  0  0  0  0  0  0  0  0
   24.9717  -19.9937   -8.5709 N   0  0  0  0  0  0  0  0  0  0  0  0
   26.3919  -20.3560  -10.4296 C   0  0  0  0  0  0  0  0  0  0  0  0
   27.4441  -20.4075  -11.1176 O   0  0  0  0  0  0  0  0  0  0  0  0
   25.4386  -24.4155  -14.1438 N   0  0  0  0  0  0  0  0  0  0  0  0
   24.5215  -23.3975  -13.8028 C   0  0  0  0  0  0  0  0  0  0  0  0
   23.7276  -22.9775  -14.6695 O   0  0  0  0  0  0  0  0  0  0  0  0
   24.4934  -22.8343  -12.4522 C   0  0  0  0  0  0  0  0  0  0  0  0
   25.3706  -21.6078  -12.3794 C   0  0  2  0  0  0  0  0  0  0  0  0
   25.2662  -21.0318  -11.0123 N   0  0  0  0  0  0  0  0  0  0  0  0
   24.8287  -20.5844  -13.2809 C   0  0  0  0  0  0  0  0  0  0  0  0
   23.8284  -19.8930  -12.8741 O   0  0  0  0  0  0  0  0  0  0  0  0
   27.5286  -18.4645  -18.4210 N   0  0  0  0  0  0  0  0  0  0  0  0
   27.8247  -17.9097  -17.1600 C   0  0  0  0  0  0  0  0  0  0  0  0
   28.8825  -17.2821  -16.9860 O   0  0  0  0  0  0  0  0  0  0  0  0
   26.8626  -18.0793  -16.0349 C   0  0  0  0  0  0  0  0  0  0  0  0
   25.6184  -18.7878  -16.4750 C   0  0  0  0  0  0  0  0  0  0  0  0
   24.7025  -19.1386  -15.3267 C   0  0  2  0  0  0  0  0  0  0  0  0
   25.2855  -20.2525  -14.5698 N   0  0  0  0  0  0  0  0  0  0  0  0
   23.3640  -19.4820  -15.8143 C   0  0  0  0  0  0  0  0  0  0  0  0
   23.0981  -20.7110  -16.0442 O   0  0  0  0  0  0  0  0  0  0  0  0
   22.3459  -18.5812  -16.0481 O   0  0  0  0  0  0  0  0  0  0  0  0
  2  1  1  0
  3  5  1  0
  3  2  1  0
  3  4  1  6
  5  6  1  1
  7  5  1  0
  7  8  2  0
  9 10  1  0
 10 12  1  0
 10 11  2  0
 13 12  1  1
 13 14  1  0
 14  7  1  0
 15 23  1  0
 15 13  1  0
 16 15  2  0
 18 17  1  0
 18 19  2  0
 20 21  1  0
 20 18  1  0
 22 21  1  6
 22 23  1  0
 22 24  1  0
 24 25  2  0
 24 26  1  0
M  END
$$$$
