INQ.pdb
     RDKit          3D

 26 25  0  0  1  0  0  0  0  0999 V2000
   30.0062  -22.5621  -17.9837 C   0  0  0  0  0  0  0  0  0  0  0  0
   28.9660  -21.5638  -17.6088 C   0  0  0  0  0  0  0  0  0  0  0  0
   28.1460  -21.9649  -16.4005 C   0  0  2  0  0  0  0  0  0  0  0  0
   27.6362  -23.3474  -16.6260 C   0  0  0  0  0  0  0  0  0  0  0  0
   27.1003  -20.9414  -16.0646 C   0  0  2  0  0  0  0  0  0  0  0  0
   27.8586  -19.7091  -15.7681 N   0  0  0  0  0  0  0  0  0  0  0  0
   26.3842  -21.3035  -14.8264 C   0  0  0  0  0  0  0  0  0  0  0  0
   25.5704  -22.2598  -14.7464 O   0  0  0  0  0  0  0  0  0  0  0  0
   24.4709  -21.3835  -10.0538 N   0  0  0  0  0  0  0  0  0  0  0  0
   25.6026  -20.5413   -9.9956 C   0  0  0  0  0  0  0  0  0  0  0  0
   25.9684  -20.0879   -8.8918 O   0  0  0  0  0  0  0  0  0  0  0  0
   26.3454  -20.1975  -11.2089 C   0  0  0  0  0  0  0  0  0  0  0  0
   25.7734  -20.9320  -12.3973 C   0  0  2  0  0  0  0  0  0  0  0  0
   26.5695  -20.5758  -13.6018 N   0  0  0  0  0  0  0  0  0  0  0  0
   24.4192  -20.4296  -12.6569 C   0  0  0  0  0  0  0  0  0  0  0  0
   24.2896  -19.2034  -13.0088 O   0  0  0  0  0  0  0  0  0  0  0  0
   20.6775  -22.6307  -16.5713 N   0  0  0  0  0  0  0  0  0  0  0  0
   19.8144  -21.6401  -16.0621 C   0  0  0  0  0  0  0  0  0  0  0  0
   18.7268  -21.4130  -16.6175 O   0  0  0  0  0  0  0  0  0  0  0  0
   20.2125  -20.8651  -14.8533 C   0  0  0  0  0  0  0  0  0  0  0  0
   21.5389  -21.3144  -14.3219 C   0  0  0  0  0  0  0  0  0  0  0  0
   21.9492  -20.5827  -13.0662 C   0  0  2  0  0  0  0  0  0  0  0  0
   23.2110  -21.1460  -12.5722 N   0  0  0  0  0  0  0  0  0  0  0  0
   20.9017  -20.6723  -12.0454 C   0  0  0  0  0  0  0  0  0  0  0  0
   21.0252  -21.5495  -11.1238 O   0  0  0  0  0  0  0  0  0  0  0  0
   19.7759  -19.8776  -11.9874 O   0  0  0  0  0  0  0  0  0  0  0  0
  2  1  1  0
  3  5  1  0
  3  2  1  0
  3  4  1  6
  5  6  1  1
  7  5  1  0
  7  8  2  0
  9 10  1  0
 10 12  1  0
 10 11  2  0
 13 12  1  1
 13 14  1  0
 14  7  1  0
 15 23  1  0
 15 13  1  0
 16 15  2  0
 18 17  1  0
 18 19  2  0
 20 21  1  0
 20 18  1  0
 22 21  1  6
 22 23  1  0
 22 24  1  0
 24 25  2  0
 24 26  1  0
M  END
$$$$
