INQ.pdb
     RDKit          3D

 26 25  0  0  1  0  0  0  0  0999 V2000
   18.8737    0.2112  -15.1137 C   0  0  0  0  0  0  0  0  0  0  0  0
   19.7269   -0.7047  -15.9213 C   0  0  0  0  0  0  0  0  0  0  0  0
   20.7096   -1.5072  -15.0944 C   0  0  2  0  0  0  0  0  0  0  0  0
   21.5140   -0.5536  -14.2785 C   0  0  0  0  0  0  0  0  0  0  0  0
   21.5051   -2.4626  -15.9357 C   0  0  2  0  0  0  0  0  0  0  0  0
   20.5530   -2.9552  -16.9517 N   0  0  0  0  0  0  0  0  0  0  0  0
   21.9256   -3.6373  -15.1480 C   0  0  0  0  0  0  0  0  0  0  0  0
   22.7853   -3.5895  -14.2304 O   0  0  0  0  0  0  0  0  0  0  0  0
   22.3552   -8.2755  -13.0204 N   0  0  0  0  0  0  0  0  0  0  0  0
   21.0719   -7.7033  -12.8817 C   0  0  0  0  0  0  0  0  0  0  0  0
   20.2656   -8.2047  -12.0717 O   0  0  0  0  0  0  0  0  0  0  0  0
   20.6812   -6.5360  -13.6735 C   0  0  0  0  0  0  0  0  0  0  0  0
   21.8245   -6.0972  -14.5563 C   0  0  2  0  0  0  0  0  0  0  0  0
   21.3723   -4.9428  -15.3776 N   0  0  0  0  0  0  0  0  0  0  0  0
   22.1219   -7.1695  -15.5132 C   0  0  0  0  0  0  0  0  0  0  0  0
   21.2647   -7.4062  -16.4370 O   0  0  0  0  0  0  0  0  0  0  0  0
   27.5589  -10.2336  -16.6998 N   0  0  0  0  0  0  0  0  0  0  0  0
   26.7034  -10.8065  -15.7378 C   0  0  0  0  0  0  0  0  0  0  0  0
   27.1330  -11.6684  -14.9533 O   0  0  0  0  0  0  0  0  0  0  0  0
   25.2794  -10.3735  -15.6656 C   0  0  0  0  0  0  0  0  0  0  0  0
   24.9789   -9.2969  -16.6626 C   0  0  0  0  0  0  0  0  0  0  0  0
   23.5232   -8.8950  -16.6752 C   0  0  2  0  0  0  0  0  0  0  0  0
   23.2646   -7.9898  -15.5495 N   0  0  0  0  0  0  0  0  0  0  0  0
   22.6566  -10.0747  -16.6070 C   0  0  0  0  0  0  0  0  0  0  0  0
   21.9643  -10.2593  -15.5484 O   0  0  0  0  0  0  0  0  0  0  0  0
   22.5163  -11.0188  -17.6027 O   0  0  0  0  0  0  0  0  0  0  0  0
  2  1  1  0
  3  5  1  0
  3  2  1  0
  3  4  1  6
  5  6  1  6
  7  5  1  0
  7  8  2  0
  9 10  1  0
 10 12  1  0
 10 11  2  0
 13 12  1  1
 13 14  1  0
 14  7  1  0
 15 23  1  0
 15 13  1  0
 16 15  2  0
 18 17  1  0
 18 19  2  0
 20 21  1  0
 20 18  1  0
 22 21  1  1
 22 23  1  0
 22 24  1  0
 24 25  2  0
 24 26  1  0
M  END
$$$$
