INQ.pdb
     RDKit          3D

 26 25  0  0  1  0  0  0  0  0999 V2000
   29.0724  -16.2713  -17.1980 C   0  0  0  0  0  0  0  0  0  0  0  0
   27.6617  -16.6992  -17.4131 C   0  0  0  0  0  0  0  0  0  0  0  0
   26.6451  -15.8043  -16.7356 C   0  0  2  0  0  0  0  0  0  0  0  0
   27.0123  -15.6954  -15.2951 C   0  0  0  0  0  0  0  0  0  0  0  0
   25.2363  -16.2458  -17.0079 C   0  0  2  0  0  0  0  0  0  0  0  0
   25.1617  -16.3885  -18.4761 N   0  0  0  0  0  0  0  0  0  0  0  0
   24.2711  -15.1930  -16.6375 C   0  0  0  0  0  0  0  0  0  0  0  0
   23.9521  -14.9268  -15.4498 O   0  0  0  0  0  0  0  0  0  0  0  0
   21.5309  -10.6957  -16.4193 N   0  0  0  0  0  0  0  0  0  0  0  0
   21.7017  -11.1795  -17.7347 C   0  0  0  0  0  0  0  0  0  0  0  0
   20.9409  -10.7732  -18.6368 O   0  0  0  0  0  0  0  0  0  0  0  0
   22.7552  -12.1461  -18.0478 C   0  0  0  0  0  0  0  0  0  0  0  0
   22.5868  -13.3915  -17.2114 C   0  0  2  0  0  0  0  0  0  0  0  0
   23.6155  -14.3824  -17.6257 N   0  0  0  0  0  0  0  0  0  0  0  0
   21.2941  -14.0068  -17.5341 C   0  0  0  0  0  0  0  0  0  0  0  0
   21.0417  -14.2666  -18.7641 O   0  0  0  0  0  0  0  0  0  0  0  0
   16.9740  -16.8828  -13.9082 N   0  0  0  0  0  0  0  0  0  0  0  0
   16.4086  -17.0035  -15.1932 C   0  0  0  0  0  0  0  0  0  0  0  0
   15.3916  -17.6955  -15.3662 O   0  0  0  0  0  0  0  0  0  0  0  0
   17.0366  -16.2969  -16.3450 C   0  0  0  0  0  0  0  0  0  0  0  0
   18.3132  -15.6213  -15.9482 C   0  0  0  0  0  0  0  0  0  0  0  0
   19.0086  -14.9479  -17.1073 C   0  0  2  0  0  0  0  0  0  0  0  0
   20.2700  -14.3636  -16.6374 N   0  0  0  0  0  0  0  0  0  0  0  0
   18.1491  -13.9234  -17.7063 C   0  0  0  0  0  0  0  0  0  0  0  0
   18.1505  -12.7530  -17.1924 O   0  0  0  0  0  0  0  0  0  0  0  0
   17.3263  -14.1120  -18.7972 O   0  0  0  0  0  0  0  0  0  0  0  0
  2  1  1  0
  3  5  1  0
  3  2  1  0
  3  4  1  1
  5  6  1  6
  7  5  1  0
  7  8  2  0
  9 10  1  0
 10 12  1  0
 10 11  2  0
 13 12  1  6
 13 14  1  0
 14  7  1  0
 15 23  1  0
 15 13  1  0
 16 15  2  0
 18 17  1  0
 18 19  2  0
 20 21  1  0
 20 18  1  0
 22 21  1  1
 22 23  1  0
 22 24  1  0
 24 25  2  0
 24 26  1  0
M  END
$$$$
