INQ.pdb
     RDKit          3D

 26 25  0  0  1  0  0  0  0  0999 V2000
   22.0941  -20.4075   -8.8287 C   0  0  0  0  0  0  0  0  0  0  0  0
   23.5206  -20.8074   -8.9844 C   0  0  0  0  0  0  0  0  0  0  0  0
   24.1475  -20.3316  -10.2783 C   0  0  2  0  0  0  0  0  0  0  0  0
   23.2345  -20.7006  -11.3973 C   0  0  0  0  0  0  0  0  0  0  0  0
   25.5653  -20.8032  -10.4239 C   0  0  2  0  0  0  0  0  0  0  0  0
   26.2618  -20.2817   -9.2304 N   0  0  0  0  0  0  0  0  0  0  0  0
   26.2122  -20.1806  -11.5948 C   0  0  0  0  0  0  0  0  0  0  0  0
   26.5437  -18.9678  -11.6448 O   0  0  0  0  0  0  0  0  0  0  0  0
   29.7539  -19.3405  -12.5811 N   0  0  0  0  0  0  0  0  0  0  0  0
   29.3804  -20.6505  -12.9525 C   0  0  0  0  0  0  0  0  0  0  0  0
   29.7744  -21.6145  -12.2646 O   0  0  0  0  0  0  0  0  0  0  0  0
   28.5414  -20.8867  -14.1283 C   0  0  0  0  0  0  0  0  0  0  0  0
   27.1807  -20.2629  -13.9330 C   0  0  2  0  0  0  0  0  0  0  0  0
   26.5150  -20.9298  -12.7824 N   0  0  0  0  0  0  0  0  0  0  0  0
   26.3477  -20.5688  -15.1019 C   0  0  0  0  0  0  0  0  0  0  0  0
   25.5590  -21.5773  -15.0312 O   0  0  0  0  0  0  0  0  0  0  0  0
   22.2509  -18.7191  -14.1124 N   0  0  0  0  0  0  0  0  0  0  0  0
   21.9115  -19.7920  -14.9604 C   0  0  0  0  0  0  0  0  0  0  0  0
   20.9175  -20.4945  -14.7126 O   0  0  0  0  0  0  0  0  0  0  0  0
   22.7512  -20.0808  -16.1570 C   0  0  0  0  0  0  0  0  0  0  0  0
   23.9687  -19.2093  -16.2000 C   0  0  0  0  0  0  0  0  0  0  0  0
   25.0555  -19.7587  -17.0932 C   0  0  2  0  0  0  0  0  0  0  0  0
   26.2995  -19.8713  -16.3231 N   0  0  0  0  0  0  0  0  0  0  0  0
   25.2442  -18.9051  -18.2691 C   0  0  0  0  0  0  0  0  0  0  0  0
   24.6620  -19.2344  -19.3584 O   0  0  0  0  0  0  0  0  0  0  0  0
   26.0050  -17.7551  -18.3050 O   0  0  0  0  0  0  0  0  0  0  0  0
  2  1  1  0
  3  5  1  0
  3  2  1  0
  3  4  1  6
  5  6  1  1
  7  5  1  0
  7  8  2  0
  9 10  1  0
 10 12  1  0
 10 11  2  0
 13 12  1  6
 13 14  1  0
 14  7  1  0
 15 23  1  0
 15 13  1  0
 16 15  2  0
 18 17  1  0
 18 19  2  0
 20 21  1  0
 20 18  1  0
 22 21  1  1
 22 23  1  0
 22 24  1  0
 24 25  2  0
 24 26  1  0
M  END
$$$$
