INQ.pdb
     RDKit          3D

 26 25  0  0  1  0  0  0  0  0999 V2000
   19.3533  -14.1175  -16.6780 C   0  0  0  0  0  0  0  0  0  0  0  0
   19.5484  -12.7819  -17.3082 C   0  0  0  0  0  0  0  0  0  0  0  0
   19.4009  -11.6260  -16.3409 C   0  0  2  0  0  0  0  0  0  0  0  0
   18.1075  -11.7901  -15.6183 C   0  0  0  0  0  0  0  0  0  0  0  0
   19.5962  -10.2990  -17.0152 C   0  0  2  0  0  0  0  0  0  0  0  0
   20.9621  -10.3561  -17.5741 N   0  0  0  0  0  0  0  0  0  0  0  0
   19.5893   -9.1995  -16.0312 C   0  0  0  0  0  0  0  0  0  0  0  0
   18.5821   -8.8839  -15.3462 O   0  0  0  0  0  0  0  0  0  0  0  0
   20.8142   -4.9626  -13.3662 N   0  0  0  0  0  0  0  0  0  0  0  0
   21.9745   -5.7644  -13.4319 C   0  0  0  0  0  0  0  0  0  0  0  0
   22.9760   -5.4430  -12.7601 O   0  0  0  0  0  0  0  0  0  0  0  0
   22.0133   -6.9605  -14.2745 C   0  0  0  0  0  0  0  0  0  0  0  0
   20.6603   -7.2044  -14.8980 C   0  0  2  0  0  0  0  0  0  0  0  0
   20.7542   -8.3971  -15.7813 N   0  0  0  0  0  0  0  0  0  0  0  0
   20.3390   -6.0807  -15.7857 C   0  0  0  0  0  0  0  0  0  0  0  0
   20.8308   -6.0898  -16.9698 O   0  0  0  0  0  0  0  0  0  0  0  0
   15.2990   -2.3998  -15.8524 N   0  0  0  0  0  0  0  0  0  0  0  0
   16.0306   -1.8569  -16.9274 C   0  0  0  0  0  0  0  0  0  0  0  0
   15.5390   -0.9550  -17.6259 O   0  0  0  0  0  0  0  0  0  0  0  0
   17.3979   -2.3701  -17.2232 C   0  0  0  0  0  0  0  0  0  0  0  0
   17.8034   -3.4454  -16.2627 C   0  0  0  0  0  0  0  0  0  0  0  0
   19.1938   -3.9744  -16.5228 C   0  0  2  0  0  0  0  0  0  0  0  0
   19.5309   -4.9660  -15.4949 N   0  0  0  0  0  0  0  0  0  0  0  0
   20.1718   -2.8834  -16.5374 C   0  0  0  0  0  0  0  0  0  0  0  0
   20.8204   -2.6348  -15.4643 O   0  0  0  0  0  0  0  0  0  0  0  0
   20.4627   -2.0887  -17.6266 O   0  0  0  0  0  0  0  0  0  0  0  0
  2  1  1  0
  3  5  1  0
  3  2  1  0
  3  4  1  6
  5  6  1  1
  7  5  1  0
  7  8  2  0
  9 10  1  0
 10 12  1  0
 10 11  2  0
 13 12  1  6
 13 14  1  0
 14  7  1  0
 15 23  1  0
 15 13  1  0
 16 15  2  0
 18 17  1  0
 18 19  2  0
 20 21  1  0
 20 18  1  0
 22 21  1  1
 22 23  1  0
 22 24  1  0
 24 25  2  0
 24 26  1  0
M  END
$$$$
