INQ.pdb
     RDKit          3D

 26 25  0  0  1  0  0  0  0  0999 V2000
   25.2323  -17.4326  -20.5518 C   0  0  0  0  0  0  0  0  0  0  0  0
   24.5024  -17.1793  -19.2782 C   0  0  0  0  0  0  0  0  0  0  0  0
   24.4792  -18.3707  -18.3435 C   0  0  2  0  0  0  0  0  0  0  0  0
   24.0314  -19.5603  -19.1221 C   0  0  0  0  0  0  0  0  0  0  0  0
   23.6978  -18.0901  -17.0928 C   0  0  2  0  0  0  0  0  0  0  0  0
   24.4074  -16.9671  -16.4473 N   0  0  0  0  0  0  0  0  0  0  0  0
   23.7710  -19.2283  -16.1568 C   0  0  0  0  0  0  0  0  0  0  0  0
   23.2632  -20.3558  -16.3897 O   0  0  0  0  0  0  0  0  0  0  0  0
   24.9045  -22.3548  -12.2472 N   0  0  0  0  0  0  0  0  0  0  0  0
   25.5421  -21.1328  -11.9413 C   0  0  0  0  0  0  0  0  0  0  0  0
   26.2536  -21.0561  -10.9188 O   0  0  0  0  0  0  0  0  0  0  0  0
   25.3775  -19.9634  -12.8060 C   0  0  0  0  0  0  0  0  0  0  0  0
   24.4900  -20.3022  -13.9793 C   0  0  2  0  0  0  0  0  0  0  0  0
   24.4401  -19.1274  -14.8897 N   0  0  0  0  0  0  0  0  0  0  0  0
   23.1164  -20.4853  -13.4962 C   0  0  0  0  0  0  0  0  0  0  0  0
   22.6436  -19.6140  -12.6829 O   0  0  0  0  0  0  0  0  0  0  0  0
   19.3319  -17.8374  -14.3929 N   0  0  0  0  0  0  0  0  0  0  0  0
   19.4597  -18.8034  -15.4108 C   0  0  0  0  0  0  0  0  0  0  0  0
   19.2010  -18.5078  -16.5892 O   0  0  0  0  0  0  0  0  0  0  0  0
   19.9069  -20.1826  -15.0671 C   0  0  0  0  0  0  0  0  0  0  0  0
   20.1183  -20.3428  -13.5929 C   0  0  0  0  0  0  0  0  0  0  0  0
   20.8824  -21.5967  -13.2399 C   0  0  2  0  0  0  0  0  0  0  0  0
   22.2252  -21.5227  -13.8273 N   0  0  0  0  0  0  0  0  0  0  0  0
   20.1717  -22.7891  -13.7091 C   0  0  0  0  0  0  0  0  0  0  0  0
   19.0354  -23.0621  -13.1910 O   0  0  0  0  0  0  0  0  0  0  0  0
   20.6261  -23.6570  -14.6800 O   0  0  0  0  0  0  0  0  0  0  0  0
  2  1  1  0
  3  5  1  0
  3  2  1  0
  3  4  1  6
  5  6  1  1
  7  5  1  0
  7  8  2  0
  9 10  1  0
 10 12  1  0
 10 11  2  0
 13 12  1  1
 13 14  1  0
 14  7  1  0
 15 23  1  0
 15 13  1  0
 16 15  2  0
 18 17  1  0
 18 19  2  0
 20 21  1  0
 20 18  1  0
 22 21  1  6
 22 23  1  0
 22 24  1  0
 24 25  2  0
 24 26  1  0
M  END
$$$$
