INQ.pdb
     RDKit          3D

 26 25  0  0  1  0  0  0  0  0999 V2000
   28.0852  -20.2470   -6.5515 C   0  0  0  0  0  0  0  0  0  0  0  0
   28.1111  -21.0926   -7.7776 C   0  0  0  0  0  0  0  0  0  0  0  0
   27.1724  -20.6146   -8.8657 C   0  0  2  0  0  0  0  0  0  0  0  0
   25.7884  -20.6080   -8.3121 C   0  0  0  0  0  0  0  0  0  0  0  0
   27.3503  -21.3854  -10.1415 C   0  0  2  0  0  0  0  0  0  0  0  0
   28.7948  -21.2994  -10.4372 N   0  0  0  0  0  0  0  0  0  0  0  0
   26.6513  -20.7248  -11.2605 C   0  0  0  0  0  0  0  0  0  0  0  0
   27.2359  -20.0440  -12.1426 O   0  0  0  0  0  0  0  0  0  0  0  0
   26.8603  -20.2732  -14.2647 N   0  0  0  0  0  0  0  0  0  0  0  0
   26.3193  -21.5758  -14.3287 C   0  0  0  0  0  0  0  0  0  0  0  0
   26.8889  -22.4384  -15.0281 O   0  0  0  0  0  0  0  0  0  0  0  0
   25.1053  -21.9214  -13.5878 C   0  0  0  0  0  0  0  0  0  0  0  0
   24.6287  -20.7359  -12.7839 C   0  0  2  0  0  0  0  0  0  0  0  0
   25.2271  -20.8144  -11.4247 N   0  0  0  0  0  0  0  0  0  0  0  0
   23.1794  -20.8516  -12.5839 C   0  0  0  0  0  0  0  0  0  0  0  0
   22.7150  -21.9788  -12.1866 O   0  0  0  0  0  0  0  0  0  0  0  0
   19.0023  -18.6226  -15.0521 N   0  0  0  0  0  0  0  0  0  0  0  0
   20.2341  -18.5742  -15.7346 C   0  0  0  0  0  0  0  0  0  0  0  0
   20.4817  -17.6376  -16.5121 O   0  0  0  0  0  0  0  0  0  0  0  0
   21.2395  -19.6528  -15.5196 C   0  0  0  0  0  0  0  0  0  0  0  0
   20.7545  -20.6706  -14.5336 C   0  0  0  0  0  0  0  0  0  0  0  0
   20.8183  -20.1846  -13.1052 C   0  0  2  0  0  0  0  0  0  0  0  0
   22.2081  -19.8511  -12.7726 N   0  0  0  0  0  0  0  0  0  0  0  0
   20.2895  -21.1965  -12.1867 C   0  0  0  0  0  0  0  0  0  0  0  0
   19.4842  -22.0749  -12.6491 O   0  0  0  0  0  0  0  0  0  0  0  0
   20.5916  -21.2893  -10.8441 O   0  0  0  0  0  0  0  0  0  0  0  0
  2  1  1  0
  3  5  1  0
  3  2  1  0
  3  4  1  1
  5  6  1  6
  7  5  1  0
  7  8  2  0
  9 10  1  0
 10 12  1  0
 10 11  2  0
 13 12  1  6
 13 14  1  0
 14  7  1  0
 15 23  1  0
 15 13  1  0
 16 15  2  0
 18 17  1  0
 18 19  2  0
 20 21  1  0
 20 18  1  0
 22 21  1  6
 22 23  1  0
 22 24  1  0
 24 25  2  0
 24 26  1  0
M  END
$$$$
