PPN.pdb
     RDKit          3D

 23 24  0  0  1  0  0  0  0  0999 V2000
    8.6518  -14.3951   21.1839 N   0  0  0  0  0  0  0  0  0  0  0  0
    7.7431  -14.9863   20.1869 C   0  0  0  0  0  0  0  0  0  0  0  0
    6.9111  -15.8633   21.0933 C   0  0  0  0  0  0  0  0  0  0  0  0
    6.6062  -14.9375   22.2458 C   0  0  0  0  0  0  0  0  0  0  0  0
    7.7761  -14.0055   22.2740 C   0  0  1  0  0  0  0  0  0  0  0  0
    8.4397  -14.0972   23.5969 C   0  0  0  0  0  0  0  0  0  0  0  0
    9.5988  -14.6142   23.6404 O   0  0  0  0  0  0  0  0  0  0  0  0
    7.7955  -13.6206   24.7659 N   0  0  0  0  0  0  0  0  0  0  0  0
    6.4762  -13.0547   24.8155 C   0  0  0  0  0  0  0  0  0  0  0  0
    6.4268  -12.2078   26.0739 C   0  0  0  0  0  0  0  0  0  0  0  0
    7.7461  -12.4347   26.7974 C   0  0  0  0  0  0  0  0  0  0  0  0
    8.3689  -13.6235   26.0917 C   0  0  1  0  0  0  0  0  0  0  0  0
    8.0797  -14.8920   26.8046 C   0  0  0  0  0  0  0  0  0  0  0  0
    7.1248  -15.6040   26.3833 O   0  0  0  0  0  0  0  0  0  0  0  0
   12.7430  -17.8121   26.7813 N   0  0  0  0  0  0  0  0  0  0  0  0
   11.3351  -17.7958   26.6627 C   0  0  0  0  0  0  0  0  0  0  0  0
   10.7705  -18.9116   26.5384 O   0  0  0  0  0  0  0  0  0  0  0  0
   10.5310  -16.5548   26.6790 C   0  0  0  0  0  0  0  0  0  0  0  0
    9.5907  -16.5619   27.8472 C   0  0  2  0  0  0  0  0  0  0  0  0
    8.7957  -15.3533   27.9151 N   0  0  0  0  0  0  0  0  0  0  0  0
   10.3179  -16.6899   29.1136 C   0  0  0  0  0  0  0  0  0  0  0  0
   10.7629  -15.6803   29.6844 O   0  0  0  0  0  0  0  0  0  0  0  0
   10.5180  -17.9243   29.6866 O   0  0  0  0  0  0  0  0  0  0  0  0
  1  5  1  0
  1  2  1  0
  2  3  1  0
  4  3  1  0
  5  4  1  0
  5  6  1  1
  7  6  2  0
  8  6  1  0
  8 12  1  0
  9 10  1  0
  9  8  1  0
 10 11  1  0
 11 12  1  0
 12 13  1  1
 13 14  2  0
 16 15  1  0
 17 16  2  0
 18 16  1  0
 19 18  1  6
 20 13  1  0
 20 19  1  0
 21 19  1  0
 21 23  1  0
 22 21  2  0
M  END
$$$$
