PPN.pdb
     RDKit          3D

 23 24  0  0  1  0  0  0  0  0999 V2000
    8.3927  -14.1366   21.2686 N   0  0  0  0  0  0  0  0  0  0  0  0
    7.4515  -14.7561   20.3200 C   0  0  0  0  0  0  0  0  0  0  0  0
    6.8638  -15.8257   21.2106 C   0  0  0  0  0  0  0  0  0  0  0  0
    6.5871  -15.0668   22.4858 C   0  0  0  0  0  0  0  0  0  0  0  0
    7.6178  -13.9824   22.4863 C   0  0  1  0  0  0  0  0  0  0  0  0
    8.4493  -14.1019   23.7082 C   0  0  0  0  0  0  0  0  0  0  0  0
    9.6731  -14.4074   23.5610 O   0  0  0  0  0  0  0  0  0  0  0  0
    7.8893  -13.8797   24.9910 N   0  0  0  0  0  0  0  0  0  0  0  0
    6.4924  -13.6896   25.2662 C   0  0  0  0  0  0  0  0  0  0  0  0
    6.4189  -12.9576   26.5936 C   0  0  0  0  0  0  0  0  0  0  0  0
    7.8462  -12.8641   27.1130 C   0  0  0  0  0  0  0  0  0  0  0  0
    8.6382  -13.8030   26.2238 C   0  0  1  0  0  0  0  0  0  0  0  0
    8.7945  -15.1400   26.8473 C   0  0  0  0  0  0  0  0  0  0  0  0
    7.7589  -15.8476   26.9994 O   0  0  0  0  0  0  0  0  0  0  0  0
   10.0844  -18.4416   24.9452 N   0  0  0  0  0  0  0  0  0  0  0  0
   11.0082  -17.7169   25.7312 C   0  0  0  0  0  0  0  0  0  0  0  0
   11.7646  -16.9231   25.1172 O   0  0  0  0  0  0  0  0  0  0  0  0
   11.1125  -17.8554   27.1999 C   0  0  0  0  0  0  0  0  0  0  0  0
   10.0928  -16.9880   27.8758 C   0  0  2  0  0  0  0  0  0  0  0  0
   10.0154  -15.6708   27.2792 N   0  0  0  0  0  0  0  0  0  0  0  0
   10.4008  -16.8165   29.2987 C   0  0  0  0  0  0  0  0  0  0  0  0
   10.4088  -17.7981   30.0600 O   0  0  0  0  0  0  0  0  0  0  0  0
   10.6840  -15.5715   29.8106 O   0  0  0  0  0  0  0  0  0  0  0  0
  1  5  1  0
  1  2  1  0
  2  3  1  0
  4  3  1  0
  5  4  1  0
  5  6  1  1
  7  6  2  0
  8  6  1  0
  8 12  1  0
  9 10  1  0
  9  8  1  0
 10 11  1  0
 11 12  1  0
 12 13  1  1
 13 14  2  0
 16 15  1  0
 17 16  2  0
 18 16  1  0
 19 18  1  6
 20 13  1  0
 20 19  1  0
 21 19  1  0
 21 23  1  0
 22 21  2  0
M  END
$$$$
