PPN.pdb
     RDKit          3D

 23 24  0  0  1  0  0  0  0  0999 V2000
    7.3622  -11.9275   25.3332 N   0  0  0  0  0  0  0  0  0  0  0  0
    6.5959  -11.0015   26.1845 C   0  0  0  0  0  0  0  0  0  0  0  0
    5.4525  -11.9080   26.5769 C   0  0  0  0  0  0  0  0  0  0  0  0
    6.1664  -13.1867   26.9430 C   0  0  0  0  0  0  0  0  0  0  0  0
    7.3998  -13.1614   26.0968 C   0  0  1  0  0  0  0  0  0  0  0  0
    7.4210  -14.3652   25.2312 C   0  0  0  0  0  0  0  0  0  0  0  0
    7.2161  -15.4910   25.7819 O   0  0  0  0  0  0  0  0  0  0  0  0
    7.6610  -14.2531   23.8389 N   0  0  0  0  0  0  0  0  0  0  0  0
    7.6691  -13.0254   23.0933 C   0  0  0  0  0  0  0  0  0  0  0  0
    7.4068  -13.4069   21.6481 C   0  0  0  0  0  0  0  0  0  0  0  0
    7.3826  -14.9277   21.6021 C   0  0  0  0  0  0  0  0  0  0  0  0
    7.9290  -15.3591   22.9492 C   0  0  1  0  0  0  0  0  0  0  0  0
    9.3805  -15.6575   22.8772 C   0  0  0  0  0  0  0  0  0  0  0  0
   10.1910  -14.7119   23.0900 O   0  0  0  0  0  0  0  0  0  0  0  0
   12.8058  -18.8622   24.9779 N   0  0  0  0  0  0  0  0  0  0  0  0
   11.6589  -18.3055   25.5873 C   0  0  0  0  0  0  0  0  0  0  0  0
   11.5652  -18.4406   26.8332 O   0  0  0  0  0  0  0  0  0  0  0  0
   10.6019  -17.5945   24.8362 C   0  0  0  0  0  0  0  0  0  0  0  0
   10.9785  -17.4860   23.3886 C   0  0  2  0  0  0  0  0  0  0  0  0
    9.9127  -16.9193   22.5886 N   0  0  0  0  0  0  0  0  0  0  0  0
   11.3097  -18.7985   22.8262 C   0  0  0  0  0  0  0  0  0  0  0  0
   12.4750  -19.2257   22.8784 O   0  0  0  0  0  0  0  0  0  0  0  0
   10.3397  -19.5738   22.2343 O   0  0  0  0  0  0  0  0  0  0  0  0
  1  5  1  0
  1  2  1  0
  2  3  1  0
  4  3  1  0
  5  4  1  0
  5  6  1  6
  7  6  2  0
  8  6  1  0
  8 12  1  0
  9 10  1  0
  9  8  1  0
 10 11  1  0
 11 12  1  0
 12 13  1  6
 13 14  2  0
 16 15  1  0
 17 16  2  0
 18 16  1  0
 19 18  1  1
 20 13  1  0
 20 19  1  0
 21 19  1  0
 21 23  1  0
 22 21  2  0
M  END
$$$$
