PPN.pdb
     RDKit          3D

 23 24  0  0  1  0  0  0  0  0999 V2000
    9.0385  -13.7779   21.4334 N   0  0  0  0  0  0  0  0  0  0  0  0
    8.1989  -14.0417   20.2524 C   0  0  0  0  0  0  0  0  0  0  0  0
    7.0985  -14.8489   20.9009 C   0  0  0  0  0  0  0  0  0  0  0  0
    6.7936  -14.0411   22.1391 C   0  0  0  0  0  0  0  0  0  0  0  0
    8.0926  -13.3702   22.4562 C   0  0  1  0  0  0  0  0  0  0  0  0
    8.5239  -13.7644   23.8191 C   0  0  0  0  0  0  0  0  0  0  0  0
    9.6457  -14.3480   23.9367 O   0  0  0  0  0  0  0  0  0  0  0  0
    7.7068  -13.4939   24.9450 N   0  0  0  0  0  0  0  0  0  0  0  0
    6.3246  -13.1063   24.8945 C   0  0  0  0  0  0  0  0  0  0  0  0
    6.0342  -12.4048   26.2086 C   0  0  0  0  0  0  0  0  0  0  0  0
    7.2926  -12.5363   27.0538 C   0  0  0  0  0  0  0  0  0  0  0  0
    8.1390  -13.5595   26.3217 C   0  0  1  0  0  0  0  0  0  0  0  0
    7.9548  -14.9201   26.8836 C   0  0  0  0  0  0  0  0  0  0  0  0
    8.1079  -15.0728   28.1283 O   0  0  0  0  0  0  0  0  0  0  0  0
    7.9067  -17.7472   24.0566 N   0  0  0  0  0  0  0  0  0  0  0  0
    6.7290  -18.3027   24.6050 C   0  0  0  0  0  0  0  0  0  0  0  0
    6.0160  -18.9847   23.8266 O   0  0  0  0  0  0  0  0  0  0  0  0
    6.3202  -18.1159   26.0140 C   0  0  0  0  0  0  0  0  0  0  0  0
    7.3578  -17.3254   26.7540 C   0  0  2  0  0  0  0  0  0  0  0  0
    7.6220  -16.0481   26.1248 N   0  0  0  0  0  0  0  0  0  0  0  0
    8.6263  -18.0557   26.8321 C   0  0  0  0  0  0  0  0  0  0  0  0
    8.6669  -19.1863   27.3452 O   0  0  0  0  0  0  0  0  0  0  0  0
    9.7861  -17.5028   26.3408 O   0  0  0  0  0  0  0  0  0  0  0  0
  1  5  1  0
  1  2  1  0
  2  3  1  0
  4  3  1  0
  5  4  1  0
  5  6  1  1
  7  6  2  0
  8  6  1  0
  8 12  1  0
  9 10  1  0
  9  8  1  0
 10 11  1  0
 11 12  1  0
 12 13  1  1
 13 14  2  0
 16 15  1  0
 17 16  2  0
 18 16  1  0
 19 18  1  6
 20 13  1  0
 20 19  1  0
 21 19  1  0
 21 23  1  0
 22 21  2  0
M  END
$$$$
