PPN.pdb
     RDKit          3D

 23 24  0  0  1  0  0  0  0  0999 V2000
    7.0951  -17.7197   18.2669 N   0  0  0  0  0  0  0  0  0  0  0  0
    6.0147  -18.7196   18.2207 C   0  0  0  0  0  0  0  0  0  0  0  0
    6.1456  -19.2963   19.6110 C   0  0  0  0  0  0  0  0  0  0  0  0
    6.2757  -18.0568   20.4627 C   0  0  0  0  0  0  0  0  0  0  0  0
    6.9121  -17.0598   19.5468 C   0  0  1  0  0  0  0  0  0  0  0  0
    8.1924  -16.6027   20.1390 C   0  0  0  0  0  0  0  0  0  0  0  0
    9.2633  -16.8835   19.5168 O   0  0  0  0  0  0  0  0  0  0  0  0
    8.2102  -15.8772   21.3564 N   0  0  0  0  0  0  0  0  0  0  0  0
    7.0580  -15.5693   22.1570 C   0  0  0  0  0  0  0  0  0  0  0  0
    7.4391  -14.3671   23.0012 C   0  0  0  0  0  0  0  0  0  0  0  0
    8.9116  -14.0984   22.7273 C   0  0  0  0  0  0  0  0  0  0  0  0
    9.3914  -15.3275   21.9801 C   0  0  1  0  0  0  0  0  0  0  0  0
   10.0270  -16.3069   22.8954 C   0  0  0  0  0  0  0  0  0  0  0  0
    9.2743  -17.0004   23.6362 O   0  0  0  0  0  0  0  0  0  0  0  0
   12.3597  -19.8855   21.3344 N   0  0  0  0  0  0  0  0  0  0  0  0
   12.8728  -18.6135   21.6741 C   0  0  0  0  0  0  0  0  0  0  0  0
   13.0691  -17.8163   20.7226 O   0  0  0  0  0  0  0  0  0  0  0  0
   13.1764  -18.2021   23.0617 C   0  0  0  0  0  0  0  0  0  0  0  0
   11.9481  -17.6455   23.7177 C   0  0  2  0  0  0  0  0  0  0  0  0
   11.4076  -16.5141   22.9930 N   0  0  0  0  0  0  0  0  0  0  0  0
   12.2304  -17.2052   25.0871 C   0  0  0  0  0  0  0  0  0  0  0  0
   12.2746  -18.0315   26.0135 O   0  0  0  0  0  0  0  0  0  0  0  0
   12.4494  -15.8761   25.3661 O   0  0  0  0  0  0  0  0  0  0  0  0
  1  5  1  0
  1  2  1  0
  2  3  1  0
  4  3  1  0
  5  4  1  0
  5  6  1  1
  7  6  2  0
  8  6  1  0
  8 12  1  0
  9 10  1  0
  9  8  1  0
 10 11  1  0
 11 12  1  0
 12 13  1  1
 13 14  2  0
 16 15  1  0
 17 16  2  0
 18 16  1  0
 19 18  1  6
 20 13  1  0
 20 19  1  0
 21 19  1  0
 21 23  1  0
 22 21  2  0
M  END
$$$$
