PPN.pdb
     RDKit          3D

 23 24  0  0  1  0  0  0  0  0999 V2000
    8.3670  -14.1479   21.1082 N   0  0  0  0  0  0  0  0  0  0  0  0
    7.4018  -14.7871   20.1975 C   0  0  0  0  0  0  0  0  0  0  0  0
    6.7992  -15.8016   21.1411 C   0  0  0  0  0  0  0  0  0  0  0  0
    6.5535  -14.9799   22.3833 C   0  0  0  0  0  0  0  0  0  0  0  0
    7.6088  -13.9211   22.3251 C   0  0  1  0  0  0  0  0  0  0  0  0
    8.4502  -14.0050   23.5431 C   0  0  0  0  0  0  0  0  0  0  0  0
    9.6773  -14.2960   23.3932 O   0  0  0  0  0  0  0  0  0  0  0  0
    7.8959  -13.7659   24.8254 N   0  0  0  0  0  0  0  0  0  0  0  0
    6.5026  -13.5515   25.1014 C   0  0  0  0  0  0  0  0  0  0  0  0
    6.4431  -12.8103   26.4243 C   0  0  0  0  0  0  0  0  0  0  0  0
    7.8724  -12.7367   26.9410 C   0  0  0  0  0  0  0  0  0  0  0  0
    8.6478  -13.6937   26.0566 C   0  0  1  0  0  0  0  0  0  0  0  0
    8.7835  -15.0293   26.6881 C   0  0  0  0  0  0  0  0  0  0  0  0
    7.7884  -15.8069   26.6491 O   0  0  0  0  0  0  0  0  0  0  0  0
    9.9023  -18.0076   24.9380 N   0  0  0  0  0  0  0  0  0  0  0  0
   11.2071  -17.8248   25.4484 C   0  0  0  0  0  0  0  0  0  0  0  0
   12.1560  -18.1237   24.6805 O   0  0  0  0  0  0  0  0  0  0  0  0
   11.4853  -17.3121   26.8074 C   0  0  0  0  0  0  0  0  0  0  0  0
   10.2082  -16.9015   27.4778 C   0  0  2  0  0  0  0  0  0  0  0  0
    9.9427  -15.4860   27.3255 N   0  0  0  0  0  0  0  0  0  0  0  0
   10.2427  -17.1976   28.9130 C   0  0  0  0  0  0  0  0  0  0  0  0
   10.2167  -16.2739   29.7433 O   0  0  0  0  0  0  0  0  0  0  0  0
   10.3043  -18.4969   29.3605 O   0  0  0  0  0  0  0  0  0  0  0  0
  1  5  1  0
  1  2  1  0
  2  3  1  0
  4  3  1  0
  5  4  1  0
  5  6  1  1
  7  6  2  0
  8  6  1  0
  8 12  1  0
  9 10  1  0
  9  8  1  0
 10 11  1  0
 11 12  1  0
 12 13  1  1
 13 14  2  0
 16 15  1  0
 17 16  2  0
 18 16  1  0
 19 18  1  1
 20 13  1  0
 20 19  1  0
 21 19  1  0
 21 23  1  0
 22 21  2  0
M  END
$$$$
