PPN.pdb
     RDKit          3D

 23 24  0  0  1  0  0  0  0  0999 V2000
    8.2722  -13.9755   20.9454 N   0  0  0  0  0  0  0  0  0  0  0  0
    7.2874  -14.5260   19.9986 C   0  0  0  0  0  0  0  0  0  0  0  0
    6.6668  -15.5914   20.8718 C   0  0  0  0  0  0  0  0  0  0  0  0
    6.4473  -14.8551   22.1712 C   0  0  0  0  0  0  0  0  0  0  0  0
    7.5264  -13.8190   22.1808 C   0  0  1  0  0  0  0  0  0  0  0  0
    8.3725  -14.0088   23.3836 C   0  0  0  0  0  0  0  0  0  0  0  0
    9.5900  -14.3227   23.2045 O   0  0  0  0  0  0  0  0  0  0  0  0
    7.8330  -13.8421   24.6835 N   0  0  0  0  0  0  0  0  0  0  0  0
    6.4518  -13.5858   24.9832 C   0  0  0  0  0  0  0  0  0  0  0  0
    6.4297  -12.9447   26.3586 C   0  0  0  0  0  0  0  0  0  0  0  0
    7.8622  -12.9759   26.8709 C   0  0  0  0  0  0  0  0  0  0  0  0
    8.5905  -13.8977   25.9122 C   0  0  1  0  0  0  0  0  0  0  0  0
    8.6660  -15.2820   26.4403 C   0  0  0  0  0  0  0  0  0  0  0  0
    7.6028  -15.9639   26.4693 O   0  0  0  0  0  0  0  0  0  0  0  0
   11.9796  -17.3890   24.3091 N   0  0  0  0  0  0  0  0  0  0  0  0
   10.9488  -17.9025   25.1278 C   0  0  0  0  0  0  0  0  0  0  0  0
    9.9104  -18.2967   24.5400 O   0  0  0  0  0  0  0  0  0  0  0  0
   11.0459  -17.9890   26.6010 C   0  0  0  0  0  0  0  0  0  0  0  0
    9.8803  -17.2937   27.2388 C   0  0  2  0  0  0  0  0  0  0  0  0
    9.8391  -15.8840   26.9097 N   0  0  0  0  0  0  0  0  0  0  0  0
    9.9266  -17.4101   28.6993 C   0  0  0  0  0  0  0  0  0  0  0  0
    9.9077  -18.5290   29.2388 O   0  0  0  0  0  0  0  0  0  0  0  0
    9.9911  -16.2874   29.4915 O   0  0  0  0  0  0  0  0  0  0  0  0
  1  5  1  0
  1  2  1  0
  2  3  1  0
  4  3  1  0
  5  4  1  0
  5  6  1  1
  7  6  2  0
  8  6  1  0
  8 12  1  0
  9 10  1  0
  9  8  1  0
 10 11  1  0
 11 12  1  0
 12 13  1  1
 13 14  2  0
 16 15  1  0
 17 16  2  0
 18 16  1  0
 19 18  1  6
 20 13  1  0
 20 19  1  0
 21 19  1  0
 21 23  1  0
 22 21  2  0
M  END
$$$$
