PPN.pdb
     RDKit          3D

 23 24  0  0  1  0  0  0  0  0999 V2000
    8.2093  -13.6213   20.8146 N   0  0  0  0  0  0  0  0  0  0  0  0
    7.2284  -14.1295   19.8405 C   0  0  0  0  0  0  0  0  0  0  0  0
    6.6110  -15.2386   20.6599 C   0  0  0  0  0  0  0  0  0  0  0  0
    6.3862  -14.5672   21.9930 C   0  0  0  0  0  0  0  0  0  0  0  0
    7.4608  -13.5282   22.0549 C   0  0  1  0  0  0  0  0  0  0  0  0
    8.3058  -13.7725   23.2486 C   0  0  0  0  0  0  0  0  0  0  0  0
    9.5205  -14.0893   23.0563 O   0  0  0  0  0  0  0  0  0  0  0  0
    7.7682  -13.6527   24.5545 N   0  0  0  0  0  0  0  0  0  0  0  0
    6.3833  -13.4331   24.8659 C   0  0  0  0  0  0  0  0  0  0  0  0
    6.3537  -12.8307   26.2585 C   0  0  0  0  0  0  0  0  0  0  0  0
    7.7886  -12.8466   26.7648 C   0  0  0  0  0  0  0  0  0  0  0  0
    8.5317  -13.7266   25.7785 C   0  0  1  0  0  0  0  0  0  0  0  0
    8.6376  -15.1230   26.2680 C   0  0  0  0  0  0  0  0  0  0  0  0
    7.6480  -15.8888   26.0931 O   0  0  0  0  0  0  0  0  0  0  0  0
   10.1039  -17.4019   24.1074 N   0  0  0  0  0  0  0  0  0  0  0  0
   11.3173  -17.5048   24.8240 C   0  0  0  0  0  0  0  0  0  0  0  0
   12.3489  -17.7447   24.1476 O   0  0  0  0  0  0  0  0  0  0  0  0
   11.4122  -17.3459   26.2913 C   0  0  0  0  0  0  0  0  0  0  0  0
   10.0575  -17.0669   26.8710 C   0  0  2  0  0  0  0  0  0  0  0  0
    9.7630  -15.6496   26.9120 N   0  0  0  0  0  0  0  0  0  0  0  0
    9.9474  -17.5857   28.2376 C   0  0  0  0  0  0  0  0  0  0  0  0
    9.8756  -16.8036   29.2000 O   0  0  0  0  0  0  0  0  0  0  0  0
    9.9224  -18.9406   28.4742 O   0  0  0  0  0  0  0  0  0  0  0  0
  1  5  1  0
  1  2  1  0
  2  3  1  0
  4  3  1  0
  5  4  1  0
  5  6  1  1
  7  6  2  0
  8  6  1  0
  8 12  1  0
  9 10  1  0
  9  8  1  0
 10 11  1  0
 11 12  1  0
 12 13  1  1
 13 14  2  0
 16 15  1  0
 17 16  2  0
 18 16  1  0
 19 18  1  1
 20 13  1  0
 20 19  1  0
 21 19  1  0
 21 23  1  0
 22 21  2  0
M  END
$$$$
