PPN.pdb
     RDKit          3D

 23 24  0  0  1  0  0  0  0  0999 V2000
    8.0889  -14.5292   20.1470 N   0  0  0  0  0  0  0  0  0  0  0  0
    7.0884  -15.1952   19.2956 C   0  0  0  0  0  0  0  0  0  0  0  0
    6.5729  -16.2263   20.2723 C   0  0  0  0  0  0  0  0  0  0  0  0
    6.3803  -15.4118   21.5285 C   0  0  0  0  0  0  0  0  0  0  0  0
    7.4000  -14.3238   21.4081 C   0  0  1  0  0  0  0  0  0  0  0  0
    8.3160  -14.3842   22.5727 C   0  0  0  0  0  0  0  0  0  0  0  0
    9.5408  -14.6332   22.3471 O   0  0  0  0  0  0  0  0  0  0  0  0
    7.8326  -14.1689   23.8874 N   0  0  0  0  0  0  0  0  0  0  0  0
    6.4560  -13.9654   24.2436 C   0  0  0  0  0  0  0  0  0  0  0  0
    6.4672  -13.2466   25.5801 C   0  0  0  0  0  0  0  0  0  0  0  0
    7.9227  -13.1753   26.0182 C   0  0  0  0  0  0  0  0  0  0  0  0
    8.6513  -14.1140   25.0762 C   0  0  1  0  0  0  0  0  0  0  0  0
    8.8263  -15.4593   25.6766 C   0  0  0  0  0  0  0  0  0  0  0  0
    7.8123  -16.2086   25.7574 O   0  0  0  0  0  0  0  0  0  0  0  0
   13.7084  -17.2473   26.3438 N   0  0  0  0  0  0  0  0  0  0  0  0
   12.7145  -16.7391   25.4775 C   0  0  0  0  0  0  0  0  0  0  0  0
   12.8667  -15.5554   25.0836 O   0  0  0  0  0  0  0  0  0  0  0  0
   11.5424  -17.5241   25.0337 C   0  0  0  0  0  0  0  0  0  0  0  0
   10.4057  -17.3468   25.9957 C   0  0  2  0  0  0  0  0  0  0  0  0
   10.0426  -15.9546   26.1606 N   0  0  0  0  0  0  0  0  0  0  0  0
   10.7415  -17.8805   27.3190 C   0  0  0  0  0  0  0  0  0  0  0  0
   10.6863  -17.1488   28.3213 O   0  0  0  0  0  0  0  0  0  0  0  0
   11.1215  -19.1938   27.4705 O   0  0  0  0  0  0  0  0  0  0  0  0
  1  5  1  0
  1  2  1  0
  2  3  1  0
  4  3  1  0
  5  4  1  0
  5  6  1  1
  7  6  2  0
  8  6  1  0
  8 12  1  0
  9 10  1  0
  9  8  1  0
 10 11  1  0
 11 12  1  0
 12 13  1  1
 13 14  2  0
 16 15  1  0
 17 16  2  0
 18 16  1  0
 19 18  1  6
 20 13  1  0
 20 19  1  0
 21 19  1  0
 21 23  1  0
 22 21  2  0
M  END
$$$$
