PPN.pdb
     RDKit          3D

 23 24  0  0  1  0  0  0  0  0999 V2000
    5.7318  -18.4217   19.1875 N   0  0  0  0  0  0  0  0  0  0  0  0
    4.5744  -19.0342   19.8616 C   0  0  0  0  0  0  0  0  0  0  0  0
    4.8651  -18.6219   21.2858 C   0  0  0  0  0  0  0  0  0  0  0  0
    5.2306  -17.1655   21.1311 C   0  0  0  0  0  0  0  0  0  0  0  0
    5.8040  -17.0862   19.7516 C   0  0  1  0  0  0  0  0  0  0  0  0
    7.1944  -16.5770   19.8310 C   0  0  0  0  0  0  0  0  0  0  0  0
    8.1333  -17.3760   19.5262 O   0  0  0  0  0  0  0  0  0  0  0  0
    7.4564  -15.2434   20.2329 N   0  0  0  0  0  0  0  0  0  0  0  0
    6.4754  -14.3149   20.7215 C   0  0  0  0  0  0  0  0  0  0  0  0
    7.0538  -12.9304   20.4941 C   0  0  0  0  0  0  0  0  0  0  0  0
    8.4686  -13.1354   19.9727 C   0  0  0  0  0  0  0  0  0  0  0  0
    8.7526  -14.6063   20.2075 C   0  0  1  0  0  0  0  0  0  0  0  0
    9.4878  -14.8222   21.4779 C   0  0  0  0  0  0  0  0  0  0  0  0
   10.6893  -14.4363   21.5400 O   0  0  0  0  0  0  0  0  0  0  0  0
    7.2726  -16.8623   24.1092 N   0  0  0  0  0  0  0  0  0  0  0  0
    7.4201  -15.7639   24.9857 C   0  0  0  0  0  0  0  0  0  0  0  0
    6.4897  -15.5755   25.8092 O   0  0  0  0  0  0  0  0  0  0  0  0
    8.5903  -14.8598   24.9682 C   0  0  0  0  0  0  0  0  0  0  0  0
    9.5641  -15.2930   23.9133 C   0  0  2  0  0  0  0  0  0  0  0  0
    8.9379  -15.4262   22.6143 N   0  0  0  0  0  0  0  0  0  0  0  0
   10.1729  -16.5833   24.2500 C   0  0  0  0  0  0  0  0  0  0  0  0
    9.9148  -17.5926   23.5733 O   0  0  0  0  0  0  0  0  0  0  0  0
   11.0352  -16.6959   25.3158 O   0  0  0  0  0  0  0  0  0  0  0  0
  1  5  1  0
  1  2  1  0
  2  3  1  0
  4  3  1  0
  5  4  1  0
  5  6  1  1
  7  6  2  0
  8  6  1  0
  8 12  1  0
  9 10  1  0
  9  8  1  0
 10 11  1  0
 11 12  1  0
 12 13  1  1
 13 14  2  0
 16 15  1  0
 17 16  2  0
 18 16  1  0
 19 18  1  1
 20 13  1  0
 20 19  1  0
 21 19  1  0
 21 23  1  0
 22 21  2  0
M  END
$$$$
