PPN.pdb
     RDKit          3D

 23 24  0  0  1  0  0  0  0  0999 V2000
    8.8287  -13.4014   20.8198 N   0  0  0  0  0  0  0  0  0  0  0  0
    7.9803  -13.6044   19.6331 C   0  0  0  0  0  0  0  0  0  0  0  0
    6.9625  -14.5596   20.2116 C   0  0  0  0  0  0  0  0  0  0  0  0
    6.6302  -13.9135   21.5347 C   0  0  0  0  0  0  0  0  0  0  0  0
    7.8823  -13.1797   21.8979 C   0  0  1  0  0  0  0  0  0  0  0  0
    8.3788  -13.6803   23.2023 C   0  0  0  0  0  0  0  0  0  0  0  0
    9.4851  -14.3039   23.2120 O   0  0  0  0  0  0  0  0  0  0  0  0
    7.6384  -13.4644   24.3914 N   0  0  0  0  0  0  0  0  0  0  0  0
    6.3276  -12.8811   24.4595 C   0  0  0  0  0  0  0  0  0  0  0  0
    6.1762  -12.3458   25.8715 C   0  0  0  0  0  0  0  0  0  0  0  0
    7.4219  -12.7775   26.6312 C   0  0  0  0  0  0  0  0  0  0  0  0
    8.0901  -13.7920   25.7237 C   0  0  1  0  0  0  0  0  0  0  0  0
    7.7213  -15.1802   26.0952 C   0  0  0  0  0  0  0  0  0  0  0  0
    6.6388  -15.6473   25.6410 O   0  0  0  0  0  0  0  0  0  0  0  0
   10.5472  -18.8037   24.1633 N   0  0  0  0  0  0  0  0  0  0  0  0
   11.0710  -17.6266   24.7436 C   0  0  0  0  0  0  0  0  0  0  0  0
   12.3234  -17.5378   24.7971 O   0  0  0  0  0  0  0  0  0  0  0  0
   10.2262  -16.5338   25.2719 C   0  0  0  0  0  0  0  0  0  0  0  0
    9.3317  -17.0498   26.3594 C   0  0  2  0  0  0  0  0  0  0  0  0
    8.4942  -16.0083   26.9171 N   0  0  0  0  0  0  0  0  0  0  0  0
   10.1105  -17.6320   27.4563 C   0  0  0  0  0  0  0  0  0  0  0  0
   10.7195  -16.8963   28.2506 O   0  0  0  0  0  0  0  0  0  0  0  0
   10.1789  -18.9959   27.6220 O   0  0  0  0  0  0  0  0  0  0  0  0
  1  5  1  0
  1  2  1  0
  2  3  1  0
  4  3  1  0
  5  4  1  0
  5  6  1  1
  7  6  2  0
  8  6  1  0
  8 12  1  0
  9 10  1  0
  9  8  1  0
 10 11  1  0
 11 12  1  0
 12 13  1  1
 13 14  2  0
 16 15  1  0
 17 16  2  0
 18 16  1  0
 19 18  1  6
 20 13  1  0
 20 19  1  0
 21 19  1  0
 21 23  1  0
 22 21  2  0
M  END
$$$$
