PPN.pdb
     RDKit          3D

 23 24  0  0  1  0  0  0  0  0999 V2000
    6.5068  -13.8439   26.8680 N   0  0  0  0  0  0  0  0  0  0  0  0
    6.7218  -12.6184   27.6562 C   0  0  0  0  0  0  0  0  0  0  0  0
    7.9968  -12.1255   27.0127 C   0  0  0  0  0  0  0  0  0  0  0  0
    7.6977  -12.2852   25.5418 C   0  0  0  0  0  0  0  0  0  0  0  0
    6.7314  -13.4263   25.4961 C   0  0  1  0  0  0  0  0  0  0  0  0
    7.2974  -14.5102   24.6573 C   0  0  0  0  0  0  0  0  0  0  0  0
    7.5615  -15.6163   25.2227 O   0  0  0  0  0  0  0  0  0  0  0  0
    7.5308  -14.3098   23.2739 N   0  0  0  0  0  0  0  0  0  0  0  0
    7.2686  -13.0945   22.5545 C   0  0  0  0  0  0  0  0  0  0  0  0
    7.1286  -13.4887   21.0957 C   0  0  0  0  0  0  0  0  0  0  0  0
    7.4576  -14.9723   21.0174 C   0  0  0  0  0  0  0  0  0  0  0  0
    8.0638  -15.3007   22.3680 C   0  0  1  0  0  0  0  0  0  0  0  0
    9.5460  -15.2542   22.3247 C   0  0  0  0  0  0  0  0  0  0  0  0
   10.1090  -14.1364   22.4975 O   0  0  0  0  0  0  0  0  0  0  0  0
   13.8107  -15.6789   25.1600 N   0  0  0  0  0  0  0  0  0  0  0  0
   12.9301  -16.7231   24.7985 C   0  0  0  0  0  0  0  0  0  0  0  0
   13.3401  -17.8948   24.9946 O   0  0  0  0  0  0  0  0  0  0  0  0
   11.5897  -16.4933   24.2175 C   0  0  0  0  0  0  0  0  0  0  0  0
   11.6704  -16.4746   22.7201 C   0  0  2  0  0  0  0  0  0  0  0  0
   10.3638  -16.3684   22.1046 N   0  0  0  0  0  0  0  0  0  0  0  0
   12.3082  -17.6907   22.2072 C   0  0  0  0  0  0  0  0  0  0  0  0
   13.5203  -17.6946   21.9353 O   0  0  0  0  0  0  0  0  0  0  0  0
   11.5776  -18.8411   22.0198 O   0  0  0  0  0  0  0  0  0  0  0  0
  1  5  1  0
  1  2  1  0
  2  3  1  0
  4  3  1  0
  5  4  1  0
  5  6  1  6
  7  6  2  0
  8  6  1  0
  8 12  1  0
  9 10  1  0
  9  8  1  0
 10 11  1  0
 11 12  1  0
 12 13  1  6
 13 14  2  0
 16 15  1  0
 17 16  2  0
 18 16  1  0
 19 18  1  1
 20 13  1  0
 20 19  1  0
 21 19  1  0
 21 23  1  0
 22 21  2  0
M  END
$$$$
