CHE.pdb
     RDKit          3D

 26 26  0  0  1  0  0  0  0  0999 V2000
    7.7707  -21.0181   18.2590 N   0  0  0  0  0  0  0  0  0  0  0  0
    8.1192  -20.8717   19.6362 C   0  0  1  0  0  0  0  0  0  0  0  0
    7.3251  -21.8638   20.4681 C   0  0  0  0  0  0  0  0  0  0  0  0
    7.6733  -21.5222   22.2144 S   0  0  0  0  0  0  0  0  0  0  0  0
    9.5991  -21.0686   19.8760 C   0  0  0  0  0  0  0  0  0  0  0  0
    9.9065  -22.0471   20.5578 O   0  0  0  0  0  0  0  0  0  0  0  0
   10.5463  -20.1705   19.3389 N   0  0  0  0  0  0  0  0  0  0  0  0
   11.9415  -20.2408   19.3952 C   0  0  1  0  0  0  0  0  0  0  0  0
   12.7061  -19.6944   18.1815 C   0  0  0  0  0  0  0  0  0  0  0  0
   12.3643  -20.3989   16.9200 C   0  0  0  0  0  0  0  0  0  0  0  0
   12.2842  -21.7933   16.7653 C   0  0  0  0  0  0  0  0  0  0  0  0
   11.9562  -22.0556   15.5065 N   0  0  0  0  0  0  0  0  0  0  0  0
   11.8165  -20.9073   14.8260 C   0  0  0  0  0  0  0  0  0  0  0  0
   12.0677  -19.9408   15.7021 N   0  0  0  0  0  0  0  0  0  0  0  0
   12.6241  -19.8525   20.6248 C   0  0  0  0  0  0  0  0  0  0  0  0
   12.7191  -18.5988   20.8745 O   0  0  0  0  0  0  0  0  0  0  0  0
   13.1865  -20.7460   21.5590 N   0  0  0  0  0  0  0  0  0  0  0  0
   13.7509  -20.2779   22.8379 C   0  0  1  0  0  0  0  0  0  0  0  0
   13.6251  -21.3335   23.8821 C   0  0  0  0  0  0  0  0  0  0  0  0
   12.2172  -21.4828   24.3670 C   0  0  0  0  0  0  0  0  0  0  0  0
   12.1063  -21.7223   25.8194 C   0  0  0  0  0  0  0  0  0  0  0  0
   13.0369  -21.9812   26.5863 O   0  0  0  0  0  0  0  0  0  0  0  0
   15.1390  -19.8514   22.6660 C   0  0  0  0  0  0  0  0  0  0  0  0
   15.9179  -20.4360   21.6299 O   0  0  0  0  0  0  0  0  0  0  0  0
   10.8208  -21.6483   26.3795 O   0  0  0  0  0  0  0  0  0  0  0  0
   15.7352  -19.0086   23.3423 O   0  0  0  0  0  0  0  0  0  0  0  0
  2  5  1  0
  2  1  1  6
  3  2  1  0
  4  3  1  0
  5  6  2  0
  7  8  1  0
  7  5  1  0
  9 10  1  0
  8  9  1  6
 10 11  2  0
 11 12  1  0
 13 12  1  0
 14 10  1  0
 14 13  2  0
 15  8  1  0
 15 16  2  0
 17 15  1  0
 18 17  1  0
 18 23  1  0
 18 19  1  1
 20 21  1  0
 20 19  1  0
 21 25  1  0
 22 21  2  0
 23 26  2  0
 23 24  1  0
M  END
$$$$
