CHE.pdb
     RDKit          3D

 26 26  0  0  1  0  0  0  0  0999 V2000
    5.8820  -16.9128   21.8099 N   0  0  0  0  0  0  0  0  0  0  0  0
    6.7739  -15.8191   21.5906 C   0  0  1  0  0  0  0  0  0  0  0  0
    6.0406  -14.7052   20.8637 C   0  0  0  0  0  0  0  0  0  0  0  0
    7.2626  -13.4447   20.4107 S   0  0  0  0  0  0  0  0  0  0  0  0
    7.3604  -15.2917   22.8806 C   0  0  0  0  0  0  0  0  0  0  0  0
    6.8725  -14.2424   23.3023 O   0  0  0  0  0  0  0  0  0  0  0  0
    8.4018  -15.9808   23.5387 N   0  0  0  0  0  0  0  0  0  0  0  0
    9.0567  -15.6399   24.7259 C   0  0  1  0  0  0  0  0  0  0  0  0
    8.1653  -15.2842   25.9240 C   0  0  0  0  0  0  0  0  0  0  0  0
    8.9420  -14.8348   27.1070 C   0  0  0  0  0  0  0  0  0  0  0  0
    9.7384  -13.6784   27.1634 C   0  0  0  0  0  0  0  0  0  0  0  0
   10.2773  -13.6012   28.3736 N   0  0  0  0  0  0  0  0  0  0  0  0
    9.8771  -14.6457   29.1153 C   0  0  0  0  0  0  0  0  0  0  0  0
    9.0818  -15.3595   28.3261 N   0  0  0  0  0  0  0  0  0  0  0  0
   10.1856  -16.4486   25.1730 C   0  0  0  0  0  0  0  0  0  0  0  0
    9.9216  -17.5831   25.7080 O   0  0  0  0  0  0  0  0  0  0  0  0
   11.5423  -16.0816   25.0630 N   0  0  0  0  0  0  0  0  0  0  0  0
   12.6297  -17.0400   25.3314 C   0  0  1  0  0  0  0  0  0  0  0  0
   13.9190  -16.5354   24.7803 C   0  0  0  0  0  0  0  0  0  0  0  0
   13.8532  -16.3160   23.3014 C   0  0  0  0  0  0  0  0  0  0  0  0
   15.1680  -16.3540   22.6312 C   0  0  0  0  0  0  0  0  0  0  0  0
   15.7269  -17.3585   22.1842 O   0  0  0  0  0  0  0  0  0  0  0  0
   12.7285  -17.3235   26.7625 C   0  0  0  0  0  0  0  0  0  0  0  0
   11.8955  -16.6095   27.6672 O   0  0  0  0  0  0  0  0  0  0  0  0
   15.8451  -15.1320   22.4901 O   0  0  0  0  0  0  0  0  0  0  0  0
   13.4802  -18.1440   27.2963 O   0  0  0  0  0  0  0  0  0  0  0  0
  2  5  1  0
  2  1  1  1
  3  2  1  0
  4  3  1  0
  5  6  2  0
  7  8  1  0
  7  5  1  0
  9 10  1  0
  8  9  1  1
 10 11  2  0
 11 12  1  0
 13 12  1  0
 14 10  1  0
 14 13  2  0
 15  8  1  0
 15 16  2  0
 17 15  1  0
 18 17  1  0
 18 23  1  0
 18 19  1  1
 20 21  1  0
 20 19  1  0
 21 25  1  0
 22 21  2  0
 23 26  2  0
 23 24  1  0
M  END
$$$$
