CHE.pdb
     RDKit          3D

 26 26  0  0  1  0  0  0  0  0999 V2000
    7.4922  -16.0676   18.4248 N   0  0  0  0  0  0  0  0  0  0  0  0
    8.1847  -15.1606   19.2837 C   0  0  1  0  0  0  0  0  0  0  0  0
    7.4867  -15.1061   20.6315 C   0  0  0  0  0  0  0  0  0  0  0  0
    8.3604  -13.8921   21.6562 S   0  0  0  0  0  0  0  0  0  0  0  0
    9.6351  -15.5445   19.4713 C   0  0  0  0  0  0  0  0  0  0  0  0
    9.8479  -16.7319   19.7196 O   0  0  0  0  0  0  0  0  0  0  0  0
   10.6602  -14.5804   19.3622 N   0  0  0  0  0  0  0  0  0  0  0  0
   12.0314  -14.7392   19.5845 C   0  0  1  0  0  0  0  0  0  0  0  0
   12.9620  -13.7497   18.8696 C   0  0  0  0  0  0  0  0  0  0  0  0
   13.8664  -14.4102   17.8947 C   0  0  0  0  0  0  0  0  0  0  0  0
   13.7781  -15.7518   17.4860 C   0  0  0  0  0  0  0  0  0  0  0  0
   14.7478  -15.9863   16.6109 N   0  0  0  0  0  0  0  0  0  0  0  0
   15.4684  -14.8698   16.4231 C   0  0  0  0  0  0  0  0  0  0  0  0
   14.9129  -13.9510   17.2055 N   0  0  0  0  0  0  0  0  0  0  0  0
   12.5092  -14.9736   20.9428 C   0  0  0  0  0  0  0  0  0  0  0  0
   11.9694  -14.2895   21.8829 O   0  0  0  0  0  0  0  0  0  0  0  0
   13.5164  -15.8920   21.3029 N   0  0  0  0  0  0  0  0  0  0  0  0
   13.9679  -16.0410   22.6983 C   0  0  1  0  0  0  0  0  0  0  0  0
   13.2189  -17.1368   23.3757 C   0  0  0  0  0  0  0  0  0  0  0  0
   11.8408  -16.7139   23.7775 C   0  0  0  0  0  0  0  0  0  0  0  0
   11.0769  -17.7586   24.4876 C   0  0  0  0  0  0  0  0  0  0  0  0
   11.3886  -18.2852   25.5585 O   0  0  0  0  0  0  0  0  0  0  0  0
   15.4126  -16.2597   22.7543 C   0  0  0  0  0  0  0  0  0  0  0  0
   16.0666  -16.2342   24.0167 O   0  0  0  0  0  0  0  0  0  0  0  0
    9.8843  -18.1930   23.8871 O   0  0  0  0  0  0  0  0  0  0  0  0
   16.1587  -16.4734   21.7947 O   0  0  0  0  0  0  0  0  0  0  0  0
  2  5  1  0
  2  1  1  6
  3  2  1  0
  4  3  1  0
  5  6  2  0
  7  8  1  0
  7  5  1  0
  9 10  1  0
  8  9  1  1
 10 11  2  0
 11 12  1  0
 13 12  1  0
 14 10  1  0
 14 13  2  0
 15  8  1  0
 15 16  2  0
 17 15  1  0
 18 17  1  0
 18 23  1  0
 18 19  1  6
 20 21  1  0
 20 19  1  0
 21 25  1  0
 22 21  2  0
 23 26  2  0
 23 24  1  0
M  END
$$$$
