CHE.pdb
     RDKit          3D

 26 26  0  0  1  0  0  0  0  0999 V2000
   12.2405  -17.5451   14.7786 N   0  0  0  0  0  0  0  0  0  0  0  0
   11.0158  -17.8569   15.4438 C   0  0  1  0  0  0  0  0  0  0  0  0
   10.5934  -19.2724   15.0905 C   0  0  0  0  0  0  0  0  0  0  0  0
   11.6326  -20.4120   16.0437 S   0  0  0  0  0  0  0  0  0  0  0  0
   11.1273  -17.7135   16.9449 C   0  0  0  0  0  0  0  0  0  0  0  0
   12.2716  -17.7142   17.4003 O   0  0  0  0  0  0  0  0  0  0  0  0
    9.9739  -17.5881   17.7489 N   0  0  0  0  0  0  0  0  0  0  0  0
    9.8922  -17.4497   19.1377 C   0  0  1  0  0  0  0  0  0  0  0  0
    8.5683  -16.9106   19.6972 C   0  0  0  0  0  0  0  0  0  0  0  0
    8.3478  -15.4777   19.3765 C   0  0  0  0  0  0  0  0  0  0  0  0
    9.2727  -14.6388   18.7321 C   0  0  0  0  0  0  0  0  0  0  0  0
    8.7321  -13.4325   18.6160 N   0  0  0  0  0  0  0  0  0  0  0  0
    7.5008  -13.4345   19.1501 C   0  0  0  0  0  0  0  0  0  0  0  0
    7.3065  -14.6716   19.5935 N   0  0  0  0  0  0  0  0  0  0  0  0
   10.3872  -18.5252   19.9900 C   0  0  0  0  0  0  0  0  0  0  0  0
   10.2592  -19.7251   19.5575 O   0  0  0  0  0  0  0  0  0  0  0  0
   10.9947  -18.3496   21.2500 N   0  0  0  0  0  0  0  0  0  0  0  0
   11.5633  -19.4828   22.0021 C   0  0  1  0  0  0  0  0  0  0  0  0
   12.8209  -19.9582   21.3595 C   0  0  0  0  0  0  0  0  0  0  0  0
   13.8786  -18.8997   21.3380 C   0  0  0  0  0  0  0  0  0  0  0  0
   15.1571  -19.3427   20.7475 C   0  0  0  0  0  0  0  0  0  0  0  0
   15.4376  -19.3538   19.5465 O   0  0  0  0  0  0  0  0  0  0  0  0
   11.7764  -19.1198   23.4025 C   0  0  0  0  0  0  0  0  0  0  0  0
   11.4690  -17.7982   23.8280 O   0  0  0  0  0  0  0  0  0  0  0  0
   16.1457  -19.7934   21.6370 O   0  0  0  0  0  0  0  0  0  0  0  0
   12.2082  -19.8575   24.2927 O   0  0  0  0  0  0  0  0  0  0  0  0
  2  5  1  0
  2  1  1  6
  3  2  1  0
  4  3  1  0
  5  6  2  0
  7  8  1  0
  7  5  1  0
  9 10  1  0
  8  9  1  6
 10 11  2  0
 11 12  1  0
 13 12  1  0
 14 10  1  0
 14 13  2  0
 15  8  1  0
 15 16  2  0
 17 15  1  0
 18 17  1  0
 18 23  1  0
 18 19  1  6
 20 21  1  0
 20 19  1  0
 21 25  1  0
 22 21  2  0
 23 26  2  0
 23 24  1  0
M  END
$$$$
