CHE.pdb
     RDKit          3D

 26 26  0  0  1  0  0  0  0  0999 V2000
    5.9363  -16.1571   24.4425 N   0  0  0  0  0  0  0  0  0  0  0  0
    6.9898  -15.2699   24.0648 C   0  0  1  0  0  0  0  0  0  0  0  0
    7.3829  -14.4138   25.2562 C   0  0  0  0  0  0  0  0  0  0  0  0
    5.9600  -13.3735   25.6811 S   0  0  0  0  0  0  0  0  0  0  0  0
    8.2006  -16.0092   23.5416 C   0  0  0  0  0  0  0  0  0  0  0  0
    8.4534  -17.0817   24.0919 O   0  0  0  0  0  0  0  0  0  0  0  0
    8.9740  -15.4789   22.4866 N   0  0  0  0  0  0  0  0  0  0  0  0
   10.1145  -16.0206   21.8862 C   0  0  1  0  0  0  0  0  0  0  0  0
   10.3349  -15.6860   20.4044 C   0  0  0  0  0  0  0  0  0  0  0  0
    9.2464  -16.1927   19.5308 C   0  0  0  0  0  0  0  0  0  0  0  0
    8.3833  -17.2564   19.8442 C   0  0  0  0  0  0  0  0  0  0  0  0
    7.5430  -17.4247   18.8309 N   0  0  0  0  0  0  0  0  0  0  0  0
    7.8085  -16.5279   17.8684 C   0  0  0  0  0  0  0  0  0  0  0  0
    8.8306  -15.8104   18.3217 N   0  0  0  0  0  0  0  0  0  0  0  0
   11.3863  -15.9684   22.5989 C   0  0  0  0  0  0  0  0  0  0  0  0
   11.7342  -14.8411   23.1003 O   0  0  0  0  0  0  0  0  0  0  0  0
   12.2619  -17.0584   22.7798 N   0  0  0  0  0  0  0  0  0  0  0  0
   13.2027  -17.1183   23.9132 C   0  0  1  0  0  0  0  0  0  0  0  0
   12.4724  -16.9911   25.2058 C   0  0  0  0  0  0  0  0  0  0  0  0
   11.5783  -18.1625   25.4665 C   0  0  0  0  0  0  0  0  0  0  0  0
   11.4510  -18.5125   26.8950 C   0  0  0  0  0  0  0  0  0  0  0  0
   11.8846  -17.8565   27.8452 O   0  0  0  0  0  0  0  0  0  0  0  0
   13.9986  -18.3439   23.8611 C   0  0  0  0  0  0  0  0  0  0  0  0
   13.6422  -19.3600   22.9324 O   0  0  0  0  0  0  0  0  0  0  0  0
   10.7730  -19.7037   27.1996 O   0  0  0  0  0  0  0  0  0  0  0  0
   14.9832  -18.6077   24.5569 O   0  0  0  0  0  0  0  0  0  0  0  0
  2  5  1  0
  2  1  1  1
  3  2  1  0
  4  3  1  0
  5  6  2  0
  7  8  1  0
  7  5  1  0
  9 10  1  0
  8  9  1  6
 10 11  2  0
 11 12  1  0
 13 12  1  0
 14 10  1  0
 14 13  2  0
 15  8  1  0
 15 16  2  0
 17 15  1  0
 18 17  1  0
 18 23  1  0
 18 19  1  1
 20 21  1  0
 20 19  1  0
 21 25  1  0
 22 21  2  0
 23 26  2  0
 23 24  1  0
M  END
$$$$
