CHE.pdb
     RDKit          3D

 26 26  0  0  1  0  0  0  0  0999 V2000
   13.1745  -15.7670   13.3190 N   0  0  0  0  0  0  0  0  0  0  0  0
   11.9985  -16.2396   13.9774 C   0  0  1  0  0  0  0  0  0  0  0  0
   12.0884  -17.7453   14.1562 C   0  0  0  0  0  0  0  0  0  0  0  0
   12.2231  -18.4891   12.5082 S   0  0  0  0  0  0  0  0  0  0  0  0
   11.7873  -15.5746   15.3188 C   0  0  0  0  0  0  0  0  0  0  0  0
   12.8027  -15.1547   15.8752 O   0  0  0  0  0  0  0  0  0  0  0  0
   10.4949  -15.4563   15.8739 N   0  0  0  0  0  0  0  0  0  0  0  0
   10.1284  -14.9547   17.1264 C   0  0  1  0  0  0  0  0  0  0  0  0
    8.6269  -14.7502   17.3715 C   0  0  0  0  0  0  0  0  0  0  0  0
    8.3432  -14.0151   18.6300 C   0  0  0  0  0  0  0  0  0  0  0  0
    9.3024  -13.6470   19.5886 C   0  0  0  0  0  0  0  0  0  0  0  0
    8.6844  -13.0074   20.5735 N   0  0  0  0  0  0  0  0  0  0  0  0
    7.3699  -12.9357   20.3125 C   0  0  0  0  0  0  0  0  0  0  0  0
    7.2042  -13.5475   19.1450 N   0  0  0  0  0  0  0  0  0  0  0  0
   10.7539  -15.5053   18.3238 C   0  0  0  0  0  0  0  0  0  0  0  0
   10.7243  -16.7783   18.4710 O   0  0  0  0  0  0  0  0  0  0  0  0
   11.3879  -14.7489   19.3306 N   0  0  0  0  0  0  0  0  0  0  0  0
   12.0413  -15.3889   20.4867 C   0  0  1  0  0  0  0  0  0  0  0  0
   13.3374  -14.7196   20.7910 C   0  0  0  0  0  0  0  0  0  0  0  0
   14.2092  -14.6012   19.5804 C   0  0  0  0  0  0  0  0  0  0  0  0
   15.5390  -14.0215   19.8544 C   0  0  0  0  0  0  0  0  0  0  0  0
   16.3192  -13.5643   19.0156 O   0  0  0  0  0  0  0  0  0  0  0  0
   11.1512  -15.3944   21.6468 C   0  0  0  0  0  0  0  0  0  0  0  0
    9.8828  -14.7592   21.5473 O   0  0  0  0  0  0  0  0  0  0  0  0
   15.9536  -13.9878   21.1955 O   0  0  0  0  0  0  0  0  0  0  0  0
   11.3826  -15.9080   22.7449 O   0  0  0  0  0  0  0  0  0  0  0  0
  2  5  1  0
  2  1  1  1
  3  2  1  0
  4  3  1  0
  5  6  2  0
  7  8  1  0
  7  5  1  0
  9 10  1  0
  8  9  1  1
 10 11  2  0
 11 12  1  0
 13 12  1  0
 14 10  1  0
 14 13  2  0
 15  8  1  0
 15 16  2  0
 17 15  1  0
 18 17  1  0
 18 23  1  0
 18 19  1  1
 20 21  1  0
 20 19  1  0
 21 25  1  0
 22 21  2  0
 23 26  2  0
 23 24  1  0
M  END
$$$$
