CHE.pdb
     RDKit          3D

 26 26  0  0  1  0  0  0  0  0999 V2000
    8.0967  -18.0867   15.8215 N   0  0  0  0  0  0  0  0  0  0  0  0
    9.2743  -18.4763   16.5294 C   0  0  1  0  0  0  0  0  0  0  0  0
   10.5018  -18.0893   15.7229 C   0  0  0  0  0  0  0  0  0  0  0  0
   11.9597  -18.7030   16.6091 S   0  0  0  0  0  0  0  0  0  0  0  0
    9.3467  -17.8544   17.9057 C   0  0  0  0  0  0  0  0  0  0  0  0
    9.2869  -16.6248   17.9426 O   0  0  0  0  0  0  0  0  0  0  0  0
    9.4742  -18.6584   19.0588 N   0  0  0  0  0  0  0  0  0  0  0  0
    9.5440  -18.2570   20.3962 C   0  0  1  0  0  0  0  0  0  0  0  0
    8.3523  -18.6311   21.2885 C   0  0  0  0  0  0  0  0  0  0  0  0
    7.0425  -18.3331   20.6558 C   0  0  0  0  0  0  0  0  0  0  0  0
    6.6104  -17.0605   20.2456 C   0  0  0  0  0  0  0  0  0  0  0  0
    5.3949  -17.1794   19.7266 N   0  0  0  0  0  0  0  0  0  0  0  0
    5.0056  -18.4630   19.7742 C   0  0  0  0  0  0  0  0  0  0  0  0
    6.0143  -19.1210   20.3348 N   0  0  0  0  0  0  0  0  0  0  0  0
   10.7900  -18.4457   21.1313 C   0  0  0  0  0  0  0  0  0  0  0  0
   11.4247  -19.5431   20.9419 O   0  0  0  0  0  0  0  0  0  0  0  0
   11.3506  -17.5175   22.0322 N   0  0  0  0  0  0  0  0  0  0  0  0
   12.6719  -17.7352   22.6487 C   0  0  1  0  0  0  0  0  0  0  0  0
   13.5366  -16.5350   22.4689 C   0  0  0  0  0  0  0  0  0  0  0  0
   14.9209  -16.7531   22.9941 C   0  0  0  0  0  0  0  0  0  0  0  0
   15.8304  -15.6106   22.7777 C   0  0  0  0  0  0  0  0  0  0  0  0
   16.5415  -15.0760   23.6321 O   0  0  0  0  0  0  0  0  0  0  0  0
   12.5322  -18.0934   24.0595 C   0  0  0  0  0  0  0  0  0  0  0  0
   13.5821  -18.8093   24.6976 O   0  0  0  0  0  0  0  0  0  0  0  0
   15.8910  -15.0837   21.4776 O   0  0  0  0  0  0  0  0  0  0  0  0
   11.5708  -17.8349   24.7889 O   0  0  0  0  0  0  0  0  0  0  0  0
  2  5  1  0
  2  1  1  6
  3  2  1  0
  4  3  1  0
  5  6  2  0
  7  8  1  0
  7  5  1  0
  9 10  1  0
  8  9  1  1
 10 11  2  0
 11 12  1  0
 13 12  1  0
 14 10  1  0
 14 13  2  0
 15  8  1  0
 15 16  2  0
 17 15  1  0
 18 17  1  0
 18 23  1  0
 18 19  1  1
 20 21  1  0
 20 19  1  0
 21 25  1  0
 22 21  2  0
 23 26  2  0
 23 24  1  0
M  END
$$$$
