CHE.pdb
     RDKit          3D

 26 26  0  0  1  0  0  0  0  0999 V2000
    8.9024  -18.3638   20.3204 N   0  0  0  0  0  0  0  0  0  0  0  0
    8.1941  -18.5752   21.5424 C   0  0  1  0  0  0  0  0  0  0  0  0
    8.4531  -19.9864   22.0406 C   0  0  0  0  0  0  0  0  0  0  0  0
    7.5250  -20.2057   23.5827 S   0  0  0  0  0  0  0  0  0  0  0  0
    8.5807  -17.5748   22.6083 C   0  0  0  0  0  0  0  0  0  0  0  0
    9.7891  -17.4411   22.8055 O   0  0  0  0  0  0  0  0  0  0  0  0
    7.5959  -16.8533   23.3168 N   0  0  0  0  0  0  0  0  0  0  0  0
    7.7635  -15.9876   24.4018 C   0  0  1  0  0  0  0  0  0  0  0  0
    6.5262  -15.1945   24.8448 C   0  0  0  0  0  0  0  0  0  0  0  0
    6.8581  -14.0704   25.7565 C   0  0  0  0  0  0  0  0  0  0  0  0
    8.1519  -13.7279   26.1847 C   0  0  0  0  0  0  0  0  0  0  0  0
    8.0608  -12.6754   26.9879 N   0  0  0  0  0  0  0  0  0  0  0  0
    6.7757  -12.3085   27.1100 C   0  0  0  0  0  0  0  0  0  0  0  0
    6.0880  -13.1637   26.3614 N   0  0  0  0  0  0  0  0  0  0  0  0
    8.4995  -16.4501   25.5734 C   0  0  0  0  0  0  0  0  0  0  0  0
    8.0180  -17.4506   26.2138 O   0  0  0  0  0  0  0  0  0  0  0  0
    9.6972  -15.8843   26.0564 N   0  0  0  0  0  0  0  0  0  0  0  0
   10.4243  -16.4655   27.1995 C   0  0  1  0  0  0  0  0  0  0  0  0
   11.8787  -16.5729   26.8937 C   0  0  0  0  0  0  0  0  0  0  0  0
   12.1429  -17.4451   25.7067 C   0  0  0  0  0  0  0  0  0  0  0  0
   13.5338  -17.3832   25.2157 C   0  0  0  0  0  0  0  0  0  0  0  0
   13.9142  -16.8364   24.1776 O   0  0  0  0  0  0  0  0  0  0  0  0
   10.1841  -15.6886   28.4148 C   0  0  0  0  0  0  0  0  0  0  0  0
   10.3429  -16.3184   29.6798 O   0  0  0  0  0  0  0  0  0  0  0  0
   14.5146  -18.0051   26.0048 O   0  0  0  0  0  0  0  0  0  0  0  0
    9.8473  -14.5026   28.4712 O   0  0  0  0  0  0  0  0  0  0  0  0
  2  5  1  0
  2  1  1  6
  3  2  1  0
  4  3  1  0
  5  6  2  0
  7  8  1  0
  7  5  1  0
  9 10  1  0
  8  9  1  1
 10 11  2  0
 11 12  1  0
 13 12  1  0
 14 10  1  0
 14 13  2  0
 15  8  1  0
 15 16  2  0
 17 15  1  0
 18 17  1  0
 18 23  1  0
 18 19  1  6
 20 21  1  0
 20 19  1  0
 21 25  1  0
 22 21  2  0
 23 26  2  0
 23 24  1  0
M  END
$$$$
