CHE.pdb
     RDKit          3D

 26 26  0  0  1  0  0  0  0  0999 V2000
   12.4968  -19.2187   16.4198 N   0  0  0  0  0  0  0  0  0  0  0  0
   11.6203  -19.5964   17.4823 C   0  0  1  0  0  0  0  0  0  0  0  0
   11.9739  -20.9948   17.9580 C   0  0  0  0  0  0  0  0  0  0  0  0
   13.7706  -21.0594   18.1930 S   0  0  0  0  0  0  0  0  0  0  0  0
   11.6780  -18.6289   18.6429 C   0  0  0  0  0  0  0  0  0  0  0  0
   12.7156  -17.9730   18.7435 O   0  0  0  0  0  0  0  0  0  0  0  0
   10.5945  -18.5063   19.5390 N   0  0  0  0  0  0  0  0  0  0  0  0
   10.4905  -17.6950   20.6730 C   0  0  1  0  0  0  0  0  0  0  0  0
    9.0883  -17.1752   21.0191 C   0  0  0  0  0  0  0  0  0  0  0  0
    9.1101  -16.0859   22.0279 C   0  0  0  0  0  0  0  0  0  0  0  0
   10.2649  -15.5699   22.6400 C   0  0  0  0  0  0  0  0  0  0  0  0
    9.8986  -14.6120   23.4822 N   0  0  0  0  0  0  0  0  0  0  0  0
    8.5641  -14.4714   23.4557 C   0  0  0  0  0  0  0  0  0  0  0  0
    8.1286  -15.3674   22.5768 N   0  0  0  0  0  0  0  0  0  0  0  0
   11.1877  -18.0859   21.8934 C   0  0  0  0  0  0  0  0  0  0  0  0
   10.9488  -19.2562   22.3586 O   0  0  0  0  0  0  0  0  0  0  0  0
   12.1025  -17.2794   22.6007 N   0  0  0  0  0  0  0  0  0  0  0  0
   12.7229  -17.7305   23.8596 C   0  0  1  0  0  0  0  0  0  0  0  0
   13.9447  -16.9306   24.1561 C   0  0  0  0  0  0  0  0  0  0  0  0
   14.9635  -17.0310   23.0645 C   0  0  0  0  0  0  0  0  0  0  0  0
   16.1889  -16.2468   23.3151 C   0  0  0  0  0  0  0  0  0  0  0  0
   17.0863  -16.5354   24.1105 O   0  0  0  0  0  0  0  0  0  0  0  0
   11.7611  -17.6749   24.9596 C   0  0  0  0  0  0  0  0  0  0  0  0
   12.0272  -18.4098   26.1476 O   0  0  0  0  0  0  0  0  0  0  0  0
   16.3467  -15.0616   22.5789 O   0  0  0  0  0  0  0  0  0  0  0  0
   10.7043  -17.0377   24.9769 O   0  0  0  0  0  0  0  0  0  0  0  0
  2  5  1  0
  2  1  1  6
  3  2  1  0
  4  3  1  0
  5  6  2  0
  7  8  1  0
  7  5  1  0
  9 10  1  0
  8  9  1  1
 10 11  2  0
 11 12  1  0
 13 12  1  0
 14 10  1  0
 14 13  2  0
 15  8  1  0
 15 16  2  0
 17 15  1  0
 18 17  1  0
 18 23  1  0
 18 19  1  1
 20 21  1  0
 20 19  1  0
 21 25  1  0
 22 21  2  0
 23 26  2  0
 23 24  1  0
M  END
$$$$
