CHE.pdb
     RDKit          3D

 26 26  0  0  1  0  0  0  0  0999 V2000
   14.3149  -14.9114   15.7914 N   0  0  0  0  0  0  0  0  0  0  0  0
   13.1593  -15.5916   16.2829 C   0  0  1  0  0  0  0  0  0  0  0  0
   13.3332  -17.0884   16.0929 C   0  0  0  0  0  0  0  0  0  0  0  0
   14.7302  -17.6161   17.1210 S   0  0  0  0  0  0  0  0  0  0  0  0
   12.8920  -15.2863   17.7395 C   0  0  0  0  0  0  0  0  0  0  0  0
   13.8367  -14.8097   18.3699 O   0  0  0  0  0  0  0  0  0  0  0  0
   11.6281  -15.5417   18.3137 N   0  0  0  0  0  0  0  0  0  0  0  0
   11.2121  -15.3294   19.6315 C   0  0  1  0  0  0  0  0  0  0  0  0
    9.7033  -15.4223   19.8986 C   0  0  0  0  0  0  0  0  0  0  0  0
    8.9549  -14.2434   19.3940 C   0  0  0  0  0  0  0  0  0  0  0  0
    9.5347  -13.0979   18.8229 C   0  0  0  0  0  0  0  0  0  0  0  0
    8.5617  -12.2587   18.4910 N   0  0  0  0  0  0  0  0  0  0  0  0
    7.3733  -12.7924   18.8140 C   0  0  0  0  0  0  0  0  0  0  0  0
    7.6480  -13.9764   19.3501 N   0  0  0  0  0  0  0  0  0  0  0  0
   11.9466  -15.9646   20.7203 C   0  0  0  0  0  0  0  0  0  0  0  0
   12.1510  -17.2271   20.6344 O   0  0  0  0  0  0  0  0  0  0  0  0
   12.4488  -15.3005   21.8579 N   0  0  0  0  0  0  0  0  0  0  0  0
   13.3022  -15.9878   22.8441 C   0  0  1  0  0  0  0  0  0  0  0  0
   14.2990  -15.0426   23.4215 C   0  0  0  0  0  0  0  0  0  0  0  0
   15.2129  -15.7135   24.3984 C   0  0  0  0  0  0  0  0  0  0  0  0
   16.6114  -15.8163   23.9369 C   0  0  0  0  0  0  0  0  0  0  0  0
   17.1659  -15.0696   23.1269 O   0  0  0  0  0  0  0  0  0  0  0  0
   12.4885  -16.6160   23.8841 C   0  0  0  0  0  0  0  0  0  0  0  0
   13.0340  -17.6979   24.6284 O   0  0  0  0  0  0  0  0  0  0  0  0
   17.3815  -16.8621   24.4704 O   0  0  0  0  0  0  0  0  0  0  0  0
   11.3384  -16.3023   24.2035 O   0  0  0  0  0  0  0  0  0  0  0  0
  2  5  1  0
  2  1  1  1
  3  2  1  0
  4  3  1  0
  5  6  2  0
  7  8  1  0
  7  5  1  0
  9 10  1  0
  8  9  1  6
 10 11  2  0
 11 12  1  0
 13 12  1  0
 14 10  1  0
 14 13  2  0
 15  8  1  0
 15 16  2  0
 17 15  1  0
 18 17  1  0
 18 23  1  0
 18 19  1  1
 20 21  1  0
 20 19  1  0
 21 25  1  0
 22 21  2  0
 23 26  2  0
 23 24  1  0
M  END
$$$$
