CHE.pdb
     RDKit          3D

 26 26  0  0  1  0  0  0  0  0999 V2000
    6.5332  -18.9480   18.1270 N   0  0  0  0  0  0  0  0  0  0  0  0
    6.6116  -18.2546   19.3731 C   0  0  1  0  0  0  0  0  0  0  0  0
    6.4931  -19.2492   20.5149 C   0  0  0  0  0  0  0  0  0  0  0  0
    6.3895  -18.3055   22.0596 S   0  0  0  0  0  0  0  0  0  0  0  0
    7.8947  -17.4663   19.5095 C   0  0  0  0  0  0  0  0  0  0  0  0
    8.9050  -18.0029   19.0532 O   0  0  0  0  0  0  0  0  0  0  0  0
    7.9035  -16.1966   20.1259 N   0  0  0  0  0  0  0  0  0  0  0  0
    8.9903  -15.3467   20.3524 C   0  0  1  0  0  0  0  0  0  0  0  0
    8.8101  -13.8780   19.9442 C   0  0  0  0  0  0  0  0  0  0  0  0
    8.3681  -13.7212   18.5354 C   0  0  0  0  0  0  0  0  0  0  0  0
    7.1992  -13.0609   18.1204 C   0  0  0  0  0  0  0  0  0  0  0  0
    7.1336  -13.1206   16.7963 N   0  0  0  0  0  0  0  0  0  0  0  0
    8.1976  -13.7853   16.3195 C   0  0  0  0  0  0  0  0  0  0  0  0
    8.9114  -14.1279   17.3862 N   0  0  0  0  0  0  0  0  0  0  0  0
    9.6991  -15.4223   21.6252 C   0  0  0  0  0  0  0  0  0  0  0  0
    9.1531  -14.8563   22.6375 O   0  0  0  0  0  0  0  0  0  0  0  0
   10.9356  -16.0680   21.8299 N   0  0  0  0  0  0  0  0  0  0  0  0
   11.6075  -16.0598   23.1420 C   0  0  1  0  0  0  0  0  0  0  0  0
   11.4756  -17.3878   23.8049 C   0  0  0  0  0  0  0  0  0  0  0  0
   10.8225  -18.3996   22.9165 C   0  0  0  0  0  0  0  0  0  0  0  0
   10.8436  -19.7733   23.4568 C   0  0  0  0  0  0  0  0  0  0  0  0
   11.2879  -20.1152   24.5554 O   0  0  0  0  0  0  0  0  0  0  0  0
   13.0079  -15.6621   23.0039 C   0  0  0  0  0  0  0  0  0  0  0  0
   13.5285  -15.4061   21.7056 O   0  0  0  0  0  0  0  0  0  0  0  0
   10.3076  -20.7846   22.6434 O   0  0  0  0  0  0  0  0  0  0  0  0
   13.8214  -15.5161   23.9205 O   0  0  0  0  0  0  0  0  0  0  0  0
  2  5  1  0
  2  1  1  6
  3  2  1  0
  4  3  1  0
  5  6  2  0
  7  8  1  0
  7  5  1  0
  9 10  1  0
  8  9  1  1
 10 11  2  0
 11 12  1  0
 13 12  1  0
 14 10  1  0
 14 13  2  0
 15  8  1  0
 15 16  2  0
 17 15  1  0
 18 17  1  0
 18 23  1  0
 18 19  1  6
 20 21  1  0
 20 19  1  0
 21 25  1  0
 22 21  2  0
 23 26  2  0
 23 24  1  0
M  END
$$$$
