KFY.pdb
     RDKit          3D

 33 34  0  0  1  0  0  0  0  0999 V2000
   28.3121  -22.4828  -16.9417 N   0  0  0  0  0  0  0  0  0  0  0  0
   27.8502  -21.2644  -16.3285 C   0  0  1  0  0  0  0  0  0  0  0  0
   26.8909  -20.5049  -17.2343 C   0  0  0  0  0  0  0  0  0  0  0  0
   27.4944  -20.3182  -18.5695 C   0  0  0  0  0  0  0  0  0  0  0  0
   26.8413  -21.0127  -19.7061 C   0  0  0  0  0  0  0  0  0  0  0  0
   27.3705  -20.7038  -21.0624 C   0  0  0  0  0  0  0  0  0  0  0  0
   26.6678  -21.4004  -22.1233 N   0  0  0  0  0  0  0  0  0  0  0  0
   27.2558  -21.5635  -15.0169 C   0  0  0  0  0  0  0  0  0  0  0  0
   26.3904  -22.4756  -14.9038 O   0  0  0  0  0  0  0  0  0  0  0  0
   27.6051  -20.8700  -13.8372 N   0  0  0  0  0  0  0  0  0  0  0  0
   26.9444  -21.1468  -12.5423 C   0  0  1  0  0  0  0  0  0  0  0  0
   27.8981  -20.6711  -11.5143 C   0  0  0  0  0  0  0  0  0  0  0  0
   27.4553  -20.5573  -10.1416 C   0  0  0  0  0  0  0  0  0  0  0  0
   26.4040  -19.7523   -9.7233 C   0  0  0  0  0  0  0  0  0  0  0  0
   25.9910  -19.6722   -8.4298 C   0  0  0  0  0  0  0  0  0  0  0  0
   26.6136  -20.4024   -7.4653 C   0  0  0  0  0  0  0  0  0  0  0  0
   27.6651  -21.2201   -7.8233 C   0  0  0  0  0  0  0  0  0  0  0  0
   28.0814  -21.2945   -9.1576 C   0  0  0  0  0  0  0  0  0  0  0  0
   25.6363  -20.4751  -12.5838 C   0  0  0  0  0  0  0  0  0  0  0  0
   25.5485  -19.3334  -13.1306 O   0  0  0  0  0  0  0  0  0  0  0  0
   17.8930  -18.6413  -15.4920 O   0  0  0  0  0  0  0  0  0  0  0  0
   19.1589  -19.0932  -15.0857 C   0  0  0  0  0  0  0  0  0  0  0  0
   19.3672  -20.4308  -14.8871 C   0  0  0  0  0  0  0  0  0  0  0  0
   20.6272  -20.8664  -14.4843 C   0  0  0  0  0  0  0  0  0  0  0  0
   21.6578  -19.9721  -14.2854 C   0  0  0  0  0  0  0  0  0  0  0  0
   22.9717  -20.4692  -13.8616 C   0  0  0  0  0  0  0  0  0  0  0  0
   23.1299  -20.4135  -12.3350 C   0  0  2  0  0  0  0  0  0  0  0  0
   24.4232  -21.0059  -12.0533 N   0  0  0  0  0  0  0  0  0  0  0  0
   22.0025  -21.1177  -11.6914 C   0  0  0  0  0  0  0  0  0  0  0  0
   20.9224  -20.3655  -11.2626 O   0  0  0  0  0  0  0  0  0  0  0  0
   21.4586  -18.6228  -14.4828 C   0  0  0  0  0  0  0  0  0  0  0  0
   20.1989  -18.2140  -14.8826 C   0  0  0  0  0  0  0  0  0  0  0  0
   21.9805  -22.3583  -11.5173 O   0  0  0  0  0  0  0  0  0  0  0  0
  2  1  1  6
  3  2  1  0
  3  4  1  0
  5  4  1  0
  5  6  1  0
  7  6  1  0
  8  2  1  0
  8  9  2  0
 10  8  1  0
 11 10  1  0
 11 12  1  1
 13 12  1  0
 13 14  2  0
 15 14  1  0
 16 15  2  0
 17 18  2  0
 17 16  1  0
 18 13  1  0
 19 11  1  0
 20 19  2  0
 21 22  1  0
 22 23  2  0
 23 24  1  0
 25 24  2  0
 25 26  1  0
 27 28  1  0
 27 26  1  6
 28 19  1  0
 29 27  1  0
 30 29  1  0
 31 25  1  0
 32 22  1  0
 32 31  2  0
 33 29  2  0
M  END
$$$$
