KFY.pdb
     RDKit          3D

 33 34  0  0  1  0  0  0  0  0999 V2000
   28.2841  -23.1874  -17.5516 N   0  0  0  0  0  0  0  0  0  0  0  0
   27.6507  -21.9637  -17.1332 C   0  0  1  0  0  0  0  0  0  0  0  0
   26.8443  -21.3316  -18.2591 C   0  0  0  0  0  0  0  0  0  0  0  0
   27.7158  -20.4734  -19.0873 C   0  0  0  0  0  0  0  0  0  0  0  0
   29.1635  -20.7966  -19.0986 C   0  0  0  0  0  0  0  0  0  0  0  0
   29.9697  -20.1837  -20.1892 C   0  0  0  0  0  0  0  0  0  0  0  0
   29.7077  -18.7682  -20.3686 N   0  0  0  0  0  0  0  0  0  0  0  0
   26.8325  -22.2127  -15.9366 C   0  0  0  0  0  0  0  0  0  0  0  0
   26.1461  -23.2681  -15.8436 O   0  0  0  0  0  0  0  0  0  0  0  0
   26.7654  -21.3138  -14.8492 N   0  0  0  0  0  0  0  0  0  0  0  0
   25.9647  -21.6075  -13.6398 C   0  0  1  0  0  0  0  0  0  0  0  0
   26.6033  -20.8258  -12.5564 C   0  0  0  0  0  0  0  0  0  0  0  0
   25.9628  -20.7642  -11.2607 C   0  0  0  0  0  0  0  0  0  0  0  0
   26.2955  -21.5763  -10.1845 C   0  0  0  0  0  0  0  0  0  0  0  0
   25.6934  -21.4913   -8.9678 C   0  0  0  0  0  0  0  0  0  0  0  0
   24.7095  -20.5765   -8.7528 C   0  0  0  0  0  0  0  0  0  0  0  0
   24.3376  -19.7426   -9.7866 C   0  0  0  0  0  0  0  0  0  0  0  0
   24.9643  -19.8393  -11.0344 C   0  0  0  0  0  0  0  0  0  0  0  0
   24.5713  -21.2636  -13.9625 C   0  0  0  0  0  0  0  0  0  0  0  0
   24.3226  -20.1376  -14.4920 O   0  0  0  0  0  0  0  0  0  0  0  0
   15.9808  -21.3089  -15.6525 O   0  0  0  0  0  0  0  0  0  0  0  0
   17.3036  -21.6796  -15.3620 C   0  0  0  0  0  0  0  0  0  0  0  0
   18.2964  -21.4014  -16.2614 C   0  0  0  0  0  0  0  0  0  0  0  0
   19.6044  -21.7741  -15.9615 C   0  0  0  0  0  0  0  0  0  0  0  0
   19.9068  -22.4148  -14.7784 C   0  0  0  0  0  0  0  0  0  0  0  0
   21.2969  -22.7914  -14.4977 C   0  0  0  0  0  0  0  0  0  0  0  0
   22.0801  -21.6290  -13.8701 C   0  0  2  0  0  0  0  0  0  0  0  0
   23.4429  -22.1049  -13.7306 N   0  0  0  0  0  0  0  0  0  0  0  0
   21.4541  -21.2401  -12.5902 C   0  0  0  0  0  0  0  0  0  0  0  0
   20.6773  -20.0946  -12.5651 O   0  0  0  0  0  0  0  0  0  0  0  0
   18.9143  -22.6997  -13.8657 C   0  0  0  0  0  0  0  0  0  0  0  0
   17.6231  -22.3199  -14.1856 C   0  0  0  0  0  0  0  0  0  0  0  0
   21.5942  -21.8971  -11.5325 O   0  0  0  0  0  0  0  0  0  0  0  0
  2  1  1  6
  3  2  1  0
  3  4  1  0
  5  4  1  0
  5  6  1  0
  7  6  1  0
  8  2  1  0
  8  9  2  0
 10  8  1  0
 11 10  1  0
 11 12  1  1
 13 12  1  0
 13 14  2  0
 15 14  1  0
 16 15  2  0
 17 18  2  0
 17 16  1  0
 18 13  1  0
 19 11  1  0
 20 19  2  0
 21 22  1  0
 22 23  2  0
 23 24  1  0
 25 24  2  0
 25 26  1  0
 27 28  1  0
 27 26  1  1
 28 19  1  0
 29 27  1  0
 30 29  1  0
 31 25  1  0
 32 22  1  0
 32 31  2  0
 33 29  2  0
M  END
$$$$
