KFY.pdb
     RDKit          3D

 33 34  0  0  1  0  0  0  0  0999 V2000
   27.3178  -22.3780  -16.3381 N   0  0  0  0  0  0  0  0  0  0  0  0
   27.5402  -21.2348  -15.4911 C   0  0  1  0  0  0  0  0  0  0  0  0
   27.0935  -19.9417  -16.1590 C   0  0  0  0  0  0  0  0  0  0  0  0
   27.3275  -20.0161  -17.6156 C   0  0  0  0  0  0  0  0  0  0  0  0
   26.2105  -19.5999  -18.4985 C   0  0  0  0  0  0  0  0  0  0  0  0
   26.4969  -19.5708  -19.9587 C   0  0  0  0  0  0  0  0  0  0  0  0
   25.3428  -19.2124  -20.7614 N   0  0  0  0  0  0  0  0  0  0  0  0
   26.8827  -21.4444  -14.1922 C   0  0  0  0  0  0  0  0  0  0  0  0
   25.8798  -22.2059  -14.1023 O   0  0  0  0  0  0  0  0  0  0  0  0
   27.3189  -20.8256  -12.9999 N   0  0  0  0  0  0  0  0  0  0  0  0
   26.6052  -21.0099  -11.7166 C   0  0  1  0  0  0  0  0  0  0  0  0
   27.6183  -20.7403  -10.6708 C   0  0  0  0  0  0  0  0  0  0  0  0
   27.1875  -20.5689   -9.3004 C   0  0  0  0  0  0  0  0  0  0  0  0
   27.0365  -21.6086   -8.3923 C   0  0  0  0  0  0  0  0  0  0  0  0
   26.6471  -21.4253   -7.1020 C   0  0  0  0  0  0  0  0  0  0  0  0
   26.3822  -20.1743   -6.6375 C   0  0  0  0  0  0  0  0  0  0  0  0
   26.5156  -19.1028   -7.4958 C   0  0  0  0  0  0  0  0  0  0  0  0
   26.9170  -19.3035   -8.8215 C   0  0  0  0  0  0  0  0  0  0  0  0
   25.4409  -20.1114  -11.7485 C   0  0  0  0  0  0  0  0  0  0  0  0
   25.5564  -18.9745  -12.3002 O   0  0  0  0  0  0  0  0  0  0  0  0
   18.4309  -19.6270  -16.3620 O   0  0  0  0  0  0  0  0  0  0  0  0
   19.5747  -19.8974  -15.5937 C   0  0  0  0  0  0  0  0  0  0  0  0
   20.4993  -18.9102  -15.3878 C   0  0  0  0  0  0  0  0  0  0  0  0
   21.6295  -19.1909  -14.6239 C   0  0  0  0  0  0  0  0  0  0  0  0
   21.8248  -20.4420  -14.0777 C   0  0  0  0  0  0  0  0  0  0  0  0
   23.0278  -20.6995  -13.2780 C   0  0  0  0  0  0  0  0  0  0  0  0
   22.9256  -20.0623  -11.8845 C   0  0  2  0  0  0  0  0  0  0  0  0
   24.1572  -20.4107  -11.2030 N   0  0  0  0  0  0  0  0  0  0  0  0
   21.7111  -20.5514  -11.2010 C   0  0  0  0  0  0  0  0  0  0  0  0
   20.5870  -19.7436  -11.2099 O   0  0  0  0  0  0  0  0  0  0  0  0
   20.8996  -21.4434  -14.2790 C   0  0  0  0  0  0  0  0  0  0  0  0
   19.7853  -21.1409  -15.0411 C   0  0  0  0  0  0  0  0  0  0  0  0
   21.6536  -21.6585  -10.6171 O   0  0  0  0  0  0  0  0  0  0  0  0
  2  1  1  6
  3  2  1  0
  3  4  1  0
  5  4  1  0
  5  6  1  0
  7  6  1  0
  8  2  1  0
  8  9  2  0
 10  8  1  0
 11 10  1  0
 11 12  1  1
 13 12  1  0
 13 14  2  0
 15 14  1  0
 16 15  2  0
 17 18  2  0
 17 16  1  0
 18 13  1  0
 19 11  1  0
 20 19  2  0
 21 22  1  0
 22 23  2  0
 23 24  1  0
 25 24  2  0
 25 26  1  0
 27 28  1  0
 27 26  1  6
 28 19  1  0
 29 27  1  0
 30 29  1  0
 31 25  1  0
 32 22  1  0
 32 31  2  0
 33 29  2  0
M  END
$$$$
