KFY.pdb
     RDKit          3D

 33 34  0  0  1  0  0  0  0  0999 V2000
   28.9829  -20.4601  -15.4126 N   0  0  0  0  0  0  0  0  0  0  0  0
   28.5655  -20.0191  -14.1069 C   0  0  1  0  0  0  0  0  0  0  0  0
   28.3104  -18.5186  -14.0726 C   0  0  0  0  0  0  0  0  0  0  0  0
   27.8814  -18.0465  -15.4048 C   0  0  0  0  0  0  0  0  0  0  0  0
   26.4229  -18.0279  -15.6745 C   0  0  0  0  0  0  0  0  0  0  0  0
   26.0049  -17.5506  -17.0208 C   0  0  0  0  0  0  0  0  0  0  0  0
   24.5699  -17.6033  -17.2269 N   0  0  0  0  0  0  0  0  0  0  0  0
   27.3911  -20.7917  -13.6743 C   0  0  0  0  0  0  0  0  0  0  0  0
   26.6135  -21.2995  -14.5294 O   0  0  0  0  0  0  0  0  0  0  0  0
   27.0692  -21.0075  -12.3162 N   0  0  0  0  0  0  0  0  0  0  0  0
   25.9384  -21.8704  -11.9078 C   0  0  1  0  0  0  0  0  0  0  0  0
   26.2499  -22.2815  -10.5198 C   0  0  0  0  0  0  0  0  0  0  0  0
   26.5439  -21.2649   -9.5333 C   0  0  0  0  0  0  0  0  0  0  0  0
   27.8224  -20.9501   -9.0919 C   0  0  0  0  0  0  0  0  0  0  0  0
   28.0802  -19.9782   -8.1759 C   0  0  0  0  0  0  0  0  0  0  0  0
   27.0607  -19.2539   -7.6401 C   0  0  0  0  0  0  0  0  0  0  0  0
   25.7690  -19.5234   -8.0418 C   0  0  0  0  0  0  0  0  0  0  0  0
   25.5157  -20.5259   -8.9852 C   0  0  0  0  0  0  0  0  0  0  0  0
   24.7133  -21.0786  -12.0977 C   0  0  0  0  0  0  0  0  0  0  0  0
   24.6429  -19.9214  -11.5819 O   0  0  0  0  0  0  0  0  0  0  0  0
   17.3500  -17.6524  -15.4054 O   0  0  0  0  0  0  0  0  0  0  0  0
   18.5016  -18.4172  -15.1597 C   0  0  0  0  0  0  0  0  0  0  0  0
   18.3806  -19.7523  -14.8864 C   0  0  0  0  0  0  0  0  0  0  0  0
   19.5304  -20.5000  -14.6445 C   0  0  0  0  0  0  0  0  0  0  0  0
   20.7784  -19.9142  -14.6773 C   0  0  0  0  0  0  0  0  0  0  0  0
   21.9667  -20.7349  -14.4177 C   0  0  0  0  0  0  0  0  0  0  0  0
   22.3692  -20.6917  -12.9363 C   0  0  2  0  0  0  0  0  0  0  0  0
   23.5662  -21.5035  -12.8316 N   0  0  0  0  0  0  0  0  0  0  0  0
   21.2504  -21.1749  -12.1019 C   0  0  0  0  0  0  0  0  0  0  0  0
   20.4278  -20.2349  -11.5052 O   0  0  0  0  0  0  0  0  0  0  0  0
   20.9114  -18.5703  -14.9517 C   0  0  0  0  0  0  0  0  0  0  0  0
   19.7553  -17.8484  -15.1885 C   0  0  0  0  0  0  0  0  0  0  0  0
   21.0144  -22.3906  -11.9114 O   0  0  0  0  0  0  0  0  0  0  0  0
  2  1  1  6
  3  2  1  0
  3  4  1  0
  5  4  1  0
  5  6  1  0
  7  6  1  0
  8  2  1  0
  8  9  2  0
 10  8  1  0
 11 10  1  0
 11 12  1  1
 13 12  1  0
 13 14  2  0
 15 14  1  0
 16 15  2  0
 17 18  2  0
 17 16  1  0
 18 13  1  0
 19 11  1  0
 20 19  2  0
 21 22  1  0
 22 23  2  0
 23 24  1  0
 25 24  2  0
 25 26  1  0
 27 28  1  0
 27 26  1  6
 28 19  1  0
 29 27  1  0
 30 29  1  0
 31 25  1  0
 32 22  1  0
 32 31  2  0
 33 29  2  0
M  END
$$$$
