KFY.pdb
     RDKit          3D

 33 34  0  0  1  0  0  0  0  0999 V2000
   29.1524  -20.1917  -17.1942 N   0  0  0  0  0  0  0  0  0  0  0  0
   27.8170  -20.4482  -16.7201 C   0  0  1  0  0  0  0  0  0  0  0  0
   27.0507  -21.3675  -17.6610 C   0  0  0  0  0  0  0  0  0  0  0  0
   27.3490  -21.0191  -19.0651 C   0  0  0  0  0  0  0  0  0  0  0  0
   28.1870  -21.9733  -19.8316 C   0  0  0  0  0  0  0  0  0  0  0  0
   27.6195  -22.4694  -21.1150 C   0  0  0  0  0  0  0  0  0  0  0  0
   28.4386  -23.4856  -21.7483 N   0  0  0  0  0  0  0  0  0  0  0  0
   27.8706  -20.9773  -15.3488 C   0  0  0  0  0  0  0  0  0  0  0  0
   27.3791  -22.1096  -15.0841 O   0  0  0  0  0  0  0  0  0  0  0  0
   28.4575  -20.2730  -14.2744 N   0  0  0  0  0  0  0  0  0  0  0  0
   28.4229  -20.7902  -12.8883 C   0  0  1  0  0  0  0  0  0  0  0  0
   29.6535  -20.2675  -12.2518 C   0  0  0  0  0  0  0  0  0  0  0  0
   29.8573  -20.4772  -10.8349 C   0  0  0  0  0  0  0  0  0  0  0  0
   29.2436  -19.7306   -9.8377 C   0  0  0  0  0  0  0  0  0  0  0  0
   29.4345  -19.9546   -8.5097 C   0  0  0  0  0  0  0  0  0  0  0  0
   30.2616  -20.9522   -8.0951 C   0  0  0  0  0  0  0  0  0  0  0  0
   30.8984  -21.7265   -9.0424 C   0  0  0  0  0  0  0  0  0  0  0  0
   30.6944  -21.4867  -10.4063 C   0  0  0  0  0  0  0  0  0  0  0  0
   27.1459  -20.3503  -12.3055 C   0  0  0  0  0  0  0  0  0  0  0  0
   26.7534  -19.1612  -12.5109 O   0  0  0  0  0  0  0  0  0  0  0  0
   22.6858  -19.1731  -16.5582 O   0  0  0  0  0  0  0  0  0  0  0  0
   22.9887  -19.7099  -15.2965 C   0  0  0  0  0  0  0  0  0  0  0  0
   23.7276  -20.8581  -15.2104 C   0  0  0  0  0  0  0  0  0  0  0  0
   24.0214  -21.3805  -13.9532 C   0  0  0  0  0  0  0  0  0  0  0  0
   23.5793  -20.7585  -12.8047 C   0  0  0  0  0  0  0  0  0  0  0  0
   23.9094  -21.3388  -11.4980 C   0  0  0  0  0  0  0  0  0  0  0  0
   25.1070  -20.6273  -10.8515 C   0  0  2  0  0  0  0  0  0  0  0  0
   26.2829  -21.1618  -11.5107 N   0  0  0  0  0  0  0  0  0  0  0  0
   25.0918  -20.8528   -9.3919 C   0  0  0  0  0  0  0  0  0  0  0  0
   24.0788  -20.2678   -8.6517 O   0  0  0  0  0  0  0  0  0  0  0  0
   22.8344  -19.6015  -12.8803 C   0  0  0  0  0  0  0  0  0  0  0  0
   22.5553  -19.1017  -14.1397 C   0  0  0  0  0  0  0  0  0  0  0  0
   25.9499  -21.5459   -8.7977 O   0  0  0  0  0  0  0  0  0  0  0  0
  2  1  1  6
  3  2  1  0
  3  4  1  0
  5  4  1  0
  5  6  1  0
  7  6  1  0
  8  2  1  0
  8  9  2  0
 10  8  1  0
 11 10  1  0
 11 12  1  1
 13 12  1  0
 13 14  2  0
 15 14  1  0
 16 15  2  0
 17 18  2  0
 17 16  1  0
 18 13  1  0
 19 11  1  0
 20 19  2  0
 21 22  1  0
 22 23  2  0
 23 24  1  0
 25 24  2  0
 25 26  1  0
 27 28  1  0
 27 26  1  6
 28 19  1  0
 29 27  1  0
 30 29  1  0
 31 25  1  0
 32 22  1  0
 32 31  2  0
 33 29  2  0
M  END
$$$$
