KFY.pdb
     RDKit          3D

 33 34  0  0  1  0  0  0  0  0999 V2000
   21.2522  -20.6030  -10.7930 N   0  0  0  0  0  0  0  0  0  0  0  0
   22.0814  -21.3662  -11.6895 C   0  0  1  0  0  0  0  0  0  0  0  0
   21.4187  -21.5575  -13.0467 C   0  0  0  0  0  0  0  0  0  0  0  0
   20.6748  -22.8333  -13.0725 C   0  0  0  0  0  0  0  0  0  0  0  0
   21.4596  -24.0741  -12.8607 C   0  0  0  0  0  0  0  0  0  0  0  0
   20.7106  -25.3562  -12.9618 C   0  0  0  0  0  0  0  0  0  0  0  0
   20.4553  -25.7636  -14.3305 N   0  0  0  0  0  0  0  0  0  0  0  0
   23.4041  -20.7327  -11.8021 C   0  0  0  0  0  0  0  0  0  0  0  0
   23.5032  -19.4766  -11.8805 O   0  0  0  0  0  0  0  0  0  0  0  0
   24.6098  -21.4676  -11.8288 N   0  0  0  0  0  0  0  0  0  0  0  0
   25.9137  -20.8218  -12.0988 C   0  0  1  0  0  0  0  0  0  0  0  0
   26.8204  -21.3300  -11.0441 C   0  0  0  0  0  0  0  0  0  0  0  0
   26.6809  -20.8291   -9.6940 C   0  0  0  0  0  0  0  0  0  0  0  0
   26.6529  -21.6318   -8.5611 C   0  0  0  0  0  0  0  0  0  0  0  0
   26.5387  -21.1406   -7.2979 C   0  0  0  0  0  0  0  0  0  0  0  0
   26.4444  -19.7992   -7.0903 C   0  0  0  0  0  0  0  0  0  0  0  0
   26.4669  -18.9533   -8.1796 C   0  0  0  0  0  0  0  0  0  0  0  0
   26.5848  -19.4702   -9.4750 C   0  0  0  0  0  0  0  0  0  0  0  0
   26.2705  -21.1552  -13.4864 C   0  0  0  0  0  0  0  0  0  0  0  0
   26.1980  -22.3637  -13.8666 O   0  0  0  0  0  0  0  0  0  0  0  0
   22.2764  -20.4292  -20.8282 O   0  0  0  0  0  0  0  0  0  0  0  0
   22.8744  -20.3715  -19.5590 C   0  0  0  0  0  0  0  0  0  0  0  0
   23.4352  -21.4991  -19.0244 C   0  0  0  0  0  0  0  0  0  0  0  0
   24.0252  -21.4290  -17.7648 C   0  0  0  0  0  0  0  0  0  0  0  0
   24.0500  -20.2457  -17.0571 C   0  0  0  0  0  0  0  0  0  0  0  0
   24.6814  -20.2109  -15.7330 C   0  0  0  0  0  0  0  0  0  0  0  0
   26.2130  -20.2515  -15.8375 C   0  0  2  0  0  0  0  0  0  0  0  0
   26.6999  -20.2176  -14.4720 N   0  0  0  0  0  0  0  0  0  0  0  0
   26.6860  -19.1223  -16.6637 C   0  0  0  0  0  0  0  0  0  0  0  0
   26.5263  -17.8395  -16.1685 O   0  0  0  0  0  0  0  0  0  0  0  0
   23.4880  -19.1041  -17.5865 C   0  0  0  0  0  0  0  0  0  0  0  0
   22.9079  -19.1984  -18.8389 C   0  0  0  0  0  0  0  0  0  0  0  0
   27.2221  -19.2731  -17.7861 O   0  0  0  0  0  0  0  0  0  0  0  0
  2  1  1  1
  3  2  1  0
  3  4  1  0
  5  4  1  0
  5  6  1  0
  7  6  1  0
  8  2  1  0
  8  9  2  0
 10  8  1  0
 11 10  1  0
 11 12  1  1
 13 12  1  0
 13 14  2  0
 15 14  1  0
 16 15  2  0
 17 18  2  0
 17 16  1  0
 18 13  1  0
 19 11  1  0
 20 19  2  0
 21 22  1  0
 22 23  2  0
 23 24  1  0
 25 24  2  0
 25 26  1  0
 27 28  1  0
 27 26  1  1
 28 19  1  0
 29 27  1  0
 30 29  1  0
 31 25  1  0
 32 22  1  0
 32 31  2  0
 33 29  2  0
M  END
$$$$
