KFY.pdb
     RDKit          3D

 33 34  0  0  1  0  0  0  0  0999 V2000
   28.6072  -22.0166  -16.2152 N   0  0  0  0  0  0  0  0  0  0  0  0
   27.2766  -22.1255  -16.7550 C   0  0  1  0  0  0  0  0  0  0  0  0
   26.7462  -23.5497  -16.6666 C   0  0  0  0  0  0  0  0  0  0  0  0
   27.4950  -24.4280  -17.5884 C   0  0  0  0  0  0  0  0  0  0  0  0
   28.2923  -25.5200  -16.9781 C   0  0  0  0  0  0  0  0  0  0  0  0
   29.4966  -25.9615  -17.7331 C   0  0  0  0  0  0  0  0  0  0  0  0
   30.1940  -27.0665  -17.1029 N   0  0  0  0  0  0  0  0  0  0  0  0
   26.3899  -21.1606  -16.0871 C   0  0  0  0  0  0  0  0  0  0  0  0
   26.5201  -20.9249  -14.8538 O   0  0  0  0  0  0  0  0  0  0  0  0
   25.3680  -20.4583  -16.7633 N   0  0  0  0  0  0  0  0  0  0  0  0
   24.5623  -19.4130  -16.0937 C   0  0  1  0  0  0  0  0  0  0  0  0
   24.7820  -18.1865  -16.8938 C   0  0  0  0  0  0  0  0  0  0  0  0
   26.0091  -17.4408  -16.7172 C   0  0  0  0  0  0  0  0  0  0  0  0
   27.0731  -17.4632  -17.6093 C   0  0  0  0  0  0  0  0  0  0  0  0
   28.2123  -16.7408  -17.4345 C   0  0  0  0  0  0  0  0  0  0  0  0
   28.3565  -15.9425  -16.3422 C   0  0  0  0  0  0  0  0  0  0  0  0
   27.3310  -15.8811  -15.4219 C   0  0  0  0  0  0  0  0  0  0  0  0
   26.1632  -16.6289  -15.6123 C   0  0  0  0  0  0  0  0  0  0  0  0
   23.1819  -19.9179  -16.0337 C   0  0  0  0  0  0  0  0  0  0  0  0
   22.7594  -20.6654  -16.9680 O   0  0  0  0  0  0  0  0  0  0  0  0
   15.7342  -23.7695  -14.2152 O   0  0  0  0  0  0  0  0  0  0  0  0
   17.0165  -23.1980  -14.2468 C   0  0  0  0  0  0  0  0  0  0  0  0
   17.9126  -23.6009  -15.1988 C   0  0  0  0  0  0  0  0  0  0  0  0
   19.1812  -23.0265  -15.2196 C   0  0  0  0  0  0  0  0  0  0  0  0
   19.5403  -22.0645  -14.2992 C   0  0  0  0  0  0  0  0  0  0  0  0
   20.8860  -21.4820  -14.3533 C   0  0  0  0  0  0  0  0  0  0  0  0
   20.8773  -20.1048  -15.0329 C   0  0  2  0  0  0  0  0  0  0  0  0
   22.2497  -19.6384  -14.9907 N   0  0  0  0  0  0  0  0  0  0  0  0
   19.9265  -19.2129  -14.3388 C   0  0  0  0  0  0  0  0  0  0  0  0
   18.6071  -19.2127  -14.7576 O   0  0  0  0  0  0  0  0  0  0  0  0
   18.6452  -21.6515  -13.3361 C   0  0  0  0  0  0  0  0  0  0  0  0
   17.3915  -22.2364  -13.3354 C   0  0  0  0  0  0  0  0  0  0  0  0
   20.2593  -18.4609  -13.3934 O   0  0  0  0  0  0  0  0  0  0  0  0
  2  1  1  1
  3  2  1  0
  3  4  1  0
  5  4  1  0
  5  6  1  0
  7  6  1  0
  8  2  1  0
  8  9  2  0
 10  8  1  0
 11 10  1  0
 11 12  1  6
 13 12  1  0
 13 14  2  0
 15 14  1  0
 16 15  2  0
 17 18  2  0
 17 16  1  0
 18 13  1  0
 19 11  1  0
 20 19  2  0
 21 22  1  0
 22 23  2  0
 23 24  1  0
 25 24  2  0
 25 26  1  0
 27 28  1  0
 27 26  1  1
 28 19  1  0
 29 27  1  0
 30 29  1  0
 31 25  1  0
 32 22  1  0
 32 31  2  0
 33 29  2  0
M  END
$$$$
