KFY.pdb
     RDKit          3D

 33 34  0  0  1  0  0  0  0  0999 V2000
   44.8949   -9.8576   -5.7053 N   0  0  0  0  0  0  0  0  0  0  0  0
   44.5651   -9.5692   -7.0771 C   0  0  1  0  0  0  0  0  0  0  0  0
   45.7189   -9.8943   -8.0156 C   0  0  0  0  0  0  0  0  0  0  0  0
   46.9090   -9.0990   -7.6508 C   0  0  0  0  0  0  0  0  0  0  0  0
   48.0882   -9.2041   -8.5446 C   0  0  0  0  0  0  0  0  0  0  0  0
   49.2937   -8.4289   -8.1434 C   0  0  0  0  0  0  0  0  0  0  0  0
   50.4400   -8.6695   -8.9994 N   0  0  0  0  0  0  0  0  0  0  0  0
   43.3305  -10.2764   -7.4497 C   0  0  0  0  0  0  0  0  0  0  0  0
   43.2720  -11.5354   -7.3777 O   0  0  0  0  0  0  0  0  0  0  0  0
   42.1678   -9.6115   -7.8980 N   0  0  0  0  0  0  0  0  0  0  0  0
   40.9279  -10.3454   -8.2352 C   0  0  1  0  0  0  0  0  0  0  0  0
   39.8543   -9.6504   -7.4887 C   0  0  0  0  0  0  0  0  0  0  0  0
   38.4847  -10.0852   -7.6564 C   0  0  0  0  0  0  0  0  0  0  0  0
   37.6212   -9.5931   -8.6262 C   0  0  0  0  0  0  0  0  0  0  0  0
   36.3413  -10.0276   -8.7794 C   0  0  0  0  0  0  0  0  0  0  0  0
   35.8429  -10.9929   -7.9604 C   0  0  0  0  0  0  0  0  0  0  0  0
   36.6562  -11.5187   -6.9782 C   0  0  0  0  0  0  0  0  0  0  0  0
   37.9716  -11.0638   -6.8300 C   0  0  0  0  0  0  0  0  0  0  0  0
   40.8178  -10.3365   -9.7020 C   0  0  0  0  0  0  0  0  0  0  0  0
   41.1484   -9.2889  -10.3372 O   0  0  0  0  0  0  0  0  0  0  0  0
   39.0956  -12.9454  -17.9935 O   0  0  0  0  0  0  0  0  0  0  0  0
   39.2225  -12.8752  -16.5969 C   0  0  0  0  0  0  0  0  0  0  0  0
   38.1684  -12.4353  -15.8438 C   0  0  0  0  0  0  0  0  0  0  0  0
   38.3067  -12.3703  -14.4595 C   0  0  0  0  0  0  0  0  0  0  0  0
   39.4843  -12.7413  -13.8453 C   0  0  0  0  0  0  0  0  0  0  0  0
   39.5919  -12.6595  -12.3842 C   0  0  0  0  0  0  0  0  0  0  0  0
   40.2291  -11.3350  -11.9391 C   0  0  2  0  0  0  0  0  0  0  0  0
   40.3633  -11.4295  -10.4983 N   0  0  0  0  0  0  0  0  0  0  0  0
   39.3892  -10.2042  -12.3833 C   0  0  0  0  0  0  0  0  0  0  0  0
   38.1750  -10.0045  -11.7492 O   0  0  0  0  0  0  0  0  0  0  0  0
   40.5522  -13.1858  -14.5946 C   0  0  0  0  0  0  0  0  0  0  0  0
   40.3910  -13.2416  -15.9674 C   0  0  0  0  0  0  0  0  0  0  0  0
   39.7251   -9.4224  -13.3030 O   0  0  0  0  0  0  0  0  0  0  0  0
  2  1  1  1
  3  2  1  0
  3  4  1  0
  5  4  1  0
  5  6  1  0
  7  6  1  0
  8  2  1  0
  8  9  2  0
 10  8  1  0
 11 10  1  0
 11 12  1  1
 13 12  1  0
 13 14  2  0
 15 14  1  0
 16 15  2  0
 17 18  2  0
 17 16  1  0
 18 13  1  0
 19 11  1  0
 20 19  2  0
 21 22  1  0
 22 23  2  0
 23 24  1  0
 25 24  2  0
 25 26  1  0
 27 28  1  0
 27 26  1  1
 28 19  1  0
 29 27  1  0
 30 29  1  0
 31 25  1  0
 32 22  1  0
 32 31  2  0
 33 29  2  0
M  END
$$$$
