KFY.pdb
     RDKit          3D

 33 34  0  0  1  0  0  0  0  0999 V2000
   27.9133  -22.9324  -16.0449 N   0  0  0  0  0  0  0  0  0  0  0  0
   27.0531  -21.7775  -16.0324 C   0  0  1  0  0  0  0  0  0  0  0  0
   26.2103  -21.6875  -17.2970 C   0  0  0  0  0  0  0  0  0  0  0  0
   26.9004  -20.8618  -18.3087 C   0  0  0  0  0  0  0  0  0  0  0  0
   27.2123  -19.4606  -17.9345 C   0  0  0  0  0  0  0  0  0  0  0  0
   27.8194  -18.6119  -18.9958 C   0  0  0  0  0  0  0  0  0  0  0  0
   27.5190  -19.0720  -20.3384 N   0  0  0  0  0  0  0  0  0  0  0  0
   26.2279  -21.7869  -14.8149 C   0  0  0  0  0  0  0  0  0  0  0  0
   25.7300  -22.8671  -14.3920 O   0  0  0  0  0  0  0  0  0  0  0  0
   25.9490  -20.6229  -14.0651 N   0  0  0  0  0  0  0  0  0  0  0  0
   25.1940  -20.6740  -12.7933 C   0  0  1  0  0  0  0  0  0  0  0  0
   25.9844  -19.8577  -11.8437 C   0  0  0  0  0  0  0  0  0  0  0  0
   27.0700  -20.4779  -11.1157 C   0  0  0  0  0  0  0  0  0  0  0  0
   28.3057  -20.7878  -11.6684 C   0  0  0  0  0  0  0  0  0  0  0  0
   29.3206  -21.3552  -10.9626 C   0  0  0  0  0  0  0  0  0  0  0  0
   29.1573  -21.6501   -9.6445 C   0  0  0  0  0  0  0  0  0  0  0  0
   27.9498  -21.3640   -9.0424 C   0  0  0  0  0  0  0  0  0  0  0  0
   26.9125  -20.7801   -9.7787 C   0  0  0  0  0  0  0  0  0  0  0  0
   23.8337  -20.1998  -13.0907 C   0  0  0  0  0  0  0  0  0  0  0  0
   23.6873  -19.1195  -13.7400 O   0  0  0  0  0  0  0  0  0  0  0  0
   18.8915  -25.0078  -16.7248 O   0  0  0  0  0  0  0  0  0  0  0  0
   19.4933  -23.8511  -16.2037 C   0  0  0  0  0  0  0  0  0  0  0  0
   20.8247  -23.8652  -15.8891 C   0  0  0  0  0  0  0  0  0  0  0  0
   21.4099  -22.7115  -15.3730 C   0  0  0  0  0  0  0  0  0  0  0  0
   20.6683  -21.5655  -15.1776 C   0  0  0  0  0  0  0  0  0  0  0  0
   21.3203  -20.3694  -14.6323 C   0  0  0  0  0  0  0  0  0  0  0  0
   21.3205  -20.3780  -13.0966 C   0  0  2  0  0  0  0  0  0  0  0  0
   22.6304  -20.8635  -12.7077 N   0  0  0  0  0  0  0  0  0  0  0  0
   20.2078  -21.2144  -12.6031 C   0  0  0  0  0  0  0  0  0  0  0  0
   20.5138  -22.4402  -12.0374 O   0  0  0  0  0  0  0  0  0  0  0  0
   19.3266  -21.5406  -15.4913 C   0  0  0  0  0  0  0  0  0  0  0  0
   18.7677  -22.6983  -16.0023 C   0  0  0  0  0  0  0  0  0  0  0  0
   19.0064  -20.8656  -12.6732 O   0  0  0  0  0  0  0  0  0  0  0  0
  2  1  1  6
  3  2  1  0
  3  4  1  0
  5  4  1  0
  5  6  1  0
  7  6  1  0
  8  2  1  0
  8  9  2  0
 10  8  1  0
 11 10  1  0
 11 12  1  1
 13 12  1  0
 13 14  2  0
 15 14  1  0
 16 15  2  0
 17 18  2  0
 17 16  1  0
 18 13  1  0
 19 11  1  0
 20 19  2  0
 21 22  1  0
 22 23  2  0
 23 24  1  0
 25 24  2  0
 25 26  1  0
 27 28  1  0
 27 26  1  6
 28 19  1  0
 29 27  1  0
 30 29  1  0
 31 25  1  0
 32 22  1  0
 32 31  2  0
 33 29  2  0
M  END
$$$$
