KFY.pdb
     RDKit          3D

 33 34  0  0  1  0  0  0  0  0999 V2000
   28.1827  -22.1138  -17.7090 N   0  0  0  0  0  0  0  0  0  0  0  0
   27.5086  -21.0256  -17.0492 C   0  0  1  0  0  0  0  0  0  0  0  0
   26.3701  -20.4712  -17.8943 C   0  0  0  0  0  0  0  0  0  0  0  0
   26.9114  -19.6825  -19.0198 C   0  0  0  0  0  0  0  0  0  0  0  0
   27.8567  -20.3724  -19.9315 C   0  0  0  0  0  0  0  0  0  0  0  0
   28.3405  -19.5879  -21.1001 C   0  0  0  0  0  0  0  0  0  0  0  0
   29.2257  -20.3411  -21.9683 N   0  0  0  0  0  0  0  0  0  0  0  0
   27.0530  -21.4578  -15.7192 C   0  0  0  0  0  0  0  0  0  0  0  0
   26.4893  -22.5778  -15.5728 O   0  0  0  0  0  0  0  0  0  0  0  0
   27.2127  -20.6707  -14.5575 N   0  0  0  0  0  0  0  0  0  0  0  0
   26.7629  -21.1387  -13.2276 C   0  0  1  0  0  0  0  0  0  0  0  0
   27.5735  -20.3707  -12.2550 C   0  0  0  0  0  0  0  0  0  0  0  0
   27.2855  -20.4969  -10.8429 C   0  0  0  0  0  0  0  0  0  0  0  0
   27.9166  -21.3961   -9.9934 C   0  0  0  0  0  0  0  0  0  0  0  0
   27.6443  -21.4877   -8.6639 C   0  0  0  0  0  0  0  0  0  0  0  0
   26.7121  -20.6743   -8.0978 C   0  0  0  0  0  0  0  0  0  0  0  0
   26.0531  -19.7610   -8.8942 C   0  0  0  0  0  0  0  0  0  0  0  0
   26.3416  -19.6757  -10.2612 C   0  0  0  0  0  0  0  0  0  0  0  0
   25.3076  -20.9306  -13.1769 C   0  0  0  0  0  0  0  0  0  0  0  0
   24.8282  -19.8335  -13.5973 O   0  0  0  0  0  0  0  0  0  0  0  0
   16.6622  -22.2242  -11.8597 O   0  0  0  0  0  0  0  0  0  0  0  0
   18.0467  -22.3952  -12.0192 C   0  0  0  0  0  0  0  0  0  0  0  0
   18.6038  -22.2736  -13.2629 C   0  0  0  0  0  0  0  0  0  0  0  0
   19.9782  -22.4454  -13.4080 C   0  0  0  0  0  0  0  0  0  0  0  0
   20.7764  -22.7341  -12.3212 C   0  0  0  0  0  0  0  0  0  0  0  0
   22.2207  -22.9076  -12.5137 C   0  0  0  0  0  0  0  0  0  0  0  0
   22.9525  -21.5577  -12.5379 C   0  0  2  0  0  0  0  0  0  0  0  0
   24.3591  -21.8771  -12.6873 N   0  0  0  0  0  0  0  0  0  0  0  0
   22.6437  -20.8015  -11.3074 C   0  0  0  0  0  0  0  0  0  0  0  0
   21.6996  -19.7918  -11.3813 O   0  0  0  0  0  0  0  0  0  0  0  0
   20.2254  -22.8586  -11.0642 C   0  0  0  0  0  0  0  0  0  0  0  0
   18.8583  -22.6837  -10.9450 C   0  0  0  0  0  0  0  0  0  0  0  0
   23.1952  -21.0321  -10.2062 O   0  0  0  0  0  0  0  0  0  0  0  0
  2  1  1  6
  3  2  1  0
  3  4  1  0
  5  4  1  0
  5  6  1  0
  7  6  1  0
  8  2  1  0
  8  9  2  0
 10  8  1  0
 11 10  1  0
 11 12  1  1
 13 12  1  0
 13 14  2  0
 15 14  1  0
 16 15  2  0
 17 18  2  0
 17 16  1  0
 18 13  1  0
 19 11  1  0
 20 19  2  0
 21 22  1  0
 22 23  2  0
 23 24  1  0
 25 24  2  0
 25 26  1  0
 27 28  1  0
 27 26  1  1
 28 19  1  0
 29 27  1  0
 30 29  1  0
 31 25  1  0
 32 22  1  0
 32 31  2  0
 33 29  2  0
M  END
$$$$
