KFY.pdb
     RDKit          3D

 33 34  0  0  1  0  0  0  0  0999 V2000
   23.3687  -12.7930  -17.0795 N   0  0  0  0  0  0  0  0  0  0  0  0
   22.5241  -11.7946  -17.6825 C   0  0  1  0  0  0  0  0  0  0  0  0
   21.0509  -12.1643  -17.5796 C   0  0  0  0  0  0  0  0  0  0  0  0
   20.7911  -13.4211  -18.3110 C   0  0  0  0  0  0  0  0  0  0  0  0
   19.4161  -13.9725  -18.2336 C   0  0  0  0  0  0  0  0  0  0  0  0
   19.1623  -15.2263  -18.9944 C   0  0  0  0  0  0  0  0  0  0  0  0
   17.8509  -15.7931  -18.7427 N   0  0  0  0  0  0  0  0  0  0  0  0
   22.8090  -10.4795  -17.0888 C   0  0  0  0  0  0  0  0  0  0  0  0
   23.2349  -10.3954  -15.9034 O   0  0  0  0  0  0  0  0  0  0  0  0
   22.6294   -9.2647  -17.7865 N   0  0  0  0  0  0  0  0  0  0  0  0
   22.9895   -7.9592  -17.1897 C   0  0  1  0  0  0  0  0  0  0  0  0
   24.0488   -7.4134  -18.0688 C   0  0  0  0  0  0  0  0  0  0  0  0
   25.3402   -8.0647  -18.1036 C   0  0  0  0  0  0  0  0  0  0  0  0
   26.2580   -8.0375  -17.0618 C   0  0  0  0  0  0  0  0  0  0  0  0
   27.4607   -8.6713  -17.1066 C   0  0  0  0  0  0  0  0  0  0  0  0
   27.8212   -9.3793  -18.2111 C   0  0  0  0  0  0  0  0  0  0  0  0
   26.9483   -9.4409  -19.2773 C   0  0  0  0  0  0  0  0  0  0  0  0
   25.7133   -8.7847  -19.2198 C   0  0  0  0  0  0  0  0  0  0  0  0
   21.7458   -7.1789  -17.0997 C   0  0  0  0  0  0  0  0  0  0  0  0
   21.0304   -7.0400  -18.1385 O   0  0  0  0  0  0  0  0  0  0  0  0
   16.7456  -11.1552  -15.8816 O   0  0  0  0  0  0  0  0  0  0  0  0
   17.3640   -9.9284  -15.5913 C   0  0  0  0  0  0  0  0  0  0  0  0
   17.0622   -8.8251  -16.3420 C   0  0  0  0  0  0  0  0  0  0  0  0
   17.6822   -7.6141  -16.0440 C   0  0  0  0  0  0  0  0  0  0  0  0
   18.5888   -7.5161  -15.0096 C   0  0  0  0  0  0  0  0  0  0  0  0
   19.2211   -6.2228  -14.7257 C   0  0  0  0  0  0  0  0  0  0  0  0
   20.0578   -5.7309  -15.9158 C   0  0  2  0  0  0  0  0  0  0  0  0
   21.2553   -6.5487  -15.9177 N   0  0  0  0  0  0  0  0  0  0  0  0
   20.3271   -4.2858  -15.7720 C   0  0  0  0  0  0  0  0  0  0  0  0
   21.6355   -3.8829  -15.5673 O   0  0  0  0  0  0  0  0  0  0  0  0
   18.8998   -8.6213  -14.2473 C   0  0  0  0  0  0  0  0  0  0  0  0
   18.2715   -9.8128  -14.5622 C   0  0  0  0  0  0  0  0  0  0  0  0
   19.4290   -3.4137  -15.8267 O   0  0  0  0  0  0  0  0  0  0  0  0
  2  1  1  1
  3  2  1  0
  3  4  1  0
  5  4  1  0
  5  6  1  0
  7  6  1  0
  8  2  1  0
  8  9  2  0
 10  8  1  0
 11 10  1  0
 11 12  1  6
 13 12  1  0
 13 14  2  0
 15 14  1  0
 16 15  2  0
 17 18  2  0
 17 16  1  0
 18 13  1  0
 19 11  1  0
 20 19  2  0
 21 22  1  0
 22 23  2  0
 23 24  1  0
 25 24  2  0
 25 26  1  0
 27 28  1  0
 27 26  1  1
 28 19  1  0
 29 27  1  0
 30 29  1  0
 31 25  1  0
 32 22  1  0
 32 31  2  0
 33 29  2  0
M  END
$$$$
