KFY.pdb
     RDKit          3D

 33 34  0  0  1  0  0  0  0  0999 V2000
   19.9689  -31.2797  -12.7127 N   0  0  0  0  0  0  0  0  0  0  0  0
   18.8582  -30.5074  -12.2191 C   0  0  1  0  0  0  0  0  0  0  0  0
   17.6430  -31.3809  -11.9397 C   0  0  0  0  0  0  0  0  0  0  0  0
   18.0454  -32.8000  -11.8623 C   0  0  0  0  0  0  0  0  0  0  0  0
   18.6728  -33.2533  -10.5969 C   0  0  0  0  0  0  0  0  0  0  0  0
   18.8951  -34.7182  -10.4562 C   0  0  0  0  0  0  0  0  0  0  0  0
   19.6581  -35.0705   -9.2737 N   0  0  0  0  0  0  0  0  0  0  0  0
   19.2745  -29.7406  -11.0350 C   0  0  0  0  0  0  0  0  0  0  0  0
   19.9454  -30.2957  -10.1211 O   0  0  0  0  0  0  0  0  0  0  0  0
   18.9591  -28.3761  -10.8517 N   0  0  0  0  0  0  0  0  0  0  0  0
   19.4698  -27.6035   -9.6975 C   0  0  1  0  0  0  0  0  0  0  0  0
   20.6048  -26.8174  -10.2326 C   0  0  0  0  0  0  0  0  0  0  0  0
   20.3401  -25.7426  -11.1642 C   0  0  0  0  0  0  0  0  0  0  0  0
   19.7866  -24.5193  -10.8100 C   0  0  0  0  0  0  0  0  0  0  0  0
   19.5614  -23.5139  -11.6981 C   0  0  0  0  0  0  0  0  0  0  0  0
   19.8808  -23.6750  -13.0108 C   0  0  0  0  0  0  0  0  0  0  0  0
   20.4340  -24.8705  -13.4200 C   0  0  0  0  0  0  0  0  0  0  0  0
   20.6612  -25.8980  -12.4971 C   0  0  0  0  0  0  0  0  0  0  0  0
   18.3327  -26.8356   -9.1673 C   0  0  0  0  0  0  0  0  0  0  0  0
   17.3719  -26.5446   -9.9433 O   0  0  0  0  0  0  0  0  0  0  0  0
   11.1504  -23.8929   -5.7872 O   0  0  0  0  0  0  0  0  0  0  0  0
   12.3248  -24.5466   -6.1935 C   0  0  0  0  0  0  0  0  0  0  0  0
   13.0564  -25.2528   -5.2781 C   0  0  0  0  0  0  0  0  0  0  0  0
   14.2193  -25.8968   -5.6936 C   0  0  0  0  0  0  0  0  0  0  0  0
   14.6373  -25.8310   -7.0061 C   0  0  0  0  0  0  0  0  0  0  0  0
   15.8677  -26.5232   -7.4061 C   0  0  0  0  0  0  0  0  0  0  0  0
   17.0797  -25.5805   -7.3776 C   0  0  2  0  0  0  0  0  0  0  0  0
   18.2066  -26.3776   -7.8221 N   0  0  0  0  0  0  0  0  0  0  0  0
   17.2462  -25.0241   -6.0197 C   0  0  0  0  0  0  0  0  0  0  0  0
   18.3379  -25.4359   -5.2749 O   0  0  0  0  0  0  0  0  0  0  0  0
   13.9077  -25.1224   -7.9361 C   0  0  0  0  0  0  0  0  0  0  0  0
   12.7566  -24.4912   -7.4998 C   0  0  0  0  0  0  0  0  0  0  0  0
   16.4478  -24.2007   -5.5151 O   0  0  0  0  0  0  0  0  0  0  0  0
  2  1  1  1
  3  2  1  0
  3  4  1  0
  5  4  1  0
  5  6  1  0
  7  6  1  0
  8  2  1  0
  8  9  2  0
 10  8  1  0
 11 10  1  0
 11 12  1  6
 13 12  1  0
 13 14  2  0
 15 14  1  0
 16 15  2  0
 17 18  2  0
 17 16  1  0
 18 13  1  0
 19 11  1  0
 20 19  2  0
 21 22  1  0
 22 23  2  0
 23 24  1  0
 25 24  2  0
 25 26  1  0
 27 28  1  0
 27 26  1  1
 28 19  1  0
 29 27  1  0
 30 29  1  0
 31 25  1  0
 32 22  1  0
 32 31  2  0
 33 29  2  0
M  END
$$$$
