KFY.pdb
     RDKit          3D

 33 34  0  0  1  0  0  0  0  0999 V2000
   28.0573  -21.7225  -15.9628 N   0  0  0  0  0  0  0  0  0  0  0  0
   26.8728  -20.9764  -15.6245 C   0  0  1  0  0  0  0  0  0  0  0  0
   25.8608  -20.9774  -16.7619 C   0  0  0  0  0  0  0  0  0  0  0  0
   26.4163  -20.2735  -17.9356 C   0  0  0  0  0  0  0  0  0  0  0  0
   26.9808  -21.1144  -19.0194 C   0  0  0  0  0  0  0  0  0  0  0  0
   27.4242  -20.4007  -20.2479 C   0  0  0  0  0  0  0  0  0  0  0  0
   28.1346  -21.2546  -21.1811 N   0  0  0  0  0  0  0  0  0  0  0  0
   26.3010  -21.4946  -14.3724 C   0  0  0  0  0  0  0  0  0  0  0  0
   26.2555  -22.7383  -14.1605 O   0  0  0  0  0  0  0  0  0  0  0  0
   25.7826  -20.6586  -13.3590 N   0  0  0  0  0  0  0  0  0  0  0  0
   25.3076  -21.1992  -12.0659 C   0  0  1  0  0  0  0  0  0  0  0  0
   26.1279  -20.5170  -11.0391 C   0  0  0  0  0  0  0  0  0  0  0  0
   27.5645  -20.6870  -11.0581 C   0  0  0  0  0  0  0  0  0  0  0  0
   28.2541  -21.6022  -10.2736 C   0  0  0  0  0  0  0  0  0  0  0  0
   29.6044  -21.7596  -10.3185 C   0  0  0  0  0  0  0  0  0  0  0  0
   30.3549  -21.0005  -11.1622 C   0  0  0  0  0  0  0  0  0  0  0  0
   29.7230  -20.0744  -11.9656 C   0  0  0  0  0  0  0  0  0  0  0  0
   28.3328  -19.9213  -11.9108 C   0  0  0  0  0  0  0  0  0  0  0  0
   23.8577  -20.9565  -12.0140 C   0  0  0  0  0  0  0  0  0  0  0  0
   23.3715  -20.3478  -11.0123 O   0  0  0  0  0  0  0  0  0  0  0  0
   16.8753  -16.5633  -13.8085 O   0  0  0  0  0  0  0  0  0  0  0  0
   18.0990  -17.2389  -13.6748 C   0  0  0  0  0  0  0  0  0  0  0  0
   18.8365  -17.5283  -14.7903 C   0  0  0  0  0  0  0  0  0  0  0  0
   20.0485  -18.1986  -14.6444 C   0  0  0  0  0  0  0  0  0  0  0  0
   20.5091  -18.5704  -13.3989 C   0  0  0  0  0  0  0  0  0  0  0  0
   21.7912  -19.2748  -13.2854 C   0  0  0  0  0  0  0  0  0  0  0  0
   21.5897  -20.7857  -13.0980 C   0  0  2  0  0  0  0  0  0  0  0  0
   22.9224  -21.3516  -13.0160 N   0  0  0  0  0  0  0  0  0  0  0  0
   20.7851  -21.3231  -14.2138 C   0  0  0  0  0  0  0  0  0  0  0  0
   19.4147  -21.4193  -14.0432 O   0  0  0  0  0  0  0  0  0  0  0  0
   19.7741  -18.2836  -12.2690 C   0  0  0  0  0  0  0  0  0  0  0  0
   18.5737  -17.6173  -12.4389 C   0  0  0  0  0  0  0  0  0  0  0  0
   21.2850  -21.6936  -15.3014 O   0  0  0  0  0  0  0  0  0  0  0  0
  2  1  1  6
  3  2  1  0
  3  4  1  0
  5  4  1  0
  5  6  1  0
  7  6  1  0
  8  2  1  0
  8  9  2  0
 10  8  1  0
 11 10  1  0
 11 12  1  1
 13 12  1  0
 13 14  2  0
 15 14  1  0
 16 15  2  0
 17 18  2  0
 17 16  1  0
 18 13  1  0
 19 11  1  0
 20 19  2  0
 21 22  1  0
 22 23  2  0
 23 24  1  0
 25 24  2  0
 25 26  1  0
 27 28  1  0
 27 26  1  6
 28 19  1  0
 29 27  1  0
 30 29  1  0
 31 25  1  0
 32 22  1  0
 32 31  2  0
 33 29  2  0
M  END
$$$$
