KFY.pdb
     RDKit          3D

 33 34  0  0  1  0  0  0  0  0999 V2000
   27.6686  -21.2356  -13.9742 N   0  0  0  0  0  0  0  0  0  0  0  0
   26.6591  -20.4345  -13.3315 C   0  0  1  0  0  0  0  0  0  0  0  0
   25.3422  -20.4667  -14.0946 C   0  0  0  0  0  0  0  0  0  0  0  0
   25.5839  -20.2349  -15.5333 C   0  0  0  0  0  0  0  0  0  0  0  0
   26.3081  -21.2971  -16.2735 C   0  0  0  0  0  0  0  0  0  0  0  0
   26.4546  -21.0985  -17.7412 C   0  0  0  0  0  0  0  0  0  0  0  0
   27.2381  -22.1366  -18.3839 N   0  0  0  0  0  0  0  0  0  0  0  0
   26.5011  -20.8636  -11.9335 C   0  0  0  0  0  0  0  0  0  0  0  0
   26.4845  -22.0920  -11.6431 O   0  0  0  0  0  0  0  0  0  0  0  0
   26.3621  -19.9556  -10.8607 N   0  0  0  0  0  0  0  0  0  0  0  0
   26.2920  -20.4112   -9.4545 C   0  0  1  0  0  0  0  0  0  0  0  0
   26.9851  -19.3604   -8.6746 C   0  0  0  0  0  0  0  0  0  0  0  0
   27.1796  -19.5506   -7.2537 C   0  0  0  0  0  0  0  0  0  0  0  0
   26.3895  -18.9680   -6.2714 C   0  0  0  0  0  0  0  0  0  0  0  0
   26.5773  -19.1732   -4.9400 C   0  0  0  0  0  0  0  0  0  0  0  0
   27.5801  -19.9841   -4.5065 C   0  0  0  0  0  0  0  0  0  0  0  0
   28.3969  -20.5900   -5.4383 C   0  0  0  0  0  0  0  0  0  0  0  0
   28.1941  -20.3715   -6.8059 C   0  0  0  0  0  0  0  0  0  0  0  0
   24.8684  -20.6220   -9.1496 C   0  0  0  0  0  0  0  0  0  0  0  0
   24.0147  -19.7974   -9.5983 O   0  0  0  0  0  0  0  0  0  0  0  0
   17.4310  -24.5105   -6.3002 O   0  0  0  0  0  0  0  0  0  0  0  0
   18.7695  -24.1434   -6.5127 C   0  0  0  0  0  0  0  0  0  0  0  0
   19.4560  -23.4903   -5.5257 C   0  0  0  0  0  0  0  0  0  0  0  0
   20.7831  -23.1316   -5.7487 C   0  0  0  0  0  0  0  0  0  0  0  0
   21.4070  -23.4250   -6.9429 C   0  0  0  0  0  0  0  0  0  0  0  0
   22.8067  -23.0314   -7.1405 C   0  0  0  0  0  0  0  0  0  0  0  0
   22.9274  -21.8442   -8.1073 C   0  0  2  0  0  0  0  0  0  0  0  0
   24.3451  -21.7006   -8.3764 N   0  0  0  0  0  0  0  0  0  0  0  0
   22.3144  -20.6446   -7.5019 C   0  0  0  0  0  0  0  0  0  0  0  0
   21.0339  -20.2963   -7.8963 O   0  0  0  0  0  0  0  0  0  0  0  0
   20.7247  -24.0825   -7.9436 C   0  0  0  0  0  0  0  0  0  0  0  0
   19.4078  -24.4285   -7.6989 C   0  0  0  0  0  0  0  0  0  0  0  0
   22.8985  -19.9325   -6.6524 O   0  0  0  0  0  0  0  0  0  0  0  0
  2  1  1  6
  3  2  1  0
  3  4  1  0
  5  4  1  0
  5  6  1  0
  7  6  1  0
  8  2  1  0
  8  9  2  0
 10  8  1  0
 11 10  1  0
 11 12  1  1
 13 12  1  0
 13 14  2  0
 15 14  1  0
 16 15  2  0
 17 18  2  0
 17 16  1  0
 18 13  1  0
 19 11  1  0
 20 19  2  0
 21 22  1  0
 22 23  2  0
 23 24  1  0
 25 24  2  0
 25 26  1  0
 27 28  1  0
 27 26  1  1
 28 19  1  0
 29 27  1  0
 30 29  1  0
 31 25  1  0
 32 22  1  0
 32 31  2  0
 33 29  2  0
M  END
$$$$
