KFY.pdb
     RDKit          3D

 33 34  0  0  1  0  0  0  0  0999 V2000
   33.0486  -31.3031  -20.5005 N   0  0  0  0  0  0  0  0  0  0  0  0
   32.0353  -31.7026  -19.5585 C   0  0  1  0  0  0  0  0  0  0  0  0
   32.3306  -33.0698  -18.9575 C   0  0  0  0  0  0  0  0  0  0  0  0
   31.1785  -33.9720  -19.1590 C   0  0  0  0  0  0  0  0  0  0  0  0
   30.2993  -34.2122  -17.9886 C   0  0  0  0  0  0  0  0  0  0  0  0
   29.2163  -35.2169  -18.1697 C   0  0  0  0  0  0  0  0  0  0  0  0
   28.3315  -35.3175  -17.0245 N   0  0  0  0  0  0  0  0  0  0  0  0
   31.8798  -30.6651  -18.5276 C   0  0  0  0  0  0  0  0  0  0  0  0
   32.6662  -30.6257  -17.5409 O   0  0  0  0  0  0  0  0  0  0  0  0
   30.8712  -29.6775  -18.5754 N   0  0  0  0  0  0  0  0  0  0  0  0
   30.7076  -28.6739  -17.5003 C   0  0  1  0  0  0  0  0  0  0  0  0
   31.0153  -27.3733  -18.1379 C   0  0  0  0  0  0  0  0  0  0  0  0
   32.2758  -27.2082  -18.8286 C   0  0  0  0  0  0  0  0  0  0  0  0
   32.4320  -27.3061  -20.2049 C   0  0  0  0  0  0  0  0  0  0  0  0
   33.6230  -27.1300  -20.8379 C   0  0  0  0  0  0  0  0  0  0  0  0
   34.7433  -26.8416  -20.1217 C   0  0  0  0  0  0  0  0  0  0  0  0
   34.6475  -26.7322  -18.7501 C   0  0  0  0  0  0  0  0  0  0  0  0
   33.4165  -26.9155  -18.1097 C   0  0  0  0  0  0  0  0  0  0  0  0
   29.3444  -28.8390  -16.9727 C   0  0  0  0  0  0  0  0  0  0  0  0
   28.9885  -28.1562  -15.9641 O   0  0  0  0  0  0  0  0  0  0  0  0
   26.3668  -23.5118  -16.7781 O   0  0  0  0  0  0  0  0  0  0  0  0
   26.2985  -24.8891  -17.0431 C   0  0  0  0  0  0  0  0  0  0  0  0
   27.0557  -25.4218  -18.0505 C   0  0  0  0  0  0  0  0  0  0  0  0
   26.9792  -26.7892  -18.3034 C   0  0  0  0  0  0  0  0  0  0  0  0
   26.1557  -27.6046  -17.5560 C   0  0  0  0  0  0  0  0  0  0  0  0
   26.1023  -29.0408  -17.8520 C   0  0  0  0  0  0  0  0  0  0  0  0
   27.0333  -29.8415  -16.9297 C   0  0  2  0  0  0  0  0  0  0  0  0
   28.3576  -29.7192  -17.5079 N   0  0  0  0  0  0  0  0  0  0  0  0
   26.5567  -31.2358  -16.8296 C   0  0  0  0  0  0  0  0  0  0  0  0
   27.3667  -32.2401  -17.3313 O   0  0  0  0  0  0  0  0  0  0  0  0
   25.3889  -27.0782  -16.5390 C   0  0  0  0  0  0  0  0  0  0  0  0
   25.4817  -25.7176  -16.3067 C   0  0  0  0  0  0  0  0  0  0  0  0
   25.4584  -31.5480  -16.3137 O   0  0  0  0  0  0  0  0  0  0  0  0
  2  1  1  6
  3  2  1  0
  3  4  1  0
  5  4  1  0
  5  6  1  0
  7  6  1  0
  8  2  1  0
  8  9  2  0
 10  8  1  0
 11 10  1  0
 11 12  1  6
 13 12  1  0
 13 14  2  0
 15 14  1  0
 16 15  2  0
 17 18  2  0
 17 16  1  0
 18 13  1  0
 19 11  1  0
 20 19  2  0
 21 22  1  0
 22 23  2  0
 23 24  1  0
 25 24  2  0
 25 26  1  0
 27 28  1  0
 27 26  1  6
 28 19  1  0
 29 27  1  0
 30 29  1  0
 31 25  1  0
 32 22  1  0
 32 31  2  0
 33 29  2  0
M  END
$$$$
