KFY.pdb
     RDKit          3D

 33 34  0  0  1  0  0  0  0  0999 V2000
   18.8944  -14.5865  -17.7564 N   0  0  0  0  0  0  0  0  0  0  0  0
   19.0237  -13.1807  -18.0407 C   0  0  1  0  0  0  0  0  0  0  0  0
   17.6928  -12.4533  -17.9094 C   0  0  0  0  0  0  0  0  0  0  0  0
   16.6047  -13.2821  -18.4670 C   0  0  0  0  0  0  0  0  0  0  0  0
   16.3516  -13.1683  -19.9242 C   0  0  0  0  0  0  0  0  0  0  0  0
   15.1232  -13.8345  -20.4364 C   0  0  0  0  0  0  0  0  0  0  0  0
   14.8471  -13.5340  -21.8286 N   0  0  0  0  0  0  0  0  0  0  0  0
   20.0637  -12.5946  -17.1814 C   0  0  0  0  0  0  0  0  0  0  0  0
   20.0863  -12.8503  -15.9454 O   0  0  0  0  0  0  0  0  0  0  0  0
   21.0718  -11.7348  -17.6705 N   0  0  0  0  0  0  0  0  0  0  0  0
   22.1141  -11.1687  -16.7855 C   0  0  1  0  0  0  0  0  0  0  0  0
   23.3987  -11.5002  -17.4431 C   0  0  0  0  0  0  0  0  0  0  0  0
   24.6309  -10.9973  -16.8757 C   0  0  0  0  0  0  0  0  0  0  0  0
   25.2461  -11.5266  -15.7489 C   0  0  0  0  0  0  0  0  0  0  0  0
   26.4146  -11.0508  -15.2405 C   0  0  0  0  0  0  0  0  0  0  0  0
   27.0452  -10.0032  -15.8373 C   0  0  0  0  0  0  0  0  0  0  0  0
   26.4794   -9.4373  -16.9607 C   0  0  0  0  0  0  0  0  0  0  0  0
   25.2766   -9.9354  -17.4750 C   0  0  0  0  0  0  0  0  0  0  0  0
   21.8062   -9.7384  -16.6321 C   0  0  0  0  0  0  0  0  0  0  0  0
   21.3205   -9.1047  -17.6184 O   0  0  0  0  0  0  0  0  0  0  0  0
   15.9228   -8.9924  -13.1196 O   0  0  0  0  0  0  0  0  0  0  0  0
   17.2498   -8.5776  -13.3163 C   0  0  0  0  0  0  0  0  0  0  0  0
   17.5110   -7.5157  -14.1385 C   0  0  0  0  0  0  0  0  0  0  0  0
   18.8313   -7.1138  -14.3253 C   0  0  0  0  0  0  0  0  0  0  0  0
   19.8689   -7.7690  -13.6961 C   0  0  0  0  0  0  0  0  0  0  0  0
   21.2469   -7.3160  -13.9172 C   0  0  0  0  0  0  0  0  0  0  0  0
   21.6963   -7.5637  -15.3647 C   0  0  2  0  0  0  0  0  0  0  0  0
   22.0068   -8.9781  -15.4419 N   0  0  0  0  0  0  0  0  0  0  0  0
   22.8403   -6.6872  -15.6880 C   0  0  0  0  0  0  0  0  0  0  0  0
   24.0669   -7.2794  -15.9348 O   0  0  0  0  0  0  0  0  0  0  0  0
   19.6167   -8.8397  -12.8658 C   0  0  0  0  0  0  0  0  0  0  0  0
   18.2976   -9.2203  -12.6958 C   0  0  0  0  0  0  0  0  0  0  0  0
   22.7501   -5.4390  -15.7483 O   0  0  0  0  0  0  0  0  0  0  0  0
  2  1  1  1
  3  2  1  0
  3  4  1  0
  5  4  1  0
  5  6  1  0
  7  6  1  0
  8  2  1  0
  8  9  2  0
 10  8  1  0
 11 10  1  0
 11 12  1  6
 13 12  1  0
 13 14  2  0
 15 14  1  0
 16 15  2  0
 17 18  2  0
 17 16  1  0
 18 13  1  0
 19 11  1  0
 20 19  2  0
 21 22  1  0
 22 23  2  0
 23 24  1  0
 25 24  2  0
 25 26  1  0
 27 28  1  0
 27 26  1  1
 28 19  1  0
 29 27  1  0
 30 29  1  0
 31 25  1  0
 32 22  1  0
 32 31  2  0
 33 29  2  0
M  END
$$$$
