NNW.pdb
     RDKit          3D

 31 32  0  0  1  0  0  0  0  0999 V2000
   28.7610  -23.3302  -18.8157 N   0  0  0  0  0  0  0  0  0  0  0  0
   29.6205  -22.2584  -18.4828 C   0  0  0  0  0  0  0  0  0  0  0  0
   30.5930  -22.0016  -19.2192 O   0  0  0  0  0  0  0  0  0  0  0  0
   29.3540  -21.4636  -17.2756 C   0  0  0  0  0  0  0  0  0  0  0  0
   28.2466  -22.0811  -16.4212 C   0  0  2  0  0  0  0  0  0  0  0  0
   26.9667  -21.9810  -17.0814 N   0  0  0  0  0  0  0  0  0  0  0  0
   28.2658  -21.4003  -15.1161 C   0  0  0  0  0  0  0  0  0  0  0  0
   29.2507  -21.5842  -14.3563 O   0  0  0  0  0  0  0  0  0  0  0  0
   28.4904  -17.9504  -14.9762 N   0  0  0  0  0  0  0  0  0  0  0  0
   27.2510  -17.6131  -14.3846 C   0  0  0  0  0  0  0  0  0  0  0  0
   26.7671  -16.4686  -14.5938 O   0  0  0  0  0  0  0  0  0  0  0  0
   26.5121  -18.5834  -13.5235 C   0  0  0  0  0  0  0  0  0  0  0  0
   27.2354  -19.9081  -13.4510 C   0  0  2  0  0  0  0  0  0  0  0  0
   27.1932  -20.5573  -14.7306 N   0  0  0  0  0  0  0  0  0  0  0  0
   26.5739  -20.7340  -12.3963 C   0  0  0  0  0  0  0  0  0  0  0  0
   25.6821  -21.5458  -12.7340 O   0  0  0  0  0  0  0  0  0  0  0  0
   26.9110  -20.6368  -11.0313 N   0  0  0  0  0  0  0  0  0  0  0  0
   26.3458  -21.4615   -9.9651 C   0  0  1  0  0  0  0  0  0  0  0  0
   27.2970  -21.6007   -8.8358 C   0  0  0  0  0  0  0  0  0  0  0  0
   27.3362  -20.5172   -7.8582 C   0  0  0  0  0  0  0  0  0  0  0  0
   26.6118  -19.3384   -7.9652 C   0  0  0  0  0  0  0  0  0  0  0  0
   26.8979  -18.5412   -6.9077 N   0  0  0  0  0  0  0  0  0  0  0  0
   27.7935  -19.1669   -6.1052 C   0  0  0  0  0  0  0  0  0  0  0  0
   28.4051  -18.8348   -4.9179 C   0  0  0  0  0  0  0  0  0  0  0  0
   29.2911  -19.6693   -4.2646 C   0  0  0  0  0  0  0  0  0  0  0  0
   29.5592  -20.8869   -4.8503 C   0  0  0  0  0  0  0  0  0  0  0  0
   28.9583  -21.2381   -6.0385 C   0  0  0  0  0  0  0  0  0  0  0  0
   28.0671  -20.4033   -6.7003 C   0  0  0  0  0  0  0  0  0  0  0  0
   25.0274  -20.9147   -9.6265 C   0  0  0  0  0  0  0  0  0  0  0  0
   24.5010  -19.7159  -10.0759 O   0  0  0  0  0  0  0  0  0  0  0  0
   24.2560  -21.5691   -8.8388 O   0  0  0  0  0  0  0  0  0  0  0  0
  2  1  1  0
  2  4  1  0
  3  2  2  0
  4  5  1  0
  5  6  1  6
  7  8  2  0
  7  5  1  0
 10  9  1  0
 10 11  2  0
 13 12  1  6
 12 10  1  0
 13 14  1  0
 14  7  1  0
 15 13  1  0
 16 15  2  0
 17 15  1  0
 18 17  1  0
 18 19  1  1
 19 20  1  0
 20 28  1  0
 21 20  2  0
 21 22  1  0
 22 23  1  0
 23 24  1  0
 24 25  2  0
 26 25  1  0
 27 26  2  0
 28 23  2  0
 28 27  1  0
 29 30  1  0
 29 18  1  0
 31 29  2  0
M  END
$$$$
