NNW.pdb
     RDKit          3D

 31 32  0  0  1  0  0  0  0  0999 V2000
   18.5534  -22.1390  -16.7057 N   0  0  0  0  0  0  0  0  0  0  0  0
   19.6779  -21.3120  -16.9286 C   0  0  0  0  0  0  0  0  0  0  0  0
   20.2549  -21.3472  -18.0330 O   0  0  0  0  0  0  0  0  0  0  0  0
   20.1486  -20.4239  -15.8563 C   0  0  0  0  0  0  0  0  0  0  0  0
   21.5915  -20.7318  -15.4553 C   0  0  2  0  0  0  0  0  0  0  0  0
   21.9263  -22.1065  -15.7418 N   0  0  0  0  0  0  0  0  0  0  0  0
   21.7322  -20.4000  -14.0279 C   0  0  0  0  0  0  0  0  0  0  0  0
   20.8033  -19.7683  -13.4628 O   0  0  0  0  0  0  0  0  0  0  0  0
   19.7918  -22.0409  -11.4572 N   0  0  0  0  0  0  0  0  0  0  0  0
   20.7770  -21.1100  -11.0539 C   0  0  0  0  0  0  0  0  0  0  0  0
   20.4129  -19.9711  -10.6561 O   0  0  0  0  0  0  0  0  0  0  0  0
   22.2298  -21.4520  -11.0908 C   0  0  0  0  0  0  0  0  0  0  0  0
   23.0035  -20.4538  -11.9203 C   0  0  2  0  0  0  0  0  0  0  0  0
   22.8932  -20.7871  -13.3123 N   0  0  0  0  0  0  0  0  0  0  0  0
   24.4252  -20.4816  -11.4620 C   0  0  0  0  0  0  0  0  0  0  0  0
   25.3035  -20.9188  -12.2404 O   0  0  0  0  0  0  0  0  0  0  0  0
   24.8216  -20.0365  -10.1849 N   0  0  0  0  0  0  0  0  0  0  0  0
   26.1789  -20.1209   -9.6491 C   0  0  1  0  0  0  0  0  0  0  0  0
   26.1664  -20.1680   -8.1669 C   0  0  0  0  0  0  0  0  0  0  0  0
   27.3560  -19.6833   -7.4733 C   0  0  0  0  0  0  0  0  0  0  0  0
   28.3464  -18.9102   -8.0625 C   0  0  0  0  0  0  0  0  0  0  0  0
   29.3164  -18.6572   -7.1510 N   0  0  0  0  0  0  0  0  0  0  0  0
   28.9886  -19.2445   -5.9740 C   0  0  0  0  0  0  0  0  0  0  0  0
   29.5871  -19.2986   -4.7360 C   0  0  0  0  0  0  0  0  0  0  0  0
   29.0348  -19.9623   -3.6578 C   0  0  0  0  0  0  0  0  0  0  0  0
   27.8264  -20.5929   -3.8571 C   0  0  0  0  0  0  0  0  0  0  0  0
   27.2114  -20.5514   -5.0883 C   0  0  0  0  0  0  0  0  0  0  0  0
   27.7618  -19.8862   -6.1763 C   0  0  0  0  0  0  0  0  0  0  0  0
   26.8565  -21.2367  -10.3183 C   0  0  0  0  0  0  0  0  0  0  0  0
   28.1317  -21.2127  -10.8562 O   0  0  0  0  0  0  0  0  0  0  0  0
   26.2489  -22.3583  -10.4468 O   0  0  0  0  0  0  0  0  0  0  0  0
  2  1  1  0
  2  4  1  0
  3  2  2  0
  4  5  1  0
  5  6  1  1
  7  8  2  0
  7  5  1  0
 10  9  1  0
 10 11  2  0
 13 12  1  1
 12 10  1  0
 13 14  1  0
 14  7  1  0
 15 13  1  0
 16 15  2  0
 17 15  1  0
 18 17  1  0
 18 19  1  1
 19 20  1  0
 20 28  1  0
 21 20  2  0
 21 22  1  0
 22 23  1  0
 23 24  1  0
 24 25  2  0
 26 25  1  0
 27 26  2  0
 28 23  2  0
 28 27  1  0
 29 30  1  0
 29 18  1  0
 31 29  2  0
M  END
$$$$
