NNW.pdb
     RDKit          3D

 31 32  0  0  1  0  0  0  0  0999 V2000
   30.5868  -23.4149  -17.9871 N   0  0  0  0  0  0  0  0  0  0  0  0
   29.9109  -22.3062  -18.5457 C   0  0  0  0  0  0  0  0  0  0  0  0
   30.1375  -21.9828  -19.7281 O   0  0  0  0  0  0  0  0  0  0  0  0
   28.9520  -21.5531  -17.7250 C   0  0  0  0  0  0  0  0  0  0  0  0
   28.9026  -22.0726  -16.2879 C   0  0  2  0  0  0  0  0  0  0  0  0
   28.4917  -23.4560  -16.2513 N   0  0  0  0  0  0  0  0  0  0  0  0
   27.9964  -21.1922  -15.5323 C   0  0  0  0  0  0  0  0  0  0  0  0
   28.2287  -19.9565  -15.5217 O   0  0  0  0  0  0  0  0  0  0  0  0
   23.6318  -18.6108  -14.1050 N   0  0  0  0  0  0  0  0  0  0  0  0
   23.6910  -20.0154  -13.9518 C   0  0  0  0  0  0  0  0  0  0  0  0
   22.9165  -20.5719  -13.1281 O   0  0  0  0  0  0  0  0  0  0  0  0
   24.6479  -20.8433  -14.7442 C   0  0  0  0  0  0  0  0  0  0  0  0
   26.0180  -20.8518  -14.1071 C   0  0  2  0  0  0  0  0  0  0  0  0
   26.8878  -21.7331  -14.8335 N   0  0  0  0  0  0  0  0  0  0  0  0
   25.8600  -21.2872  -12.6867 C   0  0  0  0  0  0  0  0  0  0  0  0
   25.7116  -22.5061  -12.4403 O   0  0  0  0  0  0  0  0  0  0  0  0
   25.8692  -20.3806  -11.6078 N   0  0  0  0  0  0  0  0  0  0  0  0
   25.6489  -20.7379  -10.2077 C   0  0  1  0  0  0  0  0  0  0  0  0
   26.7616  -20.2587   -9.3523 C   0  0  0  0  0  0  0  0  0  0  0  0
   26.6214  -20.4397   -7.9106 C   0  0  0  0  0  0  0  0  0  0  0  0
   25.6129  -21.1781   -7.3078 C   0  0  0  0  0  0  0  0  0  0  0  0
   25.7604  -21.1198   -5.9622 N   0  0  0  0  0  0  0  0  0  0  0  0
   26.8433  -20.3610   -5.6633 C   0  0  0  0  0  0  0  0  0  0  0  0
   27.4511  -19.9884   -4.4862 C   0  0  0  0  0  0  0  0  0  0  0  0
   28.5869  -19.2039   -4.4373 C   0  0  0  0  0  0  0  0  0  0  0  0
   29.1173  -18.7867   -5.6382 C   0  0  0  0  0  0  0  0  0  0  0  0
   28.5239  -19.1478   -6.8271 C   0  0  0  0  0  0  0  0  0  0  0  0
   27.3817  -19.9360   -6.8828 C   0  0  0  0  0  0  0  0  0  0  0  0
   24.3088  -20.2743   -9.8321 C   0  0  0  0  0  0  0  0  0  0  0  0
   23.4020  -20.9557   -9.0385 O   0  0  0  0  0  0  0  0  0  0  0  0
   23.8904  -19.1403  -10.2595 O   0  0  0  0  0  0  0  0  0  0  0  0
  2  1  1  0
  2  4  1  0
  3  2  2  0
  4  5  1  0
  5  6  1  6
  7  8  2  0
  7  5  1  0
 10  9  1  0
 10 11  2  0
 13 12  1  6
 12 10  1  0
 13 14  1  0
 14  7  1  0
 15 13  1  0
 16 15  2  0
 17 15  1  0
 18 17  1  0
 18 19  1  1
 19 20  1  0
 20 28  1  0
 21 20  2  0
 21 22  1  0
 22 23  1  0
 23 24  1  0
 24 25  2  0
 26 25  1  0
 27 26  2  0
 28 23  2  0
 28 27  1  0
 29 30  1  0
 29 18  1  0
 31 29  2  0
M  END
$$$$
