NNW.pdb
     RDKit          3D

 31 32  0  0  1  0  0  0  0  0999 V2000
   30.4602  -19.7833  -20.8968 N   0  0  0  0  0  0  0  0  0  0  0  0
   30.4003  -20.5725  -19.7256 C   0  0  0  0  0  0  0  0  0  0  0  0
   30.7256  -21.7746  -19.7797 O   0  0  0  0  0  0  0  0  0  0  0  0
   29.9566  -19.9640  -18.4634 C   0  0  0  0  0  0  0  0  0  0  0  0
   29.0543  -20.9052  -17.6649 C   0  0  2  0  0  0  0  0  0  0  0  0
   27.8586  -21.2289  -18.4061 N   0  0  0  0  0  0  0  0  0  0  0  0
   28.7638  -20.2508  -16.3786 C   0  0  0  0  0  0  0  0  0  0  0  0
   29.7269  -19.9227  -15.6397 O   0  0  0  0  0  0  0  0  0  0  0  0
   26.0432  -16.1242  -13.4500 N   0  0  0  0  0  0  0  0  0  0  0  0
   25.9489  -17.5263  -13.6078 C   0  0  0  0  0  0  0  0  0  0  0  0
   25.5966  -18.2282  -12.6223 O   0  0  0  0  0  0  0  0  0  0  0  0
   26.2569  -18.1834  -14.9124 C   0  0  0  0  0  0  0  0  0  0  0  0
   27.1685  -19.3732  -14.7215 C   0  0  2  0  0  0  0  0  0  0  0  0
   27.4245  -19.9994  -15.9876 N   0  0  0  0  0  0  0  0  0  0  0  0
   26.5016  -20.3133  -13.7710 C   0  0  0  0  0  0  0  0  0  0  0  0
   25.5862  -21.0550  -14.1957 O   0  0  0  0  0  0  0  0  0  0  0  0
   26.8591  -20.4002  -12.4105 N   0  0  0  0  0  0  0  0  0  0  0  0
   26.3116  -21.3637  -11.4574 C   0  0  1  0  0  0  0  0  0  0  0  0
   27.2508  -21.5964  -10.3335 C   0  0  0  0  0  0  0  0  0  0  0  0
   27.1726  -20.6825   -9.1978 C   0  0  0  0  0  0  0  0  0  0  0  0
   26.1789  -19.7294   -9.0257 C   0  0  0  0  0  0  0  0  0  0  0  0
   26.4182  -19.0358   -7.8867 N   0  0  0  0  0  0  0  0  0  0  0  0
   27.5461  -19.5098   -7.3028 C   0  0  0  0  0  0  0  0  0  0  0  0
   28.2284  -19.1938   -6.1503 C   0  0  0  0  0  0  0  0  0  0  0  0
   29.3752  -19.8497   -5.7468 C   0  0  0  0  0  0  0  0  0  0  0  0
   29.8382  -20.8649   -6.5545 C   0  0  0  0  0  0  0  0  0  0  0  0
   29.1707  -21.1962   -7.7123 C   0  0  0  0  0  0  0  0  0  0  0  0
   28.0175  -20.5403   -8.1236 C   0  0  0  0  0  0  0  0  0  0  0  0
   24.9675  -20.9104  -11.0837 C   0  0  0  0  0  0  0  0  0  0  0  0
   23.9731  -21.6871  -10.5142 O   0  0  0  0  0  0  0  0  0  0  0  0
   24.6329  -19.6900  -11.2898 O   0  0  0  0  0  0  0  0  0  0  0  0
  2  1  1  0
  2  4  1  0
  3  2  2  0
  4  5  1  0
  5  6  1  6
  7  8  2  0
  7  5  1  0
 10  9  1  0
 10 11  2  0
 13 12  1  6
 12 10  1  0
 13 14  1  0
 14  7  1  0
 15 13  1  0
 16 15  2  0
 17 15  1  0
 18 17  1  0
 18 19  1  1
 19 20  1  0
 20 28  1  0
 21 20  2  0
 21 22  1  0
 22 23  1  0
 23 24  1  0
 24 25  2  0
 26 25  1  0
 27 26  2  0
 28 23  2  0
 28 27  1  0
 29 30  1  0
 29 18  1  0
 31 29  2  0
M  END
$$$$
