NNW.pdb
     RDKit          3D

 31 32  0  0  1  0  0  0  0  0999 V2000
   18.6704  -20.4416  -17.7955 N   0  0  0  0  0  0  0  0  0  0  0  0
   18.3348  -19.9209  -19.0661 C   0  0  0  0  0  0  0  0  0  0  0  0
   17.6729  -20.6190  -19.8588 O   0  0  0  0  0  0  0  0  0  0  0  0
   18.7702  -18.5657  -19.4321 C   0  0  0  0  0  0  0  0  0  0  0  0
   19.5229  -17.8824  -18.2901 C   0  0  2  0  0  0  0  0  0  0  0  0
   18.6257  -17.5334  -17.2144 N   0  0  0  0  0  0  0  0  0  0  0  0
   20.2123  -16.7111  -18.8556 C   0  0  0  0  0  0  0  0  0  0  0  0
   21.0585  -16.8935  -19.7677 O   0  0  0  0  0  0  0  0  0  0  0  0
   17.3427  -13.2536  -20.1027 N   0  0  0  0  0  0  0  0  0  0  0  0
   18.7389  -13.4148  -20.2589 C   0  0  0  0  0  0  0  0  0  0  0  0
   19.1869  -13.8049  -21.3703 O   0  0  0  0  0  0  0  0  0  0  0  0
   19.6834  -13.1322  -19.1379 C   0  0  0  0  0  0  0  0  0  0  0  0
   20.6343  -14.2865  -18.9224 C   0  0  2  0  0  0  0  0  0  0  0  0
   19.9237  -15.4082  -18.3770 N   0  0  0  0  0  0  0  0  0  0  0  0
   21.7156  -13.8234  -18.0013 C   0  0  0  0  0  0  0  0  0  0  0  0
   21.4220  -13.5408  -16.8171 O   0  0  0  0  0  0  0  0  0  0  0  0
   23.0575  -13.6888  -18.4105 N   0  0  0  0  0  0  0  0  0  0  0  0
   24.1607  -13.2675  -17.5492 C   0  0  1  0  0  0  0  0  0  0  0  0
   25.4394  -13.8838  -17.9786 C   0  0  0  0  0  0  0  0  0  0  0  0
   26.6541  -13.4446  -17.2983 C   0  0  0  0  0  0  0  0  0  0  0  0
   27.0592  -13.8942  -16.0495 C   0  0  0  0  0  0  0  0  0  0  0  0
   28.2097  -13.2688  -15.7016 N   0  0  0  0  0  0  0  0  0  0  0  0
   28.5734  -12.4177  -16.6922 C   0  0  0  0  0  0  0  0  0  0  0  0
   29.6366  -11.5626  -16.8722 C   0  0  0  0  0  0  0  0  0  0  0  0
   29.8031  -10.7919  -18.0063 C   0  0  0  0  0  0  0  0  0  0  0  0
   28.8449  -10.9021  -18.9898 C   0  0  0  0  0  0  0  0  0  0  0  0
   27.7730  -11.7513  -18.8290 C   0  0  0  0  0  0  0  0  0  0  0  0
   27.5998  -12.5284  -17.6910 C   0  0  0  0  0  0  0  0  0  0  0  0
   24.1467  -11.8019  -17.4874 C   0  0  0  0  0  0  0  0  0  0  0  0
   24.4671  -11.0284  -16.3851 O   0  0  0  0  0  0  0  0  0  0  0  0
   23.8066  -11.1296  -18.5248 O   0  0  0  0  0  0  0  0  0  0  0  0
  2  1  1  0
  2  4  1  0
  3  2  2  0
  4  5  1  0
  5  6  1  1
  7  8  2  0
  7  5  1  0
 10  9  1  0
 10 11  2  0
 13 12  1  1
 12 10  1  0
 13 14  1  0
 14  7  1  0
 15 13  1  0
 16 15  2  0
 17 15  1  0
 18 17  1  0
 18 19  1  6
 19 20  1  0
 20 28  1  0
 21 20  2  0
 21 22  1  0
 22 23  1  0
 23 24  1  0
 24 25  2  0
 26 25  1  0
 27 26  2  0
 28 23  2  0
 28 27  1  0
 29 30  1  0
 29 18  1  0
 31 29  2  0
M  END
$$$$
