NNW.pdb
     RDKit          3D

 31 32  0  0  1  0  0  0  0  0999 V2000
   21.5810  -18.5180  -16.4161 N   0  0  0  0  0  0  0  0  0  0  0  0
   22.4458  -19.3893  -17.1171 C   0  0  0  0  0  0  0  0  0  0  0  0
   22.1738  -19.7084  -18.2910 O   0  0  0  0  0  0  0  0  0  0  0  0
   23.6511  -19.9041  -16.4521 C   0  0  0  0  0  0  0  0  0  0  0  0
   23.7360  -19.4472  -14.9955 C   0  0  2  0  0  0  0  0  0  0  0  0
   23.9630  -18.0240  -14.9118 N   0  0  0  0  0  0  0  0  0  0  0  0
   24.8025  -20.2300  -14.3498 C   0  0  0  0  0  0  0  0  0  0  0  0
   24.7083  -21.4839  -14.3432 O   0  0  0  0  0  0  0  0  0  0  0  0
   28.4347  -18.1628  -15.2737 N   0  0  0  0  0  0  0  0  0  0  0  0
   28.3660  -19.5124  -14.8569 C   0  0  0  0  0  0  0  0  0  0  0  0
   28.3801  -20.4213  -15.7296 O   0  0  0  0  0  0  0  0  0  0  0  0
   28.2782  -19.8751  -13.4114 C   0  0  0  0  0  0  0  0  0  0  0  0
   26.8919  -20.3586  -13.0542 C   0  0  2  0  0  0  0  0  0  0  0  0
   25.9088  -19.5774  -13.7499 N   0  0  0  0  0  0  0  0  0  0  0  0
   26.7342  -20.2436  -11.5730 C   0  0  0  0  0  0  0  0  0  0  0  0
   27.1554  -19.2140  -10.9977 O   0  0  0  0  0  0  0  0  0  0  0  0
   26.1305  -21.2495  -10.7920 N   0  0  0  0  0  0  0  0  0  0  0  0
   25.7770  -21.1185   -9.3798 C   0  0  1  0  0  0  0  0  0  0  0  0
   26.4797  -19.9705   -8.7571 C   0  0  0  0  0  0  0  0  0  0  0  0
   27.7366  -20.2502   -8.0693 C   0  0  0  0  0  0  0  0  0  0  0  0
   28.7983  -20.9466   -8.6291 C   0  0  0  0  0  0  0  0  0  0  0  0
   29.7942  -21.0515   -7.7164 N   0  0  0  0  0  0  0  0  0  0  0  0
   29.4145  -20.4397   -6.5678 C   0  0  0  0  0  0  0  0  0  0  0  0
   30.0229  -20.2342   -5.3506 C   0  0  0  0  0  0  0  0  0  0  0  0
   29.4247  -19.5459   -4.3131 C   0  0  0  0  0  0  0  0  0  0  0  0
   28.1578  -19.0514   -4.5321 C   0  0  0  0  0  0  0  0  0  0  0  0
   27.5312  -19.2467   -5.7426 C   0  0  0  0  0  0  0  0  0  0  0  0
   28.1272  -19.9383   -6.7894 C   0  0  0  0  0  0  0  0  0  0  0  0
   24.3134  -21.1001   -9.2838 C   0  0  0  0  0  0  0  0  0  0  0  0
   23.5581  -21.5891   -8.2318 O   0  0  0  0  0  0  0  0  0  0  0  0
   23.6242  -20.5999  -10.2423 O   0  0  0  0  0  0  0  0  0  0  0  0
  2  1  1  0
  2  4  1  0
  3  2  2  0
  4  5  1  0
  5  6  1  6
  7  8  2  0
  7  5  1  0
 10  9  1  0
 10 11  2  0
 13 12  1  1
 12 10  1  0
 13 14  1  0
 14  7  1  0
 15 13  1  0
 16 15  2  0
 17 15  1  0
 18 17  1  0
 18 19  1  6
 19 20  1  0
 20 28  1  0
 21 20  2  0
 21 22  1  0
 22 23  1  0
 23 24  1  0
 24 25  2  0
 26 25  1  0
 27 26  2  0
 28 23  2  0
 28 27  1  0
 29 30  1  0
 29 18  1  0
 31 29  2  0
M  END
$$$$
