NNW.pdb
     RDKit          3D

 31 32  0  0  1  0  0  0  0  0999 V2000
   30.3735  -24.4277  -19.1629 N   0  0  0  0  0  0  0  0  0  0  0  0
   31.0933  -23.2342  -18.9264 C   0  0  0  0  0  0  0  0  0  0  0  0
   32.2357  -23.1024  -19.4075 O   0  0  0  0  0  0  0  0  0  0  0  0
   30.4841  -22.1682  -18.1187 C   0  0  0  0  0  0  0  0  0  0  0  0
   29.1621  -22.6139  -17.4931 C   0  0  2  0  0  0  0  0  0  0  0  0
   28.0901  -22.5658  -18.4587 N   0  0  0  0  0  0  0  0  0  0  0  0
   28.9135  -21.7504  -16.3270 C   0  0  0  0  0  0  0  0  0  0  0  0
   29.6955  -21.8256  -15.3452 O   0  0  0  0  0  0  0  0  0  0  0  0
   26.9256  -18.3218  -13.0678 N   0  0  0  0  0  0  0  0  0  0  0  0
   26.9111  -17.7926  -14.3792 C   0  0  0  0  0  0  0  0  0  0  0  0
   26.6915  -16.5619  -14.5374 O   0  0  0  0  0  0  0  0  0  0  0  0
   27.1505  -18.6610  -15.5696 C   0  0  0  0  0  0  0  0  0  0  0  0
   27.5730  -20.0510  -15.1539 C   0  0  2  0  0  0  0  0  0  0  0  0
   27.8136  -20.8559  -16.3179 N   0  0  0  0  0  0  0  0  0  0  0  0
   26.4854  -20.6260  -14.3063 C   0  0  0  0  0  0  0  0  0  0  0  0
   25.3583  -20.8194  -14.8169 O   0  0  0  0  0  0  0  0  0  0  0  0
   26.6741  -20.9600  -12.9501 N   0  0  0  0  0  0  0  0  0  0  0  0
   25.7000  -21.6576  -12.1129 C   0  0  1  0  0  0  0  0  0  0  0  0
   26.3257  -22.1488  -10.8612 C   0  0  0  0  0  0  0  0  0  0  0  0
   26.4545  -21.1980   -9.7611 C   0  0  0  0  0  0  0  0  0  0  0  0
   25.4539  -20.3246   -9.3588 C   0  0  0  0  0  0  0  0  0  0  0  0
   25.9094  -19.5664   -8.3324 N   0  0  0  0  0  0  0  0  0  0  0  0
   27.1868  -19.9199   -8.0476 C   0  0  0  0  0  0  0  0  0  0  0  0
   28.1068  -19.5002   -7.1142 C   0  0  0  0  0  0  0  0  0  0  0  0
   29.3732  -20.0408   -7.0050 C   0  0  0  0  0  0  0  0  0  0  0  0
   29.7075  -21.0468   -7.8846 C   0  0  0  0  0  0  0  0  0  0  0  0
   28.8017  -21.4807   -8.8266 C   0  0  0  0  0  0  0  0  0  0  0  0
   27.5271  -20.9409   -8.9417 C   0  0  0  0  0  0  0  0  0  0  0  0
   24.5405  -20.7752  -11.9440 C   0  0  0  0  0  0  0  0  0  0  0  0
   23.2375  -21.1764  -11.7042 O   0  0  0  0  0  0  0  0  0  0  0  0
   24.6968  -19.5051  -12.0237 O   0  0  0  0  0  0  0  0  0  0  0  0
  2  1  1  0
  2  4  1  0
  3  2  2  0
  4  5  1  0
  5  6  1  6
  7  8  2  0
  7  5  1  0
 10  9  1  0
 10 11  2  0
 13 12  1  6
 12 10  1  0
 13 14  1  0
 14  7  1  0
 15 13  1  0
 16 15  2  0
 17 15  1  0
 18 17  1  0
 18 19  1  1
 19 20  1  0
 20 28  1  0
 21 20  2  0
 21 22  1  0
 22 23  1  0
 23 24  1  0
 24 25  2  0
 26 25  1  0
 27 26  2  0
 28 23  2  0
 28 27  1  0
 29 30  1  0
 29 18  1  0
 31 29  2  0
M  END
$$$$
