NNW.pdb
     RDKit          3D

 31 32  0  0  1  0  0  0  0  0999 V2000
   27.0367  -22.0173  -17.0550 N   0  0  0  0  0  0  0  0  0  0  0  0
   27.8427  -21.3374  -16.1135 C   0  0  0  0  0  0  0  0  0  0  0  0
   29.0488  -21.6352  -16.0113 O   0  0  0  0  0  0  0  0  0  0  0  0
   27.2471  -20.2906  -15.2712 C   0  0  0  0  0  0  0  0  0  0  0  0
   25.7202  -20.2966  -15.3513 C   0  0  2  0  0  0  0  0  0  0  0  0
   25.2512  -19.3794  -16.3626 N   0  0  0  0  0  0  0  0  0  0  0  0
   25.2075  -19.9718  -14.0100 C   0  0  0  0  0  0  0  0  0  0  0  0
   25.5160  -18.8646  -13.5001 O   0  0  0  0  0  0  0  0  0  0  0  0
   20.7822  -20.9919  -13.4698 N   0  0  0  0  0  0  0  0  0  0  0  0
   21.5151  -20.4371  -12.3952 C   0  0  0  0  0  0  0  0  0  0  0  0
   21.2381  -19.2709  -12.0063 O   0  0  0  0  0  0  0  0  0  0  0  0
   22.6026  -21.2044  -11.7189 C   0  0  0  0  0  0  0  0  0  0  0  0
   23.9536  -20.5805  -11.9807 C   0  0  2  0  0  0  0  0  0  0  0  0
   24.3846  -20.8927  -13.3140 N   0  0  0  0  0  0  0  0  0  0  0  0
   24.9077  -21.1086  -10.9595 C   0  0  0  0  0  0  0  0  0  0  0  0
   25.3692  -22.2640  -11.1028 O   0  0  0  0  0  0  0  0  0  0  0  0
   25.3109  -20.3594   -9.8360 N   0  0  0  0  0  0  0  0  0  0  0  0
   26.1557  -20.8579   -8.7523 C   0  0  1  0  0  0  0  0  0  0  0  0
   27.2714  -19.9223   -8.4708 C   0  0  0  0  0  0  0  0  0  0  0  0
   28.1949  -20.2869   -7.4006 C   0  0  0  0  0  0  0  0  0  0  0  0
   29.0986  -21.3378   -7.4694 C   0  0  0  0  0  0  0  0  0  0  0  0
   29.7810  -21.4167   -6.3015 N   0  0  0  0  0  0  0  0  0  0  0  0
   29.3492  -20.4419   -5.4643 C   0  0  0  0  0  0  0  0  0  0  0  0
   29.6957  -20.0575   -4.1891 C   0  0  0  0  0  0  0  0  0  0  0  0
   29.1097  -18.9909   -3.5356 C   0  0  0  0  0  0  0  0  0  0  0  0
   28.1337  -18.2947   -4.2142 C   0  0  0  0  0  0  0  0  0  0  0  0
   27.7719  -18.6636   -5.4905 C   0  0  0  0  0  0  0  0  0  0  0  0
   28.3570  -19.7352   -6.1527 C   0  0  0  0  0  0  0  0  0  0  0  0
   25.2854  -21.1752   -7.6150 C   0  0  0  0  0  0  0  0  0  0  0  0
   25.5098  -22.1559   -6.6641 O   0  0  0  0  0  0  0  0  0  0  0  0
   24.2001  -20.5136   -7.4468 O   0  0  0  0  0  0  0  0  0  0  0  0
  2  1  1  0
  2  4  1  0
  3  2  2  0
  4  5  1  0
  5  6  1  6
  7  8  2  0
  7  5  1  0
 10  9  1  0
 10 11  2  0
 13 12  1  1
 12 10  1  0
 13 14  1  0
 14  7  1  0
 15 13  1  0
 16 15  2  0
 17 15  1  0
 18 17  1  0
 18 19  1  1
 19 20  1  0
 20 28  1  0
 21 20  2  0
 21 22  1  0
 22 23  1  0
 23 24  1  0
 24 25  2  0
 26 25  1  0
 27 26  2  0
 28 23  2  0
 28 27  1  0
 29 30  1  0
 29 18  1  0
 31 29  2  0
M  END
$$$$
