NNW.pdb
     RDKit          3D

 31 32  0  0  1  0  0  0  0  0999 V2000
   15.9855  -24.9523   -0.3654 N   0  0  0  0  0  0  0  0  0  0  0  0
   16.0386  -23.5463   -0.5016 C   0  0  0  0  0  0  0  0  0  0  0  0
   16.4696  -23.0493   -1.5605 O   0  0  0  0  0  0  0  0  0  0  0  0
   15.5847  -22.6930    0.6056 C   0  0  0  0  0  0  0  0  0  0  0  0
   15.1110  -23.5185    1.8022 C   0  0  2  0  0  0  0  0  0  0  0  0
   13.7431  -23.9454    1.6277 N   0  0  0  0  0  0  0  0  0  0  0  0
   15.2980  -22.6942    3.0076 C   0  0  0  0  0  0  0  0  0  0  0  0
   14.6221  -21.6405    3.1264 O   0  0  0  0  0  0  0  0  0  0  0  0
   15.3954  -21.1190    7.4956 N   0  0  0  0  0  0  0  0  0  0  0  0
   15.9428  -22.4193    7.5936 C   0  0  0  0  0  0  0  0  0  0  0  0
   15.9414  -22.9984    8.7127 O   0  0  0  0  0  0  0  0  0  0  0  0
   16.5171  -23.1117    6.4022 C   0  0  0  0  0  0  0  0  0  0  0  0
   16.4004  -22.2533    5.1643 C   0  0  2  0  0  0  0  0  0  0  0  0
   16.2223  -23.0860    4.0086 N   0  0  0  0  0  0  0  0  0  0  0  0
   17.6425  -21.4297    5.0591 C   0  0  0  0  0  0  0  0  0  0  0  0
   18.7050  -21.9813    4.6912 O   0  0  0  0  0  0  0  0  0  0  0  0
   17.6700  -20.0530    5.3592 N   0  0  0  0  0  0  0  0  0  0  0  0
   18.8276  -19.1777    5.1852 C   0  0  1  0  0  0  0  0  0  0  0  0
   18.5178  -18.0589    4.2623 C   0  0  0  0  0  0  0  0  0  0  0  0
   18.6802  -18.3078    2.8331 C   0  0  0  0  0  0  0  0  0  0  0  0
   17.6938  -18.8365    2.0125 C   0  0  0  0  0  0  0  0  0  0  0  0
   18.1802  -18.9621    0.7541 N   0  0  0  0  0  0  0  0  0  0  0  0
   19.4640  -18.5278    0.7252 C   0  0  0  0  0  0  0  0  0  0  0  0
   20.4111  -18.4170   -0.2670 C   0  0  0  0  0  0  0  0  0  0  0  0
   21.6786  -17.9128   -0.0493 C   0  0  0  0  0  0  0  0  0  0  0  0
   21.9850  -17.5087    1.2314 C   0  0  0  0  0  0  0  0  0  0  0  0
   21.0519  -17.6118    2.2387 C   0  0  0  0  0  0  0  0  0  0  0  0
   19.7761  -18.1183    2.0262 C   0  0  0  0  0  0  0  0  0  0  0  0
   19.3034  -18.7932    6.5185 C   0  0  0  0  0  0  0  0  0  0  0  0
   20.5978  -18.4315    6.8503 O   0  0  0  0  0  0  0  0  0  0  0  0
   18.4820  -18.7817    7.5028 O   0  0  0  0  0  0  0  0  0  0  0  0
  2  1  1  0
  2  4  1  0
  3  2  2  0
  4  5  1  0
  5  6  1  6
  7  8  2  0
  7  5  1  0
 10  9  1  0
 10 11  2  0
 13 12  1  1
 12 10  1  0
 13 14  1  0
 14  7  1  0
 15 13  1  0
 16 15  2  0
 17 15  1  0
 18 17  1  0
 18 19  1  6
 19 20  1  0
 20 28  1  0
 21 20  2  0
 21 22  1  0
 22 23  1  0
 23 24  1  0
 24 25  2  0
 26 25  1  0
 27 26  2  0
 28 23  2  0
 28 27  1  0
 29 30  1  0
 29 18  1  0
 31 29  2  0
M  END
$$$$
