NNW.pdb
     RDKit          3D

 31 32  0  0  1  0  0  0  0  0999 V2000
   18.5824  -10.9652  -22.7494 N   0  0  0  0  0  0  0  0  0  0  0  0
   17.3787  -10.3058  -22.4107 C   0  0  0  0  0  0  0  0  0  0  0  0
   16.3988  -10.3878  -23.1767 O   0  0  0  0  0  0  0  0  0  0  0  0
   17.3011   -9.5352  -21.1615 C   0  0  0  0  0  0  0  0  0  0  0  0
   16.3819  -10.2025  -20.1380 C   0  0  2  0  0  0  0  0  0  0  0  0
   14.9969   -9.9013  -20.4121 N   0  0  0  0  0  0  0  0  0  0  0  0
   16.8069   -9.7498  -18.8033 C   0  0  0  0  0  0  0  0  0  0  0  0
   16.1350   -8.8552  -18.2294 O   0  0  0  0  0  0  0  0  0  0  0  0
   17.3805  -13.2410  -16.2173 N   0  0  0  0  0  0  0  0  0  0  0  0
   17.5541  -11.9463  -15.6753 C   0  0  0  0  0  0  0  0  0  0  0  0
   16.6949  -11.5039  -14.8667 O   0  0  0  0  0  0  0  0  0  0  0  0
   18.7297  -11.1023  -16.0420 C   0  0  0  0  0  0  0  0  0  0  0  0
   18.3058   -9.9020  -16.8561 C   0  0  2  0  0  0  0  0  0  0  0  0
   17.9505  -10.3146  -18.1844 N   0  0  0  0  0  0  0  0  0  0  0  0
   19.4429   -8.9331  -16.8699 C   0  0  0  0  0  0  0  0  0  0  0  0
   20.3748   -9.1052  -17.6887 O   0  0  0  0  0  0  0  0  0  0  0  0
   19.5128   -7.8298  -15.9957 N   0  0  0  0  0  0  0  0  0  0  0  0
   20.5292   -6.7806  -16.0459 C   0  0  1  0  0  0  0  0  0  0  0  0
   20.1764   -5.6515  -15.1515 C   0  0  0  0  0  0  0  0  0  0  0  0
   20.3447   -5.8586  -13.7163 C   0  0  0  0  0  0  0  0  0  0  0  0
   21.4066   -5.3642  -12.9722 C   0  0  0  0  0  0  0  0  0  0  0  0
   21.2708   -5.7597  -11.6835 N   0  0  0  0  0  0  0  0  0  0  0  0
   20.1437   -6.5028  -11.5598 C   0  0  0  0  0  0  0  0  0  0  0  0
   19.5261   -7.1297  -10.5018 C   0  0  0  0  0  0  0  0  0  0  0  0
   18.3417   -7.8296  -10.6248 C   0  0  0  0  0  0  0  0  0  0  0  0
   17.7713   -7.8887  -11.8772 C   0  0  0  0  0  0  0  0  0  0  0  0
   18.3736   -7.2689  -12.9491 C   0  0  0  0  0  0  0  0  0  0  0  0
   19.5646   -6.5640  -12.8320 C   0  0  0  0  0  0  0  0  0  0  0  0
   21.8327   -7.4071  -15.8006 C   0  0  0  0  0  0  0  0  0  0  0  0
   22.0481   -8.6333  -15.1954 O   0  0  0  0  0  0  0  0  0  0  0  0
   22.9030   -6.7975  -16.1566 O   0  0  0  0  0  0  0  0  0  0  0  0
  2  1  1  0
  2  4  1  0
  3  2  2  0
  4  5  1  0
  5  6  1  6
  7  8  2  0
  7  5  1  0
 10  9  1  0
 10 11  2  0
 13 12  1  1
 12 10  1  0
 13 14  1  0
 14  7  1  0
 15 13  1  0
 16 15  2  0
 17 15  1  0
 18 17  1  0
 18 19  1  1
 19 20  1  0
 20 28  1  0
 21 20  2  0
 21 22  1  0
 22 23  1  0
 23 24  1  0
 24 25  2  0
 26 25  1  0
 27 26  2  0
 28 23  2  0
 28 27  1  0
 29 30  1  0
 29 18  1  0
 31 29  2  0
M  END
$$$$
