NNW.pdb
     RDKit          3D

 31 32  0  0  1  0  0  0  0  0999 V2000
   26.7401  -25.4972  -18.9164 N   0  0  0  0  0  0  0  0  0  0  0  0
   25.9242  -25.2285  -17.7937 C   0  0  0  0  0  0  0  0  0  0  0  0
   24.7951  -25.7513  -17.7180 O   0  0  0  0  0  0  0  0  0  0  0  0
   26.4194  -24.3387  -16.7340 C   0  0  0  0  0  0  0  0  0  0  0  0
   27.8435  -23.8580  -17.0146 C   0  0  2  0  0  0  0  0  0  0  0  0
   28.7742  -24.9614  -17.0018 N   0  0  0  0  0  0  0  0  0  0  0  0
   28.1677  -22.8316  -16.0103 C   0  0  0  0  0  0  0  0  0  0  0  0
   29.3738  -22.6478  -15.7059 O   0  0  0  0  0  0  0  0  0  0  0  0
   28.6586  -18.4245  -13.6555 N   0  0  0  0  0  0  0  0  0  0  0  0
   27.4408  -18.4931  -14.3710 C   0  0  0  0  0  0  0  0  0  0  0  0
   26.6206  -17.5417  -14.2710 O   0  0  0  0  0  0  0  0  0  0  0  0
   27.1138  -19.6647  -15.2366 C   0  0  0  0  0  0  0  0  0  0  0  0
   27.4860  -20.9632  -14.5593 C   0  0  2  0  0  0  0  0  0  0  0  0
   27.1370  -22.0707  -15.4033 N   0  0  0  0  0  0  0  0  0  0  0  0
   26.7637  -21.0218  -13.2529 C   0  0  0  0  0  0  0  0  0  0  0  0
   25.5122  -21.0692  -13.2549 O   0  0  0  0  0  0  0  0  0  0  0  0
   27.4334  -21.0245  -12.0128 N   0  0  0  0  0  0  0  0  0  0  0  0
   26.7808  -21.0349  -10.7050 C   0  0  1  0  0  0  0  0  0  0  0  0
   27.7616  -20.8058   -9.6164 C   0  0  0  0  0  0  0  0  0  0  0  0
   27.2321  -20.6177   -8.2691 C   0  0  0  0  0  0  0  0  0  0  0  0
   25.9796  -21.0457   -7.8524 C   0  0  0  0  0  0  0  0  0  0  0  0
   25.7940  -20.6899   -6.5583 N   0  0  0  0  0  0  0  0  0  0  0  0
   26.8953  -20.0378   -6.1113 C   0  0  0  0  0  0  0  0  0  0  0  0
   27.2503  -19.4830   -4.9030 C   0  0  0  0  0  0  0  0  0  0  0  0
   28.4694  -18.8729   -4.6803 C   0  0  0  0  0  0  0  0  0  0  0  0
   29.3550  -18.8303   -5.7345 C   0  0  0  0  0  0  0  0  0  0  0  0
   29.0190  -19.3789   -6.9519 C   0  0  0  0  0  0  0  0  0  0  0  0
   27.7947  -19.9932   -7.1822 C   0  0  0  0  0  0  0  0  0  0  0  0
   25.6546  -20.0965  -10.7584 C   0  0  0  0  0  0  0  0  0  0  0  0
   25.6661  -18.8398  -11.3388 O   0  0  0  0  0  0  0  0  0  0  0  0
   24.5350  -20.4231  -10.2259 O   0  0  0  0  0  0  0  0  0  0  0  0
  2  1  1  0
  2  4  1  0
  3  2  2  0
  4  5  1  0
  5  6  1  1
  7  8  2  0
  7  5  1  0
 10  9  1  0
 10 11  2  0
 13 12  1  6
 12 10  1  0
 13 14  1  0
 14  7  1  0
 15 13  1  0
 16 15  2  0
 17 15  1  0
 18 17  1  0
 18 19  1  1
 19 20  1  0
 20 28  1  0
 21 20  2  0
 21 22  1  0
 22 23  1  0
 23 24  1  0
 24 25  2  0
 26 25  1  0
 27 26  2  0
 28 23  2  0
 28 27  1  0
 29 30  1  0
 29 18  1  0
 31 29  2  0
M  END
$$$$
