NNW.pdb
     RDKit          3D

 31 32  0  0  1  0  0  0  0  0999 V2000
   31.8556  -21.6664  -19.7808 N   0  0  0  0  0  0  0  0  0  0  0  0
   30.9714  -22.3868  -18.9457 C   0  0  0  0  0  0  0  0  0  0  0  0
   31.1433  -23.6106  -18.7826 O   0  0  0  0  0  0  0  0  0  0  0  0
   29.8648  -21.6824  -18.2827 C   0  0  0  0  0  0  0  0  0  0  0  0
   29.2707  -22.5057  -17.1395 C   0  0  2  0  0  0  0  0  0  0  0  0
   28.4712  -23.5952  -17.6471 N   0  0  0  0  0  0  0  0  0  0  0  0
   28.4988  -21.5850  -16.2887 C   0  0  0  0  0  0  0  0  0  0  0  0
   29.0644  -20.5484  -15.8566 O   0  0  0  0  0  0  0  0  0  0  0  0
   24.9653  -20.1980  -18.2711 N   0  0  0  0  0  0  0  0  0  0  0  0
   25.2527  -19.7435  -16.9631 C   0  0  0  0  0  0  0  0  0  0  0  0
   25.6590  -18.5613  -16.8042 O   0  0  0  0  0  0  0  0  0  0  0  0
   25.0835  -20.6341  -15.7770 C   0  0  0  0  0  0  0  0  0  0  0  0
   26.4161  -20.9509  -15.1391 C   0  0  2  0  0  0  0  0  0  0  0  0
   27.1473  -21.8677  -15.9671 N   0  0  0  0  0  0  0  0  0  0  0  0
   26.1510  -21.5273  -13.7865 C   0  0  0  0  0  0  0  0  0  0  0  0
   25.8253  -22.7331  -13.6957 O   0  0  0  0  0  0  0  0  0  0  0  0
   26.2506  -20.7680  -12.6033 N   0  0  0  0  0  0  0  0  0  0  0  0
   25.9422  -21.2585  -11.2614 C   0  0  1  0  0  0  0  0  0  0  0  0
   27.1063  -21.1048  -10.3555 C   0  0  0  0  0  0  0  0  0  0  0  0
   26.8574  -20.5190   -9.0417 C   0  0  0  0  0  0  0  0  0  0  0  0
   25.6403  -19.9888   -8.6378 C   0  0  0  0  0  0  0  0  0  0  0  0
   25.7599  -19.5065   -7.3773 N   0  0  0  0  0  0  0  0  0  0  0  0
   27.0272  -19.7071   -6.9399 C   0  0  0  0  0  0  0  0  0  0  0  0
   27.6832  -19.4362   -5.7608 C   0  0  0  0  0  0  0  0  0  0  0  0
   29.0074  -19.7618   -5.5405 C   0  0  0  0  0  0  0  0  0  0  0  0
   29.6822  -20.3867   -6.5660 C   0  0  0  0  0  0  0  0  0  0  0  0
   29.0443  -20.6661   -7.7539 C   0  0  0  0  0  0  0  0  0  0  0  0
   27.7133  -20.3409   -7.9817 C   0  0  0  0  0  0  0  0  0  0  0  0
   24.7008  -20.6120  -10.8220 C   0  0  0  0  0  0  0  0  0  0  0  0
   23.8410  -21.0770   -9.8418 O   0  0  0  0  0  0  0  0  0  0  0  0
   24.3320  -19.5142  -11.3720 O   0  0  0  0  0  0  0  0  0  0  0  0
  2  1  1  0
  2  4  1  0
  3  2  2  0
  4  5  1  0
  5  6  1  6
  7  8  2  0
  7  5  1  0
 10  9  1  0
 10 11  2  0
 13 12  1  6
 12 10  1  0
 13 14  1  0
 14  7  1  0
 15 13  1  0
 16 15  2  0
 17 15  1  0
 18 17  1  0
 18 19  1  1
 19 20  1  0
 20 28  1  0
 21 20  2  0
 21 22  1  0
 22 23  1  0
 23 24  1  0
 24 25  2  0
 26 25  1  0
 27 26  2  0
 28 23  2  0
 28 27  1  0
 29 30  1  0
 29 18  1  0
 31 29  2  0
M  END
$$$$
