FPY.pdb
     RDKit          3D

 31 33  0  0  1  0  0  0  0  0999 V2000
    5.5527  -17.8263   25.1400 N   0  0  0  0  0  0  0  0  0  0  0  0
    6.1724  -16.5098   25.0352 C   0  0  1  0  0  0  0  0  0  0  0  0
    6.4911  -15.9839   26.4265 C   0  0  0  0  0  0  0  0  0  0  0  0
    6.4925  -14.5131   26.4708 C   0  0  0  0  0  0  0  0  0  0  0  0
    7.6609  -13.7882   26.5310 C   0  0  0  0  0  0  0  0  0  0  0  0
    7.6291  -12.4061   26.5729 C   0  0  0  0  0  0  0  0  0  0  0  0
    6.4176  -11.7259   26.5549 C   0  0  0  0  0  0  0  0  0  0  0  0
    5.2407  -12.4427   26.4946 C   0  0  0  0  0  0  0  0  0  0  0  0
    5.3056  -13.8210   26.4539 C   0  0  0  0  0  0  0  0  0  0  0  0
    7.3974  -16.5504   24.2266 C   0  0  0  0  0  0  0  0  0  0  0  0
    8.3370  -17.3275   24.5269 O   0  0  0  0  0  0  0  0  0  0  0  0
    7.6083  -15.7218   23.0526 N   0  0  0  0  0  0  0  0  0  0  0  0
    6.5734  -14.9899   22.3500 C   0  0  0  0  0  0  0  0  0  0  0  0
    7.3102  -13.6750   22.0545 C   0  0  0  0  0  0  0  0  0  0  0  0
    8.6160  -14.2814   21.5069 C   0  0  0  0  0  0  0  0  0  0  0  0
    8.8334  -15.5225   22.3393 C   0  0  1  0  0  0  0  0  0  0  0  0
   10.0356  -15.3670   23.1981 C   0  0  0  0  0  0  0  0  0  0  0  0
   10.3330  -14.3245   23.7862 O   0  0  0  0  0  0  0  0  0  0  0  0
   10.1597  -14.2763   29.5499 O   0  0  0  0  0  0  0  0  0  0  0  0
   10.6824  -14.9699   28.4904 C   0  0  0  0  0  0  0  0  0  0  0  0
   10.0234  -16.0633   27.9959 C   0  0  0  0  0  0  0  0  0  0  0  0
   10.5283  -16.7802   26.9291 C   0  0  0  0  0  0  0  0  0  0  0  0
   11.7062  -16.4340   26.3177 C   0  0  0  0  0  0  0  0  0  0  0  0
   12.2718  -17.1837   25.1746 C   0  0  0  0  0  0  0  0  0  0  0  0
   12.2483  -16.3515   23.8894 C   0  0  2  0  0  0  0  0  0  0  0  0
   10.9003  -16.4859   23.3557 N   0  0  0  0  0  0  0  0  0  0  0  0
   13.1704  -17.0110   22.9297 C   0  0  0  0  0  0  0  0  0  0  0  0
   12.7108  -17.7406   22.0024 O   0  0  0  0  0  0  0  0  0  0  0  0
   12.3748  -15.3202   26.8235 C   0  0  0  0  0  0  0  0  0  0  0  0
   11.8690  -14.6056   27.8887 C   0  0  0  0  0  0  0  0  0  0  0  0
   14.5503  -16.8748   22.9854 O   0  0  0  0  0  0  0  0  0  0  0  0
  2 10  1  0
  2  1  1  1
  3  2  1  0
  4  3  1  0
  4  5  2  0
  6  5  1  0
  7  6  2  0
  8  9  2  0
  8  7  1  0
  9  4  1  0
 10 12  1  0
 11 10  2  0
 12 16  1  0
 12 13  1  0
 13 14  1  0
 15 14  1  0
 16 15  1  0
 16 17  1  1
 18 17  2  0
 20 21  2  0
 20 19  1  0
 22 21  1  0
 23 22  2  0
 24 23  1  0
 25 24  1  1
 25 27  1  0
 25 26  1  0
 26 17  1  0
 27 31  1  0
 28 27  2  0
 29 23  1  0
 29 30  2  0
 30 20  1  0
M  END
$$$$
