FPY.pdb
     RDKit          3D

 31 33  0  0  1  0  0  0  0  0999 V2000
    5.8983  -17.9451   25.2519 N   0  0  0  0  0  0  0  0  0  0  0  0
    6.3769  -16.5770   25.0860 C   0  0  1  0  0  0  0  0  0  0  0  0
    6.6113  -15.9495   26.4517 C   0  0  0  0  0  0  0  0  0  0  0  0
    6.4373  -14.4887   26.4223 C   0  0  0  0  0  0  0  0  0  0  0  0
    5.1943  -13.9059   26.3241 C   0  0  0  0  0  0  0  0  0  0  0  0
    5.0637  -12.5293   26.2975 C   0  0  0  0  0  0  0  0  0  0  0  0
    6.1846  -11.7112   26.3694 C   0  0  0  0  0  0  0  0  0  0  0  0
    7.4350  -12.2850   26.4681 C   0  0  0  0  0  0  0  0  0  0  0  0
    7.5324  -13.6617   26.4923 C   0  0  0  0  0  0  0  0  0  0  0  0
    7.6146  -16.5278   24.2975 C   0  0  0  0  0  0  0  0  0  0  0  0
    8.6000  -17.2416   24.6079 O   0  0  0  0  0  0  0  0  0  0  0  0
    7.7873  -15.6774   23.1329 N   0  0  0  0  0  0  0  0  0  0  0  0
    6.7283  -14.9420   22.4712 C   0  0  0  0  0  0  0  0  0  0  0  0
    7.4466  -13.6162   22.1791 C   0  0  0  0  0  0  0  0  0  0  0  0
    8.7418  -14.2023   21.5860 C   0  0  0  0  0  0  0  0  0  0  0  0
    8.9911  -15.4558   22.3905 C   0  0  1  0  0  0  0  0  0  0  0  0
   10.2149  -15.3053   23.2193 C   0  0  0  0  0  0  0  0  0  0  0  0
   10.4866  -14.2939   23.8708 O   0  0  0  0  0  0  0  0  0  0  0  0
   10.0472  -14.3756   29.5537 O   0  0  0  0  0  0  0  0  0  0  0  0
   10.5894  -15.0615   28.4990 C   0  0  0  0  0  0  0  0  0  0  0  0
   11.5903  -14.4950   27.7561 C   0  0  0  0  0  0  0  0  0  0  0  0
   12.1540  -15.1644   26.6879 C   0  0  0  0  0  0  0  0  0  0  0  0
   11.7414  -16.4203   26.3221 C   0  0  0  0  0  0  0  0  0  0  0  0
   12.3256  -17.1606   25.1822 C   0  0  0  0  0  0  0  0  0  0  0  0
   12.4244  -16.2816   23.9323 C   0  0  2  0  0  0  0  0  0  0  0  0
   11.1331  -16.3911   23.2685 N   0  0  0  0  0  0  0  0  0  0  0  0
   13.4332  -16.9089   23.0405 C   0  0  0  0  0  0  0  0  0  0  0  0
   13.3185  -18.1239   22.7032 O   0  0  0  0  0  0  0  0  0  0  0  0
   10.7223  -16.9943   27.0806 C   0  0  0  0  0  0  0  0  0  0  0  0
   10.1607  -16.3244   28.1468 C   0  0  0  0  0  0  0  0  0  0  0  0
   14.5310  -16.2261   22.5359 O   0  0  0  0  0  0  0  0  0  0  0  0
  2 10  1  0
  2  1  1  1
  3  2  1  0
  4  3  1  0
  4  5  2  0
  6  5  1  0
  7  6  2  0
  8  9  2  0
  8  7  1  0
  9  4  1  0
 10 12  1  0
 11 10  2  0
 12 16  1  0
 12 13  1  0
 13 14  1  0
 15 14  1  0
 16 15  1  0
 16 17  1  1
 18 17  2  0
 20 21  2  0
 20 19  1  0
 22 21  1  0
 23 22  2  0
 24 23  1  0
 25 24  1  1
 25 27  1  0
 25 26  1  0
 26 17  1  0
 27 31  1  0
 28 27  2  0
 29 23  1  0
 29 30  2  0
 30 20  1  0
M  END
$$$$
