FPY.pdb
     RDKit          3D

 31 33  0  0  1  0  0  0  0  0999 V2000
    5.9618  -19.3224   20.2391 N   0  0  0  0  0  0  0  0  0  0  0  0
    5.7454  -17.9540   20.6962 C   0  0  1  0  0  0  0  0  0  0  0  0
    4.6579  -17.9375   21.7597 C   0  0  0  0  0  0  0  0  0  0  0  0
    3.4074  -18.5439   21.2761 C   0  0  0  0  0  0  0  0  0  0  0  0
    2.8059  -19.5931   21.9332 C   0  0  0  0  0  0  0  0  0  0  0  0
    1.6311  -20.1424   21.4527 C   0  0  0  0  0  0  0  0  0  0  0  0
    1.0381  -19.6448   20.2987 C   0  0  0  0  0  0  0  0  0  0  0  0
    1.6326  -18.5935   19.6325 C   0  0  0  0  0  0  0  0  0  0  0  0
    2.8045  -18.0670   20.1372 C   0  0  0  0  0  0  0  0  0  0  0  0
    6.9762  -17.3616   21.2348 C   0  0  0  0  0  0  0  0  0  0  0  0
    7.8364  -18.0789   21.8026 O   0  0  0  0  0  0  0  0  0  0  0  0
    7.2840  -15.9447   21.1525 N   0  0  0  0  0  0  0  0  0  0  0  0
    6.7004  -15.0168   20.2045 C   0  0  0  0  0  0  0  0  0  0  0  0
    6.4812  -13.7935   21.1069 C   0  0  0  0  0  0  0  0  0  0  0  0
    7.8727  -13.7639   21.7669 C   0  0  0  0  0  0  0  0  0  0  0  0
    8.2452  -15.2186   21.9261 C   0  0  1  0  0  0  0  0  0  0  0  0
    8.2933  -15.5873   23.3645 C   0  0  0  0  0  0  0  0  0  0  0  0
    7.2943  -15.8027   24.0550 O   0  0  0  0  0  0  0  0  0  0  0  0
    9.7133  -20.0852   30.4095 O   0  0  0  0  0  0  0  0  0  0  0  0
    9.5855  -19.4901   29.1822 C   0  0  0  0  0  0  0  0  0  0  0  0
   10.5554  -19.6657   28.2320 C   0  0  0  0  0  0  0  0  0  0  0  0
   10.4514  -19.0771   26.9871 C   0  0  0  0  0  0  0  0  0  0  0  0
    9.3789  -18.2936   26.6448 C   0  0  0  0  0  0  0  0  0  0  0  0
    9.2414  -17.6495   25.3201 C   0  0  0  0  0  0  0  0  0  0  0  0
    9.7188  -16.1948   25.3499 C   0  0  2  0  0  0  0  0  0  0  0  0
    9.5668  -15.7005   23.9888 N   0  0  0  0  0  0  0  0  0  0  0  0
   11.1736  -16.2227   25.6490 C   0  0  0  0  0  0  0  0  0  0  0  0
   11.5840  -16.0560   26.8352 O   0  0  0  0  0  0  0  0  0  0  0  0
    8.3931  -18.1168   27.6145 C   0  0  0  0  0  0  0  0  0  0  0  0
    8.4987  -18.7053   28.8568 C   0  0  0  0  0  0  0  0  0  0  0  0
   12.1452  -16.4265   24.6793 O   0  0  0  0  0  0  0  0  0  0  0  0
  2 10  1  0
  2  1  1  1
  3  2  1  0
  4  3  1  0
  4  5  2  0
  6  5  1  0
  7  6  2  0
  8  9  2  0
  8  7  1  0
  9  4  1  0
 10 12  1  0
 11 10  2  0
 12 16  1  0
 12 13  1  0
 13 14  1  0
 15 14  1  0
 16 15  1  0
 16 17  1  1
 18 17  2  0
 20 21  2  0
 20 19  1  0
 22 21  1  0
 23 22  2  0
 24 23  1  0
 25 24  1  6
 25 27  1  0
 25 26  1  0
 26 17  1  0
 27 31  1  0
 28 27  2  0
 29 23  1  0
 29 30  2  0
 30 20  1  0
M  END
$$$$
