FPY.pdb
     RDKit          3D

 31 33  0  0  1  0  0  0  0  0999 V2000
   10.1182  -15.0018   22.4677 N   0  0  0  0  0  0  0  0  0  0  0  0
    9.4667  -14.4524   23.6517 C   0  0  1  0  0  0  0  0  0  0  0  0
    7.9594  -14.4445   23.4469 C   0  0  0  0  0  0  0  0  0  0  0  0
    7.2624  -13.7242   24.5242 C   0  0  0  0  0  0  0  0  0  0  0  0
    7.2618  -12.3498   24.5986 C   0  0  0  0  0  0  0  0  0  0  0  0
    6.5982  -11.7019   25.6246 C   0  0  0  0  0  0  0  0  0  0  0  0
    5.9210  -12.4270   26.5975 C   0  0  0  0  0  0  0  0  0  0  0  0
    5.9153  -13.8047   26.5324 C   0  0  0  0  0  0  0  0  0  0  0  0
    6.5868  -14.4219   25.4962 C   0  0  0  0  0  0  0  0  0  0  0  0
    9.8002  -15.2192   24.8587 C   0  0  0  0  0  0  0  0  0  0  0  0
    9.7999  -16.4747   24.8397 O   0  0  0  0  0  0  0  0  0  0  0  0
   10.1472  -14.6027   26.1270 N   0  0  0  0  0  0  0  0  0  0  0  0
   10.1110  -13.1802   26.4020 C   0  0  0  0  0  0  0  0  0  0  0  0
    9.5203  -13.1827   27.8197 C   0  0  0  0  0  0  0  0  0  0  0  0
   10.4290  -14.2684   28.4267 C   0  0  0  0  0  0  0  0  0  0  0  0
   10.6421  -15.2535   27.3022 C   0  0  1  0  0  0  0  0  0  0  0  0
    9.9888  -16.5500   27.6177 C   0  0  0  0  0  0  0  0  0  0  0  0
    8.7672  -16.7144   27.6602 O   0  0  0  0  0  0  0  0  0  0  0  0
   14.9433  -19.3304   23.9193 O   0  0  0  0  0  0  0  0  0  0  0  0
   13.7928  -19.4300   24.6562 C   0  0  0  0  0  0  0  0  0  0  0  0
   12.5844  -19.5559   24.0251 C   0  0  0  0  0  0  0  0  0  0  0  0
   11.4097  -19.6579   24.7439 C   0  0  0  0  0  0  0  0  0  0  0  0
   11.3969  -19.6379   26.1153 C   0  0  0  0  0  0  0  0  0  0  0  0
   10.1544  -19.7437   26.9114 C   0  0  0  0  0  0  0  0  0  0  0  0
   10.2658  -18.9767   28.2320 C   0  0  2  0  0  0  0  0  0  0  0  0
   10.8180  -17.6742   27.8878 N   0  0  0  0  0  0  0  0  0  0  0  0
   11.2798  -19.6813   29.0577 C   0  0  0  0  0  0  0  0  0  0  0  0
   12.3979  -19.1370   29.2963 O   0  0  0  0  0  0  0  0  0  0  0  0
   12.6289  -19.5096   26.7549 C   0  0  0  0  0  0  0  0  0  0  0  0
   13.8006  -19.4080   26.0355 C   0  0  0  0  0  0  0  0  0  0  0  0
   11.0741  -20.9407   29.6031 O   0  0  0  0  0  0  0  0  0  0  0  0
  2 10  1  0
  2  1  1  6
  3  2  1  0
  4  3  1  0
  4  5  2  0
  6  5  1  0
  7  6  2  0
  8  9  2  0
  8  7  1  0
  9  4  1  0
 10 12  1  0
 11 10  2  0
 12 16  1  0
 12 13  1  0
 13 14  1  0
 15 14  1  0
 16 15  1  0
 16 17  1  1
 18 17  2  0
 20 21  2  0
 20 19  1  0
 22 21  1  0
 23 22  2  0
 24 23  1  0
 25 24  1  6
 25 27  1  0
 25 26  1  0
 26 17  1  0
 27 31  1  0
 28 27  2  0
 29 23  1  0
 29 30  2  0
 30 20  1  0
M  END
$$$$
