FPY.pdb
     RDKit          3D

 31 33  0  0  1  0  0  0  0  0999 V2000
    8.1621  -14.5082   21.5318 N   0  0  0  0  0  0  0  0  0  0  0  0
    7.5267  -14.9225   22.7779 C   0  0  1  0  0  0  0  0  0  0  0  0
    7.2517  -16.4181   22.7375 C   0  0  0  0  0  0  0  0  0  0  0  0
    6.2685  -16.7680   21.7002 C   0  0  0  0  0  0  0  0  0  0  0  0
    6.6248  -17.4558   20.5625 C   0  0  0  0  0  0  0  0  0  0  0  0
    5.6773  -17.7689   19.6049 C   0  0  0  0  0  0  0  0  0  0  0  0
    4.3499  -17.3947   19.7748 C   0  0  0  0  0  0  0  0  0  0  0  0
    3.9821  -16.7051   20.9113 C   0  0  0  0  0  0  0  0  0  0  0  0
    4.9509  -16.4076   21.8485 C   0  0  0  0  0  0  0  0  0  0  0  0
    8.3597  -14.6016   23.9437 C   0  0  0  0  0  0  0  0  0  0  0  0
    9.5112  -15.0885   24.0609 O   0  0  0  0  0  0  0  0  0  0  0  0
    7.9292  -13.7220   25.0161 N   0  0  0  0  0  0  0  0  0  0  0  0
    6.8684  -12.7397   24.9157 C   0  0  0  0  0  0  0  0  0  0  0  0
    6.1829  -12.9259   26.2775 C   0  0  0  0  0  0  0  0  0  0  0  0
    7.4476  -12.9060   27.1567 C   0  0  0  0  0  0  0  0  0  0  0  0
    8.4948  -13.6091   26.3264 C   0  0  1  0  0  0  0  0  0  0  0  0
    8.8734  -14.9011   26.9545 C   0  0  0  0  0  0  0  0  0  0  0  0
    8.1944  -15.9282   26.8823 O   0  0  0  0  0  0  0  0  0  0  0  0
   12.7701  -16.9465   22.3250 O   0  0  0  0  0  0  0  0  0  0  0  0
   12.5955  -16.8022   23.6761 C   0  0  0  0  0  0  0  0  0  0  0  0
   12.6983  -15.5640   24.2512 C   0  0  0  0  0  0  0  0  0  0  0  0
   12.5271  -15.3907   25.6104 C   0  0  0  0  0  0  0  0  0  0  0  0
   12.2479  -16.4434   26.4443 C   0  0  0  0  0  0  0  0  0  0  0  0
   12.0610  -16.2881   27.9036 C   0  0  0  0  0  0  0  0  0  0  0  0
   10.5778  -16.2032   28.2746 C   0  0  2  0  0  0  0  0  0  0  0  0
   10.0928  -14.9634   27.6850 N   0  0  0  0  0  0  0  0  0  0  0  0
   10.5089  -16.0464   29.7501 C   0  0  0  0  0  0  0  0  0  0  0  0
   10.2404  -14.9188   30.2597 O   0  0  0  0  0  0  0  0  0  0  0  0
   12.1439  -17.7028   25.8556 C   0  0  0  0  0  0  0  0  0  0  0  0
   12.3151  -17.8737   24.4983 C   0  0  0  0  0  0  0  0  0  0  0  0
   10.7274  -17.0914   30.6366 O   0  0  0  0  0  0  0  0  0  0  0  0
  2 10  1  0
  2  1  1  6
  3  2  1  0
  4  3  1  0
  4  5  2  0
  6  5  1  0
  7  6  2  0
  8  9  2  0
  8  7  1  0
  9  4  1  0
 10 12  1  0
 11 10  2  0
 12 16  1  0
 12 13  1  0
 13 14  1  0
 15 14  1  0
 16 15  1  0
 16 17  1  1
 18 17  2  0
 20 21  2  0
 20 19  1  0
 22 21  1  0
 23 22  2  0
 24 23  1  0
 25 24  1  1
 25 27  1  0
 25 26  1  0
 26 17  1  0
 27 31  1  0
 28 27  2  0
 29 23  1  0
 29 30  2  0
 30 20  1  0
M  END
$$$$
