FPY.pdb
     RDKit          3D

 31 33  0  0  1  0  0  0  0  0999 V2000
    6.1349  -17.0078   25.4959 N   0  0  0  0  0  0  0  0  0  0  0  0
    6.9200  -15.9429   24.8812 C   0  0  1  0  0  0  0  0  0  0  0  0
    7.7244  -15.2200   25.9509 C   0  0  0  0  0  0  0  0  0  0  0  0
    7.2162  -13.8609   26.1957 C   0  0  0  0  0  0  0  0  0  0  0  0
    6.0357  -13.6355   26.8665 C   0  0  0  0  0  0  0  0  0  0  0  0
    5.5838  -12.3459   27.0798 C   0  0  0  0  0  0  0  0  0  0  0  0
    6.3136  -11.2561   26.6210 C   0  0  0  0  0  0  0  0  0  0  0  0
    7.4981  -11.4708   25.9476 C   0  0  0  0  0  0  0  0  0  0  0  0
    7.9223  -12.7695   25.7505 C   0  0  0  0  0  0  0  0  0  0  0  0
    7.8230  -16.4634   23.8470 C   0  0  0  0  0  0  0  0  0  0  0  0
    8.5594  -17.4535   24.0797 O   0  0  0  0  0  0  0  0  0  0  0  0
    7.9286  -15.8914   22.5163 N   0  0  0  0  0  0  0  0  0  0  0  0
    6.8543  -15.2285   21.8044 C   0  0  0  0  0  0  0  0  0  0  0  0
    7.6174  -14.0544   21.1735 C   0  0  0  0  0  0  0  0  0  0  0  0
    8.8095  -14.8524   20.6125 C   0  0  0  0  0  0  0  0  0  0  0  0
    9.0631  -15.9260   21.6438 C   0  0  1  0  0  0  0  0  0  0  0  0
   10.3705  -15.7035   22.3135 C   0  0  0  0  0  0  0  0  0  0  0  0
   11.0977  -14.7304   22.1004 O   0  0  0  0  0  0  0  0  0  0  0  0
    9.2101  -15.7062   29.4133 O   0  0  0  0  0  0  0  0  0  0  0  0
    9.9319  -15.6102   28.2529 C   0  0  0  0  0  0  0  0  0  0  0  0
   11.1014  -16.3083   28.1145 C   0  0  0  0  0  0  0  0  0  0  0  0
   11.8482  -16.2292   26.9556 C   0  0  0  0  0  0  0  0  0  0  0  0
   11.4572  -15.4528   25.8947 C   0  0  0  0  0  0  0  0  0  0  0  0
   12.2372  -15.3476   24.6420 C   0  0  0  0  0  0  0  0  0  0  0  0
   12.1589  -16.6376   23.8208 C   0  0  2  0  0  0  0  0  0  0  0  0
   10.8158  -16.6684   23.2595 N   0  0  0  0  0  0  0  0  0  0  0  0
   12.2623  -17.7678   24.7792 C   0  0  0  0  0  0  0  0  0  0  0  0
   11.2544  -18.4963   25.0173 O   0  0  0  0  0  0  0  0  0  0  0  0
   10.2659  -14.7433   26.0388 C   0  0  0  0  0  0  0  0  0  0  0  0
    9.5216  -14.8236   27.1966 C   0  0  0  0  0  0  0  0  0  0  0  0
   13.4322  -18.0879   25.4536 O   0  0  0  0  0  0  0  0  0  0  0  0
  2 10  1  0
  2  1  1  1
  3  2  1  0
  4  3  1  0
  4  5  2  0
  6  5  1  0
  7  6  2  0
  8  9  2  0
  8  7  1  0
  9  4  1  0
 10 12  1  0
 11 10  2  0
 12 16  1  0
 12 13  1  0
 13 14  1  0
 15 14  1  0
 16 15  1  0
 16 17  1  1
 18 17  2  0
 20 21  2  0
 20 19  1  0
 22 21  1  0
 23 22  2  0
 24 23  1  0
 25 24  1  1
 25 27  1  0
 25 26  1  0
 26 17  1  0
 27 31  1  0
 28 27  2  0
 29 23  1  0
 29 30  2  0
 30 20  1  0
M  END
$$$$
