FPY.pdb
     RDKit          3D

 31 33  0  0  1  0  0  0  0  0999 V2000
    5.8413  -17.2271   25.0439 N   0  0  0  0  0  0  0  0  0  0  0  0
    6.5736  -16.0271   24.6541 C   0  0  1  0  0  0  0  0  0  0  0  0
    7.2085  -15.3952   25.8836 C   0  0  0  0  0  0  0  0  0  0  0  0
    6.7803  -13.9995   26.0669 C   0  0  0  0  0  0  0  0  0  0  0  0
    7.6856  -12.9670   26.1607 C   0  0  0  0  0  0  0  0  0  0  0  0
    7.2516  -11.6654   26.3343 C   0  0  0  0  0  0  0  0  0  0  0  0
    5.8947  -11.3776   26.4169 C   0  0  0  0  0  0  0  0  0  0  0  0
    4.9789  -12.4048   26.3242 C   0  0  0  0  0  0  0  0  0  0  0  0
    5.4434  -13.6931   26.1511 C   0  0  0  0  0  0  0  0  0  0  0  0
    7.6097  -16.3246   23.6571 C   0  0  0  0  0  0  0  0  0  0  0  0
    8.4532  -17.2320   23.8618 O   0  0  0  0  0  0  0  0  0  0  0  0
    7.7328  -15.6150   22.3958 N   0  0  0  0  0  0  0  0  0  0  0  0
    6.6361  -15.0076   21.6687 C   0  0  0  0  0  0  0  0  0  0  0  0
    7.2953  -13.6994   21.2070 C   0  0  0  0  0  0  0  0  0  0  0  0
    8.6063  -14.3010   20.6667 C   0  0  0  0  0  0  0  0  0  0  0  0
    8.9172  -15.4371   21.6117 C   0  0  1  0  0  0  0  0  0  0  0  0
   10.1437  -15.1391   22.3953 C   0  0  0  0  0  0  0  0  0  0  0  0
   10.4976  -14.0021   22.7167 O   0  0  0  0  0  0  0  0  0  0  0  0
   12.3406  -16.2811   30.4640 O   0  0  0  0  0  0  0  0  0  0  0  0
   11.8767  -16.3106   29.1754 C   0  0  0  0  0  0  0  0  0  0  0  0
   12.2150  -15.3112   28.3030 C   0  0  0  0  0  0  0  0  0  0  0  0
   11.7610  -15.3166   26.9988 C   0  0  0  0  0  0  0  0  0  0  0  0
   10.9546  -16.3165   26.5179 C   0  0  0  0  0  0  0  0  0  0  0  0
   10.4521  -16.3478   25.1268 C   0  0  0  0  0  0  0  0  0  0  0  0
   11.5973  -16.2698   24.1133 C   0  0  2  0  0  0  0  0  0  0  0  0
   10.9640  -16.2279   22.8030 N   0  0  0  0  0  0  0  0  0  0  0  0
   12.3422  -17.5519   24.2023 C   0  0  0  0  0  0  0  0  0  0  0  0
   13.5825  -17.5525   24.4566 O   0  0  0  0  0  0  0  0  0  0  0  0
   10.6120  -17.3327   27.4086 C   0  0  0  0  0  0  0  0  0  0  0  0
   11.0664  -17.3255   28.7103 C   0  0  0  0  0  0  0  0  0  0  0  0
   11.7462  -18.7916   24.0182 O   0  0  0  0  0  0  0  0  0  0  0  0
  2 10  1  0
  2  1  1  1
  3  2  1  0
  4  3  1  0
  4  5  2  0
  6  5  1  0
  7  6  2  0
  8  9  2  0
  8  7  1  0
  9  4  1  0
 10 12  1  0
 11 10  2  0
 12 16  1  0
 12 13  1  0
 13 14  1  0
 15 14  1  0
 16 15  1  0
 16 17  1  1
 18 17  2  0
 20 21  2  0
 20 19  1  0
 22 21  1  0
 23 22  2  0
 24 23  1  0
 25 24  1  1
 25 27  1  0
 25 26  1  0
 26 17  1  0
 27 31  1  0
 28 27  2  0
 29 23  1  0
 29 30  2  0
 30 20  1  0
M  END
$$$$
