FPY.pdb
     RDKit          3D

 31 33  0  0  1  0  0  0  0  0999 V2000
    6.9161  -16.0620   26.1941 N   0  0  0  0  0  0  0  0  0  0  0  0
    7.1713  -15.3676   24.9368 C   0  0  1  0  0  0  0  0  0  0  0  0
    7.9776  -14.1060   25.2054 C   0  0  0  0  0  0  0  0  0  0  0  0
    7.1934  -13.0980   25.9362 C   0  0  0  0  0  0  0  0  0  0  0  0
    5.8602  -12.8813   25.6716 C   0  0  0  0  0  0  0  0  0  0  0  0
    5.1505  -11.9252   26.3751 C   0  0  0  0  0  0  0  0  0  0  0  0
    5.7709  -11.1672   27.3608 C   0  0  0  0  0  0  0  0  0  0  0  0
    7.1066  -11.3764   27.6339 C   0  0  0  0  0  0  0  0  0  0  0  0
    7.7874  -12.3378   26.9146 C   0  0  0  0  0  0  0  0  0  0  0  0
    7.8883  -16.2219   23.9818 C   0  0  0  0  0  0  0  0  0  0  0  0
    8.4635  -17.2696   24.3670 O   0  0  0  0  0  0  0  0  0  0  0  0
    7.9824  -15.9302   22.5622 N   0  0  0  0  0  0  0  0  0  0  0  0
    6.9828  -15.2232   21.7867 C   0  0  0  0  0  0  0  0  0  0  0  0
    7.8814  -14.3423   20.9061 C   0  0  0  0  0  0  0  0  0  0  0  0
    8.8714  -15.4327   20.4546 C   0  0  0  0  0  0  0  0  0  0  0  0
    9.0206  -16.3289   21.6608 C   0  0  1  0  0  0  0  0  0  0  0  0
   10.3964  -16.2305   22.2131 C   0  0  0  0  0  0  0  0  0  0  0  0
   11.2474  -15.4356   21.8068 O   0  0  0  0  0  0  0  0  0  0  0  0
    9.6448  -16.0415   29.7227 O   0  0  0  0  0  0  0  0  0  0  0  0
   10.2512  -15.9705   28.4963 C   0  0  0  0  0  0  0  0  0  0  0  0
    9.9227  -14.9647   27.6274 C   0  0  0  0  0  0  0  0  0  0  0  0
   10.5186  -14.8701   26.3853 C   0  0  0  0  0  0  0  0  0  0  0  0
   11.4617  -15.7729   25.9648 C   0  0  0  0  0  0  0  0  0  0  0  0
   12.1155  -15.6976   24.6399 C   0  0  0  0  0  0  0  0  0  0  0  0
   12.0681  -17.0440   23.9121 C   0  0  2  0  0  0  0  0  0  0  0  0
   10.7599  -17.1039   23.2758 N   0  0  0  0  0  0  0  0  0  0  0  0
   12.1001  -18.1012   24.9550 C   0  0  0  0  0  0  0  0  0  0  0  0
   11.0626  -18.7830   25.2039 O   0  0  0  0  0  0  0  0  0  0  0  0
   11.7940  -16.7957   26.8518 C   0  0  0  0  0  0  0  0  0  0  0  0
   11.1980  -16.8885   28.0916 C   0  0  0  0  0  0  0  0  0  0  0  0
   13.2323  -18.4002   25.6998 O   0  0  0  0  0  0  0  0  0  0  0  0
  2 10  1  0
  2  1  1  1
  3  2  1  0
  4  3  1  0
  4  5  2  0
  6  5  1  0
  7  6  2  0
  8  9  2  0
  8  7  1  0
  9  4  1  0
 10 12  1  0
 11 10  2  0
 12 16  1  0
 12 13  1  0
 13 14  1  0
 15 14  1  0
 16 15  1  0
 16 17  1  1
 18 17  2  0
 20 21  2  0
 20 19  1  0
 22 21  1  0
 23 22  2  0
 24 23  1  0
 25 24  1  1
 25 27  1  0
 25 26  1  0
 26 17  1  0
 27 31  1  0
 28 27  2  0
 29 23  1  0
 29 30  2  0
 30 20  1  0
M  END
$$$$
