FPY.pdb
     RDKit          3D

 31 33  0  0  1  0  0  0  0  0999 V2000
    5.5062  -17.3510   25.1318 N   0  0  0  0  0  0  0  0  0  0  0  0
    6.3150  -16.1551   24.9232 C   0  0  1  0  0  0  0  0  0  0  0  0
    6.7518  -15.5938   26.2679 C   0  0  0  0  0  0  0  0  0  0  0  0
    6.3979  -14.1728   26.4112 C   0  0  0  0  0  0  0  0  0  0  0  0
    5.0899  -13.7545   26.5037 C   0  0  0  0  0  0  0  0  0  0  0  0
    4.7894  -12.4110   26.6364 C   0  0  0  0  0  0  0  0  0  0  0  0
    5.8024  -11.4608   26.6785 C   0  0  0  0  0  0  0  0  0  0  0  0
    7.1166  -11.8692   26.5866 C   0  0  0  0  0  0  0  0  0  0  0  0
    7.3841  -13.2170   26.4550 C   0  0  0  0  0  0  0  0  0  0  0  0
    7.4946  -16.4363   24.0952 C   0  0  0  0  0  0  0  0  0  0  0  0
    8.2778  -17.3713   24.3938 O   0  0  0  0  0  0  0  0  0  0  0  0
    7.8337  -15.6790   22.9033 N   0  0  0  0  0  0  0  0  0  0  0  0
    6.9009  -14.8963   22.1174 C   0  0  0  0  0  0  0  0  0  0  0  0
    7.7590  -13.6597   21.8119 C   0  0  0  0  0  0  0  0  0  0  0  0
    9.0360  -14.3932   21.3603 C   0  0  0  0  0  0  0  0  0  0  0  0
    9.1061  -15.6108   22.2508 C   0  0  1  0  0  0  0  0  0  0  0  0
   10.2716  -15.5167   23.1673 C   0  0  0  0  0  0  0  0  0  0  0  0
   10.5105  -14.5396   23.8810 O   0  0  0  0  0  0  0  0  0  0  0  0
   10.2721  -14.1264   29.3202 O   0  0  0  0  0  0  0  0  0  0  0  0
   10.8031  -14.8820   28.3084 C   0  0  0  0  0  0  0  0  0  0  0  0
   10.1518  -16.0077   27.8804 C   0  0  0  0  0  0  0  0  0  0  0  0
   10.6653  -16.7871   26.8627 C   0  0  0  0  0  0  0  0  0  0  0  0
   11.8443  -16.4736   26.2359 C   0  0  0  0  0  0  0  0  0  0  0  0
   12.4189  -17.2903   25.1443 C   0  0  0  0  0  0  0  0  0  0  0  0
   12.4909  -16.5043   23.8321 C   0  0  2  0  0  0  0  0  0  0  0  0
   11.1702  -16.6180   23.2298 N   0  0  0  0  0  0  0  0  0  0  0  0
   13.4424  -17.2248   22.9477 C   0  0  0  0  0  0  0  0  0  0  0  0
   14.6883  -17.1597   23.1640 O   0  0  0  0  0  0  0  0  0  0  0  0
   12.5049  -15.3268   26.6739 C   0  0  0  0  0  0  0  0  0  0  0  0
   11.9907  -14.5498   27.6901 C   0  0  0  0  0  0  0  0  0  0  0  0
   13.0405  -17.9906   21.8624 O   0  0  0  0  0  0  0  0  0  0  0  0
  2 10  1  0
  2  1  1  1
  3  2  1  0
  4  3  1  0
  4  5  2  0
  6  5  1  0
  7  6  2  0
  8  9  2  0
  8  7  1  0
  9  4  1  0
 10 12  1  0
 11 10  2  0
 12 16  1  0
 12 13  1  0
 13 14  1  0
 15 14  1  0
 16 15  1  0
 16 17  1  1
 18 17  2  0
 20 21  2  0
 20 19  1  0
 22 21  1  0
 23 22  2  0
 24 23  1  0
 25 24  1  1
 25 27  1  0
 25 26  1  0
 26 17  1  0
 27 31  1  0
 28 27  2  0
 29 23  1  0
 29 30  2  0
 30 20  1  0
M  END
$$$$
