FPY.pdb
     RDKit          3D

 31 33  0  0  1  0  0  0  0  0999 V2000
    6.4164  -16.2857   26.0313 N   0  0  0  0  0  0  0  0  0  0  0  0
    7.0197  -15.4937   24.9650 C   0  0  1  0  0  0  0  0  0  0  0  0
    7.9104  -14.4188   25.5695 C   0  0  0  0  0  0  0  0  0  0  0  0
    7.1258  -13.3523   26.2115 C   0  0  0  0  0  0  0  0  0  0  0  0
    6.2816  -12.5369   25.4927 C   0  0  0  0  0  0  0  0  0  0  0  0
    5.5583  -11.5420   26.1251 C   0  0  0  0  0  0  0  0  0  0  0  0
    5.6714  -11.3487   27.4965 C   0  0  0  0  0  0  0  0  0  0  0  0
    6.5145  -12.1604   28.2264 C   0  0  0  0  0  0  0  0  0  0  0  0
    7.2228  -13.1443   27.5663 C   0  0  0  0  0  0  0  0  0  0  0  0
    7.8030  -16.3293   24.0462 C   0  0  0  0  0  0  0  0  0  0  0  0
    8.3461  -17.3875   24.4488 O   0  0  0  0  0  0  0  0  0  0  0  0
    8.0015  -16.0065   22.6442 N   0  0  0  0  0  0  0  0  0  0  0  0
    7.0018  -15.4238   21.7716 C   0  0  0  0  0  0  0  0  0  0  0  0
    7.8620  -14.4205   20.9891 C   0  0  0  0  0  0  0  0  0  0  0  0
    9.0267  -15.3661   20.6396 C   0  0  0  0  0  0  0  0  0  0  0  0
    9.1689  -16.2534   21.8532 C   0  0  1  0  0  0  0  0  0  0  0  0
   10.4568  -15.9854   22.5436 C   0  0  0  0  0  0  0  0  0  0  0  0
   11.0365  -14.8970   22.5238 O   0  0  0  0  0  0  0  0  0  0  0  0
   10.0204  -16.1184   29.5889 O   0  0  0  0  0  0  0  0  0  0  0  0
   10.6308  -15.9985   28.3683 C   0  0  0  0  0  0  0  0  0  0  0  0
   11.0675  -17.1159   27.7086 C   0  0  0  0  0  0  0  0  0  0  0  0
   11.6860  -17.0231   26.4774 C   0  0  0  0  0  0  0  0  0  0  0  0
   11.8914  -15.8155   25.8603 C   0  0  0  0  0  0  0  0  0  0  0  0
   12.5520  -15.6854   24.5430 C   0  0  0  0  0  0  0  0  0  0  0  0
   12.4442  -16.9785   23.7298 C   0  0  2  0  0  0  0  0  0  0  0  0
   11.0630  -17.0453   23.2741 N   0  0  0  0  0  0  0  0  0  0  0  0
   12.6510  -18.1040   24.6769 C   0  0  0  0  0  0  0  0  0  0  0  0
   11.6728  -18.8234   25.0358 O   0  0  0  0  0  0  0  0  0  0  0  0
   11.4455  -14.6797   26.5346 C   0  0  0  0  0  0  0  0  0  0  0  0
   10.8282  -14.7744   27.7637 C   0  0  0  0  0  0  0  0  0  0  0  0
   13.8893  -18.4291   25.2123 O   0  0  0  0  0  0  0  0  0  0  0  0
  2 10  1  0
  2  1  1  1
  3  2  1  0
  4  3  1  0
  4  5  2  0
  6  5  1  0
  7  6  2  0
  8  9  2  0
  8  7  1  0
  9  4  1  0
 10 12  1  0
 11 10  2  0
 12 16  1  0
 12 13  1  0
 13 14  1  0
 15 14  1  0
 16 15  1  0
 16 17  1  1
 18 17  2  0
 20 21  2  0
 20 19  1  0
 22 21  1  0
 23 22  2  0
 24 23  1  0
 25 24  1  1
 25 27  1  0
 25 26  1  0
 26 17  1  0
 27 31  1  0
 28 27  2  0
 29 23  1  0
 29 30  2  0
 30 20  1  0
M  END
$$$$
