TLM.pdb
     RDKit          3D

 24 23  0  0  1  0  0  0  0  0999 V2000
   21.3816  -13.0995  -21.2765 C   0  0  0  0  0  0  0  0  0  0  0  0
   21.5987  -11.9431  -20.3038 C   0  0  1  0  0  0  0  0  0  0  0  0
   20.3963  -11.2313  -20.1565 O   0  0  0  0  0  0  0  0  0  0  0  0
   22.0468  -12.4630  -18.9567 C   0  0  2  0  0  0  0  0  0  0  0  0
   20.9303  -13.2471  -18.4166 N   0  0  0  0  0  0  0  0  0  0  0  0
   22.2881  -11.2709  -18.0749 C   0  0  0  0  0  0  0  0  0  0  0  0
   21.3745  -10.8000  -17.3546 O   0  0  0  0  0  0  0  0  0  0  0  0
   27.3142   -9.9961  -15.8083 C   0  0  0  0  0  0  0  0  0  0  0  0
   25.8606  -10.2526  -16.1025 C   0  0  1  0  0  0  0  0  0  0  0  0
   25.1752  -10.3810  -14.7322 C   0  0  0  0  0  0  0  0  0  0  0  0
   25.1513   -9.1807  -16.8333 C   0  0  0  0  0  0  0  0  0  0  0  0
   23.7456   -9.4284  -17.2383 C   0  0  2  0  0  0  0  0  0  0  0  0
   23.5508  -10.6210  -18.0117 N   0  0  0  0  0  0  0  0  0  0  0  0
   23.1508   -8.2069  -17.8160 C   0  0  0  0  0  0  0  0  0  0  0  0
   23.4003   -7.9718  -19.0266 O   0  0  0  0  0  0  0  0  0  0  0  0
   17.7315   -6.9258  -19.2777 C   0  0  0  0  0  0  0  0  0  0  0  0
   17.9128   -5.2479  -18.6184 S   0  0  0  0  0  0  0  0  0  0  0  0
   19.7093   -4.9241  -18.4092 C   0  0  0  0  0  0  0  0  0  0  0  0
   20.3014   -6.1603  -17.8432 C   0  0  0  0  0  0  0  0  0  0  0  0
   21.7968   -6.0662  -17.7127 C   0  0  2  0  0  0  0  0  0  0  0  0
   22.3378   -7.2936  -17.1304 N   0  0  0  0  0  0  0  0  0  0  0  0
   22.2080   -4.8802  -16.9928 C   0  0  0  0  0  0  0  0  0  0  0  0
   22.1924   -3.6065  -17.4929 O   0  0  0  0  0  0  0  0  0  0  0  0
   22.6263   -5.0067  -15.7900 O   0  0  0  0  0  0  0  0  0  0  0  0
  2  1  1  6
  2  3  1  0
  2  4  1  0
  4  5  1  1
  6  4  1  0
  6  7  2  0
  9  8  1  1
  9 10  1  0
  9 11  1  0
 12 11  1  6
 12 13  1  0
 12 14  1  0
 13  6  1  0
 14 15  2  0
 14 21  1  0
 16 17  1  0
 17 18  1  0
 19 18  1  0
 20 19  1  1
 20 22  1  0
 21 20  1  0
 22 24  2  0
 22 23  1  0
M  END
$$$$
