TLM.pdb
     RDKit          3D

 24 23  0  0  1  0  0  0  0  0999 V2000
   24.8381  -14.7993  -21.2730 C   0  0  0  0  0  0  0  0  0  0  0  0
   24.9395  -16.0561  -20.4124 C   0  0  1  0  0  0  0  0  0  0  0  0
   26.2942  -16.3634  -20.2011 O   0  0  0  0  0  0  0  0  0  0  0  0
   24.2564  -15.8410  -19.0809 C   0  0  2  0  0  0  0  0  0  0  0  0
   24.9952  -14.7733  -18.3974 N   0  0  0  0  0  0  0  0  0  0  0  0
   24.3903  -17.1164  -18.2983 C   0  0  0  0  0  0  0  0  0  0  0  0
   23.9020  -18.1925  -18.7212 O   0  0  0  0  0  0  0  0  0  0  0  0
   26.3864  -21.0896  -15.2734 C   0  0  0  0  0  0  0  0  0  0  0  0
   26.3635  -19.7569  -14.5742 C   0  0  1  0  0  0  0  0  0  0  0  0
   27.6925  -19.6671  -13.8063 C   0  0  0  0  0  0  0  0  0  0  0  0
   26.2990  -18.5688  -15.4519 C   0  0  0  0  0  0  0  0  0  0  0  0
   25.0595  -18.3519  -16.2381 C   0  0  2  0  0  0  0  0  0  0  0  0
   25.0700  -17.1697  -17.0509 N   0  0  0  0  0  0  0  0  0  0  0  0
   23.8686  -18.5075  -15.3795 C   0  0  0  0  0  0  0  0  0  0  0  0
   23.8068  -17.7773  -14.3567 O   0  0  0  0  0  0  0  0  0  0  0  0
   18.4944  -17.2210  -16.9967 C   0  0  0  0  0  0  0  0  0  0  0  0
   17.8012  -18.5001  -15.9167 S   0  0  0  0  0  0  0  0  0  0  0  0
   19.1465  -19.0799  -14.8076 C   0  0  0  0  0  0  0  0  0  0  0  0
   20.3973  -19.0492  -15.6038 C   0  0  0  0  0  0  0  0  0  0  0  0
   21.5956  -19.4664  -14.7962 C   0  0  2  0  0  0  0  0  0  0  0  0
   22.8094  -19.3968  -15.6085 N   0  0  0  0  0  0  0  0  0  0  0  0
   21.4127  -20.7621  -14.1784 C   0  0  0  0  0  0  0  0  0  0  0  0
   20.8804  -20.9778  -12.9363 O   0  0  0  0  0  0  0  0  0  0  0  0
   21.7724  -21.8063  -14.8248 O   0  0  0  0  0  0  0  0  0  0  0  0
  2  1  1  6
  2  3  1  0
  2  4  1  0
  4  5  1  1
  6  4  1  0
  6  7  2  0
  9  8  1  6
  9 10  1  0
  9 11  1  0
 12 11  1  1
 12 13  1  0
 12 14  1  0
 13  6  1  0
 14 15  2  0
 14 21  1  0
 16 17  1  0
 17 18  1  0
 19 18  1  0
 20 19  1  6
 20 22  1  0
 21 20  1  0
 22 24  2  0
 22 23  1  0
M  END
$$$$
