TLM.pdb
     RDKit          3D

 24 23  0  0  1  0  0  0  0  0999 V2000
   14.9712  -10.4393  -15.7128 C   0  0  0  0  0  0  0  0  0  0  0  0
   15.2799  -11.8918  -15.3589 C   0  0  1  0  0  0  0  0  0  0  0  0
   14.6677  -12.7368  -16.2999 O   0  0  0  0  0  0  0  0  0  0  0  0
   16.7728  -12.1303  -15.3612 C   0  0  2  0  0  0  0  0  0  0  0  0
   16.9730  -13.5425  -15.0167 N   0  0  0  0  0  0  0  0  0  0  0  0
   17.3652  -11.2679  -14.2832 C   0  0  0  0  0  0  0  0  0  0  0  0
   17.2334  -11.5617  -13.0701 O   0  0  0  0  0  0  0  0  0  0  0  0
   21.1297   -8.3086  -11.6931 C   0  0  0  0  0  0  0  0  0  0  0  0
   20.5495   -7.6833  -12.9331 C   0  0  1  0  0  0  0  0  0  0  0  0
   21.7289   -7.0017  -13.6462 C   0  0  0  0  0  0  0  0  0  0  0  0
   19.9480   -8.6193  -13.9069 C   0  0  0  0  0  0  0  0  0  0  0  0
   18.6686   -9.2755  -13.5412 C   0  0  2  0  0  0  0  0  0  0  0  0
   18.0982  -10.0861  -14.5784 N   0  0  0  0  0  0  0  0  0  0  0  0
   17.7426   -8.3002  -12.9320 C   0  0  0  0  0  0  0  0  0  0  0  0
   17.1774   -7.4904  -13.7117 O   0  0  0  0  0  0  0  0  0  0  0  0
   12.7797   -6.9261   -7.0168 C   0  0  0  0  0  0  0  0  0  0  0  0
   14.0233   -7.9907   -7.7932 S   0  0  0  0  0  0  0  0  0  0  0  0
   14.7331   -7.0698   -9.2160 C   0  0  0  0  0  0  0  0  0  0  0  0
   15.7829   -7.9372   -9.8032 C   0  0  0  0  0  0  0  0  0  0  0  0
   16.4404   -7.3040  -10.9985 C   0  0  2  0  0  0  0  0  0  0  0  0
   17.4450   -8.2026  -11.5656 N   0  0  0  0  0  0  0  0  0  0  0  0
   16.9731   -5.9927  -10.6972 C   0  0  0  0  0  0  0  0  0  0  0  0
   16.2451   -4.8349  -10.6521 O   0  0  0  0  0  0  0  0  0  0  0  0
   18.2240   -5.8801  -10.4518 O   0  0  0  0  0  0  0  0  0  0  0  0
  2  1  1  6
  2  3  1  0
  2  4  1  0
  4  5  1  1
  6  4  1  0
  6  7  2  0
  9  8  1  1
  9 10  1  0
  9 11  1  0
 12 11  1  6
 12 13  1  0
 12 14  1  0
 13  6  1  0
 14 15  2  0
 14 21  1  0
 16 17  1  0
 17 18  1  0
 19 18  1  0
 20 19  1  1
 20 22  1  0
 21 20  1  0
 22 24  2  0
 22 23  1  0
M  END
$$$$
