TLM.pdb
     RDKit          3D

 24 23  0  0  1  0  0  0  0  0999 V2000
   28.2751  -18.5556  -16.7699 C   0  0  0  0  0  0  0  0  0  0  0  0
   27.0908  -19.2812  -16.1362 C   0  0  1  0  0  0  0  0  0  0  0  0
   26.2477  -19.7638  -17.1514 O   0  0  0  0  0  0  0  0  0  0  0  0
   27.5717  -20.4359  -15.2870 C   0  0  2  0  0  0  0  0  0  0  0  0
   28.0988  -21.4462  -16.2114 N   0  0  0  0  0  0  0  0  0  0  0  0
   26.3742  -20.9943  -14.5720 C   0  0  0  0  0  0  0  0  0  0  0  0
   25.8026  -22.0356  -14.9774 O   0  0  0  0  0  0  0  0  0  0  0  0
   25.8623  -20.4349   -9.0346 C   0  0  0  0  0  0  0  0  0  0  0  0
   25.8898  -20.9163  -10.4604 C   0  0  1  0  0  0  0  0  0  0  0  0
   26.0204  -22.4463  -10.3804 C   0  0  0  0  0  0  0  0  0  0  0  0
   24.6784  -20.6348  -11.2600 C   0  0  0  0  0  0  0  0  0  0  0  0
   24.7155  -20.9447  -12.7105 C   0  0  2  0  0  0  0  0  0  0  0  0
   25.8320  -20.3783  -13.4112 N   0  0  0  0  0  0  0  0  0  0  0  0
   23.3985  -20.6909  -13.3276 C   0  0  0  0  0  0  0  0  0  0  0  0
   23.1095  -19.4917  -13.5757 O   0  0  0  0  0  0  0  0  0  0  0  0
   20.7737  -24.7618  -17.0343 C   0  0  0  0  0  0  0  0  0  0  0  0
   19.2755  -23.7433  -17.0630 S   0  0  0  0  0  0  0  0  0  0  0  0
   19.5972  -22.2525  -16.0383 C   0  0  0  0  0  0  0  0  0  0  0  0
   20.8458  -22.5167  -15.2831 C   0  0  0  0  0  0  0  0  0  0  0  0
   21.1821  -21.4007  -14.3325 C   0  0  2  0  0  0  0  0  0  0  0  0
   22.4502  -21.6696  -13.6559 N   0  0  0  0  0  0  0  0  0  0  0  0
   20.1036  -21.1294  -13.4064 C   0  0  0  0  0  0  0  0  0  0  0  0
   18.9940  -20.3780  -13.6834 O   0  0  0  0  0  0  0  0  0  0  0  0
   20.1709  -21.6187  -12.2259 O   0  0  0  0  0  0  0  0  0  0  0  0
  2  1  1  6
  2  3  1  0
  2  4  1  0
  4  5  1  6
  6  4  1  0
  6  7  2  0
  9  8  1  1
  9 10  1  0
  9 11  1  0
 12 11  1  1
 12 13  1  0
 12 14  1  0
 13  6  1  0
 14 15  2  0
 14 21  1  0
 16 17  1  0
 17 18  1  0
 19 18  1  0
 20 19  1  1
 20 22  1  0
 21 20  1  0
 22 24  2  0
 22 23  1  0
M  END
$$$$
