TLM.pdb
     RDKit          3D

 24 23  0  0  1  0  0  0  0  0999 V2000
   25.7112  -17.0345  -15.3512 C   0  0  0  0  0  0  0  0  0  0  0  0
   26.5041  -18.0584  -16.1595 C   0  0  1  0  0  0  0  0  0  0  0  0
   27.4554  -17.3886  -16.9474 O   0  0  0  0  0  0  0  0  0  0  0  0
   27.2052  -19.0305  -15.2379 C   0  0  2  0  0  0  0  0  0  0  0  0
   28.0295  -19.8961  -16.0891 N   0  0  0  0  0  0  0  0  0  0  0  0
   26.1442  -19.8574  -14.5691 C   0  0  0  0  0  0  0  0  0  0  0  0
   25.6421  -20.8558  -15.1406 O   0  0  0  0  0  0  0  0  0  0  0  0
   26.0082  -20.5036   -9.0224 C   0  0  0  0  0  0  0  0  0  0  0  0
   25.9747  -20.6428  -10.5207 C   0  0  1  0  0  0  0  0  0  0  0  0
   26.2950  -22.1189  -10.8086 C   0  0  0  0  0  0  0  0  0  0  0  0
   24.6757  -20.3565  -11.1664 C   0  0  0  0  0  0  0  0  0  0  0  0
   24.6263  -20.3357  -12.6492 C   0  0  2  0  0  0  0  0  0  0  0  0
   25.6587  -19.5548  -13.2677 N   0  0  0  0  0  0  0  0  0  0  0  0
   23.2573  -20.0416  -13.1171 C   0  0  0  0  0  0  0  0  0  0  0  0
   22.9306  -18.8288  -13.1901 O   0  0  0  0  0  0  0  0  0  0  0  0
   21.7050  -20.5112  -18.3638 C   0  0  0  0  0  0  0  0  0  0  0  0
   20.1847  -19.6335  -17.9154 S   0  0  0  0  0  0  0  0  0  0  0  0
   19.8400  -19.9872  -16.1457 C   0  0  0  0  0  0  0  0  0  0  0  0
   21.1298  -20.3865  -15.5325 C   0  0  0  0  0  0  0  0  0  0  0  0
   20.9942  -20.6806  -14.0637 C   0  0  2  0  0  0  0  0  0  0  0  0
   22.2983  -20.9965  -13.4826 N   0  0  0  0  0  0  0  0  0  0  0  0
   20.0052  -21.7040  -13.8014 C   0  0  0  0  0  0  0  0  0  0  0  0
   18.6521  -21.5042  -13.7619 O   0  0  0  0  0  0  0  0  0  0  0  0
   20.4034  -22.9005  -13.5834 O   0  0  0  0  0  0  0  0  0  0  0  0
  2  1  1  1
  2  3  1  0
  2  4  1  0
  4  5  1  6
  6  4  1  0
  6  7  2  0
  9  8  1  1
  9 10  1  0
  9 11  1  0
 12 11  1  1
 12 13  1  0
 12 14  1  0
 13  6  1  0
 14 15  2  0
 14 21  1  0
 16 17  1  0
 17 18  1  0
 19 18  1  0
 20 19  1  6
 20 22  1  0
 21 20  1  0
 22 24  2  0
 22 23  1  0
M  END
$$$$
