TLM.pdb
     RDKit          3D

 24 23  0  0  1  0  0  0  0  0999 V2000
   24.0238  -19.3928  -13.7683 C   0  0  0  0  0  0  0  0  0  0  0  0
   24.7649  -19.9029  -12.5350 C   0  0  1  0  0  0  0  0  0  0  0  0
   23.8440  -20.1042  -11.4930 O   0  0  0  0  0  0  0  0  0  0  0  0
   25.4713  -21.2035  -12.8435 C   0  0  2  0  0  0  0  0  0  0  0  0
   24.4257  -22.2175  -13.0212 N   0  0  0  0  0  0  0  0  0  0  0  0
   26.3048  -21.5552  -11.6442 C   0  0  0  0  0  0  0  0  0  0  0  0
   25.8312  -22.2329  -10.6998 O   0  0  0  0  0  0  0  0  0  0  0  0
   30.8361  -23.1385   -9.0521 C   0  0  0  0  0  0  0  0  0  0  0  0
   30.7468  -21.6669   -9.3552 C   0  0  1  0  0  0  0  0  0  0  0  0
   32.1758  -21.2289   -9.7157 C   0  0  0  0  0  0  0  0  0  0  0  0
   29.8872  -21.2947  -10.4992 C   0  0  0  0  0  0  0  0  0  0  0  0
   28.4173  -21.4018  -10.3278 C   0  0  2  0  0  0  0  0  0  0  0  0
   27.6593  -21.1426  -11.5180 N   0  0  0  0  0  0  0  0  0  0  0  0
   27.9796  -20.6511   -9.1342 C   0  0  0  0  0  0  0  0  0  0  0  0
   27.4877  -19.5098   -9.3303 O   0  0  0  0  0  0  0  0  0  0  0  0
   30.4595  -20.4225   -2.7009 C   0  0  0  0  0  0  0  0  0  0  0  0
   28.7410  -20.9938   -2.7582 S   0  0  0  0  0  0  0  0  0  0  0  0
   27.9226  -20.1529   -4.1721 C   0  0  0  0  0  0  0  0  0  0  0  0
   28.3070  -20.9020   -5.3929 C   0  0  0  0  0  0  0  0  0  0  0  0
   27.7086  -20.3060   -6.6375 C   0  0  2  0  0  0  0  0  0  0  0  0
   28.0681  -21.1024   -7.8100 N   0  0  0  0  0  0  0  0  0  0  0  0
   28.0471  -18.9072   -6.7896 C   0  0  0  0  0  0  0  0  0  0  0  0
   27.2416  -17.8567   -6.4432 O   0  0  0  0  0  0  0  0  0  0  0  0
   29.1855  -18.6021   -7.2883 O   0  0  0  0  0  0  0  0  0  0  0  0
  2  1  1  6
  2  3  1  0
  2  4  1  0
  4  5  1  1
  6  4  1  0
  6  7  2  0
  9  8  1  6
  9 10  1  0
  9 11  1  0
 12 11  1  6
 12 13  1  0
 12 14  1  0
 13  6  1  0
 14 15  2  0
 14 21  1  0
 16 17  1  0
 17 18  1  0
 19 18  1  0
 20 19  1  1
 20 22  1  0
 21 20  1  0
 22 24  2  0
 22 23  1  0
M  END
$$$$
