TLM.pdb
     RDKit          3D

 24 23  0  0  1  0  0  0  0  0999 V2000
   18.4824  -11.7442  -15.9389 C   0  0  0  0  0  0  0  0  0  0  0  0
   19.1474  -12.2443  -17.2188 C   0  0  1  0  0  0  0  0  0  0  0  0
   18.7859  -13.5849  -17.4339 O   0  0  0  0  0  0  0  0  0  0  0  0
   18.7137  -11.4077  -18.4011 C   0  0  2  0  0  0  0  0  0  0  0  0
   19.3487  -11.9948  -19.5865 N   0  0  0  0  0  0  0  0  0  0  0  0
   19.2487  -10.0202  -18.1876 C   0  0  0  0  0  0  0  0  0  0  0  0
   20.4826   -9.7909  -18.1977 O   0  0  0  0  0  0  0  0  0  0  0  0
   17.7030   -4.0193  -18.5697 C   0  0  0  0  0  0  0  0  0  0  0  0
   18.5216   -5.1016  -17.9187 C   0  0  1  0  0  0  0  0  0  0  0  0
   18.4673   -4.8133  -16.4093 C   0  0  0  0  0  0  0  0  0  0  0  0
   18.0293   -6.4834  -18.1050 C   0  0  0  0  0  0  0  0  0  0  0  0
   18.9166   -7.5988  -17.6927 C   0  0  2  0  0  0  0  0  0  0  0  0
   18.3936   -8.9066  -17.9650 N   0  0  0  0  0  0  0  0  0  0  0  0
   19.3965   -7.3945  -16.3114 C   0  0  0  0  0  0  0  0  0  0  0  0
   18.6155   -7.7299  -15.3837 O   0  0  0  0  0  0  0  0  0  0  0  0
   22.4188  -11.3370  -13.9094 C   0  0  0  0  0  0  0  0  0  0  0  0
   23.5688  -10.0783  -13.2960 S   0  0  0  0  0  0  0  0  0  0  0  0
   22.6596   -8.4834  -13.2225 C   0  0  0  0  0  0  0  0  0  0  0  0
   22.0604   -8.2730  -14.5627 C   0  0  0  0  0  0  0  0  0  0  0  0
   21.2554   -7.0044  -14.6326 C   0  0  2  0  0  0  0  0  0  0  0  0
   20.6416   -6.8601  -15.9520 N   0  0  0  0  0  0  0  0  0  0  0  0
   22.0311   -5.8443  -14.2497 C   0  0  0  0  0  0  0  0  0  0  0  0
   22.3310   -5.4829  -12.9644 O   0  0  0  0  0  0  0  0  0  0  0  0
   22.4825   -5.0772  -15.1692 O   0  0  0  0  0  0  0  0  0  0  0  0
  2  1  1  1
  2  3  1  0
  2  4  1  0
  4  5  1  6
  6  4  1  0
  6  7  2  0
  9  8  1  6
  9 10  1  0
  9 11  1  0
 12 11  1  1
 12 13  1  0
 12 14  1  0
 13  6  1  0
 14 15  2  0
 14 21  1  0
 16 17  1  0
 17 18  1  0
 19 18  1  0
 20 19  1  6
 20 22  1  0
 21 20  1  0
 22 24  2  0
 22 23  1  0
M  END
$$$$
