TLM.pdb
     RDKit          3D

 24 23  0  0  1  0  0  0  0  0999 V2000
   25.1783  -18.7870  -16.7190 C   0  0  0  0  0  0  0  0  0  0  0  0
   26.1879  -19.8956  -17.0052 C   0  0  1  0  0  0  0  0  0  0  0  0
   27.1409  -19.4265  -17.9250 O   0  0  0  0  0  0  0  0  0  0  0  0
   26.8817  -20.3203  -15.7308 C   0  0  2  0  0  0  0  0  0  0  0  0
   27.8674  -21.3394  -16.1087 N   0  0  0  0  0  0  0  0  0  0  0  0
   25.8423  -20.9410  -14.8412 C   0  0  0  0  0  0  0  0  0  0  0  0
   25.3680  -22.0761  -15.0901 O   0  0  0  0  0  0  0  0  0  0  0  0
   25.8429  -20.3744   -9.2933 C   0  0  0  0  0  0  0  0  0  0  0  0
   25.7602  -20.7846  -10.7391 C   0  0  1  0  0  0  0  0  0  0  0  0
   25.9799  -22.3063  -10.7531 C   0  0  0  0  0  0  0  0  0  0  0  0
   24.4647  -20.5365  -11.4072 C   0  0  0  0  0  0  0  0  0  0  0  0
   24.3477  -20.8798  -12.8459 C   0  0  2  0  0  0  0  0  0  0  0  0
   25.3472  -20.2814  -13.6834 N   0  0  0  0  0  0  0  0  0  0  0  0
   22.9574  -20.7003  -13.3091 C   0  0  0  0  0  0  0  0  0  0  0  0
   22.5528  -19.5168  -13.4456 O   0  0  0  0  0  0  0  0  0  0  0  0
   16.6953  -24.0146  -16.7734 C   0  0  0  0  0  0  0  0  0  0  0  0
   18.3029  -24.2399  -15.9686 S   0  0  0  0  0  0  0  0  0  0  0  0
   18.7779  -22.6323  -15.2162 C   0  0  0  0  0  0  0  0  0  0  0  0
   20.1429  -22.8079  -14.6638 C   0  0  0  0  0  0  0  0  0  0  0  0
   20.6940  -21.5300  -14.0933 C   0  0  2  0  0  0  0  0  0  0  0  0
   22.0575  -21.7334  -13.6059 N   0  0  0  0  0  0  0  0  0  0  0  0
   19.8225  -20.9610  -13.0879 C   0  0  0  0  0  0  0  0  0  0  0  0
   18.8126  -20.0698  -13.3297 O   0  0  0  0  0  0  0  0  0  0  0  0
   19.9912  -21.3013  -11.8659 O   0  0  0  0  0  0  0  0  0  0  0  0
  2  1  1  1
  2  3  1  0
  2  4  1  0
  4  5  1  6
  6  4  1  0
  6  7  2  0
  9  8  1  1
  9 10  1  0
  9 11  1  0
 12 11  1  1
 12 13  1  0
 12 14  1  0
 13  6  1  0
 14 15  2  0
 14 21  1  0
 16 17  1  0
 17 18  1  0
 19 18  1  0
 20 19  1  1
 20 22  1  0
 21 20  1  0
 22 24  2  0
 22 23  1  0
M  END
$$$$
