TLM.pdb
     RDKit          3D

 24 23  0  0  1  0  0  0  0  0999 V2000
   24.4687  -17.9000  -16.9748 C   0  0  0  0  0  0  0  0  0  0  0  0
   25.5300  -18.6612  -17.7652 C   0  0  1  0  0  0  0  0  0  0  0  0
   26.0816  -17.8095  -18.7372 O   0  0  0  0  0  0  0  0  0  0  0  0
   26.6237  -19.1523  -16.8442 C   0  0  2  0  0  0  0  0  0  0  0  0
   27.5235  -19.9741  -17.6614 N   0  0  0  0  0  0  0  0  0  0  0  0
   25.9748  -20.0156  -15.7998 C   0  0  0  0  0  0  0  0  0  0  0  0
   25.6657  -21.2076  -16.0425 O   0  0  0  0  0  0  0  0  0  0  0  0
   25.1796  -22.4031  -11.0043 C   0  0  0  0  0  0  0  0  0  0  0  0
   24.8836  -20.9279  -11.0447 C   0  0  1  0  0  0  0  0  0  0  0  0
   25.4193  -20.3597   -9.7201 C   0  0  0  0  0  0  0  0  0  0  0  0
   25.5404  -20.1675  -12.1294 C   0  0  0  0  0  0  0  0  0  0  0  0
   25.0406  -20.3585  -13.5132 C   0  0  2  0  0  0  0  0  0  0  0  0
   25.6801  -19.5318  -14.4960 N   0  0  0  0  0  0  0  0  0  0  0  0
   23.5647  -20.3289  -13.5388 C   0  0  0  0  0  0  0  0  0  0  0  0
   23.0109  -19.2759  -13.1297 O   0  0  0  0  0  0  0  0  0  0  0  0
   16.9919  -23.1830  -16.7225 C   0  0  0  0  0  0  0  0  0  0  0  0
   18.7563  -23.4334  -16.3951 S   0  0  0  0  0  0  0  0  0  0  0  0
   19.2471  -22.2611  -15.0681 C   0  0  0  0  0  0  0  0  0  0  0  0
   20.7250  -22.3293  -14.9655 C   0  0  0  0  0  0  0  0  0  0  0  0
   21.2753  -21.3140  -14.0019 C   0  0  2  0  0  0  0  0  0  0  0  0
   22.7362  -21.3712  -13.9774 N   0  0  0  0  0  0  0  0  0  0  0  0
   20.6910  -21.4401  -12.6839 C   0  0  0  0  0  0  0  0  0  0  0  0
   19.7260  -20.6203  -12.1652 O   0  0  0  0  0  0  0  0  0  0  0  0
   21.0945  -22.3856  -11.9218 O   0  0  0  0  0  0  0  0  0  0  0  0
  2  1  1  1
  2  3  1  0
  2  4  1  0
  4  5  1  6
  6  4  1  0
  6  7  2  0
  9  8  1  6
  9 10  1  0
  9 11  1  0
 12 11  1  1
 12 13  1  0
 12 14  1  0
 13  6  1  0
 14 15  2  0
 14 21  1  0
 16 17  1  0
 17 18  1  0
 19 18  1  0
 20 19  1  6
 20 22  1  0
 21 20  1  0
 22 24  2  0
 22 23  1  0
M  END
$$$$
