TLM.pdb
     RDKit          3D

 24 23  0  0  1  0  0  0  0  0999 V2000
   28.0144  -17.0349  -16.4929 C   0  0  0  0  0  0  0  0  0  0  0  0
   26.9142  -17.9660  -15.9898 C   0  0  1  0  0  0  0  0  0  0  0  0
   26.1169  -18.3678  -17.0748 O   0  0  0  0  0  0  0  0  0  0  0  0
   27.5155  -19.1840  -15.3260 C   0  0  2  0  0  0  0  0  0  0  0  0
   28.1624  -19.9642  -16.3871 N   0  0  0  0  0  0  0  0  0  0  0  0
   26.3829  -19.9812  -14.7442 C   0  0  0  0  0  0  0  0  0  0  0  0
   25.9424  -21.0033  -15.3244 O   0  0  0  0  0  0  0  0  0  0  0  0
   25.9433  -20.4383   -9.1802 C   0  0  0  0  0  0  0  0  0  0  0  0
   26.0074  -20.6377  -10.6707 C   0  0  1  0  0  0  0  0  0  0  0  0
   26.3443  -22.1236  -10.8775 C   0  0  0  0  0  0  0  0  0  0  0  0
   24.7537  -20.3796  -11.4108 C   0  0  0  0  0  0  0  0  0  0  0  0
   24.7885  -20.4741  -12.8911 C   0  0  2  0  0  0  0  0  0  0  0  0
   25.7577  -19.6227  -13.5188 N   0  0  0  0  0  0  0  0  0  0  0  0
   23.4241  -20.3815  -13.4475 C   0  0  0  0  0  0  0  0  0  0  0  0
   22.9172  -19.2322  -13.5194 O   0  0  0  0  0  0  0  0  0  0  0  0
   21.1558  -23.9345  -18.1187 C   0  0  0  0  0  0  0  0  0  0  0  0
   19.5739  -23.7476  -17.2553 S   0  0  0  0  0  0  0  0  0  0  0  0
   19.7315  -22.3202  -16.1091 C   0  0  0  0  0  0  0  0  0  0  0  0
   21.0824  -22.4080  -15.5035 C   0  0  0  0  0  0  0  0  0  0  0  0
   21.3115  -21.3416  -14.4679 C   0  0  2  0  0  0  0  0  0  0  0  0
   22.6526  -21.4619  -13.8978 N   0  0  0  0  0  0  0  0  0  0  0  0
   20.2758  -21.3312  -13.4573 C   0  0  0  0  0  0  0  0  0  0  0  0
   19.0456  -20.7471  -13.5919 O   0  0  0  0  0  0  0  0  0  0  0  0
   20.5056  -21.9062  -12.3374 O   0  0  0  0  0  0  0  0  0  0  0  0
  2  1  1  6
  2  3  1  0
  2  4  1  0
  4  5  1  6
  6  4  1  0
  6  7  2  0
  9  8  1  1
  9 10  1  0
  9 11  1  0
 12 11  1  1
 12 13  1  0
 12 14  1  0
 13  6  1  0
 14 15  2  0
 14 21  1  0
 16 17  1  0
 17 18  1  0
 19 18  1  0
 20 19  1  6
 20 22  1  0
 21 20  1  0
 22 24  2  0
 22 23  1  0
M  END
$$$$
