TLM.pdb
     RDKit          3D

 24 23  0  0  1  0  0  0  0  0999 V2000
   27.9348  -17.7474  -15.1924 C   0  0  0  0  0  0  0  0  0  0  0  0
   27.0087  -18.6139  -14.3428 C   0  0  1  0  0  0  0  0  0  0  0  0
   25.9530  -19.0835  -15.1423 O   0  0  0  0  0  0  0  0  0  0  0  0
   27.7662  -19.7880  -13.7652 C   0  0  2  0  0  0  0  0  0  0  0  0
   28.0920  -20.6720  -14.8901 N   0  0  0  0  0  0  0  0  0  0  0  0
   26.8362  -20.5021  -12.8261 C   0  0  0  0  0  0  0  0  0  0  0  0
   26.3477  -21.6201  -13.1206 O   0  0  0  0  0  0  0  0  0  0  0  0
   27.0437  -19.3489   -7.3474 C   0  0  0  0  0  0  0  0  0  0  0  0
   26.9916  -20.0503   -8.6781 C   0  0  1  0  0  0  0  0  0  0  0  0
   27.5379  -21.4649   -8.4244 C   0  0  0  0  0  0  0  0  0  0  0  0
   25.6462  -20.2143   -9.2689 C   0  0  0  0  0  0  0  0  0  0  0  0
   25.5572  -20.6337  -10.6893 C   0  0  2  0  0  0  0  0  0  0  0  0
   26.4650  -19.9539  -11.5681 N   0  0  0  0  0  0  0  0  0  0  0  0
   24.1504  -20.6493  -11.1369 C   0  0  0  0  0  0  0  0  0  0  0  0
   23.6243  -19.5359  -11.3947 O   0  0  0  0  0  0  0  0  0  0  0  0
   19.7695  -22.4599   -7.3830 C   0  0  0  0  0  0  0  0  0  0  0  0
   19.1083  -21.2320   -8.5397 S   0  0  0  0  0  0  0  0  0  0  0  0
   19.7626  -21.6323  -10.2093 C   0  0  0  0  0  0  0  0  0  0  0  0
   21.2380  -21.5059  -10.1296 C   0  0  0  0  0  0  0  0  0  0  0  0
   21.9043  -21.7824  -11.4494 C   0  0  2  0  0  0  0  0  0  0  0  0
   23.3584  -21.7950  -11.2957 N   0  0  0  0  0  0  0  0  0  0  0  0
   21.4619  -20.8733  -12.4848 C   0  0  0  0  0  0  0  0  0  0  0  0
   20.4545  -21.1214  -13.3771 O   0  0  0  0  0  0  0  0  0  0  0  0
   22.0459  -19.7402  -12.5971 O   0  0  0  0  0  0  0  0  0  0  0  0
  2  1  1  6
  2  3  1  0
  2  4  1  0
  4  5  1  6
  6  4  1  0
  6  7  2  0
  9  8  1  1
  9 10  1  0
  9 11  1  0
 12 11  1  1
 12 13  1  0
 12 14  1  0
 13  6  1  0
 14 15  2  0
 14 21  1  0
 16 17  1  0
 17 18  1  0
 19 18  1  0
 20 19  1  1
 20 22  1  0
 21 20  1  0
 22 24  2  0
 22 23  1  0
M  END
$$$$
