TLM.pdb
     RDKit          3D

 24 23  0  0  1  0  0  0  0  0999 V2000
   19.4914  -12.9047  -15.4882 C   0  0  0  0  0  0  0  0  0  0  0  0
   20.4683  -13.1073  -16.6437 C   0  0  1  0  0  0  0  0  0  0  0  0
   19.9796  -14.1166  -17.4903 O   0  0  0  0  0  0  0  0  0  0  0  0
   20.6322  -11.8251  -17.4278 C   0  0  2  0  0  0  0  0  0  0  0  0
   21.4183  -12.1599  -18.6207 N   0  0  0  0  0  0  0  0  0  0  0  0
   21.4147  -10.8726  -16.5692 C   0  0  0  0  0  0  0  0  0  0  0  0
   20.9674  -10.4748  -15.4660 O   0  0  0  0  0  0  0  0  0  0  0  0
   27.0559  -10.6088  -16.5906 C   0  0  0  0  0  0  0  0  0  0  0  0
   25.5869  -10.6601  -16.2670 C   0  0  1  0  0  0  0  0  0  0  0  0
   25.5004  -11.0891  -14.7930 C   0  0  0  0  0  0  0  0  0  0  0  0
   24.8561   -9.3797  -16.3802 C   0  0  0  0  0  0  0  0  0  0  0  0
   23.3867   -9.3978  -16.1755 C   0  0  2  0  0  0  0  0  0  0  0  0
   22.6892  -10.3773  -16.9580 N   0  0  0  0  0  0  0  0  0  0  0  0
   22.8366   -8.0299  -16.2545 C   0  0  0  0  0  0  0  0  0  0  0  0
   22.8283   -7.4861  -17.3891 O   0  0  0  0  0  0  0  0  0  0  0  0
   17.7821   -6.1121  -17.0780 C   0  0  0  0  0  0  0  0  0  0  0  0
   17.9962   -4.7175  -15.9413 S   0  0  0  0  0  0  0  0  0  0  0  0
   19.7946   -4.5438  -15.6073 C   0  0  0  0  0  0  0  0  0  0  0  0
   20.3402   -5.9177  -15.4898 C   0  0  0  0  0  0  0  0  0  0  0  0
   21.8285   -5.9217  -15.2722 C   0  0  2  0  0  0  0  0  0  0  0  0
   22.3279   -7.2926  -15.1763 N   0  0  0  0  0  0  0  0  0  0  0  0
   22.2164   -5.1075  -14.1405 C   0  0  0  0  0  0  0  0  0  0  0  0
   22.5153   -5.5805  -12.8917 O   0  0  0  0  0  0  0  0  0  0  0  0
   22.2910   -3.8392  -14.2939 O   0  0  0  0  0  0  0  0  0  0  0  0
  2  1  1  1
  2  3  1  0
  2  4  1  0
  4  5  1  6
  6  4  1  0
  6  7  2  0
  9  8  1  1
  9 10  1  0
  9 11  1  0
 12 11  1  6
 12 13  1  0
 12 14  1  0
 13  6  1  0
 14 15  2  0
 14 21  1  0
 16 17  1  0
 17 18  1  0
 19 18  1  0
 20 19  1  1
 20 22  1  0
 21 20  1  0
 22 24  2  0
 22 23  1  0
M  END
$$$$
