YSG.pdb
     RDKit          3D

 23 23  0  0  1  0  0  0  0  0999 V2000
   20.9520  -16.9044  -15.6277 O   0  0  0  0  0  0  0  0  0  0  0  0
   21.4087  -15.6072  -15.3557 C   0  0  0  0  0  0  0  0  0  0  0  0
   22.0712  -15.3244  -14.1803 C   0  0  0  0  0  0  0  0  0  0  0  0
   22.5004  -14.0367  -13.9581 C   0  0  0  0  0  0  0  0  0  0  0  0
   22.2987  -13.0042  -14.8620 C   0  0  0  0  0  0  0  0  0  0  0  0
   22.7869  -11.6322  -14.5640 C   0  0  0  0  0  0  0  0  0  0  0  0
   23.8241  -11.1831  -15.5766 C   0  0  2  0  0  0  0  0  0  0  0  0
   25.0819  -11.8398  -15.4021 N   0  0  0  0  0  0  0  0  0  0  0  0
   24.0079   -9.7277  -15.3950 C   0  0  0  0  0  0  0  0  0  0  0  0
   24.9685   -9.2688  -14.7399 O   0  0  0  0  0  0  0  0  0  0  0  0
   21.6358  -13.2877  -16.0379 C   0  0  0  0  0  0  0  0  0  0  0  0
   21.1997  -14.5873  -16.2679 C   0  0  0  0  0  0  0  0  0  0  0  0
   21.9552   -7.1048  -17.9002 O   0  0  0  0  0  0  0  0  0  0  0  0
   23.1000   -6.7157  -17.2490 C   0  0  0  0  0  0  0  0  0  0  0  0
   23.3285   -7.4014  -15.9350 C   0  0  2  0  0  0  0  0  0  0  0  0
   23.1104   -8.8065  -15.9515 N   0  0  0  0  0  0  0  0  0  0  0  0
   22.4254   -6.8123  -14.8832 C   0  0  0  0  0  0  0  0  0  0  0  0
   21.2911   -7.2983  -14.6346 O   0  0  0  0  0  0  0  0  0  0  0  0
   22.8129   -5.6747  -14.1183 N   0  0  0  0  0  0  0  0  0  0  0  0
   21.9916   -5.1157  -13.0702 C   0  0  0  0  0  0  0  0  0  0  0  0
   20.7624   -4.4779  -13.6137 C   0  0  0  0  0  0  0  0  0  0  0  0
   20.7648   -3.1757  -14.0293 O   0  0  0  0  0  0  0  0  0  0  0  0
   19.7109   -5.1579  -13.6870 O   0  0  0  0  0  0  0  0  0  0  0  0
  1  2  1  0
  2 12  2  0
  2  3  1  0
  3  4  2  0
  4  5  1  0
  5  6  1  0
  6  7  1  0
  7  9  1  0
  7  8  1  1
  9 16  1  0
 10  9  2  0
 11  5  2  0
 12 11  1  0
 15 14  1  6
 14 13  1  0
 15 17  1  0
 16 15  1  0
 17 18  2  0
 17 19  1  0
 19 20  1  0
 20 21  1  0
 21 22  1  0
 23 21  2  0
M  END
$$$$
