YSG.pdb
     RDKit          3D

 23 23  0  0  1  0  0  0  0  0999 V2000
   21.3655  -18.4378  -15.5955 O   0  0  0  0  0  0  0  0  0  0  0  0
   21.5896  -17.0587  -15.4794 C   0  0  0  0  0  0  0  0  0  0  0  0
   21.9328  -16.3045  -16.5812 C   0  0  0  0  0  0  0  0  0  0  0  0
   22.1427  -14.9551  -16.4177 C   0  0  0  0  0  0  0  0  0  0  0  0
   22.0255  -14.3129  -15.1940 C   0  0  0  0  0  0  0  0  0  0  0  0
   22.2653  -12.8502  -15.0817 C   0  0  0  0  0  0  0  0  0  0  0  0
   23.5527  -12.4467  -15.7764 C   0  0  2  0  0  0  0  0  0  0  0  0
   24.7171  -12.8503  -15.0518 N   0  0  0  0  0  0  0  0  0  0  0  0
   23.5410  -10.9732  -15.8931 C   0  0  0  0  0  0  0  0  0  0  0  0
   24.0107  -10.2444  -14.9927 O   0  0  0  0  0  0  0  0  0  0  0  0
   21.6821  -15.0679  -14.0920 C   0  0  0  0  0  0  0  0  0  0  0  0
   21.4687  -16.4323  -14.2511 C   0  0  0  0  0  0  0  0  0  0  0  0
   22.6796   -7.0925  -18.7265 O   0  0  0  0  0  0  0  0  0  0  0  0
   22.6701   -8.4570  -18.5716 C   0  0  0  0  0  0  0  0  0  0  0  0
   22.9880   -8.9249  -17.1828 C   0  0  2  0  0  0  0  0  0  0  0  0
   23.0018  -10.3374  -17.0195 N   0  0  0  0  0  0  0  0  0  0  0  0
   21.9859   -8.3632  -16.2085 C   0  0  0  0  0  0  0  0  0  0  0  0
   20.9156   -8.9669  -15.9354 O   0  0  0  0  0  0  0  0  0  0  0  0
   22.2024   -7.1195  -15.5484 N   0  0  0  0  0  0  0  0  0  0  0  0
   21.2225   -6.5095  -14.6805 C   0  0  0  0  0  0  0  0  0  0  0  0
   21.7026   -5.2126  -14.1323 C   0  0  0  0  0  0  0  0  0  0  0  0
   20.8844   -4.4142  -13.3827 O   0  0  0  0  0  0  0  0  0  0  0  0
   22.8817   -4.8560  -14.3691 O   0  0  0  0  0  0  0  0  0  0  0  0
  1  2  1  0
  2 12  2  0
  2  3  1  0
  3  4  2  0
  4  5  1  0
  5  6  1  0
  6  7  1  0
  7  9  1  0
  7  8  1  1
  9 16  1  0
 10  9  2  0
 11  5  2  0
 12 11  1  0
 15 14  1  6
 14 13  1  0
 15 17  1  0
 16 15  1  0
 17 18  2  0
 17 19  1  0
 19 20  1  0
 20 21  1  0
 21 22  1  0
 23 21  2  0
M  END
$$$$
