YSG.pdb
     RDKit          3D

 23 23  0  0  1  0  0  0  0  0999 V2000
   21.7513  -12.4125  -21.2508 O   0  0  0  0  0  0  0  0  0  0  0  0
   21.3232  -11.4807  -20.2948 C   0  0  0  0  0  0  0  0  0  0  0  0
   22.0538  -10.3383  -20.0464 C   0  0  0  0  0  0  0  0  0  0  0  0
   21.5935   -9.4536  -19.0992 C   0  0  0  0  0  0  0  0  0  0  0  0
   20.4257   -9.6550  -18.3784 C   0  0  0  0  0  0  0  0  0  0  0  0
   19.9806   -8.6608  -17.3670 C   0  0  0  0  0  0  0  0  0  0  0  0
   20.6918   -8.8648  -16.0420 C   0  0  2  0  0  0  0  0  0  0  0  0
   20.3159  -10.0852  -15.3995 N   0  0  0  0  0  0  0  0  0  0  0  0
   20.3266   -7.7267  -15.1723 C   0  0  0  0  0  0  0  0  0  0  0  0
   19.2569   -7.7177  -14.5256 O   0  0  0  0  0  0  0  0  0  0  0  0
   19.6951  -10.7981  -18.6273 C   0  0  0  0  0  0  0  0  0  0  0  0
   20.1554  -11.6959  -19.5836 C   0  0  0  0  0  0  0  0  0  0  0  0
   23.1055   -4.9204  -13.5980 O   0  0  0  0  0  0  0  0  0  0  0  0
   21.8356   -5.1880  -13.1490 C   0  0  0  0  0  0  0  0  0  0  0  0
   20.8451   -5.4869  -14.2346 C   0  0  2  0  0  0  0  0  0  0  0  0
   21.1674   -6.6134  -15.0403 N   0  0  0  0  0  0  0  0  0  0  0  0
   20.7085   -4.2972  -15.1484 C   0  0  0  0  0  0  0  0  0  0  0  0
   21.5050   -4.0986  -16.1028 O   0  0  0  0  0  0  0  0  0  0  0  0
   19.6692   -3.3383  -14.9756 N   0  0  0  0  0  0  0  0  0  0  0  0
   19.5659   -2.1392  -15.7735 C   0  0  0  0  0  0  0  0  0  0  0  0
   18.3878   -1.3180  -15.3849 C   0  0  0  0  0  0  0  0  0  0  0  0
   17.4694   -1.7793  -14.4835 O   0  0  0  0  0  0  0  0  0  0  0  0
   18.2455   -0.1835  -15.9006 O   0  0  0  0  0  0  0  0  0  0  0  0
  1  2  1  0
  2 12  2  0
  2  3  1  0
  3  4  2  0
  4  5  1  0
  5  6  1  0
  6  7  1  0
  7  9  1  0
  7  8  1  1
  9 16  1  0
 10  9  2  0
 11  5  2  0
 12 11  1  0
 15 14  1  1
 14 13  1  0
 15 17  1  0
 16 15  1  0
 17 18  2  0
 17 19  1  0
 19 20  1  0
 20 21  1  0
 21 22  1  0
 23 21  2  0
M  END
$$$$
