YSG.pdb
     RDKit          3D

 23 23  0  0  1  0  0  0  0  0999 V2000
   30.3967  -15.2133  -19.1013 O   0  0  0  0  0  0  0  0  0  0  0  0
   29.5580  -15.6841  -18.0813 C   0  0  0  0  0  0  0  0  0  0  0  0
   29.6950  -16.9649  -17.5902 C   0  0  0  0  0  0  0  0  0  0  0  0
   28.8488  -17.3818  -16.5892 C   0  0  0  0  0  0  0  0  0  0  0  0
   27.8603  -16.5738  -16.0472 C   0  0  0  0  0  0  0  0  0  0  0  0
   26.9762  -17.0826  -14.9660 C   0  0  0  0  0  0  0  0  0  0  0  0
   25.9558  -18.0680  -15.5049 C   0  0  2  0  0  0  0  0  0  0  0  0
   24.9182  -17.4296  -16.2530 N   0  0  0  0  0  0  0  0  0  0  0  0
   25.3601  -18.7579  -14.3412 C   0  0  0  0  0  0  0  0  0  0  0  0
   24.3331  -18.3196  -13.7793 O   0  0  0  0  0  0  0  0  0  0  0  0
   27.7237  -15.2924  -16.5390 C   0  0  0  0  0  0  0  0  0  0  0  0
   28.5760  -14.8655  -17.5507 C   0  0  0  0  0  0  0  0  0  0  0  0
   24.5012  -22.8341  -12.0659 O   0  0  0  0  0  0  0  0  0  0  0  0
   25.0440  -22.1113  -13.0999 C   0  0  0  0  0  0  0  0  0  0  0  0
   25.3354  -20.6783  -12.7676 C   0  0  2  0  0  0  0  0  0  0  0  0
   25.9256  -19.9310  -13.8237 N   0  0  0  0  0  0  0  0  0  0  0  0
   26.2623  -20.6030  -11.5827 C   0  0  0  0  0  0  0  0  0  0  0  0
   27.4851  -20.3337  -11.7127 O   0  0  0  0  0  0  0  0  0  0  0  0
   25.7981  -20.8336  -10.2557 N   0  0  0  0  0  0  0  0  0  0  0  0
   26.6495  -20.7206   -9.0947 C   0  0  0  0  0  0  0  0  0  0  0  0
   25.9030  -20.9863   -7.8356 C   0  0  0  0  0  0  0  0  0  0  0  0
   26.5325  -20.9703   -6.6222 O   0  0  0  0  0  0  0  0  0  0  0  0
   24.6739  -21.2280   -7.9014 O   0  0  0  0  0  0  0  0  0  0  0  0
  1  2  1  0
  2 12  2  0
  2  3  1  0
  3  4  2  0
  4  5  1  0
  5  6  1  0
  6  7  1  0
  7  9  1  0
  7  8  1  1
  9 16  1  0
 10  9  2  0
 11  5  2  0
 12 11  1  0
 15 14  1  6
 14 13  1  0
 15 17  1  0
 16 15  1  0
 17 18  2  0
 17 19  1  0
 19 20  1  0
 20 21  1  0
 21 22  1  0
 23 21  2  0
M  END
$$$$
