YSG.pdb
     RDKit          3D

 23 23  0  0  1  0  0  0  0  0999 V2000
   21.4082  -19.3398  -14.3582 O   0  0  0  0  0  0  0  0  0  0  0  0
   21.0549  -18.0795  -14.8607 C   0  0  0  0  0  0  0  0  0  0  0  0
   21.3490  -17.7309  -16.1616 C   0  0  0  0  0  0  0  0  0  0  0  0
   20.9824  -16.4832  -16.6094 C   0  0  0  0  0  0  0  0  0  0  0  0
   20.3288  -15.5544  -15.8133 C   0  0  0  0  0  0  0  0  0  0  0  0
   19.9586  -14.2208  -16.3558 C   0  0  0  0  0  0  0  0  0  0  0  0
   18.5942  -14.2540  -17.0193 C   0  0  2  0  0  0  0  0  0  0  0  0
   18.5882  -15.0240  -18.2237 N   0  0  0  0  0  0  0  0  0  0  0  0
   18.2299  -12.8568  -17.3354 C   0  0  0  0  0  0  0  0  0  0  0  0
   18.6778  -12.2801  -18.3500 O   0  0  0  0  0  0  0  0  0  0  0  0
   20.0348  -15.9036  -14.5117 C   0  0  0  0  0  0  0  0  0  0  0  0
   20.4028  -17.1634  -14.0536 C   0  0  0  0  0  0  0  0  0  0  0  0
   15.0262  -10.8615  -15.3029 O   0  0  0  0  0  0  0  0  0  0  0  0
   15.4297  -10.6108  -16.5915 C   0  0  0  0  0  0  0  0  0  0  0  0
   16.8939  -10.8247  -16.8345 C   0  0  2  0  0  0  0  0  0  0  0  0
   17.3673  -12.1253  -16.5080 N   0  0  0  0  0  0  0  0  0  0  0  0
   17.6984   -9.8330  -16.0357 C   0  0  0  0  0  0  0  0  0  0  0  0
   18.4668  -10.1963  -15.1072 O   0  0  0  0  0  0  0  0  0  0  0  0
   17.6277   -8.4337  -16.2937 N   0  0  0  0  0  0  0  0  0  0  0  0
   18.4394   -7.4642  -15.5962 C   0  0  0  0  0  0  0  0  0  0  0  0
   17.9992   -6.0714  -15.8782 C   0  0  0  0  0  0  0  0  0  0  0  0
   17.0417   -5.8079  -16.8176 O   0  0  0  0  0  0  0  0  0  0  0  0
   18.5235   -5.1302  -15.2358 O   0  0  0  0  0  0  0  0  0  0  0  0
  1  2  1  0
  2 12  2  0
  2  3  1  0
  3  4  2  0
  4  5  1  0
  5  6  1  0
  6  7  1  0
  7  9  1  0
  7  8  1  6
  9 16  1  0
 10  9  2  0
 11  5  2  0
 12 11  1  0
 15 14  1  1
 14 13  1  0
 15 17  1  0
 16 15  1  0
 17 18  2  0
 17 19  1  0
 19 20  1  0
 20 21  1  0
 21 22  1  0
 23 21  2  0
M  END
$$$$
