YSG.pdb
     RDKit          3D

 23 23  0  0  1  0  0  0  0  0999 V2000
   22.4860  -18.6877  -15.1551 O   0  0  0  0  0  0  0  0  0  0  0  0
   22.7465  -17.3140  -15.2585 C   0  0  0  0  0  0  0  0  0  0  0  0
   21.8405  -16.4675  -15.8609 C   0  0  0  0  0  0  0  0  0  0  0  0
   22.1403  -15.1274  -15.9387 C   0  0  0  0  0  0  0  0  0  0  0  0
   23.3142  -14.5834  -15.4388 C   0  0  0  0  0  0  0  0  0  0  0  0
   23.5808  -13.1255  -15.5535 C   0  0  0  0  0  0  0  0  0  0  0  0
   23.8425  -12.7236  -16.9933 C   0  0  2  0  0  0  0  0  0  0  0  0
   25.1237  -13.1539  -17.4590 N   0  0  0  0  0  0  0  0  0  0  0  0
   23.7758  -11.2482  -17.0522 C   0  0  0  0  0  0  0  0  0  0  0  0
   24.7152  -10.5362  -16.6363 O   0  0  0  0  0  0  0  0  0  0  0  0
   24.2204  -15.4308  -14.8362 C   0  0  0  0  0  0  0  0  0  0  0  0
   23.9228  -16.7862  -14.7547 C   0  0  0  0  0  0  0  0  0  0  0  0
   20.2977   -9.0990  -18.5144 O   0  0  0  0  0  0  0  0  0  0  0  0
   21.5926   -8.7072  -18.7509 C   0  0  0  0  0  0  0  0  0  0  0  0
   22.5794   -9.1791  -17.7250 C   0  0  2  0  0  0  0  0  0  0  0  0
   22.6549  -10.5914  -17.5776 N   0  0  0  0  0  0  0  0  0  0  0  0
   22.2388   -8.5979  -16.3778 C   0  0  0  0  0  0  0  0  0  0  0  0
   21.7050   -9.2902  -15.4721 O   0  0  0  0  0  0  0  0  0  0  0  0
   22.5053   -7.2340  -16.0639 N   0  0  0  0  0  0  0  0  0  0  0  0
   22.1373   -6.6312  -14.8043 C   0  0  0  0  0  0  0  0  0  0  0  0
   20.6931   -6.2765  -14.7638 C   0  0  0  0  0  0  0  0  0  0  0  0
   20.1621   -5.3683  -15.6367 O   0  0  0  0  0  0  0  0  0  0  0  0
   19.9593   -6.8276  -13.9086 O   0  0  0  0  0  0  0  0  0  0  0  0
  1  2  1  0
  2 12  2  0
  2  3  1  0
  3  4  2  0
  4  5  1  0
  5  6  1  0
  6  7  1  0
  7  9  1  0
  7  8  1  1
  9 16  1  0
 10  9  2  0
 11  5  2  0
 12 11  1  0
 15 14  1  6
 14 13  1  0
 15 17  1  0
 16 15  1  0
 17 18  2  0
 17 19  1  0
 19 20  1  0
 20 21  1  0
 21 22  1  0
 23 21  2  0
M  END
$$$$
