YSG.pdb
     RDKit          3D

 23 23  0  0  1  0  0  0  0  0999 V2000
   20.1012    4.8419  -11.2727 O   0  0  0  0  0  0  0  0  0  0  0  0
   20.9586    4.0653  -10.4807 C   0  0  0  0  0  0  0  0  0  0  0  0
   21.1356    2.7229  -10.7395 C   0  0  0  0  0  0  0  0  0  0  0  0
   21.9871    2.0023   -9.9349 C   0  0  0  0  0  0  0  0  0  0  0  0
   22.6794    2.5620   -8.8714 C   0  0  0  0  0  0  0  0  0  0  0  0
   23.5862    1.7298   -8.0377 C   0  0  0  0  0  0  0  0  0  0  0  0
   25.0429    2.0445   -8.3235 C   0  0  2  0  0  0  0  0  0  0  0  0
   25.5117    1.4293   -9.5258 N   0  0  0  0  0  0  0  0  0  0  0  0
   25.8303    1.5365   -7.1803 C   0  0  0  0  0  0  0  0  0  0  0  0
   26.4579    0.4577   -7.2492 O   0  0  0  0  0  0  0  0  0  0  0  0
   22.5020    3.9052   -8.6127 C   0  0  0  0  0  0  0  0  0  0  0  0
   21.6426    4.6385   -9.4226 C   0  0  0  0  0  0  0  0  0  0  0  0
   29.0682    2.4148   -4.6946 O   0  0  0  0  0  0  0  0  0  0  0  0
   27.7790    2.8462   -4.4997 C   0  0  0  0  0  0  0  0  0  0  0  0
   26.7274    1.8495   -4.8863 C   0  0  2  0  0  0  0  0  0  0  0  0
   25.9026    2.2468   -5.9744 N   0  0  0  0  0  0  0  0  0  0  0  0
   25.8278    1.5686   -3.7114 C   0  0  0  0  0  0  0  0  0  0  0  0
   24.8311    2.2921   -3.4508 O   0  0  0  0  0  0  0  0  0  0  0  0
   26.0626    0.4685   -2.8372 N   0  0  0  0  0  0  0  0  0  0  0  0
   25.2115    0.1641   -1.7110 C   0  0  0  0  0  0  0  0  0  0  0  0
   25.2024    1.2671   -0.7127 C   0  0  0  0  0  0  0  0  0  0  0  0
   24.0587    1.6106   -0.0473 O   0  0  0  0  0  0  0  0  0  0  0  0
   26.2698    1.8857   -0.4861 O   0  0  0  0  0  0  0  0  0  0  0  0
  1  2  1  0
  2 12  2  0
  2  3  1  0
  3  4  2  0
  4  5  1  0
  5  6  1  0
  6  7  1  0
  7  9  1  0
  7  8  1  6
  9 16  1  0
 10  9  2  0
 11  5  2  0
 12 11  1  0
 15 14  1  1
 14 13  1  0
 15 17  1  0
 16 15  1  0
 17 18  2  0
 17 19  1  0
 19 20  1  0
 20 21  1  0
 21 22  1  0
 23 21  2  0
M  END
$$$$
