YSG.pdb
     RDKit          3D

 23 23  0  0  1  0  0  0  0  0999 V2000
   28.8503  -12.5844  -17.1563 O   0  0  0  0  0  0  0  0  0  0  0  0
   27.7884  -11.6789  -17.0227 C   0  0  0  0  0  0  0  0  0  0  0  0
   27.5909  -10.9921  -15.8438 C   0  0  0  0  0  0  0  0  0  0  0  0
   26.5354  -10.1142  -15.7604 C   0  0  0  0  0  0  0  0  0  0  0  0
   25.6561   -9.8848  -16.8082 C   0  0  0  0  0  0  0  0  0  0  0  0
   24.5333   -8.9225  -16.6563 C   0  0  0  0  0  0  0  0  0  0  0  0
   23.4396   -9.4861  -15.7680 C   0  0  2  0  0  0  0  0  0  0  0  0
   22.9527  -10.7481  -16.2304 N   0  0  0  0  0  0  0  0  0  0  0  0
   22.3307   -8.5087  -15.7698 C   0  0  0  0  0  0  0  0  0  0  0  0
   21.4064   -8.5732  -16.6089 O   0  0  0  0  0  0  0  0  0  0  0  0
   25.8541  -10.5722  -17.9875 C   0  0  0  0  0  0  0  0  0  0  0  0
   26.9193  -11.4607  -18.0777 C   0  0  0  0  0  0  0  0  0  0  0  0
   20.2702   -7.3745  -12.7125 O   0  0  0  0  0  0  0  0  0  0  0  0
   20.0061   -6.9913  -14.0046 C   0  0  0  0  0  0  0  0  0  0  0  0
   21.2094   -6.5308  -14.7721 C   0  0  2  0  0  0  0  0  0  0  0  0
   22.2743   -7.4714  -14.8292 N   0  0  0  0  0  0  0  0  0  0  0  0
   21.7526   -5.2635  -14.1656 C   0  0  0  0  0  0  0  0  0  0  0  0
   22.6581   -5.2813  -13.2913 O   0  0  0  0  0  0  0  0  0  0  0  0
   21.2664   -3.9819  -14.5536 N   0  0  0  0  0  0  0  0  0  0  0  0
   21.7814   -2.7479  -14.0079 C   0  0  0  0  0  0  0  0  0  0  0  0
   21.0776   -1.5621  -14.5660 C   0  0  0  0  0  0  0  0  0  0  0  0
   20.1412   -1.6940  -15.5532 O   0  0  0  0  0  0  0  0  0  0  0  0
   21.3571   -0.4257  -14.1144 O   0  0  0  0  0  0  0  0  0  0  0  0
  1  2  1  0
  2 12  2  0
  2  3  1  0
  3  4  2  0
  4  5  1  0
  5  6  1  0
  6  7  1  0
  7  9  1  0
  7  8  1  6
  9 16  1  0
 10  9  2  0
 11  5  2  0
 12 11  1  0
 15 14  1  1
 14 13  1  0
 15 17  1  0
 16 15  1  0
 17 18  2  0
 17 19  1  0
 19 20  1  0
 20 21  1  0
 21 22  1  0
 23 21  2  0
M  END
$$$$
