YSG.pdb
     RDKit          3D

 23 23  0  0  1  0  0  0  0  0999 V2000
   16.6754  -14.9042  -14.4005 O   0  0  0  0  0  0  0  0  0  0  0  0
   17.7650  -15.7832  -14.3257 C   0  0  0  0  0  0  0  0  0  0  0  0
   17.5709  -17.1480  -14.3115 C   0  0  0  0  0  0  0  0  0  0  0  0
   18.6710  -17.9702  -14.2372 C   0  0  0  0  0  0  0  0  0  0  0  0
   19.9715  -17.4921  -14.1755 C   0  0  0  0  0  0  0  0  0  0  0  0
   21.1199  -18.4326  -14.0964 C   0  0  0  0  0  0  0  0  0  0  0  0
   21.8685  -18.5021  -15.4146 C   0  0  2  0  0  0  0  0  0  0  0  0
   21.0900  -19.0937  -16.4574 N   0  0  0  0  0  0  0  0  0  0  0  0
   23.0765  -19.3228  -15.1863 C   0  0  0  0  0  0  0  0  0  0  0  0
   22.9982  -20.5513  -14.9688 O   0  0  0  0  0  0  0  0  0  0  0  0
   20.1652  -16.1266  -14.1897 C   0  0  0  0  0  0  0  0  0  0  0  0
   19.0571  -15.2906  -14.2647 C   0  0  0  0  0  0  0  0  0  0  0  0
   26.9185  -17.5486  -15.3286 O   0  0  0  0  0  0  0  0  0  0  0  0
   26.7955  -18.9063  -15.4950 C   0  0  0  0  0  0  0  0  0  0  0  0
   25.5394  -19.4894  -14.9196 C   0  0  2  0  0  0  0  0  0  0  0  0
   24.3567  -18.7533  -15.2052 N   0  0  0  0  0  0  0  0  0  0  0  0
   25.6600  -19.5948  -13.4219 C   0  0  0  0  0  0  0  0  0  0  0  0
   25.0579  -18.8032  -12.6502 O   0  0  0  0  0  0  0  0  0  0  0  0
   26.4630  -20.5977  -12.8062 N   0  0  0  0  0  0  0  0  0  0  0  0
   26.5949  -20.7291  -11.3741 C   0  0  0  0  0  0  0  0  0  0  0  0
   25.6460  -21.7333  -10.8228 C   0  0  0  0  0  0  0  0  0  0  0  0
   25.6372  -22.0431   -9.4913 O   0  0  0  0  0  0  0  0  0  0  0  0
   24.8441  -22.2993  -11.6038 O   0  0  0  0  0  0  0  0  0  0  0  0
  1  2  1  0
  2 12  2  0
  2  3  1  0
  3  4  2  0
  4  5  1  0
  5  6  1  0
  6  7  1  0
  7  9  1  0
  7  8  1  6
  9 16  1  0
 10  9  2  0
 11  5  2  0
 12 11  1  0
 15 14  1  1
 14 13  1  0
 15 17  1  0
 16 15  1  0
 17 18  2  0
 17 19  1  0
 19 20  1  0
 20 21  1  0
 21 22  1  0
 23 21  2  0
M  END
$$$$
