YSG.pdb
     RDKit          3D

 23 23  0  0  1  0  0  0  0  0999 V2000
   27.6709   -1.8365  -24.7974 O   0  0  0  0  0  0  0  0  0  0  0  0
   26.8388   -2.4693  -23.8632 C   0  0  0  0  0  0  0  0  0  0  0  0
   26.9757   -2.2209  -22.5141 C   0  0  0  0  0  0  0  0  0  0  0  0
   26.1362   -2.8657  -21.6359 C   0  0  0  0  0  0  0  0  0  0  0  0
   25.1545   -3.7572  -22.0423 C   0  0  0  0  0  0  0  0  0  0  0  0
   24.2774   -4.4229  -21.0437 C   0  0  0  0  0  0  0  0  0  0  0  0
   24.1494   -5.9087  -21.3248 C   0  0  2  0  0  0  0  0  0  0  0  0
   23.4340   -6.1791  -22.5326 N   0  0  0  0  0  0  0  0  0  0  0  0
   23.4207   -6.5058  -20.1858 C   0  0  0  0  0  0  0  0  0  0  0  0
   22.1732   -6.4654  -20.1169 O   0  0  0  0  0  0  0  0  0  0  0  0
   25.0179   -4.0054  -23.3922 C   0  0  0  0  0  0  0  0  0  0  0  0
   25.8636   -3.3566  -24.2845 C   0  0  0  0  0  0  0  0  0  0  0  0
   23.4898   -9.6105  -16.4797 O   0  0  0  0  0  0  0  0  0  0  0  0
   24.1159   -9.0191  -17.5494 C   0  0  0  0  0  0  0  0  0  0  0  0
   23.4405   -7.7790  -18.0542 C   0  0  2  0  0  0  0  0  0  0  0  0
   24.1024   -7.1406  -19.1388 N   0  0  0  0  0  0  0  0  0  0  0  0
   23.3145   -6.7722  -16.9410 C   0  0  0  0  0  0  0  0  0  0  0  0
   24.2974   -6.0909  -16.5480 O   0  0  0  0  0  0  0  0  0  0  0  0
   22.0743   -6.5427  -16.2785 N   0  0  0  0  0  0  0  0  0  0  0  0
   21.9056   -5.5417  -15.2514 C   0  0  0  0  0  0  0  0  0  0  0  0
   21.5070   -6.1466  -13.9521 C   0  0  0  0  0  0  0  0  0  0  0  0
   21.3949   -7.5012  -13.8063 O   0  0  0  0  0  0  0  0  0  0  0  0
   21.2721   -5.3895  -12.9799 O   0  0  0  0  0  0  0  0  0  0  0  0
  1  2  1  0
  2 12  2  0
  2  3  1  0
  3  4  2  0
  4  5  1  0
  5  6  1  0
  6  7  1  0
  7  9  1  0
  7  8  1  6
  9 16  1  0
 10  9  2  0
 11  5  2  0
 12 11  1  0
 15 14  1  1
 14 13  1  0
 15 17  1  0
 16 15  1  0
 17 18  2  0
 17 19  1  0
 19 20  1  0
 20 21  1  0
 21 22  1  0
 23 21  2  0
M  END
$$$$
