YSG.pdb
     RDKit          3D

 23 23  0  0  1  0  0  0  0  0999 V2000
   28.5981  -19.9791   -5.9787 O   0  0  0  0  0  0  0  0  0  0  0  0
   28.0030  -20.0443   -7.2464 C   0  0  0  0  0  0  0  0  0  0  0  0
   26.6532  -19.8135   -7.4049 C   0  0  0  0  0  0  0  0  0  0  0  0
   26.1147  -19.8887   -8.6683 C   0  0  0  0  0  0  0  0  0  0  0  0
   26.8659  -20.1867   -9.7955 C   0  0  0  0  0  0  0  0  0  0  0  0
   26.2252  -20.2534  -11.1352 C   0  0  0  0  0  0  0  0  0  0  0  0
   25.6945  -21.6454  -11.4247 C   0  0  2  0  0  0  0  0  0  0  0  0
   26.6349  -22.4546  -12.1349 N   0  0  0  0  0  0  0  0  0  0  0  0
   24.4761  -21.4844  -12.2459 C   0  0  0  0  0  0  0  0  0  0  0  0
   24.5151  -21.5644  -13.4927 O   0  0  0  0  0  0  0  0  0  0  0  0
   28.2164  -20.4176   -9.6364 C   0  0  0  0  0  0  0  0  0  0  0  0
   28.7662  -20.3429   -8.3619 C   0  0  0  0  0  0  0  0  0  0  0  0
   19.8663  -22.1791  -11.9157 O   0  0  0  0  0  0  0  0  0  0  0  0
   20.7707  -21.2089  -11.5595 C   0  0  0  0  0  0  0  0  0  0  0  0
   22.0157  -21.1859  -12.3953 C   0  0  2  0  0  0  0  0  0  0  0  0
   23.2294  -21.2357  -11.6561 N   0  0  0  0  0  0  0  0  0  0  0  0
   22.0464  -19.9382  -13.2385 C   0  0  0  0  0  0  0  0  0  0  0  0
   22.5260  -18.8573  -12.8070 O   0  0  0  0  0  0  0  0  0  0  0  0
   21.5331  -19.9221  -14.5673 N   0  0  0  0  0  0  0  0  0  0  0  0
   21.4482  -18.7196  -15.3624 C   0  0  0  0  0  0  0  0  0  0  0  0
   22.4152  -18.7365  -16.4928 C   0  0  0  0  0  0  0  0  0  0  0  0
   22.1896  -19.4965  -17.6064 O   0  0  0  0  0  0  0  0  0  0  0  0
   23.4527  -18.0363  -16.4108 O   0  0  0  0  0  0  0  0  0  0  0  0
  1  2  1  0
  2 12  2  0
  2  3  1  0
  3  4  2  0
  4  5  1  0
  5  6  1  0
  6  7  1  0
  7  9  1  0
  7  8  1  6
  9 16  1  0
 10  9  2  0
 11  5  2  0
 12 11  1  0
 15 14  1  1
 14 13  1  0
 15 17  1  0
 16 15  1  0
 17 18  2  0
 17 19  1  0
 19 20  1  0
 20 21  1  0
 21 22  1  0
 23 21  2  0
M  END
$$$$
