YSG.pdb
     RDKit          3D

 23 23  0  0  1  0  0  0  0  0999 V2000
   25.7913  -18.2146  -14.9225 O   0  0  0  0  0  0  0  0  0  0  0  0
   25.6329  -16.8500  -15.2022 C   0  0  0  0  0  0  0  0  0  0  0  0
   26.5778  -15.9322  -14.7956 C   0  0  0  0  0  0  0  0  0  0  0  0
   26.3786  -14.6042  -15.0932 C   0  0  0  0  0  0  0  0  0  0  0  0
   25.2694  -14.1408  -15.7850 C   0  0  0  0  0  0  0  0  0  0  0  0
   25.1110  -12.6918  -16.0764 C   0  0  0  0  0  0  0  0  0  0  0  0
   25.0034  -12.4372  -17.5685 C   0  0  2  0  0  0  0  0  0  0  0  0
   26.2365  -12.6661  -18.2547 N   0  0  0  0  0  0  0  0  0  0  0  0
   24.6077  -11.0235  -17.7414 C   0  0  0  0  0  0  0  0  0  0  0  0
   25.4499  -10.1388  -18.0068 O   0  0  0  0  0  0  0  0  0  0  0  0
   24.3243  -15.0595  -16.1915 C   0  0  0  0  0  0  0  0  0  0  0  0
   24.5202  -16.4031  -15.8936 C   0  0  0  0  0  0  0  0  0  0  0  0
   22.0790   -9.5576  -20.1236 O   0  0  0  0  0  0  0  0  0  0  0  0
   21.7358   -9.1544  -18.8565 C   0  0  0  0  0  0  0  0  0  0  0  0
   22.8348   -9.2883  -17.8450 C   0  0  2  0  0  0  0  0  0  0  0  0
   23.2712  -10.6218  -17.6139 N   0  0  0  0  0  0  0  0  0  0  0  0
   22.3900   -8.7189  -16.5234 C   0  0  0  0  0  0  0  0  0  0  0  0
   21.8383   -9.4324  -15.6452 O   0  0  0  0  0  0  0  0  0  0  0  0
   22.5730   -7.3427  -16.2038 N   0  0  0  0  0  0  0  0  0  0  0  0
   22.1179   -6.7565  -14.9649 C   0  0  0  0  0  0  0  0  0  0  0  0
   22.3644   -5.2899  -14.9255 C   0  0  0  0  0  0  0  0  0  0  0  0
   21.9503   -4.5304  -13.8671 O   0  0  0  0  0  0  0  0  0  0  0  0
   22.9641   -4.7520  -15.8870 O   0  0  0  0  0  0  0  0  0  0  0  0
  1  2  1  0
  2 12  2  0
  2  3  1  0
  3  4  2  0
  4  5  1  0
  5  6  1  0
  6  7  1  0
  7  9  1  0
  7  8  1  6
  9 16  1  0
 10  9  2  0
 11  5  2  0
 12 11  1  0
 15 14  1  6
 14 13  1  0
 15 17  1  0
 16 15  1  0
 17 18  2  0
 17 19  1  0
 19 20  1  0
 20 21  1  0
 21 22  1  0
 23 21  2  0
M  END
$$$$
