VEK.pdb
     RDKit          3D

 26 25  0  0  1  0  0  0  0  0999 V2000
   19.7262  -10.0980  -20.3253 C   0  0  0  0  0  0  0  0  0  0  0  0
   20.5383  -11.2737  -19.8296 C   0  0  1  0  0  0  0  0  0  0  0  0
   21.0460  -12.0403  -21.0025 C   0  0  0  0  0  0  0  0  0  0  0  0
   21.6079  -10.8139  -18.8781 C   0  0  2  0  0  0  0  0  0  0  0  0
   22.2838  -11.9753  -18.3492 N   0  0  0  0  0  0  0  0  0  0  0  0
   21.0522  -10.0384  -17.7327 C   0  0  0  0  0  0  0  0  0  0  0  0
   20.4258  -10.6427  -16.8446 O   0  0  0  0  0  0  0  0  0  0  0  0
   21.2161   -8.6300  -17.6242 N   0  0  0  0  0  0  0  0  0  0  0  0
   20.7577   -7.7669  -16.5983 C   0  0  1  0  0  0  0  0  0  0  0  0
   21.7810   -7.0088  -15.8510 C   0  0  0  0  0  0  0  0  0  0  0  0
   21.1468   -6.2422  -14.7183 C   0  0  0  0  0  0  0  0  0  0  0  0
   22.1698   -5.6502  -13.8369 C   0  0  0  0  0  0  0  0  0  0  0  0
   23.3872   -5.8156  -14.0651 O   0  0  0  0  0  0  0  0  0  0  0  0
   19.5753   -6.9497  -17.0242 C   0  0  0  0  0  0  0  0  0  0  0  0
   19.6961   -6.1200  -17.9531 O   0  0  0  0  0  0  0  0  0  0  0  0
   21.7960   -4.8991  -12.7385 O   0  0  0  0  0  0  0  0  0  0  0  0
   18.3179   -7.0625  -16.4319 N   0  0  0  0  0  0  0  0  0  0  0  0
   17.1500   -6.2042  -16.8760 C   0  0  1  0  0  0  0  0  0  0  0  0
   15.9898   -7.0427  -16.4571 C   0  0  0  0  0  0  0  0  0  0  0  0
   15.7104   -8.3509  -17.0162 C   0  0  0  0  0  0  0  0  0  0  0  0
   14.6389   -9.2246  -16.5242 C   0  0  0  0  0  0  0  0  0  0  0  0
   14.4909  -10.5442  -17.2488 C   0  0  0  0  0  0  0  0  0  0  0  0
   13.3414  -11.2911  -16.8389 N   0  0  0  0  0  0  0  0  0  0  0  0
   17.3019   -4.8991  -16.2328 C   0  0  0  0  0  0  0  0  0  0  0  0
   17.1850   -3.7515  -17.0625 O   0  0  0  0  0  0  0  0  0  0  0  0
   17.5252   -4.7109  -15.0194 O   0  0  0  0  0  0  0  0  0  0  0  0
  2  4  1  0
  2  1  1  6
  3  2  1  0
  4  6  1  0
  4  5  1  1
  6  7  2  0
  8  9  1  0
  8  6  1  0
  9 10  1  6
 11 10  1  0
 12 11  1  0
 12 13  2  0
 14 15  2  0
 14  9  1  0
 16 12  1  0
 17 14  1  0
 18 17  1  0
 18 24  1  0
 18 19  1  1
 20 19  1  0
 21 20  1  0
 22 21  1  0
 23 22  1  0
 24 25  1  0
 26 24  2  0
M  END
$$$$
