VEK.pdb
     RDKit          3D

 26 25  0  0  1  0  0  0  0  0999 V2000
   19.0389  -14.2184    2.9690 C   0  0  0  0  0  0  0  0  0  0  0  0
   18.0765  -15.2002    2.3387 C   0  0  1  0  0  0  0  0  0  0  0  0
   18.7491  -16.5240    2.2119 C   0  0  0  0  0  0  0  0  0  0  0  0
   16.7802  -15.2327    3.0999 C   0  0  2  0  0  0  0  0  0  0  0  0
   16.1412  -13.9436    2.9763 N   0  0  0  0  0  0  0  0  0  0  0  0
   16.9815  -15.5140    4.5500 C   0  0  0  0  0  0  0  0  0  0  0  0
   17.1624  -14.5611    5.3280 O   0  0  0  0  0  0  0  0  0  0  0  0
   16.9730  -16.8373    5.0704 N   0  0  0  0  0  0  0  0  0  0  0  0
   17.3229  -17.2734    6.3723 C   0  0  1  0  0  0  0  0  0  0  0  0
   17.0555  -18.6877    6.7018 C   0  0  0  0  0  0  0  0  0  0  0  0
   15.5710  -18.9460    6.7514 C   0  0  0  0  0  0  0  0  0  0  0  0
   15.2830  -20.3910    6.8062 C   0  0  0  0  0  0  0  0  0  0  0  0
   14.4372  -20.9062    6.0442 O   0  0  0  0  0  0  0  0  0  0  0  0
   18.6780  -16.7892    6.7928 C   0  0  0  0  0  0  0  0  0  0  0  0
   19.6552  -16.9350    6.0248 O   0  0  0  0  0  0  0  0  0  0  0  0
   15.9478  -21.2024    7.7063 O   0  0  0  0  0  0  0  0  0  0  0  0
   18.9196  -16.1707    8.0190 N   0  0  0  0  0  0  0  0  0  0  0  0
   20.2988  -15.6688    8.3981 C   0  0  1  0  0  0  0  0  0  0  0  0
   20.0639  -14.1989    8.4916 C   0  0  0  0  0  0  0  0  0  0  0  0
   21.0779  -13.2568    8.9234 C   0  0  0  0  0  0  0  0  0  0  0  0
   20.8675  -11.8049    8.9530 C   0  0  0  0  0  0  0  0  0  0  0  0
   22.0386  -10.9877    9.4520 C   0  0  0  0  0  0  0  0  0  0  0  0
   21.7550   -9.5884    9.5471 N   0  0  0  0  0  0  0  0  0  0  0  0
   20.6918  -16.3649    9.6233 C   0  0  0  0  0  0  0  0  0  0  0  0
   19.6822  -17.0983   10.3028 O   0  0  0  0  0  0  0  0  0  0  0  0
   21.8368  -16.3675   10.1197 O   0  0  0  0  0  0  0  0  0  0  0  0
  2  4  1  0
  2  1  1  1
  3  2  1  0
  4  6  1  0
  4  5  1  1
  6  7  2  0
  8  9  1  0
  8  6  1  0
  9 10  1  6
 11 10  1  0
 12 11  1  0
 12 13  2  0
 14 15  2  0
 14  9  1  0
 16 12  1  0
 17 14  1  0
 18 17  1  0
 18 24  1  0
 18 19  1  1
 20 19  1  0
 21 20  1  0
 22 21  1  0
 23 22  1  0
 24 25  1  0
 26 24  2  0
M  END
$$$$
