VEK.pdb
     RDKit          3D

 26 25  0  0  1  0  0  0  0  0999 V2000
   26.9608  -17.7183  -16.1055 C   0  0  0  0  0  0  0  0  0  0  0  0
   27.5178  -18.8885  -16.8849 C   0  0  1  0  0  0  0  0  0  0  0  0
   28.6271  -18.4063  -17.7556 C   0  0  0  0  0  0  0  0  0  0  0  0
   27.8988  -20.0086  -15.9570 C   0  0  2  0  0  0  0  0  0  0  0  0
   28.3696  -21.1215  -16.7476 N   0  0  0  0  0  0  0  0  0  0  0  0
   26.7485  -20.4781  -15.1331 C   0  0  0  0  0  0  0  0  0  0  0  0
   25.7854  -21.0232  -15.7001 O   0  0  0  0  0  0  0  0  0  0  0  0
   26.7186  -20.3219  -13.7200 N   0  0  0  0  0  0  0  0  0  0  0  0
   25.6654  -20.6275  -12.8228 C   0  0  1  0  0  0  0  0  0  0  0  0
   25.9838  -20.6070  -11.3811 C   0  0  0  0  0  0  0  0  0  0  0  0
   24.7841  -21.0263  -10.5700 C   0  0  0  0  0  0  0  0  0  0  0  0
   25.0402  -20.8808   -9.1254 C   0  0  0  0  0  0  0  0  0  0  0  0
   24.1532  -21.1471   -8.2863 O   0  0  0  0  0  0  0  0  0  0  0  0
   24.3881  -19.9292  -13.1809 C   0  0  0  0  0  0  0  0  0  0  0  0
   24.3082  -18.6854  -13.0695 O   0  0  0  0  0  0  0  0  0  0  0  0
   26.2719  -20.4453   -8.6743 O   0  0  0  0  0  0  0  0  0  0  0  0
   23.2562  -20.6003  -13.6423 N   0  0  0  0  0  0  0  0  0  0  0  0
   21.9662  -19.8656  -13.9489 C   0  0  1  0  0  0  0  0  0  0  0  0
   21.7876  -20.1721  -15.3976 C   0  0  0  0  0  0  0  0  0  0  0  0
   20.6169  -19.7770  -16.1562 C   0  0  0  0  0  0  0  0  0  0  0  0
   20.4186  -20.1220  -17.5686 C   0  0  0  0  0  0  0  0  0  0  0  0
   19.1972  -19.5138  -18.2218 C   0  0  0  0  0  0  0  0  0  0  0  0
   19.1034  -19.7939  -19.6218 N   0  0  0  0  0  0  0  0  0  0  0  0
   20.9498  -20.3707  -13.0258 C   0  0  0  0  0  0  0  0  0  0  0  0
   21.1513  -21.6714  -12.4905 O   0  0  0  0  0  0  0  0  0  0  0  0
   19.9235  -19.7556  -12.6709 O   0  0  0  0  0  0  0  0  0  0  0  0
  2  4  1  0
  2  1  1  1
  3  2  1  0
  4  6  1  0
  4  5  1  6
  6  7  2  0
  8  9  1  0
  8  6  1  0
  9 10  1  1
 11 10  1  0
 12 11  1  0
 12 13  2  0
 14 15  2  0
 14  9  1  0
 16 12  1  0
 17 14  1  0
 18 17  1  0
 18 24  1  0
 18 19  1  6
 20 19  1  0
 21 20  1  0
 22 21  1  0
 23 22  1  0
 24 25  1  0
 26 24  2  0
M  END
$$$$
