VEK.pdb
     RDKit          3D

 26 25  0  0  1  0  0  0  0  0999 V2000
   18.8560  -13.2479  -16.5431 C   0  0  0  0  0  0  0  0  0  0  0  0
   18.9560  -12.0981  -15.5656 C   0  0  1  0  0  0  0  0  0  0  0  0
   20.3901  -11.8719  -15.2293 C   0  0  0  0  0  0  0  0  0  0  0  0
   18.2449  -10.8861  -16.1004 C   0  0  2  0  0  0  0  0  0  0  0  0
   18.8203  -10.5415  -17.3793 N   0  0  0  0  0  0  0  0  0  0  0  0
   18.3785   -9.7067  -15.1983 C   0  0  0  0  0  0  0  0  0  0  0  0
   17.8192   -9.7324  -14.0880 O   0  0  0  0  0  0  0  0  0  0  0  0
   19.1250   -8.5543  -15.5680 N   0  0  0  0  0  0  0  0  0  0  0  0
   19.2768   -7.3383  -14.8567 C   0  0  1  0  0  0  0  0  0  0  0  0
   20.6556   -6.8994  -14.5628 C   0  0  0  0  0  0  0  0  0  0  0  0
   20.6430   -5.6661  -13.6956 C   0  0  0  0  0  0  0  0  0  0  0  0
   22.0004   -5.1133  -13.5355 C   0  0  0  0  0  0  0  0  0  0  0  0
   22.6775   -4.7760  -14.5301 O   0  0  0  0  0  0  0  0  0  0  0  0
   18.3843   -6.2538  -15.3809 C   0  0  0  0  0  0  0  0  0  0  0  0
   18.4988   -5.8752  -16.5682 O   0  0  0  0  0  0  0  0  0  0  0  0
   22.5479   -4.9587  -12.2758 O   0  0  0  0  0  0  0  0  0  0  0  0
   17.4101   -5.6268  -14.6047 N   0  0  0  0  0  0  0  0  0  0  0  0
   16.5179   -4.5412  -15.1732 C   0  0  1  0  0  0  0  0  0  0  0  0
   15.2665   -4.7444  -14.3875 C   0  0  0  0  0  0  0  0  0  0  0  0
   14.1040   -5.4375  -14.9075 C   0  0  0  0  0  0  0  0  0  0  0  0
   12.8912   -5.6801  -14.1178 C   0  0  0  0  0  0  0  0  0  0  0  0
   11.7906   -6.4344  -14.8306 C   0  0  0  0  0  0  0  0  0  0  0  0
   10.5671   -6.4868  -14.0906 N   0  0  0  0  0  0  0  0  0  0  0  0
   17.2194   -3.2691  -15.0008 C   0  0  0  0  0  0  0  0  0  0  0  0
   16.8065   -2.1861  -15.8229 O   0  0  0  0  0  0  0  0  0  0  0  0
   18.1479   -3.0571  -14.1943 O   0  0  0  0  0  0  0  0  0  0  0  0
  2  4  1  0
  2  1  1  6
  3  2  1  0
  4  6  1  0
  4  5  1  6
  6  7  2  0
  8  9  1  0
  8  6  1  0
  9 10  1  6
 11 10  1  0
 12 11  1  0
 12 13  2  0
 14 15  2  0
 14  9  1  0
 16 12  1  0
 17 14  1  0
 18 17  1  0
 18 24  1  0
 18 19  1  1
 20 19  1  0
 21 20  1  0
 22 21  1  0
 23 22  1  0
 24 25  1  0
 26 24  2  0
M  END
$$$$
