VEK.pdb
     RDKit          3D

 26 25  0  0  1  0  0  0  0  0999 V2000
   20.7795  -14.0818  -19.6203 C   0  0  0  0  0  0  0  0  0  0  0  0
   19.7546  -13.0263  -19.2698 C   0  0  1  0  0  0  0  0  0  0  0  0
   18.8783  -13.5449  -18.1815 C   0  0  0  0  0  0  0  0  0  0  0  0
   20.4280  -11.7193  -18.9550 C   0  0  2  0  0  0  0  0  0  0  0  0
   21.3465  -11.9265  -17.8601 N   0  0  0  0  0  0  0  0  0  0  0  0
   19.4557  -10.6636  -18.5519 C   0  0  0  0  0  0  0  0  0  0  0  0
   18.6616  -10.2216  -19.4006 O   0  0  0  0  0  0  0  0  0  0  0  0
   19.4085  -10.1467  -17.2281 N   0  0  0  0  0  0  0  0  0  0  0  0
   18.6184   -9.0830  -16.7261 C   0  0  1  0  0  0  0  0  0  0  0  0
   18.1697   -9.1835  -15.3229 C   0  0  0  0  0  0  0  0  0  0  0  0
   17.2657   -8.0284  -14.9743 C   0  0  0  0  0  0  0  0  0  0  0  0
   16.7162   -8.1734  -13.6139 C   0  0  0  0  0  0  0  0  0  0  0  0
   17.2010   -8.9986  -12.8104 O   0  0  0  0  0  0  0  0  0  0  0  0
   19.1633   -7.7383  -17.1032 C   0  0  0  0  0  0  0  0  0  0  0  0
   20.3687   -7.4759  -16.8936 O   0  0  0  0  0  0  0  0  0  0  0  0
   15.6505   -7.3945  -13.2039 O   0  0  0  0  0  0  0  0  0  0  0  0
   18.3872   -6.7383  -17.6882 N   0  0  0  0  0  0  0  0  0  0  0  0
   18.9470   -5.3569  -17.9644 C   0  0  1  0  0  0  0  0  0  0  0  0
   17.9487   -4.8211  -18.9344 C   0  0  0  0  0  0  0  0  0  0  0  0
   18.0026   -3.4748  -19.4698 C   0  0  0  0  0  0  0  0  0  0  0  0
   17.0632   -2.9714  -20.4784 C   0  0  0  0  0  0  0  0  0  0  0  0
   17.2775   -1.5370  -20.9088 C   0  0  0  0  0  0  0  0  0  0  0  0
   16.4146   -1.1293  -21.9749 N   0  0  0  0  0  0  0  0  0  0  0  0
   19.0664   -4.6723  -16.6771 C   0  0  0  0  0  0  0  0  0  0  0  0
   20.2107   -3.8522  -16.4843 O   0  0  0  0  0  0  0  0  0  0  0  0
   18.2491   -4.7488  -15.7371 O   0  0  0  0  0  0  0  0  0  0  0  0
  2  4  1  0
  2  1  1  1
  3  2  1  0
  4  6  1  0
  4  5  1  1
  6  7  2  0
  8  9  1  0
  8  6  1  0
  9 10  1  1
 11 10  1  0
 12 11  1  0
 12 13  2  0
 14 15  2  0
 14  9  1  0
 16 12  1  0
 17 14  1  0
 18 17  1  0
 18 24  1  0
 18 19  1  6
 20 19  1  0
 21 20  1  0
 22 21  1  0
 23 22  1  0
 24 25  1  0
 26 24  2  0
M  END
$$$$
