VEK.pdb
     RDKit          3D

 26 25  0  0  1  0  0  0  0  0999 V2000
   18.2659  -12.9108  -18.7708 C   0  0  0  0  0  0  0  0  0  0  0  0
   18.0762  -13.1577  -17.2909 C   0  0  1  0  0  0  0  0  0  0  0  0
   17.9025  -14.6201  -17.0624 C   0  0  0  0  0  0  0  0  0  0  0  0
   19.1954  -12.5349  -16.5032 C   0  0  2  0  0  0  0  0  0  0  0  0
   19.0568  -12.9242  -15.1195 N   0  0  0  0  0  0  0  0  0  0  0  0
   19.1755  -11.0457  -16.5707 C   0  0  0  0  0  0  0  0  0  0  0  0
   19.3802  -10.4905  -17.6644 O   0  0  0  0  0  0  0  0  0  0  0  0
   18.9302  -10.2413  -15.4241 N   0  0  0  0  0  0  0  0  0  0  0  0
   18.8280   -8.8303  -15.3442 C   0  0  1  0  0  0  0  0  0  0  0  0
   17.6580   -8.2807  -14.6307 C   0  0  0  0  0  0  0  0  0  0  0  0
   17.6035   -6.7818  -14.7833 C   0  0  0  0  0  0  0  0  0  0  0  0
   16.3807   -6.2281  -14.1734 C   0  0  0  0  0  0  0  0  0  0  0  0
   16.1427   -5.0019  -14.2120 O   0  0  0  0  0  0  0  0  0  0  0  0
   20.1302   -8.1822  -14.9816 C   0  0  0  0  0  0  0  0  0  0  0  0
   20.8221   -8.6560  -14.0527 O   0  0  0  0  0  0  0  0  0  0  0  0
   15.4737   -7.0612  -13.5460 O   0  0  0  0  0  0  0  0  0  0  0  0
   20.6284   -7.0551  -15.6344 N   0  0  0  0  0  0  0  0  0  0  0  0
   21.9944   -6.4855  -15.3067 C   0  0  1  0  0  0  0  0  0  0  0  0
   22.4338   -5.9832  -16.6405 C   0  0  0  0  0  0  0  0  0  0  0  0
   23.8239   -5.9151  -17.0468 C   0  0  0  0  0  0  0  0  0  0  0  0
   24.2600   -5.3660  -18.3359 C   0  0  0  0  0  0  0  0  0  0  0  0
   25.7268   -5.5476  -18.6578 C   0  0  0  0  0  0  0  0  0  0  0  0
   26.1461   -4.8277  -19.8211 N   0  0  0  0  0  0  0  0  0  0  0  0
   21.8082   -5.4963  -14.2451 C   0  0  0  0  0  0  0  0  0  0  0  0
   22.8092   -5.4313  -13.2387 O   0  0  0  0  0  0  0  0  0  0  0  0
   20.8458   -4.7074  -14.1503 O   0  0  0  0  0  0  0  0  0  0  0  0
  2  4  1  0
  2  1  1  6
  3  2  1  0
  4  6  1  0
  4  5  1  1
  6  7  2  0
  8  9  1  0
  8  6  1  0
  9 10  1  1
 11 10  1  0
 12 11  1  0
 12 13  2  0
 14 15  2  0
 14  9  1  0
 16 12  1  0
 17 14  1  0
 18 17  1  0
 18 24  1  0
 18 19  1  6
 20 19  1  0
 21 20  1  0
 22 21  1  0
 23 22  1  0
 24 25  1  0
 26 24  2  0
M  END
$$$$
