VEK.pdb
     RDKit          3D

 26 25  0  0  1  0  0  0  0  0999 V2000
   16.3045  -10.5880  -17.7849 C   0  0  0  0  0  0  0  0  0  0  0  0
   17.4587   -9.8255  -17.1737 C   0  0  1  0  0  0  0  0  0  0  0  0
   16.9239   -8.6435  -16.4404 C   0  0  0  0  0  0  0  0  0  0  0  0
   18.3135  -10.7391  -16.3397 C   0  0  2  0  0  0  0  0  0  0  0  0
   17.5009  -11.2908  -15.2811 N   0  0  0  0  0  0  0  0  0  0  0  0
   19.4653  -10.0260  -15.7174 C   0  0  0  0  0  0  0  0  0  0  0  0
   19.3404   -9.5709  -14.5670 O   0  0  0  0  0  0  0  0  0  0  0  0
   20.7013   -9.8504  -16.3981 N   0  0  0  0  0  0  0  0  0  0  0  0
   21.8815   -9.2204  -15.9313 C   0  0  1  0  0  0  0  0  0  0  0  0
   23.1638   -9.8872  -16.2336 C   0  0  0  0  0  0  0  0  0  0  0  0
   23.2353  -11.2282  -15.5483 C   0  0  0  0  0  0  0  0  0  0  0  0
   24.4448  -11.9689  -15.9514 C   0  0  0  0  0  0  0  0  0  0  0  0
   25.2117  -12.4599  -15.0957 O   0  0  0  0  0  0  0  0  0  0  0  0
   21.8809   -7.7432  -16.1868 C   0  0  0  0  0  0  0  0  0  0  0  0
   21.6124   -7.3110  -17.3301 O   0  0  0  0  0  0  0  0  0  0  0  0
   24.7506  -12.1324  -17.2894 O   0  0  0  0  0  0  0  0  0  0  0  0
   22.1686   -6.7992  -15.2015 N   0  0  0  0  0  0  0  0  0  0  0  0
   22.0252   -5.3123  -15.4591 C   0  0  1  0  0  0  0  0  0  0  0  0
   20.5589   -5.1942  -15.7049 C   0  0  0  0  0  0  0  0  0  0  0  0
   19.8530   -3.9277  -15.7144 C   0  0  0  0  0  0  0  0  0  0  0  0
   18.4040   -3.8151  -15.9167 C   0  0  0  0  0  0  0  0  0  0  0  0
   17.8526   -2.4065  -15.9032 C   0  0  0  0  0  0  0  0  0  0  0  0
   16.4441   -2.3459  -16.1474 N   0  0  0  0  0  0  0  0  0  0  0  0
   22.5685   -4.6160  -14.2928 C   0  0  0  0  0  0  0  0  0  0  0  0
   22.8105   -3.2222  -14.4263 O   0  0  0  0  0  0  0  0  0  0  0  0
   22.8364   -5.1433  -13.1939 O   0  0  0  0  0  0  0  0  0  0  0  0
  2  4  1  0
  2  1  1  1
  3  2  1  0
  4  6  1  0
  4  5  1  1
  6  7  2  0
  8  9  1  0
  8  6  1  0
  9 10  1  6
 11 10  1  0
 12 11  1  0
 12 13  2  0
 14 15  2  0
 14  9  1  0
 16 12  1  0
 17 14  1  0
 18 17  1  0
 18 24  1  0
 18 19  1  1
 20 19  1  0
 21 20  1  0
 22 21  1  0
 23 22  1  0
 24 25  1  0
 26 24  2  0
M  END
$$$$
