VEK.pdb
     RDKit          3D

 26 25  0  0  1  0  0  0  0  0999 V2000
   19.2689  -15.5304  -18.0405 C   0  0  0  0  0  0  0  0  0  0  0  0
   19.7498  -14.3646  -17.2057 C   0  0  1  0  0  0  0  0  0  0  0  0
   21.1763  -14.5890  -16.8371 C   0  0  0  0  0  0  0  0  0  0  0  0
   19.4886  -13.0640  -17.9136 C   0  0  2  0  0  0  0  0  0  0  0  0
   20.1112  -13.1153  -19.2156 N   0  0  0  0  0  0  0  0  0  0  0  0
   20.0489  -11.8954  -17.1768 C   0  0  0  0  0  0  0  0  0  0  0  0
   19.5844  -11.6102  -16.0591 O   0  0  0  0  0  0  0  0  0  0  0  0
   21.0970  -11.0974  -17.7122 N   0  0  0  0  0  0  0  0  0  0  0  0
   21.6912   -9.9369  -17.1572 C   0  0  1  0  0  0  0  0  0  0  0  0
   23.1023   -9.6736  -17.5031 C   0  0  0  0  0  0  0  0  0  0  0  0
   23.6344   -8.5136  -16.7005 C   0  0  0  0  0  0  0  0  0  0  0  0
   25.0232   -8.1956  -17.0798 C   0  0  0  0  0  0  0  0  0  0  0  0
   25.4526   -7.0236  -17.0198 O   0  0  0  0  0  0  0  0  0  0  0  0
   20.7994   -8.7358  -17.2538 C   0  0  0  0  0  0  0  0  0  0  0  0
   20.5709   -8.2203  -18.3709 O   0  0  0  0  0  0  0  0  0  0  0  0
   25.8763   -9.1943  -17.5100 O   0  0  0  0  0  0  0  0  0  0  0  0
   20.1944   -8.1447  -16.1450 N   0  0  0  0  0  0  0  0  0  0  0  0
   19.3468   -6.8946  -16.2741 C   0  0  1  0  0  0  0  0  0  0  0  0
   18.1277   -7.2826  -15.5075 C   0  0  0  0  0  0  0  0  0  0  0  0
   16.9257   -7.7992  -16.1322 C   0  0  0  0  0  0  0  0  0  0  0  0
   15.7493   -8.2392  -15.3734 C   0  0  0  0  0  0  0  0  0  0  0  0
   14.5416   -8.6132  -16.2040 C   0  0  0  0  0  0  0  0  0  0  0  0
   13.4857   -9.2011  -15.4380 N   0  0  0  0  0  0  0  0  0  0  0  0
   20.1385   -5.7787  -15.7562 C   0  0  0  0  0  0  0  0  0  0  0  0
   20.0202   -4.5336  -16.4306 O   0  0  0  0  0  0  0  0  0  0  0  0
   20.9070   -5.8298  -14.7742 O   0  0  0  0  0  0  0  0  0  0  0  0
  2  4  1  0
  2  1  1  6
  3  2  1  0
  4  6  1  0
  4  5  1  6
  6  7  2  0
  8  9  1  0
  8  6  1  0
  9 10  1  6
 11 10  1  0
 12 11  1  0
 12 13  2  0
 14 15  2  0
 14  9  1  0
 16 12  1  0
 17 14  1  0
 18 17  1  0
 18 24  1  0
 18 19  1  1
 20 19  1  0
 21 20  1  0
 22 21  1  0
 23 22  1  0
 24 25  1  0
 26 24  2  0
M  END
$$$$
