VEK.pdb
     RDKit          3D

 26 25  0  0  1  0  0  0  0  0999 V2000
   23.2808  -12.7398  -18.8130 C   0  0  0  0  0  0  0  0  0  0  0  0
   22.3713  -11.9446  -17.9033 C   0  0  1  0  0  0  0  0  0  0  0  0
   21.4113  -12.8751  -17.2448 C   0  0  0  0  0  0  0  0  0  0  0  0
   23.1778  -11.1074  -16.9497 C   0  0  2  0  0  0  0  0  0  0  0  0
   23.9905  -11.9851  -16.1405 N   0  0  0  0  0  0  0  0  0  0  0  0
   22.3181  -10.2994  -16.0384 C   0  0  0  0  0  0  0  0  0  0  0  0
   21.7311  -10.8700  -15.1024 O   0  0  0  0  0  0  0  0  0  0  0  0
   22.1487   -8.8976  -16.2063 N   0  0  0  0  0  0  0  0  0  0  0  0
   21.3668   -8.0063  -15.4305 C   0  0  1  0  0  0  0  0  0  0  0  0
   22.0138   -6.7545  -14.9894 C   0  0  0  0  0  0  0  0  0  0  0  0
   21.0760   -5.9531  -14.1226 C   0  0  0  0  0  0  0  0  0  0  0  0
   21.7546   -4.7762  -13.5495 C   0  0  0  0  0  0  0  0  0  0  0  0
   21.1058   -3.7644  -13.2077 O   0  0  0  0  0  0  0  0  0  0  0  0
   19.9870   -7.8228  -15.9873 C   0  0  0  0  0  0  0  0  0  0  0  0
   19.8405   -7.4370  -17.1686 O   0  0  0  0  0  0  0  0  0  0  0  0
   23.1264   -4.7739  -13.3807 O   0  0  0  0  0  0  0  0  0  0  0  0
   18.8290   -8.0627  -15.2484 N   0  0  0  0  0  0  0  0  0  0  0  0
   17.4558   -8.0299  -15.8896 C   0  0  1  0  0  0  0  0  0  0  0  0
   16.7006   -8.9788  -15.0214 C   0  0  0  0  0  0  0  0  0  0  0  0
   15.2890   -9.2624  -15.1921 C   0  0  0  0  0  0  0  0  0  0  0  0
   14.5553  -10.2255  -14.3631 C   0  0  0  0  0  0  0  0  0  0  0  0
   13.1061  -10.4385  -14.7413 C   0  0  0  0  0  0  0  0  0  0  0  0
   12.9392  -11.1320  -15.9816 N   0  0  0  0  0  0  0  0  0  0  0  0
   17.0157   -6.6348  -15.9005 C   0  0  0  0  0  0  0  0  0  0  0  0
   16.0858   -6.2576  -16.9065 O   0  0  0  0  0  0  0  0  0  0  0  0
   17.3886   -5.7511  -15.1020 O   0  0  0  0  0  0  0  0  0  0  0  0
  2  4  1  0
  2  1  1  1
  3  2  1  0
  4  6  1  0
  4  5  1  1
  6  7  2  0
  8  9  1  0
  8  6  1  0
  9 10  1  6
 11 10  1  0
 12 11  1  0
 12 13  2  0
 14 15  2  0
 14  9  1  0
 16 12  1  0
 17 14  1  0
 18 17  1  0
 18 24  1  0
 18 19  1  1
 20 19  1  0
 21 20  1  0
 22 21  1  0
 23 22  1  0
 24 25  1  0
 26 24  2  0
M  END
$$$$
