VEK.pdb
     RDKit          3D

 26 25  0  0  1  0  0  0  0  0999 V2000
   24.2524  -21.0682   -7.5279 C   0  0  0  0  0  0  0  0  0  0  0  0
   24.1805  -20.6908   -8.9907 C   0  0  1  0  0  0  0  0  0  0  0  0
   23.3489  -19.4623   -9.1334 C   0  0  0  0  0  0  0  0  0  0  0  0
   25.5608  -20.5777   -9.5761 C   0  0  2  0  0  0  0  0  0  0  0  0
   26.2903  -19.5692   -8.8440 N   0  0  0  0  0  0  0  0  0  0  0  0
   25.5362  -20.1816  -11.0131 C   0  0  0  0  0  0  0  0  0  0  0  0
   25.6596  -18.9799  -11.3079 O   0  0  0  0  0  0  0  0  0  0  0  0
   25.3759  -21.1346  -12.0562 N   0  0  0  0  0  0  0  0  0  0  0  0
   25.3075  -20.9076  -13.4531 C   0  0  1  0  0  0  0  0  0  0  0  0
   26.1324  -21.7763  -14.3163 C   0  0  0  0  0  0  0  0  0  0  0  0
   26.0862  -21.2971  -15.7450 C   0  0  0  0  0  0  0  0  0  0  0  0
   26.8591  -22.1868  -16.6308 C   0  0  0  0  0  0  0  0  0  0  0  0
   27.4105  -23.2157  -16.1847 O   0  0  0  0  0  0  0  0  0  0  0  0
   23.8999  -20.7205  -13.9339 C   0  0  0  0  0  0  0  0  0  0  0  0
   22.9904  -21.4591  -13.4944 O   0  0  0  0  0  0  0  0  0  0  0  0
   26.9865  -21.8951  -17.9759 O   0  0  0  0  0  0  0  0  0  0  0  0
   23.5354  -19.7481  -14.8646 N   0  0  0  0  0  0  0  0  0  0  0  0
   22.0903  -19.5402  -15.2726 C   0  0  1  0  0  0  0  0  0  0  0  0
   22.1456  -18.1768  -15.8747 C   0  0  0  0  0  0  0  0  0  0  0  0
   20.9794  -17.3310  -16.0378 C   0  0  0  0  0  0  0  0  0  0  0  0
   21.0312  -15.9969  -16.6468 C   0  0  0  0  0  0  0  0  0  0  0  0
   19.7093  -15.2654  -16.7249 C   0  0  0  0  0  0  0  0  0  0  0  0
   19.8162  -13.9598  -17.3005 N   0  0  0  0  0  0  0  0  0  0  0  0
   21.7250  -20.6490  -16.1542 C   0  0  0  0  0  0  0  0  0  0  0  0
   20.5162  -21.3364  -15.8621 O   0  0  0  0  0  0  0  0  0  0  0  0
   22.3852  -21.0400  -17.1384 O   0  0  0  0  0  0  0  0  0  0  0  0
  2  4  1  0
  2  1  1  1
  3  2  1  0
  4  6  1  0
  4  5  1  1
  6  7  2  0
  8  9  1  0
  8  6  1  0
  9 10  1  6
 11 10  1  0
 12 11  1  0
 12 13  2  0
 14 15  2  0
 14  9  1  0
 16 12  1  0
 17 14  1  0
 18 17  1  0
 18 24  1  0
 18 19  1  6
 20 19  1  0
 21 20  1  0
 22 21  1  0
 23 22  1  0
 24 25  1  0
 26 24  2  0
M  END
$$$$
