VEK.pdb
     RDKit          3D

 26 25  0  0  1  0  0  0  0  0999 V2000
   19.6536  -24.7553  -13.3716 C   0  0  0  0  0  0  0  0  0  0  0  0
   20.1272  -26.1909  -13.3271 C   0  0  1  0  0  0  0  0  0  0  0  0
   21.2922  -26.3451  -14.2438 C   0  0  0  0  0  0  0  0  0  0  0  0
   20.3920  -26.6167  -11.9096 C   0  0  2  0  0  0  0  0  0  0  0  0
   20.7309  -28.0205  -11.9061 N   0  0  0  0  0  0  0  0  0  0  0  0
   19.2049  -26.4235  -11.0287 C   0  0  0  0  0  0  0  0  0  0  0  0
   18.1883  -27.1106  -11.2301 O   0  0  0  0  0  0  0  0  0  0  0  0
   19.1992  -25.4785   -9.9662 N   0  0  0  0  0  0  0  0  0  0  0  0
   18.1520  -25.1796   -9.0596 C   0  0  1  0  0  0  0  0  0  0  0  0
   18.5203  -25.0110   -7.6397 C   0  0  0  0  0  0  0  0  0  0  0  0
   17.2853  -24.8499   -6.7901 C   0  0  0  0  0  0  0  0  0  0  0  0
   17.6320  -24.7387   -5.3614 C   0  0  0  0  0  0  0  0  0  0  0  0
   16.7458  -24.5672   -4.4973 O   0  0  0  0  0  0  0  0  0  0  0  0
   17.2249  -24.1249   -9.5843 C   0  0  0  0  0  0  0  0  0  0  0  0
   17.6675  -22.9845   -9.8481 O   0  0  0  0  0  0  0  0  0  0  0  0
   18.9500  -24.8229   -4.9535 O   0  0  0  0  0  0  0  0  0  0  0  0
   15.8651  -24.3450   -9.8013 N   0  0  0  0  0  0  0  0  0  0  0  0
   14.9526  -23.2455  -10.3077 C   0  0  1  0  0  0  0  0  0  0  0  0
   13.6863  -23.9970  -10.5448 C   0  0  0  0  0  0  0  0  0  0  0  0
   12.4401  -23.3581  -10.9204 C   0  0  0  0  0  0  0  0  0  0  0  0
   11.1970  -24.0988  -11.1636 C   0  0  0  0  0  0  0  0  0  0  0  0
   10.0346  -23.2718  -11.6669 C   0  0  0  0  0  0  0  0  0  0  0  0
    8.9175  -24.0602  -12.0887 N   0  0  0  0  0  0  0  0  0  0  0  0
   14.9299  -22.1970   -9.2878 C   0  0  0  0  0  0  0  0  0  0  0  0
   14.8698  -20.8525   -9.7434 O   0  0  0  0  0  0  0  0  0  0  0  0
   14.9592  -22.3852   -8.0544 O   0  0  0  0  0  0  0  0  0  0  0  0
  2  4  1  0
  2  1  1  1
  3  2  1  0
  4  6  1  0
  4  5  1  6
  6  7  2  0
  8  9  1  0
  8  6  1  0
  9 10  1  1
 11 10  1  0
 12 11  1  0
 12 13  2  0
 14 15  2  0
 14  9  1  0
 16 12  1  0
 17 14  1  0
 18 17  1  0
 18 24  1  0
 18 19  1  1
 20 19  1  0
 21 20  1  0
 22 21  1  0
 23 22  1  0
 24 25  1  0
 26 24  2  0
M  END
$$$$
