VEK.pdb
     RDKit          3D

 26 25  0  0  1  0  0  0  0  0999 V2000
   24.5114  -21.5493   -8.4991 C   0  0  0  0  0  0  0  0  0  0  0  0
   25.4075  -20.3423   -8.3334 C   0  0  1  0  0  0  0  0  0  0  0  0
   26.1374  -20.4553   -7.0389 C   0  0  0  0  0  0  0  0  0  0  0  0
   26.2960  -20.1744   -9.5346 C   0  0  2  0  0  0  0  0  0  0  0  0
   27.1841  -19.0604   -9.2985 N   0  0  0  0  0  0  0  0  0  0  0  0
   25.5217  -19.8955  -10.7777 C   0  0  0  0  0  0  0  0  0  0  0  0
   24.6942  -18.9674  -10.7753 O   0  0  0  0  0  0  0  0  0  0  0  0
   25.7001  -20.6575  -11.9650 N   0  0  0  0  0  0  0  0  0  0  0  0
   25.0469  -20.5077  -13.2135 C   0  0  1  0  0  0  0  0  0  0  0  0
   25.8793  -20.6331  -14.4266 C   0  0  0  0  0  0  0  0  0  0  0  0
   26.2550  -22.0742  -14.6616 C   0  0  0  0  0  0  0  0  0  0  0  0
   27.1353  -22.2106  -15.8365 C   0  0  0  0  0  0  0  0  0  0  0  0
   27.4932  -21.2076  -16.4903 O   0  0  0  0  0  0  0  0  0  0  0  0
   23.7517  -21.2600  -13.2753 C   0  0  0  0  0  0  0  0  0  0  0  0
   23.6573  -22.3798  -12.7249 O   0  0  0  0  0  0  0  0  0  0  0  0
   27.5807  -23.4568  -16.2351 O   0  0  0  0  0  0  0  0  0  0  0  0
   22.6182  -20.7736  -13.9258 N   0  0  0  0  0  0  0  0  0  0  0  0
   21.3087  -21.5371  -13.9190 C   0  0  1  0  0  0  0  0  0  0  0  0
   20.3170  -20.4242  -13.8671 C   0  0  0  0  0  0  0  0  0  0  0  0
   18.8851  -20.6374  -13.7878 C   0  0  0  0  0  0  0  0  0  0  0  0
   17.9032  -19.5505  -13.8771 C   0  0  0  0  0  0  0  0  0  0  0  0
   16.4532  -19.9766  -13.8122 C   0  0  0  0  0  0  0  0  0  0  0  0
   15.5372  -18.8775  -13.8312 N   0  0  0  0  0  0  0  0  0  0  0  0
   21.2983  -22.3905  -15.1072 C   0  0  0  0  0  0  0  0  0  0  0  0
   20.4431  -23.5250  -15.0814 O   0  0  0  0  0  0  0  0  0  0  0  0
   21.9766  -22.2053  -16.1383 O   0  0  0  0  0  0  0  0  0  0  0  0
  2  4  1  0
  2  1  1  6
  3  2  1  0
  4  6  1  0
  4  5  1  1
  6  7  2  0
  8  9  1  0
  8  6  1  0
  9 10  1  6
 11 10  1  0
 12 11  1  0
 12 13  2  0
 14 15  2  0
 14  9  1  0
 16 12  1  0
 17 14  1  0
 18 17  1  0
 18 24  1  0
 18 19  1  6
 20 19  1  0
 21 20  1  0
 22 21  1  0
 23 22  1  0
 24 25  1  0
 26 24  2  0
M  END
$$$$
