VEK.pdb
     RDKit          3D

 26 25  0  0  1  0  0  0  0  0999 V2000
   21.6243  -13.9115  -17.7308 C   0  0  0  0  0  0  0  0  0  0  0  0
   20.8128  -15.1877  -17.7465 C   0  0  1  0  0  0  0  0  0  0  0  0
   21.7414  -16.3525  -17.6996 C   0  0  0  0  0  0  0  0  0  0  0  0
   19.7810  -15.1717  -16.6529 C   0  0  2  0  0  0  0  0  0  0  0  0
   19.0938  -16.4418  -16.6496 N   0  0  0  0  0  0  0  0  0  0  0  0
   18.7673  -14.0958  -16.8459 C   0  0  0  0  0  0  0  0  0  0  0  0
   18.1989  -13.9955  -17.9473 O   0  0  0  0  0  0  0  0  0  0  0  0
   18.4306  -13.1813  -15.8103 N   0  0  0  0  0  0  0  0  0  0  0  0
   17.4911  -12.1213  -15.8432 C   0  0  1  0  0  0  0  0  0  0  0  0
   16.2782  -12.2725  -15.0148 C   0  0  0  0  0  0  0  0  0  0  0  0
   15.4701  -13.4593  -15.4746 C   0  0  0  0  0  0  0  0  0  0  0  0
   14.8271  -14.1398  -14.3356 C   0  0  0  0  0  0  0  0  0  0  0  0
   13.5834  -14.2412  -14.2674 O   0  0  0  0  0  0  0  0  0  0  0  0
   18.1433  -10.7754  -15.7394 C   0  0  0  0  0  0  0  0  0  0  0  0
   19.0194  -10.5756  -14.8685 O   0  0  0  0  0  0  0  0  0  0  0  0
   15.5941  -14.6791  -13.3201 O   0  0  0  0  0  0  0  0  0  0  0  0
   17.8237   -9.7071  -16.5766 N   0  0  0  0  0  0  0  0  0  0  0  0
   18.4646   -8.3440  -16.4061 C   0  0  1  0  0  0  0  0  0  0  0  0
   18.0937   -7.6795  -17.6888 C   0  0  0  0  0  0  0  0  0  0  0  0
   18.3751   -6.2860  -17.9736 C   0  0  0  0  0  0  0  0  0  0  0  0
   18.0946   -5.6565  -19.2691 C   0  0  0  0  0  0  0  0  0  0  0  0
   18.5433   -4.2181  -19.4044 C   0  0  0  0  0  0  0  0  0  0  0  0
   18.4473   -3.7169  -20.7411 N   0  0  0  0  0  0  0  0  0  0  0  0
   17.9321   -7.7659  -15.1722 C   0  0  0  0  0  0  0  0  0  0  0  0
   16.6625   -8.2310  -14.7353 O   0  0  0  0  0  0  0  0  0  0  0  0
   18.4988   -6.9005  -14.4740 O   0  0  0  0  0  0  0  0  0  0  0  0
  2  4  1  0
  2  1  1  1
  3  2  1  0
  4  6  1  0
  4  5  1  6
  6  7  2  0
  8  9  1  0
  8  6  1  0
  9 10  1  1
 11 10  1  0
 12 11  1  0
 12 13  2  0
 14 15  2  0
 14  9  1  0
 16 12  1  0
 17 14  1  0
 18 17  1  0
 18 24  1  0
 18 19  1  6
 20 19  1  0
 21 20  1  0
 22 21  1  0
 23 22  1  0
 24 25  1  0
 26 24  2  0
M  END
$$$$
