VEK.pdb
     RDKit          3D

 26 25  0  0  1  0  0  0  0  0999 V2000
   14.8362  -17.2308    4.4692 C   0  0  0  0  0  0  0  0  0  0  0  0
   15.6127  -18.0723    3.4812 C   0  0  1  0  0  0  0  0  0  0  0  0
   14.6562  -18.7174    2.5378 C   0  0  0  0  0  0  0  0  0  0  0  0
   16.6839  -17.2532    2.8161 C   0  0  2  0  0  0  0  0  0  0  0  0
   17.4013  -18.0980    1.8902 N   0  0  0  0  0  0  0  0  0  0  0  0
   17.6634  -16.6997    3.7941 C   0  0  0  0  0  0  0  0  0  0  0  0
   18.5609  -17.4409    4.2315 O   0  0  0  0  0  0  0  0  0  0  0  0
   17.6032  -15.3514    4.2419 N   0  0  0  0  0  0  0  0  0  0  0  0
   18.4652  -14.6854    5.1480 C   0  0  1  0  0  0  0  0  0  0  0  0
   18.6885  -13.2428    4.9260 C   0  0  0  0  0  0  0  0  0  0  0  0
   19.7699  -12.7294    5.8425 C   0  0  0  0  0  0  0  0  0  0  0  0
   20.0167  -11.2925    5.6229 C   0  0  0  0  0  0  0  0  0  0  0  0
   19.1569  -10.5699    5.0751 O   0  0  0  0  0  0  0  0  0  0  0  0
   18.1895  -15.0531    6.5750 C   0  0  0  0  0  0  0  0  0  0  0  0
   17.0243  -14.9698    7.0236 O   0  0  0  0  0  0  0  0  0  0  0  0
   21.2095  -10.7193    6.0219 O   0  0  0  0  0  0  0  0  0  0  0  0
   19.1791  -15.4933    7.4534 N   0  0  0  0  0  0  0  0  0  0  0  0
   18.8540  -15.9040    8.8759 C   0  0  1  0  0  0  0  0  0  0  0  0
   18.8970  -17.3912    8.7721 C   0  0  0  0  0  0  0  0  0  0  0  0
   17.9742  -18.2646    9.4705 C   0  0  0  0  0  0  0  0  0  0  0  0
   18.0331  -19.7286    9.3887 C   0  0  0  0  0  0  0  0  0  0  0  0
   16.9807  -20.4677   10.1854 C   0  0  0  0  0  0  0  0  0  0  0  0
   17.0518  -21.8892   10.0385 N   0  0  0  0  0  0  0  0  0  0  0  0
   19.8386  -15.2632    9.7478 C   0  0  0  0  0  0  0  0  0  0  0  0
   19.6675  -15.4295   11.1486 O   0  0  0  0  0  0  0  0  0  0  0  0
   20.8132  -14.5845    9.3643 O   0  0  0  0  0  0  0  0  0  0  0  0
  2  4  1  0
  2  1  1  1
  3  2  1  0
  4  6  1  0
  4  5  1  6
  6  7  2  0
  8  9  1  0
  8  6  1  0
  9 10  1  1
 11 10  1  0
 12 11  1  0
 12 13  2  0
 14 15  2  0
 14  9  1  0
 16 12  1  0
 17 14  1  0
 18 17  1  0
 18 24  1  0
 18 19  1  6
 20 19  1  0
 21 20  1  0
 22 21  1  0
 23 22  1  0
 24 25  1  0
 26 24  2  0
M  END
$$$$
