VEK.pdb
     RDKit          3D

 26 25  0  0  1  0  0  0  0  0999 V2000
   25.1500  -13.6822  -16.9055 C   0  0  0  0  0  0  0  0  0  0  0  0
   23.9680  -12.7952  -17.2274 C   0  0  1  0  0  0  0  0  0  0  0  0
   22.7104  -13.5385  -16.9321 C   0  0  0  0  0  0  0  0  0  0  0  0
   24.0896  -11.4745  -16.5191 C   0  0  2  0  0  0  0  0  0  0  0  0
   24.1431  -11.7180  -15.0967 N   0  0  0  0  0  0  0  0  0  0  0  0
   22.9321  -10.5758  -16.7931 C   0  0  0  0  0  0  0  0  0  0  0  0
   22.7941  -10.1042  -17.9353 O   0  0  0  0  0  0  0  0  0  0  0  0
   21.9818  -10.2416  -15.7895 N   0  0  0  0  0  0  0  0  0  0  0  0
   20.8125   -9.4510  -15.9127 C   0  0  1  0  0  0  0  0  0  0  0  0
   19.6489   -9.8397  -15.0911 C   0  0  0  0  0  0  0  0  0  0  0  0
   18.9721  -11.0533  -15.6759 C   0  0  0  0  0  0  0  0  0  0  0  0
   17.8029  -11.4514  -14.8707 C   0  0  0  0  0  0  0  0  0  0  0  0
   17.0837  -10.5934  -14.3156 O   0  0  0  0  0  0  0  0  0  0  0  0
   21.1114   -7.9820  -15.9005 C   0  0  0  0  0  0  0  0  0  0  0  0
   21.9125   -7.5184  -15.0583 O   0  0  0  0  0  0  0  0  0  0  0  0
   17.4825  -12.7870  -14.7166 O   0  0  0  0  0  0  0  0  0  0  0  0
   20.5354   -7.0796  -16.7942 N   0  0  0  0  0  0  0  0  0  0  0  0
   20.9136   -5.6117  -16.7962 C   0  0  1  0  0  0  0  0  0  0  0  0
   20.6725   -5.2455  -18.2218 C   0  0  0  0  0  0  0  0  0  0  0  0
   20.8863   -3.9114  -18.7478 C   0  0  0  0  0  0  0  0  0  0  0  0
   20.6434   -3.5501  -20.1491 C   0  0  0  0  0  0  0  0  0  0  0  0
   21.0355   -2.1409  -20.5351 C   0  0  0  0  0  0  0  0  0  0  0  0
   20.5328   -1.7420  -21.8140 N   0  0  0  0  0  0  0  0  0  0  0  0
   20.0891   -4.9503  -15.7847 C   0  0  0  0  0  0  0  0  0  0  0  0
   20.5946   -3.7464  -15.2243 O   0  0  0  0  0  0  0  0  0  0  0  0
   18.9821   -5.3550  -15.3743 O   0  0  0  0  0  0  0  0  0  0  0  0
  2  4  1  0
  2  1  1  1
  3  2  1  0
  4  6  1  0
  4  5  1  1
  6  7  2  0
  8  9  1  0
  8  6  1  0
  9 10  1  1
 11 10  1  0
 12 11  1  0
 12 13  2  0
 14 15  2  0
 14  9  1  0
 16 12  1  0
 17 14  1  0
 18 17  1  0
 18 24  1  0
 18 19  1  6
 20 19  1  0
 21 20  1  0
 22 21  1  0
 23 22  1  0
 24 25  1  0
 26 24  2  0
M  END
$$$$
