VEK.pdb
     RDKit          3D

 26 25  0  0  1  0  0  0  0  0999 V2000
   13.0941  -11.5862  -10.0699 C   0  0  0  0  0  0  0  0  0  0  0  0
   14.3478  -11.8776  -10.8639 C   0  0  1  0  0  0  0  0  0  0  0  0
   14.2427  -13.2434  -11.4508 C   0  0  0  0  0  0  0  0  0  0  0  0
   14.6028  -10.7881  -11.8682 C   0  0  2  0  0  0  0  0  0  0  0  0
   15.4759  -11.3045  -12.8961 N   0  0  0  0  0  0  0  0  0  0  0  0
   15.2585   -9.5966  -11.2577 C   0  0  0  0  0  0  0  0  0  0  0  0
   14.7156   -9.0437  -10.2852 O   0  0  0  0  0  0  0  0  0  0  0  0
   16.4845   -9.0732  -11.7526 N   0  0  0  0  0  0  0  0  0  0  0  0
   17.2151   -7.9521  -11.2865 C   0  0  1  0  0  0  0  0  0  0  0  0
   18.5184   -7.6858  -11.9273 C   0  0  0  0  0  0  0  0  0  0  0  0
   19.2638   -6.6099  -11.1792 C   0  0  0  0  0  0  0  0  0  0  0  0
   20.6000   -6.3846  -11.7605 C   0  0  0  0  0  0  0  0  0  0  0  0
   21.3116   -7.3450  -12.1248 O   0  0  0  0  0  0  0  0  0  0  0  0
   16.3528   -6.7375  -11.1175 C   0  0  0  0  0  0  0  0  0  0  0  0
   15.6423   -6.3432  -12.0692 O   0  0  0  0  0  0  0  0  0  0  0  0
   21.0887   -5.1006  -11.9122 O   0  0  0  0  0  0  0  0  0  0  0  0
   16.2942   -6.0033   -9.9334 N   0  0  0  0  0  0  0  0  0  0  0  0
   15.3865   -4.7978   -9.7896 C   0  0  1  0  0  0  0  0  0  0  0  0
   14.9511   -4.9225   -8.3685 C   0  0  0  0  0  0  0  0  0  0  0  0
   13.9096   -4.1030   -7.7805 C   0  0  0  0  0  0  0  0  0  0  0  0
   13.4946   -4.2130   -6.3773 C   0  0  0  0  0  0  0  0  0  0  0  0
   12.2422   -3.4494   -6.0073 C   0  0  0  0  0  0  0  0  0  0  0  0
   11.8422   -3.6399   -4.6468 N   0  0  0  0  0  0  0  0  0  0  0  0
   16.1727   -3.6178  -10.1496 C   0  0  0  0  0  0  0  0  0  0  0  0
   15.4580   -2.4143  -10.3942 O   0  0  0  0  0  0  0  0  0  0  0  0
   17.4153   -3.5809  -10.2595 O   0  0  0  0  0  0  0  0  0  0  0  0
  2  4  1  0
  2  1  1  6
  3  2  1  0
  4  6  1  0
  4  5  1  6
  6  7  2  0
  8  9  1  0
  8  6  1  0
  9 10  1  6
 11 10  1  0
 12 11  1  0
 12 13  2  0
 14 15  2  0
 14  9  1  0
 16 12  1  0
 17 14  1  0
 18 17  1  0
 18 24  1  0
 18 19  1  1
 20 19  1  0
 21 20  1  0
 22 21  1  0
 23 22  1  0
 24 25  1  0
 26 24  2  0
M  END
$$$$
