VEK.pdb
     RDKit          3D

 26 25  0  0  1  0  0  0  0  0999 V2000
   22.4585  -12.3785  -18.9905 C   0  0  0  0  0  0  0  0  0  0  0  0
   21.6795  -11.4322  -18.1045 C   0  0  1  0  0  0  0  0  0  0  0  0
   20.4507  -12.1229  -17.6208 C   0  0  0  0  0  0  0  0  0  0  0  0
   22.5570  -10.8881  -17.0115 C   0  0  2  0  0  0  0  0  0  0  0  0
   23.0550  -11.9938  -16.2274 N   0  0  0  0  0  0  0  0  0  0  0  0
   21.8207   -9.9667  -16.0996 C   0  0  0  0  0  0  0  0  0  0  0  0
   21.1369  -10.4499  -15.1803 O   0  0  0  0  0  0  0  0  0  0  0  0
   21.8762   -8.5536  -16.2484 N   0  0  0  0  0  0  0  0  0  0  0  0
   21.2125   -7.5614  -15.4853 C   0  0  1  0  0  0  0  0  0  0  0  0
   22.0575   -6.5577  -14.8079 C   0  0  0  0  0  0  0  0  0  0  0  0
   21.2278   -5.7138  -13.8738 C   0  0  0  0  0  0  0  0  0  0  0  0
   22.0630   -4.7304  -13.1603 C   0  0  0  0  0  0  0  0  0  0  0  0
   22.8481   -5.0901  -12.2570 O   0  0  0  0  0  0  0  0  0  0  0  0
   20.0279   -6.9860  -16.2016 C   0  0  0  0  0  0  0  0  0  0  0  0
   20.1711   -6.4961  -17.3441 O   0  0  0  0  0  0  0  0  0  0  0  0
   21.9902   -3.3879  -13.4812 O   0  0  0  0  0  0  0  0  0  0  0  0
   18.7445   -6.9642  -15.6567 N   0  0  0  0  0  0  0  0  0  0  0  0
   17.5616   -6.4164  -16.4302 C   0  0  1  0  0  0  0  0  0  0  0  0
   16.4301   -7.1655  -15.8112 C   0  0  0  0  0  0  0  0  0  0  0  0
   15.0422   -6.9518  -16.1720 C   0  0  0  0  0  0  0  0  0  0  0  0
   13.9332   -7.7219  -15.5973 C   0  0  0  0  0  0  0  0  0  0  0  0
   12.5633   -7.4059  -16.1558 C   0  0  0  0  0  0  0  0  0  0  0  0
   11.5046   -8.1008  -15.4897 N   0  0  0  0  0  0  0  0  0  0  0  0
   17.5729   -4.9626  -16.2675 C   0  0  0  0  0  0  0  0  0  0  0  0
   17.3551   -4.1795  -17.4329 O   0  0  0  0  0  0  0  0  0  0  0  0
   17.7577   -4.3552  -15.1930 O   0  0  0  0  0  0  0  0  0  0  0  0
  2  4  1  0
  2  1  1  1
  3  2  1  0
  4  6  1  0
  4  5  1  1
  6  7  2  0
  8  9  1  0
  8  6  1  0
  9 10  1  6
 11 10  1  0
 12 11  1  0
 12 13  2  0
 14 15  2  0
 14  9  1  0
 16 12  1  0
 17 14  1  0
 18 17  1  0
 18 24  1  0
 18 19  1  1
 20 19  1  0
 21 20  1  0
 22 21  1  0
 23 22  1  0
 24 25  1  0
 26 24  2  0
M  END
$$$$
