YWV.pdb
     RDKit          3D

 34 36  0  0  1  0  0  0  0  0999 V2000
    7.5090  -14.2714   15.3926 O   0  0  0  0  0  0  0  0  0  0  0  0
    7.9781  -14.2141   16.6869 C   0  0  0  0  0  0  0  0  0  0  0  0
    7.4333  -13.2879   17.5587 C   0  0  0  0  0  0  0  0  0  0  0  0
    7.8845  -13.2093   18.8638 C   0  0  0  0  0  0  0  0  0  0  0  0
    8.9010  -14.0845   19.2822 C   0  0  0  0  0  0  0  0  0  0  0  0
    9.4047  -14.0265   20.6598 C   0  0  0  0  0  0  0  0  0  0  0  0
    9.8543  -15.4176   21.1372 C   0  0  2  0  0  0  0  0  0  0  0  0
    8.6775  -16.3116   21.0444 N   0  0  0  0  0  0  0  0  0  0  0  0
   10.2195  -15.3571   22.5569 C   0  0  0  0  0  0  0  0  0  0  0  0
   11.1798  -14.6352   22.9891 O   0  0  0  0  0  0  0  0  0  0  0  0
    9.4397  -15.0028   18.4141 C   0  0  0  0  0  0  0  0  0  0  0  0
    8.9940  -15.0857   17.1082 C   0  0  0  0  0  0  0  0  0  0  0  0
    9.5059  -16.1076   23.5148 N   0  0  0  0  0  0  0  0  0  0  0  0
    9.1443  -15.5241   24.8247 C   0  0  1  0  0  0  0  0  0  0  0  0
    7.7146  -16.0179   25.0519 C   0  0  0  0  0  0  0  0  0  0  0  0
    6.8033  -14.9840   25.5624 C   0  0  0  0  0  0  0  0  0  0  0  0
    5.4662  -15.1217   25.7796 C   0  0  0  0  0  0  0  0  0  0  0  0
    5.0045  -13.9462   26.2253 N   0  0  0  0  0  0  0  0  0  0  0  0
    6.0220  -13.0562   26.2989 C   0  0  0  0  0  0  0  0  0  0  0  0
    6.0551  -11.7345   26.7022 C   0  0  0  0  0  0  0  0  0  0  0  0
    7.2332  -10.9981   26.7073 C   0  0  0  0  0  0  0  0  0  0  0  0
    8.3630  -11.6473   26.2913 C   0  0  0  0  0  0  0  0  0  0  0  0
    8.3439  -12.9605   25.8869 C   0  0  0  0  0  0  0  0  0  0  0  0
    7.1598  -13.6877   25.8864 C   0  0  0  0  0  0  0  0  0  0  0  0
   10.1147  -15.9748   25.7929 C   0  0  0  0  0  0  0  0  0  0  0  0
   10.4725  -15.2659   26.7757 O   0  0  0  0  0  0  0  0  0  0  0  0
   10.7955  -16.5486   28.8678 C   0  0  0  0  0  0  0  0  0  0  0  0
   10.6398  -17.8414   28.0843 C   0  0  2  0  0  0  0  0  0  0  0  0
   11.1955  -18.9380   28.9676 C   0  0  0  0  0  0  0  0  0  0  0  0
   11.4568  -17.8230   26.8183 C   0  0  2  0  0  0  0  0  0  0  0  0
   10.7279  -17.2571   25.7001 N   0  0  0  0  0  0  0  0  0  0  0  0
   11.9285  -19.1521   26.5005 C   0  0  0  0  0  0  0  0  0  0  0  0
   11.6133  -19.6955   25.4033 O   0  0  0  0  0  0  0  0  0  0  0  0
   12.7372  -19.9238   27.3368 O   0  0  0  0  0  0  0  0  0  0  0  0
  2 12  2  0
  2  1  1  0
  3  2  1  0
  4  5  1  0
  4  3  2  0
  5 11  2  0
  6  5  1  0
  7  9  1  0
  7  6  1  0
  7  8  1  1
  9 13  1  0
  9 10  2  0
 11 12  1  0
 13 14  1  0
 14 25  1  0
 14 15  1  1
 16 24  1  0
 16 15  1  0
 17 16  2  0
 18 17  1  0
 18 19  1  0
 19 24  2  0
 20 19  1  0
 20 21  2  0
 21 22  1  0
 22 23  2  0
 24 23  1  0
 25 26  2  0
 25 31  1  0
 28 27  1  1
 28 29  1  0
 30 32  1  0
 30 28  1  0
 30 31  1  6
 32 34  1  0
 33 32  2  0
M  END
$$$$
