YWV.pdb
     RDKit          3D

 34 36  0  0  1  0  0  0  0  0999 V2000
    9.9524  -15.4804   14.1424 O   0  0  0  0  0  0  0  0  0  0  0  0
    9.6395  -15.1955   15.4537 C   0  0  0  0  0  0  0  0  0  0  0  0
    8.3922  -14.6742   15.7490 C   0  0  0  0  0  0  0  0  0  0  0  0
    8.0513  -14.3801   17.0568 C   0  0  0  0  0  0  0  0  0  0  0  0
    8.9925  -14.6207   18.0719 C   0  0  0  0  0  0  0  0  0  0  0  0
    8.6641  -14.3178   19.4703 C   0  0  0  0  0  0  0  0  0  0  0  0
    8.7467  -15.5845   20.3386 C   0  0  2  0  0  0  0  0  0  0  0  0
    7.6743  -16.4973   19.8810 N   0  0  0  0  0  0  0  0  0  0  0  0
    8.4387  -15.2472   21.7328 C   0  0  0  0  0  0  0  0  0  0  0  0
    7.4082  -14.5702   22.0643 O   0  0  0  0  0  0  0  0  0  0  0  0
   10.2299  -15.1382   17.7754 C   0  0  0  0  0  0  0  0  0  0  0  0
   10.5772  -15.4334   16.4703 C   0  0  0  0  0  0  0  0  0  0  0  0
    9.2861  -15.6702   22.7783 N   0  0  0  0  0  0  0  0  0  0  0  0
    8.9925  -15.3220   24.1852 C   0  0  1  0  0  0  0  0  0  0  0  0
    7.7128  -16.1039   24.4859 C   0  0  0  0  0  0  0  0  0  0  0  0
    6.6864  -15.3170   25.1841 C   0  0  0  0  0  0  0  0  0  0  0  0
    5.4367  -15.7388   25.5225 C   0  0  0  0  0  0  0  0  0  0  0  0
    4.8131  -14.7177   26.1242 N   0  0  0  0  0  0  0  0  0  0  0  0
    5.6408  -13.6478   26.1789 C   0  0  0  0  0  0  0  0  0  0  0  0
    5.4656  -12.3805   26.7023 C   0  0  0  0  0  0  0  0  0  0  0  0
    6.4713  -11.4228   26.6579 C   0  0  0  0  0  0  0  0  0  0  0  0
    7.6473  -11.7967   26.0680 C   0  0  0  0  0  0  0  0  0  0  0  0
    7.8343  -13.0528   25.5431 C   0  0  0  0  0  0  0  0  0  0  0  0
    6.8217  -14.0030   25.5934 C   0  0  0  0  0  0  0  0  0  0  0  0
   10.1404  -15.6867   24.9800 C   0  0  0  0  0  0  0  0  0  0  0  0
   11.0673  -16.4218   24.5362 O   0  0  0  0  0  0  0  0  0  0  0  0
   10.1902  -15.4021   29.3318 C   0  0  0  0  0  0  0  0  0  0  0  0
   11.4132  -15.0477   28.5025 C   0  0  2  0  0  0  0  0  0  0  0  0
   11.3433  -13.5541   28.2667 C   0  0  0  0  0  0  0  0  0  0  0  0
   11.3813  -15.7201   27.1543 C   0  0  2  0  0  0  0  0  0  0  0  0
   10.3002  -15.2324   26.3205 N   0  0  0  0  0  0  0  0  0  0  0  0
   11.3019  -17.1556   27.3059 C   0  0  0  0  0  0  0  0  0  0  0  0
   10.2395  -17.7711   27.0043 O   0  0  0  0  0  0  0  0  0  0  0  0
   12.3416  -17.9584   27.7784 O   0  0  0  0  0  0  0  0  0  0  0  0
  2 12  2  0
  2  1  1  0
  3  2  1  0
  4  5  1  0
  4  3  2  0
  5 11  2  0
  6  5  1  0
  7  9  1  0
  7  6  1  0
  7  8  1  6
  9 13  1  0
  9 10  2  0
 11 12  1  0
 13 14  1  0
 14 25  1  0
 14 15  1  1
 16 24  1  0
 16 15  1  0
 17 16  2  0
 18 17  1  0
 18 19  1  0
 19 24  2  0
 20 19  1  0
 20 21  2  0
 21 22  1  0
 22 23  2  0
 24 23  1  0
 25 26  2  0
 25 31  1  0
 28 27  1  1
 28 29  1  0
 30 32  1  0
 30 28  1  0
 30 31  1  6
 32 34  1  0
 33 32  2  0
M  END
$$$$
