YWV.pdb
     RDKit          3D

 34 36  0  0  1  0  0  0  0  0999 V2000
    7.0047  -15.0532   14.5935 O   0  0  0  0  0  0  0  0  0  0  0  0
    7.5392  -15.1510   15.8597 C   0  0  0  0  0  0  0  0  0  0  0  0
    8.4967  -16.1174   16.1122 C   0  0  0  0  0  0  0  0  0  0  0  0
    9.0510  -16.2370   17.3738 C   0  0  0  0  0  0  0  0  0  0  0  0
    8.6234  -15.3617   18.3864 C   0  0  0  0  0  0  0  0  0  0  0  0
    9.1892  -15.4626   19.7372 C   0  0  0  0  0  0  0  0  0  0  0  0
    8.4261  -14.5579   20.7192 C   0  0  2  0  0  0  0  0  0  0  0  0
    8.7384  -13.1572   20.3541 N   0  0  0  0  0  0  0  0  0  0  0  0
    8.9430  -14.7585   22.0776 C   0  0  0  0  0  0  0  0  0  0  0  0
    9.9172  -14.0812   22.5489 O   0  0  0  0  0  0  0  0  0  0  0  0
    7.6725  -14.4034   18.1324 C   0  0  0  0  0  0  0  0  0  0  0  0
    7.1140  -14.2793   16.8740 C   0  0  0  0  0  0  0  0  0  0  0  0
    8.3681  -15.7249   22.9294 N   0  0  0  0  0  0  0  0  0  0  0  0
    8.9100  -15.9652   24.2842 C   0  0  1  0  0  0  0  0  0  0  0  0
    7.6567  -16.0934   25.1515 C   0  0  0  0  0  0  0  0  0  0  0  0
    6.9302  -14.8292   25.3357 C   0  0  0  0  0  0  0  0  0  0  0  0
    5.7741  -14.4643   24.7157 C   0  0  0  0  0  0  0  0  0  0  0  0
    5.4555  -13.2354   25.1423 N   0  0  0  0  0  0  0  0  0  0  0  0
    6.3864  -12.8050   26.0261 C   0  0  0  0  0  0  0  0  0  0  0  0
    6.4960  -11.6260   26.7390 C   0  0  0  0  0  0  0  0  0  0  0  0
    7.5489  -11.3935   27.6153 C   0  0  0  0  0  0  0  0  0  0  0  0
    8.4755  -12.3921   27.7378 C   0  0  0  0  0  0  0  0  0  0  0  0
    8.3790  -13.5685   27.0343 C   0  0  0  0  0  0  0  0  0  0  0  0
    7.3212  -13.7906   26.1609 C   0  0  0  0  0  0  0  0  0  0  0  0
    9.7432  -17.1419   24.2251 C   0  0  0  0  0  0  0  0  0  0  0  0
    9.4649  -18.1346   23.4946 O   0  0  0  0  0  0  0  0  0  0  0  0
   13.6757  -17.3995   23.8321 C   0  0  0  0  0  0  0  0  0  0  0  0
   13.2073  -18.1978   25.0374 C   0  0  2  0  0  0  0  0  0  0  0  0
   13.9188  -19.5317   24.9608 C   0  0  0  0  0  0  0  0  0  0  0  0
   11.7266  -18.4712   24.9786 C   0  0  2  0  0  0  0  0  0  0  0  0
   10.9404  -17.2531   24.9889 N   0  0  0  0  0  0  0  0  0  0  0  0
   11.3295  -19.3447   26.0598 C   0  0  0  0  0  0  0  0  0  0  0  0
   10.6820  -18.8871   27.0447 O   0  0  0  0  0  0  0  0  0  0  0  0
   11.6114  -20.7108   26.1154 O   0  0  0  0  0  0  0  0  0  0  0  0
  2 12  2  0
  2  1  1  0
  3  2  1  0
  4  5  1  0
  4  3  2  0
  5 11  2  0
  6  5  1  0
  7  9  1  0
  7  6  1  0
  7  8  1  6
  9 13  1  0
  9 10  2  0
 11 12  1  0
 13 14  1  0
 14 25  1  0
 14 15  1  1
 16 24  1  0
 16 15  1  0
 17 16  2  0
 18 17  1  0
 18 19  1  0
 19 24  2  0
 20 19  1  0
 20 21  2  0
 21 22  1  0
 22 23  2  0
 24 23  1  0
 25 26  2  0
 25 31  1  0
 28 27  1  6
 28 29  1  0
 30 32  1  0
 30 28  1  0
 30 31  1  1
 32 34  1  0
 33 32  2  0
M  END
$$$$
