YWV.pdb
     RDKit          3D

 34 36  0  0  1  0  0  0  0  0999 V2000
   14.4635  -20.6803   17.7846 O   0  0  0  0  0  0  0  0  0  0  0  0
   13.8832  -19.6632   18.5108 C   0  0  0  0  0  0  0  0  0  0  0  0
   13.8954  -18.3787   17.9967 C   0  0  0  0  0  0  0  0  0  0  0  0
   13.3191  -17.3391   18.7040 C   0  0  0  0  0  0  0  0  0  0  0  0
   12.7250  -17.6140   19.9473 C   0  0  0  0  0  0  0  0  0  0  0  0
   12.1064  -16.5336   20.7251 C   0  0  0  0  0  0  0  0  0  0  0  0
   10.5845  -16.7319   20.8230 C   0  0  2  0  0  0  0  0  0  0  0  0
    9.9823  -16.0741   19.6410 N   0  0  0  0  0  0  0  0  0  0  0  0
   10.0700  -16.0234   22.0003 C   0  0  0  0  0  0  0  0  0  0  0  0
    9.7962  -14.7764   21.9862 O   0  0  0  0  0  0  0  0  0  0  0  0
   12.7147  -18.8904   20.4548 C   0  0  0  0  0  0  0  0  0  0  0  0
   13.2898  -19.9336   19.7535 C   0  0  0  0  0  0  0  0  0  0  0  0
    9.8522  -16.7097   23.2134 N   0  0  0  0  0  0  0  0  0  0  0  0
    9.3252  -16.0063   24.4027 C   0  0  1  0  0  0  0  0  0  0  0  0
    7.9349  -16.6157   24.5898 C   0  0  0  0  0  0  0  0  0  0  0  0
    6.8890  -15.6277   24.8899 C   0  0  0  0  0  0  0  0  0  0  0  0
    5.5449  -15.8455   24.8780 C   0  0  0  0  0  0  0  0  0  0  0  0
    4.9439  -14.6890   25.1862 N   0  0  0  0  0  0  0  0  0  0  0  0
    5.8786  -13.7325   25.3966 C   0  0  0  0  0  0  0  0  0  0  0  0
    5.7626  -12.3993   25.7424 C   0  0  0  0  0  0  0  0  0  0  0  0
    6.8763  -11.5876   25.9197 C   0  0  0  0  0  0  0  0  0  0  0  0
    8.0976  -12.1746   25.7338 C   0  0  0  0  0  0  0  0  0  0  0  0
    8.2270  -13.4984   25.3890 C   0  0  0  0  0  0  0  0  0  0  0  0
    7.1062  -14.3011   25.2148 C   0  0  0  0  0  0  0  0  0  0  0  0
   10.2472  -16.2253   25.4909 C   0  0  0  0  0  0  0  0  0  0  0  0
   11.0508  -17.2001   25.5137 O   0  0  0  0  0  0  0  0  0  0  0  0
   11.7149  -15.0116   30.1048 C   0  0  0  0  0  0  0  0  0  0  0  0
   11.1281  -14.5449   28.7830 C   0  0  2  0  0  0  0  0  0  0  0  0
    9.6740  -14.2258   29.0577 C   0  0  0  0  0  0  0  0  0  0  0  0
   11.1630  -15.6373   27.7457 C   0  0  2  0  0  0  0  0  0  0  0  0
   10.3098  -15.3466   26.6102 N   0  0  0  0  0  0  0  0  0  0  0  0
   10.8112  -16.9087   28.3368 C   0  0  0  0  0  0  0  0  0  0  0  0
    9.6176  -17.3234   28.2947 O   0  0  0  0  0  0  0  0  0  0  0  0
   11.7140  -17.7571   28.9803 O   0  0  0  0  0  0  0  0  0  0  0  0
  2 12  2  0
  2  1  1  0
  3  2  1  0
  4  5  1  0
  4  3  2  0
  5 11  2  0
  6  5  1  0
  7  9  1  0
  7  6  1  0
  7  8  1  6
  9 13  1  0
  9 10  2  0
 11 12  1  0
 13 14  1  0
 14 25  1  0
 14 15  1  1
 16 24  1  0
 16 15  1  0
 17 16  2  0
 18 17  1  0
 18 19  1  0
 19 24  2  0
 20 19  1  0
 20 21  2  0
 21 22  1  0
 22 23  2  0
 24 23  1  0
 25 26  2  0
 25 31  1  0
 28 27  1  1
 28 29  1  0
 30 32  1  0
 30 28  1  0
 30 31  1  6
 32 34  1  0
 33 32  2  0
M  END
$$$$
