YWV.pdb
     RDKit          3D

 34 36  0  0  1  0  0  0  0  0999 V2000
    0.5577  -20.3891   18.6611 O   0  0  0  0  0  0  0  0  0  0  0  0
    1.7102  -20.0914   19.3551 C   0  0  0  0  0  0  0  0  0  0  0  0
    2.7055  -21.0482   19.4470 C   0  0  0  0  0  0  0  0  0  0  0  0
    3.8731  -20.7757   20.1365 C   0  0  0  0  0  0  0  0  0  0  0  0
    4.0255  -19.5148   20.7375 C   0  0  0  0  0  0  0  0  0  0  0  0
    5.2511  -19.1933   21.4788 C   0  0  0  0  0  0  0  0  0  0  0  0
    6.0800  -18.1343   20.7328 C   0  0  2  0  0  0  0  0  0  0  0  0
    6.7522  -18.8210   19.6062 N   0  0  0  0  0  0  0  0  0  0  0  0
    7.1448  -17.6344   21.6098 C   0  0  0  0  0  0  0  0  0  0  0  0
    8.2958  -18.1831   21.6744 O   0  0  0  0  0  0  0  0  0  0  0  0
    3.0354  -18.5672   20.6445 C   0  0  0  0  0  0  0  0  0  0  0  0
    1.8656  -18.8335   19.9577 C   0  0  0  0  0  0  0  0  0  0  0  0
    6.9310  -16.5048   22.4273 N   0  0  0  0  0  0  0  0  0  0  0  0
    8.0032  -15.9835   23.3021 C   0  0  1  0  0  0  0  0  0  0  0  0
    7.5300  -14.5691   23.6413 C   0  0  0  0  0  0  0  0  0  0  0  0
    8.2174  -13.9739   24.7960 C   0  0  0  0  0  0  0  0  0  0  0  0
    9.5436  -14.0760   25.0870 C   0  0  0  0  0  0  0  0  0  0  0  0
    9.7605  -13.4111   26.2292 N   0  0  0  0  0  0  0  0  0  0  0  0
    8.5968  -12.8832   26.6763 C   0  0  0  0  0  0  0  0  0  0  0  0
    8.3068  -12.1176   27.7900 C   0  0  0  0  0  0  0  0  0  0  0  0
    7.0199  -11.6661   28.0553 C   0  0  0  0  0  0  0  0  0  0  0  0
    6.0501  -12.0185   27.1574 C   0  0  0  0  0  0  0  0  0  0  0  0
    6.3246  -12.7799   26.0470 C   0  0  0  0  0  0  0  0  0  0  0  0
    7.6156  -13.2255   25.7911 C   0  0  0  0  0  0  0  0  0  0  0  0
    8.1309  -16.8785   24.4269 C   0  0  0  0  0  0  0  0  0  0  0  0
    7.1406  -17.2360   25.1255 O   0  0  0  0  0  0  0  0  0  0  0  0
   11.6366  -19.2525   25.0682 C   0  0  0  0  0  0  0  0  0  0  0  0
   10.2667  -19.5570   25.6512 C   0  0  2  0  0  0  0  0  0  0  0  0
    9.5023  -20.2890   24.5689 C   0  0  0  0  0  0  0  0  0  0  0  0
    9.5065  -18.2947   25.9665 C   0  0  2  0  0  0  0  0  0  0  0  0
    9.3895  -17.4199   24.8164 N   0  0  0  0  0  0  0  0  0  0  0  0
   10.1175  -17.5995   27.0771 C   0  0  0  0  0  0  0  0  0  0  0  0
   10.6775  -16.4801   26.8987 O   0  0  0  0  0  0  0  0  0  0  0  0
   10.1458  -18.0774   28.3885 O   0  0  0  0  0  0  0  0  0  0  0  0
  2 12  2  0
  2  1  1  0
  3  2  1  0
  4  5  1  0
  4  3  2  0
  5 11  2  0
  6  5  1  0
  7  9  1  0
  7  6  1  0
  7  8  1  6
  9 13  1  0
  9 10  2  0
 11 12  1  0
 13 14  1  0
 14 25  1  0
 14 15  1  1
 16 24  1  0
 16 15  1  0
 17 16  2  0
 18 17  1  0
 18 19  1  0
 19 24  2  0
 20 19  1  0
 20 21  2  0
 21 22  1  0
 22 23  2  0
 24 23  1  0
 25 26  2  0
 25 31  1  0
 28 27  1  6
 28 29  1  0
 30 32  1  0
 30 28  1  0
 30 31  1  6
 32 34  1  0
 33 32  2  0
M  END
$$$$
