YWV.pdb
     RDKit          3D

 34 36  0  0  1  0  0  0  0  0999 V2000
    7.1351  -19.7018   15.1452 O   0  0  0  0  0  0  0  0  0  0  0  0
    7.6598  -19.3401   16.3668 C   0  0  0  0  0  0  0  0  0  0  0  0
    8.8623  -18.6568   16.4061 C   0  0  0  0  0  0  0  0  0  0  0  0
    9.4112  -18.2805   17.6187 C   0  0  0  0  0  0  0  0  0  0  0  0
    8.7257  -18.6050   18.8015 C   0  0  0  0  0  0  0  0  0  0  0  0
    9.2812  -18.2227   20.1055 C   0  0  0  0  0  0  0  0  0  0  0  0
    8.6778  -16.8933   20.5888 C   0  0  2  0  0  0  0  0  0  0  0  0
    9.1255  -15.8430   19.6460 N   0  0  0  0  0  0  0  0  0  0  0  0
    9.2404  -16.5439   21.8981 C   0  0  0  0  0  0  0  0  0  0  0  0
   10.3552  -15.9349   22.0263 O   0  0  0  0  0  0  0  0  0  0  0  0
    7.5321  -19.2836   18.7590 C   0  0  0  0  0  0  0  0  0  0  0  0
    6.9787  -19.6634   17.5505 C   0  0  0  0  0  0  0  0  0  0  0  0
    8.5540  -16.8728   23.0858 N   0  0  0  0  0  0  0  0  0  0  0  0
    9.0973  -16.4967   24.4088 C   0  0  1  0  0  0  0  0  0  0  0  0
    7.8641  -16.4982   25.3136 C   0  0  0  0  0  0  0  0  0  0  0  0
    7.0816  -15.2555   25.2529 C   0  0  0  0  0  0  0  0  0  0  0  0
    5.8795  -15.0875   24.6360 C   0  0  0  0  0  0  0  0  0  0  0  0
    5.5173  -13.8079   24.7950 N   0  0  0  0  0  0  0  0  0  0  0  0
    6.4656  -13.1515   25.5041 C   0  0  0  0  0  0  0  0  0  0  0  0
    6.5471  -11.8384   25.9278 C   0  0  0  0  0  0  0  0  0  0  0  0
    7.6271  -11.3713   26.6666 C   0  0  0  0  0  0  0  0  0  0  0  0
    8.6099  -12.2780   26.9546 C   0  0  0  0  0  0  0  0  0  0  0  0
    8.5419  -13.5859   26.5387 C   0  0  0  0  0  0  0  0  0  0  0  0
    7.4566  -14.0424   25.8007 C   0  0  0  0  0  0  0  0  0  0  0  0
   10.1192  -17.4546   24.7559 C   0  0  0  0  0  0  0  0  0  0  0  0
   10.7042  -18.1663   23.8912 O   0  0  0  0  0  0  0  0  0  0  0  0
   14.2890  -18.2363   26.0763 C   0  0  0  0  0  0  0  0  0  0  0  0
   12.9675  -17.5501   25.7730 C   0  0  2  0  0  0  0  0  0  0  0  0
   13.0514  -16.1775   26.4057 C   0  0  0  0  0  0  0  0  0  0  0  0
   11.8096  -18.2724   26.4120 C   0  0  2  0  0  0  0  0  0  0  0  0
   10.5356  -17.6528   26.1036 N   0  0  0  0  0  0  0  0  0  0  0  0
   11.9986  -18.3672   27.8421 C   0  0  0  0  0  0  0  0  0  0  0  0
   11.3011  -17.6618   28.6260 O   0  0  0  0  0  0  0  0  0  0  0  0
   12.9263  -19.2062   28.4620 O   0  0  0  0  0  0  0  0  0  0  0  0
  2 12  2  0
  2  1  1  0
  3  2  1  0
  4  5  1  0
  4  3  2  0
  5 11  2  0
  6  5  1  0
  7  9  1  0
  7  6  1  0
  7  8  1  6
  9 13  1  0
  9 10  2  0
 11 12  1  0
 13 14  1  0
 14 25  1  0
 14 15  1  1
 16 24  1  0
 16 15  1  0
 17 16  2  0
 18 17  1  0
 18 19  1  0
 19 24  2  0
 20 19  1  0
 20 21  2  0
 21 22  1  0
 22 23  2  0
 24 23  1  0
 25 26  2  0
 25 31  1  0
 28 27  1  1
 28 29  1  0
 30 32  1  0
 30 28  1  0
 30 31  1  1
 32 34  1  0
 33 32  2  0
M  END
$$$$
