YWV.pdb
     RDKit          3D

 34 36  0  0  1  0  0  0  0  0999 V2000
   14.6821  -21.3679   17.4367 O   0  0  0  0  0  0  0  0  0  0  0  0
   14.2546  -20.4737   18.3938 C   0  0  0  0  0  0  0  0  0  0  0  0
   14.6875  -19.1611   18.3283 C   0  0  0  0  0  0  0  0  0  0  0  0
   14.2730  -18.2422   19.2753 C   0  0  0  0  0  0  0  0  0  0  0  0
   13.4087  -18.6677   20.2982 C   0  0  0  0  0  0  0  0  0  0  0  0
   12.9513  -17.7189   21.3208 C   0  0  0  0  0  0  0  0  0  0  0  0
   11.4571  -17.4011   21.1432 C   0  0  2  0  0  0  0  0  0  0  0  0
   11.3220  -16.6285   19.8872 N   0  0  0  0  0  0  0  0  0  0  0  0
   11.0094  -16.5172   22.2253 C   0  0  0  0  0  0  0  0  0  0  0  0
   11.2659  -15.2665   22.2412 O   0  0  0  0  0  0  0  0  0  0  0  0
   12.9809  -19.9715   20.3604 C   0  0  0  0  0  0  0  0  0  0  0  0
   13.3922  -20.8951   19.4176 C   0  0  0  0  0  0  0  0  0  0  0  0
   10.2617  -17.0278   23.3071 N   0  0  0  0  0  0  0  0  0  0  0  0
    9.7020  -16.1279   24.3385 C   0  0  1  0  0  0  0  0  0  0  0  0
    8.1958  -16.3789   24.2507 C   0  0  0  0  0  0  0  0  0  0  0  0
    7.4038  -15.1632   24.0166 C   0  0  0  0  0  0  0  0  0  0  0  0
    6.8668  -14.7650   22.8303 C   0  0  0  0  0  0  0  0  0  0  0  0
    6.2410  -13.5996   23.0392 N   0  0  0  0  0  0  0  0  0  0  0  0
    6.3661  -13.2426   24.3392 C   0  0  0  0  0  0  0  0  0  0  0  0
    5.8960  -12.1460   25.0369 C   0  0  0  0  0  0  0  0  0  0  0  0
    6.1380  -11.9814   26.3951 C   0  0  0  0  0  0  0  0  0  0  0  0
    6.8679  -12.9612   27.0102 C   0  0  0  0  0  0  0  0  0  0  0  0
    7.3420  -14.0559   26.3282 C   0  0  0  0  0  0  0  0  0  0  0  0
    7.0934  -14.2106   24.9698 C   0  0  0  0  0  0  0  0  0  0  0  0
   10.3123  -16.4684   25.6010 C   0  0  0  0  0  0  0  0  0  0  0  0
   10.9613  -17.5385   25.7744 O   0  0  0  0  0  0  0  0  0  0  0  0
    9.2987  -14.6207   29.3979 C   0  0  0  0  0  0  0  0  0  0  0  0
   10.7500  -14.8472   29.0086 C   0  0  2  0  0  0  0  0  0  0  0  0
   11.2185  -13.5600   28.3644 C   0  0  0  0  0  0  0  0  0  0  0  0
   10.8830  -15.9415   27.9812 C   0  0  2  0  0  0  0  0  0  0  0  0
   10.2227  -15.6096   26.7339 N   0  0  0  0  0  0  0  0  0  0  0  0
   10.3840  -17.1926   28.5062 C   0  0  0  0  0  0  0  0  0  0  0  0
    9.3232  -17.7011   28.0429 O   0  0  0  0  0  0  0  0  0  0  0  0
   10.9975  -17.9214   29.5267 O   0  0  0  0  0  0  0  0  0  0  0  0
  2 12  2  0
  2  1  1  0
  3  2  1  0
  4  5  1  0
  4  3  2  0
  5 11  2  0
  6  5  1  0
  7  9  1  0
  7  6  1  0
  7  8  1  6
  9 13  1  0
  9 10  2  0
 11 12  1  0
 13 14  1  0
 14 25  1  0
 14 15  1  1
 16 24  1  0
 16 15  1  0
 17 16  2  0
 18 17  1  0
 18 19  1  0
 19 24  2  0
 20 19  1  0
 20 21  2  0
 21 22  1  0
 22 23  2  0
 24 23  1  0
 25 26  2  0
 25 31  1  0
 28 27  1  6
 28 29  1  0
 30 32  1  0
 30 28  1  0
 30 31  1  6
 32 34  1  0
 33 32  2  0
M  END
$$$$
