YWV.pdb
     RDKit          3D

 34 36  0  0  1  0  0  0  0  0999 V2000
    7.4470  -13.4519   15.8071 O   0  0  0  0  0  0  0  0  0  0  0  0
    7.5859  -13.6580   17.1624 C   0  0  0  0  0  0  0  0  0  0  0  0
    8.4316  -12.8344   17.8842 C   0  0  0  0  0  0  0  0  0  0  0  0
    8.5889  -13.0181   19.2460 C   0  0  0  0  0  0  0  0  0  0  0  0
    7.8762  -14.0521   19.8761 C   0  0  0  0  0  0  0  0  0  0  0  0
    8.0217  -14.2763   21.3196 C   0  0  0  0  0  0  0  0  0  0  0  0
    9.0584  -15.3769   21.6007 C   0  0  2  0  0  0  0  0  0  0  0  0
    8.4615  -16.6598   21.1641 N   0  0  0  0  0  0  0  0  0  0  0  0
    9.2764  -15.4907   23.0471 C   0  0  0  0  0  0  0  0  0  0  0  0
    9.8315  -14.5679   23.7329 O   0  0  0  0  0  0  0  0  0  0  0  0
    7.0375  -14.8681   19.1565 C   0  0  0  0  0  0  0  0  0  0  0  0
    6.8766  -14.6904   17.7951 C   0  0  0  0  0  0  0  0  0  0  0  0
    8.8692  -16.6464   23.7462 N   0  0  0  0  0  0  0  0  0  0  0  0
    9.1667  -16.8107   25.1854 C   0  0  1  0  0  0  0  0  0  0  0  0
    7.7818  -16.8425   25.8339 C   0  0  0  0  0  0  0  0  0  0  0  0
    7.0740  -15.5554   25.7860 C   0  0  0  0  0  0  0  0  0  0  0  0
    5.8789  -15.3129   25.1800 C   0  0  0  0  0  0  0  0  0  0  0  0
    5.5947  -14.0151   25.3485 N   0  0  0  0  0  0  0  0  0  0  0  0
    6.5860  -13.4199   26.0528 C   0  0  0  0  0  0  0  0  0  0  0  0
    6.7486  -12.1163   26.4823 C   0  0  0  0  0  0  0  0  0  0  0  0
    7.8603  -11.7181   27.2144 C   0  0  0  0  0  0  0  0  0  0  0  0
    8.7899  -12.6830   27.4896 C   0  0  0  0  0  0  0  0  0  0  0  0
    8.6410  -13.9823   27.0678 C   0  0  0  0  0  0  0  0  0  0  0  0
    7.5246  -14.3696   26.3367 C   0  0  0  0  0  0  0  0  0  0  0  0
    9.9493  -18.0130   25.3410 C   0  0  0  0  0  0  0  0  0  0  0  0
    9.4803  -19.1629   25.1083 O   0  0  0  0  0  0  0  0  0  0  0  0
   14.1250  -17.9524   26.6643 C   0  0  0  0  0  0  0  0  0  0  0  0
   13.5359  -19.0101   25.7458 C   0  0  2  0  0  0  0  0  0  0  0  0
   13.7024  -18.4833   24.3365 C   0  0  0  0  0  0  0  0  0  0  0  0
   12.0601  -19.1938   25.9884 C   0  0  2  0  0  0  0  0  0  0  0  0
   11.3087  -17.9743   25.7646 N   0  0  0  0  0  0  0  0  0  0  0  0
   11.8251  -19.7013   27.3214 C   0  0  0  0  0  0  0  0  0  0  0  0
   11.2270  -18.9900   28.1787 O   0  0  0  0  0  0  0  0  0  0  0  0
   12.2192  -20.9645   27.7662 O   0  0  0  0  0  0  0  0  0  0  0  0
  2 12  2  0
  2  1  1  0
  3  2  1  0
  4  5  1  0
  4  3  2  0
  5 11  2  0
  6  5  1  0
  7  9  1  0
  7  6  1  0
  7  8  1  1
  9 13  1  0
  9 10  2  0
 11 12  1  0
 13 14  1  0
 14 25  1  0
 14 15  1  1
 16 24  1  0
 16 15  1  0
 17 16  2  0
 18 17  1  0
 18 19  1  0
 19 24  2  0
 20 19  1  0
 20 21  2  0
 21 22  1  0
 22 23  2  0
 24 23  1  0
 25 26  2  0
 25 31  1  0
 28 27  1  1
 28 29  1  0
 30 32  1  0
 30 28  1  0
 30 31  1  1
 32 34  1  0
 33 32  2  0
M  END
$$$$
