YWV.pdb
     RDKit          3D

 34 36  0  0  1  0  0  0  0  0999 V2000
   11.0956  -22.1426   16.0913 O   0  0  0  0  0  0  0  0  0  0  0  0
   11.1227  -21.2893   17.1729 C   0  0  0  0  0  0  0  0  0  0  0  0
   10.0990  -21.3490   18.1018 C   0  0  0  0  0  0  0  0  0  0  0  0
   10.1017  -20.5050   19.1976 C   0  0  0  0  0  0  0  0  0  0  0  0
   11.1594  -19.5921   19.3459 C   0  0  0  0  0  0  0  0  0  0  0  0
   11.1921  -18.6802   20.4959 C   0  0  0  0  0  0  0  0  0  0  0  0
   10.4548  -17.3691   20.1758 C   0  0  2  0  0  0  0  0  0  0  0  0
   11.3293  -16.5864   19.2729 N   0  0  0  0  0  0  0  0  0  0  0  0
   10.3059  -16.5758   21.4010 C   0  0  0  0  0  0  0  0  0  0  0  0
   11.2563  -15.8735   21.8845 O   0  0  0  0  0  0  0  0  0  0  0  0
   12.1742  -19.5353   18.4218 C   0  0  0  0  0  0  0  0  0  0  0  0
   12.1769  -20.3754   17.3239 C   0  0  0  0  0  0  0  0  0  0  0  0
    9.0813  -16.5582   22.1010 N   0  0  0  0  0  0  0  0  0  0  0  0
    8.9264  -15.7750   23.3458 C   0  0  1  0  0  0  0  0  0  0  0  0
    7.4260  -15.4826   23.3982 C   0  0  0  0  0  0  0  0  0  0  0  0
    6.9631  -14.9849   24.7013 C   0  0  0  0  0  0  0  0  0  0  0  0
    6.3259  -15.7090   25.6624 C   0  0  0  0  0  0  0  0  0  0  0  0
    6.0585  -14.8830   26.6821 N   0  0  0  0  0  0  0  0  0  0  0  0
    6.5135  -13.6411   26.3929 C   0  0  0  0  0  0  0  0  0  0  0  0
    6.4849  -12.4639   27.1167 C   0  0  0  0  0  0  0  0  0  0  0  0
    7.0298  -11.2852   26.6225 C   0  0  0  0  0  0  0  0  0  0  0  0
    7.5976  -11.3470   25.3796 C   0  0  0  0  0  0  0  0  0  0  0  0
    7.6319  -12.5104   24.6492 C   0  0  0  0  0  0  0  0  0  0  0  0
    7.0843  -13.6837   25.1536 C   0  0  0  0  0  0  0  0  0  0  0  0
    9.4391  -16.5700   24.4354 C   0  0  0  0  0  0  0  0  0  0  0  0
    9.3332  -17.8287   24.4656 O   0  0  0  0  0  0  0  0  0  0  0  0
   12.6109  -16.9976   28.2134 C   0  0  0  0  0  0  0  0  0  0  0  0
   11.9946  -16.1591   27.1060 C   0  0  2  0  0  0  0  0  0  0  0  0
   11.5952  -14.8463   27.7452 C   0  0  0  0  0  0  0  0  0  0  0  0
   10.7423  -16.7961   26.5613 C   0  0  2  0  0  0  0  0  0  0  0  0
   10.1043  -15.9791   25.5477 N   0  0  0  0  0  0  0  0  0  0  0  0
    9.8187  -17.0949   27.6325 C   0  0  0  0  0  0  0  0  0  0  0  0
    8.7259  -16.4661   27.7267 O   0  0  0  0  0  0  0  0  0  0  0  0
   10.0374  -18.0597   28.6175 O   0  0  0  0  0  0  0  0  0  0  0  0
  2 12  2  0
  2  1  1  0
  3  2  1  0
  4  5  1  0
  4  3  2  0
  5 11  2  0
  6  5  1  0
  7  9  1  0
  7  6  1  0
  7  8  1  6
  9 13  1  0
  9 10  2  0
 11 12  1  0
 13 14  1  0
 14 25  1  0
 14 15  1  1
 16 24  1  0
 16 15  1  0
 17 16  2  0
 18 17  1  0
 18 19  1  0
 19 24  2  0
 20 19  1  0
 20 21  2  0
 21 22  1  0
 22 23  2  0
 24 23  1  0
 25 26  2  0
 25 31  1  0
 28 27  1  1
 28 29  1  0
 30 32  1  0
 30 28  1  0
 30 31  1  6
 32 34  1  0
 33 32  2  0
M  END
$$$$
