YWV.pdb
     RDKit          3D

 34 36  0  0  1  0  0  0  0  0999 V2000
    4.6972  -25.3275   29.2234 O   0  0  0  0  0  0  0  0  0  0  0  0
    5.3527  -24.2721   28.6275 C   0  0  0  0  0  0  0  0  0  0  0  0
    6.7130  -24.3713   28.3943 C   0  0  0  0  0  0  0  0  0  0  0  0
    7.3958  -23.3275   27.7965 C   0  0  0  0  0  0  0  0  0  0  0  0
    6.6830  -22.1723   27.4337 C   0  0  0  0  0  0  0  0  0  0  0  0
    7.3771  -21.0450   26.7995 C   0  0  0  0  0  0  0  0  0  0  0  0
    6.8469  -20.8068   25.3756 C   0  0  2  0  0  0  0  0  0  0  0  0
    7.3191  -21.9346   24.5403 N   0  0  0  0  0  0  0  0  0  0  0  0
    7.4564  -19.5937   24.8193 C   0  0  0  0  0  0  0  0  0  0  0  0
    8.5815  -19.6049   24.2160 O   0  0  0  0  0  0  0  0  0  0  0  0
    5.3326  -22.0771   27.6667 C   0  0  0  0  0  0  0  0  0  0  0  0
    4.6444  -23.1162   28.2646 C   0  0  0  0  0  0  0  0  0  0  0  0
    6.8059  -18.3469   24.9310 N   0  0  0  0  0  0  0  0  0  0  0  0
    7.5189  -17.0862   24.6327 C   0  0  1  0  0  0  0  0  0  0  0  0
    6.3892  -16.0676   24.4720 C   0  0  0  0  0  0  0  0  0  0  0  0
    6.8570  -14.6894   24.2680 C   0  0  0  0  0  0  0  0  0  0  0  0
    7.6580  -14.2494   23.2585 C   0  0  0  0  0  0  0  0  0  0  0  0
    7.8648  -12.9396   23.4464 N   0  0  0  0  0  0  0  0  0  0  0  0
    7.2099  -12.5306   24.5585 C   0  0  0  0  0  0  0  0  0  0  0  0
    7.1089  -11.2887   25.1568 C   0  0  0  0  0  0  0  0  0  0  0  0
    6.3613  -11.0887   26.3108 C   0  0  0  0  0  0  0  0  0  0  0  0
    5.7285  -12.1855   26.8281 C   0  0  0  0  0  0  0  0  0  0  0  0
    5.8214  -13.4257   26.2439 C   0  0  0  0  0  0  0  0  0  0  0  0
    6.5715  -13.6141   25.0894 C   0  0  0  0  0  0  0  0  0  0  0  0
    8.4338  -16.8278   25.7183 C   0  0  0  0  0  0  0  0  0  0  0  0
    8.1325  -17.0450   26.9260 O   0  0  0  0  0  0  0  0  0  0  0  0
   11.9626  -16.9956   28.4959 C   0  0  0  0  0  0  0  0  0  0  0  0
   10.9595  -17.2831   27.3911 C   0  0  2  0  0  0  0  0  0  0  0  0
   11.6326  -18.2663   26.4574 C   0  0  0  0  0  0  0  0  0  0  0  0
   10.6451  -16.0443   26.5930 C   0  0  2  0  0  0  0  0  0  0  0  0
    9.7424  -16.3131   25.4908 N   0  0  0  0  0  0  0  0  0  0  0  0
   11.8620  -15.4257   26.1174 C   0  0  0  0  0  0  0  0  0  0  0  0
   12.0936  -15.3439   24.8771 O   0  0  0  0  0  0  0  0  0  0  0  0
   12.8495  -14.8871   26.9443 O   0  0  0  0  0  0  0  0  0  0  0  0
  2 12  2  0
  2  1  1  0
  3  2  1  0
  4  5  1  0
  4  3  2  0
  5 11  2  0
  6  5  1  0
  7  9  1  0
  7  6  1  0
  7  8  1  6
  9 13  1  0
  9 10  2  0
 11 12  1  0
 13 14  1  0
 14 25  1  0
 14 15  1  1
 16 24  1  0
 16 15  1  0
 17 16  2  0
 18 17  1  0
 18 19  1  0
 19 24  2  0
 20 19  1  0
 20 21  2  0
 21 22  1  0
 22 23  2  0
 24 23  1  0
 25 26  2  0
 25 31  1  0
 28 27  1  1
 28 29  1  0
 30 32  1  0
 30 28  1  0
 30 31  1  6
 32 34  1  0
 33 32  2  0
M  END
$$$$
