YWV.pdb
     RDKit          3D

 34 36  0  0  1  0  0  0  0  0999 V2000
    6.3009  -13.4692   17.8630 O   0  0  0  0  0  0  0  0  0  0  0  0
    7.3535  -13.8791   18.6521 C   0  0  0  0  0  0  0  0  0  0  0  0
    8.0114  -15.0549   18.3371 C   0  0  0  0  0  0  0  0  0  0  0  0
    9.0720  -15.4894   19.1114 C   0  0  0  0  0  0  0  0  0  0  0  0
    9.4640  -14.7160   20.2171 C   0  0  0  0  0  0  0  0  0  0  0  0
   10.5841  -15.1491   21.0613 C   0  0  0  0  0  0  0  0  0  0  0  0
   10.2001  -16.3890   21.8861 C   0  0  2  0  0  0  0  0  0  0  0  0
    8.7224  -16.4112   21.9777 N   0  0  0  0  0  0  0  0  0  0  0  0
   10.6995  -16.2423   23.2579 C   0  0  0  0  0  0  0  0  0  0  0  0
   11.9423  -16.1301   23.5283 O   0  0  0  0  0  0  0  0  0  0  0  0
    8.8086  -13.5492   20.5270 C   0  0  0  0  0  0  0  0  0  0  0  0
    7.7473  -13.1100   19.7578 C   0  0  0  0  0  0  0  0  0  0  0  0
    9.8056  -16.2166   24.3489 N   0  0  0  0  0  0  0  0  0  0  0  0
   10.3004  -16.0881   25.7365 C   0  0  1  0  0  0  0  0  0  0  0  0
    9.9333  -14.6520   26.1139 C   0  0  0  0  0  0  0  0  0  0  0  0
    8.4885  -14.3833   26.0928 C   0  0  0  0  0  0  0  0  0  0  0  0
    7.4973  -15.3067   25.9554 C   0  0  0  0  0  0  0  0  0  0  0  0
    6.3289  -14.6521   25.9659 N   0  0  0  0  0  0  0  0  0  0  0  0
    6.5526  -13.3245   26.1086 C   0  0  0  0  0  0  0  0  0  0  0  0
    5.6834  -12.2524   26.1830 C   0  0  0  0  0  0  0  0  0  0  0  0
    6.1376  -10.9491   26.3426 C   0  0  0  0  0  0  0  0  0  0  0  0
    7.4924  -10.7783   26.4220 C   0  0  0  0  0  0  0  0  0  0  0  0
    8.3675  -11.8351   26.3485 C   0  0  0  0  0  0  0  0  0  0  0  0
    7.9020  -13.1347   26.1894 C   0  0  0  0  0  0  0  0  0  0  0  0
    9.6685  -17.1156   26.5285 C   0  0  0  0  0  0  0  0  0  0  0  0
    9.6028  -17.0566   27.7890 O   0  0  0  0  0  0  0  0  0  0  0  0
    6.9435  -21.2867   26.8012 C   0  0  0  0  0  0  0  0  0  0  0  0
    7.5487  -20.1898   25.9411 C   0  0  2  0  0  0  0  0  0  0  0  0
    8.3945  -20.8906   24.8995 C   0  0  0  0  0  0  0  0  0  0  0  0
    8.4634  -19.2998   26.7421 C   0  0  2  0  0  0  0  0  0  0  0  0
    9.0727  -18.2635   25.9317 N   0  0  0  0  0  0  0  0  0  0  0  0
    9.4753  -20.0852   27.4123 C   0  0  0  0  0  0  0  0  0  0  0  0
    9.2089  -20.6765   28.4976 O   0  0  0  0  0  0  0  0  0  0  0  0
   10.7801  -20.2553   26.9461 O   0  0  0  0  0  0  0  0  0  0  0  0
  2 12  2  0
  2  1  1  0
  3  2  1  0
  4  5  1  0
  4  3  2  0
  5 11  2  0
  6  5  1  0
  7  9  1  0
  7  6  1  0
  7  8  1  1
  9 13  1  0
  9 10  2  0
 11 12  1  0
 13 14  1  0
 14 25  1  0
 14 15  1  1
 16 24  1  0
 16 15  1  0
 17 16  2  0
 18 17  1  0
 18 19  1  0
 19 24  2  0
 20 19  1  0
 20 21  2  0
 21 22  1  0
 22 23  2  0
 24 23  1  0
 25 26  2  0
 25 31  1  0
 28 27  1  1
 28 29  1  0
 30 32  1  0
 30 28  1  0
 30 31  1  6
 32 34  1  0
 33 32  2  0
M  END
$$$$
