YWV.pdb
     RDKit          3D

 34 36  0  0  1  0  0  0  0  0999 V2000
    7.5964  -15.8358   14.4534 O   0  0  0  0  0  0  0  0  0  0  0  0
    8.0287  -15.4264   15.6960 C   0  0  0  0  0  0  0  0  0  0  0  0
    7.7157  -14.1503   16.1297 C   0  0  0  0  0  0  0  0  0  0  0  0
    8.1358  -13.7138   17.3731 C   0  0  0  0  0  0  0  0  0  0  0  0
    8.8821  -14.5884   18.1807 C   0  0  0  0  0  0  0  0  0  0  0  0
    9.3458  -14.1565   19.5049 C   0  0  0  0  0  0  0  0  0  0  0  0
   10.1582  -15.2682   20.1898 C   0  0  2  0  0  0  0  0  0  0  0  0
    9.4172  -16.5349   19.9915 N   0  0  0  0  0  0  0  0  0  0  0  0
   10.1957  -15.0308   21.6371 C   0  0  0  0  0  0  0  0  0  0  0  0
   10.9140  -14.1167   22.1649 O   0  0  0  0  0  0  0  0  0  0  0  0
    9.1913  -15.8547   17.7471 C   0  0  0  0  0  0  0  0  0  0  0  0
    8.7753  -16.2967   16.5051 C   0  0  0  0  0  0  0  0  0  0  0  0
    9.4212  -15.8184   22.5146 N   0  0  0  0  0  0  0  0  0  0  0  0
    9.0303  -15.3129   23.8482 C   0  0  1  0  0  0  0  0  0  0  0  0
    7.5408  -15.6495   23.9340 C   0  0  0  0  0  0  0  0  0  0  0  0
    6.8490  -15.0002   25.0565 C   0  0  0  0  0  0  0  0  0  0  0  0
    6.1618  -15.6254   26.0521 C   0  0  0  0  0  0  0  0  0  0  0  0
    5.6681  -14.6786   26.8605 N   0  0  0  0  0  0  0  0  0  0  0  0
    6.0269  -13.4564   26.4019 C   0  0  0  0  0  0  0  0  0  0  0  0
    5.7732  -12.1865   26.8851 C   0  0  0  0  0  0  0  0  0  0  0  0
    6.2561  -11.0494   26.2492 C   0  0  0  0  0  0  0  0  0  0  0  0
    6.9969  -11.2490   25.1169 C   0  0  0  0  0  0  0  0  0  0  0  0
    7.2557  -12.5058   24.6253 C   0  0  0  0  0  0  0  0  0  0  0  0
    6.7682  -13.6362   25.2698 C   0  0  0  0  0  0  0  0  0  0  0  0
    9.8674  -15.9600   24.8295 C   0  0  0  0  0  0  0  0  0  0  0  0
   10.5335  -17.0023   24.5718 O   0  0  0  0  0  0  0  0  0  0  0  0
    9.7752  -14.9108   29.0573 C   0  0  0  0  0  0  0  0  0  0  0  0
   11.0713  -15.2850   28.3577 C   0  0  2  0  0  0  0  0  0  0  0  0
   11.6845  -13.9844   27.8844 C   0  0  0  0  0  0  0  0  0  0  0  0
   10.8172  -16.1347   27.1394 C   0  0  2  0  0  0  0  0  0  0  0  0
    9.9970  -15.4559   26.1553 N   0  0  0  0  0  0  0  0  0  0  0  0
   10.2223  -17.3969   27.5173 C   0  0  0  0  0  0  0  0  0  0  0  0
   10.8420  -18.1909   28.2815 O   0  0  0  0  0  0  0  0  0  0  0  0
    8.9673  -17.8368   27.0926 O   0  0  0  0  0  0  0  0  0  0  0  0
  2 12  2  0
  2  1  1  0
  3  2  1  0
  4  5  1  0
  4  3  2  0
  5 11  2  0
  6  5  1  0
  7  9  1  0
  7  6  1  0
  7  8  1  1
  9 13  1  0
  9 10  2  0
 11 12  1  0
 13 14  1  0
 14 25  1  0
 14 15  1  1
 16 24  1  0
 16 15  1  0
 17 16  2  0
 18 17  1  0
 18 19  1  0
 19 24  2  0
 20 19  1  0
 20 21  2  0
 21 22  1  0
 22 23  2  0
 24 23  1  0
 25 26  2  0
 25 31  1  0
 28 27  1  6
 28 29  1  0
 30 32  1  0
 30 28  1  0
 30 31  1  6
 32 34  1  0
 33 32  2  0
M  END
$$$$
