YWV.pdb
     RDKit          3D

 34 36  0  0  1  0  0  0  0  0999 V2000
    6.9956  -14.6939   14.1862 O   0  0  0  0  0  0  0  0  0  0  0  0
    7.3371  -15.0089   15.4834 C   0  0  0  0  0  0  0  0  0  0  0  0
    7.6214  -16.3248   15.8029 C   0  0  0  0  0  0  0  0  0  0  0  0
    7.9682  -16.6689   17.0969 C   0  0  0  0  0  0  0  0  0  0  0  0
    8.0250  -15.6600   18.0732 C   0  0  0  0  0  0  0  0  0  0  0  0
    8.3874  -15.9908   19.4568 C   0  0  0  0  0  0  0  0  0  0  0  0
    9.5618  -15.1221   19.9376 C   0  0  2  0  0  0  0  0  0  0  0  0
   10.7660  -15.5714   19.2023 N   0  0  0  0  0  0  0  0  0  0  0  0
    9.8198  -15.3846   21.3578 C   0  0  0  0  0  0  0  0  0  0  0  0
   10.6710  -16.2504   21.7528 O   0  0  0  0  0  0  0  0  0  0  0  0
    7.7421  -14.3545   17.7527 C   0  0  0  0  0  0  0  0  0  0  0  0
    7.3939  -14.0042   16.4616 C   0  0  0  0  0  0  0  0  0  0  0  0
    9.1243  -14.6730   22.3578 N   0  0  0  0  0  0  0  0  0  0  0  0
    9.4711  -14.8314   23.7866 C   0  0  1  0  0  0  0  0  0  0  0  0
    8.5713  -13.8117   24.4866 C   0  0  0  0  0  0  0  0  0  0  0  0
    8.6843  -13.8272   25.9519 C   0  0  0  0  0  0  0  0  0  0  0  0
    9.5778  -14.5467   26.6855 C   0  0  0  0  0  0  0  0  0  0  0  0
    9.3353  -14.2969   27.9787 N   0  0  0  0  0  0  0  0  0  0  0  0
    8.3021  -13.4289   28.0884 C   0  0  0  0  0  0  0  0  0  0  0  0
    7.6915  -12.8673   29.1940 C   0  0  0  0  0  0  0  0  0  0  0  0
    6.6330  -11.9753   29.0738 C   0  0  0  0  0  0  0  0  0  0  0  0
    6.2228  -11.6796   27.8029 C   0  0  0  0  0  0  0  0  0  0  0  0
    6.8203  -12.2316   26.6954 C   0  0  0  0  0  0  0  0  0  0  0  0
    7.8787  -13.1222   26.8274 C   0  0  0  0  0  0  0  0  0  0  0  0
    9.2405  -16.2093   24.1478 C   0  0  0  0  0  0  0  0  0  0  0  0
    8.1614  -16.8096   23.8799 O   0  0  0  0  0  0  0  0  0  0  0  0
   11.0783  -20.6087   25.0083 C   0  0  0  0  0  0  0  0  0  0  0  0
   10.7155  -19.3252   24.2800 C   0  0  2  0  0  0  0  0  0  0  0  0
   12.0272  -18.6736   23.8974 C   0  0  0  0  0  0  0  0  0  0  0  0
    9.9803  -18.3667   25.1807 C   0  0  2  0  0  0  0  0  0  0  0  0
   10.2248  -16.9817   24.8285 N   0  0  0  0  0  0  0  0  0  0  0  0
   10.3207  -18.6097   26.5646 C   0  0  0  0  0  0  0  0  0  0  0  0
   11.2253  -17.9293   27.1280 O   0  0  0  0  0  0  0  0  0  0  0  0
    9.7117  -19.5737   27.3699 O   0  0  0  0  0  0  0  0  0  0  0  0
  2 12  2  0
  2  1  1  0
  3  2  1  0
  4  5  1  0
  4  3  2  0
  5 11  2  0
  6  5  1  0
  7  9  1  0
  7  6  1  0
  7  8  1  6
  9 13  1  0
  9 10  2  0
 11 12  1  0
 13 14  1  0
 14 25  1  0
 14 15  1  1
 16 24  1  0
 16 15  1  0
 17 16  2  0
 18 17  1  0
 18 19  1  0
 19 24  2  0
 20 19  1  0
 20 21  2  0
 21 22  1  0
 22 23  2  0
 24 23  1  0
 25 26  2  0
 25 31  1  0
 28 27  1  1
 28 29  1  0
 30 32  1  0
 30 28  1  0
 30 31  1  6
 32 34  1  0
 33 32  2  0
M  END
$$$$
