YWV.pdb
     RDKit          3D

 34 36  0  0  1  0  0  0  0  0999 V2000
    7.3597  -20.9051   17.0747 O   0  0  0  0  0  0  0  0  0  0  0  0
    8.1252  -20.2533   18.0169 C   0  0  0  0  0  0  0  0  0  0  0  0
    8.3613  -18.8978   17.8701 C   0  0  0  0  0  0  0  0  0  0  0  0
    9.1252  -18.2182   18.8016 C   0  0  0  0  0  0  0  0  0  0  0  0
    9.6526  -18.9295   19.8927 C   0  0  0  0  0  0  0  0  0  0  0  0
   10.4696  -18.2396   20.8985 C   0  0  0  0  0  0  0  0  0  0  0  0
   10.5473  -16.7328   20.6006 C   0  0  2  0  0  0  0  0  0  0  0  0
   11.9345  -16.4446   20.1700 N   0  0  0  0  0  0  0  0  0  0  0  0
   10.3298  -15.9741   21.8374 C   0  0  0  0  0  0  0  0  0  0  0  0
   11.2763  -15.3785   22.4535 O   0  0  0  0  0  0  0  0  0  0  0  0
    9.4164  -20.2751   20.0354 C   0  0  0  0  0  0  0  0  0  0  0  0
    8.6545  -20.9603   19.1074 C   0  0  0  0  0  0  0  0  0  0  0  0
    9.0400  -15.8713   22.3996 N   0  0  0  0  0  0  0  0  0  0  0  0
    8.8135  -15.1233   23.6550 C   0  0  1  0  0  0  0  0  0  0  0  0
    7.3510  -14.6878   23.5511 C   0  0  0  0  0  0  0  0  0  0  0  0
    6.8123  -14.1153   24.7929 C   0  0  0  0  0  0  0  0  0  0  0  0
    5.8810  -14.6843   25.6071 C   0  0  0  0  0  0  0  0  0  0  0  0
    5.6504  -13.8341   26.6159 N   0  0  0  0  0  0  0  0  0  0  0  0
    6.4181  -12.7293   26.4642 C   0  0  0  0  0  0  0  0  0  0  0  0
    6.5446  -11.5893   27.2354 C   0  0  0  0  0  0  0  0  0  0  0  0
    7.4169  -10.5639   26.8918 C   0  0  0  0  0  0  0  0  0  0  0  0
    8.1465  -10.7382   25.7480 C   0  0  0  0  0  0  0  0  0  0  0  0
    8.0297  -11.8660   24.9718 C   0  0  0  0  0  0  0  0  0  0  0  0
    7.1545  -12.8857   25.3254 C   0  0  0  0  0  0  0  0  0  0  0  0
    9.1189  -16.0045   24.7562 C   0  0  0  0  0  0  0  0  0  0  0  0
    9.2929  -15.5829   25.9346 O   0  0  0  0  0  0  0  0  0  0  0  0
    9.8711  -20.2696   24.2368 C   0  0  0  0  0  0  0  0  0  0  0  0
    9.0550  -19.7223   25.3960 C   0  0  2  0  0  0  0  0  0  0  0  0
    7.6140  -19.7208   24.9322 C   0  0  0  0  0  0  0  0  0  0  0  0
    9.4295  -18.2975   25.7124 C   0  0  2  0  0  0  0  0  0  0  0  0
    9.2385  -17.4128   24.5798 N   0  0  0  0  0  0  0  0  0  0  0  0
   10.7912  -18.2262   26.1924 C   0  0  0  0  0  0  0  0  0  0  0  0
   11.6384  -17.4966   25.6021 O   0  0  0  0  0  0  0  0  0  0  0  0
   11.2756  -18.9246   27.2999 O   0  0  0  0  0  0  0  0  0  0  0  0
  2 12  2  0
  2  1  1  0
  3  2  1  0
  4  5  1  0
  4  3  2  0
  5 11  2  0
  6  5  1  0
  7  9  1  0
  7  6  1  0
  7  8  1  1
  9 13  1  0
  9 10  2  0
 11 12  1  0
 13 14  1  0
 14 25  1  0
 14 15  1  1
 16 24  1  0
 16 15  1  0
 17 16  2  0
 18 17  1  0
 18 19  1  0
 19 24  2  0
 20 19  1  0
 20 21  2  0
 21 22  1  0
 22 23  2  0
 24 23  1  0
 25 26  2  0
 25 31  1  0
 28 27  1  6
 28 29  1  0
 30 32  1  0
 30 28  1  0
 30 31  1  6
 32 34  1  0
 33 32  2  0
M  END
$$$$
