YWV.pdb
     RDKit          3D

 34 36  0  0  1  0  0  0  0  0999 V2000
    9.4969  -24.1944   17.7157 O   0  0  0  0  0  0  0  0  0  0  0  0
    9.6570  -23.1325   18.5790 C   0  0  0  0  0  0  0  0  0  0  0  0
   10.8906  -22.5108   18.6581 C   0  0  0  0  0  0  0  0  0  0  0  0
   11.0790  -21.4418   19.5154 C   0  0  0  0  0  0  0  0  0  0  0  0
    9.9977  -21.0040   20.2987 C   0  0  0  0  0  0  0  0  0  0  0  0
   10.1637  -19.8737   21.2206 C   0  0  0  0  0  0  0  0  0  0  0  0
    9.7375  -18.5556   20.5528 C   0  0  2  0  0  0  0  0  0  0  0  0
   10.6604  -18.3234   19.4183 N   0  0  0  0  0  0  0  0  0  0  0  0
    9.9387  -17.4423   21.4870 C   0  0  0  0  0  0  0  0  0  0  0  0
   11.0535  -16.8295   21.5955 O   0  0  0  0  0  0  0  0  0  0  0  0
    8.7744  -21.6235   20.2178 C   0  0  0  0  0  0  0  0  0  0  0  0
    8.5799  -22.6930   19.3638 C   0  0  0  0  0  0  0  0  0  0  0  0
    8.8850  -16.9986   22.3133 N   0  0  0  0  0  0  0  0  0  0  0  0
    9.0549  -15.8297   23.2031 C   0  0  1  0  0  0  0  0  0  0  0  0
    7.7059  -15.1144   23.1129 C   0  0  0  0  0  0  0  0  0  0  0  0
    7.6608  -13.8381   23.8402 C   0  0  0  0  0  0  0  0  0  0  0  0
    8.0346  -12.6205   23.3586 C   0  0  0  0  0  0  0  0  0  0  0  0
    7.8586  -11.7252   24.3389 N   0  0  0  0  0  0  0  0  0  0  0  0
    7.3776  -12.3464   25.4415 C   0  0  0  0  0  0  0  0  0  0  0  0
    7.0314  -11.8608   26.6884 C   0  0  0  0  0  0  0  0  0  0  0  0
    6.5397  -12.6905   27.6885 C   0  0  0  0  0  0  0  0  0  0  0  0
    6.4152  -14.0167   27.3777 C   0  0  0  0  0  0  0  0  0  0  0  0
    6.7566  -14.5127   26.1425 C   0  0  0  0  0  0  0  0  0  0  0  0
    7.2469  -13.6735   25.1494 C   0  0  0  0  0  0  0  0  0  0  0  0
    9.4082  -16.3191   24.5138 C   0  0  0  0  0  0  0  0  0  0  0  0
    8.8392  -17.3159   25.0421 O   0  0  0  0  0  0  0  0  0  0  0  0
   13.3156  -16.5241   25.6099 C   0  0  0  0  0  0  0  0  0  0  0  0
   12.4134  -15.9974   26.7135 C   0  0  2  0  0  0  0  0  0  0  0  0
   12.8488  -16.6977   27.9829 C   0  0  0  0  0  0  0  0  0  0  0  0
   10.9712  -16.3595   26.4693 C   0  0  2  0  0  0  0  0  0  0  0  0
   10.4302  -15.7058   25.2938 N   0  0  0  0  0  0  0  0  0  0  0  0
   10.1695  -16.0605   27.6345 C   0  0  0  0  0  0  0  0  0  0  0  0
    9.3955  -15.0608   27.6370 O   0  0  0  0  0  0  0  0  0  0  0  0
   10.1757  -16.8118   28.8112 O   0  0  0  0  0  0  0  0  0  0  0  0
  2 12  2  0
  2  1  1  0
  3  2  1  0
  4  5  1  0
  4  3  2  0
  5 11  2  0
  6  5  1  0
  7  9  1  0
  7  6  1  0
  7  8  1  6
  9 13  1  0
  9 10  2  0
 11 12  1  0
 13 14  1  0
 14 25  1  0
 14 15  1  1
 16 24  1  0
 16 15  1  0
 17 16  2  0
 18 17  1  0
 18 19  1  0
 19 24  2  0
 20 19  1  0
 20 21  2  0
 21 22  1  0
 22 23  2  0
 24 23  1  0
 25 26  2  0
 25 31  1  0
 28 27  1  6
 28 29  1  0
 30 32  1  0
 30 28  1  0
 30 31  1  6
 32 34  1  0
 33 32  2  0
M  END
$$$$
