YWV.pdb
     RDKit          3D

 34 36  0  0  1  0  0  0  0  0999 V2000
   10.1145  -21.0984   14.6351 O   0  0  0  0  0  0  0  0  0  0  0  0
   10.1464  -20.4485   15.8497 C   0  0  0  0  0  0  0  0  0  0  0  0
    9.0495  -20.5373   16.6884 C   0  0  0  0  0  0  0  0  0  0  0  0
    9.0551  -19.8959   17.9138 C   0  0  0  0  0  0  0  0  0  0  0  0
   10.1910  -19.1573   18.2858 C   0  0  0  0  0  0  0  0  0  0  0  0
   10.2293  -18.4624   19.5783 C   0  0  0  0  0  0  0  0  0  0  0  0
    9.4692  -17.1275   19.5047 C   0  0  2  0  0  0  0  0  0  0  0  0
   10.1520  -16.2924   18.4902 N   0  0  0  0  0  0  0  0  0  0  0  0
    9.5963  -16.4169   20.7820 C   0  0  0  0  0  0  0  0  0  0  0  0
   10.4384  -15.4744   20.9630 O   0  0  0  0  0  0  0  0  0  0  0  0
   11.2783  -19.0711   17.4508 C   0  0  0  0  0  0  0  0  0  0  0  0
   11.2787  -19.7090   16.2243 C   0  0  0  0  0  0  0  0  0  0  0  0
    8.7736  -16.7549   21.8770 N   0  0  0  0  0  0  0  0  0  0  0  0
    8.6952  -15.8829   23.0688 C   0  0  1  0  0  0  0  0  0  0  0  0
    7.1955  -15.8134   23.3610 C   0  0  0  0  0  0  0  0  0  0  0  0
    6.8681  -15.1501   24.6310 C   0  0  0  0  0  0  0  0  0  0  0  0
    6.2910  -15.7297   25.7196 C   0  0  0  0  0  0  0  0  0  0  0  0
    6.1456  -14.7819   26.6546 N   0  0  0  0  0  0  0  0  0  0  0  0
    6.6201  -13.6038   26.1856 C   0  0  0  0  0  0  0  0  0  0  0  0
    6.6996  -12.3523   26.7669 C   0  0  0  0  0  0  0  0  0  0  0  0
    7.2431  -11.2643   26.0951 C   0  0  0  0  0  0  0  0  0  0  0  0
    7.6967  -11.4931   24.8251 C   0  0  0  0  0  0  0  0  0  0  0  0
    7.6227  -12.7320   24.2351 C   0  0  0  0  0  0  0  0  0  0  0  0
    7.0776  -13.8133   24.9167 C   0  0  0  0  0  0  0  0  0  0  0  0
    9.4998  -16.4798   24.1074 C   0  0  0  0  0  0  0  0  0  0  0  0
    9.6354  -15.9531   25.2479 O   0  0  0  0  0  0  0  0  0  0  0  0
   12.8279  -16.6937   25.3366 C   0  0  0  0  0  0  0  0  0  0  0  0
   12.4391  -18.0720   24.8283 C   0  0  2  0  0  0  0  0  0  0  0  0
   12.7555  -18.0791   23.3480 C   0  0  0  0  0  0  0  0  0  0  0  0
   10.9599  -18.3191   24.9755 C   0  0  2  0  0  0  0  0  0  0  0  0
   10.1904  -17.7096   23.9086 N   0  0  0  0  0  0  0  0  0  0  0  0
   10.4958  -17.8614   26.2659 C   0  0  0  0  0  0  0  0  0  0  0  0
    9.5780  -16.9953   26.3434 O   0  0  0  0  0  0  0  0  0  0  0  0
   10.9951  -18.3111   27.4896 O   0  0  0  0  0  0  0  0  0  0  0  0
  2 12  2  0
  2  1  1  0
  3  2  1  0
  4  5  1  0
  4  3  2  0
  5 11  2  0
  6  5  1  0
  7  9  1  0
  7  6  1  0
  7  8  1  6
  9 13  1  0
  9 10  2  0
 11 12  1  0
 13 14  1  0
 14 25  1  0
 14 15  1  1
 16 24  1  0
 16 15  1  0
 17 16  2  0
 18 17  1  0
 18 19  1  0
 19 24  2  0
 20 19  1  0
 20 21  2  0
 21 22  1  0
 22 23  2  0
 24 23  1  0
 25 26  2  0
 25 31  1  0
 28 27  1  6
 28 29  1  0
 30 32  1  0
 30 28  1  0
 30 31  1  6
 32 34  1  0
 33 32  2  0
M  END
$$$$
