YYA.pdb
     RDKit          3D

 30 31  0  0  1  0  0  0  0  0999 V2000
   19.1538  -30.2293  -23.3278 O   0  0  0  0  0  0  0  0  0  0  0  0
   19.4609  -29.9889  -21.9971 C   0  0  0  0  0  0  0  0  0  0  0  0
   19.3164  -28.7273  -21.4904 C   0  0  0  0  0  0  0  0  0  0  0  0
   19.6133  -28.4626  -20.1770 C   0  0  0  0  0  0  0  0  0  0  0  0
   20.0700  -29.4481  -19.3049 C   0  0  0  0  0  0  0  0  0  0  0  0
   20.3962  -29.1461  -17.8957 C   0  0  0  0  0  0  0  0  0  0  0  0
   21.7259  -28.5007  -17.7059 C   0  0  2  0  0  0  0  0  0  0  0  0
   22.8242  -29.3953  -18.0201 N   0  0  0  0  0  0  0  0  0  0  0  0
   21.9441  -27.9599  -16.3433 C   0  0  0  0  0  0  0  0  0  0  0  0
   22.3746  -28.7618  -15.4422 O   0  0  0  0  0  0  0  0  0  0  0  0
   20.2020  -30.7082  -19.8570 C   0  0  0  0  0  0  0  0  0  0  0  0
   19.9049  -30.9786  -21.1753 C   0  0  0  0  0  0  0  0  0  0  0  0
   27.7818  -25.8293  -17.5228 O   0  0  0  0  0  0  0  0  0  0  0  0
   26.5907  -25.5895  -16.8769 C   0  0  0  0  0  0  0  0  0  0  0  0
   26.3656  -26.1144  -15.6232 C   0  0  0  0  0  0  0  0  0  0  0  0
   25.1529  -25.8511  -15.0035 C   0  0  0  0  0  0  0  0  0  0  0  0
   24.1766  -25.0860  -15.6021 C   0  0  0  0  0  0  0  0  0  0  0  0
   22.9357  -24.8479  -14.9016 C   0  0  0  0  0  0  0  0  0  0  0  0
   22.0158  -26.0238  -14.7619 C   0  0  2  0  0  0  0  0  0  0  0  0
   21.6832  -26.5997  -16.0532 N   0  0  0  0  0  0  0  0  0  0  0  0
   20.7859  -25.7432  -13.9807 C   0  0  0  0  0  0  0  0  0  0  0  0
   19.9142  -25.0089  -14.5086 O   0  0  0  0  0  0  0  0  0  0  0  0
   24.4249  -24.5644  -16.8712 C   0  0  0  0  0  0  0  0  0  0  0  0
   25.6117  -24.8125  -17.4968 C   0  0  0  0  0  0  0  0  0  0  0  0
   19.6436  -26.6657  -10.5617 C   0  0  0  0  0  0  0  0  0  0  0  0
   19.4153  -25.8734  -11.8701 C   0  0  2  0  0  0  0  0  0  0  0  0
   20.5648  -26.2601  -12.7015 N   0  0  0  0  0  0  0  0  0  0  0  0
   19.5061  -24.4632  -11.4913 C   0  0  0  0  0  0  0  0  0  0  0  0
   20.6046  -23.8569  -11.4527 O   0  0  0  0  0  0  0  0  0  0  0  0
   18.3686  -23.7507  -11.1622 O   0  0  0  0  0  0  0  0  0  0  0  0
  2 12  2  0
  2  1  1  0
  3  2  1  0
  4  5  1  0
  4  3  2  0
  5 11  2  0
  6  7  1  0
  6  5  1  0
  7  8  1  1
  9  7  1  0
  9 20  1  0
 10  9  2  0
 11 12  1  0
 14 13  1  0
 15 14  2  0
 16 15  1  0
 17 23  1  0
 17 16  2  0
 18 17  1  0
 19 21  1  0
 19 20  1  0
 19 18  1  6
 21 22  2  0
 23 24  2  0
 24 14  1  0
 26 25  1  1
 26 28  1  0
 27 26  1  0
 27 21  1  0
 28 29  2  0
 28 30  1  0
M  END
$$$$
