YYA.pdb
     RDKit          3D

 30 31  0  0  1  0  0  0  0  0999 V2000
   19.3420    3.6736  -17.0900 O   0  0  0  0  0  0  0  0  0  0  0  0
   19.1968    2.3292  -16.7829 C   0  0  0  0  0  0  0  0  0  0  0  0
   18.2406    1.9434  -15.8850 C   0  0  0  0  0  0  0  0  0  0  0  0
   18.0762    0.6194  -15.5637 C   0  0  0  0  0  0  0  0  0  0  0  0
   18.8612   -0.3849  -16.1253 C   0  0  0  0  0  0  0  0  0  0  0  0
   18.6800   -1.8056  -15.7616 C   0  0  0  0  0  0  0  0  0  0  0  0
   17.7789   -2.5567  -16.6806 C   0  0  2  0  0  0  0  0  0  0  0  0
   16.3851   -2.1929  -16.5073 N   0  0  0  0  0  0  0  0  0  0  0  0
   17.8913   -4.0300  -16.5634 C   0  0  0  0  0  0  0  0  0  0  0  0
   17.0345   -4.6400  -15.8326 O   0  0  0  0  0  0  0  0  0  0  0  0
   19.8149    0.0478  -17.0271 C   0  0  0  0  0  0  0  0  0  0  0  0
   19.9836    1.3763  -17.3528 C   0  0  0  0  0  0  0  0  0  0  0  0
   19.9832  -12.3293  -18.7051 O   0  0  0  0  0  0  0  0  0  0  0  0
   19.8773  -10.9587  -18.6433 C   0  0  0  0  0  0  0  0  0  0  0  0
   20.9733  -10.1947  -18.3069 C   0  0  0  0  0  0  0  0  0  0  0  0
   20.8283   -8.8162  -18.2549 C   0  0  0  0  0  0  0  0  0  0  0  0
   19.6292   -8.1962  -18.5279 C   0  0  0  0  0  0  0  0  0  0  0  0
   19.5454   -6.7556  -18.4575 C   0  0  0  0  0  0  0  0  0  0  0  0
   19.0020   -6.1835  -17.1825 C   0  0  2  0  0  0  0  0  0  0  0  0
   18.9149   -4.7347  -17.2401 N   0  0  0  0  0  0  0  0  0  0  0  0
   19.7293   -6.6168  -15.9639 C   0  0  0  0  0  0  0  0  0  0  0  0
   20.8189   -6.0493  -15.7021 O   0  0  0  0  0  0  0  0  0  0  0  0
   18.5325   -8.9882  -18.8662 C   0  0  0  0  0  0  0  0  0  0  0  0
   18.6556  -10.3458  -18.9226 C   0  0  0  0  0  0  0  0  0  0  0  0
   19.0221   -9.0982  -13.2829 C   0  0  0  0  0  0  0  0  0  0  0  0
   19.9576   -8.0246  -13.8864 C   0  0  2  0  0  0  0  0  0  0  0  0
   19.2525   -7.6146  -15.1099 N   0  0  0  0  0  0  0  0  0  0  0  0
   21.1955   -8.7301  -14.2184 C   0  0  0  0  0  0  0  0  0  0  0  0
   21.4864   -9.0374  -15.4003 O   0  0  0  0  0  0  0  0  0  0  0  0
   22.0906   -9.0812  -13.2257 O   0  0  0  0  0  0  0  0  0  0  0  0
  2 12  2  0
  2  1  1  0
  3  2  1  0
  4  5  1  0
  4  3  2  0
  5 11  2  0
  6  7  1  0
  6  5  1  0
  7  8  1  1
  9  7  1  0
  9 20  1  0
 10  9  2  0
 11 12  1  0
 14 13  1  0
 15 14  2  0
 16 15  1  0
 17 23  1  0
 17 16  2  0
 18 17  1  0
 19 21  1  0
 19 20  1  0
 19 18  1  6
 21 22  2  0
 23 24  2  0
 24 14  1  0
 26 25  1  6
 26 28  1  0
 27 26  1  0
 27 21  1  0
 28 29  2  0
 28 30  1  0
M  END
$$$$
