YYA.pdb
     RDKit          3D

 30 31  0  0  1  0  0  0  0  0999 V2000
   11.2221  -12.4629  -16.4673 O   0  0  0  0  0  0  0  0  0  0  0  0
   12.5240  -11.9874  -16.4264 C   0  0  0  0  0  0  0  0  0  0  0  0
   13.5318  -12.8188  -16.0233 C   0  0  0  0  0  0  0  0  0  0  0  0
   14.8288  -12.3731  -15.9739 C   0  0  0  0  0  0  0  0  0  0  0  0
   15.1818  -11.0724  -16.3257 C   0  0  0  0  0  0  0  0  0  0  0  0
   16.5814  -10.6032  -16.2573 C   0  0  0  0  0  0  0  0  0  0  0  0
   17.2457  -10.4810  -17.5856 C   0  0  2  0  0  0  0  0  0  0  0  0
   17.5275  -11.7725  -18.1835 N   0  0  0  0  0  0  0  0  0  0  0  0
   18.5037   -9.6976  -17.5602 C   0  0  0  0  0  0  0  0  0  0  0  0
   19.6091  -10.3360  -17.6636 O   0  0  0  0  0  0  0  0  0  0  0  0
   14.1340  -10.2657  -16.7270 C   0  0  0  0  0  0  0  0  0  0  0  0
   12.8300  -10.7089  -16.7781 C   0  0  0  0  0  0  0  0  0  0  0  0
   19.5399   -6.9803  -23.6959 O   0  0  0  0  0  0  0  0  0  0  0  0
   19.5662   -6.8053  -22.3313 C   0  0  0  0  0  0  0  0  0  0  0  0
   20.7523   -6.9268  -21.6410 C   0  0  0  0  0  0  0  0  0  0  0  0
   20.7396   -6.7435  -20.2661 C   0  0  0  0  0  0  0  0  0  0  0  0
   19.5838   -6.4460  -19.5786 C   0  0  0  0  0  0  0  0  0  0  0  0
   19.6392   -6.2656  -18.1463 C   0  0  0  0  0  0  0  0  0  0  0  0
   19.7030   -7.5161  -17.3214 C   0  0  2  0  0  0  0  0  0  0  0  0
   18.4778   -8.2893  -17.4257 N   0  0  0  0  0  0  0  0  0  0  0  0
   20.0593   -7.2880  -15.8992 C   0  0  0  0  0  0  0  0  0  0  0  0
   19.2821   -6.5830  -15.2089 O   0  0  0  0  0  0  0  0  0  0  0  0
   18.3943   -6.3277  -20.2966 C   0  0  0  0  0  0  0  0  0  0  0  0
   18.3869   -6.5045  -21.6495 C   0  0  0  0  0  0  0  0  0  0  0  0
   22.7447   -8.6135  -13.6956 C   0  0  0  0  0  0  0  0  0  0  0  0
   21.4723   -7.7506  -13.8647 C   0  0  2  0  0  0  0  0  0  0  0  0
   21.2076   -7.8225  -15.3093 N   0  0  0  0  0  0  0  0  0  0  0  0
   21.8682   -6.3953  -13.4815 C   0  0  0  0  0  0  0  0  0  0  0  0
   22.0155   -6.0628  -12.2800 O   0  0  0  0  0  0  0  0  0  0  0  0
   22.0946   -5.4317  -14.4459 O   0  0  0  0  0  0  0  0  0  0  0  0
  2 12  2  0
  2  1  1  0
  3  2  1  0
  4  5  1  0
  4  3  2  0
  5 11  2  0
  6  7  1  0
  6  5  1  0
  7  8  1  1
  9  7  1  0
  9 20  1  0
 10  9  2  0
 11 12  1  0
 14 13  1  0
 15 14  2  0
 16 15  1  0
 17 23  1  0
 17 16  2  0
 18 17  1  0
 19 21  1  0
 19 20  1  0
 19 18  1  6
 21 22  2  0
 23 24  2  0
 24 14  1  0
 26 25  1  6
 26 28  1  0
 27 26  1  0
 27 21  1  0
 28 29  2  0
 28 30  1  0
M  END
$$$$
