YYA.pdb
     RDKit          3D

 30 31  0  0  1  0  0  0  0  0999 V2000
   28.6725  -19.7166   -3.1798 O   0  0  0  0  0  0  0  0  0  0  0  0
   28.2155  -19.7137   -4.4889 C   0  0  0  0  0  0  0  0  0  0  0  0
   28.4976  -18.6482   -5.2979 C   0  0  0  0  0  0  0  0  0  0  0  0
   28.0572  -18.6204   -6.5973 C   0  0  0  0  0  0  0  0  0  0  0  0
   27.3121  -19.6584   -7.1520 C   0  0  0  0  0  0  0  0  0  0  0  0
   26.8353  -19.6098   -8.5499 C   0  0  0  0  0  0  0  0  0  0  0  0
   27.1364  -20.8391   -9.3364 C   0  0  2  0  0  0  0  0  0  0  0  0
   28.5607  -21.0983   -9.4329 N   0  0  0  0  0  0  0  0  0  0  0  0
   26.5731  -20.8303  -10.7073 C   0  0  0  0  0  0  0  0  0  0  0  0
   27.2271  -20.2140  -11.6198 O   0  0  0  0  0  0  0  0  0  0  0  0
   27.0492  -20.7151   -6.3010 C   0  0  0  0  0  0  0  0  0  0  0  0
   27.4895  -20.7473   -4.9954 C   0  0  0  0  0  0  0  0  0  0  0  0
   22.6013  -23.6943  -17.9592 O   0  0  0  0  0  0  0  0  0  0  0  0
   23.1267  -23.5136  -16.7003 C   0  0  0  0  0  0  0  0  0  0  0  0
   22.3521  -23.7529  -15.5865 C   0  0  0  0  0  0  0  0  0  0  0  0
   22.9162  -23.5598  -14.3341 C   0  0  0  0  0  0  0  0  0  0  0  0
   24.2180  -23.1391  -14.1753 C   0  0  0  0  0  0  0  0  0  0  0  0
   24.7457  -22.9588  -12.8426 C   0  0  0  0  0  0  0  0  0  0  0  0
   24.8238  -21.5465  -12.3448 C   0  0  2  0  0  0  0  0  0  0  0  0
   25.3510  -21.4839  -10.9927 N   0  0  0  0  0  0  0  0  0  0  0  0
   23.5478  -20.7958  -12.4451 C   0  0  0  0  0  0  0  0  0  0  0  0
   22.7326  -20.9014  -11.4954 O   0  0  0  0  0  0  0  0  0  0  0  0
   24.9845  -22.9026  -15.3158 C   0  0  0  0  0  0  0  0  0  0  0  0
   24.4471  -23.0869  -16.5564 C   0  0  0  0  0  0  0  0  0  0  0  0
   22.1657  -18.3905  -14.9228 C   0  0  0  0  0  0  0  0  0  0  0  0
   21.9986  -19.1814  -13.6043 C   0  0  2  0  0  0  0  0  0  0  0  0
   23.2271  -19.9868  -13.5382 N   0  0  0  0  0  0  0  0  0  0  0  0
   20.8319  -20.0395  -13.8111 C   0  0  0  0  0  0  0  0  0  0  0  0
   20.9388  -21.2056  -14.2636 O   0  0  0  0  0  0  0  0  0  0  0  0
   19.5630  -19.5830  -13.5086 O   0  0  0  0  0  0  0  0  0  0  0  0
  2 12  2  0
  2  1  1  0
  3  2  1  0
  4  5  1  0
  4  3  2  0
  5 11  2  0
  6  7  1  0
  6  5  1  0
  7  8  1  6
  9  7  1  0
  9 20  1  0
 10  9  2  0
 11 12  1  0
 14 13  1  0
 15 14  2  0
 16 15  1  0
 17 23  1  0
 17 16  2  0
 18 17  1  0
 19 21  1  0
 19 20  1  0
 19 18  1  1
 21 22  2  0
 23 24  2  0
 24 14  1  0
 26 25  1  6
 26 28  1  0
 27 26  1  0
 27 21  1  0
 28 29  2  0
 28 30  1  0
M  END
$$$$
