YYA.pdb
     RDKit          3D

 30 31  0  0  1  0  0  0  0  0999 V2000
   30.5622  -23.8359  -17.8271 O   0  0  0  0  0  0  0  0  0  0  0  0
   29.6012  -22.9905  -17.2938 C   0  0  0  0  0  0  0  0  0  0  0  0
   28.3931  -23.5024  -16.9092 C   0  0  0  0  0  0  0  0  0  0  0  0
   27.4249  -22.6874  -16.3786 C   0  0  0  0  0  0  0  0  0  0  0  0
   27.6177  -21.3187  -16.2065 C   0  0  0  0  0  0  0  0  0  0  0  0
   26.5619  -20.4514  -15.6437 C   0  0  0  0  0  0  0  0  0  0  0  0
   25.5049  -20.0699  -16.6224 C   0  0  2  0  0  0  0  0  0  0  0  0
   26.0113  -19.2098  -17.6754 N   0  0  0  0  0  0  0  0  0  0  0  0
   24.3275  -19.4093  -16.0105 C   0  0  0  0  0  0  0  0  0  0  0  0
   24.4725  -18.2162  -15.5683 O   0  0  0  0  0  0  0  0  0  0  0  0
   28.8514  -20.8424  -16.6078 C   0  0  0  0  0  0  0  0  0  0  0  0
   29.8268  -21.6571  -17.1411 C   0  0  0  0  0  0  0  0  0  0  0  0
   22.1468  -14.9598  -19.9422 O   0  0  0  0  0  0  0  0  0  0  0  0
   21.8382  -15.9812  -19.0733 C   0  0  0  0  0  0  0  0  0  0  0  0
   20.9791  -15.7575  -18.0198 C   0  0  0  0  0  0  0  0  0  0  0  0
   20.6917  -16.8113  -17.1649 C   0  0  0  0  0  0  0  0  0  0  0  0
   21.2369  -18.0640  -17.3392 C   0  0  0  0  0  0  0  0  0  0  0  0
   20.8951  -19.1194  -16.4138 C   0  0  0  0  0  0  0  0  0  0  0  0
   21.9133  -19.4327  -15.3584 C   0  0  2  0  0  0  0  0  0  0  0  0
   23.0852  -20.0808  -15.9208 N   0  0  0  0  0  0  0  0  0  0  0  0
   21.3813  -20.2130  -14.2140 C   0  0  0  0  0  0  0  0  0  0  0  0
   21.2225  -21.4487  -14.3739 O   0  0  0  0  0  0  0  0  0  0  0  0
   22.1040  -18.2688  -18.4118 C   0  0  0  0  0  0  0  0  0  0  0  0
   22.3989  -17.2444  -19.2635 C   0  0  0  0  0  0  0  0  0  0  0  0
   20.2110  -19.3065  -10.8011 C   0  0  0  0  0  0  0  0  0  0  0  0
   20.4676  -20.3921  -11.8723 C   0  0  2  0  0  0  0  0  0  0  0  0
   21.0586  -19.6330  -12.9844 N   0  0  0  0  0  0  0  0  0  0  0  0
   19.1442  -20.8958  -12.2399 C   0  0  0  0  0  0  0  0  0  0  0  0
   18.5112  -20.4398  -13.2234 O   0  0  0  0  0  0  0  0  0  0  0  0
   18.5475  -21.9021  -11.5041 O   0  0  0  0  0  0  0  0  0  0  0  0
  2 12  2  0
  2  1  1  0
  3  2  1  0
  4  5  1  0
  4  3  2  0
  5 11  2  0
  6  7  1  0
  6  5  1  0
  7  8  1  6
  9  7  1  0
  9 20  1  0
 10  9  2  0
 11 12  1  0
 14 13  1  0
 15 14  2  0
 16 15  1  0
 17 23  1  0
 17 16  2  0
 18 17  1  0
 19 21  1  0
 19 20  1  0
 19 18  1  6
 21 22  2  0
 23 24  2  0
 24 14  1  0
 26 25  1  1
 26 28  1  0
 27 26  1  0
 27 21  1  0
 28 29  2  0
 28 30  1  0
M  END
$$$$
