YYA.pdb
     RDKit          3D

 30 31  0  0  1  0  0  0  0  0999 V2000
   20.6974  -30.4575  -19.2821 O   0  0  0  0  0  0  0  0  0  0  0  0
   22.0334  -30.3964  -18.9157 C   0  0  0  0  0  0  0  0  0  0  0  0
   22.8793  -31.4050  -19.2851 C   0  0  0  0  0  0  0  0  0  0  0  0
   24.2058  -31.3689  -18.9355 C   0  0  0  0  0  0  0  0  0  0  0  0
   24.7520  -30.3208  -18.1983 C   0  0  0  0  0  0  0  0  0  0  0  0
   26.1803  -30.3007  -17.8197 C   0  0  0  0  0  0  0  0  0  0  0  0
   26.5769  -31.3962  -16.8907 C   0  0  2  0  0  0  0  0  0  0  0  0
   25.8851  -31.3188  -15.6177 N   0  0  0  0  0  0  0  0  0  0  0  0
   28.0333  -31.4617  -16.6234 C   0  0  0  0  0  0  0  0  0  0  0  0
   28.4990  -30.7519  -15.6645 O   0  0  0  0  0  0  0  0  0  0  0  0
   23.8634  -29.3229  -17.8455 C   0  0  0  0  0  0  0  0  0  0  0  0
   22.5305  -29.3550  -18.1945 C   0  0  0  0  0  0  0  0  0  0  0  0
   36.2183  -34.5886  -16.1295 O   0  0  0  0  0  0  0  0  0  0  0  0
   34.8669  -34.3842  -16.2891 C   0  0  0  0  0  0  0  0  0  0  0  0
   34.1148  -33.8866  -15.2476 C   0  0  0  0  0  0  0  0  0  0  0  0
   32.7555  -33.6939  -15.4459 C   0  0  0  0  0  0  0  0  0  0  0  0
   32.1430  -33.9839  -16.6449 C   0  0  0  0  0  0  0  0  0  0  0  0
   30.7231  -33.7585  -16.7867 C   0  0  0  0  0  0  0  0  0  0  0  0
   30.3049  -32.3652  -17.1504 C   0  0  2  0  0  0  0  0  0  0  0  0
   28.8774  -32.2843  -17.4064 N   0  0  0  0  0  0  0  0  0  0  0  0
   31.0731  -31.7744  -18.2740 C   0  0  0  0  0  0  0  0  0  0  0  0
   30.6396  -31.9595  -19.4382 O   0  0  0  0  0  0  0  0  0  0  0  0
   32.9227  -34.4866  -17.6859 C   0  0  0  0  0  0  0  0  0  0  0  0
   34.2614  -34.6830  -17.5099 C   0  0  0  0  0  0  0  0  0  0  0  0
   34.0943  -29.6130  -18.4718 C   0  0  0  0  0  0  0  0  0  0  0  0
   32.9634  -30.3838  -19.1922 C   0  0  2  0  0  0  0  0  0  0  0  0
   32.2404  -31.0296  -18.0866 N   0  0  0  0  0  0  0  0  0  0  0  0
   33.6400  -31.3844  -20.0178 C   0  0  0  0  0  0  0  0  0  0  0  0
   33.9311  -32.5222  -19.5744 O   0  0  0  0  0  0  0  0  0  0  0  0
   33.9805  -31.0998  -21.3266 O   0  0  0  0  0  0  0  0  0  0  0  0
  2 12  2  0
  2  1  1  0
  3  2  1  0
  4  5  1  0
  4  3  2  0
  5 11  2  0
  6  7  1  0
  6  5  1  0
  7  8  1  1
  9  7  1  0
  9 20  1  0
 10  9  2  0
 11 12  1  0
 14 13  1  0
 15 14  2  0
 16 15  1  0
 17 23  1  0
 17 16  2  0
 18 17  1  0
 19 21  1  0
 19 20  1  0
 19 18  1  6
 21 22  2  0
 23 24  2  0
 24 14  1  0
 26 25  1  1
 26 28  1  0
 27 26  1  0
 27 21  1  0
 28 29  2  0
 28 30  1  0
M  END
$$$$
