YYA.pdb
     RDKit          3D

 30 31  0  0  1  0  0  0  0  0999 V2000
   21.8860  -30.6157  -18.7684 O   0  0  0  0  0  0  0  0  0  0  0  0
   21.4870  -30.4430  -17.4518 C   0  0  0  0  0  0  0  0  0  0  0  0
   20.7029  -29.3728  -17.1210 C   0  0  0  0  0  0  0  0  0  0  0  0
   20.2943  -29.1788  -15.8254 C   0  0  0  0  0  0  0  0  0  0  0  0
   20.6503  -30.0467  -14.7958 C   0  0  0  0  0  0  0  0  0  0  0  0
   20.2117  -29.8192  -13.4031 C   0  0  0  0  0  0  0  0  0  0  0  0
   20.9086  -28.6902  -12.7246 C   0  0  2  0  0  0  0  0  0  0  0  0
   22.3368  -28.9155  -12.6029 N   0  0  0  0  0  0  0  0  0  0  0  0
   20.3733  -28.3729  -11.3794 C   0  0  0  0  0  0  0  0  0  0  0  0
   20.6847  -29.1519  -10.4117 O   0  0  0  0  0  0  0  0  0  0  0  0
   21.4428  -31.1144  -15.1727 C   0  0  0  0  0  0  0  0  0  0  0  0
   21.8555  -31.3132  -16.4726 C   0  0  0  0  0  0  0  0  0  0  0  0
   15.8508  -23.9061   -5.1958 O   0  0  0  0  0  0  0  0  0  0  0  0
   16.5706  -24.2853   -6.3055 C   0  0  0  0  0  0  0  0  0  0  0  0
   17.8589  -24.7538   -6.1675 C   0  0  0  0  0  0  0  0  0  0  0  0
   18.5532  -25.1267   -7.3090 C   0  0  0  0  0  0  0  0  0  0  0  0
   17.9948  -25.0421   -8.5651 C   0  0  0  0  0  0  0  0  0  0  0  0
   18.7715  -25.4484   -9.7135 C   0  0  0  0  0  0  0  0  0  0  0  0
   19.0133  -26.9205   -9.8645 C   0  0  2  0  0  0  0  0  0  0  0  0
   19.5449  -27.2438  -11.1770 N   0  0  0  0  0  0  0  0  0  0  0  0
   17.8331  -27.7647   -9.5545 C   0  0  0  0  0  0  0  0  0  0  0  0
   16.9332  -27.8522  -10.4264 O   0  0  0  0  0  0  0  0  0  0  0  0
   16.6897  -24.5652   -8.6822 C   0  0  0  0  0  0  0  0  0  0  0  0
   15.9907  -24.1936   -7.5710 C   0  0  0  0  0  0  0  0  0  0  0  0
   16.9172  -30.0161   -6.7483 C   0  0  0  0  0  0  0  0  0  0  0  0
   16.4858  -29.2273   -8.0067 C   0  0  2  0  0  0  0  0  0  0  0  0
   17.6904  -28.4567   -8.3491 N   0  0  0  0  0  0  0  0  0  0  0  0
   15.4156  -28.3360   -7.5587 C   0  0  0  0  0  0  0  0  0  0  0  0
   15.6578  -27.2431   -6.9906 O   0  0  0  0  0  0  0  0  0  0  0  0
   14.0907  -28.6780   -7.7527 O   0  0  0  0  0  0  0  0  0  0  0  0
  2 12  2  0
  2  1  1  0
  3  2  1  0
  4  5  1  0
  4  3  2  0
  5 11  2  0
  6  7  1  0
  6  5  1  0
  7  8  1  1
  9  7  1  0
  9 20  1  0
 10  9  2  0
 11 12  1  0
 14 13  1  0
 15 14  2  0
 16 15  1  0
 17 23  1  0
 17 16  2  0
 18 17  1  0
 19 21  1  0
 19 20  1  0
 19 18  1  6
 21 22  2  0
 23 24  2  0
 24 14  1  0
 26 25  1  1
 26 28  1  0
 27 26  1  0
 27 21  1  0
 28 29  2  0
 28 30  1  0
M  END
$$$$
