YYA.pdb
     RDKit          3D

 30 31  0  0  1  0  0  0  0  0999 V2000
   24.2990  -17.0106  -16.2119 O   0  0  0  0  0  0  0  0  0  0  0  0
   23.6867  -15.8648  -16.6965 C   0  0  0  0  0  0  0  0  0  0  0  0
   22.4342  -15.9488  -17.2382 C   0  0  0  0  0  0  0  0  0  0  0  0
   21.8060  -14.8299  -17.7249 C   0  0  0  0  0  0  0  0  0  0  0  0
   22.4005  -13.5707  -17.6935 C   0  0  0  0  0  0  0  0  0  0  0  0
   21.7162  -12.3764  -18.2312 C   0  0  0  0  0  0  0  0  0  0  0  0
   21.5291  -11.2845  -17.2345 C   0  0  2  0  0  0  0  0  0  0  0  0
   20.8972  -11.7518  -16.0149 N   0  0  0  0  0  0  0  0  0  0  0  0
   20.7535  -10.1292  -17.7450 C   0  0  0  0  0  0  0  0  0  0  0  0
   21.0749   -9.6500  -18.8884 O   0  0  0  0  0  0  0  0  0  0  0  0
   23.6654  -13.5300  -17.1383 C   0  0  0  0  0  0  0  0  0  0  0  0
   24.3001  -14.6509  -16.6483 C   0  0  0  0  0  0  0  0  0  0  0  0
   15.8030  -12.2801  -21.5970 O   0  0  0  0  0  0  0  0  0  0  0  0
   16.2062  -11.4240  -20.5980 C   0  0  0  0  0  0  0  0  0  0  0  0
   16.1321  -11.8160  -19.2793 C   0  0  0  0  0  0  0  0  0  0  0  0
   16.5476  -10.9259  -18.3000 C   0  0  0  0  0  0  0  0  0  0  0  0
   17.0280   -9.6723  -18.6074 C   0  0  0  0  0  0  0  0  0  0  0  0
   17.4464   -8.7936  -17.5397 C   0  0  0  0  0  0  0  0  0  0  0  0
   18.9077   -8.4616  -17.4871 C   0  0  2  0  0  0  0  0  0  0  0  0
   19.6926   -9.5775  -16.9885 N   0  0  0  0  0  0  0  0  0  0  0  0
   19.2222   -7.2221  -16.7345 C   0  0  0  0  0  0  0  0  0  0  0  0
   19.2698   -7.2964  -15.4815 O   0  0  0  0  0  0  0  0  0  0  0  0
   17.0946   -9.2956  -19.9483 C   0  0  0  0  0  0  0  0  0  0  0  0
   16.6904  -10.1574  -20.9259 C   0  0  0  0  0  0  0  0  0  0  0  0
   19.9910   -3.7212  -17.7345 C   0  0  0  0  0  0  0  0  0  0  0  0
   19.8148   -4.7756  -16.6169 C   0  0  2  0  0  0  0  0  0  0  0  0
   19.4659   -5.9961  -17.3590 N   0  0  0  0  0  0  0  0  0  0  0  0
   18.6762   -4.3137  -15.8229 C   0  0  0  0  0  0  0  0  0  0  0  0
   17.5459   -4.8530  -15.9092 O   0  0  0  0  0  0  0  0  0  0  0  0
   18.8169   -3.2569  -14.9435 O   0  0  0  0  0  0  0  0  0  0  0  0
  2 12  2  0
  2  1  1  0
  3  2  1  0
  4  5  1  0
  4  3  2  0
  5 11  2  0
  6  7  1  0
  6  5  1  0
  7  8  1  1
  9  7  1  0
  9 20  1  0
 10  9  2  0
 11 12  1  0
 14 13  1  0
 15 14  2  0
 16 15  1  0
 17 23  1  0
 17 16  2  0
 18 17  1  0
 19 21  1  0
 19 20  1  0
 19 18  1  1
 21 22  2  0
 23 24  2  0
 24 14  1  0
 26 25  1  6
 26 28  1  0
 27 26  1  0
 27 21  1  0
 28 29  2  0
 28 30  1  0
M  END
$$$$
