YYA.pdb
     RDKit          3D

 30 31  0  0  1  0  0  0  0  0999 V2000
   18.4878  -11.3951  -21.7630 O   0  0  0  0  0  0  0  0  0  0  0  0
   19.1825  -10.5755  -20.8864 C   0  0  0  0  0  0  0  0  0  0  0  0
   20.4982  -10.8360  -20.6210 C   0  0  0  0  0  0  0  0  0  0  0  0
   21.2085  -10.0404  -19.7575 C   0  0  0  0  0  0  0  0  0  0  0  0
   20.6370   -8.9439  -19.1162 C   0  0  0  0  0  0  0  0  0  0  0  0
   21.4113   -8.1024  -18.1803 C   0  0  0  0  0  0  0  0  0  0  0  0
   21.0930   -8.3416  -16.7443 C   0  0  2  0  0  0  0  0  0  0  0  0
   20.0960   -9.3803  -16.5649 N   0  0  0  0  0  0  0  0  0  0  0  0
   20.6377   -7.1321  -16.0186 C   0  0  0  0  0  0  0  0  0  0  0  0
   19.3797   -6.9854  -15.8286 O   0  0  0  0  0  0  0  0  0  0  0  0
   19.3063   -8.7161  -19.4119 C   0  0  0  0  0  0  0  0  0  0  0  0
   18.5891   -9.5124  -20.2785 C   0  0  0  0  0  0  0  0  0  0  0  0
   18.4842   -8.1703   -9.8677 O   0  0  0  0  0  0  0  0  0  0  0  0
   19.2552   -7.4190  -10.7248 C   0  0  0  0  0  0  0  0  0  0  0  0
   20.4825   -7.8864  -11.1410 C   0  0  0  0  0  0  0  0  0  0  0  0
   21.2313   -7.1012  -12.0051 C   0  0  0  0  0  0  0  0  0  0  0  0
   20.7852   -5.8780  -12.4542 C   0  0  0  0  0  0  0  0  0  0  0  0
   21.6134   -5.1099  -13.3549 C   0  0  0  0  0  0  0  0  0  0  0  0
   21.1440   -5.0215  -14.7762 C   0  0  2  0  0  0  0  0  0  0  0  0
   21.5683   -6.1733  -15.5528 N   0  0  0  0  0  0  0  0  0  0  0  0
   21.5185   -3.7602  -15.4621 C   0  0  0  0  0  0  0  0  0  0  0  0
   22.7341   -3.5739  -15.7180 O   0  0  0  0  0  0  0  0  0  0  0  0
   19.5402   -5.4238  -12.0205 C   0  0  0  0  0  0  0  0  0  0  0  0
   18.7891   -6.1820  -11.1705 C   0  0  0  0  0  0  0  0  0  0  0  0
   19.5924   -0.8367  -16.7227 C   0  0  0  0  0  0  0  0  0  0  0  0
   20.9558   -1.5276  -16.4863 C   0  0  2  0  0  0  0  0  0  0  0  0
   20.5832   -2.7896  -15.8301 N   0  0  0  0  0  0  0  0  0  0  0  0
   21.6760   -0.6578  -15.5562 C   0  0  0  0  0  0  0  0  0  0  0  0
   22.2325    0.4016  -15.9356 O   0  0  0  0  0  0  0  0  0  0  0  0
   21.7634   -0.9835  -14.2160 O   0  0  0  0  0  0  0  0  0  0  0  0
  2 12  2  0
  2  1  1  0
  3  2  1  0
  4  5  1  0
  4  3  2  0
  5 11  2  0
  6  7  1  0
  6  5  1  0
  7  8  1  6
  9  7  1  0
  9 20  1  0
 10  9  2  0
 11 12  1  0
 14 13  1  0
 15 14  2  0
 16 15  1  0
 17 23  1  0
 17 16  2  0
 18 17  1  0
 19 21  1  0
 19 20  1  0
 19 18  1  1
 21 22  2  0
 23 24  2  0
 24 14  1  0
 26 25  1  1
 26 28  1  0
 27 26  1  0
 27 21  1  0
 28 29  2  0
 28 30  1  0
M  END
$$$$
