CTY.pdb
     RDKit          3D

 26 26  0  0  1  0  0  0  0  0999 V2000
   30.3240  -22.3252  -19.9577 N   0  0  0  0  0  0  0  0  0  0  0  0
   29.4946  -22.7302  -18.8675 C   0  0  1  0  0  0  0  0  0  0  0  0
   30.3523  -23.0178  -17.6274 C   0  0  0  0  0  0  0  0  0  0  0  0
   29.2954  -23.5923  -16.2602 S   0  0  0  0  0  0  0  0  0  0  0  0
   28.4989  -21.7173  -18.4743 C   0  0  0  0  0  0  0  0  0  0  0  0
   28.8780  -20.5211  -18.3848 O   0  0  0  0  0  0  0  0  0  0  0  0
   23.8753  -20.2950  -17.8531 C   0  0  0  0  0  0  0  0  0  0  0  0
   24.9487  -21.1125  -18.5345 C   0  0  1  0  0  0  0  0  0  0  0  0
   25.2085  -20.6958  -19.8186 O   0  0  0  0  0  0  0  0  0  0  0  0
   26.2090  -21.0486  -17.6617 C   0  0  2  0  0  0  0  0  0  0  0  0
   27.1385  -21.9957  -18.1884 N   0  0  0  0  0  0  0  0  0  0  0  0
   25.7839  -21.3373  -16.2763 C   0  0  0  0  0  0  0  0  0  0  0  0
   25.3226  -22.4947  -16.0620 O   0  0  0  0  0  0  0  0  0  0  0  0
   23.9386  -21.4023   -7.7104 O   0  0  0  0  0  0  0  0  0  0  0  0
   24.4166  -21.0225   -8.9790 C   0  0  0  0  0  0  0  0  0  0  0  0
   25.7082  -21.3171   -9.3696 C   0  0  0  0  0  0  0  0  0  0  0  0
   26.1726  -20.9405  -10.6196 C   0  0  0  0  0  0  0  0  0  0  0  0
   25.3378  -20.2644  -11.4836 C   0  0  0  0  0  0  0  0  0  0  0  0
   25.8581  -19.8717  -12.8174 C   0  0  0  0  0  0  0  0  0  0  0  0
   25.3439  -20.8021  -13.8958 C   0  0  2  0  0  0  0  0  0  0  0  0
   25.8518  -20.4425  -15.2019 N   0  0  0  0  0  0  0  0  0  0  0  0
   23.8721  -20.9114  -13.8791 C   0  0  0  0  0  0  0  0  0  0  0  0
   23.2664  -22.0544  -13.3908 O   0  0  0  0  0  0  0  0  0  0  0  0
   24.0435  -19.9528  -11.1297 C   0  0  0  0  0  0  0  0  0  0  0  0
   23.6133  -20.3456   -9.8708 C   0  0  0  0  0  0  0  0  0  0  0  0
   23.1394  -19.9860  -14.3004 O   0  0  0  0  0  0  0  0  0  0  0  0
  2  5  1  0
  2  1  1  6
  3  2  1  0
  4  3  1  0
  5  6  2  0
  8  9  1  0
  8 10  1  0
  8  7  1  1
 11  5  1  0
 10 11  1  6
 12 10  1  0
 12 21  1  0
 13 12  2  0
 15 14  1  0
 16 15  2  0
 17 16  1  0
 18 24  1  0
 18 17  2  0
 19 18  1  0
 20 21  1  0
 20 19  1  1
 22 20  1  0
 23 22  1  0
 24 25  2  0
 25 15  1  0
 26 22  2  0
M  END
$$$$
