CTY.pdb
     RDKit          3D

 26 26  0  0  1  0  0  0  0  0999 V2000
   25.9412  -15.7957  -17.8133 N   0  0  0  0  0  0  0  0  0  0  0  0
   25.5024  -14.7040  -17.0033 C   0  0  1  0  0  0  0  0  0  0  0  0
   26.5846  -14.3357  -15.9788 C   0  0  0  0  0  0  0  0  0  0  0  0
   26.7434  -15.6602  -14.7392 S   0  0  0  0  0  0  0  0  0  0  0  0
   25.2045  -13.4813  -17.7703 C   0  0  0  0  0  0  0  0  0  0  0  0
   26.0883  -13.0456  -18.5524 O   0  0  0  0  0  0  0  0  0  0  0  0
   23.0375  -12.6970  -20.4748 C   0  0  0  0  0  0  0  0  0  0  0  0
   22.5283  -11.8395  -19.3390 C   0  0  1  0  0  0  0  0  0  0  0  0
   21.4808  -12.4139  -18.6589 O   0  0  0  0  0  0  0  0  0  0  0  0
   23.7105  -11.5531  -18.4038 C   0  0  2  0  0  0  0  0  0  0  0  0
   23.9880  -12.7577  -17.6895 N   0  0  0  0  0  0  0  0  0  0  0  0
   23.3066  -10.4259  -17.5380 C   0  0  0  0  0  0  0  0  0  0  0  0
   22.7468  -10.7313  -16.4463 O   0  0  0  0  0  0  0  0  0  0  0  0
   21.2141   -2.6250  -14.1138 O   0  0  0  0  0  0  0  0  0  0  0  0
   21.8085   -3.6346  -14.8945 C   0  0  0  0  0  0  0  0  0  0  0  0
   22.7355   -4.5017  -14.3498 C   0  0  0  0  0  0  0  0  0  0  0  0
   23.3169   -5.4932  -15.1236 C   0  0  0  0  0  0  0  0  0  0  0  0
   22.9673   -5.6170  -16.4514 C   0  0  0  0  0  0  0  0  0  0  0  0
   23.6036   -6.6872  -17.2599 C   0  0  0  0  0  0  0  0  0  0  0  0
   23.0002   -8.0390  -16.9415 C   0  0  2  0  0  0  0  0  0  0  0  0
   23.4934   -9.0695  -17.8293 N   0  0  0  0  0  0  0  0  0  0  0  0
   21.5254   -7.9934  -16.9029 C   0  0  0  0  0  0  0  0  0  0  0  0
   20.8671   -7.8351  -15.6974 O   0  0  0  0  0  0  0  0  0  0  0  0
   22.0468   -4.7711  -17.0301 C   0  0  0  0  0  0  0  0  0  0  0  0
   21.4857   -3.7907  -16.2250 C   0  0  0  0  0  0  0  0  0  0  0  0
   20.8371   -8.0952  -17.9454 O   0  0  0  0  0  0  0  0  0  0  0  0
  2  5  1  0
  2  1  1  6
  3  2  1  0
  4  3  1  0
  5  6  2  0
  8  9  1  0
  8 10  1  0
  8  7  1  6
 11  5  1  0
 10 11  1  1
 12 10  1  0
 12 21  1  0
 13 12  2  0
 15 14  1  0
 16 15  2  0
 17 16  1  0
 18 24  1  0
 18 17  2  0
 19 18  1  0
 20 21  1  0
 20 19  1  6
 22 20  1  0
 23 22  1  0
 24 25  2  0
 25 15  1  0
 26 22  2  0
M  END
$$$$
