CTY.pdb
     RDKit          3D

 26 26  0  0  1  0  0  0  0  0999 V2000
   19.3182  -11.0207  -16.3025 N   0  0  0  0  0  0  0  0  0  0  0  0
   18.2048  -10.6988  -15.4676 C   0  0  1  0  0  0  0  0  0  0  0  0
   17.6930  -11.9597  -14.7573 C   0  0  0  0  0  0  0  0  0  0  0  0
   17.0986  -13.1665  -15.9847 S   0  0  0  0  0  0  0  0  0  0  0  0
   18.5186   -9.7131  -14.4179 C   0  0  0  0  0  0  0  0  0  0  0  0
   19.7233   -9.3907  -14.2527 O   0  0  0  0  0  0  0  0  0  0  0  0
   19.2108   -6.9928  -14.5821 C   0  0  0  0  0  0  0  0  0  0  0  0
   17.9459   -6.7548  -13.7896 C   0  0  1  0  0  0  0  0  0  0  0  0
   16.8322   -6.6138  -14.5833 O   0  0  0  0  0  0  0  0  0  0  0  0
   17.7852   -7.9207  -12.8052 C   0  0  2  0  0  0  0  0  0  0  0  0
   17.5558   -9.0995  -13.5774 N   0  0  0  0  0  0  0  0  0  0  0  0
   16.6663   -7.5695  -11.9064 C   0  0  0  0  0  0  0  0  0  0  0  0
   15.5020   -7.7394  -12.3690 O   0  0  0  0  0  0  0  0  0  0  0  0
   10.8198   -6.3851   -5.6699 O   0  0  0  0  0  0  0  0  0  0  0  0
   12.0305   -6.6046   -6.3541 C   0  0  0  0  0  0  0  0  0  0  0  0
   12.2070   -7.7222   -7.1463 C   0  0  0  0  0  0  0  0  0  0  0  0
   13.4011   -7.9325   -7.8170 C   0  0  0  0  0  0  0  0  0  0  0  0
   14.4248   -7.0173   -7.6933 C   0  0  0  0  0  0  0  0  0  0  0  0
   15.6945   -7.2644   -8.4218 C   0  0  0  0  0  0  0  0  0  0  0  0
   15.6322   -6.7024   -9.8265 C   0  0  2  0  0  0  0  0  0  0  0  0
   16.7949   -7.0716  -10.6044 N   0  0  0  0  0  0  0  0  0  0  0  0
   15.3961   -5.2455   -9.8315 C   0  0  0  0  0  0  0  0  0  0  0  0
   14.1055   -4.7515   -9.8791 O   0  0  0  0  0  0  0  0  0  0  0  0
   14.2861   -5.8910   -6.9125 C   0  0  0  0  0  0  0  0  0  0  0  0
   13.0771   -5.7137   -6.2560 C   0  0  0  0  0  0  0  0  0  0  0  0
   16.3435   -4.4257   -9.7932 O   0  0  0  0  0  0  0  0  0  0  0  0
  2  5  1  0
  2  1  1  1
  3  2  1  0
  4  3  1  0
  5  6  2  0
  8  9  1  0
  8 10  1  0
  8  7  1  6
 11  5  1  0
 10 11  1  6
 12 10  1  0
 12 21  1  0
 13 12  2  0
 15 14  1  0
 16 15  2  0
 17 16  1  0
 18 24  1  0
 18 17  2  0
 19 18  1  0
 20 21  1  0
 20 19  1  1
 22 20  1  0
 23 22  1  0
 24 25  2  0
 25 15  1  0
 26 22  2  0
M  END
$$$$
