CTY.pdb
     RDKit          3D

 26 26  0  0  1  0  0  0  0  0999 V2000
   25.4776  -21.2884  -16.1617 N   0  0  0  0  0  0  0  0  0  0  0  0
   26.2763  -22.2002  -16.9174 C   0  0  1  0  0  0  0  0  0  0  0  0
   27.7669  -21.9313  -16.6679 C   0  0  0  0  0  0  0  0  0  0  0  0
   28.7774  -22.9169  -17.8184 S   0  0  0  0  0  0  0  0  0  0  0  0
   26.0344  -23.6151  -16.5833 C   0  0  0  0  0  0  0  0  0  0  0  0
   25.8860  -23.9179  -15.3713 O   0  0  0  0  0  0  0  0  0  0  0  0
   24.3792  -28.0063  -17.7288 C   0  0  0  0  0  0  0  0  0  0  0  0
   24.5357  -26.5259  -17.9907 C   0  0  1  0  0  0  0  0  0  0  0  0
   23.4158  -25.7999  -17.6610 O   0  0  0  0  0  0  0  0  0  0  0  0
   25.7645  -26.0410  -17.2103 C   0  0  2  0  0  0  0  0  0  0  0  0
   25.9565  -24.6638  -17.5341 N   0  0  0  0  0  0  0  0  0  0  0  0
   26.8921  -26.9097  -17.6067 C   0  0  0  0  0  0  0  0  0  0  0  0
   27.3311  -26.7556  -18.7823 O   0  0  0  0  0  0  0  0  0  0  0  0
   33.7738  -32.2796  -18.1471 O   0  0  0  0  0  0  0  0  0  0  0  0
   32.6759  -31.5503  -17.6523 C   0  0  0  0  0  0  0  0  0  0  0  0
   32.7290  -30.1748  -17.5389 C   0  0  0  0  0  0  0  0  0  0  0  0
   31.6450  -29.4628  -17.0512 C   0  0  0  0  0  0  0  0  0  0  0  0
   30.5006  -30.1330  -16.6747 C   0  0  0  0  0  0  0  0  0  0  0  0
   29.3523  -29.3483  -16.1553 C   0  0  0  0  0  0  0  0  0  0  0  0
   28.5945  -28.6832  -17.2851 C   0  0  2  0  0  0  0  0  0  0  0  0
   27.5007  -27.8734  -16.7940 N   0  0  0  0  0  0  0  0  0  0  0  0
   28.1562  -29.6541  -18.3067 C   0  0  0  0  0  0  0  0  0  0  0  0
   28.8787  -29.8053  -19.4759 O   0  0  0  0  0  0  0  0  0  0  0  0
   30.4101  -31.5040  -16.7732 C   0  0  0  0  0  0  0  0  0  0  0  0
   31.5147  -32.1834  -17.2657 C   0  0  0  0  0  0  0  0  0  0  0  0
   27.1324  -30.3592  -18.1471 O   0  0  0  0  0  0  0  0  0  0  0  0
  2  5  1  0
  2  1  1  1
  3  2  1  0
  4  3  1  0
  5  6  2  0
  8  9  1  0
  8 10  1  0
  8  7  1  1
 11  5  1  0
 10 11  1  6
 12 10  1  0
 12 21  1  0
 13 12  2  0
 15 14  1  0
 16 15  2  0
 17 16  1  0
 18 24  1  0
 18 17  2  0
 19 18  1  0
 20 21  1  0
 20 19  1  1
 22 20  1  0
 23 22  1  0
 24 25  2  0
 25 15  1  0
 26 22  2  0
M  END
$$$$
