CTY.pdb
     RDKit          3D

 26 26  0  0  1  0  0  0  0  0999 V2000
   29.6114  -14.2563  -19.5906 N   0  0  0  0  0  0  0  0  0  0  0  0
   28.6443  -13.2665  -19.9445 C   0  0  1  0  0  0  0  0  0  0  0  0
   27.2463  -13.8956  -20.0226 C   0  0  0  0  0  0  0  0  0  0  0  0
   27.2569  -15.2902  -21.1937 S   0  0  0  0  0  0  0  0  0  0  0  0
   28.5598  -12.1525  -18.9833 C   0  0  0  0  0  0  0  0  0  0  0  0
   29.3782  -12.1342  -18.0281 O   0  0  0  0  0  0  0  0  0  0  0  0
   30.1048  -10.2417  -18.1824 C   0  0  0  0  0  0  0  0  0  0  0  0
   29.0284   -9.2419  -18.5381 C   0  0  1  0  0  0  0  0  0  0  0  0
   29.1202   -8.7905  -19.8334 O   0  0  0  0  0  0  0  0  0  0  0  0
   27.6699   -9.9042  -18.2731 C   0  0  2  0  0  0  0  0  0  0  0  0
   27.6181  -11.0953  -19.0585 N   0  0  0  0  0  0  0  0  0  0  0  0
   26.6346   -8.9110  -18.6269 C   0  0  0  0  0  0  0  0  0  0  0  0
   26.2238   -8.9324  -19.8224 O   0  0  0  0  0  0  0  0  0  0  0  0
   20.8589   -9.4006  -13.7464 O   0  0  0  0  0  0  0  0  0  0  0  0
   21.5730   -9.0730  -14.9147 C   0  0  0  0  0  0  0  0  0  0  0  0
   21.4055   -7.8481  -15.5304 C   0  0  0  0  0  0  0  0  0  0  0  0
   22.1113   -7.5318  -16.6801 C   0  0  0  0  0  0  0  0  0  0  0  0
   22.9904   -8.4485  -17.2163 C   0  0  0  0  0  0  0  0  0  0  0  0
   23.7352   -8.0865  -18.4484 C   0  0  0  0  0  0  0  0  0  0  0  0
   24.9163   -7.1953  -18.1262 C   0  0  2  0  0  0  0  0  0  0  0  0
   26.0837   -7.9650  -17.7546 N   0  0  0  0  0  0  0  0  0  0  0  0
   24.5795   -6.1697  -17.1198 C   0  0  0  0  0  0  0  0  0  0  0  0
   23.6725   -5.1710  -17.4230 O   0  0  0  0  0  0  0  0  0  0  0  0
   23.1840   -9.6802  -16.6306 C   0  0  0  0  0  0  0  0  0  0  0  0
   22.4605   -9.9619  -15.4812 C   0  0  0  0  0  0  0  0  0  0  0  0
   25.0975   -6.1734  -15.9785 O   0  0  0  0  0  0  0  0  0  0  0  0
  2  5  1  0
  2  1  1  1
  3  2  1  0
  4  3  1  0
  5  6  2  0
  8  9  1  0
  8 10  1  0
  8  7  1  6
 11  5  1  0
 10 11  1  6
 12 10  1  0
 12 21  1  0
 13 12  2  0
 15 14  1  0
 16 15  2  0
 17 16  1  0
 18 24  1  0
 18 17  2  0
 19 18  1  0
 20 21  1  0
 20 19  1  1
 22 20  1  0
 23 22  1  0
 24 25  2  0
 25 15  1  0
 26 22  2  0
M  END
$$$$
