CTY.pdb
     RDKit          3D

 26 26  0  0  1  0  0  0  0  0999 V2000
   24.9352   -9.8293  -21.6274 N   0  0  0  0  0  0  0  0  0  0  0  0
   24.0843   -9.4451  -20.5463 C   0  0  1  0  0  0  0  0  0  0  0  0
   24.3657  -10.3171  -19.3148 C   0  0  0  0  0  0  0  0  0  0  0  0
   23.7614  -12.0109  -19.6013 S   0  0  0  0  0  0  0  0  0  0  0  0
   24.2577   -8.0428  -20.1273 C   0  0  0  0  0  0  0  0  0  0  0  0
   25.4305   -7.6037  -20.0076 O   0  0  0  0  0  0  0  0  0  0  0  0
   23.4055   -4.9347  -21.8155 C   0  0  0  0  0  0  0  0  0  0  0  0
   22.5876   -4.9487  -20.5445 C   0  0  1  0  0  0  0  0  0  0  0  0
   21.3155   -5.4365  -20.7286 O   0  0  0  0  0  0  0  0  0  0  0  0
   23.3560   -5.7736  -19.5037 C   0  0  2  0  0  0  0  0  0  0  0  0
   23.1928   -7.1495  -19.8481 N   0  0  0  0  0  0  0  0  0  0  0  0
   22.7985   -5.4195  -18.1820 C   0  0  0  0  0  0  0  0  0  0  0  0
   21.7357   -6.0154  -17.8448 O   0  0  0  0  0  0  0  0  0  0  0  0
   23.4311  -10.4419  -15.0131 O   0  0  0  0  0  0  0  0  0  0  0  0
   23.4428   -9.0346  -14.9752 C   0  0  0  0  0  0  0  0  0  0  0  0
   24.4746   -8.3165  -15.5474 C   0  0  0  0  0  0  0  0  0  0  0  0
   24.4803   -6.9315  -15.5068 C   0  0  0  0  0  0  0  0  0  0  0  0
   23.4456   -6.2617  -14.8890 C   0  0  0  0  0  0  0  0  0  0  0  0
   23.4739   -4.7777  -14.8586 C   0  0  0  0  0  0  0  0  0  0  0  0
   22.7063   -4.1964  -16.0273 C   0  0  2  0  0  0  0  0  0  0  0  0
   23.3478   -4.4906  -17.2903 N   0  0  0  0  0  0  0  0  0  0  0  0
   22.4434   -2.7542  -15.8565 C   0  0  0  0  0  0  0  0  0  0  0  0
   21.6954   -2.3072  -14.7830 O   0  0  0  0  0  0  0  0  0  0  0  0
   22.3993   -6.9432  -14.3073 C   0  0  0  0  0  0  0  0  0  0  0  0
   22.4274   -8.3288  -14.3674 C   0  0  0  0  0  0  0  0  0  0  0  0
   22.8835   -1.9052  -16.6668 O   0  0  0  0  0  0  0  0  0  0  0  0
  2  5  1  0
  2  1  1  6
  3  2  1  0
  4  3  1  0
  5  6  2  0
  8  9  1  0
  8 10  1  0
  8  7  1  6
 11  5  1  0
 10 11  1  6
 12 10  1  0
 12 21  1  0
 13 12  2  0
 15 14  1  0
 16 15  2  0
 17 16  1  0
 18 24  1  0
 18 17  2  0
 19 18  1  0
 20 21  1  0
 20 19  1  1
 22 20  1  0
 23 22  1  0
 24 25  2  0
 25 15  1  0
 26 22  2  0
M  END
$$$$
