CTY.pdb
     RDKit          3D

 26 26  0  0  1  0  0  0  0  0999 V2000
   17.6709  -14.0378  -20.8327 N   0  0  0  0  0  0  0  0  0  0  0  0
   18.2183  -13.5860  -19.5932 C   0  0  1  0  0  0  0  0  0  0  0  0
   19.6769  -14.0452  -19.4593 C   0  0  0  0  0  0  0  0  0  0  0  0
   19.7579  -15.5815  -18.4849 S   0  0  0  0  0  0  0  0  0  0  0  0
   18.2155  -12.1196  -19.4453 C   0  0  0  0  0  0  0  0  0  0  0  0
   18.8377  -11.4393  -20.3012 O   0  0  0  0  0  0  0  0  0  0  0  0
   15.4132   -9.8978  -19.5248 C   0  0  0  0  0  0  0  0  0  0  0  0
   16.0556   -9.5761  -18.1950 C   0  0  1  0  0  0  0  0  0  0  0  0
   15.4216  -10.1751  -17.1323 O   0  0  0  0  0  0  0  0  0  0  0  0
   17.5291   -9.9963  -18.2743 C   0  0  2  0  0  0  0  0  0  0  0  0
   17.5587  -11.4178  -18.4032 N   0  0  0  0  0  0  0  0  0  0  0  0
   18.1826   -9.4949  -17.0475 C   0  0  0  0  0  0  0  0  0  0  0  0
   18.7360  -10.3628  -16.3134 O   0  0  0  0  0  0  0  0  0  0  0  0
   22.9141   -6.8223  -10.5616 O   0  0  0  0  0  0  0  0  0  0  0  0
   22.2832   -7.1558  -11.7751 C   0  0  0  0  0  0  0  0  0  0  0  0
   21.7496   -8.4138  -11.9768 C   0  0  0  0  0  0  0  0  0  0  0  0
   21.1299   -8.7358  -13.1735 C   0  0  0  0  0  0  0  0  0  0  0  0
   21.0442   -7.7917  -14.1745 C   0  0  0  0  0  0  0  0  0  0  0  0
   20.3753   -8.1603  -15.4476 C   0  0  0  0  0  0  0  0  0  0  0  0
   18.9130   -7.7678  -15.4256 C   0  0  2  0  0  0  0  0  0  0  0  0
   18.2348   -8.1557  -16.6433 N   0  0  0  0  0  0  0  0  0  0  0  0
   18.7270   -6.3372  -15.1137 C   0  0  0  0  0  0  0  0  0  0  0  0
   18.6223   -5.9212  -13.7992 O   0  0  0  0  0  0  0  0  0  0  0  0
   21.5644   -6.5268  -14.0104 C   0  0  0  0  0  0  0  0  0  0  0  0
   22.1774   -6.2403  -12.7995 C   0  0  0  0  0  0  0  0  0  0  0  0
   18.6593   -5.4708  -16.0169 O   0  0  0  0  0  0  0  0  0  0  0  0
  2  5  1  0
  2  1  1  6
  3  2  1  0
  4  3  1  0
  5  6  2  0
  8  9  1  0
  8 10  1  0
  8  7  1  6
 11  5  1  0
 10 11  1  1
 12 10  1  0
 12 21  1  0
 13 12  2  0
 15 14  1  0
 16 15  2  0
 17 16  1  0
 18 24  1  0
 18 17  2  0
 19 18  1  0
 20 21  1  0
 20 19  1  6
 22 20  1  0
 23 22  1  0
 24 25  2  0
 25 15  1  0
 26 22  2  0
M  END
$$$$
