CTY.pdb
     RDKit          3D

 26 26  0  0  1  0  0  0  0  0999 V2000
   25.4657  -17.1249  -19.1320 N   0  0  0  0  0  0  0  0  0  0  0  0
   26.2643  -17.2728  -17.9570 C   0  0  1  0  0  0  0  0  0  0  0  0
   26.8686  -15.9207  -17.5534 C   0  0  0  0  0  0  0  0  0  0  0  0
   27.7688  -16.0872  -15.9792 S   0  0  0  0  0  0  0  0  0  0  0  0
   25.5135  -17.7717  -16.7910 C   0  0  0  0  0  0  0  0  0  0  0  0
   24.4713  -17.1540  -16.4522 O   0  0  0  0  0  0  0  0  0  0  0  0
   23.5876  -20.5161  -16.4901 C   0  0  0  0  0  0  0  0  0  0  0  0
   24.5553  -20.7715  -15.3575 C   0  0  1  0  0  0  0  0  0  0  0  0
   25.5537  -21.6554  -15.6919 O   0  0  0  0  0  0  0  0  0  0  0  0
   25.1317  -19.4180  -14.9215 C   0  0  2  0  0  0  0  0  0  0  0  0
   25.8834  -18.9029  -16.0206 N   0  0  0  0  0  0  0  0  0  0  0  0
   25.9410  -19.6686  -13.7109 C   0  0  0  0  0  0  0  0  0  0  0  0
   27.1828  -19.8241  -13.8899 O   0  0  0  0  0  0  0  0  0  0  0  0
   20.7929  -21.6670   -8.5907 O   0  0  0  0  0  0  0  0  0  0  0  0
   22.0361  -21.1063   -8.9400 C   0  0  0  0  0  0  0  0  0  0  0  0
   23.1723  -21.3821   -8.2046 C   0  0  0  0  0  0  0  0  0  0  0  0
   24.3929  -20.8271   -8.5535 C   0  0  0  0  0  0  0  0  0  0  0  0
   24.4759  -19.9905   -9.6462 C   0  0  0  0  0  0  0  0  0  0  0  0
   25.7948  -19.4081  -10.0004 C   0  0  0  0  0  0  0  0  0  0  0  0
   26.3254  -20.0085  -11.2852 C   0  0  2  0  0  0  0  0  0  0  0  0
   25.4460  -19.7457  -12.4037 N   0  0  0  0  0  0  0  0  0  0  0  0
   26.6325  -21.4450  -11.1413 C   0  0  0  0  0  0  0  0  0  0  0  0
   27.6969  -21.8522  -10.3583 O   0  0  0  0  0  0  0  0  0  0  0  0
   23.3648  -19.6920  -10.4038 C   0  0  0  0  0  0  0  0  0  0  0  0
   22.1602  -20.2657  -10.0247 C   0  0  0  0  0  0  0  0  0  0  0  0
   25.9485  -22.3243  -11.7156 O   0  0  0  0  0  0  0  0  0  0  0  0
  2  5  1  0
  2  1  1  6
  3  2  1  0
  4  3  1  0
  5  6  2  0
  8  9  1  0
  8 10  1  0
  8  7  1  6
 11  5  1  0
 10 11  1  6
 12 10  1  0
 12 21  1  0
 13 12  2  0
 15 14  1  0
 16 15  2  0
 17 16  1  0
 18 24  1  0
 18 17  2  0
 19 18  1  0
 20 21  1  0
 20 19  1  1
 22 20  1  0
 23 22  1  0
 24 25  2  0
 25 15  1  0
 26 22  2  0
M  END
$$$$
