CTY.pdb
     RDKit          3D

 26 26  0  0  1  0  0  0  0  0999 V2000
   29.8708  -24.8317  -18.4543 N   0  0  0  0  0  0  0  0  0  0  0  0
   28.5624  -24.7137  -17.8934 C   0  0  1  0  0  0  0  0  0  0  0  0
   28.4018  -25.6837  -16.7146 C   0  0  0  0  0  0  0  0  0  0  0  0
   28.1066  -27.3707  -17.3338 S   0  0  0  0  0  0  0  0  0  0  0  0
   28.2575  -23.3651  -17.3832 C   0  0  0  0  0  0  0  0  0  0  0  0
   29.1602  -22.4913  -17.4493 O   0  0  0  0  0  0  0  0  0  0  0  0
   25.0775  -19.8393  -16.5758 C   0  0  0  0  0  0  0  0  0  0  0  0
   25.5243  -21.1511  -17.1794 C   0  0  1  0  0  0  0  0  0  0  0  0
   25.8545  -21.0464  -18.5098 O   0  0  0  0  0  0  0  0  0  0  0  0
   26.7073  -21.6678  -16.3501 C   0  0  2  0  0  0  0  0  0  0  0  0
   27.0144  -22.9803  -16.8206 N   0  0  0  0  0  0  0  0  0  0  0  0
   26.2872  -21.6249  -14.9341 C   0  0  0  0  0  0  0  0  0  0  0  0
   25.3113  -22.3636  -14.6172 O   0  0  0  0  0  0  0  0  0  0  0  0
   25.4423  -20.4135   -6.2893 O   0  0  0  0  0  0  0  0  0  0  0  0
   25.8911  -20.3206   -7.6205 C   0  0  0  0  0  0  0  0  0  0  0  0
   25.5673  -19.2314   -8.4057 C   0  0  0  0  0  0  0  0  0  0  0  0
   26.0122  -19.1460   -9.7151 C   0  0  0  0  0  0  0  0  0  0  0  0
   26.7863  -20.1582  -10.2413 C   0  0  0  0  0  0  0  0  0  0  0  0
   27.2511  -20.0439  -11.6466 C   0  0  0  0  0  0  0  0  0  0  0  0
   26.3913  -20.8789  -12.5720 C   0  0  2  0  0  0  0  0  0  0  0  0
   26.8770  -20.8425  -13.9344 N   0  0  0  0  0  0  0  0  0  0  0  0
   24.9630  -20.5189  -12.4781 C   0  0  0  0  0  0  0  0  0  0  0  0
   24.4862  -19.3953  -13.1278 O   0  0  0  0  0  0  0  0  0  0  0  0
   27.1297  -21.2600   -9.4892 C   0  0  0  0  0  0  0  0  0  0  0  0
   26.6665  -21.3112   -8.1827 C   0  0  0  0  0  0  0  0  0  0  0  0
   24.1529  -21.2099  -11.8171 O   0  0  0  0  0  0  0  0  0  0  0  0
  2  5  1  0
  2  1  1  1
  3  2  1  0
  4  3  1  0
  5  6  2  0
  8  9  1  0
  8 10  1  0
  8  7  1  1
 11  5  1  0
 10 11  1  6
 12 10  1  0
 12 21  1  0
 13 12  2  0
 15 14  1  0
 16 15  2  0
 17 16  1  0
 18 24  1  0
 18 17  2  0
 19 18  1  0
 20 21  1  0
 20 19  1  1
 22 20  1  0
 23 22  1  0
 24 25  2  0
 25 15  1  0
 26 22  2  0
M  END
$$$$
