CTY.pdb
     RDKit          3D

 26 26  0  0  1  0  0  0  0  0999 V2000
   20.6668  -14.4983  -16.5241 N   0  0  0  0  0  0  0  0  0  0  0  0
   20.4700  -13.2642  -17.2158 C   0  0  1  0  0  0  0  0  0  0  0  0
   19.1481  -13.2987  -17.9954 C   0  0  0  0  0  0  0  0  0  0  0  0
   19.1965  -14.6248  -19.2425 S   0  0  0  0  0  0  0  0  0  0  0  0
   20.4123  -12.0906  -16.3261 C   0  0  0  0  0  0  0  0  0  0  0  0
   19.5499  -12.0866  -15.4102 O   0  0  0  0  0  0  0  0  0  0  0  0
   22.9322  -10.8629  -14.0582 C   0  0  0  0  0  0  0  0  0  0  0  0
   22.6672   -9.6916  -14.9761 C   0  0  1  0  0  0  0  0  0  0  0  0
   23.5923   -9.5801  -15.9869 O   0  0  0  0  0  0  0  0  0  0  0  0
   21.2468   -9.8482  -15.5348 C   0  0  2  0  0  0  0  0  0  0  0  0
   21.2627  -10.9610  -16.4291 N   0  0  0  0  0  0  0  0  0  0  0  0
   20.8995   -8.5668  -16.1834 C   0  0  0  0  0  0  0  0  0  0  0  0
   21.1026   -8.4969  -17.4293 O   0  0  0  0  0  0  0  0  0  0  0  0
   14.0499   -7.3175  -14.4715 O   0  0  0  0  0  0  0  0  0  0  0  0
   15.2592   -7.1003  -15.1589 C   0  0  0  0  0  0  0  0  0  0  0  0
   15.8001   -5.8337  -15.2635 C   0  0  0  0  0  0  0  0  0  0  0  0
   16.9906   -5.6267  -15.9415 C   0  0  0  0  0  0  0  0  0  0  0  0
   17.6434   -6.6952  -16.5183 C   0  0  0  0  0  0  0  0  0  0  0  0
   18.9175   -6.4483  -17.2392 C   0  0  0  0  0  0  0  0  0  0  0  0
   20.0586   -6.2359  -16.2667 C   0  0  2  0  0  0  0  0  0  0  0  0
   20.3720   -7.4440  -15.5348 N   0  0  0  0  0  0  0  0  0  0  0  0
   19.8189   -5.0868  -15.3720 C   0  0  0  0  0  0  0  0  0  0  0  0
   19.7680   -5.2719  -14.0027 O   0  0  0  0  0  0  0  0  0  0  0  0
   17.1351   -7.9728  -16.4351 C   0  0  0  0  0  0  0  0  0  0  0  0
   15.9415   -8.1420  -15.7488 C   0  0  0  0  0  0  0  0  0  0  0  0
   19.6569   -3.9274  -15.8199 O   0  0  0  0  0  0  0  0  0  0  0  0
  2  5  1  0
  2  1  1  1
  3  2  1  0
  4  3  1  0
  5  6  2  0
  8  9  1  0
  8 10  1  0
  8  7  1  6
 11  5  1  0
 10 11  1  6
 12 10  1  0
 12 21  1  0
 13 12  2  0
 15 14  1  0
 16 15  2  0
 17 16  1  0
 18 24  1  0
 18 17  2  0
 19 18  1  0
 20 21  1  0
 20 19  1  1
 22 20  1  0
 23 22  1  0
 24 25  2  0
 25 15  1  0
 26 22  2  0
M  END
$$$$
