CTY.pdb
     RDKit          3D

 26 26  0  0  1  0  0  0  0  0999 V2000
   19.8858  -12.6699  -18.8427 N   0  0  0  0  0  0  0  0  0  0  0  0
   21.2267  -12.8429  -18.3817 C   0  0  1  0  0  0  0  0  0  0  0  0
   22.0833  -13.4946  -19.4762 C   0  0  0  0  0  0  0  0  0  0  0  0
   21.5741  -15.2266  -19.7152 S   0  0  0  0  0  0  0  0  0  0  0  0
   21.8919  -11.5810  -18.0115 C   0  0  0  0  0  0  0  0  0  0  0  0
   22.9638  -11.6493  -17.3566 O   0  0  0  0  0  0  0  0  0  0  0  0
   22.6456   -8.5248  -20.2278 C   0  0  0  0  0  0  0  0  0  0  0  0
   21.8243   -8.0498  -19.0511 C   0  0  1  0  0  0  0  0  0  0  0  0
   20.4958   -7.8744  -19.3580 O   0  0  0  0  0  0  0  0  0  0  0  0
   22.0050   -9.0653  -17.9151 C   0  0  2  0  0  0  0  0  0  0  0  0
   21.4081  -10.2900  -18.3419 N   0  0  0  0  0  0  0  0  0  0  0  0
   21.3726   -8.4801  -16.7148 C   0  0  0  0  0  0  0  0  0  0  0  0
   20.2086   -8.8896  -16.4393 O   0  0  0  0  0  0  0  0  0  0  0  0
   18.4454   -5.7042   -9.1743 O   0  0  0  0  0  0  0  0  0  0  0  0
   19.2653   -6.1406  -10.2323 C   0  0  0  0  0  0  0  0  0  0  0  0
   20.1016   -5.2619  -10.8928 C   0  0  0  0  0  0  0  0  0  0  0  0
   20.9061   -5.6977  -11.9333 C   0  0  0  0  0  0  0  0  0  0  0  0
   20.8726   -7.0222  -12.3145 C   0  0  0  0  0  0  0  0  0  0  0  0
   21.7440   -7.4652  -13.4319 C   0  0  0  0  0  0  0  0  0  0  0  0
   21.2204   -6.9618  -14.7606 C   0  0  2  0  0  0  0  0  0  0  0  0
   21.9538   -7.5235  -15.8741 N   0  0  0  0  0  0  0  0  0  0  0  0
   21.1665   -5.4878  -14.8135 C   0  0  0  0  0  0  0  0  0  0  0  0
   19.9613   -4.8308  -14.6469 O   0  0  0  0  0  0  0  0  0  0  0  0
   20.0516   -7.9281  -11.6799 C   0  0  0  0  0  0  0  0  0  0  0  0
   19.2605   -7.4560  -10.6429 C   0  0  0  0  0  0  0  0  0  0  0  0
   22.1953   -4.7989  -15.0079 O   0  0  0  0  0  0  0  0  0  0  0  0
  2  5  1  0
  2  1  1  6
  3  2  1  0
  4  3  1  0
  5  6  2  0
  8  9  1  0
  8 10  1  0
  8  7  1  6
 11  5  1  0
 10 11  1  6
 12 10  1  0
 12 21  1  0
 13 12  2  0
 15 14  1  0
 16 15  2  0
 17 16  1  0
 18 24  1  0
 18 17  2  0
 19 18  1  0
 20 21  1  0
 20 19  1  1
 22 20  1  0
 23 22  1  0
 24 25  2  0
 25 15  1  0
 26 22  2  0
M  END
$$$$
