KRD.pdb
     RDKit          3D

 29 28  0  0  1  0  0  0  0  0999 V2000
    6.4888  -20.8471   21.0211 N   0  0  0  0  0  0  0  0  0  0  0  0
    6.7336  -19.8802   22.0781 C   0  0  1  0  0  0  0  0  0  0  0  0
    7.4916  -20.6118   23.1536 C   0  0  0  0  0  0  0  0  0  0  0  0
    6.8860  -21.9600   23.3842 C   0  0  0  0  0  0  0  0  0  0  0  0
    6.8074  -22.2589   24.8554 C   0  0  0  0  0  0  0  0  0  0  0  0
    6.1123  -23.6083   25.0880 C   0  0  0  0  0  0  0  0  0  0  0  0
    5.9976  -23.7940   26.5187 N   0  0  0  0  0  0  0  0  0  0  0  0
    7.5470  -18.7320   21.5494 C   0  0  0  0  0  0  0  0  0  0  0  0
    8.4448  -18.9550   20.7124 O   0  0  0  0  0  0  0  0  0  0  0  0
    8.6775  -14.6719   16.6969 N   0  0  0  0  0  0  0  0  0  0  0  0
    8.1415  -13.7777   17.6939 C   0  0  0  0  0  0  0  0  0  0  0  0
    7.6535  -12.6434   17.3537 N   0  0  0  0  0  0  0  0  0  0  0  0
    8.1445  -14.1285   19.0679 N   0  0  0  0  0  0  0  0  0  0  0  0
    7.8042  -13.2335   20.1178 C   0  0  0  0  0  0  0  0  0  0  0  0
    7.9975  -13.7573   21.5142 C   0  0  0  0  0  0  0  0  0  0  0  0
    7.3309  -15.0632   21.7392 C   0  0  0  0  0  0  0  0  0  0  0  0
    8.1768  -16.2906   21.4877 C   0  0  2  0  0  0  0  0  0  0  0  0
    7.3337  -17.4057   21.9659 N   0  0  0  0  0  0  0  0  0  0  0  0
    9.4100  -16.3616   22.2718 C   0  0  0  0  0  0  0  0  0  0  0  0
    9.3438  -16.3833   23.5592 O   0  0  0  0  0  0  0  0  0  0  0  0
    7.3139  -11.9996   18.0986 N   0  0  0  0  0  0  0  0  0  0  0  0
   10.7328  -16.4152   21.7893 C   0  0  1  0  0  0  0  0  0  0  0  0
   11.8957  -16.5397   22.6608 C   0  0  0  0  0  0  0  0  0  0  0  0
   12.3033  -17.9552   22.8624 C   0  0  0  0  0  0  0  0  0  0  0  0
   13.5442  -18.0147   23.6598 O   0  0  0  0  0  0  0  0  0  0  0  0
   13.7204  -17.2552   24.6797 C   0  0  0  0  0  0  0  0  0  0  0  0
   13.0339  -15.7915   22.0373 O   0  0  0  0  0  0  0  0  0  0  0  0
   14.1635  -15.7343   22.5614 O   0  0  0  0  0  0  0  0  0  0  0  0
   14.5989  -18.8667   23.3857 O   0  0  0  0  0  0  0  0  0  0  0  0
  2  1  1  6
  3  2  1  0
  4  5  1  0
  4  3  1  0
  5  6  1  0
  7  6  1  0
  8  9  2  0
  8  2  1  0
 10 11  1  0
 11 12  2  0
 13 11  1  0
 13 14  1  0
 14 15  1  0
 16 15  1  0
 17 16  1  1
 17 18  1  0
 18  8  1  0
 19 21  1  0
 19 17  1  0
 20 19  2  0
 22 21  1  0
 22 26  1  0
 23 24  1  0
 22 23  1  6
 24 25  2  0
 26 29  1  0
 27 26  2  0
 28 24  1  0
M  END
$$$$
