KRD.pdb
     RDKit          3D

 29 28  0  0  1  0  0  0  0  0999 V2000
   10.9992  -20.1930   17.1898 N   0  0  0  0  0  0  0  0  0  0  0  0
   12.2218  -19.4153   17.0789 C   0  0  1  0  0  0  0  0  0  0  0  0
   12.3058  -18.9610   15.6460 C   0  0  0  0  0  0  0  0  0  0  0  0
   12.1877  -20.1345   14.7259 C   0  0  0  0  0  0  0  0  0  0  0  0
   11.1568  -19.8712   13.6639 C   0  0  0  0  0  0  0  0  0  0  0  0
   11.0306  -21.0851   12.7319 C   0  0  0  0  0  0  0  0  0  0  0  0
   10.0387  -20.7590   11.7299 N   0  0  0  0  0  0  0  0  0  0  0  0
   12.1666  -18.2315   18.0036 C   0  0  0  0  0  0  0  0  0  0  0  0
   13.1081  -17.4130   18.0035 O   0  0  0  0  0  0  0  0  0  0  0  0
    7.1393  -11.6935   20.2521 N   0  0  0  0  0  0  0  0  0  0  0  0
    7.7308  -13.0091   20.2607 C   0  0  0  0  0  0  0  0  0  0  0  0
    8.8935  -13.2017   19.7589 N   0  0  0  0  0  0  0  0  0  0  0  0
    7.0426  -14.1165   20.8185 N   0  0  0  0  0  0  0  0  0  0  0  0
    7.6197  -15.4024   20.9990 C   0  0  0  0  0  0  0  0  0  0  0  0
    9.1079  -15.4869   20.7990 C   0  0  0  0  0  0  0  0  0  0  0  0
    9.5074  -16.5893   19.8905 C   0  0  0  0  0  0  0  0  0  0  0  0
   10.9945  -16.7969   19.7152 C   0  0  2  0  0  0  0  0  0  0  0  0
   11.0861  -18.0098   18.8763 N   0  0  0  0  0  0  0  0  0  0  0  0
   11.7233  -17.1094   20.9447 C   0  0  0  0  0  0  0  0  0  0  0  0
   11.5572  -18.2576   21.5072 O   0  0  0  0  0  0  0  0  0  0  0  0
    9.2071  -14.1785   19.5797 N   0  0  0  0  0  0  0  0  0  0  0  0
   12.6338  -16.2860   21.6364 C   0  0  2  0  0  0  0  0  0  0  0  0
   13.2924  -16.6883   22.8741 C   0  0  0  0  0  0  0  0  0  0  0  0
   14.4519  -15.8193   23.2068 C   0  0  0  0  0  0  0  0  0  0  0  0
   15.5724  -16.6412   23.7048 O   0  0  0  0  0  0  0  0  0  0  0  0
   15.4511  -17.9088   23.8671 C   0  0  0  0  0  0  0  0  0  0  0  0
   12.2925  -16.6097   23.9868 O   0  0  0  0  0  0  0  0  0  0  0  0
   11.2402  -15.9478   23.8947 O   0  0  0  0  0  0  0  0  0  0  0  0
   16.8162  -16.1336   24.0348 O   0  0  0  0  0  0  0  0  0  0  0  0
  2  1  1  6
  3  2  1  0
  4  5  1  0
  4  3  1  0
  5  6  1  0
  7  6  1  0
  8  9  2  0
  8  2  1  0
 10 11  1  0
 11 12  2  0
 13 11  1  0
 13 14  1  0
 14 15  1  0
 16 15  1  0
 17 16  1  1
 17 18  1  0
 18  8  1  0
 19 21  1  0
 19 17  1  0
 20 19  2  0
 22 21  1  0
 22 26  1  0
 23 24  1  0
 22 23  1  6
 24 25  2  0
 26 29  1  0
 27 26  2  0
 28 24  1  0
M  END
$$$$
