KRD.pdb
     RDKit          3D

 29 28  0  0  1  0  0  0  0  0999 V2000
    7.3249  -18.8623   26.2719 N   0  0  0  0  0  0  0  0  0  0  0  0
    8.1578  -17.6864   26.0830 C   0  0  1  0  0  0  0  0  0  0  0  0
    9.5020  -18.0208   26.6728 C   0  0  0  0  0  0  0  0  0  0  0  0
    9.3303  -18.6847   28.0022 C   0  0  0  0  0  0  0  0  0  0  0  0
   10.6643  -19.0823   28.5700 C   0  0  0  0  0  0  0  0  0  0  0  0
   10.4882  -19.6828   29.9724 C   0  0  0  0  0  0  0  0  0  0  0  0
   11.7767  -20.1939   30.3881 N   0  0  0  0  0  0  0  0  0  0  0  0
    8.2886  -17.3761   24.6180 C   0  0  0  0  0  0  0  0  0  0  0  0
    8.1578  -18.2961   23.7856 O   0  0  0  0  0  0  0  0  0  0  0  0
    8.3610  -11.7723   18.7517 N   0  0  0  0  0  0  0  0  0  0  0  0
    8.2993  -13.1606   18.3645 C   0  0  0  0  0  0  0  0  0  0  0  0
    9.0286  -13.6011   17.4082 N   0  0  0  0  0  0  0  0  0  0  0  0
    7.4322  -14.0663   19.0268 N   0  0  0  0  0  0  0  0  0  0  0  0
    7.0908  -13.9778   20.4033 C   0  0  0  0  0  0  0  0  0  0  0  0
    8.2198  -13.6415   21.3383 C   0  0  0  0  0  0  0  0  0  0  0  0
    8.1010  -14.3158   22.6542 C   0  0  0  0  0  0  0  0  0  0  0  0
    8.5583  -15.7558   22.7040 C   0  0  2  0  0  0  0  0  0  0  0  0
    8.5556  -16.0784   24.1459 N   0  0  0  0  0  0  0  0  0  0  0  0
    9.9300  -15.9841   22.2494 C   0  0  0  0  0  0  0  0  0  0  0  0
   10.1391  -16.4137   21.0519 O   0  0  0  0  0  0  0  0  0  0  0  0
    8.9580  -14.6064   17.1454 N   0  0  0  0  0  0  0  0  0  0  0  0
   11.1203  -15.7864   22.9771 C   0  0  1  0  0  0  0  0  0  0  0  0
   12.4264  -16.2352   22.5081 C   0  0  0  0  0  0  0  0  0  0  0  0
   13.3318  -15.1015   22.1836 C   0  0  0  0  0  0  0  0  0  0  0  0
   13.4438  -14.9479   20.7197 O   0  0  0  0  0  0  0  0  0  0  0  0
   12.7723  -15.6905   19.9163 C   0  0  0  0  0  0  0  0  0  0  0  0
   13.0547  -17.0641   23.5862 O   0  0  0  0  0  0  0  0  0  0  0  0
   12.5069  -17.2520   24.6901 O   0  0  0  0  0  0  0  0  0  0  0  0
   14.2611  -14.0194   20.1003 O   0  0  0  0  0  0  0  0  0  0  0  0
  2  1  1  6
  3  2  1  0
  4  5  1  0
  4  3  1  0
  5  6  1  0
  7  6  1  0
  8  9  2  0
  8  2  1  0
 10 11  1  0
 11 12  2  0
 13 11  1  0
 13 14  1  0
 14 15  1  0
 16 15  1  0
 17 16  1  1
 17 18  1  0
 18  8  1  0
 19 21  1  0
 19 17  1  0
 20 19  2  0
 22 21  1  0
 22 26  1  0
 23 24  1  0
 22 23  1  6
 24 25  2  0
 26 29  1  0
 27 26  2  0
 28 24  1  0
M  END
$$$$
