KRD.pdb
     RDKit          3D

 29 28  0  0  1  0  0  0  0  0999 V2000
    7.2147  -16.9638   19.9278 N   0  0  0  0  0  0  0  0  0  0  0  0
    8.4717  -16.2598   20.1187 C   0  0  1  0  0  0  0  0  0  0  0  0
    8.1331  -14.9725   20.8221 C   0  0  0  0  0  0  0  0  0  0  0  0
    7.8519  -13.8971   19.8211 C   0  0  0  0  0  0  0  0  0  0  0  0
    7.6156  -12.5824   20.5107 C   0  0  0  0  0  0  0  0  0  0  0  0
    7.2536  -11.5000   19.4834 C   0  0  0  0  0  0  0  0  0  0  0  0
    6.9802  -10.2827   20.2169 N   0  0  0  0  0  0  0  0  0  0  0  0
    9.4051  -17.0876   20.9572 C   0  0  0  0  0  0  0  0  0  0  0  0
    8.9397  -18.0055   21.6625 O   0  0  0  0  0  0  0  0  0  0  0  0
   11.7385  -21.1737   18.3074 N   0  0  0  0  0  0  0  0  0  0  0  0
   12.5434  -20.6518   17.2300 C   0  0  0  0  0  0  0  0  0  0  0  0
   12.5478  -21.2266   16.0854 N   0  0  0  0  0  0  0  0  0  0  0  0
   13.3478  -19.4980   17.4111 N   0  0  0  0  0  0  0  0  0  0  0  0
   13.6460  -18.9275   18.6779 C   0  0  0  0  0  0  0  0  0  0  0  0
   12.4648  -18.6511   19.5667 C   0  0  0  0  0  0  0  0  0  0  0  0
   12.8443  -18.0127   20.8507 C   0  0  0  0  0  0  0  0  0  0  0  0
   11.7064  -17.6929   21.7931 C   0  0  2  0  0  0  0  0  0  0  0  0
   10.7937  -16.8651   20.9778 N   0  0  0  0  0  0  0  0  0  0  0  0
   12.0713  -16.8655   22.9432 C   0  0  0  0  0  0  0  0  0  0  0  0
   13.0113  -15.9911   22.8239 O   0  0  0  0  0  0  0  0  0  0  0  0
   13.1939  -20.8731   15.3490 N   0  0  0  0  0  0  0  0  0  0  0  0
   11.5055  -16.8904   24.2334 C   0  0  2  0  0  0  0  0  0  0  0  0
   12.1387  -17.5499   25.3699 C   0  0  0  0  0  0  0  0  0  0  0  0
   11.4848  -18.8404   25.7122 C   0  0  0  0  0  0  0  0  0  0  0  0
   11.1843  -18.8867   27.1568 O   0  0  0  0  0  0  0  0  0  0  0  0
   11.5416  -17.9382   27.9445 C   0  0  0  0  0  0  0  0  0  0  0  0
   13.5731  -17.8098   25.0244 O   0  0  0  0  0  0  0  0  0  0  0  0
   14.5081  -17.1368   25.5007 O   0  0  0  0  0  0  0  0  0  0  0  0
   10.5136  -19.9274   27.7737 O   0  0  0  0  0  0  0  0  0  0  0  0
  2  1  1  1
  3  2  1  0
  4  5  1  0
  4  3  1  0
  5  6  1  0
  7  6  1  0
  8  9  2  0
  8  2  1  0
 10 11  1  0
 11 12  2  0
 13 11  1  0
 13 14  1  0
 14 15  1  0
 16 15  1  0
 17 16  1  6
 17 18  1  0
 18  8  1  0
 19 21  1  0
 19 17  1  0
 20 19  2  0
 22 21  1  0
 22 26  1  0
 23 24  1  0
 22 23  1  6
 24 25  2  0
 26 29  1  0
 27 26  2  0
 28 24  1  0
M  END
$$$$
