KRD.pdb
     RDKit          3D

 29 28  0  0  1  0  0  0  0  0999 V2000
    6.0896  -20.9329   19.1896 N   0  0  0  0  0  0  0  0  0  0  0  0
    6.3058  -20.5416   20.5725 C   0  0  1  0  0  0  0  0  0  0  0  0
    6.8629  -21.7524   21.2726 C   0  0  0  0  0  0  0  0  0  0  0  0
    6.0360  -22.9575   20.9541 C   0  0  0  0  0  0  0  0  0  0  0  0
    6.4698  -24.1309   21.7877 C   0  0  0  0  0  0  0  0  0  0  0  0
    5.7123  -25.3965   21.3604 C   0  0  0  0  0  0  0  0  0  0  0  0
    6.1775  -26.4815   22.1974 N   0  0  0  0  0  0  0  0  0  0  0  0
    7.2811  -19.3998   20.6397 C   0  0  0  0  0  0  0  0  0  0  0  0
    8.2081  -19.3397   19.8070 O   0  0  0  0  0  0  0  0  0  0  0  0
    7.8984  -11.7321   20.0066 N   0  0  0  0  0  0  0  0  0  0  0  0
    8.0098  -12.8559   19.1090 C   0  0  0  0  0  0  0  0  0  0  0  0
    7.9484  -12.6830   17.8414 N   0  0  0  0  0  0  0  0  0  0  0  0
    8.1855  -14.1728   19.6048 N   0  0  0  0  0  0  0  0  0  0  0  0
    8.8071  -14.4790   20.8453 C   0  0  0  0  0  0  0  0  0  0  0  0
    7.8769  -14.7331   21.9995 C   0  0  0  0  0  0  0  0  0  0  0  0
    7.2109  -16.0564   21.9246 C   0  0  0  0  0  0  0  0  0  0  0  0
    8.1112  -17.2353   21.6332 C   0  0  2  0  0  0  0  0  0  0  0  0
    7.1884  -18.3891   21.6133 N   0  0  0  0  0  0  0  0  0  0  0  0
    9.0952  -17.5328   22.6742 C   0  0  0  0  0  0  0  0  0  0  0  0
    8.7404  -17.4948   23.9132 O   0  0  0  0  0  0  0  0  0  0  0  0
    8.1315  -13.4946   17.2149 N   0  0  0  0  0  0  0  0  0  0  0  0
   10.4509  -17.8765   22.5019 C   0  0  2  0  0  0  0  0  0  0  0  0
   11.4761  -17.6068   23.5037 C   0  0  0  0  0  0  0  0  0  0  0  0
   12.0492  -16.2412   23.3740 C   0  0  0  0  0  0  0  0  0  0  0  0
   13.0085  -16.2004   22.2527 O   0  0  0  0  0  0  0  0  0  0  0  0
   13.3415  -17.2660   21.6189 C   0  0  0  0  0  0  0  0  0  0  0  0
   10.8570  -17.7460   24.8607 O   0  0  0  0  0  0  0  0  0  0  0  0
    9.7475  -17.2528   25.1431 O   0  0  0  0  0  0  0  0  0  0  0  0
   13.6194  -15.0450   21.7998 O   0  0  0  0  0  0  0  0  0  0  0  0
  2  1  1  6
  3  2  1  0
  4  5  1  0
  4  3  1  0
  5  6  1  0
  7  6  1  0
  8  9  2  0
  8  2  1  0
 10 11  1  0
 11 12  2  0
 13 11  1  0
 13 14  1  0
 14 15  1  0
 16 15  1  0
 17 16  1  1
 17 18  1  0
 18  8  1  0
 19 21  1  0
 19 17  1  0
 20 19  2  0
 22 21  1  0
 22 26  1  0
 23 24  1  0
 22 23  1  6
 24 25  2  0
 26 29  1  0
 27 26  2  0
 28 24  1  0
M  END
$$$$
