KRD.pdb
     RDKit          3D

 29 28  0  0  1  0  0  0  0  0999 V2000
    5.4740  -16.2904   25.7965 N   0  0  0  0  0  0  0  0  0  0  0  0
    5.9618  -15.1635   25.0192 C   0  0  1  0  0  0  0  0  0  0  0  0
    6.6416  -14.2395   25.9942 C   0  0  0  0  0  0  0  0  0  0  0  0
    5.6215  -13.4645   26.7663 C   0  0  0  0  0  0  0  0  0  0  0  0
    6.2906  -12.5235   27.7290 C   0  0  0  0  0  0  0  0  0  0  0  0
    5.2392  -11.6926   28.4788 C   0  0  0  0  0  0  0  0  0  0  0  0
    5.9407  -10.8915   29.4590 N   0  0  0  0  0  0  0  0  0  0  0  0
    6.9360  -15.6378   23.9772 C   0  0  0  0  0  0  0  0  0  0  0  0
    7.4302  -16.7788   24.0788 O   0  0  0  0  0  0  0  0  0  0  0  0
    6.7666  -13.7806   16.7685 N   0  0  0  0  0  0  0  0  0  0  0  0
    8.1423  -14.0206   16.4071 C   0  0  0  0  0  0  0  0  0  0  0  0
    8.4339  -14.5565   15.2808 N   0  0  0  0  0  0  0  0  0  0  0  0
    9.2000  -13.6743   17.2859 N   0  0  0  0  0  0  0  0  0  0  0  0
    9.0135  -13.2819   18.6388 C   0  0  0  0  0  0  0  0  0  0  0  0
    9.1392  -14.3768   19.6621 C   0  0  0  0  0  0  0  0  0  0  0  0
    8.1541  -14.2539   20.7643 C   0  0  0  0  0  0  0  0  0  0  0  0
    8.1833  -15.3509   21.8040 C   0  0  2  0  0  0  0  0  0  0  0  0
    7.3152  -14.8382   22.8840 N   0  0  0  0  0  0  0  0  0  0  0  0
    9.4894  -15.5819   22.4212 C   0  0  0  0  0  0  0  0  0  0  0  0
    9.9281  -14.7551   23.3079 O   0  0  0  0  0  0  0  0  0  0  0  0
    9.4367  -14.6905   15.0336 N   0  0  0  0  0  0  0  0  0  0  0  0
   10.3830  -16.6420   22.1698 C   0  0  1  0  0  0  0  0  0  0  0  0
   11.6585  -16.7917   22.8612 C   0  0  0  0  0  0  0  0  0  0  0  0
   11.8351  -18.1516   23.4354 C   0  0  0  0  0  0  0  0  0  0  0  0
   11.3947  -18.1661   24.8443 O   0  0  0  0  0  0  0  0  0  0  0  0
   10.9851  -17.0983   25.4275 C   0  0  0  0  0  0  0  0  0  0  0  0
   12.7598  -16.5332   21.8792 O   0  0  0  0  0  0  0  0  0  0  0  0
   13.9633  -16.5525   22.2038 O   0  0  0  0  0  0  0  0  0  0  0  0
   11.3872  -19.2974   25.6402 O   0  0  0  0  0  0  0  0  0  0  0  0
  2  1  1  1
  3  2  1  0
  4  5  1  0
  4  3  1  0
  5  6  1  0
  7  6  1  0
  8  9  2  0
  8  2  1  0
 10 11  1  0
 11 12  2  0
 13 11  1  0
 13 14  1  0
 14 15  1  0
 16 15  1  0
 17 16  1  6
 17 18  1  0
 18  8  1  0
 19 21  1  0
 19 17  1  0
 20 19  2  0
 22 21  1  0
 22 26  1  0
 23 24  1  0
 22 23  1  6
 24 25  2  0
 26 29  1  0
 27 26  2  0
 28 24  1  0
M  END
$$$$
