KRD.pdb
     RDKit          3D

 29 28  0  0  1  0  0  0  0  0999 V2000
   11.8447  -13.6310   18.0348 N   0  0  0  0  0  0  0  0  0  0  0  0
   12.7059  -14.7235   18.4553 C   0  0  1  0  0  0  0  0  0  0  0  0
   13.9990  -14.0951   18.9022 C   0  0  0  0  0  0  0  0  0  0  0  0
   14.9952  -14.1175   17.7867 C   0  0  0  0  0  0  0  0  0  0  0  0
   16.3095  -13.5464   18.2408 C   0  0  0  0  0  0  0  0  0  0  0  0
   17.3184  -13.5467   17.0831 C   0  0  0  0  0  0  0  0  0  0  0  0
   18.5140  -12.8796   17.5521 N   0  0  0  0  0  0  0  0  0  0  0  0
   12.0680  -15.4772   19.5887 C   0  0  0  0  0  0  0  0  0  0  0  0
   11.1625  -14.9314   20.2509 O   0  0  0  0  0  0  0  0  0  0  0  0
   10.9588  -21.7570   23.2135 N   0  0  0  0  0  0  0  0  0  0  0  0
    9.7633  -22.3107   22.6262 C   0  0  0  0  0  0  0  0  0  0  0  0
    9.2422  -23.3803   23.1005 N   0  0  0  0  0  0  0  0  0  0  0  0
    9.1405  -21.6903   21.5134 N   0  0  0  0  0  0  0  0  0  0  0  0
    9.7797  -20.7401   20.6723 C   0  0  0  0  0  0  0  0  0  0  0  0
   10.5552  -19.6598   21.3747 C   0  0  0  0  0  0  0  0  0  0  0  0
   11.1232  -18.6561   20.4418 C   0  0  0  0  0  0  0  0  0  0  0  0
   11.8588  -17.5001   21.0805 C   0  0  2  0  0  0  0  0  0  0  0  0
   12.4562  -16.7841   19.9344 N   0  0  0  0  0  0  0  0  0  0  0  0
   12.9809  -17.8808   21.9385 C   0  0  0  0  0  0  0  0  0  0  0  0
   13.7841  -18.8143   21.5568 O   0  0  0  0  0  0  0  0  0  0  0  0
    8.4555  -23.8268   22.5843 N   0  0  0  0  0  0  0  0  0  0  0  0
   13.3268  -17.3377   23.1919 C   0  0  1  0  0  0  0  0  0  0  0  0
   14.4493  -17.8202   23.9884 C   0  0  0  0  0  0  0  0  0  0  0  0
   15.3900  -16.7305   24.3597 C   0  0  0  0  0  0  0  0  0  0  0  0
   16.1564  -16.2993   23.1740 O   0  0  0  0  0  0  0  0  0  0  0  0
   15.9636  -16.8336   22.0229 C   0  0  0  0  0  0  0  0  0  0  0  0
   13.9070  -18.4399   25.2399 O   0  0  0  0  0  0  0  0  0  0  0  0
   12.7044  -18.3606   25.5584 O   0  0  0  0  0  0  0  0  0  0  0  0
   17.1251  -15.3120   23.1970 O   0  0  0  0  0  0  0  0  0  0  0  0
  2  1  1  1
  3  2  1  0
  4  5  1  0
  4  3  1  0
  5  6  1  0
  7  6  1  0
  8  9  2  0
  8  2  1  0
 10 11  1  0
 11 12  2  0
 13 11  1  0
 13 14  1  0
 14 15  1  0
 16 15  1  0
 17 16  1  6
 17 18  1  0
 18  8  1  0
 19 21  1  0
 19 17  1  0
 20 19  2  0
 22 21  1  0
 22 26  1  0
 23 24  1  0
 22 23  1  1
 24 25  2  0
 26 29  1  0
 27 26  2  0
 28 24  1  0
M  END
$$$$
