KRD.pdb
     RDKit          3D

 29 28  0  0  1  0  0  0  0  0999 V2000
    6.5473  -16.8354   20.0734 N   0  0  0  0  0  0  0  0  0  0  0  0
    7.2537  -16.3494   21.2469 C   0  0  1  0  0  0  0  0  0  0  0  0
    7.2479  -14.8469   21.1522 C   0  0  0  0  0  0  0  0  0  0  0  0
    8.0992  -14.3998   20.0064 C   0  0  0  0  0  0  0  0  0  0  0  0
    8.0462  -12.9044   19.8611 C   0  0  0  0  0  0  0  0  0  0  0  0
    8.7926  -12.4661   18.5927 C   0  0  0  0  0  0  0  0  0  0  0  0
    8.6238  -11.0344   18.4654 N   0  0  0  0  0  0  0  0  0  0  0  0
    6.5505  -16.8004   22.4966 C   0  0  0  0  0  0  0  0  0  0  0  0
    5.3973  -16.3861   22.7309 O   0  0  0  0  0  0  0  0  0  0  0  0
    4.4979  -19.3329   20.2107 N   0  0  0  0  0  0  0  0  0  0  0  0
    3.2366  -19.4241   20.9048 C   0  0  0  0  0  0  0  0  0  0  0  0
    2.1818  -18.8945   20.4072 N   0  0  0  0  0  0  0  0  0  0  0  0
    3.1342  -20.0954   22.1497 N   0  0  0  0  0  0  0  0  0  0  0  0
    3.9275  -19.7863   23.2873 C   0  0  0  0  0  0  0  0  0  0  0  0
    5.4147  -19.9135   23.1034 C   0  0  0  0  0  0  0  0  0  0  0  0
    6.1778  -19.6146   24.3399 C   0  0  0  0  0  0  0  0  0  0  0  0
    6.4334  -18.1518   24.6229 C   0  0  2  0  0  0  0  0  0  0  0  0
    7.1476  -17.6780   23.4194 N   0  0  0  0  0  0  0  0  0  0  0  0
    7.3323  -17.8884   25.7467 C   0  0  0  0  0  0  0  0  0  0  0  0
    8.3204  -17.0746   25.5925 O   0  0  0  0  0  0  0  0  0  0  0  0
    1.3004  -18.9159   20.9615 N   0  0  0  0  0  0  0  0  0  0  0  0
    7.2634  -18.4278   27.0466 C   0  0  2  0  0  0  0  0  0  0  0  0
    8.4270  -18.9419   27.7601 C   0  0  0  0  0  0  0  0  0  0  0  0
    8.9890  -20.1616   27.1223 C   0  0  0  0  0  0  0  0  0  0  0  0
    8.5748  -21.3618   27.8753 O   0  0  0  0  0  0  0  0  0  0  0  0
    9.3272  -21.8764   28.7792 C   0  0  0  0  0  0  0  0  0  0  0  0
    9.4786  -17.8751   27.7768 O   0  0  0  0  0  0  0  0  0  0  0  0
    9.3667  -16.8158   27.1292 O   0  0  0  0  0  0  0  0  0  0  0  0
    7.3754  -22.0222   27.6781 O   0  0  0  0  0  0  0  0  0  0  0  0
  2  1  1  6
  3  2  1  0
  4  5  1  0
  4  3  1  0
  5  6  1  0
  7  6  1  0
  8  9  2  0
  8  2  1  0
 10 11  1  0
 11 12  2  0
 13 11  1  0
 13 14  1  0
 14 15  1  0
 16 15  1  0
 17 16  1  6
 17 18  1  0
 18  8  1  0
 19 21  1  0
 19 17  1  0
 20 19  2  0
 22 21  1  0
 22 26  1  0
 23 24  1  0
 22 23  1  1
 24 25  2  0
 26 29  1  0
 27 26  2  0
 28 24  1  0
M  END
$$$$
