KRD.pdb
     RDKit          3D

 29 28  0  0  1  0  0  0  0  0999 V2000
   11.4754  -22.1734   15.3451 N   0  0  0  0  0  0  0  0  0  0  0  0
   10.7374  -22.8712   16.3846 C   0  0  1  0  0  0  0  0  0  0  0  0
   11.5880  -24.0446   16.7924 C   0  0  0  0  0  0  0  0  0  0  0  0
   12.7746  -24.1593   15.8889 C   0  0  0  0  0  0  0  0  0  0  0  0
   13.5912  -25.3713   16.2410 C   0  0  0  0  0  0  0  0  0  0  0  0
   14.7827  -25.5075   15.2818 C   0  0  0  0  0  0  0  0  0  0  0  0
   15.4680  -26.7375   15.6162 N   0  0  0  0  0  0  0  0  0  0  0  0
   10.5056  -21.9575   17.5554 C   0  0  0  0  0  0  0  0  0  0  0  0
   10.9412  -20.7892   17.5130 O   0  0  0  0  0  0  0  0  0  0  0  0
    6.0387  -25.0751   18.3669 N   0  0  0  0  0  0  0  0  0  0  0  0
    5.2792  -25.1096   19.5928 C   0  0  0  0  0  0  0  0  0  0  0  0
    4.6504  -26.1709   19.9376 N   0  0  0  0  0  0  0  0  0  0  0  0
    5.2073  -23.9749   20.4403 N   0  0  0  0  0  0  0  0  0  0  0  0
    5.8598  -22.7410   20.1741 C   0  0  0  0  0  0  0  0  0  0  0  0
    7.3622  -22.7905   20.1290 C   0  0  0  0  0  0  0  0  0  0  0  0
    7.9767  -21.4658   19.8681 C   0  0  0  0  0  0  0  0  0  0  0  0
    9.4867  -21.4375   19.8032 C   0  0  2  0  0  0  0  0  0  0  0  0
    9.8115  -22.3724   18.7062 N   0  0  0  0  0  0  0  0  0  0  0  0
   10.1655  -21.9646   20.9872 C   0  0  0  0  0  0  0  0  0  0  0  0
   10.4360  -23.2233   21.0566 O   0  0  0  0  0  0  0  0  0  0  0  0
    4.1009  -26.1634   20.8223 N   0  0  0  0  0  0  0  0  0  0  0  0
   10.5905  -21.2485   22.1239 C   0  0  2  0  0  0  0  0  0  0  0  0
   11.2657  -21.8744   23.2551 C   0  0  0  0  0  0  0  0  0  0  0  0
   10.3621  -22.7621   24.0334 C   0  0  0  0  0  0  0  0  0  0  0  0
   11.0561  -23.2577   25.2384 O   0  0  0  0  0  0  0  0  0  0  0  0
   10.9165  -24.4692   25.6393 C   0  0  0  0  0  0  0  0  0  0  0  0
   12.4096  -22.6869   22.7302 O   0  0  0  0  0  0  0  0  0  0  0  0
   12.2475  -23.6370   21.9396 O   0  0  0  0  0  0  0  0  0  0  0  0
   11.8917  -22.4830   26.0227 O   0  0  0  0  0  0  0  0  0  0  0  0
  2  1  1  6
  3  2  1  0
  4  5  1  0
  4  3  1  0
  5  6  1  0
  7  6  1  0
  8  9  2  0
  8  2  1  0
 10 11  1  0
 11 12  2  0
 13 11  1  0
 13 14  1  0
 14 15  1  0
 16 15  1  0
 17 16  1  1
 17 18  1  0
 18  8  1  0
 19 21  1  0
 19 17  1  0
 20 19  2  0
 22 21  1  0
 22 26  1  0
 23 24  1  0
 22 23  1  1
 24 25  2  0
 26 29  1  0
 27 26  2  0
 28 24  1  0
M  END
$$$$
