KRD.pdb
     RDKit          3D

 29 28  0  0  1  0  0  0  0  0999 V2000
   12.7942  -17.7589   16.3517 N   0  0  0  0  0  0  0  0  0  0  0  0
   12.2587  -18.6762   17.3436 C   0  0  1  0  0  0  0  0  0  0  0  0
   13.1773  -19.8688   17.3566 C   0  0  0  0  0  0  0  0  0  0  0  0
   12.9657  -20.6955   16.1280 C   0  0  0  0  0  0  0  0  0  0  0  0
   14.2529  -20.8497   15.3671 C   0  0  0  0  0  0  0  0  0  0  0  0
   14.0612  -21.8126   14.1863 C   0  0  0  0  0  0  0  0  0  0  0  0
   15.3480  -21.9683   13.5427 N   0  0  0  0  0  0  0  0  0  0  0  0
   12.2320  -18.0179   18.6947 C   0  0  0  0  0  0  0  0  0  0  0  0
   13.2786  -17.5118   19.1473 O   0  0  0  0  0  0  0  0  0  0  0  0
    6.4348  -18.6665   24.7848 N   0  0  0  0  0  0  0  0  0  0  0  0
    7.0612  -17.4145   25.1329 C   0  0  0  0  0  0  0  0  0  0  0  0
    7.3253  -17.1384   26.3554 N   0  0  0  0  0  0  0  0  0  0  0  0
    7.3951  -16.4623   24.1365 N   0  0  0  0  0  0  0  0  0  0  0  0
    7.7700  -16.7997   22.8081 C   0  0  0  0  0  0  0  0  0  0  0  0
    9.2476  -16.9173   22.5538 C   0  0  0  0  0  0  0  0  0  0  0  0
    9.5684  -17.2150   21.1365 C   0  0  0  0  0  0  0  0  0  0  0  0
   11.0383  -17.2763   20.7890 C   0  0  2  0  0  0  0  0  0  0  0  0
   11.0635  -17.9506   19.4746 N   0  0  0  0  0  0  0  0  0  0  0  0
   11.8485  -18.1096   21.6776 C   0  0  0  0  0  0  0  0  0  0  0  0
   11.7083  -19.3910   21.6495 O   0  0  0  0  0  0  0  0  0  0  0  0
    7.7291  -16.2058   26.5831 N   0  0  0  0  0  0  0  0  0  0  0  0
   12.8159  -17.6837   22.6094 C   0  0  1  0  0  0  0  0  0  0  0  0
   13.6448  -18.6060   23.3773 C   0  0  0  0  0  0  0  0  0  0  0  0
   15.0919  -18.4546   23.0725 C   0  0  0  0  0  0  0  0  0  0  0  0
   15.8857  -19.3566   23.9301 O   0  0  0  0  0  0  0  0  0  0  0  0
   15.9528  -20.6165   23.6933 C   0  0  0  0  0  0  0  0  0  0  0  0
   13.4252  -18.3353   24.8342 O   0  0  0  0  0  0  0  0  0  0  0  0
   12.8038  -17.3345   25.2421 O   0  0  0  0  0  0  0  0  0  0  0  0
   16.6045  -18.9381   25.0354 O   0  0  0  0  0  0  0  0  0  0  0  0
  2  1  1  6
  3  2  1  0
  4  5  1  0
  4  3  1  0
  5  6  1  0
  7  6  1  0
  8  9  2  0
  8  2  1  0
 10 11  1  0
 11 12  2  0
 13 11  1  0
 13 14  1  0
 14 15  1  0
 16 15  1  0
 17 16  1  1
 17 18  1  0
 18  8  1  0
 19 21  1  0
 19 17  1  0
 20 19  2  0
 22 21  1  0
 22 26  1  0
 23 24  1  0
 22 23  1  1
 24 25  2  0
 26 29  1  0
 27 26  2  0
 28 24  1  0
M  END
$$$$
