KRD.pdb
     RDKit          3D

 29 28  0  0  1  0  0  0  0  0999 V2000
   10.3181  -19.0092   18.3569 N   0  0  0  0  0  0  0  0  0  0  0  0
   10.1525  -19.2885   19.7735 C   0  0  1  0  0  0  0  0  0  0  0  0
   11.0693  -20.4407   20.0876 C   0  0  0  0  0  0  0  0  0  0  0  0
   11.1774  -21.3501   18.9050 C   0  0  0  0  0  0  0  0  0  0  0  0
   12.0530  -22.5296   19.2241 C   0  0  0  0  0  0  0  0  0  0  0  0
   12.1780  -23.4467   17.9988 C   0  0  0  0  0  0  0  0  0  0  0  0
   11.5525  -24.7071   18.3371 N   0  0  0  0  0  0  0  0  0  0  0  0
   10.5286  -18.0806   20.5854 C   0  0  0  0  0  0  0  0  0  0  0  0
   11.6472  -17.5552   20.4150 O   0  0  0  0  0  0  0  0  0  0  0  0
    7.6794  -10.7745   19.5105 N   0  0  0  0  0  0  0  0  0  0  0  0
    7.4836  -12.1952   19.6657 C   0  0  0  0  0  0  0  0  0  0  0  0
    6.7616  -12.8462   18.8318 N   0  0  0  0  0  0  0  0  0  0  0  0
    8.0793  -12.9021   20.7411 N   0  0  0  0  0  0  0  0  0  0  0  0
    8.5153  -14.2521   20.6606 C   0  0  0  0  0  0  0  0  0  0  0  0
    7.8066  -15.2247   21.5627 C   0  0  0  0  0  0  0  0  0  0  0  0
    8.6617  -15.7125   22.6723 C   0  0  0  0  0  0  0  0  0  0  0  0
   10.0042  -16.2811   22.2730 C   0  0  2  0  0  0  0  0  0  0  0  0
    9.6612  -17.5159   21.5378 N   0  0  0  0  0  0  0  0  0  0  0  0
   10.8510  -16.7059   23.3879 C   0  0  0  0  0  0  0  0  0  0  0  0
   10.3187  -17.3072   24.3966 O   0  0  0  0  0  0  0  0  0  0  0  0
    6.6367  -13.8710   18.9692 N   0  0  0  0  0  0  0  0  0  0  0  0
   12.2445  -16.5428   23.5190 C   0  0  1  0  0  0  0  0  0  0  0  0
   13.0190  -17.1363   24.6031 C   0  0  0  0  0  0  0  0  0  0  0  0
   12.8444  -18.6106   24.6824 C   0  0  0  0  0  0  0  0  0  0  0  0
   13.5855  -19.1452   25.8419 O   0  0  0  0  0  0  0  0  0  0  0  0
   14.2359  -18.3719   26.6337 C   0  0  0  0  0  0  0  0  0  0  0  0
   14.4669  -16.8314   24.3693 O   0  0  0  0  0  0  0  0  0  0  0  0
   15.3688  -17.2542   25.1189 O   0  0  0  0  0  0  0  0  0  0  0  0
   13.6465  -20.4881   26.1677 O   0  0  0  0  0  0  0  0  0  0  0  0
  2  1  1  6
  3  2  1  0
  4  5  1  0
  4  3  1  0
  5  6  1  0
  7  6  1  0
  8  9  2  0
  8  2  1  0
 10 11  1  0
 11 12  2  0
 13 11  1  0
 13 14  1  0
 14 15  1  0
 16 15  1  0
 17 16  1  1
 17 18  1  0
 18  8  1  0
 19 21  1  0
 19 17  1  0
 20 19  2  0
 22 21  1  0
 22 26  1  0
 23 24  1  0
 22 23  1  1
 24 25  2  0
 26 29  1  0
 27 26  2  0
 28 24  1  0
M  END
$$$$
