KRD.pdb
     RDKit          3D

 29 28  0  0  1  0  0  0  0  0999 V2000
    7.6430  -16.5462   19.4662 N   0  0  0  0  0  0  0  0  0  0  0  0
    8.9424  -15.9979   19.1152 C   0  0  1  0  0  0  0  0  0  0  0  0
    8.6767  -14.8328   18.1996 C   0  0  0  0  0  0  0  0  0  0  0  0
    7.9545  -15.2951   16.9740 C   0  0  0  0  0  0  0  0  0  0  0  0
    8.2490  -14.3865   15.8131 C   0  0  0  0  0  0  0  0  0  0  0  0
    7.5045  -14.8669   14.5589 C   0  0  0  0  0  0  0  0  0  0  0  0
    7.7422  -13.8922   13.5158 N   0  0  0  0  0  0  0  0  0  0  0  0
    9.6614  -15.5405   20.3535 C   0  0  0  0  0  0  0  0  0  0  0  0
   10.8187  -15.0853   20.2538 O   0  0  0  0  0  0  0  0  0  0  0  0
    9.6343  -16.0873   27.9593 N   0  0  0  0  0  0  0  0  0  0  0  0
    9.1382  -14.7945   28.3636 C   0  0  0  0  0  0  0  0  0  0  0  0
    9.4351  -14.3157   29.5140 N   0  0  0  0  0  0  0  0  0  0  0  0
    8.3115  -14.0273   27.5041 N   0  0  0  0  0  0  0  0  0  0  0  0
    7.9661  -14.4125   26.1807 C   0  0  0  0  0  0  0  0  0  0  0  0
    9.1128  -14.5478   25.2170 C   0  0  0  0  0  0  0  0  0  0  0  0
    8.6839  -14.9842   23.8657 C   0  0  0  0  0  0  0  0  0  0  0  0
    9.7840  -15.1439   22.8413 C   0  0  2  0  0  0  0  0  0  0  0  0
    9.0754  -15.6073   21.6304 N   0  0  0  0  0  0  0  0  0  0  0  0
   10.7668  -16.1834   23.1476 C   0  0  0  0  0  0  0  0  0  0  0  0
   10.4249  -17.4240   23.0681 O   0  0  0  0  0  0  0  0  0  0  0  0
    9.0215  -13.4036   29.7997 N   0  0  0  0  0  0  0  0  0  0  0  0
   12.1098  -16.0082   23.5364 C   0  0  2  0  0  0  0  0  0  0  0  0
   12.9929  -17.1174   23.8783 C   0  0  0  0  0  0  0  0  0  0  0  0
   14.4294  -16.7432   23.7973 C   0  0  0  0  0  0  0  0  0  0  0  0
   14.7866  -16.4095   22.4044 O   0  0  0  0  0  0  0  0  0  0  0  0
   14.0627  -16.7970   21.4176 C   0  0  0  0  0  0  0  0  0  0  0  0
   12.6833  -17.5519   25.2781 O   0  0  0  0  0  0  0  0  0  0  0  0
   11.8866  -16.9322   26.0098 O   0  0  0  0  0  0  0  0  0  0  0  0
   15.9024  -15.6738   22.0476 O   0  0  0  0  0  0  0  0  0  0  0  0
  2  1  1  1
  3  2  1  0
  4  5  1  0
  4  3  1  0
  5  6  1  0
  7  6  1  0
  8  9  2  0
  8  2  1  0
 10 11  1  0
 11 12  2  0
 13 11  1  0
 13 14  1  0
 14 15  1  0
 16 15  1  0
 17 16  1  1
 17 18  1  0
 18  8  1  0
 19 21  1  0
 19 17  1  0
 20 19  2  0
 22 21  1  0
 22 26  1  0
 23 24  1  0
 22 23  1  6
 24 25  2  0
 26 29  1  0
 27 26  2  0
 28 24  1  0
M  END
$$$$
