KRD.pdb
     RDKit          3D

 29 28  0  0  1  0  0  0  0  0999 V2000
    7.5593  -18.0819   25.7696 N   0  0  0  0  0  0  0  0  0  0  0  0
    8.1978  -16.8143   25.4571 C   0  0  1  0  0  0  0  0  0  0  0  0
    9.5566  -16.8541   26.1040 C   0  0  0  0  0  0  0  0  0  0  0  0
    9.4185  -17.0444   27.5812 C   0  0  0  0  0  0  0  0  0  0  0  0
   10.7705  -17.1720   28.2259 C   0  0  0  0  0  0  0  0  0  0  0  0
   10.6212  -17.3640   29.7421 C   0  0  0  0  0  0  0  0  0  0  0  0
   10.0297  -18.6674   29.9561 N   0  0  0  0  0  0  0  0  0  0  0  0
    8.3284  -16.6551   23.9681 C   0  0  0  0  0  0  0  0  0  0  0  0
    8.2248  -17.6598   23.2358 O   0  0  0  0  0  0  0  0  0  0  0  0
    8.2483  -13.3075   15.8401 N   0  0  0  0  0  0  0  0  0  0  0  0
    8.2157  -13.8274   17.1852 C   0  0  0  0  0  0  0  0  0  0  0  0
    9.1821  -14.5412   17.6291 N   0  0  0  0  0  0  0  0  0  0  0  0
    7.1177  -13.5658   18.0437 N   0  0  0  0  0  0  0  0  0  0  0  0
    7.0937  -13.8933   19.4262 C   0  0  0  0  0  0  0  0  0  0  0  0
    8.2432  -13.3713   20.2435 C   0  0  0  0  0  0  0  0  0  0  0  0
    8.2063  -13.8317   21.6531 C   0  0  0  0  0  0  0  0  0  0  0  0
    8.6585  -15.2533   21.8975 C   0  0  2  0  0  0  0  0  0  0  0  0
    8.5655  -15.4072   23.3640 N   0  0  0  0  0  0  0  0  0  0  0  0
   10.0557  -15.5237   21.5583 C   0  0  0  0  0  0  0  0  0  0  0  0
   10.9949  -14.9925   22.2642 O   0  0  0  0  0  0  0  0  0  0  0  0
    9.9442  -14.8165   16.9749 N   0  0  0  0  0  0  0  0  0  0  0  0
   10.5451  -16.3302   20.5117 C   0  0  1  0  0  0  0  0  0  0  0  0
   11.9193  -16.2623   20.0274 C   0  0  0  0  0  0  0  0  0  0  0  0
   12.3305  -14.8758   19.6831 C   0  0  0  0  0  0  0  0  0  0  0  0
   13.7313  -14.8654   19.2175 O   0  0  0  0  0  0  0  0  0  0  0  0
   14.3895  -15.9554   19.0542 C   0  0  0  0  0  0  0  0  0  0  0  0
   12.8236  -16.7835   21.1020 O   0  0  0  0  0  0  0  0  0  0  0  0
   13.2135  -17.9672   21.1319 O   0  0  0  0  0  0  0  0  0  0  0  0
   14.4407  -13.7139   18.9272 O   0  0  0  0  0  0  0  0  0  0  0  0
  2  1  1  6
  3  2  1  0
  4  5  1  0
  4  3  1  0
  5  6  1  0
  7  6  1  0
  8  9  2  0
  8  2  1  0
 10 11  1  0
 11 12  2  0
 13 11  1  0
 13 14  1  0
 14 15  1  0
 16 15  1  0
 17 16  1  1
 17 18  1  0
 18  8  1  0
 19 21  1  0
 19 17  1  0
 20 19  2  0
 22 21  1  0
 22 26  1  0
 23 24  1  0
 22 23  1  6
 24 25  2  0
 26 29  1  0
 27 26  2  0
 28 24  1  0
M  END
$$$$
