DYD.pdb
     RDKit          3D

 29 29  0  0  1  0  0  0  0  0999 V2000
    8.5691  -17.1743   19.3360 N   0  0  0  0  0  0  0  0  0  0  0  0
    9.8845  -17.1878   19.9080 C   0  0  1  0  0  0  0  0  0  0  0  0
   10.8840  -16.6172   18.9054 C   0  0  0  0  0  0  0  0  0  0  0  0
   10.8132  -17.3695   17.6294 C   0  0  0  0  0  0  0  0  0  0  0  0
   10.6556  -18.6047   17.6429 O   0  0  0  0  0  0  0  0  0  0  0  0
    9.9580  -16.3303   21.1225 C   0  0  0  0  0  0  0  0  0  0  0  0
   11.0898  -16.0189   21.5744 O   0  0  0  0  0  0  0  0  0  0  0  0
   10.9271  -16.6569   16.4457 O   0  0  0  0  0  0  0  0  0  0  0  0
    6.6759  -11.6441   27.8820 O   0  0  0  0  0  0  0  0  0  0  0  0
    6.8778  -12.3306   26.6886 C   0  0  0  0  0  0  0  0  0  0  0  0
    7.5909  -11.7647   25.6526 C   0  0  0  0  0  0  0  0  0  0  0  0
    7.7578  -12.4990   24.4889 C   0  0  0  0  0  0  0  0  0  0  0  0
    7.2289  -13.7575   24.3649 C   0  0  0  0  0  0  0  0  0  0  0  0
    7.4164  -14.5059   23.1245 C   0  0  0  0  0  0  0  0  0  0  0  0
    8.7910  -15.1403   22.9974 C   0  0  2  0  0  0  0  0  0  0  0  0
    8.7591  -15.8848   21.7415 N   0  0  0  0  0  0  0  0  0  0  0  0
    9.0280  -16.0745   24.1075 C   0  0  0  0  0  0  0  0  0  0  0  0
    8.3700  -17.1631   24.1702 O   0  0  0  0  0  0  0  0  0  0  0  0
    6.5152  -14.3224   25.4035 C   0  0  0  0  0  0  0  0  0  0  0  0
    6.3484  -13.6022   26.5523 C   0  0  0  0  0  0  0  0  0  0  0  0
    9.9671  -15.8419   25.1456 N   0  0  0  0  0  0  0  0  0  0  0  0
   10.1991  -16.8686   26.1708 C   0  0  1  0  0  0  0  0  0  0  0  0
   11.4867  -17.5367   25.8256 C   0  0  0  0  0  0  0  0  0  0  0  0
   11.4509  -18.9879   25.6779 C   0  0  0  0  0  0  0  0  0  0  0  0
   10.4288  -19.6608   25.7991 O   0  0  0  0  0  0  0  0  0  0  0  0
   10.2088  -16.2200   27.5098 C   0  0  0  0  0  0  0  0  0  0  0  0
   10.4154  -14.9644   27.6264 O   0  0  0  0  0  0  0  0  0  0  0  0
   12.6379  -19.6873   25.3794 O   0  0  0  0  0  0  0  0  0  0  0  0
   10.0024  -16.8970   28.6830 O   0  0  0  0  0  0  0  0  0  0  0  0
  2  1  1  6
  2  3  1  0
  4  3  1  0
  4  8  1  0
  5  4  2  0
  6  2  1  0
  6  7  2  0
  9 10  1  0
 10 20  2  0
 10 11  1  0
 11 12  2  0
 12 13  1  0
 13 14  1  0
 15 14  1  1
 15 16  1  0
 16  6  1  0
 17 15  1  0
 18 17  2  0
 19 13  2  0
 20 19  1  0
 21 17  1  0
 22 21  1  0
 22 23  1  6
 23 24  1  0
 24 28  1  0
 24 25  2  0
 26 22  1  0
 27 26  2  0
 29 26  1  0
M  END
$$$$
