DYD.pdb
     RDKit          3D

 29 29  0  0  1  0  0  0  0  0999 V2000
    9.8802  -17.6422   19.5139 N   0  0  0  0  0  0  0  0  0  0  0  0
   11.2139  -17.3716   19.9676 C   0  0  1  0  0  0  0  0  0  0  0  0
   11.9399  -16.5109   18.9371 C   0  0  0  0  0  0  0  0  0  0  0  0
   12.1301  -17.2723   17.6789 C   0  0  0  0  0  0  0  0  0  0  0  0
   11.6078  -18.3949   17.5456 O   0  0  0  0  0  0  0  0  0  0  0  0
   11.2090  -16.6027   21.2421 C   0  0  0  0  0  0  0  0  0  0  0  0
   12.2979  -16.1470   21.6768 O   0  0  0  0  0  0  0  0  0  0  0  0
   12.8969  -16.6959   16.6781 O   0  0  0  0  0  0  0  0  0  0  0  0
    7.4367  -13.0705   18.0549 O   0  0  0  0  0  0  0  0  0  0  0  0
    7.7450  -13.5261   19.3331 C   0  0  0  0  0  0  0  0  0  0  0  0
    7.0287  -14.5497   19.9170 C   0  0  0  0  0  0  0  0  0  0  0  0
    7.3842  -14.9589   21.1927 C   0  0  0  0  0  0  0  0  0  0  0  0
    8.4217  -14.3641   21.8627 C   0  0  0  0  0  0  0  0  0  0  0  0
    8.7705  -14.8128   23.2084 C   0  0  0  0  0  0  0  0  0  0  0  0
    9.9601  -15.7571   23.2466 C   0  0  2  0  0  0  0  0  0  0  0  0
    9.9857  -16.4007   21.9360 N   0  0  0  0  0  0  0  0  0  0  0  0
    9.7677  -16.7805   24.2844 C   0  0  0  0  0  0  0  0  0  0  0  0
    9.0158  -17.7822   24.0540 O   0  0  0  0  0  0  0  0  0  0  0  0
    9.1378  -13.3392   21.2762 C   0  0  0  0  0  0  0  0  0  0  0  0
    8.7907  -12.9329   20.0189 C   0  0  0  0  0  0  0  0  0  0  0  0
   10.3799  -16.7295   25.5636 N   0  0  0  0  0  0  0  0  0  0  0  0
   10.8693  -17.9632   26.1941 C   0  0  1  0  0  0  0  0  0  0  0  0
   12.3175  -18.0726   25.8564 C   0  0  0  0  0  0  0  0  0  0  0  0
   13.0195  -19.2475   26.3623 C   0  0  0  0  0  0  0  0  0  0  0  0
   13.0611  -19.5577   27.5515 O   0  0  0  0  0  0  0  0  0  0  0  0
   10.6058  -17.8949   27.6569 C   0  0  0  0  0  0  0  0  0  0  0  0
   10.4230  -18.9602   28.3385 O   0  0  0  0  0  0  0  0  0  0  0  0
   13.6980  -20.0947   25.4628 O   0  0  0  0  0  0  0  0  0  0  0  0
   10.5422  -16.7225   28.3631 O   0  0  0  0  0  0  0  0  0  0  0  0
  2  1  1  6
  2  3  1  0
  4  3  1  0
  4  8  1  0
  5  4  2  0
  6  2  1  0
  6  7  2  0
  9 10  1  0
 10 20  2  0
 10 11  1  0
 11 12  2  0
 12 13  1  0
 13 14  1  0
 15 14  1  6
 15 16  1  0
 16  6  1  0
 17 15  1  0
 18 17  2  0
 19 13  2  0
 20 19  1  0
 21 17  1  0
 22 21  1  0
 22 23  1  1
 23 24  1  0
 24 28  1  0
 24 25  2  0
 26 22  1  0
 27 26  2  0
 29 26  1  0
M  END
$$$$
