DYD.pdb
     RDKit          3D

 29 29  0  0  1  0  0  0  0  0999 V2000
    8.7615  -17.7205   19.3014 N   0  0  0  0  0  0  0  0  0  0  0  0
   10.0881  -17.3481   19.7003 C   0  0  1  0  0  0  0  0  0  0  0  0
   10.7835  -16.6239   18.5506 C   0  0  0  0  0  0  0  0  0  0  0  0
   10.9428  -17.5376   17.3935 C   0  0  0  0  0  0  0  0  0  0  0  0
   10.3019  -18.6044   17.3499 O   0  0  0  0  0  0  0  0  0  0  0  0
   10.0650  -16.4039   20.8508 C   0  0  0  0  0  0  0  0  0  0  0  0
   11.1254  -15.8018   21.1594 O   0  0  0  0  0  0  0  0  0  0  0  0
   11.8157  -17.1638   16.3835 O   0  0  0  0  0  0  0  0  0  0  0  0
    6.4059  -12.0599   27.6310 O   0  0  0  0  0  0  0  0  0  0  0  0
    6.6345  -12.7912   26.4693 C   0  0  0  0  0  0  0  0  0  0  0  0
    6.1762  -14.0854   26.3401 C   0  0  0  0  0  0  0  0  0  0  0  0
    6.4357  -14.7617   25.1582 C   0  0  0  0  0  0  0  0  0  0  0  0
    7.1308  -14.1636   24.1393 C   0  0  0  0  0  0  0  0  0  0  0  0
    7.3940  -14.9026   22.9071 C   0  0  0  0  0  0  0  0  0  0  0  0
    8.8278  -15.3895   22.7830 C   0  0  2  0  0  0  0  0  0  0  0  0
    8.8566  -16.2035   21.5709 N   0  0  0  0  0  0  0  0  0  0  0  0
    9.1854  -16.2272   23.9369 C   0  0  0  0  0  0  0  0  0  0  0  0
    8.5629  -17.3188   24.1438 O   0  0  0  0  0  0  0  0  0  0  0  0
    7.5887  -12.8674   24.2707 C   0  0  0  0  0  0  0  0  0  0  0  0
    7.3351  -12.1973   25.4339 C   0  0  0  0  0  0  0  0  0  0  0  0
   10.2067  -15.8953   24.8646 N   0  0  0  0  0  0  0  0  0  0  0  0
   10.5448  -16.8262   25.9500 C   0  0  1  0  0  0  0  0  0  0  0  0
   12.0330  -16.9026   26.0019 C   0  0  0  0  0  0  0  0  0  0  0  0
   12.6908  -17.5945   24.8984 C   0  0  0  0  0  0  0  0  0  0  0  0
   12.0866  -18.2155   24.0258 O   0  0  0  0  0  0  0  0  0  0  0  0
    9.9325  -16.3362   27.2144 C   0  0  0  0  0  0  0  0  0  0  0  0
    9.9320  -17.0634   28.2651 O   0  0  0  0  0  0  0  0  0  0  0  0
   14.0967  -17.5683   24.7987 O   0  0  0  0  0  0  0  0  0  0  0  0
    9.3422  -15.1067   27.3455 O   0  0  0  0  0  0  0  0  0  0  0  0
  2  1  1  6
  2  3  1  0
  4  3  1  0
  4  8  1  0
  5  4  2  0
  6  2  1  0
  6  7  2  0
  9 10  1  0
 10 20  2  0
 10 11  1  0
 11 12  2  0
 12 13  1  0
 13 14  1  0
 15 14  1  1
 15 16  1  0
 16  6  1  0
 17 15  1  0
 18 17  2  0
 19 13  2  0
 20 19  1  0
 21 17  1  0
 22 21  1  0
 22 23  1  1
 23 24  1  0
 24 28  1  0
 24 25  2  0
 26 22  1  0
 27 26  2  0
 29 26  1  0
M  END
$$$$
