DYD.pdb
     RDKit          3D

 29 29  0  0  1  0  0  0  0  0999 V2000
   10.7016  -16.7331   18.7970 N   0  0  0  0  0  0  0  0  0  0  0  0
    9.5200  -16.9168   19.5894 C   0  0  1  0  0  0  0  0  0  0  0  0
    9.2918  -18.4068   19.8295 C   0  0  0  0  0  0  0  0  0  0  0  0
    9.0976  -19.1083   18.5375 C   0  0  0  0  0  0  0  0  0  0  0  0
    9.6146  -20.2260   18.3521 O   0  0  0  0  0  0  0  0  0  0  0  0
    9.6596  -16.2827   20.9288 C   0  0  0  0  0  0  0  0  0  0  0  0
   10.7714  -16.3451   21.5136 O   0  0  0  0  0  0  0  0  0  0  0  0
    8.3331  -18.4827   17.5649 O   0  0  0  0  0  0  0  0  0  0  0  0
    6.8274  -11.8067   28.0224 O   0  0  0  0  0  0  0  0  0  0  0  0
    6.9400  -12.4204   26.7786 C   0  0  0  0  0  0  0  0  0  0  0  0
    6.2823  -13.6011   26.5042 C   0  0  0  0  0  0  0  0  0  0  0  0
    6.4344  -14.1634   25.2463 C   0  0  0  0  0  0  0  0  0  0  0  0
    7.2183  -13.5650   24.2943 C   0  0  0  0  0  0  0  0  0  0  0  0
    7.3642  -14.1834   22.9790 C   0  0  0  0  0  0  0  0  0  0  0  0
    8.6533  -14.9706   22.8153 C   0  0  2  0  0  0  0  0  0  0  0  0
    8.5442  -15.6257   21.5147 N   0  0  0  0  0  0  0  0  0  0  0  0
    8.7644  -15.9942   23.8646 C   0  0  0  0  0  0  0  0  0  0  0  0
    8.0346  -17.0366   23.8121 O   0  0  0  0  0  0  0  0  0  0  0  0
    7.8761  -12.3826   24.5712 C   0  0  0  0  0  0  0  0  0  0  0  0
    7.7289  -11.8251   25.8096 C   0  0  0  0  0  0  0  0  0  0  0  0
    9.6550  -15.8999   24.9655 N   0  0  0  0  0  0  0  0  0  0  0  0
    9.8524  -17.0546   25.8524 C   0  0  1  0  0  0  0  0  0  0  0  0
   10.9070  -17.9021   25.2256 C   0  0  0  0  0  0  0  0  0  0  0  0
   11.2956  -19.1061   25.9526 C   0  0  0  0  0  0  0  0  0  0  0  0
   10.7525  -19.4815   26.9900 O   0  0  0  0  0  0  0  0  0  0  0  0
   10.2157  -16.5643   27.2094 C   0  0  0  0  0  0  0  0  0  0  0  0
   10.7938  -15.4352   27.3632 O   0  0  0  0  0  0  0  0  0  0  0  0
   12.3490  -19.9054   25.4642 O   0  0  0  0  0  0  0  0  0  0  0  0
    9.9653  -17.2626   28.3613 O   0  0  0  0  0  0  0  0  0  0  0  0
  2  1  1  6
  2  3  1  0
  4  3  1  0
  4  8  1  0
  5  4  2  0
  6  2  1  0
  6  7  2  0
  9 10  1  0
 10 20  2  0
 10 11  1  0
 11 12  2  0
 12 13  1  0
 13 14  1  0
 15 14  1  1
 15 16  1  0
 16  6  1  0
 17 15  1  0
 18 17  2  0
 19 13  2  0
 20 19  1  0
 21 17  1  0
 22 21  1  0
 22 23  1  6
 23 24  1  0
 24 28  1  0
 24 25  2  0
 26 22  1  0
 27 26  2  0
 29 26  1  0
M  END
$$$$
