DYD.pdb
     RDKit          3D

 29 29  0  0  1  0  0  0  0  0999 V2000
    9.5915  -18.3558   20.1649 N   0  0  0  0  0  0  0  0  0  0  0  0
   10.8651  -17.7068   20.2848 C   0  0  1  0  0  0  0  0  0  0  0  0
   11.2020  -16.9958   18.9768 C   0  0  0  0  0  0  0  0  0  0  0  0
   11.3834  -17.9870   17.8889 C   0  0  0  0  0  0  0  0  0  0  0  0
   11.7071  -17.6070   16.7480 O   0  0  0  0  0  0  0  0  0  0  0  0
   10.8463  -16.6646   21.3473 C   0  0  0  0  0  0  0  0  0  0  0  0
   11.8838  -15.9802   21.5405 O   0  0  0  0  0  0  0  0  0  0  0  0
   11.1824  -19.3259   18.1870 O   0  0  0  0  0  0  0  0  0  0  0  0
    6.7338  -13.2450   17.8645 O   0  0  0  0  0  0  0  0  0  0  0  0
    7.1083  -13.6196   19.1513 C   0  0  0  0  0  0  0  0  0  0  0  0
    7.9228  -12.8143   19.9195 C   0  0  0  0  0  0  0  0  0  0  0  0
    8.2608  -13.2427   21.1937 C   0  0  0  0  0  0  0  0  0  0  0  0
    7.7998  -14.4371   21.6837 C   0  0  0  0  0  0  0  0  0  0  0  0
    8.1767  -14.8653   23.0284 C   0  0  0  0  0  0  0  0  0  0  0  0
    9.5925  -15.4088   23.1204 C   0  0  2  0  0  0  0  0  0  0  0  0
    9.6675  -16.4654   22.1152 N   0  0  0  0  0  0  0  0  0  0  0  0
    9.8327  -15.9882   24.4500 C   0  0  0  0  0  0  0  0  0  0  0  0
    9.6949  -15.2657   25.4897 O   0  0  0  0  0  0  0  0  0  0  0  0
    6.9842  -15.2420   20.9128 C   0  0  0  0  0  0  0  0  0  0  0  0
    6.6486  -14.8235   19.6564 C   0  0  0  0  0  0  0  0  0  0  0  0
   10.2186  -17.3371   24.6632 N   0  0  0  0  0  0  0  0  0  0  0  0
   10.5011  -17.8147   26.0238 C   0  0  1  0  0  0  0  0  0  0  0  0
    9.8418  -19.1455   26.1571 C   0  0  0  0  0  0  0  0  0  0  0  0
   10.0946  -19.8791   27.3928 C   0  0  0  0  0  0  0  0  0  0  0  0
    9.7665  -21.0509   27.5696 O   0  0  0  0  0  0  0  0  0  0  0  0
   11.9749  -17.8613   26.2225 C   0  0  0  0  0  0  0  0  0  0  0  0
   12.7563  -18.1496   25.2535 O   0  0  0  0  0  0  0  0  0  0  0  0
   10.7498  -19.2365   28.4630 O   0  0  0  0  0  0  0  0  0  0  0  0
   12.5879  -17.6058   27.4209 O   0  0  0  0  0  0  0  0  0  0  0  0
  2  1  1  6
  2  3  1  0
  4  3  1  0
  4  8  1  0
  5  4  2  0
  6  2  1  0
  6  7  2  0
  9 10  1  0
 10 20  2  0
 10 11  1  0
 11 12  2  0
 12 13  1  0
 13 14  1  0
 15 14  1  1
 15 16  1  0
 16  6  1  0
 17 15  1  0
 18 17  2  0
 19 13  2  0
 20 19  1  0
 21 17  1  0
 22 21  1  0
 22 23  1  6
 23 24  1  0
 24 28  1  0
 24 25  2  0
 26 22  1  0
 27 26  2  0
 29 26  1  0
M  END
$$$$
