DYD.pdb
     RDKit          3D

 29 29  0  0  1  0  0  0  0  0999 V2000
    9.8523  -18.4652   19.1079 N   0  0  0  0  0  0  0  0  0  0  0  0
   11.1001  -17.7822   19.2930 C   0  0  1  0  0  0  0  0  0  0  0  0
   11.3624  -16.8644   18.1019 C   0  0  0  0  0  0  0  0  0  0  0  0
   11.6628  -17.6695   16.8934 C   0  0  0  0  0  0  0  0  0  0  0  0
   12.4231  -18.6526   16.9734 O   0  0  0  0  0  0  0  0  0  0  0  0
   11.0717  -16.9166   20.5037 C   0  0  0  0  0  0  0  0  0  0  0  0
   12.0658  -16.1854   20.7468 O   0  0  0  0  0  0  0  0  0  0  0  0
   11.0753  -17.2915   15.6960 O   0  0  0  0  0  0  0  0  0  0  0  0
    7.3294  -12.1504   18.3773 O   0  0  0  0  0  0  0  0  0  0  0  0
    7.6042  -13.0193   19.4290 C   0  0  0  0  0  0  0  0  0  0  0  0
    6.9871  -14.2494   19.5170 C   0  0  0  0  0  0  0  0  0  0  0  0
    7.3028  -15.0701   20.5886 C   0  0  0  0  0  0  0  0  0  0  0  0
    8.2057  -14.6738   21.5408 C   0  0  0  0  0  0  0  0  0  0  0  0
    8.5149  -15.5576   22.6620 C   0  0  0  0  0  0  0  0  0  0  0  0
    9.9061  -16.1644   22.5938 C   0  0  2  0  0  0  0  0  0  0  0  0
    9.9325  -16.9335   21.3527 N   0  0  0  0  0  0  0  0  0  0  0  0
   10.1248  -17.0716   23.7298 C   0  0  0  0  0  0  0  0  0  0  0  0
    9.3303  -18.0481   23.9222 O   0  0  0  0  0  0  0  0  0  0  0  0
    8.8226  -13.4415   21.4507 C   0  0  0  0  0  0  0  0  0  0  0  0
    8.5143  -12.6296   20.3962 C   0  0  0  0  0  0  0  0  0  0  0  0
   11.1917  -16.9319   24.6550 N   0  0  0  0  0  0  0  0  0  0  0  0
   11.4014  -17.9492   25.6944 C   0  0  1  0  0  0  0  0  0  0  0  0
   12.8706  -18.1932   25.7660 C   0  0  0  0  0  0  0  0  0  0  0  0
   13.6300  -17.9739   24.5394 C   0  0  0  0  0  0  0  0  0  0  0  0
   13.3634  -18.5126   23.4667 O   0  0  0  0  0  0  0  0  0  0  0  0
   10.8194  -17.4596   26.9732 C   0  0  0  0  0  0  0  0  0  0  0  0
   10.8908  -18.1651   28.0362 O   0  0  0  0  0  0  0  0  0  0  0  0
   14.7369  -17.1010   24.5519 O   0  0  0  0  0  0  0  0  0  0  0  0
   10.1836  -16.2531   27.1054 O   0  0  0  0  0  0  0  0  0  0  0  0
  2  1  1  6
  2  3  1  0
  4  3  1  0
  4  8  1  0
  5  4  2  0
  6  2  1  0
  6  7  2  0
  9 10  1  0
 10 20  2  0
 10 11  1  0
 11 12  2  0
 12 13  1  0
 13 14  1  0
 15 14  1  1
 15 16  1  0
 16  6  1  0
 17 15  1  0
 18 17  2  0
 19 13  2  0
 20 19  1  0
 21 17  1  0
 22 21  1  0
 22 23  1  1
 23 24  1  0
 24 28  1  0
 24 25  2  0
 26 22  1  0
 27 26  2  0
 29 26  1  0
M  END
$$$$
