DYD.pdb
     RDKit          3D

 29 29  0  0  1  0  0  0  0  0999 V2000
    8.6640  -17.9459   19.9536 N   0  0  0  0  0  0  0  0  0  0  0  0
    9.8740  -17.1768   19.9052 C   0  0  1  0  0  0  0  0  0  0  0  0
    9.9882  -16.4879   18.5479 C   0  0  0  0  0  0  0  0  0  0  0  0
    9.9688  -17.4959   17.4605 C   0  0  0  0  0  0  0  0  0  0  0  0
    9.9134  -18.7089   17.7369 O   0  0  0  0  0  0  0  0  0  0  0  0
    9.8759  -16.1011   20.9340 C   0  0  0  0  0  0  0  0  0  0  0  0
   10.8478  -15.3036   20.9721 O   0  0  0  0  0  0  0  0  0  0  0  0
   10.0137  -17.0428   16.1510 O   0  0  0  0  0  0  0  0  0  0  0  0
    6.5344  -11.5361   27.7538 O   0  0  0  0  0  0  0  0  0  0  0  0
    6.7492  -12.3052   26.6141 C   0  0  0  0  0  0  0  0  0  0  0  0
    7.3723  -11.7753   25.5038 C   0  0  0  0  0  0  0  0  0  0  0  0
    7.5574  -12.5920   24.3992 C   0  0  0  0  0  0  0  0  0  0  0  0
    7.1333  -13.8955   24.4045 C   0  0  0  0  0  0  0  0  0  0  0  0
    7.3373  -14.7312   23.2239 C   0  0  0  0  0  0  0  0  0  0  0  0
    8.7995  -15.0102   22.9200 C   0  0  2  0  0  0  0  0  0  0  0  0
    8.7897  -15.9976   21.8442 N   0  0  0  0  0  0  0  0  0  0  0  0
    9.4663  -15.5845   24.0976 C   0  0  0  0  0  0  0  0  0  0  0  0
    9.6499  -14.8673   25.1338 O   0  0  0  0  0  0  0  0  0  0  0  0
    6.5096  -14.4242   25.5175 C   0  0  0  0  0  0  0  0  0  0  0  0
    6.3253  -13.6227   26.6083 C   0  0  0  0  0  0  0  0  0  0  0  0
    9.9337  -16.9229   24.1633 N   0  0  0  0  0  0  0  0  0  0  0  0
   10.6371  -17.3979   25.3627 C   0  0  1  0  0  0  0  0  0  0  0  0
   10.2126  -18.8110   25.5779 C   0  0  0  0  0  0  0  0  0  0  0  0
   10.8196  -19.5112   26.7049 C   0  0  0  0  0  0  0  0  0  0  0  0
   11.0143  -20.7252   26.7289 O   0  0  0  0  0  0  0  0  0  0  0  0
   12.1025  -17.2448   25.1551 C   0  0  0  0  0  0  0  0  0  0  0  0
   12.9303  -17.5741   26.0711 O   0  0  0  0  0  0  0  0  0  0  0  0
   11.2163  -18.7836   27.8454 O   0  0  0  0  0  0  0  0  0  0  0  0
   12.6591  -16.7558   24.0026 O   0  0  0  0  0  0  0  0  0  0  0  0
  2  1  1  6
  2  3  1  0
  4  3  1  0
  4  8  1  0
  5  4  2  0
  6  2  1  0
  6  7  2  0
  9 10  1  0
 10 20  2  0
 10 11  1  0
 11 12  2  0
 12 13  1  0
 13 14  1  0
 15 14  1  1
 15 16  1  0
 16  6  1  0
 17 15  1  0
 18 17  2  0
 19 13  2  0
 20 19  1  0
 21 17  1  0
 22 21  1  0
 22 23  1  6
 23 24  1  0
 24 28  1  0
 24 25  2  0
 26 22  1  0
 27 26  2  0
 29 26  1  0
M  END
$$$$
