DYD.pdb
     RDKit          3D

 29 29  0  0  1  0  0  0  0  0999 V2000
    8.5208  -14.6486   19.9820 N   0  0  0  0  0  0  0  0  0  0  0  0
    8.8489  -15.9265   20.5452 C   0  0  1  0  0  0  0  0  0  0  0  0
    9.9968  -16.5528   19.7579 C   0  0  0  0  0  0  0  0  0  0  0  0
    9.5760  -16.8102   18.3594 C   0  0  0  0  0  0  0  0  0  0  0  0
   10.3859  -16.6528   17.4266 O   0  0  0  0  0  0  0  0  0  0  0  0
    9.3147  -15.7967   21.9530 C   0  0  0  0  0  0  0  0  0  0  0  0
   10.4667  -15.3400   22.1684 O   0  0  0  0  0  0  0  0  0  0  0  0
    8.2719  -17.2245   18.1371 O   0  0  0  0  0  0  0  0  0  0  0  0
    6.4899  -10.3877   26.5627 O   0  0  0  0  0  0  0  0  0  0  0  0
    6.7661  -11.7067   26.2158 C   0  0  0  0  0  0  0  0  0  0  0  0
    8.0215  -12.2453   26.4043 C   0  0  0  0  0  0  0  0  0  0  0  0
    8.2342  -13.5654   26.0387 C   0  0  0  0  0  0  0  0  0  0  0  0
    7.2248  -14.3219   25.5021 C   0  0  0  0  0  0  0  0  0  0  0  0
    7.4796  -15.7089   25.1213 C   0  0  0  0  0  0  0  0  0  0  0  0
    8.8050  -15.9110   24.4066 C   0  0  2  0  0  0  0  0  0  0  0  0
    8.4565  -16.1879   23.0158 N   0  0  0  0  0  0  0  0  0  0  0  0
    9.5169  -17.0690   24.9666 C   0  0  0  0  0  0  0  0  0  0  0  0
    9.0393  -18.2398   24.8148 O   0  0  0  0  0  0  0  0  0  0  0  0
    5.9683  -13.7806   25.3143 C   0  0  0  0  0  0  0  0  0  0  0  0
    5.7544  -12.4800   25.6733 C   0  0  0  0  0  0  0  0  0  0  0  0
   10.7362  -16.9711   25.6861 N   0  0  0  0  0  0  0  0  0  0  0  0
   11.3825  -18.1841   26.2057 C   0  0  1  0  0  0  0  0  0  0  0  0
   12.8537  -17.9562   26.1217 C   0  0  0  0  0  0  0  0  0  0  0  0
   13.7102  -19.0220   26.6310 C   0  0  0  0  0  0  0  0  0  0  0  0
   13.2953  -20.1315   26.9610 O   0  0  0  0  0  0  0  0  0  0  0  0
   10.8999  -18.4324   27.5911 C   0  0  0  0  0  0  0  0  0  0  0  0
   11.2976  -19.4533   28.2486 O   0  0  0  0  0  0  0  0  0  0  0  0
   15.0958  -18.7988   26.7640 O   0  0  0  0  0  0  0  0  0  0  0  0
   10.0212  -17.6114   28.2476 O   0  0  0  0  0  0  0  0  0  0  0  0
  2  1  1  6
  2  3  1  0
  4  3  1  0
  4  8  1  0
  5  4  2  0
  6  2  1  0
  6  7  2  0
  9 10  1  0
 10 20  2  0
 10 11  1  0
 11 12  2  0
 12 13  1  0
 13 14  1  0
 15 14  1  1
 15 16  1  0
 16  6  1  0
 17 15  1  0
 18 17  2  0
 19 13  2  0
 20 19  1  0
 21 17  1  0
 22 21  1  0
 22 23  1  1
 23 24  1  0
 24 28  1  0
 24 25  2  0
 26 22  1  0
 27 26  2  0
 29 26  1  0
M  END
$$$$
