DYD.pdb
     RDKit          3D

 29 29  0  0  1  0  0  0  0  0999 V2000
    9.5664  -16.2862   17.9169 N   0  0  0  0  0  0  0  0  0  0  0  0
    9.0406  -17.0202   19.0316 C   0  0  1  0  0  0  0  0  0  0  0  0
    9.7420  -18.3723   19.1303 C   0  0  0  0  0  0  0  0  0  0  0  0
    9.1636  -19.1678   20.2401 C   0  0  0  0  0  0  0  0  0  0  0  0
    9.9139  -19.7420   21.0514 O   0  0  0  0  0  0  0  0  0  0  0  0
    9.2918  -16.3116   20.3163 C   0  0  0  0  0  0  0  0  0  0  0  0
   10.4728  -15.9930   20.6094 O   0  0  0  0  0  0  0  0  0  0  0  0
    7.7828  -19.2447   20.3360 O   0  0  0  0  0  0  0  0  0  0  0  0
    6.9438  -12.1142   27.7453 O   0  0  0  0  0  0  0  0  0  0  0  0
    6.9500  -12.7950   26.5317 C   0  0  0  0  0  0  0  0  0  0  0  0
    6.4717  -14.0849   26.4356 C   0  0  0  0  0  0  0  0  0  0  0  0
    6.5047  -14.7098   25.1987 C   0  0  0  0  0  0  0  0  0  0  0  0
    6.9998  -14.0662   24.0943 C   0  0  0  0  0  0  0  0  0  0  0  0
    7.0268  -14.7516   22.8047 C   0  0  0  0  0  0  0  0  0  0  0  0
    8.4039  -15.2610   22.4141 C   0  0  2  0  0  0  0  0  0  0  0  0
    8.2025  -16.0121   21.1780 N   0  0  0  0  0  0  0  0  0  0  0  0
    8.9278  -16.1642   23.4490 C   0  0  0  0  0  0  0  0  0  0  0  0
    8.4416  -17.3347   23.5728 O   0  0  0  0  0  0  0  0  0  0  0  0
    7.4781  -12.7744   24.1927 C   0  0  0  0  0  0  0  0  0  0  0  0
    7.4474  -12.1549   25.4099 C   0  0  0  0  0  0  0  0  0  0  0  0
    9.9692  -15.8130   24.3468 N   0  0  0  0  0  0  0  0  0  0  0  0
   10.4408  -16.7856   25.3422 C   0  0  1  0  0  0  0  0  0  0  0  0
   11.9306  -16.7289   25.3254 C   0  0  0  0  0  0  0  0  0  0  0  0
   12.5880  -17.1802   24.1034 C   0  0  0  0  0  0  0  0  0  0  0  0
   12.3278  -18.2425   23.5413 O   0  0  0  0  0  0  0  0  0  0  0  0
    9.8501  -16.4471   26.6652 C   0  0  0  0  0  0  0  0  0  0  0  0
    9.2229  -15.3474   26.8388 O   0  0  0  0  0  0  0  0  0  0  0  0
   13.5816  -16.3760   23.5089 O   0  0  0  0  0  0  0  0  0  0  0  0
    9.9297  -17.2626   27.7633 O   0  0  0  0  0  0  0  0  0  0  0  0
  2  1  1  6
  2  3  1  0
  4  3  1  0
  4  8  1  0
  5  4  2  0
  6  2  1  0
  6  7  2  0
  9 10  1  0
 10 20  2  0
 10 11  1  0
 11 12  2  0
 12 13  1  0
 13 14  1  0
 15 14  1  1
 15 16  1  0
 16  6  1  0
 17 15  1  0
 18 17  2  0
 19 13  2  0
 20 19  1  0
 21 17  1  0
 22 21  1  0
 22 23  1  1
 23 24  1  0
 24 28  1  0
 24 25  2  0
 26 22  1  0
 27 26  2  0
 29 26  1  0
M  END
$$$$
