DYD.pdb
     RDKit          3D

 29 29  0  0  1  0  0  0  0  0999 V2000
   10.5267  -17.0971   18.7460 N   0  0  0  0  0  0  0  0  0  0  0  0
    9.6001  -17.5002   19.7642 C   0  0  1  0  0  0  0  0  0  0  0  0
    9.8894  -18.9408   20.1776 C   0  0  0  0  0  0  0  0  0  0  0  0
    9.6357  -19.8588   19.0410 C   0  0  0  0  0  0  0  0  0  0  0  0
   10.5916  -20.3785   18.4351 O   0  0  0  0  0  0  0  0  0  0  0  0
    9.7411  -16.6658   20.9888 C   0  0  0  0  0  0  0  0  0  0  0  0
   10.8965  -16.3737   21.3909 O   0  0  0  0  0  0  0  0  0  0  0  0
    8.3189  -20.1100   18.6876 O   0  0  0  0  0  0  0  0  0  0  0  0
    6.8645  -11.4461   27.5311 O   0  0  0  0  0  0  0  0  0  0  0  0
    6.9910  -12.2503   26.4026 C   0  0  0  0  0  0  0  0  0  0  0  0
    7.6914  -11.8196   25.2954 C   0  0  0  0  0  0  0  0  0  0  0  0
    7.7818  -12.6668   24.2020 C   0  0  0  0  0  0  0  0  0  0  0  0
    7.1911  -13.9037   24.2151 C   0  0  0  0  0  0  0  0  0  0  0  0
    7.2986  -14.7731   23.0461 C   0  0  0  0  0  0  0  0  0  0  0  0
    8.6795  -15.3796   22.8627 C   0  0  2  0  0  0  0  0  0  0  0  0
    8.5782  -16.2200   21.6728 N   0  0  0  0  0  0  0  0  0  0  0  0
    9.0277  -16.2181   24.0189 C   0  0  0  0  0  0  0  0  0  0  0  0
    8.3850  -17.2960   24.2356 O   0  0  0  0  0  0  0  0  0  0  0  0
    6.4902  -14.3330   25.3249 C   0  0  0  0  0  0  0  0  0  0  0  0
    6.3987  -13.5012   26.4046 C   0  0  0  0  0  0  0  0  0  0  0  0
   10.0614  -15.9017   24.9383 N   0  0  0  0  0  0  0  0  0  0  0  0
   10.4073  -16.8465   26.0092 C   0  0  1  0  0  0  0  0  0  0  0  0
   11.8958  -16.9257   26.0474 C   0  0  0  0  0  0  0  0  0  0  0  0
   12.5311  -17.7730   25.0436 C   0  0  0  0  0  0  0  0  0  0  0  0
   11.9073  -18.4790   24.2533 O   0  0  0  0  0  0  0  0  0  0  0  0
    9.8067  -16.3711   27.2847 C   0  0  0  0  0  0  0  0  0  0  0  0
    9.3789  -15.1725   27.3990 O   0  0  0  0  0  0  0  0  0  0  0  0
   13.9372  -17.8064   24.9488 O   0  0  0  0  0  0  0  0  0  0  0  0
    9.6693  -17.1570   28.3986 O   0  0  0  0  0  0  0  0  0  0  0  0
  2  1  1  6
  2  3  1  0
  4  3  1  0
  4  8  1  0
  5  4  2  0
  6  2  1  0
  6  7  2  0
  9 10  1  0
 10 20  2  0
 10 11  1  0
 11 12  2  0
 12 13  1  0
 13 14  1  0
 15 14  1  1
 15 16  1  0
 16  6  1  0
 17 15  1  0
 18 17  2  0
 19 13  2  0
 20 19  1  0
 21 17  1  0
 22 21  1  0
 22 23  1  1
 23 24  1  0
 24 28  1  0
 24 25  2  0
 26 22  1  0
 27 26  2  0
 29 26  1  0
M  END
$$$$
