DYD.pdb
     RDKit          3D

 29 29  0  0  1  0  0  0  0  0999 V2000
    9.1420  -18.0605   19.6394 N   0  0  0  0  0  0  0  0  0  0  0  0
   10.4770  -17.9799   20.1581 C   0  0  1  0  0  0  0  0  0  0  0  0
   11.4025  -17.3881   19.0984 C   0  0  0  0  0  0  0  0  0  0  0  0
   11.4014  -18.2413   17.8855 C   0  0  0  0  0  0  0  0  0  0  0  0
   10.7455  -17.8987   16.8839 O   0  0  0  0  0  0  0  0  0  0  0  0
   10.5473  -17.0788   21.3408 C   0  0  0  0  0  0  0  0  0  0  0  0
   11.6088  -16.4370   21.5489 O   0  0  0  0  0  0  0  0  0  0  0  0
   12.1447  -19.4113   17.9113 O   0  0  0  0  0  0  0  0  0  0  0  0
    6.9570  -12.3568   18.9237 O   0  0  0  0  0  0  0  0  0  0  0  0
    7.2666  -13.0982   20.0600 C   0  0  0  0  0  0  0  0  0  0  0  0
    8.2145  -12.6598   20.9606 C   0  0  0  0  0  0  0  0  0  0  0  0
    8.4784  -13.4431   22.0734 C   0  0  0  0  0  0  0  0  0  0  0  0
    7.8165  -14.6257   22.2788 C   0  0  0  0  0  0  0  0  0  0  0  0
    8.1192  -15.4330   23.4580 C   0  0  0  0  0  0  0  0  0  0  0  0
    9.4728  -16.1201   23.3949 C   0  0  2  0  0  0  0  0  0  0  0  0
    9.4240  -16.9627   22.2032 N   0  0  0  0  0  0  0  0  0  0  0  0
    9.6716  -16.9683   24.5791 C   0  0  0  0  0  0  0  0  0  0  0  0
    8.7570  -17.7784   24.9385 O   0  0  0  0  0  0  0  0  0  0  0  0
    6.8675  -15.0628   21.3757 C   0  0  0  0  0  0  0  0  0  0  0  0
    6.6043  -14.2939   20.2776 C   0  0  0  0  0  0  0  0  0  0  0  0
   10.8470  -16.9476   25.3742 N   0  0  0  0  0  0  0  0  0  0  0  0
   10.9887  -17.8797   26.5012 C   0  0  1  0  0  0  0  0  0  0  0  0
   12.4511  -18.0864   26.7061 C   0  0  0  0  0  0  0  0  0  0  0  0
   13.2352  -18.4249   25.5231 C   0  0  0  0  0  0  0  0  0  0  0  0
   14.2623  -17.8344   25.1937 O   0  0  0  0  0  0  0  0  0  0  0  0
   10.2991  -17.3084   27.6895 C   0  0  0  0  0  0  0  0  0  0  0  0
    9.8232  -16.1228   27.6617 O   0  0  0  0  0  0  0  0  0  0  0  0
   12.8186  -19.4834   24.6904 O   0  0  0  0  0  0  0  0  0  0  0  0
   10.1259  -17.9880   28.8665 O   0  0  0  0  0  0  0  0  0  0  0  0
  2  1  1  6
  2  3  1  0
  4  3  1  0
  4  8  1  0
  5  4  2  0
  6  2  1  0
  6  7  2  0
  9 10  1  0
 10 20  2  0
 10 11  1  0
 11 12  2  0
 12 13  1  0
 13 14  1  0
 15 14  1  1
 15 16  1  0
 16  6  1  0
 17 15  1  0
 18 17  2  0
 19 13  2  0
 20 19  1  0
 21 17  1  0
 22 21  1  0
 22 23  1  1
 23 24  1  0
 24 28  1  0
 24 25  2  0
 26 22  1  0
 27 26  2  0
 29 26  1  0
M  END
$$$$
