DYD.pdb
     RDKit          3D

 29 29  0  0  1  0  0  0  0  0999 V2000
    8.9232  -18.4766   18.9384 N   0  0  0  0  0  0  0  0  0  0  0  0
   10.3023  -18.1030   19.0657 C   0  0  1  0  0  0  0  0  0  0  0  0
   10.6944  -17.1916   17.9057 C   0  0  0  0  0  0  0  0  0  0  0  0
   10.6991  -17.9559   16.6350 C   0  0  0  0  0  0  0  0  0  0  0  0
   10.8102  -19.1961   16.6548 O   0  0  0  0  0  0  0  0  0  0  0  0
   10.5438  -17.3333   20.3167 C   0  0  0  0  0  0  0  0  0  0  0  0
   11.6924  -16.8655   20.5258 O   0  0  0  0  0  0  0  0  0  0  0  0
   10.5773  -17.2488   15.4488 O   0  0  0  0  0  0  0  0  0  0  0  0
    7.3418  -12.1056   18.3687 O   0  0  0  0  0  0  0  0  0  0  0  0
    7.5829  -12.9843   19.4204 C   0  0  0  0  0  0  0  0  0  0  0  0
    6.8083  -14.1112   19.5995 C   0  0  0  0  0  0  0  0  0  0  0  0
    7.0983  -14.9477   20.6660 C   0  0  0  0  0  0  0  0  0  0  0  0
    8.1288  -14.6668   21.5252 C   0  0  0  0  0  0  0  0  0  0  0  0
    8.4079  -15.5640   22.6437 C   0  0  0  0  0  0  0  0  0  0  0  0
    9.6784  -16.3786   22.4690 C   0  0  2  0  0  0  0  0  0  0  0  0
    9.4815  -17.1443   21.2413 N   0  0  0  0  0  0  0  0  0  0  0  0
    9.8499  -17.3070   23.5959 C   0  0  0  0  0  0  0  0  0  0  0  0
    8.8608  -17.9985   24.0026 O   0  0  0  0  0  0  0  0  0  0  0  0
    8.9033  -13.5379   21.3440 C   0  0  0  0  0  0  0  0  0  0  0  0
    8.6209  -12.7107   20.2941 C   0  0  0  0  0  0  0  0  0  0  0  0
   11.0774  -17.4929   24.2833 N   0  0  0  0  0  0  0  0  0  0  0  0
   11.1651  -18.4648   25.3818 C   0  0  1  0  0  0  0  0  0  0  0  0
   12.2678  -19.4065   25.0347 C   0  0  0  0  0  0  0  0  0  0  0  0
   12.6684  -20.3536   26.0699 C   0  0  0  0  0  0  0  0  0  0  0  0
   11.9083  -21.1825   26.5671 O   0  0  0  0  0  0  0  0  0  0  0  0
   11.3909  -17.7326   26.6572 C   0  0  0  0  0  0  0  0  0  0  0  0
   11.7989  -16.5216   26.6521 O   0  0  0  0  0  0  0  0  0  0  0  0
   13.9945  -20.3432   26.5483 O   0  0  0  0  0  0  0  0  0  0  0  0
   11.1845  -18.2822   27.8951 O   0  0  0  0  0  0  0  0  0  0  0  0
  2  1  1  6
  2  3  1  0
  4  3  1  0
  4  8  1  0
  5  4  2  0
  6  2  1  0
  6  7  2  0
  9 10  1  0
 10 20  2  0
 10 11  1  0
 11 12  2  0
 12 13  1  0
 13 14  1  0
 15 14  1  1
 15 16  1  0
 16  6  1  0
 17 15  1  0
 18 17  2  0
 19 13  2  0
 20 19  1  0
 21 17  1  0
 22 21  1  0
 22 23  1  6
 23 24  1  0
 24 28  1  0
 24 25  2  0
 26 22  1  0
 27 26  2  0
 29 26  1  0
M  END
$$$$
