DYD.pdb
     RDKit          3D

 29 29  0  0  1  0  0  0  0  0999 V2000
    7.1895  -17.2021   21.0571 N   0  0  0  0  0  0  0  0  0  0  0  0
    8.1437  -16.1909   20.7040 C   0  0  1  0  0  0  0  0  0  0  0  0
    7.4373  -15.0561   19.9671 C   0  0  0  0  0  0  0  0  0  0  0  0
    8.1179  -14.7825   18.6784 C   0  0  0  0  0  0  0  0  0  0  0  0
    7.8994  -13.7164   18.0729 O   0  0  0  0  0  0  0  0  0  0  0  0
    8.7731  -15.5916   21.9125 C   0  0  0  0  0  0  0  0  0  0  0  0
    9.7444  -14.8068   21.7614 O   0  0  0  0  0  0  0  0  0  0  0  0
    8.9892  -15.7415   18.1851 O   0  0  0  0  0  0  0  0  0  0  0  0
    5.8500  -10.3045   26.9941 O   0  0  0  0  0  0  0  0  0  0  0  0
    6.3415  -11.5460   26.6021 C   0  0  0  0  0  0  0  0  0  0  0  0
    7.6511  -11.6987   26.1979 C   0  0  0  0  0  0  0  0  0  0  0  0
    8.0812  -12.9609   25.8192 C   0  0  0  0  0  0  0  0  0  0  0  0
    7.2298  -14.0349   25.8438 C   0  0  0  0  0  0  0  0  0  0  0  0
    7.7095  -15.3524   25.4341 C   0  0  0  0  0  0  0  0  0  0  0  0
    8.8248  -15.3016   24.4037 C   0  0  2  0  0  0  0  0  0  0  0  0
    8.2687  -15.9151   23.2008 N   0  0  0  0  0  0  0  0  0  0  0  0
    9.9788  -16.0900   24.8595 C   0  0  0  0  0  0  0  0  0  0  0  0
   10.5759  -15.7725   25.9387 O   0  0  0  0  0  0  0  0  0  0  0  0
    5.9187  -13.8798   26.2490 C   0  0  0  0  0  0  0  0  0  0  0  0
    5.4908  -12.6375   26.6231 C   0  0  0  0  0  0  0  0  0  0  0  0
   10.4899  -17.2144   24.1606 N   0  0  0  0  0  0  0  0  0  0  0  0
   11.6330  -17.9606   24.7042 C   0  0  1  0  0  0  0  0  0  0  0  0
   11.2914  -19.4080   24.5961 C   0  0  0  0  0  0  0  0  0  0  0  0
   11.1154  -20.1333   25.8499 C   0  0  0  0  0  0  0  0  0  0  0  0
   11.9283  -20.1084   26.7721 O   0  0  0  0  0  0  0  0  0  0  0  0
   12.8584  -17.5833   23.9495 C   0  0  0  0  0  0  0  0  0  0  0  0
   12.7968  -16.7651   22.9699 O   0  0  0  0  0  0  0  0  0  0  0  0
    9.9590  -20.9155   26.0459 O   0  0  0  0  0  0  0  0  0  0  0  0
   14.1072  -18.0677   24.2380 O   0  0  0  0  0  0  0  0  0  0  0  0
  2  1  1  1
  2  3  1  0
  4  3  1  0
  4  8  1  0
  5  4  2  0
  6  2  1  0
  6  7  2  0
  9 10  1  0
 10 20  2  0
 10 11  1  0
 11 12  2  0
 12 13  1  0
 13 14  1  0
 15 14  1  1
 15 16  1  0
 16  6  1  0
 17 15  1  0
 18 17  2  0
 19 13  2  0
 20 19  1  0
 21 17  1  0
 22 21  1  0
 22 23  1  6
 23 24  1  0
 24 28  1  0
 24 25  2  0
 26 22  1  0
 27 26  2  0
 29 26  1  0
M  END
$$$$
