DYD.pdb
     RDKit          3D

 29 29  0  0  1  0  0  0  0  0999 V2000
    8.3978  -17.7077   19.4533 N   0  0  0  0  0  0  0  0  0  0  0  0
    9.3485  -16.6559   19.2349 C   0  0  1  0  0  0  0  0  0  0  0  0
    8.9416  -15.8455   18.0071 C   0  0  0  0  0  0  0  0  0  0  0  0
    8.7778  -16.7404   16.8360 C   0  0  0  0  0  0  0  0  0  0  0  0
    8.9728  -17.9645   16.9558 O   0  0  0  0  0  0  0  0  0  0  0  0
    9.3839  -15.7082   20.3822 C   0  0  0  0  0  0  0  0  0  0  0  0
   10.2319  -14.7793   20.3723 O   0  0  0  0  0  0  0  0  0  0  0  0
    8.4065  -16.1710   15.6277 O   0  0  0  0  0  0  0  0  0  0  0  0
    6.4886  -11.8467   27.7748 O   0  0  0  0  0  0  0  0  0  0  0  0
    6.6464  -12.5708   26.5970 C   0  0  0  0  0  0  0  0  0  0  0  0
    7.0681  -11.9590   25.4352 C   0  0  0  0  0  0  0  0  0  0  0  0
    7.2060  -12.7343   24.2945 C   0  0  0  0  0  0  0  0  0  0  0  0
    6.9312  -14.0771   24.3147 C   0  0  0  0  0  0  0  0  0  0  0  0
    7.0806  -14.8682   23.0957 C   0  0  0  0  0  0  0  0  0  0  0  0
    8.5202  -15.0028   22.6293 C   0  0  2  0  0  0  0  0  0  0  0  0
    8.4674  -15.8703   21.4558 N   0  0  0  0  0  0  0  0  0  0  0  0
    9.3371  -15.6451   23.6692 C   0  0  0  0  0  0  0  0  0  0  0  0
    9.3972  -15.1326   24.8335 O   0  0  0  0  0  0  0  0  0  0  0  0
    6.5091  -14.6879   25.4792 C   0  0  0  0  0  0  0  0  0  0  0  0
    6.3719  -13.9274   26.6057 C   0  0  0  0  0  0  0  0  0  0  0  0
   10.0858  -16.8325   23.4609 N   0  0  0  0  0  0  0  0  0  0  0  0
   10.8436  -17.4279   24.5701 C   0  0  1  0  0  0  0  0  0  0  0  0
   10.9025  -18.8951   24.3110 C   0  0  0  0  0  0  0  0  0  0  0  0
    9.6252  -19.5824   24.1521 C   0  0  0  0  0  0  0  0  0  0  0  0
    8.6433  -19.3695   24.8610 O   0  0  0  0  0  0  0  0  0  0  0  0
   12.1834  -16.7845   24.6394 C   0  0  0  0  0  0  0  0  0  0  0  0
   12.5646  -15.9692   23.7323 O   0  0  0  0  0  0  0  0  0  0  0  0
    9.4763  -20.5504   23.1381 O   0  0  0  0  0  0  0  0  0  0  0  0
   13.0820  -17.0085   25.6491 O   0  0  0  0  0  0  0  0  0  0  0  0
  2  1  1  1
  2  3  1  0
  4  3  1  0
  4  8  1  0
  5  4  2  0
  6  2  1  0
  6  7  2  0
  9 10  1  0
 10 20  2  0
 10 11  1  0
 11 12  2  0
 12 13  1  0
 13 14  1  0
 15 14  1  1
 15 16  1  0
 16  6  1  0
 17 15  1  0
 18 17  2  0
 19 13  2  0
 20 19  1  0
 21 17  1  0
 22 21  1  0
 22 23  1  6
 23 24  1  0
 24 28  1  0
 24 25  2  0
 26 22  1  0
 27 26  2  0
 29 26  1  0
M  END
$$$$
