DYD.pdb
     RDKit          3D

 29 29  0  0  1  0  0  0  0  0999 V2000
    8.9809  -17.0989   19.2466 N   0  0  0  0  0  0  0  0  0  0  0  0
   10.1114  -17.3159   20.1026 C   0  0  1  0  0  0  0  0  0  0  0  0
   11.3983  -17.0362   19.3309 C   0  0  0  0  0  0  0  0  0  0  0  0
   11.5687  -18.0310   18.2445 C   0  0  0  0  0  0  0  0  0  0  0  0
   10.7114  -18.9178   18.0723 O   0  0  0  0  0  0  0  0  0  0  0  0
   10.0985  -16.3876   21.2661 C   0  0  0  0  0  0  0  0  0  0  0  0
   11.1616  -15.7902   21.5741 O   0  0  0  0  0  0  0  0  0  0  0  0
   12.6972  -17.9360   17.4449 O   0  0  0  0  0  0  0  0  0  0  0  0
    6.3447  -11.7112   27.7747 O   0  0  0  0  0  0  0  0  0  0  0  0
    6.6308  -12.4587   26.6363 C   0  0  0  0  0  0  0  0  0  0  0  0
    7.4055  -11.9408   25.6197 C   0  0  0  0  0  0  0  0  0  0  0  0
    7.6550  -12.7348   24.5112 C   0  0  0  0  0  0  0  0  0  0  0  0
    7.1466  -14.0047   24.4221 C   0  0  0  0  0  0  0  0  0  0  0  0
    7.4219  -14.8166   23.2394 C   0  0  0  0  0  0  0  0  0  0  0  0
    8.8549  -15.3153   23.1626 C   0  0  2  0  0  0  0  0  0  0  0  0
    8.8962  -16.1968   21.9991 N   0  0  0  0  0  0  0  0  0  0  0  0
    9.1930  -16.0878   24.3669 C   0  0  0  0  0  0  0  0  0  0  0  0
    8.5945  -17.1870   24.6027 O   0  0  0  0  0  0  0  0  0  0  0  0
    6.3711  -14.5214   25.4413 C   0  0  0  0  0  0  0  0  0  0  0  0
    6.1228  -13.7422   26.5356 C   0  0  0  0  0  0  0  0  0  0  0  0
   10.1694  -15.6830   25.3138 N   0  0  0  0  0  0  0  0  0  0  0  0
   10.5387  -16.5793   26.4180 C   0  0  1  0  0  0  0  0  0  0  0  0
   12.0276  -16.6608   26.4250 C   0  0  0  0  0  0  0  0  0  0  0  0
   12.6744  -16.9106   25.1412 C   0  0  0  0  0  0  0  0  0  0  0  0
   13.5274  -16.1721   24.6521 O   0  0  0  0  0  0  0  0  0  0  0  0
    9.9688  -16.0453   27.6844 C   0  0  0  0  0  0  0  0  0  0  0  0
   10.1263  -16.6714   28.7871 O   0  0  0  0  0  0  0  0  0  0  0  0
   12.3240  -18.0543   24.3952 O   0  0  0  0  0  0  0  0  0  0  0  0
    9.2554  -14.8782   27.7633 O   0  0  0  0  0  0  0  0  0  0  0  0
  2  1  1  6
  2  3  1  0
  4  3  1  0
  4  8  1  0
  5  4  2  0
  6  2  1  0
  6  7  2  0
  9 10  1  0
 10 20  2  0
 10 11  1  0
 11 12  2  0
 12 13  1  0
 13 14  1  0
 15 14  1  1
 15 16  1  0
 16  6  1  0
 17 15  1  0
 18 17  2  0
 19 13  2  0
 20 19  1  0
 21 17  1  0
 22 21  1  0
 22 23  1  1
 23 24  1  0
 24 28  1  0
 24 25  2  0
 26 22  1  0
 27 26  2  0
 29 26  1  0
M  END
$$$$
