FKT.pdb
     RDKit          3D

 28 28  0  0  1  0  0  0  0  0999 V2000
    6.6272  -16.4254   25.6756 N   0  0  0  0  0  0  0  0  0  0  0  0
    6.8186  -15.2780   24.7926 C   0  0  1  0  0  0  0  0  0  0  0  0
    7.9094  -14.4461   25.4782 C   0  0  0  0  0  0  0  0  0  0  0  0
    7.2786  -13.4239   26.3265 C   0  0  0  0  0  0  0  0  0  0  0  0
    6.1286  -12.7368   26.0282 C   0  0  0  0  0  0  0  0  0  0  0  0
    5.5639  -11.7919   26.8557 C   0  0  0  0  0  0  0  0  0  0  0  0
    6.1591  -11.4946   28.0571 C   0  0  0  0  0  0  0  0  0  0  0  0
    7.3285  -12.1699   28.3974 C   0  0  0  0  0  0  0  0  0  0  0  0
    7.8777  -13.1130   27.5547 C   0  0  0  0  0  0  0  0  0  0  0  0
    7.3113  -15.7507   23.4809 C   0  0  0  0  0  0  0  0  0  0  0  0
    7.6950  -16.9480   23.2918 O   0  0  0  0  0  0  0  0  0  0  0  0
    7.3875  -14.9029   22.3482 N   0  0  0  0  0  0  0  0  0  0  0  0
    8.0464  -15.2221   21.1293 C   0  0  1  0  0  0  0  0  0  0  0  0
    8.1535  -14.0727   20.1597 C   0  0  0  0  0  0  0  0  0  0  0  0
    8.7963  -14.5155   18.8510 C   0  0  0  0  0  0  0  0  0  0  0  0
    8.1124  -13.8010   17.7265 C   0  0  0  0  0  0  0  0  0  0  0  0
    8.5118  -14.3514   16.3734 C   0  0  0  0  0  0  0  0  0  0  0  0
    7.7039  -13.8088   15.3085 N   0  0  0  0  0  0  0  0  0  0  0  0
    9.4147  -15.6981   21.4014 C   0  0  0  0  0  0  0  0  0  0  0  0
   10.1079  -15.0071   22.2328 O   0  0  0  0  0  0  0  0  0  0  0  0
   11.1316  -18.5412   23.1791 C   0  0  0  0  0  0  0  0  0  0  0  0
   11.4463  -18.6424   21.7132 C   0  0  1  0  0  0  0  0  0  0  0  0
   10.6641  -19.5422   21.0321 O   0  0  0  0  0  0  0  0  0  0  0  0
   11.4107  -17.2400   21.1263 C   0  0  2  0  0  0  0  0  0  0  0  0
   10.0491  -16.8191   20.8608 N   0  0  0  0  0  0  0  0  0  0  0  0
   12.1949  -17.1210   19.8868 C   0  0  0  0  0  0  0  0  0  0  0  0
   11.6425  -16.9344   18.7599 O   0  0  0  0  0  0  0  0  0  0  0  0
   13.5654  -17.2101   19.9191 O   0  0  0  0  0  0  0  0  0  0  0  0
  2  1  1  1
  2 10  1  0
  2  3  1  0
  3  4  1  0
  4  5  2  0
  4  9  1  0
  5  6  1  0
  6  7  2  0
  7  8  1  0
  9  8  2  0
 10 11  2  0
 12 13  1  0
 12 10  1  0
 13 14  1  6
 15 14  1  0
 16 15  1  0
 17 18  1  0
 17 16  1  0
 19 13  1  0
 20 19  2  0
 22 23  1  0
 22 21  1  1
 24 22  1  0
 24 25  1  6
 25 19  1  0
 26 28  1  0
 26 24  1  0
 27 26  2  0
M  END
$$$$
