FKT.pdb
     RDKit          3D

 28 28  0  0  1  0  0  0  0  0999 V2000
    6.4384  -17.0669   25.5579 N   0  0  0  0  0  0  0  0  0  0  0  0
    6.6927  -15.7418   24.9990 C   0  0  1  0  0  0  0  0  0  0  0  0
    7.6993  -15.1062   25.9656 C   0  0  0  0  0  0  0  0  0  0  0  0
    7.1463  -13.8453   26.4820 C   0  0  0  0  0  0  0  0  0  0  0  0
    5.9286  -13.3096   26.1446 C   0  0  0  0  0  0  0  0  0  0  0  0
    5.4420  -12.1284   26.6588 C   0  0  0  0  0  0  0  0  0  0  0  0
    6.1918  -11.4189   27.5646 C   0  0  0  0  0  0  0  0  0  0  0  0
    7.4342  -11.9285   27.9334 C   0  0  0  0  0  0  0  0  0  0  0  0
    7.9032  -13.1134   27.4069 C   0  0  0  0  0  0  0  0  0  0  0  0
    7.3151  -15.8878   23.6656 C   0  0  0  0  0  0  0  0  0  0  0  0
    7.6619  -17.0185   23.1990 O   0  0  0  0  0  0  0  0  0  0  0  0
    7.5653  -14.7794   22.8192 N   0  0  0  0  0  0  0  0  0  0  0  0
    8.1460  -14.8532   21.5234 C   0  0  1  0  0  0  0  0  0  0  0  0
    8.2328  -13.5315   20.8036 C   0  0  0  0  0  0  0  0  0  0  0  0
    8.9821  -13.6721   19.4842 C   0  0  0  0  0  0  0  0  0  0  0  0
    8.0127  -14.1344   18.4405 C   0  0  0  0  0  0  0  0  0  0  0  0
    8.6467  -14.2137   17.0675 C   0  0  0  0  0  0  0  0  0  0  0  0
    7.6973  -14.6066   16.0549 N   0  0  0  0  0  0  0  0  0  0  0  0
    9.5128  -15.3985   21.6098 C   0  0  0  0  0  0  0  0  0  0  0  0
   10.2646  -14.9185   22.5337 O   0  0  0  0  0  0  0  0  0  0  0  0
   12.6453  -19.1089   20.6420 C   0  0  0  0  0  0  0  0  0  0  0  0
   11.2825  -18.4973   20.4773 C   0  0  1  0  0  0  0  0  0  0  0  0
   10.2568  -19.2755   20.9544 O   0  0  0  0  0  0  0  0  0  0  0  0
   11.3172  -17.1015   21.0798 C   0  0  2  0  0  0  0  0  0  0  0  0
   10.0892  -16.3824   20.8030 N   0  0  0  0  0  0  0  0  0  0  0  0
   12.4548  -16.3015   20.5990 C   0  0  0  0  0  0  0  0  0  0  0  0
   13.4749  -16.0855   21.3219 O   0  0  0  0  0  0  0  0  0  0  0  0
   12.4409  -15.7605   19.3363 O   0  0  0  0  0  0  0  0  0  0  0  0
  2  1  1  1
  2 10  1  0
  2  3  1  0
  3  4  1  0
  4  5  2  0
  4  9  1  0
  5  6  1  0
  6  7  2  0
  7  8  1  0
  9  8  2  0
 10 11  2  0
 12 13  1  0
 12 10  1  0
 13 14  1  1
 15 14  1  0
 16 15  1  0
 17 18  1  0
 17 16  1  0
 19 13  1  0
 20 19  2  0
 22 23  1  0
 22 21  1  1
 24 22  1  0
 24 25  1  6
 25 19  1  0
 26 28  1  0
 26 24  1  0
 27 26  2  0
M  END
$$$$
