FKT.pdb
     RDKit          3D

 28 28  0  0  1  0  0  0  0  0999 V2000
    5.6735  -17.9454   25.4556 N   0  0  0  0  0  0  0  0  0  0  0  0
    6.0553  -16.5436   25.3064 C   0  0  1  0  0  0  0  0  0  0  0  0
    6.6936  -16.1763   26.6515 C   0  0  0  0  0  0  0  0  0  0  0  0
    7.0063  -14.7395   26.6638 C   0  0  0  0  0  0  0  0  0  0  0  0
    8.2666  -14.1962   26.6578 C   0  0  0  0  0  0  0  0  0  0  0  0
    8.5175  -12.8421   26.6602 C   0  0  0  0  0  0  0  0  0  0  0  0
    7.4695  -11.9546   26.6688 C   0  0  0  0  0  0  0  0  0  0  0  0
    6.1741  -12.4655   26.6755 C   0  0  0  0  0  0  0  0  0  0  0  0
    5.9443  -13.8251   26.6726 C   0  0  0  0  0  0  0  0  0  0  0  0
    7.0661  -16.4266   24.2334 C   0  0  0  0  0  0  0  0  0  0  0  0
    7.9220  -17.3386   24.0053 O   0  0  0  0  0  0  0  0  0  0  0  0
    7.1477  -15.2925   23.3878 N   0  0  0  0  0  0  0  0  0  0  0  0
    8.0523  -15.1450   22.3007 C   0  0  1  0  0  0  0  0  0  0  0  0
    7.9392  -13.8310   21.5704 C   0  0  0  0  0  0  0  0  0  0  0  0
    7.3788  -14.0284   20.1672 C   0  0  0  0  0  0  0  0  0  0  0  0
    8.3227  -13.3964   19.1913 C   0  0  0  0  0  0  0  0  0  0  0  0
    7.8088  -13.4725   17.7688 C   0  0  0  0  0  0  0  0  0  0  0  0
    8.6900  -12.8093   16.8389 N   0  0  0  0  0  0  0  0  0  0  0  0
    9.4420  -15.2666   22.7766 C   0  0  0  0  0  0  0  0  0  0  0  0
    9.8319  -14.3971   23.6375 O   0  0  0  0  0  0  0  0  0  0  0  0
   11.4822  -17.9153   24.6980 C   0  0  0  0  0  0  0  0  0  0  0  0
   12.0936  -17.7113   23.3405 C   0  0  1  0  0  0  0  0  0  0  0  0
   11.7658  -18.6815   22.4259 O   0  0  0  0  0  0  0  0  0  0  0  0
   11.7559  -16.3022   22.8792 C   0  0  2  0  0  0  0  0  0  0  0  0
   10.3895  -16.2223   22.4017 N   0  0  0  0  0  0  0  0  0  0  0  0
   12.6576  -15.8174   21.8222 C   0  0  0  0  0  0  0  0  0  0  0  0
   12.2406  -15.5604   20.6517 O   0  0  0  0  0  0  0  0  0  0  0  0
   13.9936  -15.6276   22.0800 O   0  0  0  0  0  0  0  0  0  0  0  0
  2  1  1  1
  2 10  1  0
  2  3  1  0
  3  4  1  0
  4  5  2  0
  4  9  1  0
  5  6  1  0
  6  7  2  0
  7  8  1  0
  9  8  2  0
 10 11  2  0
 12 13  1  0
 12 10  1  0
 13 14  1  1
 15 14  1  0
 16 15  1  0
 17 18  1  0
 17 16  1  0
 19 13  1  0
 20 19  2  0
 22 23  1  0
 22 21  1  1
 24 22  1  0
 24 25  1  6
 25 19  1  0
 26 28  1  0
 26 24  1  0
 27 26  2  0
M  END
$$$$
