FKT.pdb
     RDKit          3D

 28 28  0  0  1  0  0  0  0  0999 V2000
    5.6496  -17.8964   25.0238 N   0  0  0  0  0  0  0  0  0  0  0  0
    6.1777  -16.5423   24.8810 C   0  0  1  0  0  0  0  0  0  0  0  0
    7.1541  -16.3875   26.0534 C   0  0  0  0  0  0  0  0  0  0  0  0
    7.3292  -14.9586   26.3534 C   0  0  0  0  0  0  0  0  0  0  0  0
    8.5262  -14.3358   26.6038 C   0  0  0  0  0  0  0  0  0  0  0  0
    8.6489  -12.9906   26.8720 C   0  0  0  0  0  0  0  0  0  0  0  0
    7.5292  -12.1957   26.8982 C   0  0  0  0  0  0  0  0  0  0  0  0
    6.2944  -12.7895   26.6494 C   0  0  0  0  0  0  0  0  0  0  0  0
    6.1931  -14.1384   26.3827 C   0  0  0  0  0  0  0  0  0  0  0  0
    6.9196  -16.4418   23.6057 C   0  0  0  0  0  0  0  0  0  0  0  0
    7.5730  -17.4194   23.1222 O   0  0  0  0  0  0  0  0  0  0  0  0
    6.9509  -15.2516   22.8376 N   0  0  0  0  0  0  0  0  0  0  0  0
    7.6238  -15.0968   21.5946 C   0  0  1  0  0  0  0  0  0  0  0  0
    7.7362  -13.6700   21.1208 C   0  0  0  0  0  0  0  0  0  0  0  0
    8.4934  -13.5870   19.8011 C   0  0  0  0  0  0  0  0  0  0  0  0
    7.4938  -13.5742   18.6860 C   0  0  0  0  0  0  0  0  0  0  0  0
    8.1562  -13.6184   17.3249 C   0  0  0  0  0  0  0  0  0  0  0  0
    7.1987  -13.4956   16.2528 N   0  0  0  0  0  0  0  0  0  0  0  0
    8.9911  -15.6396   21.6863 C   0  0  0  0  0  0  0  0  0  0  0  0
    9.5828  -15.8950   20.5756 O   0  0  0  0  0  0  0  0  0  0  0  0
   11.6105  -14.4415   24.2178 C   0  0  0  0  0  0  0  0  0  0  0  0
   12.0880  -15.3122   23.0899 C   0  0  1  0  0  0  0  0  0  0  0  0
   13.3783  -15.7590   23.2334 O   0  0  0  0  0  0  0  0  0  0  0  0
   11.0756  -16.4305   22.8975 C   0  0  2  0  0  0  0  0  0  0  0  0
    9.7242  -15.9084   22.8447 N   0  0  0  0  0  0  0  0  0  0  0  0
   11.1488  -17.4531   23.9530 C   0  0  0  0  0  0  0  0  0  0  0  0
   12.2165  -18.0967   24.1893 O   0  0  0  0  0  0  0  0  0  0  0  0
   10.0466  -17.7411   24.7208 O   0  0  0  0  0  0  0  0  0  0  0  0
  2  1  1  1
  2 10  1  0
  2  3  1  0
  3  4  1  0
  4  5  2  0
  4  9  1  0
  5  6  1  0
  6  7  2  0
  7  8  1  0
  9  8  2  0
 10 11  2  0
 12 13  1  0
 12 10  1  0
 13 14  1  1
 15 14  1  0
 16 15  1  0
 17 18  1  0
 17 16  1  0
 19 13  1  0
 20 19  2  0
 22 23  1  0
 22 21  1  1
 24 22  1  0
 24 25  1  1
 25 19  1  0
 26 28  1  0
 26 24  1  0
 27 26  2  0
M  END
$$$$
