FKT.pdb
     RDKit          3D

 28 28  0  0  1  0  0  0  0  0999 V2000
    6.2102  -17.8520   25.7152 N   0  0  0  0  0  0  0  0  0  0  0  0
    6.5616  -16.4835   25.3456 C   0  0  1  0  0  0  0  0  0  0  0  0
    7.5392  -16.0320   26.4375 C   0  0  0  0  0  0  0  0  0  0  0  0
    7.3791  -14.5880   26.6649 C   0  0  0  0  0  0  0  0  0  0  0  0
    8.3809  -13.7191   27.0182 C   0  0  0  0  0  0  0  0  0  0  0  0
    8.1913  -12.3690   27.2130 C   0  0  0  0  0  0  0  0  0  0  0  0
    6.9400  -11.8262   27.0528 C   0  0  0  0  0  0  0  0  0  0  0  0
    5.8953  -12.6745   26.6947 C   0  0  0  0  0  0  0  0  0  0  0  0
    6.1063  -14.0237   26.5041 C   0  0  0  0  0  0  0  0  0  0  0  0
    7.2540  -16.4954   24.0390 C   0  0  0  0  0  0  0  0  0  0  0  0
    7.9770  -17.4714   23.6632 O   0  0  0  0  0  0  0  0  0  0  0  0
    7.1575  -15.4222   23.1189 N   0  0  0  0  0  0  0  0  0  0  0  0
    7.8120  -15.3632   21.8580 C   0  0  1  0  0  0  0  0  0  0  0  0
    7.5612  -14.0935   21.0850 C   0  0  0  0  0  0  0  0  0  0  0  0
    8.2949  -14.1088   19.7496 C   0  0  0  0  0  0  0  0  0  0  0  0
    7.9101  -12.8780   18.9880 C   0  0  0  0  0  0  0  0  0  0  0  0
    8.5612  -12.8250   17.6218 C   0  0  0  0  0  0  0  0  0  0  0  0
    8.2241  -13.9736   16.8167 N   0  0  0  0  0  0  0  0  0  0  0  0
    9.2697  -15.4899   22.0362 C   0  0  0  0  0  0  0  0  0  0  0  0
    9.8132  -14.7051   22.8952 O   0  0  0  0  0  0  0  0  0  0  0  0
   11.5086  -17.9415   23.6313 C   0  0  0  0  0  0  0  0  0  0  0  0
   11.8636  -17.9134   22.1714 C   0  0  1  0  0  0  0  0  0  0  0  0
   11.2945  -18.9236   21.4360 O   0  0  0  0  0  0  0  0  0  0  0  0
   11.5523  -16.5238   21.6381 C   0  0  2  0  0  0  0  0  0  0  0  0
   10.1342  -16.3690   21.3795 N   0  0  0  0  0  0  0  0  0  0  0  0
   12.2967  -16.2051   20.4094 C   0  0  0  0  0  0  0  0  0  0  0  0
   11.7325  -16.1735   19.2734 O   0  0  0  0  0  0  0  0  0  0  0  0
   13.6415  -15.9293   20.4623 O   0  0  0  0  0  0  0  0  0  0  0  0
  2  1  1  1
  2 10  1  0
  2  3  1  0
  3  4  1  0
  4  5  2  0
  4  9  1  0
  5  6  1  0
  6  7  2  0
  7  8  1  0
  9  8  2  0
 10 11  2  0
 12 13  1  0
 12 10  1  0
 13 14  1  1
 15 14  1  0
 16 15  1  0
 17 18  1  0
 17 16  1  0
 19 13  1  0
 20 19  2  0
 22 23  1  0
 22 21  1  1
 24 22  1  0
 24 25  1  6
 25 19  1  0
 26 28  1  0
 26 24  1  0
 27 26  2  0
M  END
$$$$
