FKT.pdb
     RDKit          3D

 28 28  0  0  1  0  0  0  0  0999 V2000
    5.7970  -17.9441   25.9402 N   0  0  0  0  0  0  0  0  0  0  0  0
    6.2086  -16.5875   25.5895 C   0  0  1  0  0  0  0  0  0  0  0  0
    6.9961  -16.0993   26.8115 C   0  0  0  0  0  0  0  0  0  0  0  0
    7.1602  -14.6401   26.7315 C   0  0  0  0  0  0  0  0  0  0  0  0
    6.1419  -13.7201   26.7390 C   0  0  0  0  0  0  0  0  0  0  0  0
    6.3384  -12.3587   26.6717 C   0  0  0  0  0  0  0  0  0  0  0  0
    7.6144  -11.8572   26.5919 C   0  0  0  0  0  0  0  0  0  0  0  0
    8.6764  -12.7580   26.5813 C   0  0  0  0  0  0  0  0  0  0  0  0
    8.4581  -14.1177   26.6498 C   0  0  0  0  0  0  0  0  0  0  0  0
    7.1052  -16.6398   24.4147 C   0  0  0  0  0  0  0  0  0  0  0  0
    7.9040  -17.6083   24.2136 O   0  0  0  0  0  0  0  0  0  0  0  0
    7.1333  -15.6165   23.4351 N   0  0  0  0  0  0  0  0  0  0  0  0
    7.9518  -15.6182   22.2724 C   0  0  1  0  0  0  0  0  0  0  0  0
    7.6994  -14.4678   21.3314 C   0  0  0  0  0  0  0  0  0  0  0  0
    8.6050  -14.5488   20.1086 C   0  0  0  0  0  0  0  0  0  0  0  0
    8.1936  -13.4764   19.1476 C   0  0  0  0  0  0  0  0  0  0  0  0
    8.9466  -13.5649   17.8367 C   0  0  0  0  0  0  0  0  0  0  0  0
    8.6717  -12.4390   16.9776 N   0  0  0  0  0  0  0  0  0  0  0  0
    9.3750  -15.5719   22.6533 C   0  0  0  0  0  0  0  0  0  0  0  0
    9.7408  -14.5832   23.3866 O   0  0  0  0  0  0  0  0  0  0  0  0
   11.8613  -17.7343   24.7124 C   0  0  0  0  0  0  0  0  0  0  0  0
   12.2813  -17.6903   23.2703 C   0  0  1  0  0  0  0  0  0  0  0  0
   11.9206  -18.8000   22.5466 O   0  0  0  0  0  0  0  0  0  0  0  0
   11.7781  -16.3855   22.6731 C   0  0  2  0  0  0  0  0  0  0  0  0
   10.3777  -16.4824   22.3111 N   0  0  0  0  0  0  0  0  0  0  0  0
   12.5466  -15.9664   21.4903 C   0  0  0  0  0  0  0  0  0  0  0  0
   12.0682  -16.0461   20.3178 O   0  0  0  0  0  0  0  0  0  0  0  0
   13.8205  -15.4707   21.6278 O   0  0  0  0  0  0  0  0  0  0  0  0
  2  1  1  1
  2 10  1  0
  2  3  1  0
  3  4  1  0
  4  5  2  0
  4  9  1  0
  5  6  1  0
  6  7  2  0
  7  8  1  0
  9  8  2  0
 10 11  2  0
 12 13  1  0
 12 10  1  0
 13 14  1  6
 15 14  1  0
 16 15  1  0
 17 18  1  0
 17 16  1  0
 19 13  1  0
 20 19  2  0
 22 23  1  0
 22 21  1  1
 24 22  1  0
 24 25  1  6
 25 19  1  0
 26 28  1  0
 26 24  1  0
 27 26  2  0
M  END
$$$$
