FKT.pdb
     RDKit          3D

 28 28  0  0  1  0  0  0  0  0999 V2000
    6.2240  -17.2074   26.1432 N   0  0  0  0  0  0  0  0  0  0  0  0
    6.7441  -16.1499   25.2804 C   0  0  1  0  0  0  0  0  0  0  0  0
    7.7175  -15.3719   26.1742 C   0  0  0  0  0  0  0  0  0  0  0  0
    7.2356  -13.9913   26.3296 C   0  0  0  0  0  0  0  0  0  0  0  0
    6.6205  -13.4808   27.4452 C   0  0  0  0  0  0  0  0  0  0  0  0
    6.1914  -12.1768   27.5547 C   0  0  0  0  0  0  0  0  0  0  0  0
    6.3736  -11.3087   26.5062 C   0  0  0  0  0  0  0  0  0  0  0  0
    6.9939  -11.7878   25.3551 C   0  0  0  0  0  0  0  0  0  0  0  0
    7.4165  -13.0972   25.2657 C   0  0  0  0  0  0  0  0  0  0  0  0
    7.4875  -16.7604   24.1573 C   0  0  0  0  0  0  0  0  0  0  0  0
    8.0209  -17.9113   24.2427 O   0  0  0  0  0  0  0  0  0  0  0  0
    7.6539  -16.1053   22.9119 N   0  0  0  0  0  0  0  0  0  0  0  0
    8.3125  -16.6561   21.7785 C   0  0  1  0  0  0  0  0  0  0  0  0
    8.0426  -15.9277   20.4865 C   0  0  0  0  0  0  0  0  0  0  0  0
    8.7666  -16.5898   19.3206 C   0  0  0  0  0  0  0  0  0  0  0  0
    8.4377  -15.8314   18.0718 C   0  0  0  0  0  0  0  0  0  0  0  0
    8.9615  -16.5216   16.8299 C   0  0  0  0  0  0  0  0  0  0  0  0
    8.5764  -15.8306   15.6235 N   0  0  0  0  0  0  0  0  0  0  0  0
    9.7714  -16.6548   21.9888 C   0  0  0  0  0  0  0  0  0  0  0  0
   10.3210  -15.5118   22.1909 O   0  0  0  0  0  0  0  0  0  0  0  0
   12.2002  -18.2851   24.5677 C   0  0  0  0  0  0  0  0  0  0  0  0
   12.5149  -18.7784   23.1835 C   0  0  1  0  0  0  0  0  0  0  0  0
   12.0205  -20.0293   22.9077 O   0  0  0  0  0  0  0  0  0  0  0  0
   12.0671  -17.7158   22.1921 C   0  0  2  0  0  0  0  0  0  0  0  0
   10.6313  -17.7557   21.9965 N   0  0  0  0  0  0  0  0  0  0  0  0
   12.7285  -17.8424   20.8838 C   0  0  0  0  0  0  0  0  0  0  0  0
   12.0886  -18.1713   19.8386 O   0  0  0  0  0  0  0  0  0  0  0  0
   14.0757  -17.6039   20.7590 O   0  0  0  0  0  0  0  0  0  0  0  0
  2  1  1  1
  2 10  1  0
  2  3  1  0
  3  4  1  0
  4  5  2  0
  4  9  1  0
  5  6  1  0
  6  7  2  0
  7  8  1  0
  9  8  2  0
 10 11  2  0
 12 13  1  0
 12 10  1  0
 13 14  1  6
 15 14  1  0
 16 15  1  0
 17 18  1  0
 17 16  1  0
 19 13  1  0
 20 19  2  0
 22 23  1  0
 22 21  1  1
 24 22  1  0
 24 25  1  6
 25 19  1  0
 26 28  1  0
 26 24  1  0
 27 26  2  0
M  END
$$$$
