FKT.pdb
     RDKit          3D

 28 28  0  0  1  0  0  0  0  0999 V2000
    5.9445  -17.6799   25.7042 N   0  0  0  0  0  0  0  0  0  0  0  0
    6.3393  -16.3078   25.3970 C   0  0  1  0  0  0  0  0  0  0  0  0
    7.1960  -15.8796   26.5946 C   0  0  0  0  0  0  0  0  0  0  0  0
    7.0820  -14.4249   26.7772 C   0  0  0  0  0  0  0  0  0  0  0  0
    8.0592  -13.6042   27.2822 C   0  0  0  0  0  0  0  0  0  0  0  0
    7.9161  -12.2424   27.4287 C   0  0  0  0  0  0  0  0  0  0  0  0
    6.7407  -11.6365   27.0580 C   0  0  0  0  0  0  0  0  0  0  0  0
    5.7233  -12.4345   26.5409 C   0  0  0  0  0  0  0  0  0  0  0  0
    5.8868  -13.7965   26.4021 C   0  0  0  0  0  0  0  0  0  0  0  0
    7.1676  -16.3030   24.1720 C   0  0  0  0  0  0  0  0  0  0  0  0
    7.8464  -17.3145   23.8081 O   0  0  0  0  0  0  0  0  0  0  0  0
    7.2595  -15.1729   23.3223 N   0  0  0  0  0  0  0  0  0  0  0  0
    7.9659  -15.1310   22.0889 C   0  0  1  0  0  0  0  0  0  0  0  0
    7.9472  -13.7872   21.4059 C   0  0  0  0  0  0  0  0  0  0  0  0
    8.8374  -13.7867   20.1692 C   0  0  0  0  0  0  0  0  0  0  0  0
    7.9597  -13.7008   18.9588 C   0  0  0  0  0  0  0  0  0  0  0  0
    8.7561  -13.7471   17.6715 C   0  0  0  0  0  0  0  0  0  0  0  0
    7.9048  -13.7200   16.5072 N   0  0  0  0  0  0  0  0  0  0  0  0
    9.3776  -15.4986   22.2997 C   0  0  0  0  0  0  0  0  0  0  0  0
   10.0305  -14.8004   23.1572 O   0  0  0  0  0  0  0  0  0  0  0  0
   11.3706  -18.8141   23.2654 C   0  0  0  0  0  0  0  0  0  0  0  0
   11.7475  -18.3165   21.8985 C   0  0  1  0  0  0  0  0  0  0  0  0
   11.1487  -18.9984   20.8682 O   0  0  0  0  0  0  0  0  0  0  0  0
   11.5004  -16.8165   21.8591 C   0  0  2  0  0  0  0  0  0  0  0  0
   10.0926  -16.5237   21.6755 N   0  0  0  0  0  0  0  0  0  0  0  0
   12.2682  -16.1402   20.8015 C   0  0  0  0  0  0  0  0  0  0  0  0
   11.7096  -15.6744   19.7618 O   0  0  0  0  0  0  0  0  0  0  0  0
   13.6294  -15.9938   20.9150 O   0  0  0  0  0  0  0  0  0  0  0  0
  2  1  1  1
  2 10  1  0
  2  3  1  0
  3  4  1  0
  4  5  2  0
  4  9  1  0
  5  6  1  0
  6  7  2  0
  7  8  1  0
  9  8  2  0
 10 11  2  0
 12 13  1  0
 12 10  1  0
 13 14  1  1
 15 14  1  0
 16 15  1  0
 17 18  1  0
 17 16  1  0
 19 13  1  0
 20 19  2  0
 22 23  1  0
 22 21  1  1
 24 22  1  0
 24 25  1  6
 25 19  1  0
 26 28  1  0
 26 24  1  0
 27 26  2  0
M  END
$$$$
