FKT.pdb
     RDKit          3D

 28 28  0  0  1  0  0  0  0  0999 V2000
    5.6960  -17.9139   25.7455 N   0  0  0  0  0  0  0  0  0  0  0  0
    6.0521  -16.5237   25.4744 C   0  0  1  0  0  0  0  0  0  0  0  0
    6.6368  -16.0142   26.7974 C   0  0  0  0  0  0  0  0  0  0  0  0
    6.7671  -14.5507   26.7384 C   0  0  0  0  0  0  0  0  0  0  0  0
    5.7264  -13.6573   26.6909 C   0  0  0  0  0  0  0  0  0  0  0  0
    5.8907  -12.2908   26.6459 C   0  0  0  0  0  0  0  0  0  0  0  0
    7.1556  -11.7558   26.6475 C   0  0  0  0  0  0  0  0  0  0  0  0
    8.2395  -12.6287   26.6947 C   0  0  0  0  0  0  0  0  0  0  0  0
    8.0534  -13.9942   26.7396 C   0  0  0  0  0  0  0  0  0  0  0  0
    7.0956  -16.4844   24.4273 C   0  0  0  0  0  0  0  0  0  0  0  0
    8.0091  -17.3650   24.3465 O   0  0  0  0  0  0  0  0  0  0  0  0
    7.1466  -15.4651   23.4444 N   0  0  0  0  0  0  0  0  0  0  0  0
    8.0307  -15.4447   22.3310 C   0  0  1  0  0  0  0  0  0  0  0  0
    7.8751  -14.2430   21.4341 C   0  0  0  0  0  0  0  0  0  0  0  0
    8.7793  -14.3483   20.2121 C   0  0  0  0  0  0  0  0  0  0  0  0
    8.1151  -13.6371   19.0738 C   0  0  0  0  0  0  0  0  0  0  0  0
    8.8375  -13.8602   17.7617 C   0  0  0  0  0  0  0  0  0  0  0  0
    8.2387  -13.1157   16.6808 N   0  0  0  0  0  0  0  0  0  0  0  0
    9.4301  -15.4713   22.7934 C   0  0  0  0  0  0  0  0  0  0  0  0
    9.7775  -14.5554   23.6238 O   0  0  0  0  0  0  0  0  0  0  0  0
   11.6804  -17.5630   24.9852 C   0  0  0  0  0  0  0  0  0  0  0  0
   12.1975  -17.6338   23.5760 C   0  0  1  0  0  0  0  0  0  0  0  0
   11.8226  -18.7668   22.8970 O   0  0  0  0  0  0  0  0  0  0  0  0
   11.8109  -16.3450   22.8676 C   0  0  2  0  0  0  0  0  0  0  0  0
   10.4278  -16.3811   22.4351 N   0  0  0  0  0  0  0  0  0  0  0  0
   12.6649  -16.0559   21.7046 C   0  0  0  0  0  0  0  0  0  0  0  0
   12.2117  -16.0747   20.5195 O   0  0  0  0  0  0  0  0  0  0  0  0
   13.9941  -15.7536   21.8751 O   0  0  0  0  0  0  0  0  0  0  0  0
  2  1  1  1
  2 10  1  0
  2  3  1  0
  3  4  1  0
  4  5  2  0
  4  9  1  0
  5  6  1  0
  6  7  2  0
  7  8  1  0
  9  8  2  0
 10 11  2  0
 12 13  1  0
 12 10  1  0
 13 14  1  1
 15 14  1  0
 16 15  1  0
 17 18  1  0
 17 16  1  0
 19 13  1  0
 20 19  2  0
 22 23  1  0
 22 21  1  1
 24 22  1  0
 24 25  1  6
 25 19  1  0
 26 28  1  0
 26 24  1  0
 27 26  2  0
M  END
$$$$
