CRW.pdb
     RDKit          3D

 32 33  0  0  1  0  0  0  0  0999 V2000
    9.5994  -15.7313   19.7005 N   0  0  0  0  0  0  0  0  0  0  0  0
    8.7526  -14.6060   20.0215 C   0  0  1  0  0  0  0  0  0  0  0  0
    8.2450  -13.9185   18.7984 C   0  0  0  0  0  0  0  0  0  0  0  0
    7.3187  -14.9757   17.6884 S   0  0  0  0  0  0  0  0  0  0  0  0
    7.6786  -14.9967   20.9711 C   0  0  0  0  0  0  0  0  0  0  0  0
    6.8099  -14.1972   21.3841 O   0  0  0  0  0  0  0  0  0  0  0  0
    5.7163  -23.0924   24.4306 N   0  0  0  0  0  0  0  0  0  0  0  0
    6.4229  -22.6182   23.2864 C   0  0  0  0  0  0  0  0  0  0  0  0
    6.8405  -23.5088   22.4550 N   0  0  0  0  0  0  0  0  0  0  0  0
    6.6723  -21.2423   23.0432 N   0  0  0  0  0  0  0  0  0  0  0  0
    6.2100  -20.1979   23.8977 C   0  0  0  0  0  0  0  0  0  0  0  0
    5.6063  -19.0341   23.1420 C   0  0  0  0  0  0  0  0  0  0  0  0
    6.6924  -18.3552   22.3668 C   0  0  0  0  0  0  0  0  0  0  0  0
    6.5608  -16.8744   22.2437 C   0  0  2  0  0  0  0  0  0  0  0  0
    7.6259  -16.3260   21.4349 N   0  0  0  0  0  0  0  0  0  0  0  0
    6.6394  -16.3306   23.6487 C   0  0  0  0  0  0  0  0  0  0  0  0
    5.7598  -16.6111   24.4994 O   0  0  0  0  0  0  0  0  0  0  0  0
    7.3771  -23.3189   21.6071 N   0  0  0  0  0  0  0  0  0  0  0  0
    7.7136  -15.4980   24.0089 C   0  0  1  0  0  0  0  0  0  0  0  0
    7.7807  -14.8560   25.3238 C   0  0  0  0  0  0  0  0  0  0  0  0
    9.2599  -14.5624   25.6099 C   0  0  0  0  0  0  0  0  0  0  0  0
    9.6943  -15.3358   26.8212 C   0  0  0  0  0  0  0  0  0  0  0  0
    9.9811  -16.6789   26.9289 N   0  0  0  0  0  0  0  0  0  0  0  0
   10.3279  -16.9411   28.1946 C   0  0  0  0  0  0  0  0  0  0  0  0
   10.2847  -15.8266   28.9383 C   0  0  0  0  0  0  0  0  0  0  0  0
   10.5472  -15.5788   30.2706 C   0  0  0  0  0  0  0  0  0  0  0  0
   10.3952  -14.2752   30.7092 C   0  0  0  0  0  0  0  0  0  0  0  0
   10.0049  -13.2597   29.8859 C   0  0  0  0  0  0  0  0  0  0  0  0
    9.7499  -13.5265   28.5700 C   0  0  0  0  0  0  0  0  0  0  0  0
    9.8893  -14.8122   28.0922 C   0  0  0  0  0  0  0  0  0  0  0  0
    7.0227  -13.5856   25.3190 O   0  0  0  0  0  0  0  0  0  0  0  0
    6.7087  -12.9999   24.2399 O   0  0  0  0  0  0  0  0  0  0  0  0
  2  1  1  6
  3  2  1  0
  4  3  1  0
  5  6  2  0
  5  2  1  0
  7  8  1  0
  8  9  2  0
 10 11  1  0
 10  8  1  0
 11 12  1  0
 12 13  1  0
 14 13  1  1
 14 15  1  0
 15  5  1  0
 16 14  1  0
 17 16  2  0
 18 16  1  0
 19 30  1  0
 19 18  1  0
 19 20  1  1
 21 22  2  0
 21 20  1  0
 23 22  1  0
 24 29  2  0
 24 23  1  0
 25 24  1  0
 26 27  1  0
 26 25  2  0
 27 28  2  0
 28 29  1  0
 29 21  1  0
 30 32  1  0
 31 30  2  0
M  END
$$$$
