CRW.pdb
     RDKit          3D

 32 33  0  0  1  0  0  0  0  0999 V2000
    5.6112  -19.3264   20.1518 N   0  0  0  0  0  0  0  0  0  0  0  0
    6.1896  -18.2509   20.9233 C   0  0  1  0  0  0  0  0  0  0  0  0
    5.2244  -17.6865   21.9113 C   0  0  0  0  0  0  0  0  0  0  0  0
    5.3630  -18.3797   23.5569 S   0  0  0  0  0  0  0  0  0  0  0  0
    7.4846  -18.6597   21.5263 C   0  0  0  0  0  0  0  0  0  0  0  0
    7.7144  -19.8230   21.9242 O   0  0  0  0  0  0  0  0  0  0  0  0
    9.9519  -16.6504   15.9724 N   0  0  0  0  0  0  0  0  0  0  0  0
   11.2374  -16.7599   16.5796 C   0  0  0  0  0  0  0  0  0  0  0  0
   12.2563  -16.6503   15.7993 N   0  0  0  0  0  0  0  0  0  0  0  0
   11.4235  -16.9785   17.9695 N   0  0  0  0  0  0  0  0  0  0  0  0
   10.3472  -17.1875   18.8820 C   0  0  0  0  0  0  0  0  0  0  0  0
   10.6008  -16.5891   20.2485 C   0  0  0  0  0  0  0  0  0  0  0  0
   10.8864  -17.7009   21.2096 C   0  0  0  0  0  0  0  0  0  0  0  0
    9.8173  -17.9677   22.2152 C   0  0  2  0  0  0  0  0  0  0  0  0
    8.5087  -17.7017   21.6618 N   0  0  0  0  0  0  0  0  0  0  0  0
   10.0928  -17.0399   23.3725 C   0  0  0  0  0  0  0  0  0  0  0  0
   10.8230  -16.0288   23.2293 O   0  0  0  0  0  0  0  0  0  0  0  0
   13.2319  -16.6393   16.1009 N   0  0  0  0  0  0  0  0  0  0  0  0
    9.5231  -17.3130   24.6286 C   0  0  1  0  0  0  0  0  0  0  0  0
   10.0759  -16.7484   25.8621 C   0  0  0  0  0  0  0  0  0  0  0  0
    8.8919  -16.4338   26.7869 C   0  0  0  0  0  0  0  0  0  0  0  0
    7.8807  -15.6153   26.0377 C   0  0  0  0  0  0  0  0  0  0  0  0
    6.7703  -16.0422   25.3429 N   0  0  0  0  0  0  0  0  0  0  0  0
    6.1514  -14.9729   24.8287 C   0  0  0  0  0  0  0  0  0  0  0  0
    6.8034  -13.8471   25.1519 C   0  0  0  0  0  0  0  0  0  0  0  0
    6.5716  -12.5162   24.8684 C   0  0  0  0  0  0  0  0  0  0  0  0
    7.4742  -11.5988   25.3772 C   0  0  0  0  0  0  0  0  0  0  0  0
    8.5535  -11.9631   26.1281 C   0  0  0  0  0  0  0  0  0  0  0  0
    8.7647  -13.2863   26.3972 C   0  0  0  0  0  0  0  0  0  0  0  0
    7.8892  -14.2329   25.9092 C   0  0  0  0  0  0  0  0  0  0  0  0
   10.9670  -17.7257   26.5248 O   0  0  0  0  0  0  0  0  0  0  0  0
   11.0739  -18.9190   26.1114 O   0  0  0  0  0  0  0  0  0  0  0  0
  2  1  1  1
  3  2  1  0
  4  3  1  0
  5  6  2  0
  5  2  1  0
  7  8  1  0
  8  9  2  0
 10 11  1  0
 10  8  1  0
 11 12  1  0
 12 13  1  0
 14 13  1  6
 14 15  1  0
 15  5  1  0
 16 14  1  0
 17 16  2  0
 18 16  1  0
 19 30  1  0
 19 18  1  0
 19 20  1  1
 21 22  2  0
 21 20  1  0
 23 22  1  0
 24 29  2  0
 24 23  1  0
 25 24  1  0
 26 27  1  0
 26 25  2  0
 27 28  2  0
 28 29  1  0
 29 21  1  0
 30 32  1  0
 31 30  2  0
M  END
$$$$
