CRW.pdb
     RDKit          3D

 32 33  0  0  1  0  0  0  0  0999 V2000
    7.5757  -14.3630   18.3818 N   0  0  0  0  0  0  0  0  0  0  0  0
    8.2413  -14.1563   19.6470 C   0  0  1  0  0  0  0  0  0  0  0  0
    7.5263  -13.1643   20.5020 C   0  0  0  0  0  0  0  0  0  0  0  0
    7.9692  -11.4588   20.1812 S   0  0  0  0  0  0  0  0  0  0  0  0
    8.5050  -15.4484   20.3316 C   0  0  0  0  0  0  0  0  0  0  0  0
    7.8047  -16.4695   20.1541 O   0  0  0  0  0  0  0  0  0  0  0  0
   12.4573  -15.3506   17.5482 N   0  0  0  0  0  0  0  0  0  0  0  0
   13.6487  -15.5751   18.2987 C   0  0  0  0  0  0  0  0  0  0  0  0
   14.4809  -14.5946   18.3689 N   0  0  0  0  0  0  0  0  0  0  0  0
   13.9371  -16.8035   18.9487 N   0  0  0  0  0  0  0  0  0  0  0  0
   12.9830  -17.5210   19.7295 C   0  0  0  0  0  0  0  0  0  0  0  0
   11.9609  -16.6234   20.3925 C   0  0  0  0  0  0  0  0  0  0  0  0
   11.0482  -17.4726   21.2215 C   0  0  0  0  0  0  0  0  0  0  0  0
    9.9686  -16.7370   21.9417 C   0  0  2  0  0  0  0  0  0  0  0  0
    9.5910  -15.5402   21.2244 N   0  0  0  0  0  0  0  0  0  0  0  0
   10.5377  -16.3785   23.2921 C   0  0  0  0  0  0  0  0  0  0  0  0
   11.7127  -15.9509   23.4043 O   0  0  0  0  0  0  0  0  0  0  0  0
   15.3689  -14.6093   18.8730 N   0  0  0  0  0  0  0  0  0  0  0  0
    9.7396  -16.5260   24.4402 C   0  0  1  0  0  0  0  0  0  0  0  0
   10.2647  -16.2561   25.7808 C   0  0  0  0  0  0  0  0  0  0  0  0
    9.8157  -14.8399   26.1669 C   0  0  0  0  0  0  0  0  0  0  0  0
    8.3279  -14.7282   26.0004 C   0  0  0  0  0  0  0  0  0  0  0  0
    7.4179  -15.7172   25.6972 N   0  0  0  0  0  0  0  0  0  0  0  0
    6.1966  -15.1723   25.6462 C   0  0  0  0  0  0  0  0  0  0  0  0
    6.2531  -13.8578   25.9033 C   0  0  0  0  0  0  0  0  0  0  0  0
    5.2873  -12.8738   25.9677 C   0  0  0  0  0  0  0  0  0  0  0  0
    5.7152  -11.5918   26.2650 C   0  0  0  0  0  0  0  0  0  0  0  0
    7.0253  -11.2838   26.4893 C   0  0  0  0  0  0  0  0  0  0  0  0
    7.9657  -12.2732   26.4207 C   0  0  0  0  0  0  0  0  0  0  0  0
    7.5816  -13.5643   26.1272 C   0  0  0  0  0  0  0  0  0  0  0  0
    9.7174  -17.2247   26.7558 O   0  0  0  0  0  0  0  0  0  0  0  0
    9.9987  -17.1607   27.9900 O   0  0  0  0  0  0  0  0  0  0  0  0
  2  1  1  6
  3  2  1  0
  4  3  1  0
  5  6  2  0
  5  2  1  0
  7  8  1  0
  8  9  2  0
 10 11  1  0
 10  8  1  0
 11 12  1  0
 12 13  1  0
 14 13  1  6
 14 15  1  0
 15  5  1  0
 16 14  1  0
 17 16  2  0
 18 16  1  0
 19 30  1  0
 19 18  1  0
 19 20  1  1
 21 22  2  0
 21 20  1  0
 23 22  1  0
 24 29  2  0
 24 23  1  0
 25 24  1  0
 26 27  1  0
 26 25  2  0
 27 28  2  0
 28 29  1  0
 29 21  1  0
 30 32  1  0
 31 30  2  0
M  END
$$$$
