CRW.pdb
     RDKit          3D

 32 33  0  0  1  0  0  0  0  0999 V2000
    7.0369  -20.1910   20.5950 N   0  0  0  0  0  0  0  0  0  0  0  0
    7.0776  -19.1659   21.6118 C   0  0  1  0  0  0  0  0  0  0  0  0
    7.0206  -19.7381   22.9887 C   0  0  0  0  0  0  0  0  0  0  0  0
    6.7023  -18.5337   24.2755 S   0  0  0  0  0  0  0  0  0  0  0  0
    8.2241  -18.2449   21.3993 C   0  0  0  0  0  0  0  0  0  0  0  0
    9.3732  -18.6430   21.1069 O   0  0  0  0  0  0  0  0  0  0  0  0
    7.4958  -14.8446   16.6169 N   0  0  0  0  0  0  0  0  0  0  0  0
    8.4462  -13.8011   16.8197 C   0  0  0  0  0  0  0  0  0  0  0  0
    9.2335  -13.5370   15.8351 N   0  0  0  0  0  0  0  0  0  0  0  0
    8.5487  -13.0691   18.0314 N   0  0  0  0  0  0  0  0  0  0  0  0
    7.6043  -13.1758   19.0950 C   0  0  0  0  0  0  0  0  0  0  0  0
    7.5656  -14.5532   19.7205 C   0  0  0  0  0  0  0  0  0  0  0  0
    8.4200  -14.5419   20.9498 C   0  0  0  0  0  0  0  0  0  0  0  0
    9.0352  -15.8513   21.3134 C   0  0  2  0  0  0  0  0  0  0  0  0
    8.0201  -16.8571   21.5306 N   0  0  0  0  0  0  0  0  0  0  0  0
    9.8103  -15.6090   22.5848 C   0  0  0  0  0  0  0  0  0  0  0  0
   10.8678  -14.9325   22.5769 O   0  0  0  0  0  0  0  0  0  0  0  0
    9.9610  -12.8203   15.8372 N   0  0  0  0  0  0  0  0  0  0  0  0
    9.3404  -16.1493   23.7948 C   0  0  1  0  0  0  0  0  0  0  0  0
   10.1357  -16.0888   25.0235 C   0  0  0  0  0  0  0  0  0  0  0  0
    9.8651  -14.7241   25.6719 C   0  0  0  0  0  0  0  0  0  0  0  0
    8.3836  -14.5278   25.8154 C   0  0  0  0  0  0  0  0  0  0  0  0
    7.3750  -15.4582   25.6927 N   0  0  0  0  0  0  0  0  0  0  0  0
    6.2028  -14.8468   25.9001 C   0  0  0  0  0  0  0  0  0  0  0  0
    6.3868  -13.5440   26.1568 C   0  0  0  0  0  0  0  0  0  0  0  0
    5.5133  -12.5108   26.4302 C   0  0  0  0  0  0  0  0  0  0  0  0
    6.0666  -11.2616   26.6498 C   0  0  0  0  0  0  0  0  0  0  0  0
    7.4105  -11.0307   26.6046 C   0  0  0  0  0  0  0  0  0  0  0  0
    8.2581  -12.0677   26.3322 C   0  0  0  0  0  0  0  0  0  0  0  0
    7.7478  -13.3286   26.1073 C   0  0  0  0  0  0  0  0  0  0  0  0
    9.7290  -17.1622   25.9567 O   0  0  0  0  0  0  0  0  0  0  0  0
    8.7302  -17.9066   25.7234 O   0  0  0  0  0  0  0  0  0  0  0  0
  2  1  1  6
  3  2  1  0
  4  3  1  0
  5  6  2  0
  5  2  1  0
  7  8  1  0
  8  9  2  0
 10 11  1  0
 10  8  1  0
 11 12  1  0
 12 13  1  0
 14 13  1  1
 14 15  1  0
 15  5  1  0
 16 14  1  0
 17 16  2  0
 18 16  1  0
 19 30  1  0
 19 18  1  0
 19 20  1  1
 21 22  2  0
 21 20  1  0
 23 22  1  0
 24 29  2  0
 24 23  1  0
 25 24  1  0
 26 27  1  0
 26 25  2  0
 27 28  2  0
 28 29  1  0
 29 21  1  0
 30 32  1  0
 31 30  2  0
M  END
$$$$
