CRW.pdb
     RDKit          3D

 32 33  0  0  1  0  0  0  0  0999 V2000
    6.2386  -14.4593   19.7812 N   0  0  0  0  0  0  0  0  0  0  0  0
    7.6431  -14.5978   20.0888 C   0  0  1  0  0  0  0  0  0  0  0  0
    8.3168  -13.2756   20.2443 C   0  0  0  0  0  0  0  0  0  0  0  0
    7.9209  -12.4204   21.7674 S   0  0  0  0  0  0  0  0  0  0  0  0
    7.8519  -15.5092   21.2436 C   0  0  0  0  0  0  0  0  0  0  0  0
    7.0035  -15.6681   22.1489 O   0  0  0  0  0  0  0  0  0  0  0  0
   10.7690  -20.4767   17.3693 N   0  0  0  0  0  0  0  0  0  0  0  0
   12.0087  -19.9776   17.8665 C   0  0  0  0  0  0  0  0  0  0  0  0
   13.0507  -20.1912   17.1402 N   0  0  0  0  0  0  0  0  0  0  0  0
   12.1269  -19.2768   19.0951 N   0  0  0  0  0  0  0  0  0  0  0  0
   11.4407  -19.6591   20.2857 C   0  0  0  0  0  0  0  0  0  0  0  0
   10.2386  -18.7900   20.5850 C   0  0  0  0  0  0  0  0  0  0  0  0
   10.4484  -18.1277   21.9112 C   0  0  0  0  0  0  0  0  0  0  0  0
    9.3525  -17.2166   22.3518 C   0  0  2  0  0  0  0  0  0  0  0  0
    9.0571  -16.2333   21.3343 N   0  0  0  0  0  0  0  0  0  0  0  0
    9.8520  -16.5384   23.6034 C   0  0  0  0  0  0  0  0  0  0  0  0
   10.6707  -15.5889   23.5400 O   0  0  0  0  0  0  0  0  0  0  0  0
   13.9946  -19.8639   17.3519 N   0  0  0  0  0  0  0  0  0  0  0  0
    9.3933  -16.9774   24.8579 C   0  0  1  0  0  0  0  0  0  0  0  0
    9.9179  -16.4188   26.1063 C   0  0  0  0  0  0  0  0  0  0  0  0
    8.7416  -16.3181   27.0874 C   0  0  0  0  0  0  0  0  0  0  0  0
    7.6409  -15.5116   26.4615 C   0  0  0  0  0  0  0  0  0  0  0  0
    6.5363  -15.9538   25.7671 N   0  0  0  0  0  0  0  0  0  0  0  0
    5.8179  -14.8909   25.3862 C   0  0  0  0  0  0  0  0  0  0  0  0
    6.3979  -13.7547   25.7982 C   0  0  0  0  0  0  0  0  0  0  0  0
    6.0558  -12.4246   25.6594 C   0  0  0  0  0  0  0  0  0  0  0  0
    6.9089  -11.4939   26.2259 C   0  0  0  0  0  0  0  0  0  0  0  0
    8.0439  -11.8445   26.8971 C   0  0  0  0  0  0  0  0  0  0  0  0
    8.3642  -13.1672   27.0230 C   0  0  0  0  0  0  0  0  0  0  0  0
    7.5411  -14.1268   26.4733 C   0  0  0  0  0  0  0  0  0  0  0  0
   10.9543  -17.3076   26.6760 O   0  0  0  0  0  0  0  0  0  0  0  0
   11.2054  -18.4453   26.1773 O   0  0  0  0  0  0  0  0  0  0  0  0
  2  1  1  1
  3  2  1  0
  4  3  1  0
  5  6  2  0
  5  2  1  0
  7  8  1  0
  8  9  2  0
 10 11  1  0
 10  8  1  0
 11 12  1  0
 12 13  1  0
 14 13  1  6
 14 15  1  0
 15  5  1  0
 16 14  1  0
 17 16  2  0
 18 16  1  0
 19 30  1  0
 19 18  1  0
 19 20  1  1
 21 22  2  0
 21 20  1  0
 23 22  1  0
 24 29  2  0
 24 23  1  0
 25 24  1  0
 26 27  1  0
 26 25  2  0
 27 28  2  0
 28 29  1  0
 29 21  1  0
 30 32  1  0
 31 30  2  0
M  END
$$$$
