CRW.pdb
     RDKit          3D

 32 33  0  0  1  0  0  0  0  0999 V2000
    7.6538  -14.7119   18.4139 N   0  0  0  0  0  0  0  0  0  0  0  0
    8.3058  -14.4288   19.6713 C   0  0  1  0  0  0  0  0  0  0  0  0
    7.7592  -13.2032   20.3237 C   0  0  0  0  0  0  0  0  0  0  0  0
    8.1591  -11.6762   19.4774 S   0  0  0  0  0  0  0  0  0  0  0  0
    8.3051  -15.6223   20.5565 C   0  0  0  0  0  0  0  0  0  0  0  0
    7.3156  -16.3768   20.6828 O   0  0  0  0  0  0  0  0  0  0  0  0
   10.3295  -19.6358   17.5036 N   0  0  0  0  0  0  0  0  0  0  0  0
   11.6104  -19.1587   17.9098 C   0  0  0  0  0  0  0  0  0  0  0  0
   12.2879  -18.5031   17.0323 N   0  0  0  0  0  0  0  0  0  0  0  0
   12.1444  -19.3763   19.2067 N   0  0  0  0  0  0  0  0  0  0  0  0
   11.3573  -19.7986   20.3188 C   0  0  0  0  0  0  0  0  0  0  0  0
   10.2144  -18.8571   20.6307 C   0  0  0  0  0  0  0  0  0  0  0  0
   10.6055  -18.0036   21.7969 C   0  0  0  0  0  0  0  0  0  0  0  0
    9.5793  -17.0153   22.2390 C   0  0  2  0  0  0  0  0  0  0  0  0
    9.4667  -15.9284   21.2927 N   0  0  0  0  0  0  0  0  0  0  0  0
   10.0486  -16.4968   23.5758 C   0  0  0  0  0  0  0  0  0  0  0  0
   10.9335  -15.6094   23.6491 O   0  0  0  0  0  0  0  0  0  0  0  0
   13.2317  -18.1378   17.1680 N   0  0  0  0  0  0  0  0  0  0  0  0
    9.4859  -17.0159   24.7551 C   0  0  1  0  0  0  0  0  0  0  0  0
    9.9238  -16.5653   26.0783 C   0  0  0  0  0  0  0  0  0  0  0  0
    8.6732  -16.4776   26.9641 C   0  0  0  0  0  0  0  0  0  0  0  0
    7.6859  -15.5364   26.3371 C   0  0  0  0  0  0  0  0  0  0  0  0
    6.5830  -15.8321   25.5663 N   0  0  0  0  0  0  0  0  0  0  0  0
    5.9867  -14.6861   25.2170 C   0  0  0  0  0  0  0  0  0  0  0  0
    6.6468  -13.6349   25.7234 C   0  0  0  0  0  0  0  0  0  0  0  0
    6.4367  -12.2727   25.6492 C   0  0  0  0  0  0  0  0  0  0  0  0
    7.3413  -11.4604   26.3101 C   0  0  0  0  0  0  0  0  0  0  0  0
    8.4023  -11.9543   27.0113 C   0  0  0  0  0  0  0  0  0  0  0  0
    8.5922  -13.3064   27.0722 C   0  0  0  0  0  0  0  0  0  0  0  0
    7.7139  -14.1512   26.4277 C   0  0  0  0  0  0  0  0  0  0  0  0
   10.8727  -17.5352   26.6677 O   0  0  0  0  0  0  0  0  0  0  0  0
   11.3629  -17.3705   27.8248 O   0  0  0  0  0  0  0  0  0  0  0  0
  2  1  1  6
  3  2  1  0
  4  3  1  0
  5  6  2  0
  5  2  1  0
  7  8  1  0
  8  9  2  0
 10 11  1  0
 10  8  1  0
 11 12  1  0
 12 13  1  0
 14 13  1  6
 14 15  1  0
 15  5  1  0
 16 14  1  0
 17 16  2  0
 18 16  1  0
 19 30  1  0
 19 18  1  0
 19 20  1  1
 21 22  2  0
 21 20  1  0
 23 22  1  0
 24 29  2  0
 24 23  1  0
 25 24  1  0
 26 27  1  0
 26 25  2  0
 27 28  2  0
 28 29  1  0
 29 21  1  0
 30 32  1  0
 31 30  2  0
M  END
$$$$
