CRW.pdb
     RDKit          3D

 32 33  0  0  1  0  0  0  0  0999 V2000
    7.3082  -13.4800   17.9394 N   0  0  0  0  0  0  0  0  0  0  0  0
    8.3980  -13.7618   18.8445 C   0  0  1  0  0  0  0  0  0  0  0  0
    8.9635  -12.5191   19.4465 C   0  0  0  0  0  0  0  0  0  0  0  0
    7.9562  -11.8027   20.7426 S   0  0  0  0  0  0  0  0  0  0  0  0
    8.0092  -14.7841   19.8503 C   0  0  0  0  0  0  0  0  0  0  0  0
    6.8193  -15.0324   20.1451 O   0  0  0  0  0  0  0  0  0  0  0  0
   10.7484  -19.5491   16.4809 N   0  0  0  0  0  0  0  0  0  0  0  0
   11.8623  -19.6243   17.3678 C   0  0  0  0  0  0  0  0  0  0  0  0
   13.0254  -19.7383   16.8265 N   0  0  0  0  0  0  0  0  0  0  0  0
   11.7342  -19.5793   18.7806 N   0  0  0  0  0  0  0  0  0  0  0  0
   10.4923  -19.3681   19.4497 C   0  0  0  0  0  0  0  0  0  0  0  0
   10.3925  -18.0070   20.1034 C   0  0  0  0  0  0  0  0  0  0  0  0
    9.0767  -17.9144   20.8117 C   0  0  0  0  0  0  0  0  0  0  0  0
    8.7795  -16.5942   21.4393 C   0  0  2  0  0  0  0  0  0  0  0  0
    9.0183  -15.5139   20.5091 N   0  0  0  0  0  0  0  0  0  0  0  0
    9.7067  -16.4775   22.6237 C   0  0  0  0  0  0  0  0  0  0  0  0
   10.9215  -16.2021   22.4675 O   0  0  0  0  0  0  0  0  0  0  0  0
   13.9125  -19.7542   17.3321 N   0  0  0  0  0  0  0  0  0  0  0  0
    9.2016  -16.6805   23.9200 C   0  0  1  0  0  0  0  0  0  0  0  0
   10.0586  -16.5767   25.1035 C   0  0  0  0  0  0  0  0  0  0  0  0
    9.8216  -15.1886   25.7144 C   0  0  0  0  0  0  0  0  0  0  0  0
    8.3524  -14.9976   25.9577 C   0  0  0  0  0  0  0  0  0  0  0  0
    7.3262  -15.9009   25.7880 N   0  0  0  0  0  0  0  0  0  0  0  0
    6.1749  -15.3068   26.1236 C   0  0  0  0  0  0  0  0  0  0  0  0
    6.3899  -14.0416   26.5112 C   0  0  0  0  0  0  0  0  0  0  0  0
    5.5462  -13.0380   26.9425 C   0  0  0  0  0  0  0  0  0  0  0  0
    6.1273  -11.8249   27.2675 C   0  0  0  0  0  0  0  0  0  0  0  0
    7.4701  -11.6011   27.1760 C   0  0  0  0  0  0  0  0  0  0  0  0
    8.2879  -12.6085   26.7466 C   0  0  0  0  0  0  0  0  0  0  0  0
    7.7493  -13.8328   26.4128 C   0  0  0  0  0  0  0  0  0  0  0  0
    9.6999  -17.6144   26.0950 O   0  0  0  0  0  0  0  0  0  0  0  0
    8.6767  -18.3486   25.9523 O   0  0  0  0  0  0  0  0  0  0  0  0
  2  1  1  1
  3  2  1  0
  4  3  1  0
  5  6  2  0
  5  2  1  0
  7  8  1  0
  8  9  2  0
 10 11  1  0
 10  8  1  0
 11 12  1  0
 12 13  1  0
 14 13  1  6
 14 15  1  0
 15  5  1  0
 16 14  1  0
 17 16  2  0
 18 16  1  0
 19 30  1  0
 19 18  1  0
 19 20  1  1
 21 22  2  0
 21 20  1  0
 23 22  1  0
 24 29  2  0
 24 23  1  0
 25 24  1  0
 26 27  1  0
 26 25  2  0
 27 28  2  0
 28 29  1  0
 29 21  1  0
 30 32  1  0
 31 30  2  0
M  END
$$$$
