CRW.pdb
     RDKit          3D

 32 33  0  0  1  0  0  0  0  0999 V2000
    6.5279  -18.8233   19.4333 N   0  0  0  0  0  0  0  0  0  0  0  0
    6.6445  -18.1771   20.7199 C   0  0  1  0  0  0  0  0  0  0  0  0
    5.6362  -18.6838   21.6961 C   0  0  0  0  0  0  0  0  0  0  0  0
    5.7793  -17.9799   23.3368 S   0  0  0  0  0  0  0  0  0  0  0  0
    8.0406  -18.2356   21.2250 C   0  0  0  0  0  0  0  0  0  0  0  0
    8.6382  -19.3103   21.4542 O   0  0  0  0  0  0  0  0  0  0  0  0
   10.0454  -16.7666   17.5376 N   0  0  0  0  0  0  0  0  0  0  0  0
   11.3912  -16.7795   17.0666 C   0  0  0  0  0  0  0  0  0  0  0  0
   11.5803  -17.2155   15.8695 N   0  0  0  0  0  0  0  0  0  0  0  0
   12.4918  -16.3421   17.8488 N   0  0  0  0  0  0  0  0  0  0  0  0
   12.3696  -15.9087   19.2023 C   0  0  0  0  0  0  0  0  0  0  0  0
   11.6269  -16.8944   20.0780 C   0  0  0  0  0  0  0  0  0  0  0  0
   10.9674  -16.1399   21.1903 C   0  0  0  0  0  0  0  0  0  0  0  0
   10.0500  -16.9416   22.0512 C   0  0  2  0  0  0  0  0  0  0  0  0
    8.7338  -17.0319   21.4606 N   0  0  0  0  0  0  0  0  0  0  0  0
    9.9803  -16.2179   23.3731 C   0  0  0  0  0  0  0  0  0  0  0  0
   10.0552  -14.9660   23.4281 O   0  0  0  0  0  0  0  0  0  0  0  0
   12.4721  -17.2056   15.3720 N   0  0  0  0  0  0  0  0  0  0  0  0
    9.8294  -16.9576   24.5593 C   0  0  1  0  0  0  0  0  0  0  0  0
   10.1446  -16.3821   25.8689 C   0  0  0  0  0  0  0  0  0  0  0  0
    8.9104  -16.5797   26.7598 C   0  0  0  0  0  0  0  0  0  0  0  0
    7.7537  -15.8168   26.1820 C   0  0  0  0  0  0  0  0  0  0  0  0
    6.6455  -16.3007   25.5220 N   0  0  0  0  0  0  0  0  0  0  0  0
    5.8681  -15.2670   25.1784 C   0  0  0  0  0  0  0  0  0  0  0  0
    6.4121  -14.1102   25.5822 C   0  0  0  0  0  0  0  0  0  0  0  0
    6.0073  -12.7954   25.4702 C   0  0  0  0  0  0  0  0  0  0  0  0
    6.8385  -11.8332   26.0166 C   0  0  0  0  0  0  0  0  0  0  0  0
    8.0109  -12.1397   26.6435 C   0  0  0  0  0  0  0  0  0  0  0  0
    8.3932  -13.4481   26.7436 C   0  0  0  0  0  0  0  0  0  0  0  0
    7.5939  -14.4379   26.2126 C   0  0  0  0  0  0  0  0  0  0  0  0
   11.3010  -17.0775   26.4753 O   0  0  0  0  0  0  0  0  0  0  0  0
   11.8334  -18.0891   25.9281 O   0  0  0  0  0  0  0  0  0  0  0  0
  2  1  1  6
  3  2  1  0
  4  3  1  0
  5  6  2  0
  5  2  1  0
  7  8  1  0
  8  9  2  0
 10 11  1  0
 10  8  1  0
 11 12  1  0
 12 13  1  0
 14 13  1  6
 14 15  1  0
 15  5  1  0
 16 14  1  0
 17 16  2  0
 18 16  1  0
 19 30  1  0
 19 18  1  0
 19 20  1  1
 21 22  2  0
 21 20  1  0
 23 22  1  0
 24 29  2  0
 24 23  1  0
 25 24  1  0
 26 27  1  0
 26 25  2  0
 27 28  2  0
 28 29  1  0
 29 21  1  0
 30 32  1  0
 31 30  2  0
M  END
$$$$
