CRW.pdb
     RDKit          3D

 32 33  0  0  1  0  0  0  0  0999 V2000
    5.8451  -21.0358   22.7316 N   0  0  0  0  0  0  0  0  0  0  0  0
    6.3211  -19.8950   23.4789 C   0  0  1  0  0  0  0  0  0  0  0  0
    6.2005  -20.0987   24.9521 C   0  0  0  0  0  0  0  0  0  0  0  0
    6.7854  -18.7223   25.9375 S   0  0  0  0  0  0  0  0  0  0  0  0
    7.6863  -19.5010   23.0445 C   0  0  0  0  0  0  0  0  0  0  0  0
    8.6271  -20.3171   22.9290 O   0  0  0  0  0  0  0  0  0  0  0  0
    8.4926  -12.7227   17.8150 N   0  0  0  0  0  0  0  0  0  0  0  0
    7.6492  -13.0903   18.9044 C   0  0  0  0  0  0  0  0  0  0  0  0
    7.1618  -12.1279   19.6082 N   0  0  0  0  0  0  0  0  0  0  0  0
    7.3405  -14.4375   19.2271 N   0  0  0  0  0  0  0  0  0  0  0  0
    8.3287  -15.4112   19.5588 C   0  0  0  0  0  0  0  0  0  0  0  0
    8.2839  -15.8335   21.0113 C   0  0  0  0  0  0  0  0  0  0  0  0
    9.3411  -16.8689   21.2387 C   0  0  0  0  0  0  0  0  0  0  0  0
    9.2623  -17.5878   22.5435 C   0  0  2  0  0  0  0  0  0  0  0  0
    7.9455  -18.1486   22.7462 N   0  0  0  0  0  0  0  0  0  0  0  0
    9.5601  -16.5582   23.6053 C   0  0  0  0  0  0  0  0  0  0  0  0
    9.5159  -15.3310   23.3446 O   0  0  0  0  0  0  0  0  0  0  0  0
    6.5844  -12.2411   20.4429 N   0  0  0  0  0  0  0  0  0  0  0  0
    9.8917  -16.9809   24.9046 C   0  0  1  0  0  0  0  0  0  0  0  0
   10.4495  -16.0562   25.8944 C   0  0  0  0  0  0  0  0  0  0  0  0
    9.4306  -15.9467   27.0372 C   0  0  0  0  0  0  0  0  0  0  0  0
    8.1618  -15.3379   26.5143 C   0  0  0  0  0  0  0  0  0  0  0  0
    7.0336  -15.9708   26.0406 N   0  0  0  0  0  0  0  0  0  0  0  0
    6.1432  -15.0403   25.6767 C   0  0  0  0  0  0  0  0  0  0  0  0
    6.6309  -13.8096   25.8882 C   0  0  0  0  0  0  0  0  0  0  0  0
    6.1113  -12.5478   25.6803 C   0  0  0  0  0  0  0  0  0  0  0  0
    6.9142  -11.4735   26.0212 C   0  0  0  0  0  0  0  0  0  0  0  0
    8.1667  -11.6232   26.5410 C   0  0  0  0  0  0  0  0  0  0  0  0
    8.6623  -12.8815   26.7389 C   0  0  0  0  0  0  0  0  0  0  0  0
    7.8947  -13.9792   26.4127 C   0  0  0  0  0  0  0  0  0  0  0  0
   11.7272  -16.5776   26.4275 O   0  0  0  0  0  0  0  0  0  0  0  0
   12.1934  -17.6991   26.0655 O   0  0  0  0  0  0  0  0  0  0  0  0
  2  1  1  6
  3  2  1  0
  4  3  1  0
  5  6  2  0
  5  2  1  0
  7  8  1  0
  8  9  2  0
 10 11  1  0
 10  8  1  0
 11 12  1  0
 12 13  1  0
 14 13  1  6
 14 15  1  0
 15  5  1  0
 16 14  1  0
 17 16  2  0
 18 16  1  0
 19 30  1  0
 19 18  1  0
 19 20  1  6
 21 22  2  0
 21 20  1  0
 23 22  1  0
 24 29  2  0
 24 23  1  0
 25 24  1  0
 26 27  1  0
 26 25  2  0
 27 28  2  0
 28 29  1  0
 29 21  1  0
 30 32  1  0
 31 30  2  0
M  END
$$$$
