CRW.pdb
     RDKit          3D

 32 33  0  0  1  0  0  0  0  0999 V2000
   13.7486  -16.8779   18.7768 N   0  0  0  0  0  0  0  0  0  0  0  0
   12.8874  -17.5958   19.6875 C   0  0  1  0  0  0  0  0  0  0  0  0
   13.5661  -18.7834   20.2836 C   0  0  0  0  0  0  0  0  0  0  0  0
   12.4939  -19.8311   21.2637 S   0  0  0  0  0  0  0  0  0  0  0  0
   12.2950  -16.6819   20.6983 C   0  0  0  0  0  0  0  0  0  0  0  0
   12.9675  -15.8399   21.3335 O   0  0  0  0  0  0  0  0  0  0  0  0
    8.2481  -15.5007   17.0703 N   0  0  0  0  0  0  0  0  0  0  0  0
    7.7051  -14.2583   17.5115 C   0  0  0  0  0  0  0  0  0  0  0  0
    7.9625  -13.2252   16.7866 N   0  0  0  0  0  0  0  0  0  0  0  0
    6.9168  -14.1283   18.6846 N   0  0  0  0  0  0  0  0  0  0  0  0
    7.1782  -14.8460   19.8892 C   0  0  0  0  0  0  0  0  0  0  0  0
    8.6494  -14.9074   20.2380 C   0  0  0  0  0  0  0  0  0  0  0  0
    8.8066  -15.6951   21.5015 C   0  0  0  0  0  0  0  0  0  0  0  0
   10.2138  -15.9428   21.9301 C   0  0  2  0  0  0  0  0  0  0  0  0
   10.9132  -16.7578   20.9625 N   0  0  0  0  0  0  0  0  0  0  0  0
   10.1261  -16.6630   23.2529 C   0  0  0  0  0  0  0  0  0  0  0  0
   10.2168  -17.9136   23.3139 O   0  0  0  0  0  0  0  0  0  0  0  0
    7.6931  -12.2658   17.0100 N   0  0  0  0  0  0  0  0  0  0  0  0
    9.9400  -15.9215   24.4329 C   0  0  2  0  0  0  0  0  0  0  0  0
    9.8943  -16.5673   25.7469 C   0  0  0  0  0  0  0  0  0  0  0  0
    9.5841  -15.4741   26.7787 C   0  0  0  0  0  0  0  0  0  0  0  0
    8.2151  -14.9171   26.5154 C   0  0  0  0  0  0  0  0  0  0  0  0
    7.0468  -15.5944   26.2430 N   0  0  0  0  0  0  0  0  0  0  0  0
    6.0649  -14.7009   26.0739 C   0  0  0  0  0  0  0  0  0  0  0  0
    6.5298  -13.4523   26.2224 C   0  0  0  0  0  0  0  0  0  0  0  0
    5.9265  -12.2131   26.1462 C   0  0  0  0  0  0  0  0  0  0  0  0
    6.7317  -11.1080   26.3595 C   0  0  0  0  0  0  0  0  0  0  0  0
    8.0644  -11.2073   26.6345 C   0  0  0  0  0  0  0  0  0  0  0  0
    8.6420  -12.4439   26.7053 C   0  0  0  0  0  0  0  0  0  0  0  0
    7.8753  -13.5710   26.4993 C   0  0  0  0  0  0  0  0  0  0  0  0
    8.8267  -17.5908   25.7839 O   0  0  0  0  0  0  0  0  0  0  0  0
    7.9042  -17.6247   24.9155 O   0  0  0  0  0  0  0  0  0  0  0  0
  2  1  1  1
  3  2  1  0
  4  3  1  0
  5  6  2  0
  5  2  1  0
  7  8  1  0
  8  9  2  0
 10 11  1  0
 10  8  1  0
 11 12  1  0
 12 13  1  0
 14 13  1  6
 14 15  1  0
 15  5  1  0
 16 14  1  0
 17 16  2  0
 18 16  1  0
 19 30  1  0
 19 18  1  0
 19 20  1  1
 21 22  2  0
 21 20  1  0
 23 22  1  0
 24 29  2  0
 24 23  1  0
 25 24  1  0
 26 27  1  0
 26 25  2  0
 27 28  2  0
 28 29  1  0
 29 21  1  0
 30 32  1  0
 31 30  2  0
M  END
$$$$
