CRW.pdb
     RDKit          3D

 32 33  0  0  1  0  0  0  0  0999 V2000
    7.3148  -14.6518   18.6454 N   0  0  0  0  0  0  0  0  0  0  0  0
    7.8813  -14.2393   19.9084 C   0  0  1  0  0  0  0  0  0  0  0  0
    7.2868  -12.9620   20.3999 C   0  0  0  0  0  0  0  0  0  0  0  0
    7.9065  -12.4244   21.9920 S   0  0  0  0  0  0  0  0  0  0  0  0
    7.8284  -15.3401   20.9050 C   0  0  0  0  0  0  0  0  0  0  0  0
    6.8458  -16.1046   21.0250 O   0  0  0  0  0  0  0  0  0  0  0  0
   12.7872  -18.2285   18.5060 N   0  0  0  0  0  0  0  0  0  0  0  0
   12.1883  -19.3582   19.1371 C   0  0  0  0  0  0  0  0  0  0  0  0
   11.8435  -20.3335   18.3697 N   0  0  0  0  0  0  0  0  0  0  0  0
   11.9672  -19.4391   20.5367 N   0  0  0  0  0  0  0  0  0  0  0  0
   12.1353  -18.3341   21.4229 C   0  0  0  0  0  0  0  0  0  0  0  0
   11.0361  -17.3012   21.3014 C   0  0  0  0  0  0  0  0  0  0  0  0
    9.8816  -17.7326   22.1515 C   0  0  0  0  0  0  0  0  0  0  0  0
    9.0486  -16.6271   22.7077 C   0  0  2  0  0  0  0  0  0  0  0  0
    8.9298  -15.5420   21.7602 N   0  0  0  0  0  0  0  0  0  0  0  0
    9.7579  -16.1568   23.9534 C   0  0  0  0  0  0  0  0  0  0  0  0
   10.7824  -15.4350   23.8790 O   0  0  0  0  0  0  0  0  0  0  0  0
   11.4028  -21.2010   18.6799 N   0  0  0  0  0  0  0  0  0  0  0  0
    9.2634  -16.5331   25.2146 C   0  0  1  0  0  0  0  0  0  0  0  0
   10.0253  -16.2911   26.4421 C   0  0  0  0  0  0  0  0  0  0  0  0
    9.0308  -15.8019   27.5040 C   0  0  0  0  0  0  0  0  0  0  0  0
    7.9191  -15.0482   26.8331 C   0  0  0  0  0  0  0  0  0  0  0  0
    6.7602  -15.5393   26.2731 N   0  0  0  0  0  0  0  0  0  0  0  0
    6.0533  -14.5127   25.7859 C   0  0  0  0  0  0  0  0  0  0  0  0
    6.6932  -13.3539   25.9977 C   0  0  0  0  0  0  0  0  0  0  0  0
    6.3850  -12.0440   25.6900 C   0  0  0  0  0  0  0  0  0  0  0  0
    7.3005  -11.0777   26.0682 C   0  0  0  0  0  0  0  0  0  0  0  0
    8.4633  -11.3754   26.7168 C   0  0  0  0  0  0  0  0  0  0  0  0
    8.7492  -12.6789   27.0119 C   0  0  0  0  0  0  0  0  0  0  0  0
    7.8638  -13.6727   26.6527 C   0  0  0  0  0  0  0  0  0  0  0  0
   10.6639  -17.5409   26.9099 O   0  0  0  0  0  0  0  0  0  0  0  0
   10.4485  -18.6534   26.3424 O   0  0  0  0  0  0  0  0  0  0  0  0
  2  1  1  6
  3  2  1  0
  4  3  1  0
  5  6  2  0
  5  2  1  0
  7  8  1  0
  8  9  2  0
 10 11  1  0
 10  8  1  0
 11 12  1  0
 12 13  1  0
 14 13  1  6
 14 15  1  0
 15  5  1  0
 16 14  1  0
 17 16  2  0
 18 16  1  0
 19 30  1  0
 19 18  1  0
 19 20  1  6
 21 22  2  0
 21 20  1  0
 23 22  1  0
 24 29  2  0
 24 23  1  0
 25 24  1  0
 26 27  1  0
 26 25  2  0
 27 28  2  0
 28 29  1  0
 29 21  1  0
 30 32  1  0
 31 30  2  0
M  END
$$$$
