CRW.pdb
     RDKit          3D

 32 33  0  0  1  0  0  0  0  0999 V2000
   12.9062  -14.7212   18.0960 N   0  0  0  0  0  0  0  0  0  0  0  0
   12.9591  -15.6173   19.2276 C   0  0  1  0  0  0  0  0  0  0  0  0
   14.3180  -15.6666   19.8418 C   0  0  0  0  0  0  0  0  0  0  0  0
   14.9183  -14.0860   20.4327 S   0  0  0  0  0  0  0  0  0  0  0  0
   11.8786  -15.3153   20.2018 C   0  0  0  0  0  0  0  0  0  0  0  0
   11.4315  -14.1622   20.3883 O   0  0  0  0  0  0  0  0  0  0  0  0
    5.7208  -17.6958   18.0465 N   0  0  0  0  0  0  0  0  0  0  0  0
    7.0811  -17.5782   17.6355 C   0  0  0  0  0  0  0  0  0  0  0  0
    7.3444  -16.6695   16.7615 N   0  0  0  0  0  0  0  0  0  0  0  0
    8.1192  -18.4032   18.1417 N   0  0  0  0  0  0  0  0  0  0  0  0
    8.5122  -18.4174   19.5129 C   0  0  0  0  0  0  0  0  0  0  0  0
    8.5850  -17.0356   20.1254 C   0  0  0  0  0  0  0  0  0  0  0  0
    9.1087  -17.1612   21.5223 C   0  0  0  0  0  0  0  0  0  0  0  0
   10.2178  -16.2283   21.8760 C   0  0  2  0  0  0  0  0  0  0  0  0
   11.3242  -16.3681   20.9564 N   0  0  0  0  0  0  0  0  0  0  0  0
   10.6490  -16.6038   23.2722 C   0  0  0  0  0  0  0  0  0  0  0  0
   11.5642  -17.4420   23.4613 O   0  0  0  0  0  0  0  0  0  0  0  0
    8.2735  -16.4526   16.3974 N   0  0  0  0  0  0  0  0  0  0  0  0
   10.0158  -16.0057   24.3759 C   0  0  2  0  0  0  0  0  0  0  0  0
   10.3373  -16.3962   25.7506 C   0  0  0  0  0  0  0  0  0  0  0  0
    9.7809  -15.3036   26.6741 C   0  0  0  0  0  0  0  0  0  0  0  0
    8.3338  -15.0692   26.3499 C   0  0  0  0  0  0  0  0  0  0  0  0
    7.2934  -15.9722   26.3498 N   0  0  0  0  0  0  0  0  0  0  0  0
    6.1723  -15.3316   25.9981 C   0  0  0  0  0  0  0  0  0  0  0  0
    6.4211  -14.0355   25.7628 C   0  0  0  0  0  0  0  0  0  0  0  0
    5.6159  -12.9816   25.3803 C   0  0  0  0  0  0  0  0  0  0  0  0
    6.2253  -11.7488   25.2264 C   0  0  0  0  0  0  0  0  0  0  0  0
    7.5592  -11.5529   25.4360 C   0  0  0  0  0  0  0  0  0  0  0  0
    8.3387  -12.6100   25.8143 C   0  0  0  0  0  0  0  0  0  0  0  0
    7.7710  -13.8554   25.9789 C   0  0  0  0  0  0  0  0  0  0  0  0
    9.6999  -17.6888   26.0841 O   0  0  0  0  0  0  0  0  0  0  0  0
    8.7959  -18.1952   25.3543 O   0  0  0  0  0  0  0  0  0  0  0  0
  2  1  1  6
  3  2  1  0
  4  3  1  0
  5  6  2  0
  5  2  1  0
  7  8  1  0
  8  9  2  0
 10 11  1  0
 10  8  1  0
 11 12  1  0
 12 13  1  0
 14 13  1  6
 14 15  1  0
 15  5  1  0
 16 14  1  0
 17 16  2  0
 18 16  1  0
 19 30  1  0
 19 18  1  0
 19 20  1  6
 21 22  2  0
 21 20  1  0
 23 22  1  0
 24 29  2  0
 24 23  1  0
 25 24  1  0
 26 27  1  0
 26 25  2  0
 27 28  2  0
 28 29  1  0
 29 21  1  0
 30 32  1  0
 31 30  2  0
M  END
$$$$
