CRW.pdb
     RDKit          3D

 32 33  0  0  1  0  0  0  0  0999 V2000
    6.7832  -21.4198   22.8084 N   0  0  0  0  0  0  0  0  0  0  0  0
    6.4077  -20.0528   23.0854 C   0  0  1  0  0  0  0  0  0  0  0  0
    6.1378  -19.8276   24.5355 C   0  0  0  0  0  0  0  0  0  0  0  0
    7.3256  -18.7633   25.3504 S   0  0  0  0  0  0  0  0  0  0  0  0
    7.3915  -19.0993   22.5102 C   0  0  0  0  0  0  0  0  0  0  0  0
    8.5724  -19.4151   22.2455 O   0  0  0  0  0  0  0  0  0  0  0  0
    9.3145  -14.8800   16.6521 N   0  0  0  0  0  0  0  0  0  0  0  0
    8.6348  -13.7690   17.2324 C   0  0  0  0  0  0  0  0  0  0  0  0
    8.0124  -12.9848   16.4221 N   0  0  0  0  0  0  0  0  0  0  0  0
    8.6229  -13.5085   18.6276 N   0  0  0  0  0  0  0  0  0  0  0  0
    8.5222  -14.5319   19.6161 C   0  0  0  0  0  0  0  0  0  0  0  0
    7.1575  -15.1842   19.6604 C   0  0  0  0  0  0  0  0  0  0  0  0
    6.9077  -15.6712   21.0540 C   0  0  0  0  0  0  0  0  0  0  0  0
    7.7605  -16.8128   21.4952 C   0  0  2  0  0  0  0  0  0  0  0  0
    6.9874  -17.7756   22.2466 N   0  0  0  0  0  0  0  0  0  0  0  0
    8.8386  -16.2158   22.3656 C   0  0  0  0  0  0  0  0  0  0  0  0
    9.6077  -15.3280   21.9225 O   0  0  0  0  0  0  0  0  0  0  0  0
    7.4854  -12.1534   16.6937 N   0  0  0  0  0  0  0  0  0  0  0  0
    8.9826  -16.6611   23.6914 C   0  0  1  0  0  0  0  0  0  0  0  0
   10.0432  -16.1498   24.5627 C   0  0  0  0  0  0  0  0  0  0  0  0
    9.6747  -14.7045   24.9252 C   0  0  0  0  0  0  0  0  0  0  0  0
    8.3251  -14.6863   25.5826 C   0  0  0  0  0  0  0  0  0  0  0  0
    7.4217  -15.7166   25.7247 N   0  0  0  0  0  0  0  0  0  0  0  0
    6.3470  -15.2552   26.3751 C   0  0  0  0  0  0  0  0  0  0  0  0
    6.4953  -13.9568   26.6740 C   0  0  0  0  0  0  0  0  0  0  0  0
    5.6858  -13.0470   27.3238 C   0  0  0  0  0  0  0  0  0  0  0  0
    6.1704  -11.7577   27.4571 C   0  0  0  0  0  0  0  0  0  0  0  0
    7.3889  -11.3735   26.9784 C   0  0  0  0  0  0  0  0  0  0  0  0
    8.1748  -12.2902   26.3381 C   0  0  0  0  0  0  0  0  0  0  0  0
    7.7295  -13.5857   26.1841 C   0  0  0  0  0  0  0  0  0  0  0  0
   10.1308  -16.9563   25.7998 O   0  0  0  0  0  0  0  0  0  0  0  0
    9.3043  -17.8834   26.0520 O   0  0  0  0  0  0  0  0  0  0  0  0
  2  1  1  1
  3  2  1  0
  4  3  1  0
  5  6  2  0
  5  2  1  0
  7  8  1  0
  8  9  2  0
 10 11  1  0
 10  8  1  0
 11 12  1  0
 12 13  1  0
 14 13  1  1
 14 15  1  0
 15  5  1  0
 16 14  1  0
 17 16  2  0
 18 16  1  0
 19 30  1  0
 19 18  1  0
 19 20  1  1
 21 22  2  0
 21 20  1  0
 23 22  1  0
 24 29  2  0
 24 23  1  0
 25 24  1  0
 26 27  1  0
 26 25  2  0
 27 28  2  0
 28 29  1  0
 29 21  1  0
 30 32  1  0
 31 30  2  0
M  END
$$$$
