CRW.pdb
     RDKit          3D

 32 33  0  0  1  0  0  0  0  0999 V2000
    7.8091  -14.4970   17.2744 N   0  0  0  0  0  0  0  0  0  0  0  0
    8.5913  -14.2222   18.4573 C   0  0  1  0  0  0  0  0  0  0  0  0
    8.6526  -12.7631   18.7634 C   0  0  0  0  0  0  0  0  0  0  0  0
    9.6212  -12.3535   20.2132 S   0  0  0  0  0  0  0  0  0  0  0  0
    8.1377  -15.0502   19.6046 C   0  0  0  0  0  0  0  0  0  0  0  0
    7.0064  -14.9330   20.1249 O   0  0  0  0  0  0  0  0  0  0  0  0
    6.2265  -21.8732   21.9823 N   0  0  0  0  0  0  0  0  0  0  0  0
    6.9534  -21.8248   20.7565 C   0  0  0  0  0  0  0  0  0  0  0  0
    6.5174  -22.5644   19.7964 N   0  0  0  0  0  0  0  0  0  0  0  0
    8.1035  -21.0149   20.5674 N   0  0  0  0  0  0  0  0  0  0  0  0
    8.9796  -20.6362   21.6275 C   0  0  0  0  0  0  0  0  0  0  0  0
    8.7411  -19.2258   22.1215 C   0  0  0  0  0  0  0  0  0  0  0  0
    8.8716  -18.2871   20.9625 C   0  0  0  0  0  0  0  0  0  0  0  0
    8.7256  -16.8396   21.2921 C   0  0  2  0  0  0  0  0  0  0  0  0
    9.0134  -16.0153   20.1401 N   0  0  0  0  0  0  0  0  0  0  0  0
    9.7175  -16.5608   22.3941 C   0  0  0  0  0  0  0  0  0  0  0  0
   10.9482  -16.7293   22.2124 O   0  0  0  0  0  0  0  0  0  0  0  0
    6.9207  -22.6133   18.8595 N   0  0  0  0  0  0  0  0  0  0  0  0
    9.2554  -16.1061   23.6417 C   0  0  2  0  0  0  0  0  0  0  0  0
   10.1750  -15.8339   24.7490 C   0  0  0  0  0  0  0  0  0  0  0  0
    9.7597  -14.4899   25.3632 C   0  0  0  0  0  0  0  0  0  0  0  0
    8.2876  -14.5122   25.6569 C   0  0  0  0  0  0  0  0  0  0  0  0
    7.4156  -15.5778   25.6112 N   0  0  0  0  0  0  0  0  0  0  0  0
    6.1949  -15.1451   25.9482 C   0  0  0  0  0  0  0  0  0  0  0  0
    6.2152  -13.8321   26.2177 C   0  0  0  0  0  0  0  0  0  0  0  0
    5.2348  -12.9394   26.6015 C   0  0  0  0  0  0  0  0  0  0  0  0
    5.6226  -11.6254   26.7962 C   0  0  0  0  0  0  0  0  0  0  0  0
    6.9080  -11.2015   26.6245 C   0  0  0  0  0  0  0  0  0  0  0  0
    7.8635  -12.1018   26.2442 C   0  0  0  0  0  0  0  0  0  0  0  0
    7.5192  -13.4209   26.0396 C   0  0  0  0  0  0  0  0  0  0  0  0
   10.0748  -16.8926   25.7774 O   0  0  0  0  0  0  0  0  0  0  0  0
    9.1559  -17.7651   25.7498 O   0  0  0  0  0  0  0  0  0  0  0  0
  2  1  1  6
  3  2  1  0
  4  3  1  0
  5  6  2  0
  5  2  1  0
  7  8  1  0
  8  9  2  0
 10 11  1  0
 10  8  1  0
 11 12  1  0
 12 13  1  0
 14 13  1  6
 14 15  1  0
 15  5  1  0
 16 14  1  0
 17 16  2  0
 18 16  1  0
 19 30  1  0
 19 18  1  0
 19 20  1  6
 21 22  2  0
 21 20  1  0
 23 22  1  0
 24 29  2  0
 24 23  1  0
 25 24  1  0
 26 27  1  0
 26 25  2  0
 27 28  2  0
 28 29  1  0
 29 21  1  0
 30 32  1  0
 31 30  2  0
M  END
$$$$
