CRW.pdb
     RDKit          3D

 32 33  0  0  1  0  0  0  0  0999 V2000
    6.4420  -20.8749   22.4514 N   0  0  0  0  0  0  0  0  0  0  0  0
    6.3462  -19.4704   22.7747 C   0  0  1  0  0  0  0  0  0  0  0  0
    5.9748  -19.2470   24.2025 C   0  0  0  0  0  0  0  0  0  0  0  0
    5.8247  -20.7472   25.1692 S   0  0  0  0  0  0  0  0  0  0  0  0
    7.5715  -18.7396   22.3594 C   0  0  0  0  0  0  0  0  0  0  0  0
    8.6500  -19.3138   22.0917 O   0  0  0  0  0  0  0  0  0  0  0  0
    9.6585  -13.7854   18.5659 N   0  0  0  0  0  0  0  0  0  0  0  0
    8.2652  -13.4850   18.5240 C   0  0  0  0  0  0  0  0  0  0  0  0
    7.9453  -12.2540   18.3208 N   0  0  0  0  0  0  0  0  0  0  0  0
    7.2539  -14.4664   18.6934 N   0  0  0  0  0  0  0  0  0  0  0  0
    7.2746  -15.4431   19.7328 C   0  0  0  0  0  0  0  0  0  0  0  0
    7.0492  -14.8536   21.1081 C   0  0  0  0  0  0  0  0  0  0  0  0
    8.2874  -15.0612   21.9237 C   0  0  0  0  0  0  0  0  0  0  0  0
    8.6895  -16.4835   22.1256 C   0  0  2  0  0  0  0  0  0  0  0  0
    7.5291  -17.3349   22.2590 N   0  0  0  0  0  0  0  0  0  0  0  0
    9.5049  -16.5100   23.3946 C   0  0  0  0  0  0  0  0  0  0  0  0
   10.0174  -17.5781   23.8101 O   0  0  0  0  0  0  0  0  0  0  0  0
    6.9914  -11.8963   18.2503 N   0  0  0  0  0  0  0  0  0  0  0  0
    9.6925  -15.3210   24.1211 C   0  0  1  0  0  0  0  0  0  0  0  0
   10.3509  -15.3159   25.4296 C   0  0  0  0  0  0  0  0  0  0  0  0
    9.3865  -15.9755   26.4250 C   0  0  0  0  0  0  0  0  0  0  0  0
    8.0628  -15.2687   26.3763 C   0  0  0  0  0  0  0  0  0  0  0  0
    6.8025  -15.8078   26.2389 N   0  0  0  0  0  0  0  0  0  0  0  0
    5.9092  -14.8113   26.2444 C   0  0  0  0  0  0  0  0  0  0  0  0
    6.5217  -13.6266   26.3801 C   0  0  0  0  0  0  0  0  0  0  0  0
    6.0511  -12.3304   26.4401 C   0  0  0  0  0  0  0  0  0  0  0  0
    6.9920  -11.3263   26.5870 C   0  0  0  0  0  0  0  0  0  0  0  0
    8.3308  -11.5754   26.6716 C   0  0  0  0  0  0  0  0  0  0  0  0
    8.7757  -12.8662   26.6100 C   0  0  0  0  0  0  0  0  0  0  0  0
    7.8713  -13.8964   26.4640 C   0  0  0  0  0  0  0  0  0  0  0  0
   11.6084  -16.0936   25.3795 O   0  0  0  0  0  0  0  0  0  0  0  0
   11.9887  -16.6801   24.3223 O   0  0  0  0  0  0  0  0  0  0  0  0
  2  1  1  1
  3  2  1  0
  4  3  1  0
  5  6  2  0
  5  2  1  0
  7  8  1  0
  8  9  2  0
 10 11  1  0
 10  8  1  0
 11 12  1  0
 12 13  1  0
 14 13  1  1
 14 15  1  0
 15  5  1  0
 16 14  1  0
 17 16  2  0
 18 16  1  0
 19 30  1  0
 19 18  1  0
 19 20  1  1
 21 22  2  0
 21 20  1  0
 23 22  1  0
 24 29  2  0
 24 23  1  0
 25 24  1  0
 26 27  1  0
 26 25  2  0
 27 28  2  0
 28 29  1  0
 29 21  1  0
 30 32  1  0
 31 30  2  0
M  END
$$$$
