CRW.pdb
     RDKit          3D

 32 33  0  0  1  0  0  0  0  0999 V2000
    7.7093  -14.4434   18.3733 N   0  0  0  0  0  0  0  0  0  0  0  0
    8.2283  -14.4268   19.7211 C   0  0  1  0  0  0  0  0  0  0  0  0
    7.8310  -13.1932   20.4606 C   0  0  0  0  0  0  0  0  0  0  0  0
    8.3687  -11.6672   19.6925 S   0  0  0  0  0  0  0  0  0  0  0  0
    7.8934  -15.6831   20.4404 C   0  0  0  0  0  0  0  0  0  0  0  0
    6.8895  -16.3777   20.1680 O   0  0  0  0  0  0  0  0  0  0  0  0
   11.8457  -17.7405   17.5107 N   0  0  0  0  0  0  0  0  0  0  0  0
   12.9053  -18.1343   18.3798 C   0  0  0  0  0  0  0  0  0  0  0  0
   14.1031  -17.8679   17.9883 N   0  0  0  0  0  0  0  0  0  0  0  0
   12.6891  -18.7886   19.6206 N   0  0  0  0  0  0  0  0  0  0  0  0
   11.3934  -19.1088   20.1237 C   0  0  0  0  0  0  0  0  0  0  0  0
   10.7606  -17.9759   20.9022 C   0  0  0  0  0  0  0  0  0  0  0  0
    9.4366  -18.4392   21.4255 C   0  0  0  0  0  0  0  0  0  0  0  0
    8.6331  -17.4044   22.1389 C   0  0  2  0  0  0  0  0  0  0  0  0
    8.7378  -16.1226   21.4790 N   0  0  0  0  0  0  0  0  0  0  0  0
    9.2035  -17.3217   23.5331 C   0  0  0  0  0  0  0  0  0  0  0  0
    9.4109  -18.3598   24.2080 O   0  0  0  0  0  0  0  0  0  0  0  0
   14.9500  -18.0120   18.5405 N   0  0  0  0  0  0  0  0  0  0  0  0
    9.5065  -16.0637   24.0829 C   0  0  1  0  0  0  0  0  0  0  0  0
   10.0390  -15.9266   25.4406 C   0  0  0  0  0  0  0  0  0  0  0  0
    8.8959  -16.2545   26.4111 C   0  0  0  0  0  0  0  0  0  0  0  0
    7.6815  -15.4554   26.0358 C   0  0  0  0  0  0  0  0  0  0  0  0
    6.5113  -15.8887   25.4521 N   0  0  0  0  0  0  0  0  0  0  0  0
    5.6980  -14.8375   25.2953 C   0  0  0  0  0  0  0  0  0  0  0  0
    6.2775  -13.7179   25.7509 C   0  0  0  0  0  0  0  0  0  0  0  0
    5.8582  -12.4042   25.8116 C   0  0  0  0  0  0  0  0  0  0  0  0
    6.7391  -11.4880   26.3589 C   0  0  0  0  0  0  0  0  0  0  0  0
    7.9726  -11.8373   26.8258 C   0  0  0  0  0  0  0  0  0  0  0  0
    8.3682  -13.1437   26.7563 C   0  0  0  0  0  0  0  0  0  0  0  0
    7.5207  -14.0885   26.2181 C   0  0  0  0  0  0  0  0  0  0  0  0
   11.1522  -16.8762   25.6584 O   0  0  0  0  0  0  0  0  0  0  0  0
   11.8469  -16.8585   26.7183 O   0  0  0  0  0  0  0  0  0  0  0  0
  2  1  1  6
  3  2  1  0
  4  3  1  0
  5  6  2  0
  5  2  1  0
  7  8  1  0
  8  9  2  0
 10 11  1  0
 10  8  1  0
 11 12  1  0
 12 13  1  0
 14 13  1  6
 14 15  1  0
 15  5  1  0
 16 14  1  0
 17 16  2  0
 18 16  1  0
 19 30  1  0
 19 18  1  0
 19 20  1  1
 21 22  2  0
 21 20  1  0
 23 22  1  0
 24 29  2  0
 24 23  1  0
 25 24  1  0
 26 27  1  0
 26 25  2  0
 27 28  2  0
 28 29  1  0
 29 21  1  0
 30 32  1  0
 31 30  2  0
M  END
$$$$
