CRW.pdb
     RDKit          3D

 32 33  0  0  1  0  0  0  0  0999 V2000
    7.4472  -14.7158   18.4724 N   0  0  0  0  0  0  0  0  0  0  0  0
    8.0842  -14.2692   19.6894 C   0  0  1  0  0  0  0  0  0  0  0  0
    7.4708  -13.0155   20.2169 C   0  0  0  0  0  0  0  0  0  0  0  0
    8.2369  -12.3909   21.7104 S   0  0  0  0  0  0  0  0  0  0  0  0
    8.1521  -15.3636   20.6921 C   0  0  0  0  0  0  0  0  0  0  0  0
    7.1558  -16.0386   21.0331 O   0  0  0  0  0  0  0  0  0  0  0  0
   14.0796  -19.9710   21.5892 N   0  0  0  0  0  0  0  0  0  0  0  0
   13.6079  -20.1635   20.2574 C   0  0  0  0  0  0  0  0  0  0  0  0
   14.3940  -20.7879   19.4505 N   0  0  0  0  0  0  0  0  0  0  0  0
   12.3425  -19.7041   19.8080 N   0  0  0  0  0  0  0  0  0  0  0  0
   11.9051  -18.3530   19.9423 C   0  0  0  0  0  0  0  0  0  0  0  0
   10.5296  -18.2315   20.5612 C   0  0  0  0  0  0  0  0  0  0  0  0
   10.6716  -17.6196   21.9202 C   0  0  0  0  0  0  0  0  0  0  0  0
    9.5881  -16.6716   22.3113 C   0  0  2  0  0  0  0  0  0  0  0  0
    9.3901  -15.6643   21.2937 N   0  0  0  0  0  0  0  0  0  0  0  0
   10.0405  -16.0300   23.5996 C   0  0  0  0  0  0  0  0  0  0  0  0
   10.9485  -15.1631   23.6046 O   0  0  0  0  0  0  0  0  0  0  0  0
   14.2141  -20.9491   18.4583 N   0  0  0  0  0  0  0  0  0  0  0  0
    9.4358  -16.4096   24.8108 C   0  0  1  0  0  0  0  0  0  0  0  0
   10.0122  -16.0408   26.1060 C   0  0  0  0  0  0  0  0  0  0  0  0
    8.8593  -15.9936   27.1183 C   0  0  0  0  0  0  0  0  0  0  0  0
    7.7003  -15.2530   26.5164 C   0  0  0  0  0  0  0  0  0  0  0  0
    6.5702  -15.7626   25.9156 N   0  0  0  0  0  0  0  0  0  0  0  0
    5.7997  -14.7422   25.5207 C   0  0  0  0  0  0  0  0  0  0  0  0
    6.3693  -13.5696   25.8334 C   0  0  0  0  0  0  0  0  0  0  0  0
    5.9807  -12.2590   25.6422 C   0  0  0  0  0  0  0  0  0  0  0  0
    6.8380  -11.2756   26.1037 C   0  0  0  0  0  0  0  0  0  0  0  0
    8.0203  -11.5578   26.7234 C   0  0  0  0  0  0  0  0  0  0  0  0
    8.3863  -12.8624   26.9027 C   0  0  0  0  0  0  0  0  0  0  0  0
    7.5608  -13.8728   26.4577 C   0  0  0  0  0  0  0  0  0  0  0  0
   11.0014  -17.0519   26.5392 O   0  0  0  0  0  0  0  0  0  0  0  0
   11.1742  -18.1329   25.9007 O   0  0  0  0  0  0  0  0  0  0  0  0
  2  1  1  6
  3  2  1  0
  4  3  1  0
  5  6  2  0
  5  2  1  0
  7  8  1  0
  8  9  2  0
 10 11  1  0
 10  8  1  0
 11 12  1  0
 12 13  1  0
 14 13  1  6
 14 15  1  0
 15  5  1  0
 16 14  1  0
 17 16  2  0
 18 16  1  0
 19 30  1  0
 19 18  1  0
 19 20  1  1
 21 22  2  0
 21 20  1  0
 23 22  1  0
 24 29  2  0
 24 23  1  0
 25 24  1  0
 26 27  1  0
 26 25  2  0
 27 28  2  0
 28 29  1  0
 29 21  1  0
 30 32  1  0
 31 30  2  0
M  END
$$$$
