QKM.pdb
     RDKit          3D

 27 26  0  0  1  0  0  0  0  0999 V2000
   13.6090  -13.3835   19.7510 N   0  0  0  0  0  0  0  0  0  0  0  0
   13.7875  -14.4455   18.8426 C   0  0  0  0  0  0  0  0  0  0  0  0
   14.8857  -14.6021   18.2742 O   0  0  0  0  0  0  0  0  0  0  0  0
   12.6688  -15.3677   18.5703 C   0  0  0  0  0  0  0  0  0  0  0  0
   11.6310  -15.3301   19.6876 C   0  0  0  0  0  0  0  0  0  0  0  0
   11.9550  -16.3741   20.7299 C   0  0  2  0  0  0  0  0  0  0  0  0
   12.1841  -17.6683   20.1536 N   0  0  0  0  0  0  0  0  0  0  0  0
   10.8319  -16.4953   21.6894 C   0  0  0  0  0  0  0  0  0  0  0  0
   10.2537  -15.4748   22.1834 O   0  0  0  0  0  0  0  0  0  0  0  0
   10.3432  -17.7535   22.1071 N   0  0  0  0  0  0  0  0  0  0  0  0
    9.3694  -17.8730   23.1667 C   0  0  1  0  0  0  0  0  0  0  0  0
    9.0214  -19.3502   23.2768 C   0  0  0  0  0  0  0  0  0  0  0  0
    7.9784  -19.5767   24.3465 C   0  0  0  0  0  0  0  0  0  0  0  0
    7.6389  -21.0453   24.3646 C   0  0  0  0  0  0  0  0  0  0  0  0
    6.6080  -21.3123   25.4461 C   0  0  0  0  0  0  0  0  0  0  0  0
    6.2978  -22.7370   25.4237 N   0  0  0  0  0  0  0  0  0  0  0  0
    9.8708  -17.3394   24.4513 C   0  0  0  0  0  0  0  0  0  0  0  0
   11.0602  -17.5972   24.7599 O   0  0  0  0  0  0  0  0  0  0  0  0
    7.5451  -11.6534   26.0415 C   0  0  0  0  0  0  0  0  0  0  0  0
    8.8309  -11.7942   27.2775 S   0  0  0  0  0  0  0  0  0  0  0  0
    9.3957  -13.4876   27.4994 C   0  0  0  0  0  0  0  0  0  0  0  0
    9.1461  -14.3651   26.3387 C   0  0  0  0  0  0  0  0  0  0  0  0
    9.6583  -15.7367   26.4193 C   0  0  2  0  0  0  0  0  0  0  0  0
    9.1073  -16.5694   25.3397 N   0  0  0  0  0  0  0  0  0  0  0  0
    9.5654  -16.5096   27.6310 C   0  0  0  0  0  0  0  0  0  0  0  0
   10.4513  -16.5910   28.6884 O   0  0  0  0  0  0  0  0  0  0  0  0
    8.5240  -17.2550   27.7974 O   0  0  0  0  0  0  0  0  0  0  0  0
  2  3  2  0
  2  1  1  0
  4  2  1  0
  5  4  1  0
  6  5  1  0
  6  7  1  6
  8  6  1  0
  8  9  2  0
 10  8  1  0
 11 10  1  0
 11 12  1  1
 13 14  1  0
 13 12  1  0
 15 14  1  0
 16 15  1  0
 17 11  1  0
 18 17  2  0
 19 20  1  0
 20 21  1  0
 22 21  1  0
 23 22  1  1
 23 24  1  0
 24 17  1  0
 25 26  1  0
 25 23  1  0
 27 25  2  0
M  END
$$$$
