QKM.pdb
     RDKit          3D

 27 26  0  0  1  0  0  0  0  0999 V2000
    4.8308  -20.5983   23.1961 N   0  0  0  0  0  0  0  0  0  0  0  0
    6.1665  -20.5015   23.6339 C   0  0  0  0  0  0  0  0  0  0  0  0
    6.5715  -21.2241   24.5652 O   0  0  0  0  0  0  0  0  0  0  0  0
    7.0789  -19.5416   22.9840 C   0  0  0  0  0  0  0  0  0  0  0  0
    6.3392  -18.6602   21.9826 C   0  0  0  0  0  0  0  0  0  0  0  0
    7.2216  -18.3807   20.7889 C   0  0  2  0  0  0  0  0  0  0  0  0
    8.0945  -19.4789   20.4862 N   0  0  0  0  0  0  0  0  0  0  0  0
    8.0630  -17.1890   21.0508 C   0  0  0  0  0  0  0  0  0  0  0  0
    9.3162  -17.2797   21.2544 O   0  0  0  0  0  0  0  0  0  0  0  0
    7.5166  -15.8866   21.0884 N   0  0  0  0  0  0  0  0  0  0  0  0
    8.3552  -14.7178   21.2154 C   0  0  1  0  0  0  0  0  0  0  0  0
    7.4448  -13.5077   21.0672 C   0  0  0  0  0  0  0  0  0  0  0  0
    6.9831  -13.3566   19.6362 C   0  0  0  0  0  0  0  0  0  0  0  0
    8.1643  -13.6113   18.7348 C   0  0  0  0  0  0  0  0  0  0  0  0
    7.7716  -13.3303   17.2959 C   0  0  0  0  0  0  0  0  0  0  0  0
    8.9381  -13.5836   16.4583 N   0  0  0  0  0  0  0  0  0  0  0  0
    9.0859  -14.6894   22.5005 C   0  0  0  0  0  0  0  0  0  0  0  0
    9.8905  -13.7440   22.6877 O   0  0  0  0  0  0  0  0  0  0  0  0
    7.1825  -11.3995   27.3214 C   0  0  0  0  0  0  0  0  0  0  0  0
    6.1870  -12.7319   26.6624 S   0  0  0  0  0  0  0  0  0  0  0  0
    7.0992  -14.2764   26.5269 C   0  0  0  0  0  0  0  0  0  0  0  0
    7.4428  -14.6559   25.1421 C   0  0  0  0  0  0  0  0  0  0  0  0
    8.7259  -15.3357   24.9376 C   0  0  2  0  0  0  0  0  0  0  0  0
    8.9379  -15.6448   23.5157 N   0  0  0  0  0  0  0  0  0  0  0  0
    9.0831  -16.5177   25.6790 C   0  0  0  0  0  0  0  0  0  0  0  0
    9.5284  -17.7412   25.2160 O   0  0  0  0  0  0  0  0  0  0  0  0
    8.9847  -16.4799   26.9661 O   0  0  0  0  0  0  0  0  0  0  0  0
  2  3  2  0
  2  1  1  0
  4  2  1  0
  5  4  1  0
  6  5  1  0
  6  7  1  1
  8  6  1  0
  8  9  2  0
 10  8  1  0
 11 10  1  0
 11 12  1  1
 13 14  1  0
 13 12  1  0
 15 14  1  0
 16 15  1  0
 17 11  1  0
 18 17  2  0
 19 20  1  0
 20 21  1  0
 22 21  1  0
 23 22  1  6
 23 24  1  0
 24 17  1  0
 25 26  1  0
 25 23  1  0
 27 25  2  0
M  END
$$$$
