QKM.pdb
     RDKit          3D

 27 26  0  0  1  0  0  0  0  0999 V2000
   10.1184  -12.7300   18.5989 N   0  0  0  0  0  0  0  0  0  0  0  0
    9.1703  -12.7857   17.5582 C   0  0  0  0  0  0  0  0  0  0  0  0
    9.4887  -12.4356   16.4051 O   0  0  0  0  0  0  0  0  0  0  0  0
    7.8026  -13.2597   17.8426 C   0  0  0  0  0  0  0  0  0  0  0  0
    7.6497  -13.6771   19.3018 C   0  0  0  0  0  0  0  0  0  0  0  0
    8.5766  -14.8292   19.6101 C   0  0  2  0  0  0  0  0  0  0  0  0
    8.5177  -15.8593   18.6127 N   0  0  0  0  0  0  0  0  0  0  0  0
    8.2128  -15.4354   20.9128 C   0  0  0  0  0  0  0  0  0  0  0  0
    7.3992  -14.8737   21.7144 O   0  0  0  0  0  0  0  0  0  0  0  0
    8.7515  -16.6718   21.3340 N   0  0  0  0  0  0  0  0  0  0  0  0
    8.3756  -17.2712   22.5929 C   0  0  1  0  0  0  0  0  0  0  0  0
    8.9709  -18.6714   22.6061 C   0  0  0  0  0  0  0  0  0  0  0  0
    8.1253  -19.6209   21.7895 C   0  0  0  0  0  0  0  0  0  0  0  0
    8.8615  -20.9323   21.6873 C   0  0  0  0  0  0  0  0  0  0  0  0
    8.0978  -21.8704   20.7706 C   0  0  0  0  0  0  0  0  0  0  0  0
    8.8887  -23.0860   20.6182 N   0  0  0  0  0  0  0  0  0  0  0  0
    8.8376  -16.4772   23.7515 C   0  0  0  0  0  0  0  0  0  0  0  0
   10.0510  -16.1570   23.7865 O   0  0  0  0  0  0  0  0  0  0  0  0
    6.7131  -10.4779   26.4770 C   0  0  0  0  0  0  0  0  0  0  0  0
    6.3962  -11.9392   27.4592 S   0  0  0  0  0  0  0  0  0  0  0  0
    7.6638  -13.1991   27.2551 C   0  0  0  0  0  0  0  0  0  0  0  0
    7.3993  -14.1505   26.1576 C   0  0  0  0  0  0  0  0  0  0  0  0
    8.4248  -15.1653   25.8952 C   0  0  2  0  0  0  0  0  0  0  0  0
    8.0119  -16.0625   24.8058 N   0  0  0  0  0  0  0  0  0  0  0  0
    8.9513  -15.9988   26.9452 C   0  0  0  0  0  0  0  0  0  0  0  0
    9.9282  -15.7168   27.8810 O   0  0  0  0  0  0  0  0  0  0  0  0
    8.4773  -17.1939   27.0669 O   0  0  0  0  0  0  0  0  0  0  0  0
  2  3  2  0
  2  1  1  0
  4  2  1  0
  5  4  1  0
  6  5  1  0
  6  7  1  6
  8  6  1  0
  8  9  2  0
 10  8  1  0
 11 10  1  0
 11 12  1  1
 13 14  1  0
 13 12  1  0
 15 14  1  0
 16 15  1  0
 17 11  1  0
 18 17  2  0
 19 20  1  0
 20 21  1  0
 22 21  1  0
 23 22  1  1
 23 24  1  0
 24 17  1  0
 25 26  1  0
 25 23  1  0
 27 25  2  0
M  END
$$$$
