QKM.pdb
     RDKit          3D

 27 26  0  0  1  0  0  0  0  0999 V2000
    7.5790  -12.6256   16.4222 N   0  0  0  0  0  0  0  0  0  0  0  0
    7.5890  -14.0311   16.3250 C   0  0  0  0  0  0  0  0  0  0  0  0
    7.5230  -14.5795   15.2077 O   0  0  0  0  0  0  0  0  0  0  0  0
    7.6779  -14.8460   17.5515 C   0  0  0  0  0  0  0  0  0  0  0  0
    7.5446  -13.9849   18.8035 C   0  0  0  0  0  0  0  0  0  0  0  0
    8.8287  -14.0251   19.5980 C   0  0  2  0  0  0  0  0  0  0  0  0
    9.9402  -14.4863   18.8161 N   0  0  0  0  0  0  0  0  0  0  0  0
    8.6774  -14.9369   20.7566 C   0  0  0  0  0  0  0  0  0  0  0  0
    7.6942  -14.8492   21.5601 O   0  0  0  0  0  0  0  0  0  0  0  0
    9.6192  -15.9539   21.0304 N   0  0  0  0  0  0  0  0  0  0  0  0
    9.4366  -16.8797   22.1236 C   0  0  1  0  0  0  0  0  0  0  0  0
   10.3530  -18.0636   21.8523 C   0  0  0  0  0  0  0  0  0  0  0  0
    9.8903  -18.8316   20.6359 C   0  0  0  0  0  0  0  0  0  0  0  0
   10.8824  -19.9363   20.3755 C   0  0  0  0  0  0  0  0  0  0  0  0
   10.4503  -20.7257   19.1533 C   0  0  0  0  0  0  0  0  0  0  0  0
    9.3249  -21.5677   19.5419 N   0  0  0  0  0  0  0  0  0  0  0  0
    9.7267  -16.2620   23.4353 C   0  0  0  0  0  0  0  0  0  0  0  0
   10.6799  -15.4469   23.4927 O   0  0  0  0  0  0  0  0  0  0  0  0
    6.9993  -10.9106   27.5557 C   0  0  0  0  0  0  0  0  0  0  0  0
    7.4631  -11.9740   26.1939 S   0  0  0  0  0  0  0  0  0  0  0  0
    7.5535  -13.7069   26.6680 C   0  0  0  0  0  0  0  0  0  0  0  0
    7.8433  -14.6253   25.5491 C   0  0  0  0  0  0  0  0  0  0  0  0
    8.9066  -15.6134   25.7577 C   0  0  2  0  0  0  0  0  0  0  0  0
    9.0095  -16.5272   24.6103 N   0  0  0  0  0  0  0  0  0  0  0  0
    8.9619  -16.4268   26.9450 C   0  0  0  0  0  0  0  0  0  0  0  0
    9.3173  -16.0739   28.2330 O   0  0  0  0  0  0  0  0  0  0  0  0
    8.6480  -17.6751   26.8409 O   0  0  0  0  0  0  0  0  0  0  0  0
  2  3  2  0
  2  1  1  0
  4  2  1  0
  5  4  1  0
  6  5  1  0
  6  7  1  6
  8  6  1  0
  8  9  2  0
 10  8  1  0
 11 10  1  0
 11 12  1  6
 13 14  1  0
 13 12  1  0
 15 14  1  0
 16 15  1  0
 17 11  1  0
 18 17  2  0
 19 20  1  0
 20 21  1  0
 22 21  1  0
 23 22  1  6
 23 24  1  0
 24 17  1  0
 25 26  1  0
 25 23  1  0
 27 25  2  0
M  END
$$$$
