QKM.pdb
     RDKit          3D

 27 26  0  0  1  0  0  0  0  0999 V2000
    9.2558  -12.7923   17.4484 N   0  0  0  0  0  0  0  0  0  0  0  0
    8.2243  -13.6627   17.0444 C   0  0  0  0  0  0  0  0  0  0  0  0
    8.1765  -14.0690   15.8670 O   0  0  0  0  0  0  0  0  0  0  0  0
    7.2047  -14.0883   18.0219 C   0  0  0  0  0  0  0  0  0  0  0  0
    7.3251  -13.3089   19.3276 C   0  0  0  0  0  0  0  0  0  0  0  0
    8.3943  -13.9233   20.2000 C   0  0  2  0  0  0  0  0  0  0  0  0
    9.3479  -14.6821   19.4422 N   0  0  0  0  0  0  0  0  0  0  0  0
    7.7749  -14.8324   21.1933 C   0  0  0  0  0  0  0  0  0  0  0  0
    6.7269  -14.5112   21.8402 O   0  0  0  0  0  0  0  0  0  0  0  0
    8.3169  -16.1065   21.4747 N   0  0  0  0  0  0  0  0  0  0  0  0
    7.7308  -16.9752   22.4683 C   0  0  1  0  0  0  0  0  0  0  0  0
    7.9914  -18.4026   22.0101 C   0  0  0  0  0  0  0  0  0  0  0  0
    7.0373  -18.7934   20.9054 C   0  0  0  0  0  0  0  0  0  0  0  0
    7.4790  -20.1258   20.3560 C   0  0  0  0  0  0  0  0  0  0  0  0
    6.5189  -20.5664   19.2662 C   0  0  0  0  0  0  0  0  0  0  0  0
    7.0024  -21.8345   18.7326 N   0  0  0  0  0  0  0  0  0  0  0  0
    8.2811  -16.7329   23.8191 C   0  0  0  0  0  0  0  0  0  0  0  0
    7.9326  -17.5177   24.7350 O   0  0  0  0  0  0  0  0  0  0  0  0
    7.1110  -10.5470   26.5654 C   0  0  0  0  0  0  0  0  0  0  0  0
    6.5887  -12.2135   26.9533 S   0  0  0  0  0  0  0  0  0  0  0  0
    7.9417  -13.3969   26.8852 C   0  0  0  0  0  0  0  0  0  0  0  0
    8.1249  -14.0302   25.5642 C   0  0  0  0  0  0  0  0  0  0  0  0
    9.2150  -15.0029   25.4382 C   0  0  2  0  0  0  0  0  0  0  0  0
    9.1611  -15.6896   24.1390 N   0  0  0  0  0  0  0  0  0  0  0  0
    9.4452  -16.0157   26.4361 C   0  0  0  0  0  0  0  0  0  0  0  0
    8.6624  -17.1016   26.7790 O   0  0  0  0  0  0  0  0  0  0  0  0
   10.5233  -15.9379   27.1427 O   0  0  0  0  0  0  0  0  0  0  0  0
  2  3  2  0
  2  1  1  0
  4  2  1  0
  5  4  1  0
  6  5  1  0
  6  7  1  6
  8  6  1  0
  8  9  2  0
 10  8  1  0
 11 10  1  0
 11 12  1  6
 13 14  1  0
 13 12  1  0
 15 14  1  0
 16 15  1  0
 17 11  1  0
 18 17  2  0
 19 20  1  0
 20 21  1  0
 22 21  1  0
 23 22  1  1
 23 24  1  0
 24 17  1  0
 25 26  1  0
 25 23  1  0
 27 25  2  0
M  END
$$$$
