QKM.pdb
     RDKit          3D

 27 26  0  0  1  0  0  0  0  0999 V2000
   13.0705  -14.8412   18.7343 N   0  0  0  0  0  0  0  0  0  0  0  0
   12.5187  -13.7641   19.4558 C   0  0  0  0  0  0  0  0  0  0  0  0
   13.2634  -12.9919   20.0903 O   0  0  0  0  0  0  0  0  0  0  0  0
   11.0580  -13.5580   19.4545 C   0  0  0  0  0  0  0  0  0  0  0  0
   10.3476  -14.6094   18.6080 C   0  0  0  0  0  0  0  0  0  0  0  0
    8.8510  -14.4371   18.7178 C   0  0  2  0  0  0  0  0  0  0  0  0
    8.4445  -13.0717   18.5449 N   0  0  0  0  0  0  0  0  0  0  0  0
    8.3877  -14.8846   20.0527 C   0  0  0  0  0  0  0  0  0  0  0  0
    7.8087  -14.0945   20.8654 O   0  0  0  0  0  0  0  0  0  0  0  0
    8.5650  -16.2150   20.4939 N   0  0  0  0  0  0  0  0  0  0  0  0
    7.8316  -16.7424   21.6207 C   0  0  1  0  0  0  0  0  0  0  0  0
    7.8419  -18.2573   21.4792 C   0  0  0  0  0  0  0  0  0  0  0  0
    7.1141  -18.9082   22.6325 C   0  0  0  0  0  0  0  0  0  0  0  0
    7.0089  -20.3843   22.3454 C   0  0  0  0  0  0  0  0  0  0  0  0
    6.1747  -21.0506   23.4241 C   0  0  0  0  0  0  0  0  0  0  0  0
    4.7755  -20.7306   23.1665 N   0  0  0  0  0  0  0  0  0  0  0  0
    8.4091  -16.3171   22.9137 C   0  0  0  0  0  0  0  0  0  0  0  0
    9.6522  -16.4225   23.0547 O   0  0  0  0  0  0  0  0  0  0  0  0
    6.6907  -10.9371   26.2702 C   0  0  0  0  0  0  0  0  0  0  0  0
    6.8098  -12.1795   27.5519 S   0  0  0  0  0  0  0  0  0  0  0  0
    7.7984  -13.5970   27.0528 C   0  0  0  0  0  0  0  0  0  0  0  0
    7.3573  -14.2281   25.7932 C   0  0  0  0  0  0  0  0  0  0  0  0
    8.2319  -15.2578   25.2231 C   0  0  2  0  0  0  0  0  0  0  0  0
    7.6612  -15.8073   23.9843 N   0  0  0  0  0  0  0  0  0  0  0  0
    8.6912  -16.3779   26.0034 C   0  0  0  0  0  0  0  0  0  0  0  0
    8.1571  -17.6478   26.1121 O   0  0  0  0  0  0  0  0  0  0  0  0
    9.7489  -16.2205   26.7274 O   0  0  0  0  0  0  0  0  0  0  0  0
  2  3  2  0
  2  1  1  0
  4  2  1  0
  5  4  1  0
  6  5  1  0
  6  7  1  1
  8  6  1  0
  8  9  2  0
 10  8  1  0
 11 10  1  0
 11 12  1  1
 13 14  1  0
 13 12  1  0
 15 14  1  0
 16 15  1  0
 17 11  1  0
 18 17  2  0
 19 20  1  0
 20 21  1  0
 22 21  1  0
 23 22  1  1
 23 24  1  0
 24 17  1  0
 25 26  1  0
 25 23  1  0
 27 25  2  0
M  END
$$$$
