QKM.pdb
     RDKit          3D

 27 26  0  0  1  0  0  0  0  0999 V2000
   14.6289  -14.6814   20.9701 N   0  0  0  0  0  0  0  0  0  0  0  0
   14.3140  -14.2579   19.6637 C   0  0  0  0  0  0  0  0  0  0  0  0
   15.2180  -13.8663   18.9002 O   0  0  0  0  0  0  0  0  0  0  0  0
   12.9112  -14.2815   19.2080 C   0  0  0  0  0  0  0  0  0  0  0  0
   12.2048  -15.5609   19.6449 C   0  0  0  0  0  0  0  0  0  0  0  0
   10.8550  -15.6613   18.9744 C   0  0  2  0  0  0  0  0  0  0  0  0
   10.6387  -14.6095   18.0223 N   0  0  0  0  0  0  0  0  0  0  0  0
    9.7791  -15.5835   19.9909 C   0  0  0  0  0  0  0  0  0  0  0  0
    9.2841  -14.4724   20.3654 O   0  0  0  0  0  0  0  0  0  0  0  0
    9.2455  -16.7418   20.5990 N   0  0  0  0  0  0  0  0  0  0  0  0
    8.0878  -16.6792   21.4600 C   0  0  1  0  0  0  0  0  0  0  0  0
    7.5324  -18.0929   21.5501 C   0  0  0  0  0  0  0  0  0  0  0  0
    6.7516  -18.4422   20.3044 C   0  0  0  0  0  0  0  0  0  0  0  0
    6.3244  -19.8841   20.4097 C   0  0  0  0  0  0  0  0  0  0  0  0
    5.6979  -20.3224   19.0986 C   0  0  0  0  0  0  0  0  0  0  0  0
    5.3571  -21.7353   19.2181 N   0  0  0  0  0  0  0  0  0  0  0  0
    8.4132  -16.1408   22.7981 C   0  0  0  0  0  0  0  0  0  0  0  0
    9.5757  -16.3324   23.2317 O   0  0  0  0  0  0  0  0  0  0  0  0
    7.8354  -10.7152   27.0264 C   0  0  0  0  0  0  0  0  0  0  0  0
    6.4261  -11.8170   27.0449 S   0  0  0  0  0  0  0  0  0  0  0  0
    6.8913  -13.5404   26.8230 C   0  0  0  0  0  0  0  0  0  0  0  0
    6.7821  -14.0216   25.4316 C   0  0  0  0  0  0  0  0  0  0  0  0
    7.7831  -14.9953   24.9838 C   0  0  2  0  0  0  0  0  0  0  0  0
    7.5118  -15.4348   23.6070 N   0  0  0  0  0  0  0  0  0  0  0  0
    8.0829  -16.1787   25.7480 C   0  0  0  0  0  0  0  0  0  0  0  0
    9.0482  -16.3745   26.7173 O   0  0  0  0  0  0  0  0  0  0  0  0
    7.3783  -17.2384   25.5278 O   0  0  0  0  0  0  0  0  0  0  0  0
  2  3  2  0
  2  1  1  0
  4  2  1  0
  5  4  1  0
  6  5  1  0
  6  7  1  6
  8  6  1  0
  8  9  2  0
 10  8  1  0
 11 10  1  0
 11 12  1  1
 13 14  1  0
 13 12  1  0
 15 14  1  0
 16 15  1  0
 17 11  1  0
 18 17  2  0
 19 20  1  0
 20 21  1  0
 22 21  1  0
 23 22  1  1
 23 24  1  0
 24 17  1  0
 25 26  1  0
 25 23  1  0
 27 25  2  0
M  END
$$$$
