QKM.pdb
     RDKit          3D

 27 26  0  0  1  0  0  0  0  0999 V2000
    8.8803  -19.4468   26.9618 N   0  0  0  0  0  0  0  0  0  0  0  0
    7.5144  -19.7912   26.9372 C   0  0  0  0  0  0  0  0  0  0  0  0
    6.8163  -19.6468   27.9596 O   0  0  0  0  0  0  0  0  0  0  0  0
    6.9187  -20.3223   25.6965 C   0  0  0  0  0  0  0  0  0  0  0  0
    5.7705  -19.4442   25.2094 C   0  0  0  0  0  0  0  0  0  0  0  0
    5.7699  -19.3838   23.7001 C   0  0  2  0  0  0  0  0  0  0  0  0
    6.1667  -20.6273   23.1037 N   0  0  0  0  0  0  0  0  0  0  0  0
    6.7098  -18.3359   23.2362 C   0  0  0  0  0  0  0  0  0  0  0  0
    7.9339  -18.5871   22.9942 O   0  0  0  0  0  0  0  0  0  0  0  0
    6.2952  -16.9999   23.0380 N   0  0  0  0  0  0  0  0  0  0  0  0
    7.2232  -15.9729   22.6261 C   0  0  1  0  0  0  0  0  0  0  0  0
    6.3890  -14.7701   22.2108 C   0  0  0  0  0  0  0  0  0  0  0  0
    7.2495  -13.7299   21.5320 C   0  0  0  0  0  0  0  0  0  0  0  0
    7.4171  -14.1316   20.0887 C   0  0  0  0  0  0  0  0  0  0  0  0
    8.3112  -13.1270   19.3852 C   0  0  0  0  0  0  0  0  0  0  0  0
    8.4158  -13.5265   17.9866 N   0  0  0  0  0  0  0  0  0  0  0  0
    8.1814  -15.6218   23.6960 C   0  0  0  0  0  0  0  0  0  0  0  0
    7.7226  -15.0654   24.7237 O   0  0  0  0  0  0  0  0  0  0  0  0
   10.3675  -13.1946   28.6425 C   0  0  0  0  0  0  0  0  0  0  0  0
    9.4365  -14.7037   28.4046 S   0  0  0  0  0  0  0  0  0  0  0  0
    9.0677  -15.0243   26.6734 C   0  0  0  0  0  0  0  0  0  0  0  0
   10.0225  -15.9344   26.0105 C   0  0  0  0  0  0  0  0  0  0  0  0
   10.5231  -15.5289   24.6932 C   0  0  2  0  0  0  0  0  0  0  0  0
    9.5599  -15.8694   23.6355 N   0  0  0  0  0  0  0  0  0  0  0  0
   11.8222  -15.9324   24.2199 C   0  0  0  0  0  0  0  0  0  0  0  0
   13.0735  -15.5859   24.6929 O   0  0  0  0  0  0  0  0  0  0  0  0
   11.8781  -16.7289   23.2048 O   0  0  0  0  0  0  0  0  0  0  0  0
  2  3  2  0
  2  1  1  0
  4  2  1  0
  5  4  1  0
  6  5  1  0
  6  7  1  6
  8  6  1  0
  8  9  2  0
 10  8  1  0
 11 10  1  0
 11 12  1  1
 13 14  1  0
 13 12  1  0
 15 14  1  0
 16 15  1  0
 17 11  1  0
 18 17  2  0
 19 20  1  0
 20 21  1  0
 22 21  1  0
 23 22  1  1
 23 24  1  0
 24 17  1  0
 25 26  1  0
 25 23  1  0
 27 25  2  0
M  END
$$$$
