CMI.pdb
     RDKit          3D

 23 22  0  0  1  0  0  0  0  0999 V2000
   28.4498  -21.1378  -15.9483 N   0  0  0  0  0  0  0  0  0  0  0  0
   28.0329  -20.2171  -14.9439 C   0  0  1  0  0  0  0  0  0  0  0  0
   27.4135  -18.9946  -15.6054 C   0  0  0  0  0  0  0  0  0  0  0  0
   28.7133  -18.0483  -16.4482 S   0  0  0  0  0  0  0  0  0  0  0  0
   27.0692  -20.7535  -13.9793 C   0  0  0  0  0  0  0  0  0  0  0  0
   26.2745  -21.6489  -14.3670 O   0  0  0  0  0  0  0  0  0  0  0  0
   26.3271  -19.4211   -7.5236 C   0  0  0  0  0  0  0  0  0  0  0  0
   25.3458  -20.9584   -7.7061 S   0  0  0  0  0  0  0  0  0  0  0  0
   25.1044  -21.2480   -9.4767 C   0  0  0  0  0  0  0  0  0  0  0  0
   26.2409  -20.6368  -10.2930 C   0  0  0  0  0  0  0  0  0  0  0  0
   25.9291  -20.8534  -11.7394 C   0  0  2  0  0  0  0  0  0  0  0  0
   26.9520  -20.3439  -12.6226 N   0  0  0  0  0  0  0  0  0  0  0  0
   24.6229  -20.3429  -12.1651 C   0  0  0  0  0  0  0  0  0  0  0  0
   24.5910  -19.2272  -12.7398 O   0  0  0  0  0  0  0  0  0  0  0  0
   21.6367  -20.4816  -16.5813 C   0  0  0  0  0  0  0  0  0  0  0  0
   21.3213  -20.4625  -15.1028 C   0  0  0  0  0  0  0  0  0  0  0  0
   22.5272  -20.8492  -14.2732 C   0  0  2  0  0  0  0  0  0  0  0  0
   22.8999  -22.2600  -14.6666 C   0  0  0  0  0  0  0  0  0  0  0  0
   22.2759  -20.7055  -12.8104 C   0  0  2  0  0  0  0  0  0  0  0  0
   23.3966  -21.0245  -11.9713 N   0  0  0  0  0  0  0  0  0  0  0  0
   21.0124  -21.3521  -12.3574 C   0  0  0  0  0  0  0  0  0  0  0  0
   19.8893  -21.0513  -12.8272 O   0  0  0  0  0  0  0  0  0  0  0  0
   21.0106  -22.3394  -11.3738 O   0  0  0  0  0  0  0  0  0  0  0  0
  2  1  1  6
  3  2  1  0
  4  3  1  0
  5  2  1  0
  6  5  2  0
  8  7  1  0
  9  8  1  0
 10  9  1  0
 11 10  1  1
 11 12  1  0
 12  5  1  0
 13 20  1  0
 13 11  1  0
 14 13  2  0
 15 16  1  0
 16 17  1  0
 17 18  1  1
 19 17  1  0
 19 20  1  1
 21 23  1  0
 21 19  1  0
 22 21  2  0
M  END
$$$$
