CMI.pdb
     RDKit          3D

 23 22  0  0  1  0  0  0  0  0999 V2000
   20.5541  -14.7299  -18.4474 N   0  0  0  0  0  0  0  0  0  0  0  0
   19.8387  -13.5376  -18.7587 C   0  0  1  0  0  0  0  0  0  0  0  0
   18.4725  -13.5792  -18.0896 C   0  0  0  0  0  0  0  0  0  0  0  0
   17.3815  -14.6864  -19.0272 S   0  0  0  0  0  0  0  0  0  0  0  0
   20.5071  -12.2967  -18.3583 C   0  0  0  0  0  0  0  0  0  0  0  0
   21.2366  -12.3175  -17.3330 O   0  0  0  0  0  0  0  0  0  0  0  0
   21.2025   -8.4584  -23.1202 C   0  0  0  0  0  0  0  0  0  0  0  0
   22.7910   -8.6830  -22.2338 S   0  0  0  0  0  0  0  0  0  0  0  0
   22.4606   -9.6821  -20.7606 C   0  0  0  0  0  0  0  0  0  0  0  0
   21.4586   -8.9888  -19.8405 C   0  0  0  0  0  0  0  0  0  0  0  0
   21.1976   -9.9000  -18.6839 C   0  0  2  0  0  0  0  0  0  0  0  0
   20.4015  -11.0519  -19.0377 N   0  0  0  0  0  0  0  0  0  0  0  0
   20.6088   -9.2453  -17.5122 C   0  0  0  0  0  0  0  0  0  0  0  0
   19.3565   -9.1970  -17.4380 O   0  0  0  0  0  0  0  0  0  0  0  0
   19.6321   -9.2005  -11.8366 C   0  0  0  0  0  0  0  0  0  0  0  0
   19.7752   -8.2824  -13.0293 C   0  0  0  0  0  0  0  0  0  0  0  0
   20.5923   -8.9256  -14.1297 C   0  0  2  0  0  0  0  0  0  0  0  0
   21.9522   -9.2341  -13.5471 C   0  0  0  0  0  0  0  0  0  0  0  0
   20.6675   -8.0717  -15.3499 C   0  0  2  0  0  0  0  0  0  0  0  0
   21.3586   -8.6651  -16.4600 N   0  0  0  0  0  0  0  0  0  0  0  0
   21.1097   -6.6762  -15.0731 C   0  0  0  0  0  0  0  0  0  0  0  0
   22.2110   -6.2225  -15.4652 O   0  0  0  0  0  0  0  0  0  0  0  0
   20.3124   -5.7879  -14.3537 O   0  0  0  0  0  0  0  0  0  0  0  0
  2  1  1  1
  3  2  1  0
  4  3  1  0
  5  2  1  0
  6  5  2  0
  8  7  1  0
  9  8  1  0
 10  9  1  0
 11 10  1  6
 11 12  1  0
 12  5  1  0
 13 20  1  0
 13 11  1  0
 14 13  2  0
 15 16  1  0
 16 17  1  0
 17 18  1  1
 19 17  1  0
 19 20  1  6
 21 23  1  0
 21 19  1  0
 22 21  2  0
M  END
$$$$
