CMI.pdb
     RDKit          3D

 23 22  0  0  1  0  0  0  0  0999 V2000
   16.3507  -10.4726  -14.7685 N   0  0  0  0  0  0  0  0  0  0  0  0
   17.5913  -10.2963  -14.0901 C   0  0  1  0  0  0  0  0  0  0  0  0
   18.7322  -10.3827  -15.0935 C   0  0  0  0  0  0  0  0  0  0  0  0
   18.5296  -11.8789  -16.1012 S   0  0  0  0  0  0  0  0  0  0  0  0
   17.7188   -9.0327  -13.3594 C   0  0  0  0  0  0  0  0  0  0  0  0
   18.7449   -8.8546  -12.6528 O   0  0  0  0  0  0  0  0  0  0  0  0
   16.4114   -2.8269  -14.9358 C   0  0  0  0  0  0  0  0  0  0  0  0
   17.6678   -2.8490  -13.6015 S   0  0  0  0  0  0  0  0  0  0  0  0
   17.4001   -4.3470  -12.6209 C   0  0  0  0  0  0  0  0  0  0  0  0
   17.2442   -5.5713  -13.5199 C   0  0  0  0  0  0  0  0  0  0  0  0
   16.9545   -6.7464  -12.6416 C   0  0  2  0  0  0  0  0  0  0  0  0
   16.7696   -7.9741  -13.3794 N   0  0  0  0  0  0  0  0  0  0  0  0
   15.8280   -6.5584  -11.7231 C   0  0  0  0  0  0  0  0  0  0  0  0
   14.6684   -6.6373  -12.1975 O   0  0  0  0  0  0  0  0  0  0  0  0
   12.3548   -8.0627   -7.4300 C   0  0  0  0  0  0  0  0  0  0  0  0
   12.9846   -6.8317   -8.0415 C   0  0  0  0  0  0  0  0  0  0  0  0
   14.2637   -7.1701   -8.7772 C   0  0  2  0  0  0  0  0  0  0  0  0
   15.2475   -7.6709   -7.7452 C   0  0  0  0  0  0  0  0  0  0  0  0
   14.7874   -6.0142   -9.5603 C   0  0  2  0  0  0  0  0  0  0  0  0
   15.9616   -6.2945  -10.3380 N   0  0  0  0  0  0  0  0  0  0  0  0
   14.9078   -4.7612   -8.7633 C   0  0  0  0  0  0  0  0  0  0  0  0
   16.0134   -4.2567   -8.4541 O   0  0  0  0  0  0  0  0  0  0  0  0
   13.7828   -4.0731   -8.3124 O   0  0  0  0  0  0  0  0  0  0  0  0
  2  1  1  6
  3  2  1  0
  4  3  1  0
  5  2  1  0
  6  5  2  0
  8  7  1  0
  9  8  1  0
 10  9  1  0
 11 10  1  6
 11 12  1  0
 12  5  1  0
 13 20  1  0
 13 11  1  0
 14 13  2  0
 15 16  1  0
 16 17  1  0
 17 18  1  1
 19 17  1  0
 19 20  1  1
 21 23  1  0
 21 19  1  0
 22 21  2  0
M  END
$$$$
