CMI.pdb
     RDKit          3D

 23 22  0  0  1  0  0  0  0  0999 V2000
   20.1347  -15.9932  -16.4007 N   0  0  0  0  0  0  0  0  0  0  0  0
   20.5824  -14.8314  -17.0936 C   0  0  1  0  0  0  0  0  0  0  0  0
   19.3879  -14.1222  -17.7149 C   0  0  0  0  0  0  0  0  0  0  0  0
   18.5149  -15.2734  -18.8139 S   0  0  0  0  0  0  0  0  0  0  0  0
   21.3101  -13.8645  -16.2674 C   0  0  0  0  0  0  0  0  0  0  0  0
   20.7624  -13.4520  -15.2121 O   0  0  0  0  0  0  0  0  0  0  0  0
   27.7268  -12.5277  -14.5959 C   0  0  0  0  0  0  0  0  0  0  0  0
   26.9234  -14.0807  -15.1458 S   0  0  0  0  0  0  0  0  0  0  0  0
   25.1327  -13.8196  -15.0952 C   0  0  0  0  0  0  0  0  0  0  0  0
   24.7529  -12.4915  -15.7459 C   0  0  0  0  0  0  0  0  0  0  0  0
   23.2621  -12.3787  -15.7120 C   0  0  2  0  0  0  0  0  0  0  0  0
   22.6008  -13.3438  -16.5588 N   0  0  0  0  0  0  0  0  0  0  0  0
   22.7449  -11.0395  -16.0075 C   0  0  0  0  0  0  0  0  0  0  0  0
   22.7287  -10.6715  -17.2076 O   0  0  0  0  0  0  0  0  0  0  0  0
   18.6428   -7.5455  -17.2328 C   0  0  0  0  0  0  0  0  0  0  0  0
   19.9540   -7.4911  -16.4819 C   0  0  0  0  0  0  0  0  0  0  0  0
   20.4208   -8.8740  -16.0795 C   0  0  2  0  0  0  0  0  0  0  0  0
   19.3572   -9.4535  -15.1757 C   0  0  0  0  0  0  0  0  0  0  0  0
   21.7692   -8.8518  -15.4433 C   0  0  2  0  0  0  0  0  0  0  0  0
   22.2625  -10.1354  -15.0298 N   0  0  0  0  0  0  0  0  0  0  0  0
   21.9119   -7.8105  -14.3873 C   0  0  0  0  0  0  0  0  0  0  0  0
   22.1231   -8.0891  -13.1831 O   0  0  0  0  0  0  0  0  0  0  0  0
   21.8168   -6.4524  -14.6852 O   0  0  0  0  0  0  0  0  0  0  0  0
  2  1  1  1
  3  2  1  0
  4  3  1  0
  5  2  1  0
  6  5  2  0
  8  7  1  0
  9  8  1  0
 10  9  1  0
 11 10  1  6
 11 12  1  0
 12  5  1  0
 13 20  1  0
 13 11  1  0
 14 13  2  0
 15 16  1  0
 16 17  1  0
 17 18  1  1
 19 17  1  0
 19 20  1  1
 21 23  1  0
 21 19  1  0
 22 21  2  0
M  END
$$$$
