CMI.pdb
     RDKit          3D

 23 22  0  0  1  0  0  0  0  0999 V2000
   30.2259  -23.6135  -17.7062 N   0  0  0  0  0  0  0  0  0  0  0  0
   28.9772  -22.9419  -17.5652 C   0  0  1  0  0  0  0  0  0  0  0  0
   28.9098  -21.7880  -18.5550 C   0  0  0  0  0  0  0  0  0  0  0  0
   29.9400  -20.4212  -17.9502 S   0  0  0  0  0  0  0  0  0  0  0  0
   27.7976  -23.7875  -17.7667 C   0  0  0  0  0  0  0  0  0  0  0  0
   27.5042  -24.1298  -18.9416 O   0  0  0  0  0  0  0  0  0  0  0  0
   26.1896  -29.6816  -16.6536 C   0  0  0  0  0  0  0  0  0  0  0  0
   27.7265  -28.6985  -16.4768 S   0  0  0  0  0  0  0  0  0  0  0  0
   27.2472  -26.9676  -16.2496 C   0  0  0  0  0  0  0  0  0  0  0  0
   26.2239  -26.5389  -17.2986 C   0  0  0  0  0  0  0  0  0  0  0  0
   25.8190  -25.1327  -16.9906 C   0  0  2  0  0  0  0  0  0  0  0  0
   26.9425  -24.2621  -16.7343 N   0  0  0  0  0  0  0  0  0  0  0  0
   24.8466  -25.0025  -15.9017 C   0  0  0  0  0  0  0  0  0  0  0  0
   25.2049  -25.3606  -14.7530 O   0  0  0  0  0  0  0  0  0  0  0  0
   22.4686  -20.6917  -14.3734 C   0  0  0  0  0  0  0  0  0  0  0  0
   23.0996  -22.0579  -14.5186 C   0  0  0  0  0  0  0  0  0  0  0  0
   22.0511  -23.1448  -14.6262 C   0  0  2  0  0  0  0  0  0  0  0  0
   21.2696  -23.1341  -13.3327 C   0  0  0  0  0  0  0  0  0  0  0  0
   22.6480  -24.4773  -14.9286 C   0  0  2  0  0  0  0  0  0  0  0  0
   23.5320  -24.4998  -16.0600 N   0  0  0  0  0  0  0  0  0  0  0  0
   21.6512  -25.5844  -14.9521 C   0  0  0  0  0  0  0  0  0  0  0  0
   20.9677  -25.9040  -13.9506 O   0  0  0  0  0  0  0  0  0  0  0  0
   21.4218  -26.3345  -16.1041 O   0  0  0  0  0  0  0  0  0  0  0  0
  2  1  1  6
  3  2  1  0
  4  3  1  0
  5  2  1  0
  6  5  2  0
  8  7  1  0
  9  8  1  0
 10  9  1  0
 11 10  1  1
 11 12  1  0
 12  5  1  0
 13 20  1  0
 13 11  1  0
 14 13  2  0
 15 16  1  0
 16 17  1  0
 17 18  1  1
 19 17  1  0
 19 20  1  6
 21 23  1  0
 21 19  1  0
 22 21  2  0
M  END
$$$$
