CMI.pdb
     RDKit          3D

 23 22  0  0  1  0  0  0  0  0999 V2000
   21.8863  -15.5664  -18.0489 N   0  0  0  0  0  0  0  0  0  0  0  0
   21.9388  -14.2074  -18.4740 C   0  0  1  0  0  0  0  0  0  0  0  0
   20.6030  -13.8195  -19.0913 C   0  0  0  0  0  0  0  0  0  0  0  0
   20.2781  -14.8805  -20.5279 S   0  0  0  0  0  0  0  0  0  0  0  0
   22.2514  -13.2433  -17.4159 C   0  0  0  0  0  0  0  0  0  0  0  0
   21.6292  -13.3333  -16.3257 O   0  0  0  0  0  0  0  0  0  0  0  0
   28.0161  -11.8873  -17.0057 C   0  0  0  0  0  0  0  0  0  0  0  0
   27.2972  -12.2704  -15.3638 S   0  0  0  0  0  0  0  0  0  0  0  0
   25.4998  -12.3620  -15.5599 C   0  0  0  0  0  0  0  0  0  0  0  0
   24.9506  -11.0849  -16.1913 C   0  0  0  0  0  0  0  0  0  0  0  0
   23.4883  -11.2879  -16.4292 C   0  0  2  0  0  0  0  0  0  0  0  0
   23.2114  -12.1989  -17.5152 N   0  0  0  0  0  0  0  0  0  0  0  0
   22.7250  -10.0523  -16.6264 C   0  0  0  0  0  0  0  0  0  0  0  0
   22.8956   -9.4258  -17.7008 O   0  0  0  0  0  0  0  0  0  0  0  0
   17.8714   -9.2110  -17.5792 C   0  0  0  0  0  0  0  0  0  0  0  0
   19.3694   -9.1041  -17.4049 C   0  0  0  0  0  0  0  0  0  0  0  0
   19.7288   -8.2897  -16.1803 C   0  0  2  0  0  0  0  0  0  0  0  0
   19.1254   -6.9172  -16.3701 C   0  0  0  0  0  0  0  0  0  0  0  0
   21.2004   -8.2453  -15.9435 C   0  0  2  0  0  0  0  0  0  0  0  0
   21.8089   -9.5202  -15.6864 N   0  0  0  0  0  0  0  0  0  0  0  0
   21.6145   -7.1998  -14.9662 C   0  0  0  0  0  0  0  0  0  0  0  0
   21.4162   -5.9762  -15.1559 O   0  0  0  0  0  0  0  0  0  0  0  0
   22.2534   -7.5299  -13.7724 O   0  0  0  0  0  0  0  0  0  0  0  0
  2  1  1  1
  3  2  1  0
  4  3  1  0
  5  2  1  0
  6  5  2  0
  8  7  1  0
  9  8  1  0
 10  9  1  0
 11 10  1  6
 11 12  1  0
 12  5  1  0
 13 20  1  0
 13 11  1  0
 14 13  2  0
 15 16  1  0
 16 17  1  0
 17 18  1  6
 19 17  1  0
 19 20  1  1
 21 23  1  0
 21 19  1  0
 22 21  2  0
M  END
$$$$
