CMI.pdb
     RDKit          3D

 23 22  0  0  1  0  0  0  0  0999 V2000
   28.6087  -21.2800  -15.7792 N   0  0  0  0  0  0  0  0  0  0  0  0
   28.1685  -20.2846  -14.8595 C   0  0  1  0  0  0  0  0  0  0  0  0
   27.4534  -19.1764  -15.6188 C   0  0  0  0  0  0  0  0  0  0  0  0
   28.6858  -18.0742  -16.3682 S   0  0  0  0  0  0  0  0  0  0  0  0
   27.2716  -20.7718  -13.8083 C   0  0  0  0  0  0  0  0  0  0  0  0
   26.3967  -21.6215  -14.1187 O   0  0  0  0  0  0  0  0  0  0  0  0
   27.5796  -20.4766   -7.0705 C   0  0  0  0  0  0  0  0  0  0  0  0
   25.7916  -20.3870   -7.4634 S   0  0  0  0  0  0  0  0  0  0  0  0
   25.5747  -20.9621   -9.1662 C   0  0  0  0  0  0  0  0  0  0  0  0
   26.6472  -20.3791  -10.0834 C   0  0  0  0  0  0  0  0  0  0  0  0
   26.3028  -20.7633  -11.4870 C   0  0  2  0  0  0  0  0  0  0  0  0
   27.3043  -20.3618  -12.4470 N   0  0  0  0  0  0  0  0  0  0  0  0
   24.9862  -20.3049  -11.9395 C   0  0  0  0  0  0  0  0  0  0  0  0
   24.9242  -19.1986  -12.5294 O   0  0  0  0  0  0  0  0  0  0  0  0
   21.7702  -20.8673  -16.2919 C   0  0  0  0  0  0  0  0  0  0  0  0
   21.5605  -20.6382  -14.8122 C   0  0  0  0  0  0  0  0  0  0  0  0
   22.7824  -21.0339  -14.0108 C   0  0  2  0  0  0  0  0  0  0  0  0
   23.0126  -22.5074  -14.2552 C   0  0  0  0  0  0  0  0  0  0  0  0
   22.6395  -20.7046  -12.5635 C   0  0  2  0  0  0  0  0  0  0  0  0
   23.7819  -21.0271  -11.7555 N   0  0  0  0  0  0  0  0  0  0  0  0
   21.3586  -21.1795  -11.9689 C   0  0  0  0  0  0  0  0  0  0  0  0
   20.2399  -20.9276  -12.4763 O   0  0  0  0  0  0  0  0  0  0  0  0
   21.3346  -21.9394  -10.8009 O   0  0  0  0  0  0  0  0  0  0  0  0
  2  1  1  6
  3  2  1  0
  4  3  1  0
  5  2  1  0
  6  5  2  0
  8  7  1  0
  9  8  1  0
 10  9  1  0
 11 10  1  1
 11 12  1  0
 12  5  1  0
 13 20  1  0
 13 11  1  0
 14 13  2  0
 15 16  1  0
 16 17  1  0
 17 18  1  1
 19 17  1  0
 19 20  1  1
 21 23  1  0
 21 19  1  0
 22 21  2  0
M  END
$$$$
