CMI.pdb
     RDKit          3D

 23 22  0  0  1  0  0  0  0  0999 V2000
   20.8251  -14.0691  -19.8638 N   0  0  0  0  0  0  0  0  0  0  0  0
   21.1206  -12.6760  -19.9123 C   0  0  1  0  0  0  0  0  0  0  0  0
   19.8729  -11.9094  -20.3266 C   0  0  0  0  0  0  0  0  0  0  0  0
   19.5938  -12.1389  -22.1055 S   0  0  0  0  0  0  0  0  0  0  0  0
   21.6111  -12.1069  -18.6544 C   0  0  0  0  0  0  0  0  0  0  0  0
   20.8940  -12.2266  -17.6272 O   0  0  0  0  0  0  0  0  0  0  0  0
   27.4762  -11.0735  -15.4410 C   0  0  0  0  0  0  0  0  0  0  0  0
   26.8475  -12.5464  -16.3325 S   0  0  0  0  0  0  0  0  0  0  0  0
   25.0634  -12.3333  -16.5540 C   0  0  0  0  0  0  0  0  0  0  0  0
   24.7321  -10.9132  -17.0066 C   0  0  0  0  0  0  0  0  0  0  0  0
   23.2557  -10.8412  -17.2331 C   0  0  2  0  0  0  0  0  0  0  0  0
   22.8458  -11.4206  -18.4909 N   0  0  0  0  0  0  0  0  0  0  0  0
   22.6844   -9.4971  -17.1096 C   0  0  0  0  0  0  0  0  0  0  0  0
   22.8621   -8.6974  -18.0609 O   0  0  0  0  0  0  0  0  0  0  0  0
   18.3056   -6.0528  -17.5562 C   0  0  0  0  0  0  0  0  0  0  0  0
   19.5422   -6.1872  -16.6966 C   0  0  0  0  0  0  0  0  0  0  0  0
   20.0769   -7.6035  -16.7114 C   0  0  2  0  0  0  0  0  0  0  0  0
   19.0083   -8.4852  -16.1076 C   0  0  0  0  0  0  0  0  0  0  0  0
   21.3865   -7.7200  -16.0079 C   0  0  2  0  0  0  0  0  0  0  0  0
   21.9462   -9.0423  -15.9897 N   0  0  0  0  0  0  0  0  0  0  0  0
   21.4026   -7.0673  -14.6687 C   0  0  0  0  0  0  0  0  0  0  0  0
   21.1020   -5.8621  -14.4970 O   0  0  0  0  0  0  0  0  0  0  0  0
   21.7576   -7.7707  -13.5191 O   0  0  0  0  0  0  0  0  0  0  0  0
  2  1  1  1
  3  2  1  0
  4  3  1  0
  5  2  1  0
  6  5  2  0
  8  7  1  0
  9  8  1  0
 10  9  1  0
 11 10  1  6
 11 12  1  0
 12  5  1  0
 13 20  1  0
 13 11  1  0
 14 13  2  0
 15 16  1  0
 16 17  1  0
 17 18  1  1
 19 17  1  0
 19 20  1  1
 21 23  1  0
 21 19  1  0
 22 21  2  0
M  END
$$$$
