CMI.pdb
     RDKit          3D

 23 22  0  0  1  0  0  0  0  0999 V2000
   28.5859  -20.7056  -15.9757 N   0  0  0  0  0  0  0  0  0  0  0  0
   28.1251  -19.8613  -14.9245 C   0  0  1  0  0  0  0  0  0  0  0  0
   27.4653  -18.6265  -15.5210 C   0  0  0  0  0  0  0  0  0  0  0  0
   28.7423  -17.5548  -16.2392 S   0  0  0  0  0  0  0  0  0  0  0  0
   27.1740  -20.4888  -14.0033 C   0  0  0  0  0  0  0  0  0  0  0  0
   26.4520  -21.4233  -14.4385 O   0  0  0  0  0  0  0  0  0  0  0  0
   26.9507  -20.1724   -7.4615 C   0  0  0  0  0  0  0  0  0  0  0  0
   25.3191  -20.9449   -7.7787 S   0  0  0  0  0  0  0  0  0  0  0  0
   25.2174  -21.3040   -9.5502 C   0  0  0  0  0  0  0  0  0  0  0  0
   26.1725  -20.4174  -10.3459 C   0  0  0  0  0  0  0  0  0  0  0  0
   26.0001  -20.7484  -11.7940 C   0  0  2  0  0  0  0  0  0  0  0  0
   26.9930  -20.1283  -12.6397 N   0  0  0  0  0  0  0  0  0  0  0  0
   24.6645  -20.4685  -12.3289 C   0  0  0  0  0  0  0  0  0  0  0  0
   24.3950  -19.2810  -12.6343 O   0  0  0  0  0  0  0  0  0  0  0  0
   22.8043  -22.2644  -16.7183 C   0  0  0  0  0  0  0  0  0  0  0  0
   23.1340  -21.5253  -15.4412 C   0  0  0  0  0  0  0  0  0  0  0  0
   22.0689  -21.7377  -14.3864 C   0  0  2  0  0  0  0  0  0  0  0  0
   20.7620  -21.2597  -14.9760 C   0  0  0  0  0  0  0  0  0  0  0  0
   22.4040  -21.0600  -13.1011 C   0  0  2  0  0  0  0  0  0  0  0  0
   23.6604  -21.4480  -12.5240 N   0  0  0  0  0  0  0  0  0  0  0  0
   21.2875  -21.0697  -12.1146 C   0  0  0  0  0  0  0  0  0  0  0  0
   20.1811  -20.5226  -12.3359 O   0  0  0  0  0  0  0  0  0  0  0  0
   21.4145  -21.6958  -10.8760 O   0  0  0  0  0  0  0  0  0  0  0  0
  2  1  1  6
  3  2  1  0
  4  3  1  0
  5  2  1  0
  6  5  2  0
  8  7  1  0
  9  8  1  0
 10  9  1  0
 11 10  1  1
 11 12  1  0
 12  5  1  0
 13 20  1  0
 13 11  1  0
 14 13  2  0
 15 16  1  0
 16 17  1  0
 17 18  1  6
 19 17  1  0
 19 20  1  1
 21 23  1  0
 21 19  1  0
 22 21  2  0
M  END
$$$$
