CMI.pdb
     RDKit          3D

 23 22  0  0  1  0  0  0  0  0999 V2000
   28.8120  -21.8013  -15.9646 N   0  0  0  0  0  0  0  0  0  0  0  0
   28.2957  -20.7169  -15.1979 C   0  0  1  0  0  0  0  0  0  0  0  0
   27.6117  -19.7232  -16.1255 C   0  0  0  0  0  0  0  0  0  0  0  0
   28.8732  -18.8156  -17.0636 S   0  0  0  0  0  0  0  0  0  0  0  0
   27.3416  -21.1006  -14.1542 C   0  0  0  0  0  0  0  0  0  0  0  0
   26.5528  -22.0526  -14.3895 O   0  0  0  0  0  0  0  0  0  0  0  0
   27.4224  -20.4122   -7.4452 C   0  0  0  0  0  0  0  0  0  0  0  0
   25.6615  -20.2243   -7.9179 S   0  0  0  0  0  0  0  0  0  0  0  0
   25.4661  -20.9010   -9.5857 C   0  0  0  0  0  0  0  0  0  0  0  0
   26.5264  -20.3431  -10.5323 C   0  0  0  0  0  0  0  0  0  0  0  0
   26.2544  -20.8949  -11.8953 C   0  0  2  0  0  0  0  0  0  0  0  0
   27.2275  -20.4814  -12.8791 N   0  0  0  0  0  0  0  0  0  0  0  0
   24.9064  -20.6267  -12.4042 C   0  0  0  0  0  0  0  0  0  0  0  0
   24.6678  -19.4767  -12.8476 O   0  0  0  0  0  0  0  0  0  0  0  0
   22.6498  -23.2969  -16.2299 C   0  0  0  0  0  0  0  0  0  0  0  0
   23.1211  -22.2980  -15.1975 C   0  0  0  0  0  0  0  0  0  0  0  0
   22.1121  -22.1369  -14.0802 C   0  0  2  0  0  0  0  0  0  0  0  0
   20.8221  -21.6702  -14.7141 C   0  0  0  0  0  0  0  0  0  0  0  0
   22.5956  -21.2167  -13.0111 C   0  0  2  0  0  0  0  0  0  0  0  0
   23.8575  -21.5781  -12.4290 N   0  0  0  0  0  0  0  0  0  0  0  0
   21.5595  -20.8944  -11.9901 C   0  0  0  0  0  0  0  0  0  0  0  0
   20.5125  -20.2601  -12.2619 O   0  0  0  0  0  0  0  0  0  0  0  0
   21.7002  -21.2858  -10.6599 O   0  0  0  0  0  0  0  0  0  0  0  0
  2  1  1  6
  3  2  1  0
  4  3  1  0
  5  2  1  0
  6  5  2  0
  8  7  1  0
  9  8  1  0
 10  9  1  0
 11 10  1  1
 11 12  1  0
 12  5  1  0
 13 20  1  0
 13 11  1  0
 14 13  2  0
 15 16  1  0
 16 17  1  0
 17 18  1  6
 19 17  1  0
 19 20  1  1
 21 23  1  0
 21 19  1  0
 22 21  2  0
M  END
$$$$
