CMI.pdb
     RDKit          3D

 23 22  0  0  1  0  0  0  0  0999 V2000
   28.4201  -21.4836  -15.5246 N   0  0  0  0  0  0  0  0  0  0  0  0
   27.8596  -20.4725  -14.6916 C   0  0  1  0  0  0  0  0  0  0  0  0
   27.3598  -19.3249  -15.5570 C   0  0  0  0  0  0  0  0  0  0  0  0
   28.7796  -18.4873  -16.3170 S   0  0  0  0  0  0  0  0  0  0  0  0
   26.7538  -20.9195  -13.8405 C   0  0  0  0  0  0  0  0  0  0  0  0
   25.9707  -21.7946  -14.2929 O   0  0  0  0  0  0  0  0  0  0  0  0
   26.5344  -19.1436   -7.7313 C   0  0  0  0  0  0  0  0  0  0  0  0
   26.8478  -20.9368   -7.9456 S   0  0  0  0  0  0  0  0  0  0  0  0
   26.6329  -21.3251   -9.7007 C   0  0  0  0  0  0  0  0  0  0  0  0
   25.4669  -20.5407  -10.2978 C   0  0  0  0  0  0  0  0  0  0  0  0
   25.3646  -20.9087  -11.7437 C   0  0  2  0  0  0  0  0  0  0  0  0
   26.4844  -20.4432  -12.5280 N   0  0  0  0  0  0  0  0  0  0  0  0
   24.1154  -20.4977  -12.3908 C   0  0  0  0  0  0  0  0  0  0  0  0
   24.0358  -19.3170  -12.8099 O   0  0  0  0  0  0  0  0  0  0  0  0
   20.3864  -21.1215  -16.7962 C   0  0  0  0  0  0  0  0  0  0  0  0
   20.4651  -20.7237  -15.3398 C   0  0  0  0  0  0  0  0  0  0  0  0
   21.7213  -21.2587  -14.6856 C   0  0  2  0  0  0  0  0  0  0  0  0
   21.7010  -22.7605  -14.8528 C   0  0  0  0  0  0  0  0  0  0  0  0
   21.8382  -20.8384  -13.2596 C   0  0  2  0  0  0  0  0  0  0  0  0
   22.9945  -21.3438  -12.5745 N   0  0  0  0  0  0  0  0  0  0  0  0
   20.5807  -21.0186  -12.4812 C   0  0  0  0  0  0  0  0  0  0  0  0
   20.5074  -21.7579  -11.4711 O   0  0  0  0  0  0  0  0  0  0  0  0
   19.4022  -20.3662  -12.8388 O   0  0  0  0  0  0  0  0  0  0  0  0
  2  1  1  6
  3  2  1  0
  4  3  1  0
  5  2  1  0
  6  5  2  0
  8  7  1  0
  9  8  1  0
 10  9  1  0
 11 10  1  1
 11 12  1  0
 12  5  1  0
 13 20  1  0
 13 11  1  0
 14 13  2  0
 15 16  1  0
 16 17  1  0
 17 18  1  1
 19 17  1  0
 19 20  1  1
 21 23  1  0
 21 19  1  0
 22 21  2  0
M  END
$$$$
