CMI.pdb
     RDKit          3D

 23 22  0  0  1  0  0  0  0  0999 V2000
   14.6860  -23.9845   -1.9760 N   0  0  0  0  0  0  0  0  0  0  0  0
   14.5910  -22.7549   -1.2623 C   0  0  1  0  0  0  0  0  0  0  0  0
   13.1851  -22.1918   -1.4116 C   0  0  0  0  0  0  0  0  0  0  0  0
   13.0089  -21.4545   -3.0610 S   0  0  0  0  0  0  0  0  0  0  0  0
   14.8974  -22.8481    0.1675 C   0  0  0  0  0  0  0  0  0  0  0  0
   14.4965  -23.8611    0.7975 O   0  0  0  0  0  0  0  0  0  0  0  0
   19.3841  -24.2588    5.8932 C   0  0  0  0  0  0  0  0  0  0  0  0
   19.2304  -23.8456    4.1141 S   0  0  0  0  0  0  0  0  0  0  0  0
   17.6218  -23.0508    3.8726 C   0  0  0  0  0  0  0  0  0  0  0  0
   17.3466  -22.8074    2.3906 C   0  0  0  0  0  0  0  0  0  0  0  0
   16.0343  -22.0987    2.2824 C   0  0  2  0  0  0  0  0  0  0  0  0
   15.6194  -21.8787    0.9166 N   0  0  0  0  0  0  0  0  0  0  0  0
   15.9609  -20.8348    3.0209 C   0  0  0  0  0  0  0  0  0  0  0  0
   16.5806  -19.8483    2.5531 O   0  0  0  0  0  0  0  0  0  0  0  0
   11.6211  -18.2617    4.4150 C   0  0  0  0  0  0  0  0  0  0  0  0
   12.9755  -18.8195    4.0404 C   0  0  0  0  0  0  0  0  0  0  0  0
   13.9211  -18.8215    5.2227 C   0  0  2  0  0  0  0  0  0  0  0  0
   13.9880  -17.4021    5.7370 C   0  0  0  0  0  0  0  0  0  0  0  0
   15.2619  -19.3722    4.8725 C   0  0  2  0  0  0  0  0  0  0  0  0
   15.2376  -20.6537    4.2250 N   0  0  0  0  0  0  0  0  0  0  0  0
   16.2420  -19.3093    5.9928 C   0  0  0  0  0  0  0  0  0  0  0  0
   16.5587  -20.3126    6.6751 O   0  0  0  0  0  0  0  0  0  0  0  0
   16.8681  -18.1158    6.3476 O   0  0  0  0  0  0  0  0  0  0  0  0
  2  1  1  1
  3  2  1  0
  4  3  1  0
  5  2  1  0
  6  5  2  0
  8  7  1  0
  9  8  1  0
 10  9  1  0
 11 10  1  6
 11 12  1  0
 12  5  1  0
 13 20  1  0
 13 11  1  0
 14 13  2  0
 15 16  1  0
 16 17  1  0
 17 18  1  6
 19 17  1  0
 19 20  1  1
 21 23  1  0
 21 19  1  0
 22 21  2  0
M  END
$$$$
