CMI.pdb
     RDKit          3D

 23 22  0  0  1  0  0  0  0  0999 V2000
   25.0919  -10.3049  -21.6985 N   0  0  0  0  0  0  0  0  0  0  0  0
   25.4577   -9.4245  -20.6395 C   0  0  1  0  0  0  0  0  0  0  0  0
   25.5947   -8.0099  -21.1835 C   0  0  0  0  0  0  0  0  0  0  0  0
   27.0624   -7.9185  -22.2476 S   0  0  0  0  0  0  0  0  0  0  0  0
   24.5204   -9.3935  -19.5137 C   0  0  0  0  0  0  0  0  0  0  0  0
   23.3658   -8.9343  -19.7128 O   0  0  0  0  0  0  0  0  0  0  0  0
   23.5401  -13.9730  -15.1461 C   0  0  0  0  0  0  0  0  0  0  0  0
   22.9536  -12.5508  -14.1496 S   0  0  0  0  0  0  0  0  0  0  0  0
   22.8499  -11.1163  -15.2491 C   0  0  0  0  0  0  0  0  0  0  0  0
   23.9772  -11.1312  -16.2789 C   0  0  0  0  0  0  0  0  0  0  0  0
   23.7960   -9.9429  -17.1684 C   0  0  2  0  0  0  0  0  0  0  0  0
   24.8065   -9.8438  -18.1955 N   0  0  0  0  0  0  0  0  0  0  0  0
   23.6949   -8.6623  -16.4627 C   0  0  0  0  0  0  0  0  0  0  0  0
   24.7599   -8.0431  -16.2210 O   0  0  0  0  0  0  0  0  0  0  0  0
   22.0473   -3.1551  -16.5216 C   0  0  0  0  0  0  0  0  0  0  0  0
   22.2024   -4.3188  -15.5689 C   0  0  0  0  0  0  0  0  0  0  0  0
   22.1962   -5.6423  -16.3040 C   0  0  2  0  0  0  0  0  0  0  0  0
   20.8488   -5.7676  -16.9767 C   0  0  0  0  0  0  0  0  0  0  0  0
   22.4998   -6.7905  -15.4022 C   0  0  2  0  0  0  0  0  0  0  0  0
   22.4769   -8.0785  -16.0366 N   0  0  0  0  0  0  0  0  0  0  0  0
   21.7343   -6.7621  -14.1244 C   0  0  0  0  0  0  0  0  0  0  0  0
   21.7404   -5.7751  -13.3510 O   0  0  0  0  0  0  0  0  0  0  0  0
   20.9598   -7.8458  -13.7143 O   0  0  0  0  0  0  0  0  0  0  0  0
  2  1  1  6
  3  2  1  0
  4  3  1  0
  5  2  1  0
  6  5  2  0
  8  7  1  0
  9  8  1  0
 10  9  1  0
 11 10  1  1
 11 12  1  0
 12  5  1  0
 13 20  1  0
 13 11  1  0
 14 13  2  0
 15 16  1  0
 16 17  1  0
 17 18  1  1
 19 17  1  0
 19 20  1  6
 21 23  1  0
 21 19  1  0
 22 21  2  0
M  END
$$$$
