RKW.pdb
     RDKit          3D

 35 36  0  0  1  0  0  0  0  0999 V2000
   21.4176  -20.3237  -11.1910 N   0  0  0  0  0  0  0  0  0  0  0  0
   20.1470  -19.7420  -11.5000 C   0  0  0  0  0  0  0  0  0  0  0  0
   19.8439  -18.6323  -10.9140 N   0  0  0  0  0  0  0  0  0  0  0  0
   19.2621  -20.3772  -12.4215 N   0  0  0  0  0  0  0  0  0  0  0  0
   19.6922  -21.6943  -12.8983 C   0  0  0  0  0  0  0  0  0  0  0  0
   19.9980  -21.5758  -14.3515 C   0  0  0  0  0  0  0  0  0  0  0  0
   21.4096  -21.2881  -14.7085 C   0  0  0  0  0  0  0  0  0  0  0  0
   22.1774  -22.4097  -15.3321 C   0  0  2  0  0  0  0  0  0  0  0  0
   21.4296  -23.6228  -15.4207 N   0  0  0  0  0  0  0  0  0  0  0  0
   23.4106  -22.6114  -14.4814 C   0  0  0  0  0  0  0  0  0  0  0  0
   23.3676  -23.5757  -13.6763 O   0  0  0  0  0  0  0  0  0  0  0  0
   18.9277  -18.1821  -11.0191 N   0  0  0  0  0  0  0  0  0  0  0  0
   24.5073  -21.7284  -14.6390 C   0  0  2  0  0  0  0  0  0  0  0  0
   25.7312  -21.9965  -13.8600 C   0  0  0  0  0  0  0  0  0  0  0  0
   26.8597  -21.5425  -14.6766 C   0  0  0  0  0  0  0  0  0  0  0  0
   27.5065  -22.4460  -15.6361 C   0  0  0  0  0  0  0  0  0  0  0  0
   28.5888  -21.8473  -16.4776 C   0  0  0  0  0  0  0  0  0  0  0  0
   29.0375  -22.8243  -17.5789 N   0  0  0  0  0  0  0  0  0  0  0  0
   30.0742  -22.2165  -18.3929 C   0  0  0  0  0  0  0  0  0  0  0  0
   25.5254  -21.4104  -12.5418 O   0  0  0  0  0  0  0  0  0  0  0  0
   24.7645  -20.3864  -12.4364 N   0  0  0  0  0  0  0  0  0  0  0  0
   26.0875  -21.8566  -11.3148 C   0  0  2  0  0  0  0  0  0  0  0  0
   26.1855  -21.0039  -10.1465 C   0  0  0  0  0  0  0  0  0  0  0  0
   26.9397  -21.7119   -9.0140 C   0  0  0  0  0  0  0  0  0  0  0  0
   27.1072  -20.7402   -7.9107 C   0  0  0  0  0  0  0  0  0  0  0  0
   26.3631  -19.6002   -7.7066 N   0  0  0  0  0  0  0  0  0  0  0  0
   26.8234  -18.9857   -6.5988 C   0  0  0  0  0  0  0  0  0  0  0  0
   27.8352  -19.6939   -6.0891 C   0  0  0  0  0  0  0  0  0  0  0  0
   28.6276  -19.4835   -4.9757 C   0  0  0  0  0  0  0  0  0  0  0  0
   29.6100  -20.4112   -4.7065 C   0  0  0  0  0  0  0  0  0  0  0  0
   29.8314  -21.5293   -5.4958 C   0  0  0  0  0  0  0  0  0  0  0  0
   29.0349  -21.7151   -6.5908 C   0  0  0  0  0  0  0  0  0  0  0  0
   28.0478  -20.8094   -6.8858 C   0  0  0  0  0  0  0  0  0  0  0  0
   26.7396  -19.6856  -10.4567 O   0  0  0  0  0  0  0  0  0  0  0  0
   26.2276  -18.4875  -10.0436 O   0  0  0  0  0  0  0  0  0  0  0  0
  2  3  2  0
  2  1  1  0
  4  2  1  0
  5  4  1  0
  6  5  1  0
  7  6  1  0
  8  7  1  0
  8  9  1  1
 10 12  1  0
 10  8  1  0
 11 10  2  0
 13 12  1  0
 13 19  1  0
 14 15  1  0
 13 14  1  6
 15 16  1  0
 16 17  1  0
 17 18  1  0
 19 21  1  0
 20 19  2  0
 21 22  1  0
 22 23  1  6
 22 33  1  0
 23 24  1  0
 24 25  2  0
 25 26  1  0
 27 28  2  0
 27 26  1  0
 29 28  1  0
 30 29  2  0
 31 30  1  0
 31 32  2  0
 32 24  1  0
 32 27  1  0
 33 34  1  0
 35 33  2  0
M  END
$$$$
