RKW.pdb
     RDKit          3D

 35 36  0  0  1  0  0  0  0  0999 V2000
   16.6327  -23.4234  -11.2294 N   0  0  0  0  0  0  0  0  0  0  0  0
   16.0831  -22.3908  -12.0539 C   0  0  0  0  0  0  0  0  0  0  0  0
   15.0937  -22.7070  -12.8207 N   0  0  0  0  0  0  0  0  0  0  0  0
   16.6199  -21.0694  -12.0177 N   0  0  0  0  0  0  0  0  0  0  0  0
   18.0209  -20.9497  -12.4300 C   0  0  0  0  0  0  0  0  0  0  0  0
   18.8246  -21.8816  -11.5905 C   0  0  0  0  0  0  0  0  0  0  0  0
   19.9300  -21.2777  -10.8054 C   0  0  0  0  0  0  0  0  0  0  0  0
   20.9085  -20.4451  -11.5706 C   0  0  2  0  0  0  0  0  0  0  0  0
   20.4623  -20.1197  -12.8872 N   0  0  0  0  0  0  0  0  0  0  0  0
   22.1936  -21.2388  -11.6305 C   0  0  0  0  0  0  0  0  0  0  0  0
   22.6514  -21.6220  -10.5243 O   0  0  0  0  0  0  0  0  0  0  0  0
   14.6251  -22.0270  -13.4298 N   0  0  0  0  0  0  0  0  0  0  0  0
   22.7858  -21.4955  -12.8917 C   0  0  1  0  0  0  0  0  0  0  0  0
   24.0177  -22.3066  -12.9273 C   0  0  0  0  0  0  0  0  0  0  0  0
   24.0098  -23.0312  -14.2006 C   0  0  0  0  0  0  0  0  0  0  0  0
   25.1807  -23.8028  -14.6353 C   0  0  0  0  0  0  0  0  0  0  0  0
   25.1041  -24.4004  -16.0046 C   0  0  0  0  0  0  0  0  0  0  0  0
   26.4102  -25.1312  -16.3631 N   0  0  0  0  0  0  0  0  0  0  0  0
   26.3165  -25.6948  -17.6973 C   0  0  0  0  0  0  0  0  0  0  0  0
   25.1222  -21.4040  -12.6291 O   0  0  0  0  0  0  0  0  0  0  0  0
   25.0447  -20.1876  -13.0204 N   0  0  0  0  0  0  0  0  0  0  0  0
   26.3174  -21.7236  -11.9293 C   0  0  1  0  0  0  0  0  0  0  0  0
   27.4361  -20.8061  -11.8374 C   0  0  0  0  0  0  0  0  0  0  0  0
   28.3579  -21.1823  -10.6704 C   0  0  0  0  0  0  0  0  0  0  0  0
   27.7188  -20.7074   -9.4231 C   0  0  0  0  0  0  0  0  0  0  0  0
   26.4283  -20.2467   -9.2910 N   0  0  0  0  0  0  0  0  0  0  0  0
   26.2281  -19.9099   -8.0014 C   0  0  0  0  0  0  0  0  0  0  0  0
   27.3457  -20.1396   -7.3063 C   0  0  0  0  0  0  0  0  0  0  0  0
   27.6423  -19.9585   -5.9680 C   0  0  0  0  0  0  0  0  0  0  0  0
   28.9095  -20.2943   -5.5437 C   0  0  0  0  0  0  0  0  0  0  0  0
   29.8829  -20.7982   -6.3927 C   0  0  0  0  0  0  0  0  0  0  0  0
   29.5652  -20.9681   -7.7111 C   0  0  0  0  0  0  0  0  0  0  0  0
   28.3120  -20.6433   -8.1646 C   0  0  0  0  0  0  0  0  0  0  0  0
   28.1557  -20.6672  -13.1038 O   0  0  0  0  0  0  0  0  0  0  0  0
   28.9150  -19.5935  -13.4766 O   0  0  0  0  0  0  0  0  0  0  0  0
  2  3  2  0
  2  1  1  0
  4  2  1  0
  5  4  1  0
  6  5  1  0
  7  6  1  0
  8  7  1  0
  8  9  1  6
 10 12  1  0
 10  8  1  0
 11 10  2  0
 13 12  1  0
 13 19  1  0
 14 15  1  0
 13 14  1  1
 15 16  1  0
 16 17  1  0
 17 18  1  0
 19 21  1  0
 20 19  2  0
 21 22  1  0
 22 23  1  6
 22 33  1  0
 23 24  1  0
 24 25  2  0
 25 26  1  0
 27 28  2  0
 27 26  1  0
 29 28  1  0
 30 29  2  0
 31 30  1  0
 31 32  2  0
 32 24  1  0
 32 27  1  0
 33 34  1  0
 35 33  2  0
M  END
$$$$
