RKW.pdb
     RDKit          3D

 35 36  0  0  1  0  0  0  0  0999 V2000
   28.6594  -21.2390  -19.1708 N   0  0  0  0  0  0  0  0  0  0  0  0
   29.2817  -20.0335  -19.6264 C   0  0  0  0  0  0  0  0  0  0  0  0
   29.2017  -19.7636  -20.8863 N   0  0  0  0  0  0  0  0  0  0  0  0
   29.9602  -19.1753  -18.7105 N   0  0  0  0  0  0  0  0  0  0  0  0
   29.4814  -19.2302  -17.3267 C   0  0  0  0  0  0  0  0  0  0  0  0
   28.0676  -18.7607  -17.3143 C   0  0  0  0  0  0  0  0  0  0  0  0
   27.4516  -18.5537  -15.9799 C   0  0  0  0  0  0  0  0  0  0  0  0
   28.0137  -19.3661  -14.8572 C   0  0  2  0  0  0  0  0  0  0  0  0
   28.6908  -20.5433  -15.2982 N   0  0  0  0  0  0  0  0  0  0  0  0
   26.8489  -19.7305  -13.9653 C   0  0  0  0  0  0  0  0  0  0  0  0
   26.0775  -18.7861  -13.6606 O   0  0  0  0  0  0  0  0  0  0  0  0
   29.6099  -18.9173  -21.2991 N   0  0  0  0  0  0  0  0  0  0  0  0
   26.7014  -21.0740  -13.5406 C   0  0  1  0  0  0  0  0  0  0  0  0
   25.5801  -21.3969  -12.6377 C   0  0  0  0  0  0  0  0  0  0  0  0
   24.9794  -22.6365  -13.1366 C   0  0  0  0  0  0  0  0  0  0  0  0
   24.1157  -22.6302  -14.3237 C   0  0  0  0  0  0  0  0  0  0  0  0
   22.9645  -23.5854  -14.3055 C   0  0  0  0  0  0  0  0  0  0  0  0
   22.1411  -23.4843  -15.6019 N   0  0  0  0  0  0  0  0  0  0  0  0
   22.9734  -23.8025  -16.7475 C   0  0  0  0  0  0  0  0  0  0  0  0
   26.1105  -21.3589  -11.2810 O   0  0  0  0  0  0  0  0  0  0  0  0
   27.0304  -22.1883  -10.9572 N   0  0  0  0  0  0  0  0  0  0  0  0
   25.7157  -20.4787  -10.2371 C   0  0  1  0  0  0  0  0  0  0  0  0
   26.0525  -20.7169   -8.8473 C   0  0  0  0  0  0  0  0  0  0  0  0
   26.9362  -19.5901   -8.2976 C   0  0  0  0  0  0  0  0  0  0  0  0
   27.9139  -20.1995   -7.3689 C   0  0  0  0  0  0  0  0  0  0  0  0
   28.7308  -21.2754   -7.6339 N   0  0  0  0  0  0  0  0  0  0  0  0
   29.4728  -21.5249   -6.5367 C   0  0  0  0  0  0  0  0  0  0  0  0
   29.1579  -20.6458   -5.5812 C   0  0  0  0  0  0  0  0  0  0  0  0
   29.6334  -20.4881   -4.2924 C   0  0  0  0  0  0  0  0  0  0  0  0
   29.0995  -19.4683   -3.5351 C   0  0  0  0  0  0  0  0  0  0  0  0
   28.1200  -18.6082   -4.0073 C   0  0  0  0  0  0  0  0  0  0  0  0
   27.6665  -18.7845   -5.2844 C   0  0  0  0  0  0  0  0  0  0  0  0
   28.1780  -19.7907   -6.0639 C   0  0  0  0  0  0  0  0  0  0  0  0
   24.8737  -20.9666   -8.0172 O   0  0  0  0  0  0  0  0  0  0  0  0
   24.8722  -21.5881   -6.7998 O   0  0  0  0  0  0  0  0  0  0  0  0
  2  3  2  0
  2  1  1  0
  4  2  1  0
  5  4  1  0
  6  5  1  0
  7  6  1  0
  8  7  1  0
  8  9  1  6
 10 12  1  0
 10  8  1  0
 11 10  2  0
 13 12  1  0
 13 19  1  0
 14 15  1  0
 13 14  1  1
 15 16  1  0
 16 17  1  0
 17 18  1  0
 19 21  1  0
 20 19  2  0
 21 22  1  0
 22 23  1  1
 22 33  1  0
 23 24  1  0
 24 25  2  0
 25 26  1  0
 27 28  2  0
 27 26  1  0
 29 28  1  0
 30 29  2  0
 31 30  1  0
 31 32  2  0
 32 24  1  0
 32 27  1  0
 33 34  1  0
 35 33  2  0
M  END
$$$$
