RKW.pdb
     RDKit          3D

 35 36  0  0  1  0  0  0  0  0999 V2000
   24.9258  -25.3186  -15.6072 N   0  0  0  0  0  0  0  0  0  0  0  0
   24.9157  -25.7311  -16.9775 C   0  0  0  0  0  0  0  0  0  0  0  0
   23.8413  -26.2936  -17.4202 N   0  0  0  0  0  0  0  0  0  0  0  0
   26.0570  -25.5216  -17.8077 N   0  0  0  0  0  0  0  0  0  0  0  0
   26.8530  -24.3326  -17.4916 C   0  0  0  0  0  0  0  0  0  0  0  0
   28.0081  -24.7657  -16.6565 C   0  0  0  0  0  0  0  0  0  0  0  0
   29.2926  -24.0587  -16.8873 C   0  0  0  0  0  0  0  0  0  0  0  0
   29.1952  -22.6626  -17.4145 C   0  0  2  0  0  0  0  0  0  0  0  0
   30.3828  -22.2270  -18.0768 N   0  0  0  0  0  0  0  0  0  0  0  0
   28.8975  -21.7750  -16.2277 C   0  0  0  0  0  0  0  0  0  0  0  0
   29.7537  -21.7871  -15.3076 O   0  0  0  0  0  0  0  0  0  0  0  0
   23.7619  -26.6638  -18.3741 N   0  0  0  0  0  0  0  0  0  0  0  0
   27.7077  -21.0058  -16.2250 C   0  0  2  0  0  0  0  0  0  0  0  0
   27.4324  -20.1582  -15.0491 C   0  0  0  0  0  0  0  0  0  0  0  0
   26.9757  -18.8631  -15.5595 C   0  0  0  0  0  0  0  0  0  0  0  0
   26.4058  -17.8561  -14.6559 C   0  0  0  0  0  0  0  0  0  0  0  0
   25.9807  -16.5689  -15.2887 C   0  0  0  0  0  0  0  0  0  0  0  0
   25.4260  -15.5920  -14.2367 N   0  0  0  0  0  0  0  0  0  0  0  0
   24.9611  -14.3770  -14.8802 C   0  0  0  0  0  0  0  0  0  0  0  0
   26.5567  -20.9273  -14.1743 O   0  0  0  0  0  0  0  0  0  0  0  0
   25.7158  -21.7352  -14.7025 N   0  0  0  0  0  0  0  0  0  0  0  0
   26.5245  -20.8875  -12.7538 C   0  0  1  0  0  0  0  0  0  0  0  0
   25.6792  -21.7651  -11.9684 C   0  0  0  0  0  0  0  0  0  0  0  0
   26.3990  -22.2204  -10.6926 C   0  0  0  0  0  0  0  0  0  0  0  0
   26.3607  -21.0964   -9.7308 C   0  0  0  0  0  0  0  0  0  0  0  0
   25.2556  -20.3486   -9.3924 N   0  0  0  0  0  0  0  0  0  0  0  0
   25.6308  -19.4230   -8.4873 C   0  0  0  0  0  0  0  0  0  0  0  0
   26.9365  -19.5541   -8.2366 C   0  0  0  0  0  0  0  0  0  0  0  0
   27.7800  -18.8523   -7.3954 C   0  0  0  0  0  0  0  0  0  0  0  0
   29.1038  -19.2325   -7.3560 C   0  0  0  0  0  0  0  0  0  0  0  0
   29.6146  -20.2743   -8.1148 C   0  0  0  0  0  0  0  0  0  0  0  0
   28.7607  -20.9528   -8.9385 C   0  0  0  0  0  0  0  0  0  0  0  0
   27.4369  -20.5985   -9.0002 C   0  0  0  0  0  0  0  0  0  0  0  0
   24.3630  -21.1857  -11.6984 O   0  0  0  0  0  0  0  0  0  0  0  0
   24.0415  -19.8602  -11.7862 O   0  0  0  0  0  0  0  0  0  0  0  0
  2  3  2  0
  2  1  1  0
  4  2  1  0
  5  4  1  0
  6  5  1  0
  7  6  1  0
  8  7  1  0
  8  9  1  1
 10 12  1  0
 10  8  1  0
 11 10  2  0
 13 12  1  0
 13 19  1  0
 14 15  1  0
 13 14  1  6
 15 16  1  0
 16 17  1  0
 17 18  1  0
 19 21  1  0
 20 19  2  0
 21 22  1  0
 22 23  1  1
 22 33  1  0
 23 24  1  0
 24 25  2  0
 25 26  1  0
 27 28  2  0
 27 26  1  0
 29 28  1  0
 30 29  2  0
 31 30  1  0
 31 32  2  0
 32 24  1  0
 32 27  1  0
 33 34  1  0
 35 33  2  0
M  END
$$$$
