RKW.pdb
     RDKit          3D

 35 36  0  0  1  0  0  0  0  0999 V2000
   22.0061  -23.2234  -14.8249 N   0  0  0  0  0  0  0  0  0  0  0  0
   23.1193  -23.6818  -14.0511 C   0  0  0  0  0  0  0  0  0  0  0  0
   22.8837  -24.5599  -13.1345 N   0  0  0  0  0  0  0  0  0  0  0  0
   24.4313  -23.1774  -14.2961 N   0  0  0  0  0  0  0  0  0  0  0  0
   25.1847  -23.8712  -15.3441 C   0  0  0  0  0  0  0  0  0  0  0  0
   24.2253  -24.7083  -16.1174 C   0  0  0  0  0  0  0  0  0  0  0  0
   24.7857  -25.4698  -17.2615 C   0  0  0  0  0  0  0  0  0  0  0  0
   25.9126  -24.8218  -18.0008 C   0  0  2  0  0  0  0  0  0  0  0  0
   25.4869  -24.1056  -19.1603 N   0  0  0  0  0  0  0  0  0  0  0  0
   26.8670  -25.9289  -18.3857 C   0  0  0  0  0  0  0  0  0  0  0  0
   26.4930  -26.6693  -19.3301 O   0  0  0  0  0  0  0  0  0  0  0  0
   23.6019  -24.8787  -12.4744 N   0  0  0  0  0  0  0  0  0  0  0  0
   28.0887  -26.0605  -17.6805 C   0  0  2  0  0  0  0  0  0  0  0  0
   28.8944  -27.2751  -17.9092 C   0  0  0  0  0  0  0  0  0  0  0  0
   30.2934  -26.8465  -17.9824 C   0  0  0  0  0  0  0  0  0  0  0  0
   31.3596  -27.8059  -18.2960 C   0  0  0  0  0  0  0  0  0  0  0  0
   32.7423  -27.2438  -18.3972 C   0  0  0  0  0  0  0  0  0  0  0  0
   33.7158  -28.2743  -18.9964 N   0  0  0  0  0  0  0  0  0  0  0  0
   35.0285  -27.6796  -19.1679 C   0  0  0  0  0  0  0  0  0  0  0  0
   28.4977  -28.2388  -16.8907 O   0  0  0  0  0  0  0  0  0  0  0  0
   29.2568  -28.4057  -15.8736 N   0  0  0  0  0  0  0  0  0  0  0  0
   27.3260  -29.0435  -16.8908 C   0  0  2  0  0  0  0  0  0  0  0  0
   27.3343  -30.4325  -17.3060 C   0  0  0  0  0  0  0  0  0  0  0  0
   27.0056  -30.5594  -18.7989 C   0  0  0  0  0  0  0  0  0  0  0  0
   26.6144  -31.9634  -19.0542 C   0  0  0  0  0  0  0  0  0  0  0  0
   25.5455  -32.6276  -18.4962 N   0  0  0  0  0  0  0  0  0  0  0  0
   25.5282  -33.8855  -18.9802 C   0  0  0  0  0  0  0  0  0  0  0  0
   26.5487  -34.0468  -19.8274 C   0  0  0  0  0  0  0  0  0  0  0  0
   26.9548  -35.1399  -20.5704 C   0  0  0  0  0  0  0  0  0  0  0  0
   28.0695  -34.9922  -21.3667 C   0  0  0  0  0  0  0  0  0  0  0  0
   28.7881  -33.8095  -21.4505 C   0  0  0  0  0  0  0  0  0  0  0  0
   28.3666  -32.7434  -20.7065 C   0  0  0  0  0  0  0  0  0  0  0  0
   27.2602  -32.8585  -19.9038 C   0  0  0  0  0  0  0  0  0  0  0  0
   28.5715  -31.1223  -16.9392 O   0  0  0  0  0  0  0  0  0  0  0  0
   29.8067  -30.8837  -17.4738 O   0  0  0  0  0  0  0  0  0  0  0  0
  2  3  2  0
  2  1  1  0
  4  2  1  0
  5  4  1  0
  6  5  1  0
  7  6  1  0
  8  7  1  0
  8  9  1  6
 10 12  1  0
 10  8  1  0
 11 10  2  0
 13 12  1  0
 13 19  1  0
 14 15  1  0
 13 14  1  6
 15 16  1  0
 16 17  1  0
 17 18  1  0
 19 21  1  0
 20 19  2  0
 21 22  1  0
 22 23  1  6
 22 33  1  0
 23 24  1  0
 24 25  2  0
 25 26  1  0
 27 28  2  0
 27 26  1  0
 29 28  1  0
 30 29  2  0
 31 30  1  0
 31 32  2  0
 32 24  1  0
 32 27  1  0
 33 34  1  0
 35 33  2  0
M  END
$$$$
