RKW.pdb
     RDKit          3D

 35 36  0  0  1  0  0  0  0  0999 V2000
   31.3386  -18.9094  -18.9841 N   0  0  0  0  0  0  0  0  0  0  0  0
   30.2082  -19.7724  -19.1441 C   0  0  0  0  0  0  0  0  0  0  0  0
   30.3943  -20.8838  -19.7741 N   0  0  0  0  0  0  0  0  0  0  0  0
   28.9328  -19.4032  -18.6220 N   0  0  0  0  0  0  0  0  0  0  0  0
   28.8880  -18.1129  -17.9290 C   0  0  0  0  0  0  0  0  0  0  0  0
   27.4664  -17.8282  -17.5864 C   0  0  0  0  0  0  0  0  0  0  0  0
   27.1346  -17.7658  -16.1411 C   0  0  0  0  0  0  0  0  0  0  0  0
   27.4805  -18.9729  -15.3289 C   0  0  2  0  0  0  0  0  0  0  0  0
   27.2867  -20.1997  -16.0333 N   0  0  0  0  0  0  0  0  0  0  0  0
   26.6049  -18.9277  -14.0976 C   0  0  0  0  0  0  0  0  0  0  0  0
   26.6490  -17.8609  -13.4344 O   0  0  0  0  0  0  0  0  0  0  0  0
   29.6234  -21.5085  -20.0360 N   0  0  0  0  0  0  0  0  0  0  0  0
   25.8109  -20.0562  -13.7760 C   0  0  2  0  0  0  0  0  0  0  0  0
   24.9199  -19.9660  -12.6035 C   0  0  0  0  0  0  0  0  0  0  0  0
   23.6326  -20.5379  -13.0061 C   0  0  0  0  0  0  0  0  0  0  0  0
   22.3704  -19.9738  -12.5123 C   0  0  0  0  0  0  0  0  0  0  0  0
   21.1200  -20.6508  -12.9772 C   0  0  0  0  0  0  0  0  0  0  0  0
   19.8693  -19.9227  -12.4535 N   0  0  0  0  0  0  0  0  0  0  0  0
   18.6707  -20.6262  -12.8718 C   0  0  0  0  0  0  0  0  0  0  0  0
   25.6413  -20.5555  -11.4830 O   0  0  0  0  0  0  0  0  0  0  0  0
   26.4722  -21.5010  -11.7161 N   0  0  0  0  0  0  0  0  0  0  0  0
   25.5298  -20.1923  -10.1133 C   0  0  1  0  0  0  0  0  0  0  0  0
   26.3396  -20.8019   -9.0768 C   0  0  0  0  0  0  0  0  0  0  0  0
   27.5693  -19.9395   -8.7651 C   0  0  0  0  0  0  0  0  0  0  0  0
   28.2451  -20.5308   -7.5889 C   0  0  0  0  0  0  0  0  0  0  0  0
   28.7464  -21.8092   -7.4924 N   0  0  0  0  0  0  0  0  0  0  0  0
   29.2831  -21.9628   -6.2656 C   0  0  0  0  0  0  0  0  0  0  0  0
   29.1417  -20.8271   -5.5762 C   0  0  0  0  0  0  0  0  0  0  0  0
   29.5209  -20.4855   -4.2912 C   0  0  0  0  0  0  0  0  0  0  0  0
   29.2285  -19.2111   -3.8566 C   0  0  0  0  0  0  0  0  0  0  0  0
   28.5794  -18.2733   -4.6449 C   0  0  0  0  0  0  0  0  0  0  0  0
   28.2148  -18.6351   -5.9114 C   0  0  0  0  0  0  0  0  0  0  0  0
   28.4918  -19.8966   -6.3736 C   0  0  0  0  0  0  0  0  0  0  0  0
   25.5655  -21.1353   -7.8807 O   0  0  0  0  0  0  0  0  0  0  0  0
   25.8350  -22.1584   -7.0153 O   0  0  0  0  0  0  0  0  0  0  0  0
  2  3  2  0
  2  1  1  0
  4  2  1  0
  5  4  1  0
  6  5  1  0
  7  6  1  0
  8  7  1  0
  8  9  1  6
 10 12  1  0
 10  8  1  0
 11 10  2  0
 13 12  1  0
 13 19  1  0
 14 15  1  0
 13 14  1  6
 15 16  1  0
 16 17  1  0
 17 18  1  0
 19 21  1  0
 20 19  2  0
 21 22  1  0
 22 23  1  1
 22 33  1  0
 23 24  1  0
 24 25  2  0
 25 26  1  0
 27 28  2  0
 27 26  1  0
 29 28  1  0
 30 29  2  0
 31 30  1  0
 31 32  2  0
 32 24  1  0
 32 27  1  0
 33 34  1  0
 35 33  2  0
M  END
$$$$
