RKW.pdb
     RDKit          3D

 35 36  0  0  1  0  0  0  0  0999 V2000
   31.2312  -24.5816  -15.5608 N   0  0  0  0  0  0  0  0  0  0  0  0
   29.8344  -24.6880  -15.8535 C   0  0  0  0  0  0  0  0  0  0  0  0
   29.4339  -25.7574  -16.4559 N   0  0  0  0  0  0  0  0  0  0  0  0
   28.9338  -23.6438  -15.4872 N   0  0  0  0  0  0  0  0  0  0  0  0
   29.4726  -22.2851  -15.5918 C   0  0  0  0  0  0  0  0  0  0  0  0
   29.9799  -21.8909  -14.2478 C   0  0  0  0  0  0  0  0  0  0  0  0
   29.0480  -21.1165  -13.3906 C   0  0  0  0  0  0  0  0  0  0  0  0
   27.8453  -20.5424  -14.0691 C   0  0  2  0  0  0  0  0  0  0  0  0
   28.1639  -19.5032  -14.9950 N   0  0  0  0  0  0  0  0  0  0  0  0
   26.9450  -20.0160  -12.9749 C   0  0  0  0  0  0  0  0  0  0  0  0
   27.0709  -18.7952  -12.7034 O   0  0  0  0  0  0  0  0  0  0  0  0
   30.0673  -26.5277  -16.6978 N   0  0  0  0  0  0  0  0  0  0  0  0
   26.0406  -20.9037  -12.3415 C   0  0  2  0  0  0  0  0  0  0  0  0
   25.0645  -20.3378  -11.3908 C   0  0  0  0  0  0  0  0  0  0  0  0
   23.7454  -20.4602  -12.0166 C   0  0  0  0  0  0  0  0  0  0  0  0
   23.3348  -19.5493  -13.0922 C   0  0  0  0  0  0  0  0  0  0  0  0
   22.9741  -20.1894  -14.3953 C   0  0  0  0  0  0  0  0  0  0  0  0
   22.6393  -19.1286  -15.4589 N   0  0  0  0  0  0  0  0  0  0  0  0
   21.3884  -18.4701  -15.1302 C   0  0  0  0  0  0  0  0  0  0  0  0
   25.3061  -20.9848  -10.1076 O   0  0  0  0  0  0  0  0  0  0  0  0
   25.5164  -22.2474  -10.0858 N   0  0  0  0  0  0  0  0  0  0  0  0
   25.3389  -20.3591   -8.8317 C   0  0  1  0  0  0  0  0  0  0  0  0
   24.9441  -21.0447   -7.6169 C   0  0  0  0  0  0  0  0  0  0  0  0
   25.4874  -20.3204   -6.3787 C   0  0  0  0  0  0  0  0  0  0  0  0
   26.8110  -19.7606   -6.7314 C   0  0  0  0  0  0  0  0  0  0  0  0
   27.0857  -18.9129   -7.7806 N   0  0  0  0  0  0  0  0  0  0  0  0
   28.4037  -18.6313   -7.7645 C   0  0  0  0  0  0  0  0  0  0  0  0
   28.9793  -19.2697   -6.7416 C   0  0  0  0  0  0  0  0  0  0  0  0
   30.2918  -19.3031   -6.3080 C   0  0  0  0  0  0  0  0  0  0  0  0
   30.5790  -20.0703   -5.2002 C   0  0  0  0  0  0  0  0  0  0  0  0
   29.6188  -20.7984   -4.5146 C   0  0  0  0  0  0  0  0  0  0  0  0
   28.3286  -20.7491   -4.9627 C   0  0  0  0  0  0  0  0  0  0  0  0
   28.0104  -19.9943   -6.0630 C   0  0  0  0  0  0  0  0  0  0  0  0
   23.5015  -21.2796   -7.5465 O   0  0  0  0  0  0  0  0  0  0  0  0
   22.5713  -20.8014   -8.4265 O   0  0  0  0  0  0  0  0  0  0  0  0
  2  3  2  0
  2  1  1  0
  4  2  1  0
  5  4  1  0
  6  5  1  0
  7  6  1  0
  8  7  1  0
  8  9  1  6
 10 12  1  0
 10  8  1  0
 11 10  2  0
 13 12  1  0
 13 19  1  0
 14 15  1  0
 13 14  1  6
 15 16  1  0
 16 17  1  0
 17 18  1  0
 19 21  1  0
 20 19  2  0
 21 22  1  0
 22 23  1  1
 22 33  1  0
 23 24  1  0
 24 25  2  0
 25 26  1  0
 27 28  2  0
 27 26  1  0
 29 28  1  0
 30 29  2  0
 31 30  1  0
 31 32  2  0
 32 24  1  0
 32 27  1  0
 33 34  1  0
 35 33  2  0
M  END
$$$$
