RKW.pdb
     RDKit          3D

 35 36  0  0  1  0  0  0  0  0999 V2000
   25.9819  -26.4998  -17.0081 N   0  0  0  0  0  0  0  0  0  0  0  0
   27.0900  -26.3439  -17.9003 C   0  0  0  0  0  0  0  0  0  0  0  0
   27.0326  -26.9627  -19.0319 N   0  0  0  0  0  0  0  0  0  0  0  0
   28.2065  -25.5332  -17.5373 N   0  0  0  0  0  0  0  0  0  0  0  0
   28.0517  -24.7721  -16.2947 C   0  0  0  0  0  0  0  0  0  0  0  0
   28.3940  -23.3514  -16.5843 C   0  0  0  0  0  0  0  0  0  0  0  0
   27.3327  -22.3485  -16.3187 C   0  0  0  0  0  0  0  0  0  0  0  0
   26.1367  -22.8333  -15.5631 C   0  0  2  0  0  0  0  0  0  0  0  0
   25.0010  -23.0666  -16.3964 N   0  0  0  0  0  0  0  0  0  0  0  0
   25.8239  -21.7757  -14.5293 C   0  0  0  0  0  0  0  0  0  0  0  0
   26.0211  -20.5869  -14.8867 O   0  0  0  0  0  0  0  0  0  0  0  0
   27.8062  -26.9582  -19.7062 N   0  0  0  0  0  0  0  0  0  0  0  0
   25.3413  -22.1765  -13.2590 C   0  0  1  0  0  0  0  0  0  0  0  0
   24.9554  -21.1239  -12.2999 C   0  0  0  0  0  0  0  0  0  0  0  0
   23.4918  -21.1279  -12.2347 C   0  0  0  0  0  0  0  0  0  0  0  0
   22.6845  -20.7883  -13.4130 C   0  0  0  0  0  0  0  0  0  0  0  0
   21.2035  -20.7450  -13.2063 C   0  0  0  0  0  0  0  0  0  0  0  0
   20.4753  -20.3494  -14.5032 N   0  0  0  0  0  0  0  0  0  0  0  0
   20.5992  -18.9211  -14.7290 C   0  0  0  0  0  0  0  0  0  0  0  0
   25.7225  -21.3632  -11.0843 O   0  0  0  0  0  0  0  0  0  0  0  0
   25.7811  -22.5543  -10.6190 N   0  0  0  0  0  0  0  0  0  0  0  0
   26.4404  -20.3980  -10.3271 C   0  0  2  0  0  0  0  0  0  0  0  0
   26.9621  -20.6764   -9.0034 C   0  0  0  0  0  0  0  0  0  0  0  0
   28.1806  -19.7958   -8.6992 C   0  0  0  0  0  0  0  0  0  0  0  0
   28.7017  -20.1941   -7.3727 C   0  0  0  0  0  0  0  0  0  0  0  0
   29.4912  -21.2885   -7.1005 N   0  0  0  0  0  0  0  0  0  0  0  0
   29.7531  -21.3043   -5.7785 C   0  0  0  0  0  0  0  0  0  0  0  0
   29.1583  -20.2584   -5.1978 C   0  0  0  0  0  0  0  0  0  0  0  0
   29.1268  -19.8413   -3.8799 C   0  0  0  0  0  0  0  0  0  0  0  0
   28.4120  -18.7001   -3.5882 C   0  0  0  0  0  0  0  0  0  0  0  0
   27.7341  -17.9657   -4.5490 C   0  0  0  0  0  0  0  0  0  0  0  0
   27.7805  -18.3983   -5.8446 C   0  0  0  0  0  0  0  0  0  0  0  0
   28.4837  -19.5310   -6.1674 C   0  0  0  0  0  0  0  0  0  0  0  0
   25.9341  -20.5970   -7.9651 O   0  0  0  0  0  0  0  0  0  0  0  0
   24.9877  -19.6173   -7.8526 O   0  0  0  0  0  0  0  0  0  0  0  0
  2  3  2  0
  2  1  1  0
  4  2  1  0
  5  4  1  0
  6  5  1  0
  7  6  1  0
  8  7  1  0
  8  9  1  6
 10 12  1  0
 10  8  1  0
 11 10  2  0
 13 12  1  0
 13 19  1  0
 14 15  1  0
 13 14  1  6
 15 16  1  0
 16 17  1  0
 17 18  1  0
 19 21  1  0
 20 19  2  0
 21 22  1  0
 22 23  1  1
 22 33  1  0
 23 24  1  0
 24 25  2  0
 25 26  1  0
 27 28  2  0
 27 26  1  0
 29 28  1  0
 30 29  2  0
 31 30  1  0
 31 32  2  0
 32 24  1  0
 32 27  1  0
 33 34  1  0
 35 33  2  0
M  END
$$$$
