RKW.pdb
     RDKit          3D

 35 36  0  0  1  0  0  0  0  0999 V2000
   14.7723  -21.1707  -11.3118 N   0  0  0  0  0  0  0  0  0  0  0  0
   15.4682  -21.5480  -10.1195 C   0  0  0  0  0  0  0  0  0  0  0  0
   14.7812  -22.1162   -9.1858 N   0  0  0  0  0  0  0  0  0  0  0  0
   16.8664  -21.2982   -9.9846 N   0  0  0  0  0  0  0  0  0  0  0  0
   17.4813  -20.5588  -11.0902 C   0  0  0  0  0  0  0  0  0  0  0  0
   18.1275  -21.5484  -11.9971 C   0  0  0  0  0  0  0  0  0  0  0  0
   19.5427  -21.8871  -11.7048 C   0  0  0  0  0  0  0  0  0  0  0  0
   20.5183  -20.7546  -11.7506 C   0  0  2  0  0  0  0  0  0  0  0  0
   20.3759  -19.9355  -12.9113 N   0  0  0  0  0  0  0  0  0  0  0  0
   21.8970  -21.3732  -11.7076 C   0  0  0  0  0  0  0  0  0  0  0  0
   22.0865  -22.2235  -10.8016 O   0  0  0  0  0  0  0  0  0  0  0  0
   15.1935  -22.4051   -8.2915 N   0  0  0  0  0  0  0  0  0  0  0  0
   22.8623  -20.9696  -12.6628 C   0  0  1  0  0  0  0  0  0  0  0  0
   24.2115  -21.5607  -12.5778 C   0  0  0  0  0  0  0  0  0  0  0  0
   24.7731  -21.5277  -13.9305 C   0  0  0  0  0  0  0  0  0  0  0  0
   26.1261  -22.0317  -14.1967 C   0  0  0  0  0  0  0  0  0  0  0  0
   27.1345  -21.0145  -14.6286 C   0  0  0  0  0  0  0  0  0  0  0  0
   28.4987  -21.6709  -14.9054 N   0  0  0  0  0  0  0  0  0  0  0  0
   28.9739  -21.2966  -16.2247 C   0  0  0  0  0  0  0  0  0  0  0  0
   24.9061  -20.8658  -11.5017 O   0  0  0  0  0  0  0  0  0  0  0  0
   24.7387  -19.6029  -11.3769 N   0  0  0  0  0  0  0  0  0  0  0  0
   25.7774  -21.4435  -10.5386 C   0  0  1  0  0  0  0  0  0  0  0  0
   26.6134  -20.6440   -9.6648 C   0  0  0  0  0  0  0  0  0  0  0  0
   26.1180  -20.7184   -8.2150 C   0  0  0  0  0  0  0  0  0  0  0  0
   27.0009  -19.8595   -7.3949 C   0  0  0  0  0  0  0  0  0  0  0  0
   27.3375  -18.5503   -7.6550 N   0  0  0  0  0  0  0  0  0  0  0  0
   28.1590  -18.1211   -6.6765 C   0  0  0  0  0  0  0  0  0  0  0  0
   28.3583  -19.1107   -5.8013 C   0  0  0  0  0  0  0  0  0  0  0  0
   29.1112  -19.1678   -4.6431 C   0  0  0  0  0  0  0  0  0  0  0  0
   29.1173  -20.3546   -3.9432 C   0  0  0  0  0  0  0  0  0  0  0  0
   28.4093  -21.4756   -4.3486 C   0  0  0  0  0  0  0  0  0  0  0  0
   27.6725  -21.3940   -5.4968 C   0  0  0  0  0  0  0  0  0  0  0  0
   27.6459  -20.2263   -6.2161 C   0  0  0  0  0  0  0  0  0  0  0  0
   28.0344  -20.9682   -9.7937 O   0  0  0  0  0  0  0  0  0  0  0  0
   28.5454  -22.1140  -10.3362 O   0  0  0  0  0  0  0  0  0  0  0  0
  2  3  2  0
  2  1  1  0
  4  2  1  0
  5  4  1  0
  6  5  1  0
  7  6  1  0
  8  7  1  0
  8  9  1  6
 10 12  1  0
 10  8  1  0
 11 10  2  0
 13 12  1  0
 13 19  1  0
 14 15  1  0
 13 14  1  1
 15 16  1  0
 16 17  1  0
 17 18  1  0
 19 21  1  0
 20 19  2  0
 21 22  1  0
 22 23  1  6
 22 33  1  0
 23 24  1  0
 24 25  2  0
 25 26  1  0
 27 28  2  0
 27 26  1  0
 29 28  1  0
 30 29  2  0
 31 30  1  0
 31 32  2  0
 32 24  1  0
 32 27  1  0
 33 34  1  0
 35 33  2  0
M  END
$$$$
