RKW.pdb
     RDKit          3D

 35 36  0  0  1  0  0  0  0  0999 V2000
   27.0921  -13.3668  -19.8635 N   0  0  0  0  0  0  0  0  0  0  0  0
   25.8805  -13.5548  -20.6015 C   0  0  0  0  0  0  0  0  0  0  0  0
   25.5979  -12.6829  -21.5108 N   0  0  0  0  0  0  0  0  0  0  0  0
   25.0297  -14.6674  -20.3299 N   0  0  0  0  0  0  0  0  0  0  0  0
   25.7009  -15.9681  -20.2590 C   0  0  0  0  0  0  0  0  0  0  0  0
   26.1644  -16.1663  -18.8571 C   0  0  0  0  0  0  0  0  0  0  0  0
   25.5095  -17.2568  -18.0924 C   0  0  0  0  0  0  0  0  0  0  0  0
   25.3001  -18.5451  -18.8225 C   0  0  2  0  0  0  0  0  0  0  0  0
   23.9930  -18.6681  -19.3835 N   0  0  0  0  0  0  0  0  0  0  0  0
   25.5513  -19.6510  -17.8231 C   0  0  0  0  0  0  0  0  0  0  0  0
   24.6042  -19.9016  -17.0356 O   0  0  0  0  0  0  0  0  0  0  0  0
   24.7161  -12.6951  -22.0356 N   0  0  0  0  0  0  0  0  0  0  0  0
   26.8009  -20.3185  -17.8349 C   0  0  1  0  0  0  0  0  0  0  0  0
   26.9969  -21.4405  -16.8971 C   0  0  0  0  0  0  0  0  0  0  0  0
   27.7959  -22.4458  -17.6022 C   0  0  0  0  0  0  0  0  0  0  0  0
   28.1288  -23.7258  -16.9648 C   0  0  0  0  0  0  0  0  0  0  0  0
   27.0006  -24.6953  -16.8060 C   0  0  0  0  0  0  0  0  0  0  0  0
   27.3372  -26.0475  -17.4595 N   0  0  0  0  0  0  0  0  0  0  0  0
   28.4155  -26.6963  -16.7364 C   0  0  0  0  0  0  0  0  0  0  0  0
   27.5070  -20.8668  -15.6585 O   0  0  0  0  0  0  0  0  0  0  0  0
   28.4938  -20.0535  -15.7184 N   0  0  0  0  0  0  0  0  0  0  0  0
   27.0217  -21.1098  -14.3447 C   0  0  1  0  0  0  0  0  0  0  0  0
   27.7675  -20.7409  -13.1576 C   0  0  0  0  0  0  0  0  0  0  0  0
   27.0976  -19.5662  -12.4335 C   0  0  0  0  0  0  0  0  0  0  0  0
   25.8874  -20.0864  -11.7593 C   0  0  0  0  0  0  0  0  0  0  0  0
   25.8167  -20.5831  -10.4774 N   0  0  0  0  0  0  0  0  0  0  0  0
   24.5438  -20.9551  -10.2363 C   0  0  0  0  0  0  0  0  0  0  0  0
   23.8001  -20.7129  -11.3195 C   0  0  0  0  0  0  0  0  0  0  0  0
   22.4556  -20.9174  -11.5686 C   0  0  0  0  0  0  0  0  0  0  0  0
   21.9742  -20.5591  -12.8089 C   0  0  0  0  0  0  0  0  0  0  0  0
   22.7726  -20.0105  -13.8007 C   0  0  0  0  0  0  0  0  0  0  0  0
   24.0984  -19.8182  -13.5302 C   0  0  0  0  0  0  0  0  0  0  0  0
   24.6082  -20.1645  -12.3047 C   0  0  0  0  0  0  0  0  0  0  0  0
   28.0188  -21.8799  -12.2741 O   0  0  0  0  0  0  0  0  0  0  0  0
   28.8262  -21.8715  -11.1713 O   0  0  0  0  0  0  0  0  0  0  0  0
  2  3  2  0
  2  1  1  0
  4  2  1  0
  5  4  1  0
  6  5  1  0
  7  6  1  0
  8  7  1  0
  8  9  1  1
 10 12  1  0
 10  8  1  0
 11 10  2  0
 13 12  1  0
 13 19  1  0
 14 15  1  0
 13 14  1  1
 15 16  1  0
 16 17  1  0
 17 18  1  0
 19 21  1  0
 20 19  2  0
 21 22  1  0
 22 23  1  1
 22 33  1  0
 23 24  1  0
 24 25  2  0
 25 26  1  0
 27 28  2  0
 27 26  1  0
 29 28  1  0
 30 29  2  0
 31 30  1  0
 31 32  2  0
 32 24  1  0
 32 27  1  0
 33 34  1  0
 35 33  2  0
M  END
$$$$
