RKW.pdb
     RDKit          3D

 35 36  0  0  1  0  0  0  0  0999 V2000
   29.7704  -27.3058  -16.8582 N   0  0  0  0  0  0  0  0  0  0  0  0
   28.3467  -27.4516  -16.8467 C   0  0  0  0  0  0  0  0  0  0  0  0
   27.8691  -28.5841  -16.4518 N   0  0  0  0  0  0  0  0  0  0  0  0
   27.5032  -26.3773  -17.2592 N   0  0  0  0  0  0  0  0  0  0  0  0
   28.1749  -25.0888  -17.4476 C   0  0  0  0  0  0  0  0  0  0  0  0
   28.8954  -24.7611  -16.1856 C   0  0  0  0  0  0  0  0  0  0  0  0
   28.3451  -23.6411  -15.3820 C   0  0  0  0  0  0  0  0  0  0  0  0
   27.9747  -22.4039  -16.1359 C   0  0  2  0  0  0  0  0  0  0  0  0
   29.0930  -21.7629  -16.7499 N   0  0  0  0  0  0  0  0  0  0  0  0
   27.3156  -21.4758  -15.1412 C   0  0  0  0  0  0  0  0  0  0  0  0
   28.0958  -20.7891  -14.4344 O   0  0  0  0  0  0  0  0  0  0  0  0
   26.8641  -28.7917  -16.4501 N   0  0  0  0  0  0  0  0  0  0  0  0
   25.9012  -21.4369  -15.0688 C   0  0  2  0  0  0  0  0  0  0  0  0
   25.2805  -20.4759  -14.1372 C   0  0  0  0  0  0  0  0  0  0  0  0
   23.9586  -20.1543  -14.6806 C   0  0  0  0  0  0  0  0  0  0  0  0
   22.9560  -19.4615  -13.8620 C   0  0  0  0  0  0  0  0  0  0  0  0
   21.6230  -19.2377  -14.5031 C   0  0  0  0  0  0  0  0  0  0  0  0
   20.7225  -18.3605  -13.6153 N   0  0  0  0  0  0  0  0  0  0  0  0
   20.0744  -19.1746  -12.6035 C   0  0  0  0  0  0  0  0  0  0  0  0
   25.3798  -21.0597  -12.8057 O   0  0  0  0  0  0  0  0  0  0  0  0
   24.8776  -22.2198  -12.6042 N   0  0  0  0  0  0  0  0  0  0  0  0
   25.9906  -20.4747  -11.6633 C   0  0  1  0  0  0  0  0  0  0  0  0
   25.7895  -20.9885  -10.3227 C   0  0  0  0  0  0  0  0  0  0  0  0
   27.0752  -20.8734   -9.4940 C   0  0  0  0  0  0  0  0  0  0  0  0
   26.6984  -20.3921   -8.1464 C   0  0  0  0  0  0  0  0  0  0  0  0
   25.4302  -20.3728   -7.6112 N   0  0  0  0  0  0  0  0  0  0  0  0
   25.5032  -19.8629   -6.3657 C   0  0  0  0  0  0  0  0  0  0  0  0
   26.7734  -19.5562   -6.0876 C   0  0  0  0  0  0  0  0  0  0  0  0
   27.3554  -19.0133   -4.9571 C   0  0  0  0  0  0  0  0  0  0  0  0
   28.7181  -18.8102   -4.9751 C   0  0  0  0  0  0  0  0  0  0  0  0
   29.5154  -19.1238   -6.0651 C   0  0  0  0  0  0  0  0  0  0  0  0
   28.9165  -19.6594   -7.1708 C   0  0  0  0  0  0  0  0  0  0  0  0
   27.5617  -19.8740   -7.1839 C   0  0  0  0  0  0  0  0  0  0  0  0
   24.6328  -20.3882   -9.6574 O   0  0  0  0  0  0  0  0  0  0  0  0
   23.9199  -20.9496   -8.6352 O   0  0  0  0  0  0  0  0  0  0  0  0
  2  3  2  0
  2  1  1  0
  4  2  1  0
  5  4  1  0
  6  5  1  0
  7  6  1  0
  8  7  1  0
  8  9  1  1
 10 12  1  0
 10  8  1  0
 11 10  2  0
 13 12  1  0
 13 19  1  0
 14 15  1  0
 13 14  1  6
 15 16  1  0
 16 17  1  0
 17 18  1  0
 19 21  1  0
 20 19  2  0
 21 22  1  0
 22 23  1  1
 22 33  1  0
 23 24  1  0
 24 25  2  0
 25 26  1  0
 27 28  2  0
 27 26  1  0
 29 28  1  0
 30 29  2  0
 31 30  1  0
 31 32  2  0
 32 24  1  0
 32 27  1  0
 33 34  1  0
 35 33  2  0
M  END
$$$$
