RKW.pdb
     RDKit          3D

 35 36  0  0  1  0  0  0  0  0999 V2000
   32.8580  -26.0156  -18.8869 N   0  0  0  0  0  0  0  0  0  0  0  0
   31.9303  -26.8330  -18.1663 C   0  0  0  0  0  0  0  0  0  0  0  0
   32.3575  -27.9690  -17.7260 N   0  0  0  0  0  0  0  0  0  0  0  0
   30.5896  -26.3945  -17.9522 N   0  0  0  0  0  0  0  0  0  0  0  0
   30.2206  -25.1496  -18.6312 C   0  0  0  0  0  0  0  0  0  0  0  0
   30.7986  -24.0176  -17.8541 C   0  0  0  0  0  0  0  0  0  0  0  0
   29.8315  -23.0558  -17.2688 C   0  0  0  0  0  0  0  0  0  0  0  0
   29.9566  -22.8005  -15.8007 C   0  0  2  0  0  0  0  0  0  0  0  0
   29.8026  -23.9789  -15.0094 N   0  0  0  0  0  0  0  0  0  0  0  0
   28.8926  -21.7862  -15.4487 C   0  0  0  0  0  0  0  0  0  0  0  0
   28.8643  -20.7530  -16.1640 O   0  0  0  0  0  0  0  0  0  0  0  0
   31.7333  -28.6793  -17.3273 N   0  0  0  0  0  0  0  0  0  0  0  0
   28.0176  -22.0538  -14.3670 C   0  0  2  0  0  0  0  0  0  0  0  0
   27.0357  -21.0170  -13.9962 C   0  0  0  0  0  0  0  0  0  0  0  0
   26.1876  -20.7989  -15.1708 C   0  0  0  0  0  0  0  0  0  0  0  0
   25.0074  -19.9289  -15.0965 C   0  0  0  0  0  0  0  0  0  0  0  0
   24.2202  -19.7779  -16.3596 C   0  0  0  0  0  0  0  0  0  0  0  0
   23.0536  -18.7922  -16.1697 N   0  0  0  0  0  0  0  0  0  0  0  0
   22.2585  -18.7208  -17.3818 C   0  0  0  0  0  0  0  0  0  0  0  0
   26.4230  -21.4482  -12.7463 O   0  0  0  0  0  0  0  0  0  0  0  0
   26.7105  -22.6088  -12.2892 N   0  0  0  0  0  0  0  0  0  0  0  0
   25.5129  -20.7071  -11.9445 C   0  0  1  0  0  0  0  0  0  0  0  0
   25.5047  -20.7881  -10.4970 C   0  0  0  0  0  0  0  0  0  0  0  0
   26.9081  -20.5455   -9.9274 C   0  0  0  0  0  0  0  0  0  0  0  0
   26.7757  -20.3846   -8.4624 C   0  0  0  0  0  0  0  0  0  0  0  0
   25.6232  -20.5363   -7.7251 N   0  0  0  0  0  0  0  0  0  0  0  0
   25.9150  -20.3061   -6.4295 C   0  0  0  0  0  0  0  0  0  0  0  0
   27.2134  -20.0129   -6.3146 C   0  0  0  0  0  0  0  0  0  0  0  0
   27.9856  -19.7038   -5.2101 C   0  0  0  0  0  0  0  0  0  0  0  0
   29.3225  -19.4434   -5.4183 C   0  0  0  0  0  0  0  0  0  0  0  0
   29.9139  -19.4787   -6.6718 C   0  0  0  0  0  0  0  0  0  0  0  0
   29.1295  -19.7868   -7.7478 C   0  0  0  0  0  0  0  0  0  0  0  0
   27.7948  -20.0512   -7.5735 C   0  0  0  0  0  0  0  0  0  0  0  0
   24.4915  -19.9239   -9.8906 O   0  0  0  0  0  0  0  0  0  0  0  0
   23.7166  -20.2396   -8.8099 O   0  0  0  0  0  0  0  0  0  0  0  0
  2  3  2  0
  2  1  1  0
  4  2  1  0
  5  4  1  0
  6  5  1  0
  7  6  1  0
  8  7  1  0
  8  9  1  1
 10 12  1  0
 10  8  1  0
 11 10  2  0
 13 12  1  0
 13 19  1  0
 14 15  1  0
 13 14  1  6
 15 16  1  0
 16 17  1  0
 17 18  1  0
 19 21  1  0
 20 19  2  0
 21 22  1  0
 22 23  1  1
 22 33  1  0
 23 24  1  0
 24 25  2  0
 25 26  1  0
 27 28  2  0
 27 26  1  0
 29 28  1  0
 30 29  2  0
 31 30  1  0
 31 32  2  0
 32 24  1  0
 32 27  1  0
 33 34  1  0
 35 33  2  0
M  END
$$$$
