RKW.pdb
     RDKit          3D

 35 36  0  0  1  0  0  0  0  0999 V2000
   28.0082  -26.1401  -16.2104 N   0  0  0  0  0  0  0  0  0  0  0  0
   27.9764  -26.0741  -17.6397 C   0  0  0  0  0  0  0  0  0  0  0  0
   27.6895  -27.1591  -18.2778 N   0  0  0  0  0  0  0  0  0  0  0  0
   28.2537  -24.8492  -18.3167 N   0  0  0  0  0  0  0  0  0  0  0  0
   28.3972  -23.6737  -17.4535 C   0  0  0  0  0  0  0  0  0  0  0  0
   27.3361  -22.6986  -17.8309 C   0  0  0  0  0  0  0  0  0  0  0  0
   27.4176  -21.3568  -17.2017 C   0  0  0  0  0  0  0  0  0  0  0  0
   28.2465  -21.2556  -15.9612 C   0  0  2  0  0  0  0  0  0  0  0  0
   28.8493  -22.4939  -15.5845 N   0  0  0  0  0  0  0  0  0  0  0  0
   27.3258  -20.7632  -14.8681 C   0  0  0  0  0  0  0  0  0  0  0  0
   26.7199  -19.6881  -15.1068 O   0  0  0  0  0  0  0  0  0  0  0  0
   27.7250  -27.2263  -19.3012 N   0  0  0  0  0  0  0  0  0  0  0  0
   27.2046  -21.5210  -13.6772 C   0  0  2  0  0  0  0  0  0  0  0  0
   26.2154  -21.0831  -12.6740 C   0  0  0  0  0  0  0  0  0  0  0  0
   24.9073  -21.1038  -13.3334 C   0  0  0  0  0  0  0  0  0  0  0  0
   23.8522  -20.1605  -12.9433 C   0  0  0  0  0  0  0  0  0  0  0  0
   22.5429  -20.3072  -13.6519 C   0  0  0  0  0  0  0  0  0  0  0  0
   21.3699  -20.2903  -12.6557 N   0  0  0  0  0  0  0  0  0  0  0  0
   20.1104  -20.4170  -13.3658 C   0  0  0  0  0  0  0  0  0  0  0  0
   26.4283  -21.9047  -11.4894 O   0  0  0  0  0  0  0  0  0  0  0  0
   25.7030  -22.9468  -11.3258 N   0  0  0  0  0  0  0  0  0  0  0  0
   27.3799  -21.6802  -10.4577 C   0  0  1  0  0  0  0  0  0  0  0  0
   27.0371  -21.0274   -9.2095 C   0  0  0  0  0  0  0  0  0  0  0  0
   27.7651  -19.6838   -9.0768 C   0  0  0  0  0  0  0  0  0  0  0  0
   27.6410  -19.2437   -7.6695 C   0  0  0  0  0  0  0  0  0  0  0  0
   26.7652  -18.2995   -7.1834 N   0  0  0  0  0  0  0  0  0  0  0  0
   26.9620  -18.1822   -5.8552 C   0  0  0  0  0  0  0  0  0  0  0  0
   27.9328  -19.0186   -5.4770 C   0  0  0  0  0  0  0  0  0  0  0  0
   28.4933  -19.2666   -4.2376 C   0  0  0  0  0  0  0  0  0  0  0  0
   29.4990  -20.2058   -4.1679 C   0  0  0  0  0  0  0  0  0  0  0  0
   29.9632  -20.9006   -5.2742 C   0  0  0  0  0  0  0  0  0  0  0  0
   29.3931  -20.6378   -6.4882 C   0  0  0  0  0  0  0  0  0  0  0  0
   28.3895  -19.7082   -6.5906 C   0  0  0  0  0  0  0  0  0  0  0  0
   25.5918  -20.9087   -9.0148 O   0  0  0  0  0  0  0  0  0  0  0  0
   24.8537  -21.5855   -8.0846 O   0  0  0  0  0  0  0  0  0  0  0  0
  2  3  2  0
  2  1  1  0
  4  2  1  0
  5  4  1  0
  6  5  1  0
  7  6  1  0
  8  7  1  0
  8  9  1  1
 10 12  1  0
 10  8  1  0
 11 10  2  0
 13 12  1  0
 13 19  1  0
 14 15  1  0
 13 14  1  6
 15 16  1  0
 16 17  1  0
 17 18  1  0
 19 21  1  0
 20 19  2  0
 21 22  1  0
 22 23  1  6
 22 33  1  0
 23 24  1  0
 24 25  2  0
 25 26  1  0
 27 28  2  0
 27 26  1  0
 29 28  1  0
 30 29  2  0
 31 30  1  0
 31 32  2  0
 32 24  1  0
 32 27  1  0
 33 34  1  0
 35 33  2  0
M  END
$$$$
