NNP.pdb
     RDKit          3D

 24 24  0  0  1  0  0  0  0  0999 V2000
   19.4405  -14.9466  -15.3472 N   0  0  0  0  0  0  0  0  0  0  0  0
   18.3821  -13.9737  -15.3402 C   0  0  0  0  0  0  0  0  0  0  0  0
   17.2585  -14.3474  -14.9966 O   0  0  0  0  0  0  0  0  0  0  0  0
   18.6990  -12.6261  -15.7339 C   0  0  0  0  0  0  0  0  0  0  0  0
   17.5601  -11.7055  -16.0677 C   0  0  2  0  0  0  0  0  0  0  0  0
   17.3318  -12.0607  -17.5394 N   0  0  0  0  0  0  0  0  0  0  0  0
   18.0007  -10.2968  -16.1117 C   0  0  0  0  0  0  0  0  0  0  0  0
   18.9146   -9.9577  -16.9740 O   0  0  0  0  0  0  0  0  0  0  0  0
   17.4455   -4.6760  -14.2380 N   0  0  0  0  0  0  0  0  0  0  0  0
   17.4267   -5.5350  -15.3877 C   0  0  0  0  0  0  0  0  0  0  0  0
   17.7961   -5.1255  -16.5195 O   0  0  0  0  0  0  0  0  0  0  0  0
   16.9510   -6.9260  -15.1747 C   0  0  0  0  0  0  0  0  0  0  0  0
   18.1307   -7.8894  -15.4577 C   0  0  2  0  0  0  0  0  0  0  0  0
   17.5667   -9.1931  -15.3412 N   0  0  0  0  0  0  0  0  0  0  0  0
   19.2944   -7.4952  -14.7030 C   0  0  0  0  0  0  0  0  0  0  0  0
   19.3783   -7.9796  -13.4767 O   0  0  0  0  0  0  0  0  0  0  0  0
   20.3830   -6.6742  -15.0300 N   0  0  0  0  0  0  0  0  0  0  0  0
   20.6025   -5.9604  -16.2688 C   0  0  0  0  0  0  0  0  0  0  0  0
   22.0911   -6.0153  -16.4512 C   0  0  0  0  0  0  0  0  0  0  0  0
   22.6719   -6.6113  -15.2038 C   0  0  0  0  0  0  0  0  0  0  0  0
   21.5214   -6.3954  -14.2052 C   0  0  1  0  0  0  0  0  0  0  0  0
   21.6002   -4.9857  -13.7890 C   0  0  0  0  0  0  0  0  0  0  0  0
   20.8173   -4.1169  -14.2256 O   0  0  0  0  0  0  0  0  0  0  0  0
   22.5656   -4.5347  -12.8730 O   0  0  0  0  0  0  0  0  0  0  0  0
  1  2  1  0
  2  3  2  0
  4  2  1  0
  5  4  1  0
  5  6  1  6
  7  8  2  0
  7  5  1  0
  9 10  1  0
 10 11  2  0
 10 12  1  0
 13 12  1  1
 13 15  1  0
 13 14  1  0
 14  7  1  0
 15 17  1  0
 16 15  2  0
 17 18  1  0
 19 18  1  0
 20 21  1  0
 20 19  1  0
 21 17  1  0
 21 22  1  6
 22 23  2  0
 22 24  1  0
M  END
$$$$
