NNP.pdb
     RDKit          3D

 24 24  0  0  1  0  0  0  0  0999 V2000
   15.9783  -13.9745  -14.1217 N   0  0  0  0  0  0  0  0  0  0  0  0
   15.6006  -13.2620  -12.9315 C   0  0  0  0  0  0  0  0  0  0  0  0
   15.1632  -13.9166  -11.9827 O   0  0  0  0  0  0  0  0  0  0  0  0
   15.7562  -11.8312  -12.9214 C   0  0  0  0  0  0  0  0  0  0  0  0
   15.4639  -11.1018  -11.6413 C   0  0  2  0  0  0  0  0  0  0  0  0
   13.9492  -10.9139  -11.7627 N   0  0  0  0  0  0  0  0  0  0  0  0
   15.9916   -9.7231  -11.6738 C   0  0  0  0  0  0  0  0  0  0  0  0
   15.8614   -9.0330  -12.7696 O   0  0  0  0  0  0  0  0  0  0  0  0
   14.9451   -6.6684  -10.1072 N   0  0  0  0  0  0  0  0  0  0  0  0
   15.9755   -6.5299   -9.1177 C   0  0  0  0  0  0  0  0  0  0  0  0
   15.7502   -5.9808   -8.0073 O   0  0  0  0  0  0  0  0  0  0  0  0
   17.3157   -7.0653   -9.4693 C   0  0  0  0  0  0  0  0  0  0  0  0
   17.2276   -7.7033  -10.8782 C   0  0  2  0  0  0  0  0  0  0  0  0
   16.6396   -8.9828  -10.6579 N   0  0  0  0  0  0  0  0  0  0  0  0
   18.4795   -7.5532  -11.5778 C   0  0  0  0  0  0  0  0  0  0  0  0
   19.3862   -8.4853  -11.3446 O   0  0  0  0  0  0  0  0  0  0  0  0
   18.9309   -6.5813  -12.4821 N   0  0  0  0  0  0  0  0  0  0  0  0
   18.1952   -5.4421  -12.9853 C   0  0  0  0  0  0  0  0  0  0  0  0
   18.6827   -5.3003  -14.3975 C   0  0  0  0  0  0  0  0  0  0  0  0
   19.8149   -6.2667  -14.5780 C   0  0  0  0  0  0  0  0  0  0  0  0
   20.2150   -6.5352  -13.1166 C   0  0  1  0  0  0  0  0  0  0  0  0
   21.0248   -5.3803  -12.6957 C   0  0  0  0  0  0  0  0  0  0  0  0
   20.5485   -4.4410  -12.0253 O   0  0  0  0  0  0  0  0  0  0  0  0
   22.3860   -5.2679  -13.0257 O   0  0  0  0  0  0  0  0  0  0  0  0
  1  2  1  0
  2  3  2  0
  4  2  1  0
  5  4  1  0
  5  6  1  6
  7  8  2  0
  7  5  1  0
  9 10  1  0
 10 11  2  0
 10 12  1  0
 13 12  1  1
 13 15  1  0
 13 14  1  0
 14  7  1  0
 15 17  1  0
 16 15  2  0
 17 18  1  0
 19 18  1  0
 20 21  1  0
 20 19  1  0
 21 17  1  0
 21 22  1  1
 22 23  2  0
 22 24  1  0
M  END
$$$$
