NNP.pdb
     RDKit          3D

 24 24  0  0  1  0  0  0  0  0999 V2000
   13.7645  -13.7777  -15.8956 N   0  0  0  0  0  0  0  0  0  0  0  0
   14.1773  -12.7237  -15.0092 C   0  0  0  0  0  0  0  0  0  0  0  0
   13.3206  -12.2111  -14.2857 O   0  0  0  0  0  0  0  0  0  0  0  0
   15.5623  -12.3329  -15.0214 C   0  0  0  0  0  0  0  0  0  0  0  0
   16.4460  -12.9107  -16.0898 C   0  0  2  0  0  0  0  0  0  0  0  0
   16.7274  -14.2972  -15.5042 N   0  0  0  0  0  0  0  0  0  0  0  0
   17.7717  -12.2604  -16.1029 C   0  0  0  0  0  0  0  0  0  0  0  0
   18.4895  -12.2896  -15.0177 O   0  0  0  0  0  0  0  0  0  0  0  0
   21.9241   -9.0031  -18.8928 N   0  0  0  0  0  0  0  0  0  0  0  0
   21.6340  -10.3106  -18.3767 C   0  0  0  0  0  0  0  0  0  0  0  0
   22.5374  -11.0393  -17.8888 O   0  0  0  0  0  0  0  0  0  0  0  0
   20.2194  -10.7582  -18.4475 C   0  0  0  0  0  0  0  0  0  0  0  0
   19.6996  -10.9501  -17.0009 C   0  0  2  0  0  0  0  0  0  0  0  0
   18.4326  -11.5845  -17.1547 N   0  0  0  0  0  0  0  0  0  0  0  0
   19.8518   -9.7313  -16.2457 C   0  0  0  0  0  0  0  0  0  0  0  0
   18.7886   -8.9489  -16.1922 O   0  0  0  0  0  0  0  0  0  0  0  0
   20.9414   -9.2032  -15.5384 N   0  0  0  0  0  0  0  0  0  0  0  0
   22.2776   -9.7498  -15.4495 C   0  0  0  0  0  0  0  0  0  0  0  0
   22.7072   -9.4117  -14.0519 C   0  0  0  0  0  0  0  0  0  0  0  0
   21.6517   -8.5245  -13.4628 C   0  0  0  0  0  0  0  0  0  0  0  0
   20.9435   -8.0186  -14.7318 C   0  0  1  0  0  0  0  0  0  0  0  0
   21.7968   -6.9508  -15.2781 C   0  0  0  0  0  0  0  0  0  0  0  0
   22.4297   -7.0839  -16.3459 O   0  0  0  0  0  0  0  0  0  0  0  0
   21.9492   -5.7153  -14.6263 O   0  0  0  0  0  0  0  0  0  0  0  0
  1  2  1  0
  2  3  2  0
  4  2  1  0
  5  4  1  0
  5  6  1  1
  7  8  2  0
  7  5  1  0
  9 10  1  0
 10 11  2  0
 10 12  1  0
 13 12  1  6
 13 15  1  0
 13 14  1  0
 14  7  1  0
 15 17  1  0
 16 15  2  0
 17 18  1  0
 19 18  1  0
 20 21  1  0
 20 19  1  0
 21 17  1  0
 21 22  1  6
 22 23  2  0
 22 24  1  0
M  END
$$$$
