NNP.pdb
     RDKit          3D

 24 24  0  0  1  0  0  0  0  0999 V2000
   24.0895  -20.0700   -7.1838 N   0  0  0  0  0  0  0  0  0  0  0  0
   24.9193  -21.2082   -7.4716 C   0  0  0  0  0  0  0  0  0  0  0  0
   25.2519  -21.9313   -6.5300 O   0  0  0  0  0  0  0  0  0  0  0  0
   25.3095  -21.4328   -8.8386 C   0  0  0  0  0  0  0  0  0  0  0  0
   24.9910  -20.3640   -9.8448 C   0  0  2  0  0  0  0  0  0  0  0  0
   23.4631  -20.4576   -9.8820 N   0  0  0  0  0  0  0  0  0  0  0  0
   25.3997  -20.7657  -11.2056 C   0  0  0  0  0  0  0  0  0  0  0  0
   26.6704  -20.8474  -11.4747 O   0  0  0  0  0  0  0  0  0  0  0  0
   25.4224  -23.8015  -15.7287 N   0  0  0  0  0  0  0  0  0  0  0  0
   24.6376  -22.6016  -15.6630 C   0  0  0  0  0  0  0  0  0  0  0  0
   24.4196  -21.9026  -16.6872 O   0  0  0  0  0  0  0  0  0  0  0  0
   24.0980  -22.2283  -14.3303 C   0  0  0  0  0  0  0  0  0  0  0  0
   25.1327  -21.3139  -13.6281 C   0  0  2  0  0  0  0  0  0  0  0  0
   24.6011  -21.1050  -12.3224 N   0  0  0  0  0  0  0  0  0  0  0  0
   25.4949  -20.2128  -14.4857 C   0  0  0  0  0  0  0  0  0  0  0  0
   24.7169  -19.1473  -14.4165 O   0  0  0  0  0  0  0  0  0  0  0  0
   26.5426  -20.0520  -15.4037 N   0  0  0  0  0  0  0  0  0  0  0  0
   27.5221  -21.0403  -15.7988 C   0  0  0  0  0  0  0  0  0  0  0  0
   28.7708  -20.2362  -16.0141 C   0  0  0  0  0  0  0  0  0  0  0  0
   28.3948  -18.7891  -15.9013 C   0  0  0  0  0  0  0  0  0  0  0  0
   26.8735  -18.8570  -16.1222 C   0  0  1  0  0  0  0  0  0  0  0  0
   26.6767  -18.9851  -17.5753 C   0  0  0  0  0  0  0  0  0  0  0  0
   27.0456  -18.1032  -18.3783 O   0  0  0  0  0  0  0  0  0  0  0  0
   26.0594  -20.1116  -18.1448 O   0  0  0  0  0  0  0  0  0  0  0  0
  1  2  1  0
  2  3  2  0
  4  2  1  0
  5  4  1  0
  5  6  1  6
  7  8  2  0
  7  5  1  0
  9 10  1  0
 10 11  2  0
 10 12  1  0
 13 12  1  6
 13 15  1  0
 13 14  1  0
 14  7  1  0
 15 17  1  0
 16 15  2  0
 17 18  1  0
 19 18  1  0
 20 21  1  0
 20 19  1  0
 21 17  1  0
 21 22  1  6
 22 23  2  0
 22 24  1  0
M  END
$$$$
