NNP.pdb
     RDKit          3D

 24 24  0  0  1  0  0  0  0  0999 V2000
   18.4144  -20.1867  -17.2442 N   0  0  0  0  0  0  0  0  0  0  0  0
   19.2904  -21.0821  -16.5386 C   0  0  0  0  0  0  0  0  0  0  0  0
   19.0278  -22.2865  -16.5673 O   0  0  0  0  0  0  0  0  0  0  0  0
   20.4175  -20.5183  -15.8436 C   0  0  0  0  0  0  0  0  0  0  0  0
   20.6336  -20.9208  -14.4127 C   0  0  2  0  0  0  0  0  0  0  0  0
   19.6682  -19.9680  -13.7023 N   0  0  0  0  0  0  0  0  0  0  0  0
   21.9629  -20.4977  -13.9285 C   0  0  0  0  0  0  0  0  0  0  0  0
   22.3161  -19.2552  -14.0873 O   0  0  0  0  0  0  0  0  0  0  0  0
   26.1463  -20.3827  -10.4133 N   0  0  0  0  0  0  0  0  0  0  0  0
   26.2108  -21.1447  -11.6279 C   0  0  0  0  0  0  0  0  0  0  0  0
   27.2913  -21.2847  -12.2588 O   0  0  0  0  0  0  0  0  0  0  0  0
   24.9427  -21.7572  -12.1004 C   0  0  0  0  0  0  0  0  0  0  0  0
   24.3193  -20.8194  -13.1643 C   0  0  2  0  0  0  0  0  0  0  0  0
   22.9661  -21.2524  -13.2774 N   0  0  0  0  0  0  0  0  0  0  0  0
   25.1831  -20.7189  -14.3145 C   0  0  0  0  0  0  0  0  0  0  0  0
   24.8562  -21.4724  -15.3493 O   0  0  0  0  0  0  0  0  0  0  0  0
   26.3343  -19.9543  -14.5513 N   0  0  0  0  0  0  0  0  0  0  0  0
   27.0638  -19.1483  -13.5971 C   0  0  0  0  0  0  0  0  0  0  0  0
   27.5415  -17.9810  -14.4101 C   0  0  0  0  0  0  0  0  0  0  0  0
   27.2078  -18.2688  -15.8433 C   0  0  0  0  0  0  0  0  0  0  0  0
   27.0113  -19.7944  -15.8043 C   0  0  1  0  0  0  0  0  0  0  0  0
   28.3615  -20.3807  -15.8088 C   0  0  0  0  0  0  0  0  0  0  0  0
   28.8153  -21.0169  -14.8353 O   0  0  0  0  0  0  0  0  0  0  0  0
   29.2211  -20.2573  -16.9135 O   0  0  0  0  0  0  0  0  0  0  0  0
  1  2  1  0
  2  3  2  0
  4  2  1  0
  5  4  1  0
  5  6  1  1
  7  8  2  0
  7  5  1  0
  9 10  1  0
 10 11  2  0
 10 12  1  0
 13 12  1  1
 13 15  1  0
 13 14  1  0
 14  7  1  0
 15 17  1  0
 16 15  2  0
 17 18  1  0
 19 18  1  0
 20 21  1  0
 20 19  1  0
 21 17  1  0
 21 22  1  1
 22 23  2  0
 22 24  1  0
M  END
$$$$
