NNP.pdb
     RDKit          3D

 24 24  0  0  1  0  0  0  0  0999 V2000
   19.8855  -13.8866  -17.2691 N   0  0  0  0  0  0  0  0  0  0  0  0
   18.7844  -13.2177  -16.6310 C   0  0  0  0  0  0  0  0  0  0  0  0
   17.7611  -13.8706  -16.4146 O   0  0  0  0  0  0  0  0  0  0  0  0
   18.9445  -11.8299  -16.2850 C   0  0  0  0  0  0  0  0  0  0  0  0
   20.2434  -11.1632  -16.6377 C   0  0  2  0  0  0  0  0  0  0  0  0
   21.1701  -11.7744  -15.5831 N   0  0  0  0  0  0  0  0  0  0  0  0
   20.2226   -9.7269  -16.2956 C   0  0  0  0  0  0  0  0  0  0  0  0
   19.5653   -8.9127  -17.0693 O   0  0  0  0  0  0  0  0  0  0  0  0
   22.2680   -5.2137  -13.1250 N   0  0  0  0  0  0  0  0  0  0  0  0
   21.0337   -5.9179  -13.3264 C   0  0  0  0  0  0  0  0  0  0  0  0
   19.9247   -5.3229  -13.2908 O   0  0  0  0  0  0  0  0  0  0  0  0
   21.1312   -7.3787  -13.5778 C   0  0  0  0  0  0  0  0  0  0  0  0
   20.8293   -7.6331  -15.0758 C   0  0  2  0  0  0  0  0  0  0  0  0
   20.8192   -9.0524  -15.2051 N   0  0  0  0  0  0  0  0  0  0  0  0
   21.6645   -6.8008  -15.9058 C   0  0  0  0  0  0  0  0  0  0  0  0
   22.9054   -7.2197  -16.0796 O   0  0  0  0  0  0  0  0  0  0  0  0
   21.4051   -5.6000  -16.5816 N   0  0  0  0  0  0  0  0  0  0  0  0
   20.1414   -4.9026  -16.6776 C   0  0  0  0  0  0  0  0  0  0  0  0
   20.1657   -4.3122  -18.0570 C   0  0  0  0  0  0  0  0  0  0  0  0
   21.5327   -4.5559  -18.6229 C   0  0  0  0  0  0  0  0  0  0  0  0
   22.3423   -4.8281  -17.3430 C   0  0  1  0  0  0  0  0  0  0  0  0
   22.6219   -3.5110  -16.7483 C   0  0  0  0  0  0  0  0  0  0  0  0
   23.3823   -2.6825  -17.2905 O   0  0  0  0  0  0  0  0  0  0  0  0
   22.0473   -3.1087  -15.5307 O   0  0  0  0  0  0  0  0  0  0  0  0
  1  2  1  0
  2  3  2  0
  4  2  1  0
  5  4  1  0
  5  6  1  1
  7  8  2  0
  7  5  1  0
  9 10  1  0
 10 11  2  0
 10 12  1  0
 13 12  1  1
 13 15  1  0
 13 14  1  0
 14  7  1  0
 15 17  1  0
 16 15  2  0
 17 18  1  0
 19 18  1  0
 20 21  1  0
 20 19  1  0
 21 17  1  0
 21 22  1  1
 22 23  2  0
 22 24  1  0
M  END
$$$$
