NNP.pdb
     RDKit          3D

 24 24  0  0  1  0  0  0  0  0999 V2000
   17.4196  -19.4959  -13.5516 N   0  0  0  0  0  0  0  0  0  0  0  0
   18.3267  -19.0232  -12.5414 C   0  0  0  0  0  0  0  0  0  0  0  0
   17.8737  -18.8098  -11.4147 O   0  0  0  0  0  0  0  0  0  0  0  0
   19.7050  -18.8288  -12.9071 C   0  0  0  0  0  0  0  0  0  0  0  0
   20.0754  -18.9777  -14.3552 C   0  0  2  0  0  0  0  0  0  0  0  0
   19.9438  -20.4936  -14.5259 N   0  0  0  0  0  0  0  0  0  0  0  0
   21.5138  -18.7243  -14.5726 C   0  0  0  0  0  0  0  0  0  0  0  0
   22.2374  -18.3399  -13.5614 O   0  0  0  0  0  0  0  0  0  0  0  0
   24.3525  -18.5756  -18.8822 N   0  0  0  0  0  0  0  0  0  0  0  0
   25.1093  -19.0007  -17.7392 C   0  0  0  0  0  0  0  0  0  0  0  0
   26.3614  -18.8761  -17.6972 O   0  0  0  0  0  0  0  0  0  0  0  0
   24.3428  -19.5927  -16.6129 C   0  0  0  0  0  0  0  0  0  0  0  0
   23.6448  -18.4424  -15.8451 C   0  0  2  0  0  0  0  0  0  0  0  0
   22.2808  -18.8455  -15.7546 N   0  0  0  0  0  0  0  0  0  0  0  0
   24.0244  -17.1657  -16.3975 C   0  0  0  0  0  0  0  0  0  0  0  0
   23.1702  -16.6293  -17.2508 O   0  0  0  0  0  0  0  0  0  0  0  0
   25.1567  -16.3633  -16.1975 N   0  0  0  0  0  0  0  0  0  0  0  0
   26.3658  -16.7140  -15.4851 C   0  0  0  0  0  0  0  0  0  0  0  0
   26.7825  -15.4261  -14.8374 C   0  0  0  0  0  0  0  0  0  0  0  0
   25.8787  -14.3503  -15.3609 C   0  0  0  0  0  0  0  0  0  0  0  0
   25.3354  -15.0118  -16.6395 C   0  0  1  0  0  0  0  0  0  0  0  0
   26.3934  -14.8722  -17.6534 C   0  0  0  0  0  0  0  0  0  0  0  0
   26.6730  -13.7745  -18.1783 O   0  0  0  0  0  0  0  0  0  0  0  0
   27.1523  -15.9708  -18.0910 O   0  0  0  0  0  0  0  0  0  0  0  0
  1  2  1  0
  2  3  2  0
  4  2  1  0
  5  4  1  0
  5  6  1  1
  7  8  2  0
  7  5  1  0
  9 10  1  0
 10 11  2  0
 10 12  1  0
 13 12  1  6
 13 15  1  0
 13 14  1  0
 14  7  1  0
 15 17  1  0
 16 15  2  0
 17 18  1  0
 19 18  1  0
 20 21  1  0
 20 19  1  0
 21 17  1  0
 21 22  1  6
 22 23  2  0
 22 24  1  0
M  END
$$$$
