NNP.pdb
     RDKit          3D

 24 24  0  0  1  0  0  0  0  0999 V2000
   15.4267  -15.3056  -17.0588 N   0  0  0  0  0  0  0  0  0  0  0  0
   16.5872  -15.9462  -16.5021 C   0  0  0  0  0  0  0  0  0  0  0  0
   16.4602  -17.0944  -16.0712 O   0  0  0  0  0  0  0  0  0  0  0  0
   17.8230  -15.2089  -16.4823 C   0  0  0  0  0  0  0  0  0  0  0  0
   17.8142  -13.8081  -17.0245 C   0  0  2  0  0  0  0  0  0  0  0  0
   17.9326  -14.0856  -18.5256 N   0  0  0  0  0  0  0  0  0  0  0  0
   19.0667  -13.0965  -16.7000 C   0  0  0  0  0  0  0  0  0  0  0  0
   19.3507  -12.8763  -15.4492 O   0  0  0  0  0  0  0  0  0  0  0  0
   24.3981  -11.3079  -17.7936 N   0  0  0  0  0  0  0  0  0  0  0  0
   23.1402  -10.6537  -18.0164 C   0  0  0  0  0  0  0  0  0  0  0  0
   23.0190   -9.4060  -17.8995 O   0  0  0  0  0  0  0  0  0  0  0  0
   21.9933  -11.5205  -18.3904 C   0  0  0  0  0  0  0  0  0  0  0  0
   21.1425  -11.7721  -17.1205 C   0  0  2  0  0  0  0  0  0  0  0  0
   20.0682  -12.5967  -17.5644 N   0  0  0  0  0  0  0  0  0  0  0  0
   20.9097  -10.5348  -16.4176 C   0  0  0  0  0  0  0  0  0  0  0  0
   19.8442   -9.8496  -16.7926 O   0  0  0  0  0  0  0  0  0  0  0  0
   21.6167   -9.9025  -15.3848 N   0  0  0  0  0  0  0  0  0  0  0  0
   22.8972  -10.2886  -14.8340 C   0  0  0  0  0  0  0  0  0  0  0  0
   22.7758   -9.9445  -13.3783 C   0  0  0  0  0  0  0  0  0  0  0  0
   21.4820   -9.2078  -13.2002 C   0  0  0  0  0  0  0  0  0  0  0  0
   21.1967   -8.7513  -14.6417 C   0  0  1  0  0  0  0  0  0  0  0  0
   22.0483   -7.5734  -14.8737 C   0  0  0  0  0  0  0  0  0  0  0  0
   23.0260   -7.6000  -15.6495 O   0  0  0  0  0  0  0  0  0  0  0  0
   21.8092   -6.3461  -14.2325 O   0  0  0  0  0  0  0  0  0  0  0  0
  1  2  1  0
  2  3  2  0
  4  2  1  0
  5  4  1  0
  5  6  1  6
  7  8  2  0
  7  5  1  0
  9 10  1  0
 10 11  2  0
 10 12  1  0
 13 12  1  6
 13 15  1  0
 13 14  1  0
 14  7  1  0
 15 17  1  0
 16 15  2  0
 17 18  1  0
 19 18  1  0
 20 21  1  0
 20 19  1  0
 21 17  1  0
 21 22  1  6
 22 23  2  0
 22 24  1  0
M  END
$$$$
