NNP.pdb
     RDKit          3D

 24 24  0  0  1  0  0  0  0  0999 V2000
   18.2315  -20.5125  -14.0314 N   0  0  0  0  0  0  0  0  0  0  0  0
   18.9799  -19.5739  -13.2403 C   0  0  0  0  0  0  0  0  0  0  0  0
   18.4734  -19.1729  -12.1901 O   0  0  0  0  0  0  0  0  0  0  0  0
   20.2717  -19.1611  -13.7223 C   0  0  0  0  0  0  0  0  0  0  0  0
   20.7934  -19.8065  -14.9742 C   0  0  2  0  0  0  0  0  0  0  0  0
   21.3429  -21.1186  -14.4077 N   0  0  0  0  0  0  0  0  0  0  0  0
   21.9952  -19.1120  -15.4781 C   0  0  0  0  0  0  0  0  0  0  0  0
   23.0667  -19.1078  -14.7394 O   0  0  0  0  0  0  0  0  0  0  0  0
   25.0268  -19.7215  -19.0016 N   0  0  0  0  0  0  0  0  0  0  0  0
   23.6770  -19.2372  -18.9437 C   0  0  0  0  0  0  0  0  0  0  0  0
   22.6988  -19.9860  -19.2036 O   0  0  0  0  0  0  0  0  0  0  0  0
   23.4939  -17.8131  -18.5629 C   0  0  0  0  0  0  0  0  0  0  0  0
   23.3974  -17.7336  -17.0188 C   0  0  2  0  0  0  0  0  0  0  0  0
   22.1922  -18.4231  -16.6974 N   0  0  0  0  0  0  0  0  0  0  0  0
   23.6450  -16.3865  -16.5679 C   0  0  0  0  0  0  0  0  0  0  0  0
   22.5765  -15.6821  -16.2402 O   0  0  0  0  0  0  0  0  0  0  0  0
   24.8344  -15.6617  -16.4065 N   0  0  0  0  0  0  0  0  0  0  0  0
   26.1830  -16.1219  -16.6554 C   0  0  0  0  0  0  0  0  0  0  0  0
   26.9941  -15.4330  -15.5975 C   0  0  0  0  0  0  0  0  0  0  0  0
   26.0867  -14.4650  -14.8989 C   0  0  0  0  0  0  0  0  0  0  0  0
   24.9568  -14.3148  -15.9325 C   0  0  1  0  0  0  0  0  0  0  0  0
   25.4611  -13.3866  -16.9576 C   0  0  0  0  0  0  0  0  0  0  0  0
   25.5970  -12.1646  -16.7415 O   0  0  0  0  0  0  0  0  0  0  0  0
   25.8196  -13.8241  -18.2438 O   0  0  0  0  0  0  0  0  0  0  0  0
  1  2  1  0
  2  3  2  0
  4  2  1  0
  5  4  1  0
  5  6  1  1
  7  8  2  0
  7  5  1  0
  9 10  1  0
 10 11  2  0
 10 12  1  0
 13 12  1  6
 13 15  1  0
 13 14  1  0
 14  7  1  0
 15 17  1  0
 16 15  2  0
 17 18  1  0
 19 18  1  0
 20 21  1  0
 20 19  1  0
 21 17  1  0
 21 22  1  6
 22 23  2  0
 22 24  1  0
M  END
$$$$
