NNP.pdb
     RDKit          3D

 24 24  0  0  1  0  0  0  0  0999 V2000
   29.4896  -19.9156  -19.7167 N   0  0  0  0  0  0  0  0  0  0  0  0
   29.6091  -20.7133  -18.5266 C   0  0  0  0  0  0  0  0  0  0  0  0
   30.5459  -21.5122  -18.4602 O   0  0  0  0  0  0  0  0  0  0  0  0
   28.6296  -20.5302  -17.4881 C   0  0  0  0  0  0  0  0  0  0  0  0
   27.3970  -19.7372  -17.8169 C   0  0  2  0  0  0  0  0  0  0  0  0
   28.0013  -18.3440  -18.0123 N   0  0  0  0  0  0  0  0  0  0  0  0
   26.5266  -19.5788  -16.6347 C   0  0  0  0  0  0  0  0  0  0  0  0
   27.0178  -19.0094  -15.5725 O   0  0  0  0  0  0  0  0  0  0  0  0
   24.5754  -17.5155  -16.4259 N   0  0  0  0  0  0  0  0  0  0  0  0
   23.2395  -18.0253  -16.3014 C   0  0  0  0  0  0  0  0  0  0  0  0
   22.2530  -17.4059  -16.7791 O   0  0  0  0  0  0  0  0  0  0  0  0
   23.0811  -19.3159  -15.5832 C   0  0  0  0  0  0  0  0  0  0  0  0
   24.4910  -19.8383  -15.2102 C   0  0  2  0  0  0  0  0  0  0  0  0
   25.1742  -19.9518  -16.4559 N   0  0  0  0  0  0  0  0  0  0  0  0
   24.3905  -20.9483  -14.2954 C   0  0  0  0  0  0  0  0  0  0  0  0
   24.4864  -22.1507  -14.8342 O   0  0  0  0  0  0  0  0  0  0  0  0
   24.2054  -20.9973  -12.9063 N   0  0  0  0  0  0  0  0  0  0  0  0
   24.0931  -19.8786  -11.9963 C   0  0  0  0  0  0  0  0  0  0  0  0
   24.7648  -20.3684  -10.7469 C   0  0  0  0  0  0  0  0  0  0  0  0
   25.0752  -21.8216  -10.9474 C   0  0  0  0  0  0  0  0  0  0  0  0
   24.1160  -22.1767  -12.0970 C   0  0  1  0  0  0  0  0  0  0  0  0
   22.7902  -22.3552  -11.4830 C   0  0  0  0  0  0  0  0  0  0  0  0
   21.9069  -21.4746  -11.5360 O   0  0  0  0  0  0  0  0  0  0  0  0
   22.4411  -23.5317  -10.7984 O   0  0  0  0  0  0  0  0  0  0  0  0
  1  2  1  0
  2  3  2  0
  4  2  1  0
  5  4  1  0
  5  6  1  1
  7  8  2  0
  7  5  1  0
  9 10  1  0
 10 11  2  0
 10 12  1  0
 13 12  1  6
 13 15  1  0
 13 14  1  0
 14  7  1  0
 15 17  1  0
 16 15  2  0
 17 18  1  0
 19 18  1  0
 20 21  1  0
 20 19  1  0
 21 17  1  0
 21 22  1  1
 22 23  2  0
 22 24  1  0
M  END
$$$$
