NNP.pdb
     RDKit          3D

 24 24  0  0  1  0  0  0  0  0999 V2000
   32.2287   -9.2758  -17.2004 N   0  0  0  0  0  0  0  0  0  0  0  0
   31.2034   -8.2746  -17.0848 C   0  0  0  0  0  0  0  0  0  0  0  0
   31.5176   -7.1804  -16.6114 O   0  0  0  0  0  0  0  0  0  0  0  0
   29.8761   -8.6110  -17.5281 C   0  0  0  0  0  0  0  0  0  0  0  0
   29.6442   -9.9947  -18.0647 C   0  0  2  0  0  0  0  0  0  0  0  0
   29.2098   -9.6729  -19.4972 N   0  0  0  0  0  0  0  0  0  0  0  0
   28.4440  -10.6113  -17.4649 C   0  0  0  0  0  0  0  0  0  0  0  0
   27.7242   -9.9020  -16.6449 O   0  0  0  0  0  0  0  0  0  0  0  0
   24.0607  -12.7107  -16.7125 N   0  0  0  0  0  0  0  0  0  0  0  0
   24.2729  -11.5159  -17.4790 C   0  0  0  0  0  0  0  0  0  0  0  0
   23.3200  -10.7490  -17.7772 O   0  0  0  0  0  0  0  0  0  0  0  0
   25.6686  -11.2316  -17.9006 C   0  0  0  0  0  0  0  0  0  0  0  0
   26.5976  -12.2782  -17.2360 C   0  0  2  0  0  0  0  0  0  0  0  0
   27.9105  -11.9081  -17.6490 N   0  0  0  0  0  0  0  0  0  0  0  0
   26.0838  -13.6096  -17.4418 C   0  0  0  0  0  0  0  0  0  0  0  0
   25.8824  -13.9626  -18.6988 O   0  0  0  0  0  0  0  0  0  0  0  0
   25.7479  -14.6287  -16.5391 N   0  0  0  0  0  0  0  0  0  0  0  0
   25.4720  -14.4929  -15.1257 C   0  0  0  0  0  0  0  0  0  0  0  0
   26.0266  -15.7550  -14.5329 C   0  0  0  0  0  0  0  0  0  0  0  0
   26.4387  -16.6395  -15.6714 C   0  0  0  0  0  0  0  0  0  0  0  0
   25.6352  -16.0270  -16.8320 C   0  0  1  0  0  0  0  0  0  0  0  0
   24.2613  -16.5364  -16.6918 C   0  0  0  0  0  0  0  0  0  0  0  0
   24.0079  -17.7559  -16.6070 O   0  0  0  0  0  0  0  0  0  0  0  0
   23.1513  -15.6761  -16.6456 O   0  0  0  0  0  0  0  0  0  0  0  0
  1  2  1  0
  2  3  2  0
  4  2  1  0
  5  4  1  0
  5  6  1  6
  7  8  2  0
  7  5  1  0
  9 10  1  0
 10 11  2  0
 10 12  1  0
 13 12  1  6
 13 15  1  0
 13 14  1  0
 14  7  1  0
 15 17  1  0
 16 15  2  0
 17 18  1  0
 19 18  1  0
 20 21  1  0
 20 19  1  0
 21 17  1  0
 21 22  1  1
 22 23  2  0
 22 24  1  0
M  END
$$$$
