CKI.pdb
     RDKit          3D

 24 23  0  0  1  0  0  0  0  0999 V2000
   26.6584  -15.0672  -17.6000 N   0  0  0  0  0  0  0  0  0  0  0  0
   26.2753  -15.6134  -16.3067 C   0  0  1  0  0  0  0  0  0  0  0  0
   25.4066  -14.5521  -15.6404 C   0  0  0  0  0  0  0  0  0  0  0  0
   26.4222  -13.4091  -14.6636 S   0  0  0  0  0  0  0  0  0  0  0  0
   25.4178  -16.8074  -16.5466 C   0  0  0  0  0  0  0  0  0  0  0  0
   24.5431  -16.8124  -17.4781 O   0  0  0  0  0  0  0  0  0  0  0  0
   25.5089  -17.9894  -15.7800 N   0  0  0  0  0  0  0  0  0  0  0  0
   24.6644  -19.1467  -16.0090 C   0  0  1  0  0  0  0  0  0  0  0  0
   25.4633  -20.4380  -15.7891 C   0  0  0  0  0  0  0  0  0  0  0  0
   24.5962  -21.6542  -16.0047 C   0  0  0  0  0  0  0  0  0  0  0  0
   25.4756  -22.8667  -15.7561 C   0  0  0  0  0  0  0  0  0  0  0  0
   24.7138  -24.1555  -15.9791 C   0  0  0  0  0  0  0  0  0  0  0  0
   25.5406  -25.3114  -15.7302 N   0  0  0  0  0  0  0  0  0  0  0  0
   23.4595  -19.1450  -15.1441 C   0  0  0  0  0  0  0  0  0  0  0  0
   23.6080  -18.9970  -13.9270 O   0  0  0  0  0  0  0  0  0  0  0  0
   18.2087  -17.7891  -17.2804 C   0  0  0  0  0  0  0  0  0  0  0  0
   19.2942  -18.6717  -16.7855 C   0  0  0  0  0  0  0  0  0  0  0  0
   19.9499  -18.2603  -15.5007 C   0  0  2  0  0  0  0  0  0  0  0  0
   20.3385  -16.8158  -15.6451 C   0  0  0  0  0  0  0  0  0  0  0  0
   20.9259  -19.1759  -14.9014 C   0  0  2  0  0  0  0  0  0  0  0  0
   22.1584  -19.3050  -15.6554 N   0  0  0  0  0  0  0  0  0  0  0  0
   20.5129  -20.4758  -14.4101 C   0  0  0  0  0  0  0  0  0  0  0  0
   20.9398  -21.7261  -14.7966 O   0  0  0  0  0  0  0  0  0  0  0  0
   19.6189  -20.5088  -13.4830 O   0  0  0  0  0  0  0  0  0  0  0  0
  2  5  1  0
  2  1  1  6
  3  2  1  0
  4  3  1  0
  5  6  2  0
  7  5  1  0
  7  8  1  0
  8  9  1  1
  9 10  1  0
 10 11  1  0
 11 12  1  0
 13 12  1  0
 14  8  1  0
 14 15  2  0
 16 17  1  0
 17 18  1  0
 18 19  1  6
 18 20  1  0
 20 21  1  6
 20 22  1  0
 21 14  1  0
 22 24  2  0
 22 23  1  0
M  END
$$$$
