CKI.pdb
     RDKit          3D

 24 23  0  0  1  0  0  0  0  0999 V2000
   28.1730  -33.8801  -16.1528 N   0  0  0  0  0  0  0  0  0  0  0  0
   28.1162  -32.6881  -15.3200 C   0  0  1  0  0  0  0  0  0  0  0  0
   27.9945  -31.5084  -16.2784 C   0  0  0  0  0  0  0  0  0  0  0  0
   29.5385  -31.2652  -17.1996 S   0  0  0  0  0  0  0  0  0  0  0  0
   26.8618  -32.7450  -14.5189 C   0  0  0  0  0  0  0  0  0  0  0  0
   26.5441  -31.7945  -13.7261 O   0  0  0  0  0  0  0  0  0  0  0  0
   25.9572  -33.8273  -14.5777 N   0  0  0  0  0  0  0  0  0  0  0  0
   24.7427  -33.8858  -13.7861 C   0  0  1  0  0  0  0  0  0  0  0  0
   23.6916  -34.7533  -14.4909 C   0  0  0  0  0  0  0  0  0  0  0  0
   23.0506  -34.0052  -15.6340 C   0  0  0  0  0  0  0  0  0  0  0  0
   22.1038  -32.9919  -15.0159 C   0  0  0  0  0  0  0  0  0  0  0  0
   21.3466  -32.2249  -16.0787 C   0  0  0  0  0  0  0  0  0  0  0  0
   20.4918  -31.2173  -15.4993 N   0  0  0  0  0  0  0  0  0  0  0  0
   24.9869  -34.4011  -12.4169 C   0  0  0  0  0  0  0  0  0  0  0  0
   25.6449  -35.4380  -12.2862 O   0  0  0  0  0  0  0  0  0  0  0  0
   26.5693  -32.4617   -6.9258 C   0  0  0  0  0  0  0  0  0  0  0  0
   25.6806  -33.4050   -7.6485 C   0  0  0  0  0  0  0  0  0  0  0  0
   25.5510  -33.1933   -9.1278 C   0  0  2  0  0  0  0  0  0  0  0  0
   25.2845  -31.7301   -9.3436 C   0  0  0  0  0  0  0  0  0  0  0  0
   24.7531  -34.1555   -9.8942 C   0  0  2  0  0  0  0  0  0  0  0  0
   24.4991  -33.7560  -11.2654 N   0  0  0  0  0  0  0  0  0  0  0  0
   23.5556  -34.7406   -9.3239 C   0  0  0  0  0  0  0  0  0  0  0  0
   22.2378  -34.5155   -9.6521 O   0  0  0  0  0  0  0  0  0  0  0  0
   23.7023  -35.5941   -8.3700 O   0  0  0  0  0  0  0  0  0  0  0  0
  2  5  1  0
  2  1  1  6
  3  2  1  0
  4  3  1  0
  5  6  2  0
  7  5  1  0
  7  8  1  0
  8  9  1  6
  9 10  1  0
 10 11  1  0
 11 12  1  0
 13 12  1  0
 14  8  1  0
 14 15  2  0
 16 17  1  0
 17 18  1  0
 18 19  1  1
 18 20  1  0
 20 21  1  6
 20 22  1  0
 21 14  1  0
 22 24  2  0
 22 23  1  0
M  END
$$$$
