CKI.pdb
     RDKit          3D

 24 23  0  0  1  0  0  0  0  0999 V2000
   26.8861  -17.1408  -17.3326 N   0  0  0  0  0  0  0  0  0  0  0  0
   26.6166  -17.2731  -15.9087 C   0  0  1  0  0  0  0  0  0  0  0  0
   25.9662  -15.9629  -15.4782 C   0  0  0  0  0  0  0  0  0  0  0  0
   27.2208  -14.7676  -14.9402 S   0  0  0  0  0  0  0  0  0  0  0  0
   25.6072  -18.3537  -15.7293 C   0  0  0  0  0  0  0  0  0  0  0  0
   24.5805  -18.4268  -16.4865 O   0  0  0  0  0  0  0  0  0  0  0  0
   25.7114  -19.3493  -14.7338 N   0  0  0  0  0  0  0  0  0  0  0  0
   24.7576  -20.4342  -14.5987 C   0  0  1  0  0  0  0  0  0  0  0  0
   25.3085  -21.5099  -13.6534 C   0  0  0  0  0  0  0  0  0  0  0  0
   24.3122  -22.6279  -13.4666 C   0  0  0  0  0  0  0  0  0  0  0  0
   24.2963  -23.4192  -14.7623 C   0  0  0  0  0  0  0  0  0  0  0  0
   23.2046  -24.4677  -14.7548 C   0  0  0  0  0  0  0  0  0  0  0  0
   23.6383  -25.6817  -14.1070 N   0  0  0  0  0  0  0  0  0  0  0  0
   23.4361  -19.9657  -14.1148 C   0  0  0  0  0  0  0  0  0  0  0  0
   23.3934  -19.2822  -13.0870 O   0  0  0  0  0  0  0  0  0  0  0  0
   18.0365  -17.7943  -15.8103 C   0  0  0  0  0  0  0  0  0  0  0  0
   18.7419  -18.7063  -14.8763 C   0  0  0  0  0  0  0  0  0  0  0  0
   20.1605  -19.0462  -15.2255 C   0  0  2  0  0  0  0  0  0  0  0  0
   20.1918  -19.3583  -16.6952 C   0  0  0  0  0  0  0  0  0  0  0  0
   20.8993  -19.9326  -14.3209 C   0  0  2  0  0  0  0  0  0  0  0  0
   22.2337  -20.2691  -14.7797 N   0  0  0  0  0  0  0  0  0  0  0  0
   20.2635  -21.1072  -13.7571 C   0  0  0  0  0  0  0  0  0  0  0  0
   20.6346  -22.4289  -13.8590 O   0  0  0  0  0  0  0  0  0  0  0  0
   19.1954  -20.9324  -13.0584 O   0  0  0  0  0  0  0  0  0  0  0  0
  2  5  1  0
  2  1  1  6
  3  2  1  0
  4  3  1  0
  5  6  2  0
  7  5  1  0
  7  8  1  0
  8  9  1  1
  9 10  1  0
 10 11  1  0
 11 12  1  0
 13 12  1  0
 14  8  1  0
 14 15  2  0
 16 17  1  0
 17 18  1  0
 18 19  1  6
 18 20  1  0
 20 21  1  6
 20 22  1  0
 21 14  1  0
 22 24  2  0
 22 23  1  0
M  END
$$$$
