CKI.pdb
     RDKit          3D

 24 23  0  0  1  0  0  0  0  0999 V2000
   18.1084  -12.5550  -18.2775 N   0  0  0  0  0  0  0  0  0  0  0  0
   18.3997  -11.9602  -16.9817 C   0  0  1  0  0  0  0  0  0  0  0  0
   19.7185  -12.5726  -16.5226 C   0  0  0  0  0  0  0  0  0  0  0  0
   19.4540  -14.2310  -15.8360 S   0  0  0  0  0  0  0  0  0  0  0  0
   18.6299  -10.5028  -17.1850 C   0  0  0  0  0  0  0  0  0  0  0  0
   19.3000  -10.0762  -18.1859 O   0  0  0  0  0  0  0  0  0  0  0  0
   18.1357   -9.5138  -16.3071 N   0  0  0  0  0  0  0  0  0  0  0  0
   18.3084   -8.0923  -16.5408 C   0  0  1  0  0  0  0  0  0  0  0  0
   16.9695   -7.3613  -16.3759 C   0  0  0  0  0  0  0  0  0  0  0  0
   16.0623   -7.6211  -17.5536 C   0  0  0  0  0  0  0  0  0  0  0  0
   14.7835   -6.8431  -17.2993 C   0  0  0  0  0  0  0  0  0  0  0  0
   13.8104   -6.9906  -18.4493 C   0  0  0  0  0  0  0  0  0  0  0  0
   12.5978   -6.2436  -18.2185 N   0  0  0  0  0  0  0  0  0  0  0  0
   19.3248   -7.4929  -15.6422 C   0  0  0  0  0  0  0  0  0  0  0  0
   19.3056   -7.7967  -14.4453 O   0  0  0  0  0  0  0  0  0  0  0  0
   24.4350   -7.9494  -16.4528 C   0  0  0  0  0  0  0  0  0  0  0  0
   23.0557   -7.6957  -15.9679 C   0  0  0  0  0  0  0  0  0  0  0  0
   22.6990   -6.2633  -15.7016 C   0  0  2  0  0  0  0  0  0  0  0  0
   23.8230   -5.6691  -14.9002 C   0  0  0  0  0  0  0  0  0  0  0  0
   21.3260   -5.9611  -15.2852 C   0  0  2  0  0  0  0  0  0  0  0  0
   20.3065   -6.5947  -16.0997 N   0  0  0  0  0  0  0  0  0  0  0  0
   20.9316   -4.6008  -14.9758 C   0  0  0  0  0  0  0  0  0  0  0  0
   20.1404   -3.7395  -15.7018 O   0  0  0  0  0  0  0  0  0  0  0  0
   21.3649   -4.0873  -13.8765 O   0  0  0  0  0  0  0  0  0  0  0  0
  2  5  1  0
  2  1  1  6
  3  2  1  0
  4  3  1  0
  5  6  2  0
  7  5  1  0
  7  8  1  0
  8  9  1  1
  9 10  1  0
 10 11  1  0
 11 12  1  0
 13 12  1  0
 14  8  1  0
 14 15  2  0
 16 17  1  0
 17 18  1  0
 18 19  1  1
 18 20  1  0
 20 21  1  6
 20 22  1  0
 21 14  1  0
 22 24  2  0
 22 23  1  0
M  END
$$$$
