CKI.pdb
     RDKit          3D

 24 23  0  0  1  0  0  0  0  0999 V2000
   22.4368  -15.8157  -19.5040 N   0  0  0  0  0  0  0  0  0  0  0  0
   21.6418  -15.3730  -18.3683 C   0  0  1  0  0  0  0  0  0  0  0  0
   22.3190  -15.9478  -17.1288 C   0  0  0  0  0  0  0  0  0  0  0  0
   21.9082  -17.7034  -16.9263 S   0  0  0  0  0  0  0  0  0  0  0  0
   21.7426  -13.8893  -18.2857 C   0  0  0  0  0  0  0  0  0  0  0  0
   22.8165  -13.2834  -18.6212 O   0  0  0  0  0  0  0  0  0  0  0  0
   20.6840  -13.0675  -17.8416 N   0  0  0  0  0  0  0  0  0  0  0  0
   20.7597  -11.6187  -17.8305 C   0  0  1  0  0  0  0  0  0  0  0  0
   19.3583  -11.0133  -17.9848 C   0  0  0  0  0  0  0  0  0  0  0  0
   18.8538  -11.1697  -19.3985 C   0  0  0  0  0  0  0  0  0  0  0  0
   17.4197  -10.6714  -19.4076 C   0  0  0  0  0  0  0  0  0  0  0  0
   16.8100  -10.7711  -20.7895 C   0  0  0  0  0  0  0  0  0  0  0  0
   15.4092  -10.4257  -20.7785 N   0  0  0  0  0  0  0  0  0  0  0  0
   21.4020  -11.0974  -16.5994 C   0  0  0  0  0  0  0  0  0  0  0  0
   21.0468  -11.5571  -15.5095 O   0  0  0  0  0  0  0  0  0  0  0  0
   26.3195  -11.6144  -15.3708 C   0  0  0  0  0  0  0  0  0  0  0  0
   24.8766  -11.3075  -15.5319 C   0  0  0  0  0  0  0  0  0  0  0  0
   24.4811   -9.8705  -15.3628 C   0  0  2  0  0  0  0  0  0  0  0  0
   25.2448   -9.3373  -14.1834 C   0  0  0  0  0  0  0  0  0  0  0  0
   23.0588   -9.5304  -15.4688 C   0  0  2  0  0  0  0  0  0  0  0  0
   22.3971  -10.1029  -16.6258 N   0  0  0  0  0  0  0  0  0  0  0  0
   22.6101   -8.1659  -15.2721 C   0  0  0  0  0  0  0  0  0  0  0  0
   22.3268   -7.5055  -14.0981 O   0  0  0  0  0  0  0  0  0  0  0  0
   22.4362   -7.4363  -16.3196 O   0  0  0  0  0  0  0  0  0  0  0  0
  2  5  1  0
  2  1  1  6
  3  2  1  0
  4  3  1  0
  5  6  2  0
  7  5  1  0
  7  8  1  0
  8  9  1  1
  9 10  1  0
 10 11  1  0
 11 12  1  0
 13 12  1  0
 14  8  1  0
 14 15  2  0
 16 17  1  0
 17 18  1  0
 18 19  1  1
 18 20  1  0
 20 21  1  6
 20 22  1  0
 21 14  1  0
 22 24  2  0
 22 23  1  0
M  END
$$$$
