CKI.pdb
     RDKit          3D

 24 23  0  0  1  0  0  0  0  0999 V2000
   27.1563  -21.3151  -11.5156 N   0  0  0  0  0  0  0  0  0  0  0  0
   25.7435  -21.2530  -11.1725 C   0  0  1  0  0  0  0  0  0  0  0  0
   25.5636  -19.9810  -10.3511 C   0  0  0  0  0  0  0  0  0  0  0  0
   25.9773  -20.2754   -8.6093 S   0  0  0  0  0  0  0  0  0  0  0  0
   24.9700  -21.0840  -12.4341 C   0  0  0  0  0  0  0  0  0  0  0  0
   25.4608  -20.4448  -13.4258 O   0  0  0  0  0  0  0  0  0  0  0  0
   23.6712  -21.6057  -12.6186 N   0  0  0  0  0  0  0  0  0  0  0  0
   22.9717  -21.5532  -13.8886 C   0  0  1  0  0  0  0  0  0  0  0  0
   21.9986  -22.7335  -14.0073 C   0  0  0  0  0  0  0  0  0  0  0  0
   21.3532  -22.7678  -15.3710 C   0  0  0  0  0  0  0  0  0  0  0  0
   20.3913  -23.9426  -15.3691 C   0  0  0  0  0  0  0  0  0  0  0  0
   19.7625  -24.1427  -16.7313 C   0  0  0  0  0  0  0  0  0  0  0  0
   18.7245  -25.1442  -16.6955 N   0  0  0  0  0  0  0  0  0  0  0  0
   22.2416  -20.2760  -14.0775 C   0  0  0  0  0  0  0  0  0  0  0  0
   21.7794  -19.7088  -13.0825 O   0  0  0  0  0  0  0  0  0  0  0  0
   22.5323  -15.0954  -17.2052 C   0  0  0  0  0  0  0  0  0  0  0  0
   21.6270  -16.0953  -16.5867 C   0  0  0  0  0  0  0  0  0  0  0  0
   22.2518  -17.3997  -16.1892 C   0  0  2  0  0  0  0  0  0  0  0  0
   23.1731  -17.8070  -17.3045 C   0  0  0  0  0  0  0  0  0  0  0  0
   21.3858  -18.4288  -15.6053 C   0  0  2  0  0  0  0  0  0  0  0  0
   22.0561  -19.6881  -15.3423 N   0  0  0  0  0  0  0  0  0  0  0  0
   20.0667  -18.6798  -16.1519 C   0  0  0  0  0  0  0  0  0  0  0  0
   18.8991  -17.9764  -15.9607 O   0  0  0  0  0  0  0  0  0  0  0  0
   19.9245  -19.6981  -16.9283 O   0  0  0  0  0  0  0  0  0  0  0  0
  2  5  1  0
  2  1  1  6
  3  2  1  0
  4  3  1  0
  5  6  2  0
  7  5  1  0
  7  8  1  0
  8  9  1  1
  9 10  1  0
 10 11  1  0
 11 12  1  0
 13 12  1  0
 14  8  1  0
 14 15  2  0
 16 17  1  0
 17 18  1  0
 18 19  1  6
 18 20  1  0
 20 21  1  6
 20 22  1  0
 21 14  1  0
 22 24  2  0
 22 23  1  0
M  END
$$$$
