CKI.pdb
     RDKit          3D

 24 23  0  0  1  0  0  0  0  0999 V2000
   18.5491  -12.2397  -16.8132 N   0  0  0  0  0  0  0  0  0  0  0  0
   19.1362  -11.1332  -17.5538 C   0  0  1  0  0  0  0  0  0  0  0  0
   17.9825  -10.1998  -17.9042 C   0  0  0  0  0  0  0  0  0  0  0  0
   16.8183  -11.0114  -19.0346 S   0  0  0  0  0  0  0  0  0  0  0  0
   20.0458  -10.3945  -16.6342 C   0  0  0  0  0  0  0  0  0  0  0  0
   19.6559  -10.0360  -15.4713 O   0  0  0  0  0  0  0  0  0  0  0  0
   21.3711  -10.0468  -16.9746 N   0  0  0  0  0  0  0  0  0  0  0  0
   22.2788   -9.3939  -16.0502 C   0  0  1  0  0  0  0  0  0  0  0  0
   23.7331   -9.7140  -16.4199 C   0  0  0  0  0  0  0  0  0  0  0  0
   24.1387  -11.0701  -15.8964 C   0  0  0  0  0  0  0  0  0  0  0  0
   25.0611  -11.6812  -16.9362 C   0  0  0  0  0  0  0  0  0  0  0  0
   25.4934  -13.0761  -16.5381 C   0  0  0  0  0  0  0  0  0  0  0  0
   26.9034  -13.1296  -16.2368 N   0  0  0  0  0  0  0  0  0  0  0  0
   22.0802   -7.9246  -16.0085 C   0  0  0  0  0  0  0  0  0  0  0  0
   22.0430   -7.3046  -17.0760 O   0  0  0  0  0  0  0  0  0  0  0  0
   18.8723   -3.3976  -15.7383 C   0  0  0  0  0  0  0  0  0  0  0  0
   20.1402   -3.8451  -15.1104 C   0  0  0  0  0  0  0  0  0  0  0  0
   20.4419   -5.3118  -15.1970 C   0  0  2  0  0  0  0  0  0  0  0  0
   19.2029   -6.0446  -14.7653 C   0  0  0  0  0  0  0  0  0  0  0  0
   21.7310   -5.7817  -14.6801 C   0  0  2  0  0  0  0  0  0  0  0  0
   21.9332   -7.2128  -14.8037 N   0  0  0  0  0  0  0  0  0  0  0  0
   22.2199   -5.3266  -13.3933 C   0  0  0  0  0  0  0  0  0  0  0  0
   22.5941   -6.0671  -12.2950 O   0  0  0  0  0  0  0  0  0  0  0  0
   22.3307   -4.0561  -13.2106 O   0  0  0  0  0  0  0  0  0  0  0  0
  2  5  1  0
  2  1  1  1
  3  2  1  0
  4  3  1  0
  5  6  2  0
  7  5  1  0
  7  8  1  0
  8  9  1  6
  9 10  1  0
 10 11  1  0
 11 12  1  0
 13 12  1  0
 14  8  1  0
 14 15  2  0
 16 17  1  0
 17 18  1  0
 18 19  1  1
 18 20  1  0
 20 21  1  1
 20 22  1  0
 21 14  1  0
 22 24  2  0
 22 23  1  0
M  END
$$$$
