CKI.pdb
     RDKit          3D

 24 23  0  0  1  0  0  0  0  0999 V2000
   23.8676  -30.3632  -17.2582 N   0  0  0  0  0  0  0  0  0  0  0  0
   23.3073  -29.6318  -18.3846 C   0  0  1  0  0  0  0  0  0  0  0  0
   21.8237  -29.9823  -18.4199 C   0  0  0  0  0  0  0  0  0  0  0  0
   21.4764  -31.1810  -19.7369 S   0  0  0  0  0  0  0  0  0  0  0  0
   23.4161  -28.1761  -18.0887 C   0  0  0  0  0  0  0  0  0  0  0  0
   22.9328  -27.6859  -17.0121 O   0  0  0  0  0  0  0  0  0  0  0  0
   24.0459  -27.2574  -18.9561 N   0  0  0  0  0  0  0  0  0  0  0  0
   24.1624  -25.8421  -18.6586 C   0  0  1  0  0  0  0  0  0  0  0  0
   25.3240  -25.2276  -19.4506 C   0  0  0  0  0  0  0  0  0  0  0  0
   26.6454  -25.8115  -19.0141 C   0  0  0  0  0  0  0  0  0  0  0  0
   26.9982  -25.1527  -17.6925 C   0  0  0  0  0  0  0  0  0  0  0  0
   28.2998  -25.6912  -17.1381 C   0  0  0  0  0  0  0  0  0  0  0  0
   29.0565  -24.6633  -16.4655 N   0  0  0  0  0  0  0  0  0  0  0  0
   22.9094  -25.1014  -18.9435 C   0  0  0  0  0  0  0  0  0  0  0  0
   22.5271  -25.0189  -20.1150 O   0  0  0  0  0  0  0  0  0  0  0  0
   17.1743  -24.4513  -17.5869 C   0  0  0  0  0  0  0  0  0  0  0  0
   18.4042  -23.6728  -17.8755 C   0  0  0  0  0  0  0  0  0  0  0  0
   19.7027  -24.4133  -17.7505 C   0  0  2  0  0  0  0  0  0  0  0  0
   19.6819  -25.1222  -16.4255 C   0  0  0  0  0  0  0  0  0  0  0  0
   20.9335  -23.7154  -18.1351 C   0  0  2  0  0  0  0  0  0  0  0  0
   22.1425  -24.4914  -17.9338 N   0  0  0  0  0  0  0  0  0  0  0  0
   21.1594  -22.3415  -17.7311 C   0  0  0  0  0  0  0  0  0  0  0  0
   22.2247  -21.8014  -17.0468 O   0  0  0  0  0  0  0  0  0  0  0  0
   20.2572  -21.4728  -18.0332 O   0  0  0  0  0  0  0  0  0  0  0  0
  2  5  1  0
  2  1  1  1
  3  2  1  0
  4  3  1  0
  5  6  2  0
  7  5  1  0
  7  8  1  0
  8  9  1  6
  9 10  1  0
 10 11  1  0
 11 12  1  0
 13 12  1  0
 14  8  1  0
 14 15  2  0
 16 17  1  0
 17 18  1  0
 18 19  1  1
 18 20  1  0
 20 21  1  1
 20 22  1  0
 21 14  1  0
 22 24  2  0
 22 23  1  0
M  END
$$$$
