CKI.pdb
     RDKit          3D

 24 23  0  0  1  0  0  0  0  0999 V2000
   18.9477  -20.8559  -13.2549 N   0  0  0  0  0  0  0  0  0  0  0  0
   19.9994  -19.8958  -13.5548 C   0  0  1  0  0  0  0  0  0  0  0  0
   19.9754  -18.8753  -12.4221 C   0  0  0  0  0  0  0  0  0  0  0  0
   18.6753  -17.6397  -12.6960 S   0  0  0  0  0  0  0  0  0  0  0  0
   21.3059  -20.6078  -13.4879 C   0  0  0  0  0  0  0  0  0  0  0  0
   21.6015  -21.3473  -12.4885 O   0  0  0  0  0  0  0  0  0  0  0  0
   22.2863  -20.5179  -14.4997 N   0  0  0  0  0  0  0  0  0  0  0  0
   23.5946  -21.1353  -14.3893 C   0  0  1  0  0  0  0  0  0  0  0  0
   24.2806  -21.1732  -15.7612 C   0  0  0  0  0  0  0  0  0  0  0  0
   25.6190  -21.8655  -15.6781 C   0  0  0  0  0  0  0  0  0  0  0  0
   26.2223  -21.8175  -17.0706 C   0  0  0  0  0  0  0  0  0  0  0  0
   27.5688  -22.5076  -17.1122 C   0  0  0  0  0  0  0  0  0  0  0  0
   28.0994  -22.5570  -18.4530 N   0  0  0  0  0  0  0  0  0  0  0  0
   24.4644  -20.4408  -13.4089 C   0  0  0  0  0  0  0  0  0  0  0  0
   24.3904  -19.2110  -13.3230 O   0  0  0  0  0  0  0  0  0  0  0  0
   26.3368  -20.2126   -7.7770 C   0  0  0  0  0  0  0  0  0  0  0  0
   26.7949  -20.0812   -9.1823 C   0  0  0  0  0  0  0  0  0  0  0  0
   25.8896  -20.6551  -10.2316 C   0  0  2  0  0  0  0  0  0  0  0  0
   25.4621  -22.0137   -9.7522 C   0  0  0  0  0  0  0  0  0  0  0  0
   26.2890  -20.5183  -11.6358 C   0  0  2  0  0  0  0  0  0  0  0  0
   25.3674  -21.1271  -12.5762 N   0  0  0  0  0  0  0  0  0  0  0  0
   27.6542  -20.7857  -12.0438 C   0  0  0  0  0  0  0  0  0  0  0  0
   28.8100  -20.1240  -11.6958 O   0  0  0  0  0  0  0  0  0  0  0  0
   27.8562  -21.7714  -12.8484 O   0  0  0  0  0  0  0  0  0  0  0  0
  2  5  1  0
  2  1  1  1
  3  2  1  0
  4  3  1  0
  5  6  2  0
  7  5  1  0
  7  8  1  0
  8  9  1  6
  9 10  1  0
 10 11  1  0
 11 12  1  0
 13 12  1  0
 14  8  1  0
 14 15  2  0
 16 17  1  0
 17 18  1  0
 18 19  1  1
 18 20  1  0
 20 21  1  6
 20 22  1  0
 21 14  1  0
 22 24  2  0
 22 23  1  0
M  END
$$$$
