CKI.pdb
     RDKit          3D

 24 23  0  0  1  0  0  0  0  0999 V2000
   28.9477  -18.7023  -18.1211 N   0  0  0  0  0  0  0  0  0  0  0  0
   28.0913  -19.8099  -17.7244 C   0  0  1  0  0  0  0  0  0  0  0  0
   28.9617  -20.7365  -16.8824 C   0  0  0  0  0  0  0  0  0  0  0  0
   27.9948  -22.1410  -16.2623 S   0  0  0  0  0  0  0  0  0  0  0  0
   27.0228  -19.2714  -16.8374 C   0  0  0  0  0  0  0  0  0  0  0  0
   27.2636  -18.3169  -16.0226 O   0  0  0  0  0  0  0  0  0  0  0  0
   25.7004  -19.7657  -16.8346 N   0  0  0  0  0  0  0  0  0  0  0  0
   24.6584  -19.2295  -15.9792 C   0  0  1  0  0  0  0  0  0  0  0  0
   23.4396  -18.8240  -16.8186 C   0  0  0  0  0  0  0  0  0  0  0  0
   22.3740  -18.1934  -15.9559 C   0  0  0  0  0  0  0  0  0  0  0  0
   21.2067  -17.8698  -16.8713 C   0  0  0  0  0  0  0  0  0  0  0  0
   20.0774  -17.2074  -16.1115 C   0  0  0  0  0  0  0  0  0  0  0  0
   18.9184  -17.0099  -16.9478 N   0  0  0  0  0  0  0  0  0  0  0  0
   24.2481  -20.1869  -14.9232 C   0  0  0  0  0  0  0  0  0  0  0  0
   24.0867  -21.3717  -15.2324 O   0  0  0  0  0  0  0  0  0  0  0  0
   27.1102  -20.6893  -10.4945 C   0  0  0  0  0  0  0  0  0  0  0  0
   26.1642  -20.9305  -11.6121 C   0  0  0  0  0  0  0  0  0  0  0  0
   24.7345  -20.5500  -11.3649 C   0  0  2  0  0  0  0  0  0  0  0  0
   24.3486  -21.1231  -10.0303 C   0  0  0  0  0  0  0  0  0  0  0  0
   23.7831  -20.6899  -12.4718 C   0  0  2  0  0  0  0  0  0  0  0  0
   24.0366  -19.7982  -13.5875 N   0  0  0  0  0  0  0  0  0  0  0  0
   22.3581  -20.7616  -12.2150 C   0  0  0  0  0  0  0  0  0  0  0  0
   21.5835  -21.8597  -11.9166 O   0  0  0  0  0  0  0  0  0  0  0  0
   21.6846  -19.6646  -12.2675 O   0  0  0  0  0  0  0  0  0  0  0  0
  2  5  1  0
  2  1  1  1
  3  2  1  0
  4  3  1  0
  5  6  2  0
  7  5  1  0
  7  8  1  0
  8  9  1  6
  9 10  1  0
 10 11  1  0
 11 12  1  0
 13 12  1  0
 14  8  1  0
 14 15  2  0
 16 17  1  0
 17 18  1  0
 18 19  1  1
 18 20  1  0
 20 21  1  6
 20 22  1  0
 21 14  1  0
 22 24  2  0
 22 23  1  0
M  END
$$$$
