CKI.pdb
     RDKit          3D

 24 23  0  0  1  0  0  0  0  0999 V2000
   28.4737  -20.6065  -17.8479 N   0  0  0  0  0  0  0  0  0  0  0  0
   28.1809  -21.6150  -16.8405 C   0  0  1  0  0  0  0  0  0  0  0  0
   29.4933  -21.8750  -16.1089 C   0  0  0  0  0  0  0  0  0  0  0  0
   29.6029  -23.6067  -15.5788 S   0  0  0  0  0  0  0  0  0  0  0  0
   27.2308  -21.0227  -15.8581 C   0  0  0  0  0  0  0  0  0  0  0  0
   27.3583  -19.8127  -15.4673 O   0  0  0  0  0  0  0  0  0  0  0  0
   26.1485  -21.7392  -15.3029 N   0  0  0  0  0  0  0  0  0  0  0  0
   25.1680  -21.1324  -14.4224 C   0  0  1  0  0  0  0  0  0  0  0  0
   23.7486  -21.4380  -14.9186 C   0  0  0  0  0  0  0  0  0  0  0  0
   22.7130  -20.8446  -13.9952 C   0  0  0  0  0  0  0  0  0  0  0  0
   21.6383  -20.2361  -14.8785 C   0  0  0  0  0  0  0  0  0  0  0  0
   20.6213  -19.4692  -14.0607 C   0  0  0  0  0  0  0  0  0  0  0  0
   19.5222  -19.0100  -14.8747 N   0  0  0  0  0  0  0  0  0  0  0  0
   25.3188  -21.5811  -13.0167 C   0  0  0  0  0  0  0  0  0  0  0  0
   25.4216  -22.7912  -12.7922 O   0  0  0  0  0  0  0  0  0  0  0  0
   27.7429  -19.8436   -7.6469 C   0  0  0  0  0  0  0  0  0  0  0  0
   26.7308  -20.6577   -8.3645 C   0  0  0  0  0  0  0  0  0  0  0  0
   26.4892  -20.3003   -9.8011 C   0  0  2  0  0  0  0  0  0  0  0  0
   26.4646  -18.8000   -9.8856 C   0  0  0  0  0  0  0  0  0  0  0  0
   25.4593  -21.0448  -10.5324 C   0  0  2  0  0  0  0  0  0  0  0  0
   25.3492  -20.6840  -11.9331 N   0  0  0  0  0  0  0  0  0  0  0  0
   24.1367  -21.2238   -9.9665 C   0  0  0  0  0  0  0  0  0  0  0  0
   22.9127  -20.8772  -10.4925 O   0  0  0  0  0  0  0  0  0  0  0  0
   24.0520  -21.7785   -8.8068 O   0  0  0  0  0  0  0  0  0  0  0  0
  2  5  1  0
  2  1  1  6
  3  2  1  0
  4  3  1  0
  5  6  2  0
  7  5  1  0
  7  8  1  0
  8  9  1  6
  9 10  1  0
 10 11  1  0
 11 12  1  0
 13 12  1  0
 14  8  1  0
 14 15  2  0
 16 17  1  0
 17 18  1  0
 18 19  1  1
 18 20  1  0
 20 21  1  6
 20 22  1  0
 21 14  1  0
 22 24  2  0
 22 23  1  0
M  END
$$$$
