FMH.pdb
     RDKit          3D

 30 31  0  0  1  0  0  0  0  0999 V2000
   27.9698  -20.8054  -15.1428 N   0  0  0  0  0  0  0  0  0  0  0  0
   27.4281  -19.9835  -14.0435 C   0  0  1  0  0  0  0  0  0  0  0  0
   26.4166  -19.0302  -14.6475 C   0  0  0  0  0  0  0  0  0  0  0  0
   26.9887  -18.0442  -15.5743 C   0  0  0  0  0  0  0  0  0  0  0  0
   26.8549  -18.2672  -16.9305 C   0  0  0  0  0  0  0  0  0  0  0  0
   27.3542  -17.3843  -17.8817 C   0  0  0  0  0  0  0  0  0  0  0  0
   27.9944  -16.2669  -17.4129 C   0  0  0  0  0  0  0  0  0  0  0  0
   28.1485  -16.0090  -16.0561 C   0  0  0  0  0  0  0  0  0  0  0  0
   27.6422  -16.9040  -15.1368 C   0  0  0  0  0  0  0  0  0  0  0  0
   26.8036  -20.8644  -13.0269 C   0  0  0  0  0  0  0  0  0  0  0  0
   26.1092  -21.8383  -13.4589 O   0  0  0  0  0  0  0  0  0  0  0  0
   25.9666  -20.5355   -5.9476 C   0  0  0  0  0  0  0  0  0  0  0  0
   27.3591  -20.0939   -7.0358 S   0  0  0  0  0  0  0  0  0  0  0  0
   26.6800  -19.9633   -8.7303 C   0  0  0  0  0  0  0  0  0  0  0  0
   26.6815  -21.3389   -9.3161 C   0  0  0  0  0  0  0  0  0  0  0  0
   26.0024  -21.3430  -10.6622 C   0  0  2  0  0  0  0  0  0  0  0  0
   26.9166  -20.7142  -11.6419 N   0  0  0  0  0  0  0  0  0  0  0  0
   24.7093  -20.6712  -10.7284 C   0  0  0  0  0  0  0  0  0  0  0  0
   24.6365  -19.3945  -10.5361 O   0  0  0  0  0  0  0  0  0  0  0  0
   23.4597  -21.2889  -10.9997 N   0  0  0  0  0  0  0  0  0  0  0  0
   22.5522  -20.7509  -12.0134 C   0  0  1  0  0  0  0  0  0  0  0  0
   23.2091  -20.7018  -13.3611 C   0  0  0  0  0  0  0  0  0  0  0  0
   22.2518  -20.1762  -14.3592 C   0  0  0  0  0  0  0  0  0  0  0  0
   21.4651  -20.9043  -15.2464 C   0  0  0  0  0  0  0  0  0  0  0  0
   20.7241  -20.0672  -15.9979 N   0  0  0  0  0  0  0  0  0  0  0  0
   21.0233  -18.8036  -15.6070 C   0  0  0  0  0  0  0  0  0  0  0  0
   21.9323  -18.8950  -14.6321 N   0  0  0  0  0  0  0  0  0  0  0  0
   21.3558  -21.6000  -12.0620 C   0  0  0  0  0  0  0  0  0  0  0  0
   20.2423  -21.0733  -12.3204 O   0  0  0  0  0  0  0  0  0  0  0  0
   21.3273  -22.9699  -11.8467 O   0  0  0  0  0  0  0  0  0  0  0  0
  2  1  1  6
  3  4  1  0
  3  2  1  0
  4  5  2  0
  5  6  1  0
  7  6  2  0
  8  7  1  0
  9  4  1  0
  9  8  2  0
 10  2  1  0
 10 17  1  0
 11 10  2  0
 13 12  1  0
 14 13  1  0
 15 14  1  0
 16 15  1  1
 16 17  1  0
 18 16  1  0
 19 18  2  0
 20 18  1  0
 21 20  1  0
 21 28  1  0
 22 23  1  0
 21 22  1  6
 23 27  1  0
 24 23  2  0
 24 25  1  0
 25 26  1  0
 27 26  2  0
 28 30  1  0
 29 28  2  0
M  END
$$$$
