FMH.pdb
     RDKit          3D

 30 31  0  0  1  0  0  0  0  0999 V2000
   28.0644  -21.1113  -14.7288 N   0  0  0  0  0  0  0  0  0  0  0  0
   27.4181  -20.1139  -13.8543 C   0  0  1  0  0  0  0  0  0  0  0  0
   26.4466  -19.3249  -14.7089 C   0  0  0  0  0  0  0  0  0  0  0  0
   27.0828  -18.3905  -15.6472 C   0  0  0  0  0  0  0  0  0  0  0  0
   27.2261  -18.7822  -16.9636 C   0  0  0  0  0  0  0  0  0  0  0  0
   27.8057  -17.9610  -17.9245 C   0  0  0  0  0  0  0  0  0  0  0  0
   28.2358  -16.7285  -17.5070 C   0  0  0  0  0  0  0  0  0  0  0  0
   28.1088  -16.2999  -16.1913 C   0  0  0  0  0  0  0  0  0  0  0  0
   27.5294  -17.1376  -15.2612 C   0  0  0  0  0  0  0  0  0  0  0  0
   26.7236  -20.8059  -12.7415 C   0  0  0  0  0  0  0  0  0  0  0  0
   26.2244  -21.9473  -12.9967 O   0  0  0  0  0  0  0  0  0  0  0  0
   26.9219  -19.7575   -6.4301 C   0  0  0  0  0  0  0  0  0  0  0  0
   28.3463  -20.4824   -7.3040 S   0  0  0  0  0  0  0  0  0  0  0  0
   27.7388  -21.0148   -8.9463 C   0  0  0  0  0  0  0  0  0  0  0  0
   26.3116  -20.5823   -9.0531 C   0  0  0  0  0  0  0  0  0  0  0  0
   25.7444  -20.9528  -10.4000 C   0  0  2  0  0  0  0  0  0  0  0  0
   26.5754  -20.3104  -11.4430 N   0  0  0  0  0  0  0  0  0  0  0  0
   24.3483  -20.5958  -10.6263 C   0  0  0  0  0  0  0  0  0  0  0  0
   23.9275  -19.4133  -10.3151 O   0  0  0  0  0  0  0  0  0  0  0  0
   23.3500  -21.4385  -11.1830 N   0  0  0  0  0  0  0  0  0  0  0  0
   22.3301  -20.9097  -12.0889 C   0  0  1  0  0  0  0  0  0  0  0  0
   22.9527  -20.2094  -13.2603 C   0  0  0  0  0  0  0  0  0  0  0  0
   21.8896  -19.6981  -14.1531 C   0  0  0  0  0  0  0  0  0  0  0  0
   20.5128  -19.7983  -13.9778 C   0  0  0  0  0  0  0  0  0  0  0  0
   19.8739  -19.2112  -15.0082 N   0  0  0  0  0  0  0  0  0  0  0  0
   20.8230  -18.7321  -15.8500 C   0  0  0  0  0  0  0  0  0  0  0  0
   22.0118  -19.0330  -15.3196 N   0  0  0  0  0  0  0  0  0  0  0  0
   21.4952  -22.0258  -12.5492 C   0  0  0  0  0  0  0  0  0  0  0  0
   20.2592  -21.8430  -12.7004 O   0  0  0  0  0  0  0  0  0  0  0  0
   21.9456  -23.3036  -12.8462 O   0  0  0  0  0  0  0  0  0  0  0  0
  2  1  1  6
  3  4  1  0
  3  2  1  0
  4  5  2  0
  5  6  1  0
  7  6  2  0
  8  7  1  0
  9  4  1  0
  9  8  2  0
 10  2  1  0
 10 17  1  0
 11 10  2  0
 13 12  1  0
 14 13  1  0
 15 14  1  0
 16 15  1  1
 16 17  1  0
 18 16  1  0
 19 18  2  0
 20 18  1  0
 21 20  1  0
 21 28  1  0
 22 23  1  0
 21 22  1  6
 23 27  1  0
 24 23  2  0
 24 25  1  0
 25 26  1  0
 27 26  2  0
 28 30  1  0
 29 28  2  0
M  END
$$$$
