FMH.pdb
     RDKit          3D

 30 31  0  0  1  0  0  0  0  0999 V2000
   19.1930  -16.3908  -19.8756 N   0  0  0  0  0  0  0  0  0  0  0  0
   18.1199  -15.4660  -20.2887 C   0  0  1  0  0  0  0  0  0  0  0  0
   17.3506  -15.0800  -19.0414 C   0  0  0  0  0  0  0  0  0  0  0  0
   16.5213  -16.1557  -18.4815 C   0  0  0  0  0  0  0  0  0  0  0  0
   15.2278  -16.2926  -18.9451 C   0  0  0  0  0  0  0  0  0  0  0  0
   14.3736  -17.2873  -18.4818 C   0  0  0  0  0  0  0  0  0  0  0  0
   14.8739  -18.1396  -17.5324 C   0  0  0  0  0  0  0  0  0  0  0  0
   16.1697  -18.0327  -17.0419 C   0  0  0  0  0  0  0  0  0  0  0  0
   16.9930  -17.0352  -17.5212 C   0  0  0  0  0  0  0  0  0  0  0  0
   18.7152  -14.2786  -20.9482 C   0  0  0  0  0  0  0  0  0  0  0  0
   19.8192  -13.8545  -20.4808 O   0  0  0  0  0  0  0  0  0  0  0  0
   19.8275  -14.1694  -26.6054 C   0  0  0  0  0  0  0  0  0  0  0  0
   18.1056  -13.5808  -26.5244 S   0  0  0  0  0  0  0  0  0  0  0  0
   17.7493  -13.2416  -24.7616 C   0  0  0  0  0  0  0  0  0  0  0  0
   19.0170  -12.7510  -24.1390 C   0  0  0  0  0  0  0  0  0  0  0  0
   18.8008  -12.4226  -22.6835 C   0  0  2  0  0  0  0  0  0  0  0  0
   18.1669  -13.5930  -22.0358 N   0  0  0  0  0  0  0  0  0  0  0  0
   17.9938  -11.2392  -22.4077 C   0  0  0  0  0  0  0  0  0  0  0  0
   16.9286  -11.3413  -21.6815 O   0  0  0  0  0  0  0  0  0  0  0  0
   18.2610   -9.9209  -22.8630 N   0  0  0  0  0  0  0  0  0  0  0  0
   17.3725   -8.8081  -22.5273 C   0  0  1  0  0  0  0  0  0  0  0  0
   17.2611   -8.6294  -21.0421 C   0  0  0  0  0  0  0  0  0  0  0  0
   16.4391   -7.4351  -20.7477 C   0  0  0  0  0  0  0  0  0  0  0  0
   15.1588   -7.1503  -21.2124 C   0  0  0  0  0  0  0  0  0  0  0  0
   14.7455   -5.9645  -20.7247 N   0  0  0  0  0  0  0  0  0  0  0  0
   15.7457   -5.4777  -19.9491 C   0  0  0  0  0  0  0  0  0  0  0  0
   16.7399   -6.3697  -19.9781 N   0  0  0  0  0  0  0  0  0  0  0  0
   17.9030   -7.5880  -23.1474 C   0  0  0  0  0  0  0  0  0  0  0  0
   19.0695   -7.5996  -23.6199 O   0  0  0  0  0  0  0  0  0  0  0  0
   17.2258   -6.3839  -23.2715 O   0  0  0  0  0  0  0  0  0  0  0  0
  2  1  1  1
  3  4  1  0
  3  2  1  0
  4  5  2  0
  5  6  1  0
  7  6  2  0
  8  7  1  0
  9  4  1  0
  9  8  2  0
 10  2  1  0
 10 17  1  0
 11 10  2  0
 13 12  1  0
 14 13  1  0
 15 14  1  0
 16 15  1  6
 16 17  1  0
 18 16  1  0
 19 18  2  0
 20 18  1  0
 21 20  1  0
 21 28  1  0
 22 23  1  0
 21 22  1  1
 23 27  1  0
 24 23  2  0
 24 25  1  0
 25 26  1  0
 27 26  2  0
 28 30  1  0
 29 28  2  0
M  END
$$$$
