FMH.pdb
     RDKit          3D

 30 31  0  0  1  0  0  0  0  0999 V2000
   26.6617  -34.7295   -9.2449 N   0  0  0  0  0  0  0  0  0  0  0  0
   27.0993  -33.8667   -8.1307 C   0  0  1  0  0  0  0  0  0  0  0  0
   25.8524  -33.3573   -7.4363 C   0  0  0  0  0  0  0  0  0  0  0  0
   25.1396  -32.2997   -8.1656 C   0  0  0  0  0  0  0  0  0  0  0  0
   25.1804  -31.0154   -7.6599 C   0  0  0  0  0  0  0  0  0  0  0  0
   24.5454  -29.9491   -8.2871 C   0  0  0  0  0  0  0  0  0  0  0  0
   23.8668  -30.2275   -9.4448 C   0  0  0  0  0  0  0  0  0  0  0  0
   23.8034  -31.5069   -9.9836 C   0  0  0  0  0  0  0  0  0  0  0  0
   24.4437  -32.5440   -9.3379 C   0  0  0  0  0  0  0  0  0  0  0  0
   27.9550  -34.6479   -7.2050 C   0  0  0  0  0  0  0  0  0  0  0  0
   27.6445  -35.8682   -7.0269 O   0  0  0  0  0  0  0  0  0  0  0  0
   33.3658  -32.0787   -6.9171 C   0  0  0  0  0  0  0  0  0  0  0  0
   33.5966  -33.8729   -7.1306 S   0  0  0  0  0  0  0  0  0  0  0  0
   31.9264  -34.6211   -7.1262 C   0  0  0  0  0  0  0  0  0  0  0  0
   31.3522  -34.4169   -5.7610 C   0  0  0  0  0  0  0  0  0  0  0  0
   29.9600  -34.9897   -5.6797 C   0  0  2  0  0  0  0  0  0  0  0  0
   29.0689  -34.1567   -6.5183 N   0  0  0  0  0  0  0  0  0  0  0  0
   29.3867  -35.0906   -4.3423 C   0  0  0  0  0  0  0  0  0  0  0  0
   28.8427  -34.0529   -3.7950 O   0  0  0  0  0  0  0  0  0  0  0  0
   29.3503  -36.2581   -3.5347 N   0  0  0  0  0  0  0  0  0  0  0  0
   28.7439  -36.2405   -2.2033 C   0  0  1  0  0  0  0  0  0  0  0  0
   28.0467  -37.5348   -1.9055 C   0  0  0  0  0  0  0  0  0  0  0  0
   26.7888  -37.6089   -2.6809 C   0  0  0  0  0  0  0  0  0  0  0  0
   26.0499  -36.5517   -3.2029 C   0  0  0  0  0  0  0  0  0  0  0  0
   24.9634  -37.0226   -3.8451 N   0  0  0  0  0  0  0  0  0  0  0  0
   24.9905  -38.3746   -3.7437 C   0  0  0  0  0  0  0  0  0  0  0  0
   26.0846  -38.6983   -3.0487 N   0  0  0  0  0  0  0  0  0  0  0  0
   29.8014  -35.9940   -1.2155 C   0  0  0  0  0  0  0  0  0  0  0  0
   29.4977  -35.9397    0.0047 O   0  0  0  0  0  0  0  0  0  0  0  0
   31.1466  -35.8109   -1.4998 O   0  0  0  0  0  0  0  0  0  0  0  0
  2  1  1  6
  3  4  1  0
  3  2  1  0
  4  5  2  0
  5  6  1  0
  7  6  2  0
  8  7  1  0
  9  4  1  0
  9  8  2  0
 10  2  1  0
 10 17  1  0
 11 10  2  0
 13 12  1  0
 14 13  1  0
 15 14  1  0
 16 15  1  1
 16 17  1  0
 18 16  1  0
 19 18  2  0
 20 18  1  0
 21 20  1  0
 21 28  1  0
 22 23  1  0
 21 22  1  1
 23 27  1  0
 24 23  2  0
 24 25  1  0
 25 26  1  0
 27 26  2  0
 28 30  1  0
 29 28  2  0
M  END
$$$$
