FMH.pdb
     RDKit          3D

 30 31  0  0  1  0  0  0  0  0999 V2000
   27.9238  -21.0376  -16.6202 N   0  0  0  0  0  0  0  0  0  0  0  0
   27.5821  -20.1114  -15.5235 C   0  0  1  0  0  0  0  0  0  0  0  0
   26.6604  -19.0533  -16.0957 C   0  0  0  0  0  0  0  0  0  0  0  0
   27.3517  -17.9354  -16.7519 C   0  0  0  0  0  0  0  0  0  0  0  0
   27.4126  -17.9237  -18.1315 C   0  0  0  0  0  0  0  0  0  0  0  0
   28.0360  -16.9019  -18.8392 C   0  0  0  0  0  0  0  0  0  0  0  0
   28.5964  -15.8914  -18.1023 C   0  0  0  0  0  0  0  0  0  0  0  0
   28.5554  -15.8692  -16.7135 C   0  0  0  0  0  0  0  0  0  0  0  0
   27.9296  -16.8974  -16.0399 C   0  0  0  0  0  0  0  0  0  0  0  0
   26.9289  -20.8633  -14.4247 C   0  0  0  0  0  0  0  0  0  0  0  0
   26.2425  -21.8820  -14.7540 O   0  0  0  0  0  0  0  0  0  0  0  0
   24.1619  -21.0026   -7.3068 C   0  0  0  0  0  0  0  0  0  0  0  0
   25.1261  -20.1477   -8.5943 S   0  0  0  0  0  0  0  0  0  0  0  0
   25.9603  -21.4481   -9.5754 C   0  0  0  0  0  0  0  0  0  0  0  0
   26.7086  -20.7636  -10.6740 C   0  0  0  0  0  0  0  0  0  0  0  0
   26.1629  -21.1683  -12.0199 C   0  0  2  0  0  0  0  0  0  0  0  0
   27.0069  -20.5474  -13.0654 N   0  0  0  0  0  0  0  0  0  0  0  0
   24.7690  -20.8226  -12.2753 C   0  0  0  0  0  0  0  0  0  0  0  0
   24.4756  -19.6794  -12.8037 O   0  0  0  0  0  0  0  0  0  0  0  0
   23.6414  -21.6414  -12.0020 N   0  0  0  0  0  0  0  0  0  0  0  0
   22.2796  -21.1559  -12.2260 C   0  0  1  0  0  0  0  0  0  0  0  0
   22.1793  -19.6805  -11.9744 C   0  0  0  0  0  0  0  0  0  0  0  0
   21.4235  -19.0413  -13.0739 C   0  0  0  0  0  0  0  0  0  0  0  0
   20.7647  -19.6678  -14.1273 C   0  0  0  0  0  0  0  0  0  0  0  0
   20.1941  -18.7457  -14.9266 N   0  0  0  0  0  0  0  0  0  0  0  0
   20.4772  -17.5277  -14.4018 C   0  0  0  0  0  0  0  0  0  0  0  0
   21.2075  -17.7300  -13.3015 N   0  0  0  0  0  0  0  0  0  0  0  0
   21.9002  -21.4621  -13.6105 C   0  0  0  0  0  0  0  0  0  0  0  0
   22.6259  -22.2373  -14.2863 O   0  0  0  0  0  0  0  0  0  0  0  0
   20.7846  -20.9690  -14.2711 O   0  0  0  0  0  0  0  0  0  0  0  0
  2  1  1  6
  3  4  1  0
  3  2  1  0
  4  5  2  0
  5  6  1  0
  7  6  2  0
  8  7  1  0
  9  4  1  0
  9  8  2  0
 10  2  1  0
 10 17  1  0
 11 10  2  0
 13 12  1  0
 14 13  1  0
 15 14  1  0
 16 15  1  1
 16 17  1  0
 18 16  1  0
 19 18  2  0
 20 18  1  0
 21 20  1  0
 21 28  1  0
 22 23  1  0
 21 22  1  6
 23 27  1  0
 24 23  2  0
 24 25  1  0
 25 26  1  0
 27 26  2  0
 28 30  1  0
 29 28  2  0
M  END
$$$$
