FMH.pdb
     RDKit          3D

 30 31  0  0  1  0  0  0  0  0999 V2000
   28.4576  -20.9284   -8.6044 N   0  0  0  0  0  0  0  0  0  0  0  0
   27.0127  -20.6371   -8.5335 C   0  0  1  0  0  0  0  0  0  0  0  0
   26.8311  -19.4805   -7.5714 C   0  0  0  0  0  0  0  0  0  0  0  0
   27.4342  -19.6901   -6.2483 C   0  0  0  0  0  0  0  0  0  0  0  0
   26.7967  -20.5404   -5.3665 C   0  0  0  0  0  0  0  0  0  0  0  0
   27.2985  -20.8078   -4.0976 C   0  0  0  0  0  0  0  0  0  0  0  0
   28.4689  -20.1846   -3.7512 C   0  0  0  0  0  0  0  0  0  0  0  0
   29.1385  -19.3226   -4.6113 C   0  0  0  0  0  0  0  0  0  0  0  0
   28.6153  -19.0773   -5.8637 C   0  0  0  0  0  0  0  0  0  0  0  0
   26.5075  -20.3016   -9.8869 C   0  0  0  0  0  0  0  0  0  0  0  0
   27.2347  -19.5394  -10.5993 O   0  0  0  0  0  0  0  0  0  0  0  0
   28.5732  -21.1684  -15.9535 C   0  0  0  0  0  0  0  0  0  0  0  0
   27.9415  -22.0242  -14.4747 S   0  0  0  0  0  0  0  0  0  0  0  0
   26.6754  -20.9289  -13.7353 C   0  0  0  0  0  0  0  0  0  0  0  0
   26.1186  -21.6367  -12.5418 C   0  0  0  0  0  0  0  0  0  0  0  0
   25.0342  -20.8131  -11.8946 C   0  0  2  0  0  0  0  0  0  0  0  0
   25.3063  -20.7531  -10.4408 N   0  0  0  0  0  0  0  0  0  0  0  0
   23.6678  -21.2816  -12.0975 C   0  0  0  0  0  0  0  0  0  0  0  0
   23.0306  -21.8484  -11.1254 O   0  0  0  0  0  0  0  0  0  0  0  0
   22.9178  -21.1755  -13.2986 N   0  0  0  0  0  0  0  0  0  0  0  0
   21.5078  -20.7854  -13.2802 C   0  0  1  0  0  0  0  0  0  0  0  0
   21.3169  -19.4663  -12.5919 C   0  0  0  0  0  0  0  0  0  0  0  0
   19.8913  -19.0762  -12.6568 C   0  0  0  0  0  0  0  0  0  0  0  0
   18.8458  -19.7765  -13.2506 C   0  0  0  0  0  0  0  0  0  0  0  0
   17.6932  -19.0950  -13.1032 N   0  0  0  0  0  0  0  0  0  0  0  0
   17.9816  -17.9594  -12.4203 C   0  0  0  0  0  0  0  0  0  0  0  0
   19.2931  -17.9720  -12.1659 N   0  0  0  0  0  0  0  0  0  0  0  0
   21.0297  -20.7093  -14.6659 C   0  0  0  0  0  0  0  0  0  0  0  0
   21.7606  -20.1686  -15.5362 O   0  0  0  0  0  0  0  0  0  0  0  0
   19.8143  -21.1909  -15.1294 O   0  0  0  0  0  0  0  0  0  0  0  0
  2  1  1  6
  3  4  1  0
  3  2  1  0
  4  5  2  0
  5  6  1  0
  7  6  2  0
  8  7  1  0
  9  4  1  0
  9  8  2  0
 10  2  1  0
 10 17  1  0
 11 10  2  0
 13 12  1  0
 14 13  1  0
 15 14  1  0
 16 15  1  6
 16 17  1  0
 18 16  1  0
 19 18  2  0
 20 18  1  0
 21 20  1  0
 21 28  1  0
 22 23  1  0
 21 22  1  6
 23 27  1  0
 24 23  2  0
 24 25  1  0
 25 26  1  0
 27 26  2  0
 28 30  1  0
 29 28  2  0
M  END
$$$$
