FMH.pdb
     RDKit          3D

 30 31  0  0  1  0  0  0  0  0999 V2000
   26.7529  -15.4408  -15.8217 N   0  0  0  0  0  0  0  0  0  0  0  0
   26.7738  -14.4993  -16.9577 C   0  0  1  0  0  0  0  0  0  0  0  0
   25.5064  -14.7265  -17.7568 C   0  0  0  0  0  0  0  0  0  0  0  0
   25.4078  -16.0554  -18.3752 C   0  0  0  0  0  0  0  0  0  0  0  0
   26.2605  -16.3555  -19.4192 C   0  0  0  0  0  0  0  0  0  0  0  0
   26.2472  -17.5905  -20.0582 C   0  0  0  0  0  0  0  0  0  0  0  0
   25.3405  -18.5123  -19.6040 C   0  0  0  0  0  0  0  0  0  0  0  0
   24.4667  -18.2465  -18.5566 C   0  0  0  0  0  0  0  0  0  0  0  0
   24.5040  -17.0118  -17.9429 C   0  0  0  0  0  0  0  0  0  0  0  0
   26.8518  -13.1088  -16.4479 C   0  0  0  0  0  0  0  0  0  0  0  0
   26.3340  -12.8844  -15.3082 O   0  0  0  0  0  0  0  0  0  0  0  0
   30.7459   -7.5963  -17.8577 C   0  0  0  0  0  0  0  0  0  0  0  0
   30.8473   -9.3151  -18.4524 S   0  0  0  0  0  0  0  0  0  0  0  0
   29.1724  -10.0313  -18.2756 C   0  0  0  0  0  0  0  0  0  0  0  0
   28.8712  -10.0997  -16.8128 C   0  0  0  0  0  0  0  0  0  0  0  0
   27.4870  -10.6507  -16.5813 C   0  0  2  0  0  0  0  0  0  0  0  0
   27.4457  -12.0319  -17.1121 N   0  0  0  0  0  0  0  0  0  0  0  0
   26.3892   -9.8897  -17.1672 C   0  0  0  0  0  0  0  0  0  0  0  0
   26.0017  -10.1441  -18.3745 O   0  0  0  0  0  0  0  0  0  0  0  0
   25.6566   -8.8539  -16.5294 N   0  0  0  0  0  0  0  0  0  0  0  0
   24.2002   -8.7739  -16.6439 C   0  0  1  0  0  0  0  0  0  0  0  0
   23.5486  -10.0514  -16.2038 C   0  0  0  0  0  0  0  0  0  0  0  0
   22.0911   -9.9721  -16.4455 C   0  0  0  0  0  0  0  0  0  0  0  0
   21.3650   -8.8771  -16.9038 C   0  0  0  0  0  0  0  0  0  0  0  0
   20.0592   -9.1956  -16.9929 N   0  0  0  0  0  0  0  0  0  0  0  0
   19.9317  -10.4861  -16.5961 C   0  0  0  0  0  0  0  0  0  0  0  0
   21.1525  -10.9252  -16.2770 N   0  0  0  0  0  0  0  0  0  0  0  0
   23.7312   -7.6539  -15.8191 C   0  0  0  0  0  0  0  0  0  0  0  0
   22.5058   -7.3664  -15.8181 O   0  0  0  0  0  0  0  0  0  0  0  0
   24.5276   -6.8549  -15.0122 O   0  0  0  0  0  0  0  0  0  0  0  0
  2  1  1  1
  3  4  1  0
  3  2  1  0
  4  5  2  0
  5  6  1  0
  7  6  2  0
  8  7  1  0
  9  4  1  0
  9  8  2  0
 10  2  1  0
 10 17  1  0
 11 10  2  0
 13 12  1  0
 14 13  1  0
 15 14  1  0
 16 15  1  6
 16 17  1  0
 18 16  1  0
 19 18  2  0
 20 18  1  0
 21 20  1  0
 21 28  1  0
 22 23  1  0
 21 22  1  1
 23 27  1  0
 24 23  2  0
 24 25  1  0
 25 26  1  0
 27 26  2  0
 28 30  1  0
 29 28  2  0
M  END
$$$$
