KQS.pdb
     RDKit          3D

 25 24  0  0  1  0  0  0  0  0999 V2000
   18.7058  -11.9372  -19.1770 N   0  0  0  0  0  0  0  0  0  0  0  0
   18.9497  -11.5287  -17.8472 C   0  0  1  0  0  0  0  0  0  0  0  0
   19.6812  -12.5129  -16.9921 C   0  0  0  0  0  0  0  0  0  0  0  0
   18.9778  -13.7982  -16.7392 C   0  0  0  0  0  0  0  0  0  0  0  0
   19.7691  -14.8173  -15.9766 C   0  0  0  0  0  0  0  0  0  0  0  0
   18.9856  -16.1064  -15.8341 C   0  0  0  0  0  0  0  0  0  0  0  0
   19.7662  -17.0719  -15.0843 N   0  0  0  0  0  0  0  0  0  0  0  0
   19.8253  -10.2924  -17.8983 C   0  0  0  0  0  0  0  0  0  0  0  0
   20.9494  -10.4727  -18.4510 O   0  0  0  0  0  0  0  0  0  0  0  0
   18.6632   -5.1803  -20.2776 N   0  0  0  0  0  0  0  0  0  0  0  0
   18.4684   -6.5638  -20.6224 C   0  0  0  0  0  0  0  0  0  0  0  0
   17.8426   -6.8020  -21.6677 O   0  0  0  0  0  0  0  0  0  0  0  0
   19.0111   -7.6062  -19.7322 C   0  0  0  0  0  0  0  0  0  0  0  0
   19.6613   -6.9900  -18.5482 C   0  0  0  0  0  0  0  0  0  0  0  0
   20.2341   -7.8732  -17.5059 C   0  0  2  0  0  0  0  0  0  0  0  0
   19.3841   -9.0789  -17.3666 N   0  0  0  0  0  0  0  0  0  0  0  0
   20.3053   -7.2704  -16.1656 C   0  0  0  0  0  0  0  0  0  0  0  0
   19.3831   -7.4555  -15.2848 O   0  0  0  0  0  0  0  0  0  0  0  0
   22.7755   -4.6758  -12.8648 O   0  0  0  0  0  0  0  0  0  0  0  0
   22.7457   -5.2050  -14.1495 C   0  0  0  0  0  0  0  0  0  0  0  0
   21.3928   -5.8573  -14.4012 C   0  0  2  0  0  0  0  0  0  0  0  0
   21.3667   -6.4608  -15.7346 N   0  0  0  0  0  0  0  0  0  0  0  0
   20.3861   -4.7878  -14.3613 C   0  0  0  0  0  0  0  0  0  0  0  0
   19.6120   -4.5192  -13.2571 O   0  0  0  0  0  0  0  0  0  0  0  0
   20.2507   -4.0967  -15.4168 O   0  0  0  0  0  0  0  0  0  0  0  0
  2  1  1  6
  3  2  1  0
  4  3  1  0
  5  6  1  0
  5  4  1  0
  7  6  1  0
  8  2  1  0
  8  9  2  0
 10 11  1  0
 11 13  1  0
 11 12  2  0
 13 14  1  0
 15 14  1  6
 16 15  1  0
 16  8  1  0
 17 18  2  0
 17 15  1  0
 20 19  1  0
 21 20  1  6
 21 22  1  0
 22 17  1  0
 23 21  1  0
 23 24  1  0
 25 23  2  0
M  END
$$$$
