KQS.pdb
     RDKit          3D

 25 24  0  0  1  0  0  0  0  0999 V2000
   14.4887  -22.0993   -1.3865 N   0  0  0  0  0  0  0  0  0  0  0  0
   14.1055  -22.4779   -0.0809 C   0  0  1  0  0  0  0  0  0  0  0  0
   14.3421  -23.9110    0.2726 C   0  0  0  0  0  0  0  0  0  0  0  0
   13.5080  -24.9031   -0.4559 C   0  0  0  0  0  0  0  0  0  0  0  0
   13.4366  -24.7068   -1.9401 C   0  0  0  0  0  0  0  0  0  0  0  0
   12.6566  -25.8304   -2.5918 C   0  0  0  0  0  0  0  0  0  0  0  0
   12.5487  -25.5871   -4.0176 N   0  0  0  0  0  0  0  0  0  0  0  0
   14.9344  -21.6675    0.8957 C   0  0  0  0  0  0  0  0  0  0  0  0
   16.1083  -21.4132    0.4968 O   0  0  0  0  0  0  0  0  0  0  0  0
   12.4912  -17.6491    4.6865 N   0  0  0  0  0  0  0  0  0  0  0  0
   12.9067  -17.3067    3.3520 C   0  0  0  0  0  0  0  0  0  0  0  0
   12.3698  -16.3163    2.8306 O   0  0  0  0  0  0  0  0  0  0  0  0
   13.9282  -18.1352    2.6860 C   0  0  0  0  0  0  0  0  0  0  0  0
   14.2820  -19.3024    3.5329 C   0  0  0  0  0  0  0  0  0  0  0  0
   15.1843  -20.3396    2.9809 C   0  0  2  0  0  0  0  0  0  0  0  0
   14.4029  -21.2588    2.1206 N   0  0  0  0  0  0  0  0  0  0  0  0
   15.8339  -21.1864    3.9937 C   0  0  0  0  0  0  0  0  0  0  0  0
   15.9344  -22.4632    3.8523 O   0  0  0  0  0  0  0  0  0  0  0  0
   18.9648  -22.9510    6.4736 O   0  0  0  0  0  0  0  0  0  0  0  0
   18.3115  -22.1695    5.5284 C   0  0  0  0  0  0  0  0  0  0  0  0
   17.0638  -21.5550    6.1487 C   0  0  2  0  0  0  0  0  0  0  0  0
   16.3958  -20.6866    5.1779 N   0  0  0  0  0  0  0  0  0  0  0  0
   17.5089  -20.7255    7.2769 C   0  0  0  0  0  0  0  0  0  0  0  0
   17.4395  -19.3523    7.2792 O   0  0  0  0  0  0  0  0  0  0  0  0
   17.9758  -21.3408    8.2837 O   0  0  0  0  0  0  0  0  0  0  0  0
  2  1  1  6
  3  2  1  0
  4  3  1  0
  5  6  1  0
  5  4  1  0
  7  6  1  0
  8  2  1  0
  8  9  2  0
 10 11  1  0
 11 13  1  0
 11 12  2  0
 13 14  1  0
 15 14  1  1
 16 15  1  0
 16  8  1  0
 17 18  2  0
 17 15  1  0
 20 19  1  0
 21 20  1  6
 21 22  1  0
 22 17  1  0
 23 21  1  0
 23 24  1  0
 25 23  2  0
M  END
$$$$
