KQS.pdb
     RDKit          3D

 25 24  0  0  1  0  0  0  0  0999 V2000
   27.7214  -20.9215  -17.1371 N   0  0  0  0  0  0  0  0  0  0  0  0
   27.9105  -22.1258  -16.4240 C   0  0  1  0  0  0  0  0  0  0  0  0
   26.7798  -23.1014  -16.4908 C   0  0  0  0  0  0  0  0  0  0  0  0
   25.7567  -22.8351  -17.5364 C   0  0  0  0  0  0  0  0  0  0  0  0
   24.6198  -21.9586  -17.1055 C   0  0  0  0  0  0  0  0  0  0  0  0
   23.6100  -21.8031  -18.2243 C   0  0  0  0  0  0  0  0  0  0  0  0
   22.6143  -20.8172  -17.8499 N   0  0  0  0  0  0  0  0  0  0  0  0
   29.1066  -22.8353  -17.0271 C   0  0  0  0  0  0  0  0  0  0  0  0
   29.6465  -22.2184  -17.9913 O   0  0  0  0  0  0  0  0  0  0  0  0
   33.6057  -26.3580  -14.7589 N   0  0  0  0  0  0  0  0  0  0  0  0
   34.1125  -25.3376  -15.6379 C   0  0  0  0  0  0  0  0  0  0  0  0
   35.3460  -25.2454  -15.7434 O   0  0  0  0  0  0  0  0  0  0  0  0
   33.1582  -24.4706  -16.3529 C   0  0  0  0  0  0  0  0  0  0  0  0
   31.7627  -24.8899  -16.0678 C   0  0  0  0  0  0  0  0  0  0  0  0
   30.7333  -24.7113  -17.1180 C   0  0  2  0  0  0  0  0  0  0  0  0
   29.5387  -24.0649  -16.5258 N   0  0  0  0  0  0  0  0  0  0  0  0
   30.2569  -25.9636  -17.7261 C   0  0  0  0  0  0  0  0  0  0  0  0
   29.4571  -26.7614  -17.1064 O   0  0  0  0  0  0  0  0  0  0  0  0
   30.8959  -26.8681  -21.7230 O   0  0  0  0  0  0  0  0  0  0  0  0
   29.7647  -27.3657  -21.0874 C   0  0  0  0  0  0  0  0  0  0  0  0
   30.0702  -27.6040  -19.6147 C   0  0  2  0  0  0  0  0  0  0  0  0
   30.6202  -26.3883  -19.0127 N   0  0  0  0  0  0  0  0  0  0  0  0
   31.0980  -28.6524  -19.5534 C   0  0  0  0  0  0  0  0  0  0  0  0
   32.3687  -28.4381  -19.0740 O   0  0  0  0  0  0  0  0  0  0  0  0
   30.7613  -29.8018  -19.9725 O   0  0  0  0  0  0  0  0  0  0  0  0
  2  1  1  6
  3  2  1  0
  4  3  1  0
  5  6  1  0
  5  4  1  0
  7  6  1  0
  8  2  1  0
  8  9  2  0
 10 11  1  0
 11 13  1  0
 11 12  2  0
 13 14  1  0
 15 14  1  1
 16 15  1  0
 16  8  1  0
 17 18  2  0
 17 15  1  0
 20 19  1  0
 21 20  1  6
 21 22  1  0
 22 17  1  0
 23 21  1  0
 23 24  1  0
 25 23  2  0
M  END
$$$$
