KQS.pdb
     RDKit          3D

 25 24  0  0  1  0  0  0  0  0999 V2000
   17.6503  -11.9856  -17.4634 N   0  0  0  0  0  0  0  0  0  0  0  0
   18.8388  -11.5954  -16.8077 C   0  0  1  0  0  0  0  0  0  0  0  0
   20.0135  -11.3395  -17.6961 C   0  0  0  0  0  0  0  0  0  0  0  0
   20.4846  -12.5010  -18.4959 C   0  0  0  0  0  0  0  0  0  0  0  0
   21.2984  -13.5067  -17.7391 C   0  0  0  0  0  0  0  0  0  0  0  0
   21.7541  -14.6247  -18.6546 C   0  0  0  0  0  0  0  0  0  0  0  0
   20.6630  -15.5560  -18.8686 N   0  0  0  0  0  0  0  0  0  0  0  0
   18.5637  -10.2855  -16.0963 C   0  0  0  0  0  0  0  0  0  0  0  0
   17.8317   -9.4834  -16.7464 O   0  0  0  0  0  0  0  0  0  0  0  0
   16.7599   -9.5566  -10.6751 N   0  0  0  0  0  0  0  0  0  0  0  0
   17.1366   -8.1756  -10.8227 C   0  0  0  0  0  0  0  0  0  0  0  0
   16.7944   -7.3976   -9.9179 O   0  0  0  0  0  0  0  0  0  0  0  0
   17.8941   -7.7646  -12.0189 C   0  0  0  0  0  0  0  0  0  0  0  0
   18.1415   -8.9320  -12.9024 C   0  0  0  0  0  0  0  0  0  0  0  0
   18.8466   -8.7198  -14.1878 C   0  0  2  0  0  0  0  0  0  0  0  0
   19.0956  -10.0315  -14.8304 N   0  0  0  0  0  0  0  0  0  0  0  0
   20.1623   -8.0729  -14.0637 C   0  0  0  0  0  0  0  0  0  0  0  0
   21.2232   -8.7382  -13.7600 O   0  0  0  0  0  0  0  0  0  0  0  0
   22.6232   -6.9070  -16.2308 O   0  0  0  0  0  0  0  0  0  0  0  0
   22.2070   -5.7506  -15.5821 C   0  0  0  0  0  0  0  0  0  0  0  0
   21.7069   -6.1002  -14.1869 C   0  0  2  0  0  0  0  0  0  0  0  0
   20.3745   -6.7014  -14.2670 N   0  0  0  0  0  0  0  0  0  0  0  0
   21.5976   -4.8389  -13.4412 C   0  0  0  0  0  0  0  0  0  0  0  0
   22.6823   -4.1683  -12.9272 O   0  0  0  0  0  0  0  0  0  0  0  0
   20.4278   -4.3736  -13.2821 O   0  0  0  0  0  0  0  0  0  0  0  0
  2  1  1  6
  3  2  1  0
  4  3  1  0
  5  6  1  0
  5  4  1  0
  7  6  1  0
  8  2  1  0
  8  9  2  0
 10 11  1  0
 11 13  1  0
 11 12  2  0
 13 14  1  0
 15 14  1  1
 16 15  1  0
 16  8  1  0
 17 18  2  0
 17 15  1  0
 20 19  1  0
 21 20  1  6
 21 22  1  0
 22 17  1  0
 23 21  1  0
 23 24  1  0
 25 23  2  0
M  END
$$$$
