KQS.pdb
     RDKit          3D

 25 24  0  0  1  0  0  0  0  0999 V2000
   13.9299  -12.8499  -12.4454 N   0  0  0  0  0  0  0  0  0  0  0  0
   15.1353  -12.2131  -12.8141 C   0  0  1  0  0  0  0  0  0  0  0  0
   15.3687  -12.0713  -14.2838 C   0  0  0  0  0  0  0  0  0  0  0  0
   15.9108  -13.2730  -14.9715 C   0  0  0  0  0  0  0  0  0  0  0  0
   16.0857  -13.1334  -16.4535 C   0  0  0  0  0  0  0  0  0  0  0  0
   16.5842  -14.4301  -17.0582 C   0  0  0  0  0  0  0  0  0  0  0  0
   16.6826  -14.2911  -18.4985 N   0  0  0  0  0  0  0  0  0  0  0  0
   15.0984  -10.8019  -12.2619 C   0  0  0  0  0  0  0  0  0  0  0  0
   13.9471  -10.2763  -12.2523 O   0  0  0  0  0  0  0  0  0  0  0  0
   14.3910   -7.7961   -8.6963 N   0  0  0  0  0  0  0  0  0  0  0  0
   15.5234   -6.9082   -8.6880 C   0  0  0  0  0  0  0  0  0  0  0  0
   15.3730   -5.8072   -8.1346 O   0  0  0  0  0  0  0  0  0  0  0  0
   16.7790   -7.3440   -9.3261 C   0  0  0  0  0  0  0  0  0  0  0  0
   16.6079   -8.6818   -9.9470 C   0  0  0  0  0  0  0  0  0  0  0  0
   16.2054   -8.7639  -11.3703 C   0  0  2  0  0  0  0  0  0  0  0  0
   16.2637  -10.1766  -11.8135 N   0  0  0  0  0  0  0  0  0  0  0  0
   17.0701   -8.0132  -12.2943 C   0  0  0  0  0  0  0  0  0  0  0  0
   18.2810   -8.3772  -12.5425 O   0  0  0  0  0  0  0  0  0  0  0  0
   15.5994   -6.0507  -15.2741 O   0  0  0  0  0  0  0  0  0  0  0  0
   16.9799   -6.2052  -15.3146 C   0  0  0  0  0  0  0  0  0  0  0  0
   17.5417   -6.1450  -13.9004 C   0  0  2  0  0  0  0  0  0  0  0  0
   16.6579   -6.8599  -12.9781 N   0  0  0  0  0  0  0  0  0  0  0  0
   17.5668   -4.7292  -13.5081 C   0  0  0  0  0  0  0  0  0  0  0  0
   18.3218   -3.7790  -14.1542 O   0  0  0  0  0  0  0  0  0  0  0  0
   16.8430   -4.4021  -12.5185 O   0  0  0  0  0  0  0  0  0  0  0  0
  2  1  1  6
  3  2  1  0
  4  3  1  0
  5  6  1  0
  5  4  1  0
  7  6  1  0
  8  2  1  0
  8  9  2  0
 10 11  1  0
 11 13  1  0
 11 12  2  0
 13 14  1  0
 15 14  1  1
 16 15  1  0
 16  8  1  0
 17 18  2  0
 17 15  1  0
 20 19  1  0
 21 20  1  6
 21 22  1  0
 22 17  1  0
 23 21  1  0
 23 24  1  0
 25 23  2  0
M  END
$$$$
