KQS.pdb
     RDKit          3D

 25 24  0  0  1  0  0  0  0  0999 V2000
   28.8080  -20.7476  -16.8802 N   0  0  0  0  0  0  0  0  0  0  0  0
   28.0239  -19.7245  -16.3031 C   0  0  1  0  0  0  0  0  0  0  0  0
   27.1521  -18.9652  -17.2508 C   0  0  0  0  0  0  0  0  0  0  0  0
   26.7541  -19.6907  -18.4861 C   0  0  0  0  0  0  0  0  0  0  0  0
   26.0403  -18.8605  -19.5097 C   0  0  0  0  0  0  0  0  0  0  0  0
   25.7051  -19.6899  -20.7326 C   0  0  0  0  0  0  0  0  0  0  0  0
   25.0143  -18.8667  -21.7066 N   0  0  0  0  0  0  0  0  0  0  0  0
   27.0853  -20.3714  -15.3039 C   0  0  0  0  0  0  0  0  0  0  0  0
   26.7064  -21.5359  -15.6236 O   0  0  0  0  0  0  0  0  0  0  0  0
   26.8061  -21.9669  -10.5058 N   0  0  0  0  0  0  0  0  0  0  0  0
   25.5221  -21.4391  -10.1268 C   0  0  0  0  0  0  0  0  0  0  0  0
   24.8741  -22.0814   -9.2851 O   0  0  0  0  0  0  0  0  0  0  0  0
   25.0519  -20.1871  -10.7473 C   0  0  0  0  0  0  0  0  0  0  0  0
   25.9668  -19.7753  -11.8418 C   0  0  0  0  0  0  0  0  0  0  0  0
   25.7819  -20.3640  -13.1885 C   0  0  2  0  0  0  0  0  0  0  0  0
   26.7001  -19.6987  -14.1425 N   0  0  0  0  0  0  0  0  0  0  0  0
   24.4302  -20.2012  -13.7464 C   0  0  0  0  0  0  0  0  0  0  0  0
   24.0349  -19.0886  -14.2623 O   0  0  0  0  0  0  0  0  0  0  0  0
   20.3203  -22.1427  -15.3872 O   0  0  0  0  0  0  0  0  0  0  0  0
   21.6416  -22.3024  -14.9873 C   0  0  0  0  0  0  0  0  0  0  0  0
   22.1310  -21.0238  -14.3205 C   0  0  2  0  0  0  0  0  0  0  0  0
   23.4725  -21.2259  -13.7707 N   0  0  0  0  0  0  0  0  0  0  0  0
   21.2154  -20.7429  -13.2061 C   0  0  0  0  0  0  0  0  0  0  0  0
   19.9394  -20.2609  -13.3794 O   0  0  0  0  0  0  0  0  0  0  0  0
   21.6576  -20.9679  -12.0383 O   0  0  0  0  0  0  0  0  0  0  0  0
  2  1  1  6
  3  2  1  0
  4  3  1  0
  5  6  1  0
  5  4  1  0
  7  6  1  0
  8  2  1  0
  8  9  2  0
 10 11  1  0
 11 13  1  0
 11 12  2  0
 13 14  1  0
 15 14  1  1
 16 15  1  0
 16  8  1  0
 17 18  2  0
 17 15  1  0
 20 19  1  0
 21 20  1  1
 21 22  1  0
 22 17  1  0
 23 21  1  0
 23 24  1  0
 25 23  2  0
M  END
$$$$
