KQS.pdb
     RDKit          3D

 25 24  0  0  1  0  0  0  0  0999 V2000
   21.7228  -22.3325  -14.9178 N   0  0  0  0  0  0  0  0  0  0  0  0
   21.0997  -21.1211  -14.5452 C   0  0  1  0  0  0  0  0  0  0  0  0
   20.5022  -21.0958  -13.1752 C   0  0  0  0  0  0  0  0  0  0  0  0
   19.6901  -22.2840  -12.8017 C   0  0  0  0  0  0  0  0  0  0  0  0
   19.7486  -22.6650  -11.3532 C   0  0  0  0  0  0  0  0  0  0  0  0
   18.7038  -23.7145  -11.0332 C   0  0  0  0  0  0  0  0  0  0  0  0
   18.7888  -24.0765   -9.6313 N   0  0  0  0  0  0  0  0  0  0  0  0
   22.1581  -20.0361  -14.5563 C   0  0  0  0  0  0  0  0  0  0  0  0
   21.7688  -18.9240  -14.0944 O   0  0  0  0  0  0  0  0  0  0  0  0
   27.6165  -19.9090  -12.4701 N   0  0  0  0  0  0  0  0  0  0  0  0
   27.4944  -20.8730  -13.5315 C   0  0  0  0  0  0  0  0  0  0  0  0
   28.3528  -21.7682  -13.5822 O   0  0  0  0  0  0  0  0  0  0  0  0
   26.3776  -20.7484  -14.4860 C   0  0  0  0  0  0  0  0  0  0  0  0
   25.5696  -19.5400  -14.1837 C   0  0  0  0  0  0  0  0  0  0  0  0
   24.4378  -19.1949  -15.0750 C   0  0  2  0  0  0  0  0  0  0  0  0
   23.4410  -20.2909  -15.0452 N   0  0  0  0  0  0  0  0  0  0  0  0
   24.8048  -19.0192  -16.4890 C   0  0  0  0  0  0  0  0  0  0  0  0
   24.7646  -19.9945  -17.3301 O   0  0  0  0  0  0  0  0  0  0  0  0
   25.2218  -15.3271  -18.1646 O   0  0  0  0  0  0  0  0  0  0  0  0
   24.9918  -16.3909  -19.0286 C   0  0  0  0  0  0  0  0  0  0  0  0
   25.5947  -17.6617  -18.4450 C   0  0  2  0  0  0  0  0  0  0  0  0
   25.2177  -17.7957  -17.0369 N   0  0  0  0  0  0  0  0  0  0  0  0
   27.0551  -17.5170  -18.5177 C   0  0  0  0  0  0  0  0  0  0  0  0
   27.8643  -17.4507  -17.4081 O   0  0  0  0  0  0  0  0  0  0  0  0
   27.5615  -17.4531  -19.6794 O   0  0  0  0  0  0  0  0  0  0  0  0
  2  1  1  1
  3  2  1  0
  4  3  1  0
  5  6  1  0
  5  4  1  0
  7  6  1  0
  8  2  1  0
  8  9  2  0
 10 11  1  0
 11 13  1  0
 11 12  2  0
 13 14  1  0
 15 14  1  1
 16 15  1  0
 16  8  1  0
 17 18  2  0
 17 15  1  0
 20 19  1  0
 21 20  1  1
 21 22  1  0
 22 17  1  0
 23 21  1  0
 23 24  1  0
 25 23  2  0
M  END
$$$$
