KQS.pdb
     RDKit          3D

 25 24  0  0  1  0  0  0  0  0999 V2000
   14.8890  -26.3182   -1.7164 N   0  0  0  0  0  0  0  0  0  0  0  0
   15.5992  -25.9462   -2.8791 C   0  0  1  0  0  0  0  0  0  0  0  0
   16.3438  -27.0477   -3.5625 C   0  0  0  0  0  0  0  0  0  0  0  0
   17.6409  -27.4314   -2.9453 C   0  0  0  0  0  0  0  0  0  0  0  0
   17.6439  -27.4776   -1.4471 C   0  0  0  0  0  0  0  0  0  0  0  0
   19.0073  -27.8850   -0.9268 C   0  0  0  0  0  0  0  0  0  0  0  0
   19.0097  -27.8414    0.5229 N   0  0  0  0  0  0  0  0  0  0  0  0
   14.5920  -25.4364   -3.8908 C   0  0  0  0  0  0  0  0  0  0  0  0
   13.5190  -26.1057   -3.9401 O   0  0  0  0  0  0  0  0  0  0  0  0
   11.6427  -19.4295   -4.9528 N   0  0  0  0  0  0  0  0  0  0  0  0
   11.5603  -20.8025   -4.5300 C   0  0  0  0  0  0  0  0  0  0  0  0
   11.0640  -21.0203   -3.4133 O   0  0  0  0  0  0  0  0  0  0  0  0
   12.0614  -21.8589   -5.4282 C   0  0  0  0  0  0  0  0  0  0  0  0
   13.1422  -22.6326   -4.7664 C   0  0  0  0  0  0  0  0  0  0  0  0
   13.7960  -23.7318   -5.5139 C   0  0  2  0  0  0  0  0  0  0  0  0
   14.8708  -24.3181   -4.6791 N   0  0  0  0  0  0  0  0  0  0  0  0
   14.4391  -23.3182   -6.7709 C   0  0  0  0  0  0  0  0  0  0  0  0
   15.6414  -22.8558   -6.8017 O   0  0  0  0  0  0  0  0  0  0  0  0
   12.9248  -24.4665  -10.2889 O   0  0  0  0  0  0  0  0  0  0  0  0
   14.2466  -24.0410  -10.3449 C   0  0  0  0  0  0  0  0  0  0  0  0
   14.4948  -23.0027   -9.2589 C   0  0  2  0  0  0  0  0  0  0  0  0
   13.8134  -23.3949   -8.0240 N   0  0  0  0  0  0  0  0  0  0  0  0
   13.9054  -21.7411   -9.7279 C   0  0  0  0  0  0  0  0  0  0  0  0
   14.3435  -21.0719  -10.8463 O   0  0  0  0  0  0  0  0  0  0  0  0
   12.9454  -21.2741   -9.0420 O   0  0  0  0  0  0  0  0  0  0  0  0
  2  1  1  1
  3  2  1  0
  4  3  1  0
  5  6  1  0
  5  4  1  0
  7  6  1  0
  8  2  1  0
  8  9  2  0
 10 11  1  0
 11 13  1  0
 11 12  2  0
 13 14  1  0
 15 14  1  1
 16 15  1  0
 16  8  1  0
 17 18  2  0
 17 15  1  0
 20 19  1  0
 21 20  1  6
 21 22  1  0
 22 17  1  0
 23 21  1  0
 23 24  1  0
 25 23  2  0
M  END
$$$$
