KQS.pdb
     RDKit          3D

 25 24  0  0  1  0  0  0  0  0999 V2000
   11.3929  -16.2752    1.9981 N   0  0  0  0  0  0  0  0  0  0  0  0
   12.5617  -16.1116    2.7738 C   0  0  1  0  0  0  0  0  0  0  0  0
   12.3800  -15.3984    4.0750 C   0  0  0  0  0  0  0  0  0  0  0  0
   12.1462  -13.9330    3.9821 C   0  0  0  0  0  0  0  0  0  0  0  0
   10.7244  -13.5017    4.1796 C   0  0  0  0  0  0  0  0  0  0  0  0
   10.5929  -12.0009    4.0182 C   0  0  0  0  0  0  0  0  0  0  0  0
    9.2158  -11.6045    4.2421 N   0  0  0  0  0  0  0  0  0  0  0  0
   13.0778  -17.4926    3.1263 C   0  0  0  0  0  0  0  0  0  0  0  0
   12.1861  -18.3903    3.1547 O   0  0  0  0  0  0  0  0  0  0  0  0
   16.9754  -20.8318    0.5107 N   0  0  0  0  0  0  0  0  0  0  0  0
   17.4340  -19.5123    0.8561 C   0  0  0  0  0  0  0  0  0  0  0  0
   18.3653  -19.0442    0.1819 O   0  0  0  0  0  0  0  0  0  0  0  0
   16.7867  -18.7993    1.9725 C   0  0  0  0  0  0  0  0  0  0  0  0
   15.6542  -19.5956    2.5092 C   0  0  0  0  0  0  0  0  0  0  0  0
   14.9080  -19.0792    3.6801 C   0  0  2  0  0  0  0  0  0  0  0  0
   14.4324  -17.7063    3.3892 N   0  0  0  0  0  0  0  0  0  0  0  0
   15.7013  -18.9802    4.9153 C   0  0  0  0  0  0  0  0  0  0  0  0
   16.4345  -17.9527    5.1742 O   0  0  0  0  0  0  0  0  0  0  0  0
   14.5529  -20.1374    8.3633 O   0  0  0  0  0  0  0  0  0  0  0  0
   15.7124  -19.3761    8.2775 C   0  0  0  0  0  0  0  0  0  0  0  0
   16.5544  -19.8594    7.1043 C   0  0  2  0  0  0  0  0  0  0  0  0
   15.7242  -19.9748    5.9042 N   0  0  0  0  0  0  0  0  0  0  0  0
   17.0474  -21.1991    7.4524 C   0  0  0  0  0  0  0  0  0  0  0  0
   17.8267  -21.4546    8.5560 O   0  0  0  0  0  0  0  0  0  0  0  0
   16.7182  -22.1448    6.6730 O   0  0  0  0  0  0  0  0  0  0  0  0
  2  1  1  1
  3  2  1  0
  4  3  1  0
  5  6  1  0
  5  4  1  0
  7  6  1  0
  8  2  1  0
  8  9  2  0
 10 11  1  0
 11 13  1  0
 11 12  2  0
 13 14  1  0
 15 14  1  6
 16 15  1  0
 16  8  1  0
 17 18  2  0
 17 15  1  0
 20 19  1  0
 21 20  1  1
 21 22  1  0
 22 17  1  0
 23 21  1  0
 23 24  1  0
 25 23  2  0
M  END
$$$$
