KQS.pdb
     RDKit          3D

 25 24  0  0  1  0  0  0  0  0999 V2000
   20.7396  -14.3045  -18.8418 N   0  0  0  0  0  0  0  0  0  0  0  0
   19.9708  -14.0801  -17.6785 C   0  0  1  0  0  0  0  0  0  0  0  0
   19.5784  -15.3048  -16.9163 C   0  0  0  0  0  0  0  0  0  0  0  0
   19.0630  -16.4364  -17.7316 C   0  0  0  0  0  0  0  0  0  0  0  0
   18.6314  -17.6397  -16.9491 C   0  0  0  0  0  0  0  0  0  0  0  0
   18.0459  -18.6933  -17.8671 C   0  0  0  0  0  0  0  0  0  0  0  0
   17.6060  -19.8327  -17.0846 N   0  0  0  0  0  0  0  0  0  0  0  0
   20.8080  -13.2494  -16.7262 C   0  0  0  0  0  0  0  0  0  0  0  0
   20.3038  -13.1124  -15.5735 O   0  0  0  0  0  0  0  0  0  0  0  0
   26.7875  -12.1508  -17.2278 N   0  0  0  0  0  0  0  0  0  0  0  0
   26.5089  -11.1290  -16.2536 C   0  0  0  0  0  0  0  0  0  0  0  0
   27.4674  -10.4412  -15.8675 O   0  0  0  0  0  0  0  0  0  0  0  0
   25.1257  -10.9565  -15.7734 C   0  0  0  0  0  0  0  0  0  0  0  0
   24.1995  -11.8324  -16.5346 C   0  0  0  0  0  0  0  0  0  0  0  0
   22.7522  -11.7868  -16.2218 C   0  0  2  0  0  0  0  0  0  0  0  0
   22.0266  -12.7025  -17.1332 N   0  0  0  0  0  0  0  0  0  0  0  0
   22.1305  -10.4647  -16.3962 C   0  0  0  0  0  0  0  0  0  0  0  0
   22.0223   -9.9095  -17.5539 O   0  0  0  0  0  0  0  0  0  0  0  0
   19.1451   -8.9630  -14.2440 O   0  0  0  0  0  0  0  0  0  0  0  0
   19.5326   -8.4126  -15.4598 C   0  0  0  0  0  0  0  0  0  0  0  0
   21.0527   -8.3683  -15.5383 C   0  0  2  0  0  0  0  0  0  0  0  0
   21.6053   -9.7089  -15.3376 N   0  0  0  0  0  0  0  0  0  0  0  0
   21.5149   -7.5115  -14.4377 C   0  0  0  0  0  0  0  0  0  0  0  0
   21.2214   -6.1712  -14.3488 O   0  0  0  0  0  0  0  0  0  0  0  0
   22.2185   -8.0698  -13.5414 O   0  0  0  0  0  0  0  0  0  0  0  0
  2  1  1  6
  3  2  1  0
  4  3  1  0
  5  6  1  0
  5  4  1  0
  7  6  1  0
  8  2  1  0
  8  9  2  0
 10 11  1  0
 11 13  1  0
 11 12  2  0
 13 14  1  0
 15 14  1  6
 16 15  1  0
 16  8  1  0
 17 18  2  0
 17 15  1  0
 20 19  1  0
 21 20  1  1
 21 22  1  0
 22 17  1  0
 23 21  1  0
 23 24  1  0
 25 23  2  0
M  END
$$$$
