KQS.pdb
     RDKit          3D

 25 24  0  0  1  0  0  0  0  0999 V2000
   19.1767  -11.8172  -16.4570 N   0  0  0  0  0  0  0  0  0  0  0  0
   19.3563  -10.6845  -17.2812 C   0  0  1  0  0  0  0  0  0  0  0  0
   18.1567  -10.2578  -18.0645 C   0  0  0  0  0  0  0  0  0  0  0  0
   17.6742  -11.2242  -19.0863 C   0  0  0  0  0  0  0  0  0  0  0  0
   16.4584  -10.7907  -19.8482 C   0  0  0  0  0  0  0  0  0  0  0  0
   16.0520  -11.8482  -20.8543 C   0  0  0  0  0  0  0  0  0  0  0  0
   15.7281  -13.0813  -20.1628 N   0  0  0  0  0  0  0  0  0  0  0  0
   19.7045   -9.5129  -16.3847 C   0  0  0  0  0  0  0  0  0  0  0  0
   19.1740   -9.5599  -15.2366 O   0  0  0  0  0  0  0  0  0  0  0  0
   21.6425   -7.2570  -12.9466 N   0  0  0  0  0  0  0  0  0  0  0  0
   22.4605   -6.1878  -13.4548 C   0  0  0  0  0  0  0  0  0  0  0  0
   22.7838   -5.2955  -12.6546 O   0  0  0  0  0  0  0  0  0  0  0  0
   22.8632   -6.2071  -14.8729 C   0  0  0  0  0  0  0  0  0  0  0  0
   22.2749   -7.3827  -15.5630 C   0  0  0  0  0  0  0  0  0  0  0  0
   20.8418   -7.3496  -15.9371 C   0  0  2  0  0  0  0  0  0  0  0  0
   20.5447   -8.4917  -16.8332 N   0  0  0  0  0  0  0  0  0  0  0  0
   20.4291   -6.1419  -16.6693 C   0  0  0  0  0  0  0  0  0  0  0  0
   20.8308   -5.9017  -17.8698 O   0  0  0  0  0  0  0  0  0  0  0  0
   17.5195   -2.2732  -17.0362 O   0  0  0  0  0  0  0  0  0  0  0  0
   17.9578   -3.3309  -16.2485 C   0  0  0  0  0  0  0  0  0  0  0  0
   19.1673   -3.9864  -16.9016 C   0  0  2  0  0  0  0  0  0  0  0  0
   19.5729   -5.1667  -16.1367 N   0  0  0  0  0  0  0  0  0  0  0  0
   20.2636   -3.0091  -16.8539 C   0  0  0  0  0  0  0  0  0  0  0  0
   20.5571   -2.1515  -17.8878 O   0  0  0  0  0  0  0  0  0  0  0  0
   20.9539   -2.9827  -15.7896 O   0  0  0  0  0  0  0  0  0  0  0  0
  2  1  1  1
  3  2  1  0
  4  3  1  0
  5  6  1  0
  5  4  1  0
  7  6  1  0
  8  2  1  0
  8  9  2  0
 10 11  1  0
 11 13  1  0
 11 12  2  0
 13 14  1  0
 15 14  1  6
 16 15  1  0
 16  8  1  0
 17 18  2  0
 17 15  1  0
 20 19  1  0
 21 20  1  1
 21 22  1  0
 22 17  1  0
 23 21  1  0
 23 24  1  0
 25 23  2  0
M  END
$$$$
