KQS.pdb
     RDKit          3D

 25 24  0  0  1  0  0  0  0  0999 V2000
   13.1945  -12.2340  -12.4514 N   0  0  0  0  0  0  0  0  0  0  0  0
   14.4837  -11.7776  -12.8042 C   0  0  1  0  0  0  0  0  0  0  0  0
   14.8883  -12.0159  -14.2235 C   0  0  0  0  0  0  0  0  0  0  0  0
   15.1131  -13.4361  -14.6021 C   0  0  0  0  0  0  0  0  0  0  0  0
   16.4692  -13.9777  -14.2642 C   0  0  0  0  0  0  0  0  0  0  0  0
   16.6244  -15.3933  -14.7817 C   0  0  0  0  0  0  0  0  0  0  0  0
   17.9599  -15.8768  -14.4880 N   0  0  0  0  0  0  0  0  0  0  0  0
   14.5085  -10.2741  -12.6127 C   0  0  0  0  0  0  0  0  0  0  0  0
   13.4813   -9.6766  -13.0480 O   0  0  0  0  0  0  0  0  0  0  0  0
   15.2752   -7.5657   -7.6996 N   0  0  0  0  0  0  0  0  0  0  0  0
   15.4170   -6.3568   -8.4673 C   0  0  0  0  0  0  0  0  0  0  0  0
   15.3833   -5.2846   -7.8427 O   0  0  0  0  0  0  0  0  0  0  0  0
   15.5904   -6.4533   -9.9282 C   0  0  0  0  0  0  0  0  0  0  0  0
   15.5433   -7.8721  -10.3633 C   0  0  0  0  0  0  0  0  0  0  0  0
   15.5751   -8.1775  -11.8126 C   0  0  2  0  0  0  0  0  0  0  0  0
   15.5962   -9.6470  -12.0015 N   0  0  0  0  0  0  0  0  0  0  0  0
   16.7571   -7.6608  -12.5203 C   0  0  0  0  0  0  0  0  0  0  0  0
   17.8925   -8.2691  -12.4855 O   0  0  0  0  0  0  0  0  0  0  0  0
   16.4771   -5.8408  -15.8974 O   0  0  0  0  0  0  0  0  0  0  0  0
   17.7417   -6.2702  -15.5134 C   0  0  0  0  0  0  0  0  0  0  0  0
   17.9310   -6.0298  -14.0216 C   0  0  2  0  0  0  0  0  0  0  0  0
   16.7504   -6.4854  -13.2857 N   0  0  0  0  0  0  0  0  0  0  0  0
   18.0578   -4.5781  -13.8331 C   0  0  0  0  0  0  0  0  0  0  0  0
   19.1251   -3.8460  -14.2973 O   0  0  0  0  0  0  0  0  0  0  0  0
   17.1165   -4.0033  -13.2058 O   0  0  0  0  0  0  0  0  0  0  0  0
  2  1  1  6
  3  2  1  0
  4  3  1  0
  5  6  1  0
  5  4  1  0
  7  6  1  0
  8  2  1  0
  8  9  2  0
 10 11  1  0
 11 13  1  0
 11 12  2  0
 13 14  1  0
 15 14  1  1
 16 15  1  0
 16  8  1  0
 17 18  2  0
 17 15  1  0
 20 19  1  0
 21 20  1  6
 21 22  1  0
 22 17  1  0
 23 21  1  0
 23 24  1  0
 25 23  2  0
M  END
$$$$
