KQS.pdb
     RDKit          3D

 25 24  0  0  1  0  0  0  0  0999 V2000
   28.2142  -20.9593  -15.9759 N   0  0  0  0  0  0  0  0  0  0  0  0
   27.3811  -19.9656  -15.4162 C   0  0  1  0  0  0  0  0  0  0  0  0
   27.0296  -18.8303  -16.3230 C   0  0  0  0  0  0  0  0  0  0  0  0
   28.1786  -18.0741  -16.8877 C   0  0  0  0  0  0  0  0  0  0  0  0
   28.2668  -18.0744  -18.3840 C   0  0  0  0  0  0  0  0  0  0  0  0
   29.4070  -17.1938  -18.8531 C   0  0  0  0  0  0  0  0  0  0  0  0
   29.5010  -17.2459  -20.2995 N   0  0  0  0  0  0  0  0  0  0  0  0
   26.0663  -20.6222  -15.0449 C   0  0  0  0  0  0  0  0  0  0  0  0
   25.8502  -21.7232  -15.6305 O   0  0  0  0  0  0  0  0  0  0  0  0
   25.7850  -21.7770   -9.0807 N   0  0  0  0  0  0  0  0  0  0  0  0
   24.8515  -21.1650   -9.9889 C   0  0  0  0  0  0  0  0  0  0  0  0
   23.8593  -20.6109   -9.4896 O   0  0  0  0  0  0  0  0  0  0  0  0
   25.1170  -21.2281  -11.4377 C   0  0  0  0  0  0  0  0  0  0  0  0
   23.9363  -20.7530  -12.2024 C   0  0  0  0  0  0  0  0  0  0  0  0
   23.9928  -20.7589  -13.6827 C   0  0  2  0  0  0  0  0  0  0  0  0
   25.1996  -20.0236  -14.1282 N   0  0  0  0  0  0  0  0  0  0  0  0
   22.8522  -20.1023  -14.3405 C   0  0  0  0  0  0  0  0  0  0  0  0
   22.7701  -18.8205  -14.4437 O   0  0  0  0  0  0  0  0  0  0  0  0
   21.5874  -20.1254  -17.6678 O   0  0  0  0  0  0  0  0  0  0  0  0
   20.4610  -20.5124  -16.9518 C   0  0  0  0  0  0  0  0  0  0  0  0
   20.6231  -20.1138  -15.4910 C   0  0  2  0  0  0  0  0  0  0  0  0
   21.7765  -20.8013  -14.9080 N   0  0  0  0  0  0  0  0  0  0  0  0
   19.4152  -20.5645  -14.7862 C   0  0  0  0  0  0  0  0  0  0  0  0
   19.4246  -21.5425  -13.8198 O   0  0  0  0  0  0  0  0  0  0  0  0
   18.3256  -20.0012  -15.1110 O   0  0  0  0  0  0  0  0  0  0  0  0
  2  1  1  6
  3  2  1  0
  4  3  1  0
  5  6  1  0
  5  4  1  0
  7  6  1  0
  8  2  1  0
  8  9  2  0
 10 11  1  0
 11 13  1  0
 11 12  2  0
 13 14  1  0
 15 14  1  1
 16 15  1  0
 16  8  1  0
 17 18  2  0
 17 15  1  0
 20 19  1  0
 21 20  1  6
 21 22  1  0
 22 17  1  0
 23 21  1  0
 23 24  1  0
 25 23  2  0
M  END
$$$$
