WEA.pdb
     RDKit          3D

 29 30  0  0  1  0  0  0  0  0999 V2000
   28.2676  -22.0578  -14.0125 N   0  0  0  0  0  0  0  0  0  0  0  0
   27.0487  -21.7414  -13.3800 C   0  0  1  0  0  0  0  0  0  0  0  0
   27.0786  -20.4673  -12.5834 C   0  0  0  0  0  0  0  0  0  0  0  0
   27.9225  -20.5436  -11.3547 C   0  0  0  0  0  0  0  0  0  0  0  0
   29.3061  -20.5698  -11.3351 C   0  0  0  0  0  0  0  0  0  0  0  0
   29.6764  -20.6576  -10.0604 N   0  0  0  0  0  0  0  0  0  0  0  0
   28.6064  -20.6909   -9.2302 C   0  0  0  0  0  0  0  0  0  0  0  0
   28.5386  -20.7714   -7.8544 C   0  0  0  0  0  0  0  0  0  0  0  0
   27.2749  -20.7771   -7.2895 C   0  0  0  0  0  0  0  0  0  0  0  0
   26.1519  -20.7050   -8.0834 C   0  0  0  0  0  0  0  0  0  0  0  0
   26.2498  -20.6263   -9.4459 C   0  0  0  0  0  0  0  0  0  0  0  0
   27.5142  -20.6190  -10.0439 C   0  0  0  0  0  0  0  0  0  0  0  0
   25.8657  -21.8139  -14.2748 C   0  0  0  0  0  0  0  0  0  0  0  0
   25.7729  -21.2968  -15.3910 O   0  0  0  0  0  0  0  0  0  0  0  0
   24.7563  -22.5442  -13.7857 N   0  0  0  0  0  0  0  0  0  0  0  0
   23.5949  -22.8988  -14.6510 C   0  0  1  0  0  0  0  0  0  0  0  0
   23.4568  -24.3467  -14.7067 C   0  0  0  0  0  0  0  0  0  0  0  0
   22.2842  -24.9337  -15.3812 C   0  0  0  0  0  0  0  0  0  0  0  0
   22.3610  -25.1513  -16.8286 C   0  0  0  0  0  0  0  0  0  0  0  0
   21.3266  -25.1435  -17.5313 O   0  0  0  0  0  0  0  0  0  0  0  0
   22.5208  -22.0532  -14.2063 C   0  0  0  0  0  0  0  0  0  0  0  0
   22.3070  -21.9172  -12.9427 O   0  0  0  0  0  0  0  0  0  0  0  0
   23.5743  -25.3771  -17.4868 O   0  0  0  0  0  0  0  0  0  0  0  0
   19.7895  -19.6981  -15.3924 C   0  0  0  0  0  0  0  0  0  0  0  0
   20.4345  -20.6545  -14.3849 C   0  0  2  0  0  0  0  0  0  0  0  0
   21.6078  -21.2806  -15.0005 N   0  0  0  0  0  0  0  0  0  0  0  0
   19.4943  -21.6682  -13.9327 C   0  0  0  0  0  0  0  0  0  0  0  0
   19.4854  -22.8096  -14.4185 O   0  0  0  0  0  0  0  0  0  0  0  0
   18.5764  -21.3826  -12.9399 O   0  0  0  0  0  0  0  0  0  0  0  0
  2  1  1  6
  2 13  1  0
  2  3  1  0
  3  4  1  0
  4 12  1  0
  5  4  2  0
  5  6  1  0
  6  7  1  0
  7  8  1  0
  8  9  2  0
 10  9  1  0
 11 10  2  0
 12  7  2  0
 12 11  1  0
 13 15  1  0
 14 13  2  0
 15 16  1  0
 16 17  1  1
 17 18  1  0
 19 20  2  0
 19 18  1  0
 21 22  2  0
 21 16  1  0
 23 19  1  0
 25 24  1  6
 25 27  1  0
 25 26  1  0
 26 21  1  0
 27 29  1  0
 28 27  2  0
M  END
$$$$
