WEA.pdb
     RDKit          3D

 29 30  0  0  1  0  0  0  0  0999 V2000
   26.1993  -18.7426   -9.1646 N   0  0  0  0  0  0  0  0  0  0  0  0
   26.2619  -20.0837   -9.5928 C   0  0  1  0  0  0  0  0  0  0  0  0
   26.0487  -21.0920   -8.4990 C   0  0  0  0  0  0  0  0  0  0  0  0
   26.6427  -20.6954   -7.1884 C   0  0  0  0  0  0  0  0  0  0  0  0
   25.9251  -20.3387   -6.0602 C   0  0  0  0  0  0  0  0  0  0  0  0
   26.8103  -20.0391   -5.1135 N   0  0  0  0  0  0  0  0  0  0  0  0
   28.0828  -20.1792   -5.5567 C   0  0  0  0  0  0  0  0  0  0  0  0
   29.2862  -19.9809   -4.9114 C   0  0  0  0  0  0  0  0  0  0  0  0
   30.4360  -20.2202   -5.6440 C   0  0  0  0  0  0  0  0  0  0  0  0
   30.3582  -20.6360   -6.9545 C   0  0  0  0  0  0  0  0  0  0  0  0
   29.1502  -20.8241   -7.5690 C   0  0  0  0  0  0  0  0  0  0  0  0
   27.9719  -20.5895   -6.8526 C   0  0  0  0  0  0  0  0  0  0  0  0
   25.4352  -20.3756  -10.7915 C   0  0  0  0  0  0  0  0  0  0  0  0
   24.3139  -19.9164  -11.0236 O   0  0  0  0  0  0  0  0  0  0  0  0
   26.0003  -21.2619  -11.7393 N   0  0  0  0  0  0  0  0  0  0  0  0
   25.6659  -21.1914  -13.1907 C   0  0  1  0  0  0  0  0  0  0  0  0
   26.7997  -21.6631  -13.9723 C   0  0  0  0  0  0  0  0  0  0  0  0
   26.6750  -21.7580  -15.4385 C   0  0  0  0  0  0  0  0  0  0  0  0
   27.8413  -22.2150  -16.1996 C   0  0  0  0  0  0  0  0  0  0  0  0
   27.6985  -22.8854  -17.2455 O   0  0  0  0  0  0  0  0  0  0  0  0
   24.3647  -21.7912  -13.3079 C   0  0  0  0  0  0  0  0  0  0  0  0
   24.1219  -22.8963  -12.6910 O   0  0  0  0  0  0  0  0  0  0  0  0
   29.1516  -21.9315  -15.8007 O   0  0  0  0  0  0  0  0  0  0  0  0
   20.8689  -21.2609  -14.6781 C   0  0  0  0  0  0  0  0  0  0  0  0
   22.0114  -22.1264  -14.1386 C   0  0  2  0  0  0  0  0  0  0  0  0
   23.2246  -21.3109  -14.0362 N   0  0  0  0  0  0  0  0  0  0  0  0
   22.2473  -23.2871  -14.9832 C   0  0  0  0  0  0  0  0  0  0  0  0
   23.2281  -23.3519  -15.7399 O   0  0  0  0  0  0  0  0  0  0  0  0
   21.3753  -24.3589  -14.9643 O   0  0  0  0  0  0  0  0  0  0  0  0
  2  1  1  1
  2 13  1  0
  2  3  1  0
  3  4  1  0
  4 12  1  0
  5  4  2  0
  5  6  1  0
  6  7  1  0
  7  8  1  0
  8  9  2  0
 10  9  1  0
 11 10  2  0
 12  7  2  0
 12 11  1  0
 13 15  1  0
 14 13  2  0
 15 16  1  0
 16 17  1  6
 17 18  1  0
 19 20  2  0
 19 18  1  0
 21 22  2  0
 21 16  1  0
 23 19  1  0
 25 24  1  6
 25 27  1  0
 25 26  1  0
 26 21  1  0
 27 29  1  0
 28 27  2  0
M  END
$$$$
