WEA.pdb
     RDKit          3D

 29 30  0  0  1  0  0  0  0  0999 V2000
   26.6030  -23.0676  -13.1659 N   0  0  0  0  0  0  0  0  0  0  0  0
   25.8296  -22.0238  -12.6198 C   0  0  1  0  0  0  0  0  0  0  0  0
   26.5654  -20.7218  -12.4721 C   0  0  0  0  0  0  0  0  0  0  0  0
   27.6175  -20.7399  -11.4136 C   0  0  0  0  0  0  0  0  0  0  0  0
   28.9559  -21.0242  -11.6211 C   0  0  0  0  0  0  0  0  0  0  0  0
   29.5574  -20.9556  -10.4365 N   0  0  0  0  0  0  0  0  0  0  0  0
   28.6842  -20.6393   -9.4502 C   0  0  0  0  0  0  0  0  0  0  0  0
   28.8831  -20.4628   -8.0963 C   0  0  0  0  0  0  0  0  0  0  0  0
   27.7734  -20.1296   -7.3390 C   0  0  0  0  0  0  0  0  0  0  0  0
   26.5383  -19.9863   -7.9308 C   0  0  0  0  0  0  0  0  0  0  0  0
   26.3708  -20.1678   -9.2766 C   0  0  0  0  0  0  0  0  0  0  0  0
   27.4748  -20.5054  -10.0663 C   0  0  0  0  0  0  0  0  0  0  0  0
   24.5058  -21.8476  -13.2694 C   0  0  0  0  0  0  0  0  0  0  0  0
   24.2141  -22.1927  -14.4174 O   0  0  0  0  0  0  0  0  0  0  0  0
   23.5037  -21.2258  -12.4868 N   0  0  0  0  0  0  0  0  0  0  0  0
   22.0806  -21.1574  -12.9268 C   0  0  1  0  0  0  0  0  0  0  0  0
   21.2224  -20.9817  -11.7645 C   0  0  0  0  0  0  0  0  0  0  0  0
   19.7616  -20.9065  -11.9516 C   0  0  0  0  0  0  0  0  0  0  0  0
   19.1230  -19.5906  -11.8571 C   0  0  0  0  0  0  0  0  0  0  0  0
   18.4096  -19.1587  -12.7889 O   0  0  0  0  0  0  0  0  0  0  0  0
   22.0687  -20.2277  -14.0232 C   0  0  0  0  0  0  0  0  0  0  0  0
   22.6525  -19.0866  -13.8888 O   0  0  0  0  0  0  0  0  0  0  0  0
   19.2781  -18.7635  -10.7398 O   0  0  0  0  0  0  0  0  0  0  0  0
   21.6430  -19.9030  -17.7123 C   0  0  0  0  0  0  0  0  0  0  0  0
   21.5404  -19.3053  -16.3059 C   0  0  2  0  0  0  0  0  0  0  0  0
   21.4860  -20.3925  -15.3249 N   0  0  0  0  0  0  0  0  0  0  0  0
   20.3765  -18.4425  -16.1755 C   0  0  0  0  0  0  0  0  0  0  0  0
   19.2706  -18.8897  -15.8353 O   0  0  0  0  0  0  0  0  0  0  0  0
   20.4739  -17.0878  -16.4302 O   0  0  0  0  0  0  0  0  0  0  0  0
  2  1  1  6
  2 13  1  0
  2  3  1  0
  3  4  1  0
  4 12  1  0
  5  4  2  0
  5  6  1  0
  6  7  1  0
  7  8  1  0
  8  9  2  0
 10  9  1  0
 11 10  2  0
 12  7  2  0
 12 11  1  0
 13 15  1  0
 14 13  2  0
 15 16  1  0
 16 17  1  1
 17 18  1  0
 19 20  2  0
 19 18  1  0
 21 22  2  0
 21 16  1  0
 23 19  1  0
 25 24  1  6
 25 27  1  0
 25 26  1  0
 26 21  1  0
 27 29  1  0
 28 27  2  0
M  END
$$$$
