WEA.pdb
     RDKit          3D

 29 30  0  0  1  0  0  0  0  0999 V2000
   16.0317  -16.5548    6.0593 N   0  0  0  0  0  0  0  0  0  0  0  0
   17.2462  -17.1799    6.4059 C   0  0  1  0  0  0  0  0  0  0  0  0
   18.4185  -16.7620    5.5635 C   0  0  0  0  0  0  0  0  0  0  0  0
   18.0604  -16.4314    4.1527 C   0  0  0  0  0  0  0  0  0  0  0  0
   17.5489  -17.3242    3.2272 C   0  0  0  0  0  0  0  0  0  0  0  0
   17.3804  -16.6538    2.0906 N   0  0  0  0  0  0  0  0  0  0  0  0
   17.7548  -15.3577    2.2144 C   0  0  0  0  0  0  0  0  0  0  0  0
   17.7404  -14.3265    1.2978 C   0  0  0  0  0  0  0  0  0  0  0  0
   18.1863  -13.0921    1.7376 C   0  0  0  0  0  0  0  0  0  0  0  0
   18.6196  -12.9245    3.0339 C   0  0  0  0  0  0  0  0  0  0  0  0
   18.6231  -13.9659    3.9214 C   0  0  0  0  0  0  0  0  0  0  0  0
   18.1781  -15.2247    3.5041 C   0  0  0  0  0  0  0  0  0  0  0  0
   17.5568  -17.1364    7.8575 C   0  0  0  0  0  0  0  0  0  0  0  0
   17.0644  -16.3571    8.6774 O   0  0  0  0  0  0  0  0  0  0  0  0
   18.5046  -18.0793    8.3220 N   0  0  0  0  0  0  0  0  0  0  0  0
   19.0634  -18.0293    9.7036 C   0  0  1  0  0  0  0  0  0  0  0  0
   18.6123  -19.1941   10.4508 C   0  0  0  0  0  0  0  0  0  0  0  0
   19.2415  -20.5030   10.1947 C   0  0  0  0  0  0  0  0  0  0  0  0
   18.8724  -21.6249   11.0626 C   0  0  0  0  0  0  0  0  0  0  0  0
   17.8170  -22.2656   10.8640 O   0  0  0  0  0  0  0  0  0  0  0  0
   20.4600  -17.7329    9.5355 C   0  0  0  0  0  0  0  0  0  0  0  0
   21.0934  -18.2299    8.5292 O   0  0  0  0  0  0  0  0  0  0  0  0
   19.6671  -22.0284   12.1406 O   0  0  0  0  0  0  0  0  0  0  0  0
   23.2594  -15.4901   10.7001 C   0  0  0  0  0  0  0  0  0  0  0  0
   22.7296  -16.7761   10.0587 C   0  0  2  0  0  0  0  0  0  0  0  0
   21.3007  -16.9076   10.3559 N   0  0  0  0  0  0  0  0  0  0  0  0
   23.4573  -17.9457   10.5265 C   0  0  0  0  0  0  0  0  0  0  0  0
   22.9565  -18.7427   11.3344 O   0  0  0  0  0  0  0  0  0  0  0  0
   24.7392  -18.2016   10.0782 O   0  0  0  0  0  0  0  0  0  0  0  0
  2  1  1  1
  2 13  1  0
  2  3  1  0
  3  4  1  0
  4 12  1  0
  5  4  2  0
  5  6  1  0
  6  7  1  0
  7  8  1  0
  8  9  2  0
 10  9  1  0
 11 10  2  0
 12  7  2  0
 12 11  1  0
 13 15  1  0
 14 13  2  0
 15 16  1  0
 16 17  1  6
 17 18  1  0
 19 20  2  0
 19 18  1  0
 21 22  2  0
 21 16  1  0
 23 19  1  0
 25 24  1  1
 25 27  1  0
 25 26  1  0
 26 21  1  0
 27 29  1  0
 28 27  2  0
M  END
$$$$
