WEA.pdb
     RDKit          3D

 29 30  0  0  1  0  0  0  0  0999 V2000
   24.5385  -21.7318  -16.7327 N   0  0  0  0  0  0  0  0  0  0  0  0
   24.6314  -21.9674  -15.3464 C   0  0  1  0  0  0  0  0  0  0  0  0
   25.9411  -21.5542  -14.7360 C   0  0  0  0  0  0  0  0  0  0  0  0
   27.1359  -22.1044  -15.4414 C   0  0  0  0  0  0  0  0  0  0  0  0
   28.1708  -21.3516  -15.9680 C   0  0  0  0  0  0  0  0  0  0  0  0
   29.0276  -22.2027  -16.5258 N   0  0  0  0  0  0  0  0  0  0  0  0
   28.6133  -23.4860  -16.3960 C   0  0  0  0  0  0  0  0  0  0  0  0
   29.1939  -24.6648  -16.8171 C   0  0  0  0  0  0  0  0  0  0  0  0
   28.5181  -25.8359  -16.5208 C   0  0  0  0  0  0  0  0  0  0  0  0
   27.3234  -25.8019  -15.8368 C   0  0  0  0  0  0  0  0  0  0  0  0
   26.7709  -24.6175  -15.4317 C   0  0  0  0  0  0  0  0  0  0  0  0
   27.4320  -23.4185  -15.7178 C   0  0  0  0  0  0  0  0  0  0  0  0
   23.4694  -21.4677  -14.5683 C   0  0  0  0  0  0  0  0  0  0  0  0
   23.4154  -21.3619  -13.3403 O   0  0  0  0  0  0  0  0  0  0  0  0
   22.3325  -21.0851  -15.3195 N   0  0  0  0  0  0  0  0  0  0  0  0
   21.0769  -20.6072  -14.6725 C   0  0  1  0  0  0  0  0  0  0  0  0
   20.5305  -19.4961  -15.4376 C   0  0  0  0  0  0  0  0  0  0  0  0
   19.3596  -18.7677  -14.9152 C   0  0  0  0  0  0  0  0  0  0  0  0
   19.4894  -18.0970  -13.6184 C   0  0  0  0  0  0  0  0  0  0  0  0
   18.7585  -18.4201  -12.6566 O   0  0  0  0  0  0  0  0  0  0  0  0
   20.3107  -21.7952  -14.4118 C   0  0  0  0  0  0  0  0  0  0  0  0
   20.2042  -22.6914  -15.3318 O   0  0  0  0  0  0  0  0  0  0  0  0
   20.4200  -17.0772  -13.3946 O   0  0  0  0  0  0  0  0  0  0  0  0
   18.8416  -23.8667  -11.6407 C   0  0  0  0  0  0  0  0  0  0  0  0
   18.9317  -23.4540  -13.1128 C   0  0  2  0  0  0  0  0  0  0  0  0
   19.6198  -22.1637  -13.2085 N   0  0  0  0  0  0  0  0  0  0  0  0
   17.6155  -23.3765  -13.7276 C   0  0  0  0  0  0  0  0  0  0  0  0
   16.9416  -24.3936  -13.9513 O   0  0  0  0  0  0  0  0  0  0  0  0
   17.0765  -22.1546  -14.0825 O   0  0  0  0  0  0  0  0  0  0  0  0
  2  1  1  6
  2 13  1  0
  2  3  1  0
  3  4  1  0
  4 12  1  0
  5  4  2  0
  5  6  1  0
  6  7  1  0
  7  8  1  0
  8  9  2  0
 10  9  1  0
 11 10  2  0
 12  7  2  0
 12 11  1  0
 13 15  1  0
 14 13  2  0
 15 16  1  0
 16 17  1  6
 17 18  1  0
 19 20  2  0
 19 18  1  0
 21 22  2  0
 21 16  1  0
 23 19  1  0
 25 24  1  1
 25 27  1  0
 25 26  1  0
 26 21  1  0
 27 29  1  0
 28 27  2  0
M  END
$$$$
