WEA.pdb
     RDKit          3D

 29 30  0  0  1  0  0  0  0  0999 V2000
   27.2125  -21.5919  -15.1013 N   0  0  0  0  0  0  0  0  0  0  0  0
   26.0447  -20.9407  -14.6563 C   0  0  1  0  0  0  0  0  0  0  0  0
   26.2997  -19.7225  -13.8138 C   0  0  0  0  0  0  0  0  0  0  0  0
   27.0480  -20.0061  -12.5539 C   0  0  0  0  0  0  0  0  0  0  0  0
   28.4241  -19.9614  -12.4136 C   0  0  0  0  0  0  0  0  0  0  0  0
   28.6986  -20.2912  -11.1545 N   0  0  0  0  0  0  0  0  0  0  0  0
   27.5720  -20.5533  -10.4493 C   0  0  0  0  0  0  0  0  0  0  0  0
   27.4024  -20.9205   -9.1302 C   0  0  0  0  0  0  0  0  0  0  0  0
   26.1019  -21.1110   -8.6959 C   0  0  0  0  0  0  0  0  0  0  0  0
   25.0424  -20.9366   -9.5581 C   0  0  0  0  0  0  0  0  0  0  0  0
   25.2409  -20.5723  -10.8620 C   0  0  0  0  0  0  0  0  0  0  0  0
   26.5446  -20.3732  -11.3281 C   0  0  0  0  0  0  0  0  0  0  0  0
   25.0505  -20.6811  -15.7284 C   0  0  0  0  0  0  0  0  0  0  0  0
   25.2967  -20.2104  -16.8419 O   0  0  0  0  0  0  0  0  0  0  0  0
   23.7068  -21.0079  -15.4267 N   0  0  0  0  0  0  0  0  0  0  0  0
   22.6168  -20.9006  -16.4386 C   0  0  1  0  0  0  0  0  0  0  0  0
   22.1116  -22.2299  -16.7490 C   0  0  0  0  0  0  0  0  0  0  0  0
   20.9740  -22.3704  -17.6766 C   0  0  0  0  0  0  0  0  0  0  0  0
   19.6499  -22.6338  -17.1059 C   0  0  0  0  0  0  0  0  0  0  0  0
   18.7230  -21.8040  -17.2336 O   0  0  0  0  0  0  0  0  0  0  0  0
   21.7539  -19.8575  -15.9548 C   0  0  0  0  0  0  0  0  0  0  0  0
   21.4259  -19.8379  -14.7086 O   0  0  0  0  0  0  0  0  0  0  0  0
   19.3606  -23.8057  -16.3994 O   0  0  0  0  0  0  0  0  0  0  0  0
   20.0312  -16.6265  -16.9609 C   0  0  0  0  0  0  0  0  0  0  0  0
   20.2974  -17.8045  -16.0190 C   0  0  2  0  0  0  0  0  0  0  0  0
   21.1822  -18.7629  -16.6869 N   0  0  0  0  0  0  0  0  0  0  0  0
   19.0605  -18.4520  -15.6102 C   0  0  0  0  0  0  0  0  0  0  0  0
   18.6345  -19.4636  -16.1880 O   0  0  0  0  0  0  0  0  0  0  0  0
   18.3200  -17.9511  -14.5565 O   0  0  0  0  0  0  0  0  0  0  0  0
  2  1  1  6
  2 13  1  0
  2  3  1  0
  3  4  1  0
  4 12  1  0
  5  4  2  0
  5  6  1  0
  6  7  1  0
  7  8  1  0
  8  9  2  0
 10  9  1  0
 11 10  2  0
 12  7  2  0
 12 11  1  0
 13 15  1  0
 14 13  2  0
 15 16  1  0
 16 17  1  1
 17 18  1  0
 19 20  2  0
 19 18  1  0
 21 22  2  0
 21 16  1  0
 23 19  1  0
 25 24  1  6
 25 27  1  0
 25 26  1  0
 26 21  1  0
 27 29  1  0
 28 27  2  0
M  END
$$$$
