WEA.pdb
     RDKit          3D

 29 30  0  0  1  0  0  0  0  0999 V2000
   26.4914  -22.9910  -12.2682 N   0  0  0  0  0  0  0  0  0  0  0  0
   25.7502  -21.8134  -12.0448 C   0  0  1  0  0  0  0  0  0  0  0  0
   26.5862  -20.5697  -11.9308 C   0  0  0  0  0  0  0  0  0  0  0  0
   27.6638  -20.6592  -10.9020 C   0  0  0  0  0  0  0  0  0  0  0  0
   28.9955  -20.9331  -11.1605 C   0  0  0  0  0  0  0  0  0  0  0  0
   29.6261  -20.9430   -9.9891 N   0  0  0  0  0  0  0  0  0  0  0  0
   28.7787  -20.6887   -8.9631 C   0  0  0  0  0  0  0  0  0  0  0  0
   29.0115  -20.6008   -7.6060 C   0  0  0  0  0  0  0  0  0  0  0  0
   27.9222  -20.3142   -6.8015 C   0  0  0  0  0  0  0  0  0  0  0  0
   26.6736  -20.1295   -7.3521 C   0  0  0  0  0  0  0  0  0  0  0  0
   26.4723  -20.2231   -8.7023 C   0  0  0  0  0  0  0  0  0  0  0  0
   27.5552  -20.5119   -9.5392 C   0  0  0  0  0  0  0  0  0  0  0  0
   24.6045  -21.6341  -12.9725 C   0  0  0  0  0  0  0  0  0  0  0  0
   24.6188  -21.8514  -14.1868 O   0  0  0  0  0  0  0  0  0  0  0  0
   23.3987  -21.1711  -12.3937 N   0  0  0  0  0  0  0  0  0  0  0  0
   22.1017  -21.2017  -13.1289 C   0  0  1  0  0  0  0  0  0  0  0  0
   21.0614  -21.7221  -12.2540 C   0  0  0  0  0  0  0  0  0  0  0  0
   19.6854  -21.8519  -12.7680 C   0  0  0  0  0  0  0  0  0  0  0  0
   19.4736  -22.6663  -13.9681 C   0  0  0  0  0  0  0  0  0  0  0  0
   19.0931  -22.1409  -15.0372 O   0  0  0  0  0  0  0  0  0  0  0  0
   21.9903  -19.9109  -13.7517 C   0  0  0  0  0  0  0  0  0  0  0  0
   21.9525  -18.8555  -13.0131 O   0  0  0  0  0  0  0  0  0  0  0  0
   19.6805  -24.0495  -13.9784 O   0  0  0  0  0  0  0  0  0  0  0  0
   21.7492  -18.1708  -17.1243 C   0  0  0  0  0  0  0  0  0  0  0  0
   21.6606  -18.2289  -15.5964 C   0  0  2  0  0  0  0  0  0  0  0  0
   21.9270  -19.5996  -15.1518 N   0  0  0  0  0  0  0  0  0  0  0  0
   20.3612  -17.7818  -15.1191 C   0  0  0  0  0  0  0  0  0  0  0  0
   20.1723  -16.6139  -14.7461 O   0  0  0  0  0  0  0  0  0  0  0  0
   19.2924  -18.6561  -15.0678 O   0  0  0  0  0  0  0  0  0  0  0  0
  2  1  1  6
  2 13  1  0
  2  3  1  0
  3  4  1  0
  4 12  1  0
  5  4  2  0
  5  6  1  0
  6  7  1  0
  7  8  1  0
  8  9  2  0
 10  9  1  0
 11 10  2  0
 12  7  2  0
 12 11  1  0
 13 15  1  0
 14 13  2  0
 15 16  1  0
 16 17  1  1
 17 18  1  0
 19 20  2  0
 19 18  1  0
 21 22  2  0
 21 16  1  0
 23 19  1  0
 25 24  1  6
 25 27  1  0
 25 26  1  0
 26 21  1  0
 27 29  1  0
 28 27  2  0
M  END
$$$$
