WEA.pdb
     RDKit          3D

 29 30  0  0  1  0  0  0  0  0999 V2000
   22.0497  -12.6712  -17.4102 N   0  0  0  0  0  0  0  0  0  0  0  0
   22.6634  -11.5308  -16.8546 C   0  0  1  0  0  0  0  0  0  0  0  0
   24.1209  -11.3874  -17.1921 C   0  0  0  0  0  0  0  0  0  0  0  0
   24.9535  -12.5554  -16.7795 C   0  0  0  0  0  0  0  0  0  0  0  0
   24.4729  -13.8249  -16.5099 C   0  0  0  0  0  0  0  0  0  0  0  0
   25.5174  -14.5714  -16.1614 N   0  0  0  0  0  0  0  0  0  0  0  0
   26.6704  -13.8605  -16.1860 C   0  0  0  0  0  0  0  0  0  0  0  0
   27.9667  -14.2406  -15.9051 C   0  0  0  0  0  0  0  0  0  0  0  0
   28.9449  -13.2694  -16.0317 C   0  0  0  0  0  0  0  0  0  0  0  0
   28.6162  -11.9901  -16.4211 C   0  0  0  0  0  0  0  0  0  0  0  0
   27.3212  -11.6416  -16.6929 C   0  0  0  0  0  0  0  0  0  0  0  0
   26.3122  -12.6027  -16.5730 C   0  0  0  0  0  0  0  0  0  0  0  0
   21.9112  -10.2698  -17.0767 C   0  0  0  0  0  0  0  0  0  0  0  0
   21.6340   -9.7790  -18.1741 O   0  0  0  0  0  0  0  0  0  0  0  0
   21.4841   -9.5842  -15.9145 N   0  0  0  0  0  0  0  0  0  0  0  0
   20.6418   -8.3556  -15.9814 C   0  0  1  0  0  0  0  0  0  0  0  0
   19.3218   -8.6433  -15.4396 C   0  0  0  0  0  0  0  0  0  0  0  0
   18.3262   -7.5590  -15.3524 C   0  0  0  0  0  0  0  0  0  0  0  0
   17.0390   -7.8568  -14.7178 C   0  0  0  0  0  0  0  0  0  0  0  0
   16.1777   -6.9623  -14.5702 O   0  0  0  0  0  0  0  0  0  0  0  0
   21.4649   -7.3040  -15.4493 C   0  0  0  0  0  0  0  0  0  0  0  0
   21.9980   -7.4485  -14.2848 O   0  0  0  0  0  0  0  0  0  0  0  0
   16.7143   -9.1346  -14.2505 O   0  0  0  0  0  0  0  0  0  0  0  0
   23.0170   -3.9374  -16.2791 C   0  0  0  0  0  0  0  0  0  0  0  0
   22.6225   -5.0711  -15.3279 C   0  0  2  0  0  0  0  0  0  0  0  0
   21.8166   -6.0527  -16.0589 N   0  0  0  0  0  0  0  0  0  0  0  0
   21.8923   -4.5706  -14.1735 C   0  0  0  0  0  0  0  0  0  0  0  0
   22.4639   -3.9595  -13.2577 O   0  0  0  0  0  0  0  0  0  0  0  0
   20.5285   -4.7653  -14.0661 O   0  0  0  0  0  0  0  0  0  0  0  0
  2  1  1  6
  2 13  1  0
  2  3  1  0
  3  4  1  0
  4 12  1  0
  5  4  2  0
  5  6  1  0
  6  7  1  0
  7  8  1  0
  8  9  2  0
 10  9  1  0
 11 10  2  0
 12  7  2  0
 12 11  1  0
 13 15  1  0
 14 13  2  0
 15 16  1  0
 16 17  1  1
 17 18  1  0
 19 20  2  0
 19 18  1  0
 21 22  2  0
 21 16  1  0
 23 19  1  0
 25 24  1  6
 25 27  1  0
 25 26  1  0
 26 21  1  0
 27 29  1  0
 28 27  2  0
M  END
$$$$
