WEA.pdb
     RDKit          3D

 29 30  0  0  1  0  0  0  0  0999 V2000
   28.9811  -21.4967  -10.4972 N   0  0  0  0  0  0  0  0  0  0  0  0
   27.5992  -21.2492  -10.3750 C   0  0  1  0  0  0  0  0  0  0  0  0
   27.2582  -20.0514   -9.5337 C   0  0  0  0  0  0  0  0  0  0  0  0
   28.1458  -19.8753   -8.3468 C   0  0  0  0  0  0  0  0  0  0  0  0
   29.5016  -19.6019   -8.3954 C   0  0  0  0  0  0  0  0  0  0  0  0
   29.9315  -19.5364   -7.1383 N   0  0  0  0  0  0  0  0  0  0  0  0
   28.9277  -19.7528   -6.2547 C   0  0  0  0  0  0  0  0  0  0  0  0
   28.9326  -19.7689   -4.8750 C   0  0  0  0  0  0  0  0  0  0  0  0
   27.7234  -20.0149   -4.2477 C   0  0  0  0  0  0  0  0  0  0  0  0
   26.5817  -20.2308   -4.9867 C   0  0  0  0  0  0  0  0  0  0  0  0
   26.6069  -20.2093   -6.3546 C   0  0  0  0  0  0  0  0  0  0  0  0
   27.8151  -19.9634   -7.0150 C   0  0  0  0  0  0  0  0  0  0  0  0
   26.8671  -21.2518  -11.6671 C   0  0  0  0  0  0  0  0  0  0  0  0
   27.3064  -20.8449  -12.7457 O   0  0  0  0  0  0  0  0  0  0  0  0
   25.5503  -21.7697  -11.6379 N   0  0  0  0  0  0  0  0  0  0  0  0
   24.7241  -21.9094  -12.8714 C   0  0  1  0  0  0  0  0  0  0  0  0
   24.3985  -23.3127  -13.0797 C   0  0  0  0  0  0  0  0  0  0  0  0
   23.5677  -23.6960  -14.2361 C   0  0  0  0  0  0  0  0  0  0  0  0
   24.0372  -23.3236  -15.5737 C   0  0  0  0  0  0  0  0  0  0  0  0
   25.2297  -23.5028  -15.9047 O   0  0  0  0  0  0  0  0  0  0  0  0
   23.7023  -20.9048  -12.7572 C   0  0  0  0  0  0  0  0  0  0  0  0
   23.1923  -20.6527  -11.6007 O   0  0  0  0  0  0  0  0  0  0  0  0
   23.1905  -22.7562  -16.5316 O   0  0  0  0  0  0  0  0  0  0  0  0
   21.7387  -18.3121  -14.7202 C   0  0  0  0  0  0  0  0  0  0  0  0
   21.9890  -19.2216  -13.5136 C   0  0  2  0  0  0  0  0  0  0  0  0
   23.1427  -20.0814  -13.7915 N   0  0  0  0  0  0  0  0  0  0  0  0
   20.8184  -20.0257  -13.1985 C   0  0  0  0  0  0  0  0  0  0  0  0
   19.8942  -19.5825  -12.4997 O   0  0  0  0  0  0  0  0  0  0  0  0
   20.7047  -21.3181  -13.6742 O   0  0  0  0  0  0  0  0  0  0  0  0
  2  1  1  6
  2 13  1  0
  2  3  1  0
  3  4  1  0
  4 12  1  0
  5  4  2  0
  5  6  1  0
  6  7  1  0
  7  8  1  0
  8  9  2  0
 10  9  1  0
 11 10  2  0
 12  7  2  0
 12 11  1  0
 13 15  1  0
 14 13  2  0
 15 16  1  0
 16 17  1  1
 17 18  1  0
 19 20  2  0
 19 18  1  0
 21 22  2  0
 21 16  1  0
 23 19  1  0
 25 24  1  6
 25 27  1  0
 25 26  1  0
 26 21  1  0
 27 29  1  0
 28 27  2  0
M  END
$$$$
