WEA.pdb
     RDKit          3D

 29 30  0  0  1  0  0  0  0  0999 V2000
   27.9933  -21.5375  -10.6073 N   0  0  0  0  0  0  0  0  0  0  0  0
   26.7790  -21.0159  -10.1181 C   0  0  1  0  0  0  0  0  0  0  0  0
   26.9392  -20.0131   -9.0102 C   0  0  0  0  0  0  0  0  0  0  0  0
   28.0738  -20.3098   -8.0870 C   0  0  0  0  0  0  0  0  0  0  0  0
   29.1976  -21.0490   -8.4127 C   0  0  0  0  0  0  0  0  0  0  0  0
   29.9593  -21.1010   -7.3234 N   0  0  0  0  0  0  0  0  0  0  0  0
   29.3973  -20.4322   -6.2880 C   0  0  0  0  0  0  0  0  0  0  0  0
   29.8445  -20.2329   -4.9980 C   0  0  0  0  0  0  0  0  0  0  0  0
   29.0328  -19.4846   -4.1629 C   0  0  0  0  0  0  0  0  0  0  0  0
   27.8388  -18.9730   -4.6200 C   0  0  0  0  0  0  0  0  0  0  0  0
   27.4204  -19.1871   -5.9050 C   0  0  0  0  0  0  0  0  0  0  0  0
   28.2205  -19.9400   -6.7708 C   0  0  0  0  0  0  0  0  0  0  0  0
   25.8557  -20.5361  -11.1776 C   0  0  0  0  0  0  0  0  0  0  0  0
   25.9894  -19.5017  -11.8365 O   0  0  0  0  0  0  0  0  0  0  0  0
   24.7281  -21.3504  -11.4394 N   0  0  0  0  0  0  0  0  0  0  0  0
   23.9029  -21.1924  -12.6713 C   0  0  1  0  0  0  0  0  0  0  0  0
   24.0126  -22.3943  -13.4850 C   0  0  0  0  0  0  0  0  0  0  0  0
   25.2527  -22.6405  -14.2439 C   0  0  0  0  0  0  0  0  0  0  0  0
   25.6624  -21.6412  -15.2347 C   0  0  0  0  0  0  0  0  0  0  0  0
   26.8663  -21.3302  -15.3678 O   0  0  0  0  0  0  0  0  0  0  0  0
   22.6314  -20.7024  -12.2137 C   0  0  0  0  0  0  0  0  0  0  0  0
   22.1222  -21.1839  -11.1321 O   0  0  0  0  0  0  0  0  0  0  0  0
   24.7433  -20.9935  -16.0666 O   0  0  0  0  0  0  0  0  0  0  0  0
   19.9360  -18.1198  -12.9351 C   0  0  0  0  0  0  0  0  0  0  0  0
   20.5430  -19.2963  -12.1651 C   0  0  2  0  0  0  0  0  0  0  0  0
   21.8024  -19.6892  -12.8030 N   0  0  0  0  0  0  0  0  0  0  0  0
   19.6278  -20.4254  -12.1058 C   0  0  0  0  0  0  0  0  0  0  0  0
   19.6666  -21.3385  -12.9446 O   0  0  0  0  0  0  0  0  0  0  0  0
   18.6810  -20.5108  -11.1028 O   0  0  0  0  0  0  0  0  0  0  0  0
  2  1  1  6
  2 13  1  0
  2  3  1  0
  3  4  1  0
  4 12  1  0
  5  4  2  0
  5  6  1  0
  6  7  1  0
  7  8  1  0
  8  9  2  0
 10  9  1  0
 11 10  2  0
 12  7  2  0
 12 11  1  0
 13 15  1  0
 14 13  2  0
 15 16  1  0
 16 17  1  1
 17 18  1  0
 19 20  2  0
 19 18  1  0
 21 22  2  0
 21 16  1  0
 23 19  1  0
 25 24  1  6
 25 27  1  0
 25 26  1  0
 26 21  1  0
 27 29  1  0
 28 27  2  0
M  END
$$$$
