WEA.pdb
     RDKit          3D

 29 30  0  0  1  0  0  0  0  0999 V2000
   30.0051  -36.3694   -7.5356 N   0  0  0  0  0  0  0  0  0  0  0  0
   29.5292  -35.7787   -6.3480 C   0  0  1  0  0  0  0  0  0  0  0  0
   28.0425  -35.5606   -6.3192 C   0  0  0  0  0  0  0  0  0  0  0  0
   27.5564  -34.5816   -7.3355 C   0  0  0  0  0  0  0  0  0  0  0  0
   27.8465  -34.6224   -8.6881 C   0  0  0  0  0  0  0  0  0  0  0  0
   27.2465  -33.5751   -9.2473 N   0  0  0  0  0  0  0  0  0  0  0  0
   26.5707  -32.8388   -8.3327 C   0  0  0  0  0  0  0  0  0  0  0  0
   25.8170  -31.6927   -8.4809 C   0  0  0  0  0  0  0  0  0  0  0  0
   25.2351  -31.1741   -7.3370 C   0  0  0  0  0  0  0  0  0  0  0  0
   25.4140  -31.7903   -6.1186 C   0  0  0  0  0  0  0  0  0  0  0  0
   26.1674  -32.9264   -6.0015 C   0  0  0  0  0  0  0  0  0  0  0  0
   26.7675  -33.4723   -7.1410 C   0  0  0  0  0  0  0  0  0  0  0  0
   30.0231  -36.4296   -5.1079 C   0  0  0  0  0  0  0  0  0  0  0  0
   30.0397  -37.6434   -4.8880 O   0  0  0  0  0  0  0  0  0  0  0  0
   30.5130  -35.5643   -4.1007 N   0  0  0  0  0  0  0  0  0  0  0  0
   31.0128  -36.0726   -2.7909 C   0  0  1  0  0  0  0  0  0  0  0  0
   32.3557  -35.5634   -2.5545 C   0  0  0  0  0  0  0  0  0  0  0  0
   33.5110  -36.2908   -3.1117 C   0  0  0  0  0  0  0  0  0  0  0  0
   33.8465  -37.5951   -2.5332 C   0  0  0  0  0  0  0  0  0  0  0  0
   34.1428  -38.5624   -3.2681 O   0  0  0  0  0  0  0  0  0  0  0  0
   29.9410  -35.8393   -1.8617 C   0  0  0  0  0  0  0  0  0  0  0  0
   29.3514  -34.6933   -1.8539 O   0  0  0  0  0  0  0  0  0  0  0  0
   33.8502  -37.8214   -1.1529 O   0  0  0  0  0  0  0  0  0  0  0  0
   27.5018  -37.6368    0.3769 C   0  0  0  0  0  0  0  0  0  0  0  0
   28.2018  -36.3682   -0.1193 C   0  0  2  0  0  0  0  0  0  0  0  0
   29.3852  -36.7455   -0.8969 N   0  0  0  0  0  0  0  0  0  0  0  0
   28.5739  -35.4966    0.9844 C   0  0  0  0  0  0  0  0  0  0  0  0
   29.7581  -35.3421    1.3200 O   0  0  0  0  0  0  0  0  0  0  0  0
   27.6073  -34.8113    1.6954 O   0  0  0  0  0  0  0  0  0  0  0  0
  2  1  1  6
  2 13  1  0
  2  3  1  0
  3  4  1  0
  4 12  1  0
  5  4  2  0
  5  6  1  0
  6  7  1  0
  7  8  1  0
  8  9  2  0
 10  9  1  0
 11 10  2  0
 12  7  2  0
 12 11  1  0
 13 15  1  0
 14 13  2  0
 15 16  1  0
 16 17  1  1
 17 18  1  0
 19 20  2  0
 19 18  1  0
 21 22  2  0
 21 16  1  0
 23 19  1  0
 25 24  1  1
 25 27  1  0
 25 26  1  0
 26 21  1  0
 27 29  1  0
 28 27  2  0
M  END
$$$$
