WEA.pdb
     RDKit          3D

 29 30  0  0  1  0  0  0  0  0999 V2000
   24.5389  -19.3201   -9.8328 N   0  0  0  0  0  0  0  0  0  0  0  0
   25.7009  -19.9796  -10.2807 C   0  0  1  0  0  0  0  0  0  0  0  0
   26.0828  -21.1816   -9.4634 C   0  0  0  0  0  0  0  0  0  0  0  0
   26.2567  -20.8923   -8.0095 C   0  0  0  0  0  0  0  0  0  0  0  0
   25.2477  -20.9177   -7.0627 C   0  0  0  0  0  0  0  0  0  0  0  0
   25.7983  -20.5890   -5.8972 N   0  0  0  0  0  0  0  0  0  0  0  0
   27.1252  -20.3459   -6.0220 C   0  0  0  0  0  0  0  0  0  0  0  0
   28.0657  -19.9864   -5.0786 C   0  0  0  0  0  0  0  0  0  0  0  0
   29.3653  -19.8163   -5.5238 C   0  0  0  0  0  0  0  0  0  0  0  0
   29.6815  -20.0026   -6.8511 C   0  0  0  0  0  0  0  0  0  0  0  0
   28.7274  -20.3589   -7.7648 C   0  0  0  0  0  0  0  0  0  0  0  0
   27.4058  -20.5373   -7.3429 C   0  0  0  0  0  0  0  0  0  0  0  0
   25.7098  -20.2680  -11.7374 C   0  0  0  0  0  0  0  0  0  0  0  0
   24.7199  -20.5219  -12.4285 O   0  0  0  0  0  0  0  0  0  0  0  0
   26.9754  -20.2460  -12.3708 N   0  0  0  0  0  0  0  0  0  0  0  0
   27.1245  -20.3426  -13.8514 C   0  0  1  0  0  0  0  0  0  0  0  0
   28.3767  -19.7192  -14.2536 C   0  0  0  0  0  0  0  0  0  0  0  0
   28.7234  -19.6561  -15.6855 C   0  0  0  0  0  0  0  0  0  0  0  0
   27.6780  -19.2493  -16.6288 C   0  0  0  0  0  0  0  0  0  0  0  0
   27.1177  -18.1367  -16.5202 O   0  0  0  0  0  0  0  0  0  0  0  0
   26.8235  -21.7110  -14.1726 C   0  0  0  0  0  0  0  0  0  0  0  0
   27.0283  -22.6261  -13.2885 O   0  0  0  0  0  0  0  0  0  0  0  0
   27.2590  -20.0717  -17.6798 O   0  0  0  0  0  0  0  0  0  0  0  0
   24.8679  -23.7139  -14.0535 C   0  0  0  0  0  0  0  0  0  0  0  0
   25.5814  -23.5281  -15.3959 C   0  0  2  0  0  0  0  0  0  0  0  0
   26.2837  -22.2419  -15.3924 N   0  0  0  0  0  0  0  0  0  0  0  0
   24.6493  -23.5968  -16.5106 C   0  0  0  0  0  0  0  0  0  0  0  0
   23.9799  -22.6126  -16.8599 O   0  0  0  0  0  0  0  0  0  0  0  0
   24.4834  -24.7731  -17.2166 O   0  0  0  0  0  0  0  0  0  0  0  0
  2  1  1  1
  2 13  1  0
  2  3  1  0
  3  4  1  0
  4 12  1  0
  5  4  2  0
  5  6  1  0
  6  7  1  0
  7  8  1  0
  8  9  2  0
 10  9  1  0
 11 10  2  0
 12  7  2  0
 12 11  1  0
 13 15  1  0
 14 13  2  0
 15 16  1  0
 16 17  1  1
 17 18  1  0
 19 20  2  0
 19 18  1  0
 21 22  2  0
 21 16  1  0
 23 19  1  0
 25 24  1  1
 25 27  1  0
 25 26  1  0
 26 21  1  0
 27 29  1  0
 28 27  2  0
M  END
$$$$
