WEA.pdb
     RDKit          3D

 29 30  0  0  1  0  0  0  0  0999 V2000
   24.4515  -19.2310  -10.7137 N   0  0  0  0  0  0  0  0  0  0  0  0
   25.5376  -20.0210  -11.1403 C   0  0  1  0  0  0  0  0  0  0  0  0
   25.9120  -21.1222  -10.1886 C   0  0  0  0  0  0  0  0  0  0  0  0
   26.3912  -20.6359   -8.8614 C   0  0  0  0  0  0  0  0  0  0  0  0
   25.5821  -20.1637   -7.8429 C   0  0  0  0  0  0  0  0  0  0  0  0
   26.3824  -19.8136   -6.8396 N   0  0  0  0  0  0  0  0  0  0  0  0
   27.6854  -20.0299   -7.1407 C   0  0  0  0  0  0  0  0  0  0  0  0
   28.8274  -19.8159   -6.3964 C   0  0  0  0  0  0  0  0  0  0  0  0
   30.0325  -20.1515   -6.9889 C   0  0  0  0  0  0  0  0  0  0  0  0
   30.0659  -20.6731   -8.2629 C   0  0  0  0  0  0  0  0  0  0  0  0
   28.9168  -20.8742   -8.9779 C   0  0  0  0  0  0  0  0  0  0  0  0
   27.6847  -20.5438   -8.4040 C   0  0  0  0  0  0  0  0  0  0  0  0
   25.4208  -20.5061  -12.5390 C   0  0  0  0  0  0  0  0  0  0  0  0
   24.3697  -20.6376  -13.1714 O   0  0  0  0  0  0  0  0  0  0  0  0
   26.6332  -20.8437  -13.1865 N   0  0  0  0  0  0  0  0  0  0  0  0
   26.8129  -20.7025  -14.6600 C   0  0  1  0  0  0  0  0  0  0  0  0
   28.2330  -20.6228  -14.9693 C   0  0  0  0  0  0  0  0  0  0  0  0
   28.6602  -20.5343  -16.3778 C   0  0  0  0  0  0  0  0  0  0  0  0
   29.1969  -21.7425  -17.0108 C   0  0  0  0  0  0  0  0  0  0  0  0
   29.8149  -22.5956  -16.3370 O   0  0  0  0  0  0  0  0  0  0  0  0
   25.9676  -21.7094  -15.2416 C   0  0  0  0  0  0  0  0  0  0  0  0
   26.0293  -22.9178  -14.7977 O   0  0  0  0  0  0  0  0  0  0  0  0
   29.0496  -21.9978  -18.3781 O   0  0  0  0  0  0  0  0  0  0  0  0
   22.9897  -22.2902  -17.4731 C   0  0  0  0  0  0  0  0  0  0  0  0
   24.3084  -22.7352  -16.8339 C   0  0  2  0  0  0  0  0  0  0  0  0
   24.9986  -21.5622  -16.2905 N   0  0  0  0  0  0  0  0  0  0  0  0
   25.1581  -23.4293  -17.7892 C   0  0  0  0  0  0  0  0  0  0  0  0
   25.9155  -22.8124  -18.5537 O   0  0  0  0  0  0  0  0  0  0  0  0
   25.1429  -24.8087  -17.8707 O   0  0  0  0  0  0  0  0  0  0  0  0
  2  1  1  1
  2 13  1  0
  2  3  1  0
  3  4  1  0
  4 12  1  0
  5  4  2  0
  5  6  1  0
  6  7  1  0
  7  8  1  0
  8  9  2  0
 10  9  1  0
 11 10  2  0
 12  7  2  0
 12 11  1  0
 13 15  1  0
 14 13  2  0
 15 16  1  0
 16 17  1  1
 17 18  1  0
 19 20  2  0
 19 18  1  0
 21 22  2  0
 21 16  1  0
 23 19  1  0
 25 24  1  6
 25 27  1  0
 25 26  1  0
 26 21  1  0
 27 29  1  0
 28 27  2  0
M  END
$$$$
