WEA.pdb
     RDKit          3D

 29 30  0  0  1  0  0  0  0  0999 V2000
   23.3464  -19.7260  -19.0164 N   0  0  0  0  0  0  0  0  0  0  0  0
   22.2499  -18.8477  -18.9059 C   0  0  1  0  0  0  0  0  0  0  0  0
   20.9252  -19.4667  -19.2533 C   0  0  0  0  0  0  0  0  0  0  0  0
   20.8611  -20.0166  -20.6394 C   0  0  0  0  0  0  0  0  0  0  0  0
   20.9501  -21.3568  -20.9730 C   0  0  0  0  0  0  0  0  0  0  0  0
   20.8680  -21.4349  -22.2985 N   0  0  0  0  0  0  0  0  0  0  0  0
   20.7285  -20.2116  -22.8637 C   0  0  0  0  0  0  0  0  0  0  0  0
   20.6035  -19.8420  -24.1871 C   0  0  0  0  0  0  0  0  0  0  0  0
   20.4663  -18.4897  -24.4489 C   0  0  0  0  0  0  0  0  0  0  0  0
   20.4576  -17.5741  -23.4203 C   0  0  0  0  0  0  0  0  0  0  0  0
   20.5839  -17.9698  -22.1166 C   0  0  0  0  0  0  0  0  0  0  0  0
   20.7244  -19.3301  -21.8229 C   0  0  0  0  0  0  0  0  0  0  0  0
   22.1992  -18.1011  -17.6232 C   0  0  0  0  0  0  0  0  0  0  0  0
   22.6634  -18.4848  -16.5465 O   0  0  0  0  0  0  0  0  0  0  0  0
   21.5565  -16.8406  -17.6591 N   0  0  0  0  0  0  0  0  0  0  0  0
   21.4189  -15.9842  -16.4462 C   0  0  1  0  0  0  0  0  0  0  0  0
   21.4630  -14.5824  -16.8355 C   0  0  0  0  0  0  0  0  0  0  0  0
   21.1725  -13.5450  -15.8287 C   0  0  0  0  0  0  0  0  0  0  0  0
   20.0265  -12.6616  -16.0624 C   0  0  0  0  0  0  0  0  0  0  0  0
   19.0737  -12.6243  -15.2535 O   0  0  0  0  0  0  0  0  0  0  0  0
   20.3056  -16.5330  -15.7209 C   0  0  0  0  0  0  0  0  0  0  0  0
   19.2474  -16.8889  -16.3647 O   0  0  0  0  0  0  0  0  0  0  0  0
   19.9403  -11.8309  -17.1844 O   0  0  0  0  0  0  0  0  0  0  0  0
   19.2404  -17.8606  -12.3415 C   0  0  0  0  0  0  0  0  0  0  0  0
   18.9562  -17.3225  -13.7470 C   0  0  2  0  0  0  0  0  0  0  0  0
   20.1927  -16.7734  -14.3101 N   0  0  0  0  0  0  0  0  0  0  0  0
   17.9106  -16.3112  -13.7308 C   0  0  0  0  0  0  0  0  0  0  0  0
   18.1690  -15.1065  -13.8742 O   0  0  0  0  0  0  0  0  0  0  0  0
   16.5881  -16.6705  -13.5529 O   0  0  0  0  0  0  0  0  0  0  0  0
  2  1  1  1
  2 13  1  0
  2  3  1  0
  3  4  1  0
  4 12  1  0
  5  4  2  0
  5  6  1  0
  6  7  1  0
  7  8  1  0
  8  9  2  0
 10  9  1  0
 11 10  2  0
 12  7  2  0
 12 11  1  0
 13 15  1  0
 14 13  2  0
 15 16  1  0
 16 17  1  6
 17 18  1  0
 19 20  2  0
 19 18  1  0
 21 22  2  0
 21 16  1  0
 23 19  1  0
 25 24  1  1
 25 27  1  0
 25 26  1  0
 26 21  1  0
 27 29  1  0
 28 27  2  0
M  END
$$$$
