WEA.pdb
     RDKit          3D

 29 30  0  0  1  0  0  0  0  0999 V2000
   27.9426  -20.0952   -9.9302 N   0  0  0  0  0  0  0  0  0  0  0  0
   26.8193  -20.9359   -9.7992 C   0  0  1  0  0  0  0  0  0  0  0  0
   26.1536  -20.8721   -8.4533 C   0  0  0  0  0  0  0  0  0  0  0  0
   26.8532  -19.9878   -7.4754 C   0  0  0  0  0  0  0  0  0  0  0  0
   27.1756  -18.6588   -7.6871 C   0  0  0  0  0  0  0  0  0  0  0  0
   27.8029  -18.2309   -6.5948 N   0  0  0  0  0  0  0  0  0  0  0  0
   27.9137  -19.2107   -5.6658 C   0  0  0  0  0  0  0  0  0  0  0  0
   28.4793  -19.1962   -4.4074 C   0  0  0  0  0  0  0  0  0  0  0  0
   28.4264  -20.3752   -3.6840 C   0  0  0  0  0  0  0  0  0  0  0  0
   27.8321  -21.4978   -4.2158 C   0  0  0  0  0  0  0  0  0  0  0  0
   27.2793  -21.4828   -5.4674 C   0  0  0  0  0  0  0  0  0  0  0  0
   27.3186  -20.3051   -6.2210 C   0  0  0  0  0  0  0  0  0  0  0  0
   25.8430  -20.8196  -10.9121 C   0  0  0  0  0  0  0  0  0  0  0  0
   25.3654  -19.7680  -11.3457 O   0  0  0  0  0  0  0  0  0  0  0  0
   25.4357  -22.0335  -11.5153 N   0  0  0  0  0  0  0  0  0  0  0  0
   24.7807  -22.0747  -12.8542 C   0  0  1  0  0  0  0  0  0  0  0  0
   25.0054  -23.3774  -13.4633 C   0  0  0  0  0  0  0  0  0  0  0  0
   24.3791  -23.6833  -14.7629 C   0  0  0  0  0  0  0  0  0  0  0  0
   24.8834  -22.9871  -15.9500 C   0  0  0  0  0  0  0  0  0  0  0  0
   26.1104  -22.9326  -16.1852 O   0  0  0  0  0  0  0  0  0  0  0  0
   23.4564  -21.5570  -12.6426 C   0  0  0  0  0  0  0  0  0  0  0  0
   22.8117  -21.8903  -11.5776 O   0  0  0  0  0  0  0  0  0  0  0  0
   24.0328  -22.3568  -16.8641 O   0  0  0  0  0  0  0  0  0  0  0  0
   20.8064  -19.2676  -14.1194 C   0  0  0  0  0  0  0  0  0  0  0  0
   21.3013  -20.3697  -13.1781 C   0  0  2  0  0  0  0  0  0  0  0  0
   22.7059  -20.6616  -13.4770 N   0  0  0  0  0  0  0  0  0  0  0  0
   20.4944  -21.5745  -13.2948 C   0  0  0  0  0  0  0  0  0  0  0  0
   19.4114  -21.6916  -12.7013 O   0  0  0  0  0  0  0  0  0  0  0  0
   20.9183  -22.6311  -14.0780 O   0  0  0  0  0  0  0  0  0  0  0  0
  2  1  1  1
  2 13  1  0
  2  3  1  0
  3  4  1  0
  4 12  1  0
  5  4  2  0
  5  6  1  0
  6  7  1  0
  7  8  1  0
  8  9  2  0
 10  9  1  0
 11 10  2  0
 12  7  2  0
 12 11  1  0
 13 15  1  0
 14 13  2  0
 15 16  1  0
 16 17  1  1
 17 18  1  0
 19 20  2  0
 19 18  1  0
 21 22  2  0
 21 16  1  0
 23 19  1  0
 25 24  1  6
 25 27  1  0
 25 26  1  0
 26 21  1  0
 27 29  1  0
 28 27  2  0
M  END
$$$$
