EIS.pdb
     RDKit          3D

 24 23  0  0  1  0  0  0  0  0999 V2000
    8.1585  -15.0479   20.4103 N   0  0  0  0  0  0  0  0  0  0  0  0
    7.4505  -15.6343   21.5459 C   0  0  1  0  0  0  0  0  0  0  0  0
    7.2604  -17.1000   21.2772 C   0  0  0  0  0  0  0  0  0  0  0  0
    6.6284  -17.2542   19.9092 C   0  0  0  0  0  0  0  0  0  0  0  0
    6.4181  -18.6742   19.5827 C   0  0  0  0  0  0  0  0  0  0  0  0
    5.4053  -19.3415   19.9404 O   0  0  0  0  0  0  0  0  0  0  0  0
    8.1521  -15.3589   22.8134 C   0  0  0  0  0  0  0  0  0  0  0  0
    9.3982  -15.3508   22.8351 O   0  0  0  0  0  0  0  0  0  0  0  0
    7.3714  -19.3474   18.8391 O   0  0  0  0  0  0  0  0  0  0  0  0
    6.4037  -11.5498   25.9897 C   0  0  0  0  0  0  0  0  0  0  0  0
    7.2389  -12.5681   25.2247 C   0  0  0  0  0  0  0  0  0  0  0  0
    7.3033  -13.8547   26.0218 C   0  0  2  0  0  0  0  0  0  0  0  0
    7.9951  -13.5426   27.3326 C   0  0  0  0  0  0  0  0  0  0  0  0
    8.0463  -14.9118   25.2893 C   0  0  2  0  0  0  0  0  0  0  0  0
    7.4324  -15.1070   23.9907 N   0  0  0  0  0  0  0  0  0  0  0  0
    8.2430  -16.1689   26.0006 C   0  0  0  0  0  0  0  0  0  0  0  0
    7.2239  -16.7847   26.4068 O   0  0  0  0  0  0  0  0  0  0  0  0
   11.6642  -18.2300   25.4371 O   0  0  0  0  0  0  0  0  0  0  0  0
   10.5225  -18.8616   25.8773 C   0  0  0  0  0  0  0  0  0  0  0  0
    9.7398  -18.0100   26.8881 C   0  0  2  0  0  0  0  0  0  0  0  0
    9.5035  -16.7336   26.2591 N   0  0  0  0  0  0  0  0  0  0  0  0
   10.4957  -17.9101   28.1463 C   0  0  0  0  0  0  0  0  0  0  0  0
   10.7859  -19.0509   28.8559 O   0  0  0  0  0  0  0  0  0  0  0  0
   10.8709  -16.8017   28.5672 O   0  0  0  0  0  0  0  0  0  0  0  0
  2  1  1  6
  3  2  1  0
  4  3  1  0
  5  4  1  0
  6  5  2  0
  7  2  1  0
  7  8  2  0
  9  5  1  0
 10 11  1  0
 11 12  1  0
 12 13  1  1
 14 12  1  0
 14 15  1  6
 15  7  1  0
 16 14  1  0
 17 16  2  0
 19 18  1  0
 20 19  1  6
 20 22  1  0
 20 21  1  0
 21 16  1  0
 22 23  1  0
 24 22  2  0
M  END
$$$$
