EIS.pdb
     RDKit          3D

 24 23  0  0  1  0  0  0  0  0999 V2000
    8.3003  -14.5868   20.0681 N   0  0  0  0  0  0  0  0  0  0  0  0
    7.4296  -14.9090   21.1962 C   0  0  1  0  0  0  0  0  0  0  0  0
    6.8339  -16.2676   20.9591 C   0  0  0  0  0  0  0  0  0  0  0  0
    7.9559  -17.2854   20.9622 C   0  0  0  0  0  0  0  0  0  0  0  0
    7.4278  -18.6524   20.8220 C   0  0  0  0  0  0  0  0  0  0  0  0
    7.6863  -19.5977   21.6210 O   0  0  0  0  0  0  0  0  0  0  0  0
    8.1529  -14.8038   22.4771 C   0  0  0  0  0  0  0  0  0  0  0  0
    9.3884  -14.9668   22.4986 O   0  0  0  0  0  0  0  0  0  0  0  0
    6.5937  -18.9514   19.7591 O   0  0  0  0  0  0  0  0  0  0  0  0
    5.8889  -11.5075   26.1114 C   0  0  0  0  0  0  0  0  0  0  0  0
    6.9063  -12.2229   25.2322 C   0  0  0  0  0  0  0  0  0  0  0  0
    7.2307  -13.5696   25.8456 C   0  0  2  0  0  0  0  0  0  0  0  0
    7.9214  -13.3113   27.1687 C   0  0  0  0  0  0  0  0  0  0  0  0
    8.1083  -14.3744   24.9579 C   0  0  2  0  0  0  0  0  0  0  0  0
    7.4656  -14.5230   23.6672 N   0  0  0  0  0  0  0  0  0  0  0  0
    8.5689  -15.6492   25.4944 C   0  0  0  0  0  0  0  0  0  0  0  0
    7.7092  -16.5364   25.7322 O   0  0  0  0  0  0  0  0  0  0  0  0
   12.4354  -18.5306   26.1008 O   0  0  0  0  0  0  0  0  0  0  0  0
   11.7876  -17.4236   25.5994 C   0  0  0  0  0  0  0  0  0  0  0  0
   10.4176  -17.2035   26.2584 C   0  0  2  0  0  0  0  0  0  0  0  0
    9.9162  -15.9456   25.7613 N   0  0  0  0  0  0  0  0  0  0  0  0
   10.5577  -17.2389   27.7225 C   0  0  0  0  0  0  0  0  0  0  0  0
   10.3932  -16.0831   28.4479 O   0  0  0  0  0  0  0  0  0  0  0  0
   10.8232  -18.3065   28.3024 O   0  0  0  0  0  0  0  0  0  0  0  0
  2  1  1  6
  3  2  1  0
  4  3  1  0
  5  4  1  0
  6  5  2  0
  7  2  1  0
  7  8  2  0
  9  5  1  0
 10 11  1  0
 11 12  1  0
 12 13  1  1
 14 12  1  0
 14 15  1  6
 15  7  1  0
 16 14  1  0
 17 16  2  0
 19 18  1  0
 20 19  1  6
 20 22  1  0
 20 21  1  0
 21 16  1  0
 22 23  1  0
 24 22  2  0
M  END
$$$$
