EIS.pdb
     RDKit          3D

 24 23  0  0  1  0  0  0  0  0999 V2000
    8.1871  -14.7218   19.9896 N   0  0  0  0  0  0  0  0  0  0  0  0
    7.5264  -15.3070   21.1540 C   0  0  1  0  0  0  0  0  0  0  0  0
    7.4426  -16.7932   20.9512 C   0  0  0  0  0  0  0  0  0  0  0  0
    7.0128  -17.0542   19.5223 C   0  0  0  0  0  0  0  0  0  0  0  0
    6.8702  -18.4976   19.2701 C   0  0  0  0  0  0  0  0  0  0  0  0
    7.8365  -19.2707   19.0100 O   0  0  0  0  0  0  0  0  0  0  0  0
    8.2093  -14.9256   22.4042 C   0  0  0  0  0  0  0  0  0  0  0  0
    9.4521  -14.8322   22.4199 O   0  0  0  0  0  0  0  0  0  0  0  0
    5.6123  -19.0725   19.3138 O   0  0  0  0  0  0  0  0  0  0  0  0
    5.7329  -11.6358   25.9148 C   0  0  0  0  0  0  0  0  0  0  0  0
    6.7777  -12.3446   25.0628 C   0  0  0  0  0  0  0  0  0  0  0  0
    7.1343  -13.6653   25.7136 C   0  0  2  0  0  0  0  0  0  0  0  0
    7.7662  -13.3546   27.0546 C   0  0  0  0  0  0  0  0  0  0  0  0
    8.0749  -14.4494   24.8732 C   0  0  2  0  0  0  0  0  0  0  0  0
    7.4756  -14.6678   23.5715 N   0  0  0  0  0  0  0  0  0  0  0  0
    8.5845  -15.6830   25.4594 C   0  0  0  0  0  0  0  0  0  0  0  0
    7.7709  -16.6199   25.6665 O   0  0  0  0  0  0  0  0  0  0  0  0
   12.5917  -18.3347   26.1095 O   0  0  0  0  0  0  0  0  0  0  0  0
   11.9185  -17.2095   25.6887 C   0  0  0  0  0  0  0  0  0  0  0  0
   10.4997  -17.1286   26.2717 C   0  0  2  0  0  0  0  0  0  0  0  0
    9.9307  -15.8874   25.8064 N   0  0  0  0  0  0  0  0  0  0  0  0
   10.5572  -17.2312   27.7383 C   0  0  0  0  0  0  0  0  0  0  0  0
   10.8437  -18.4416   28.3230 O   0  0  0  0  0  0  0  0  0  0  0  0
   10.3483  -16.2305   28.4465 O   0  0  0  0  0  0  0  0  0  0  0  0
  2  1  1  6
  3  2  1  0
  4  3  1  0
  5  4  1  0
  6  5  2  0
  7  2  1  0
  7  8  2  0
  9  5  1  0
 10 11  1  0
 11 12  1  0
 12 13  1  1
 14 12  1  0
 14 15  1  6
 15  7  1  0
 16 14  1  0
 17 16  2  0
 19 18  1  0
 20 19  1  6
 20 22  1  0
 20 21  1  0
 21 16  1  0
 22 23  1  0
 24 22  2  0
M  END
$$$$
