EIS.pdb
     RDKit          3D

 24 23  0  0  1  0  0  0  0  0999 V2000
    8.0330  -14.6377   20.2761 N   0  0  0  0  0  0  0  0  0  0  0  0
    7.5862  -15.3483   21.4720 C   0  0  1  0  0  0  0  0  0  0  0  0
    7.7146  -16.8236   21.2194 C   0  0  0  0  0  0  0  0  0  0  0  0
    6.9333  -17.1608   19.9662 C   0  0  0  0  0  0  0  0  0  0  0  0
    6.9465  -18.6107   19.7110 C   0  0  0  0  0  0  0  0  0  0  0  0
    5.9671  -19.2563   19.2388 O   0  0  0  0  0  0  0  0  0  0  0  0
    8.3188  -14.8945   22.6687 C   0  0  0  0  0  0  0  0  0  0  0  0
    9.5459  -14.6888   22.5948 O   0  0  0  0  0  0  0  0  0  0  0  0
    8.0881  -19.3389   19.9958 O   0  0  0  0  0  0  0  0  0  0  0  0
    6.0900  -11.4916   26.0960 C   0  0  0  0  0  0  0  0  0  0  0  0
    7.1241  -12.2535   25.2774 C   0  0  0  0  0  0  0  0  0  0  0  0
    7.4468  -13.5575   25.9776 C   0  0  2  0  0  0  0  0  0  0  0  0
    8.1432  -13.2144   27.2782 C   0  0  0  0  0  0  0  0  0  0  0  0
    8.3187  -14.4223   25.1421 C   0  0  2  0  0  0  0  0  0  0  0  0
    7.6498  -14.6932   23.8849 N   0  0  0  0  0  0  0  0  0  0  0  0
    8.8145  -15.6379   25.7758 C   0  0  0  0  0  0  0  0  0  0  0  0
    7.9730  -16.4905   26.1600 O   0  0  0  0  0  0  0  0  0  0  0  0
   12.8206  -18.3384   26.5236 O   0  0  0  0  0  0  0  0  0  0  0  0
   12.1774  -17.2200   26.0421 C   0  0  0  0  0  0  0  0  0  0  0  0
   10.7150  -17.1451   26.5063 C   0  0  2  0  0  0  0  0  0  0  0  0
   10.1768  -15.9136   25.9826 N   0  0  0  0  0  0  0  0  0  0  0  0
   10.6532  -17.2323   27.9737 C   0  0  0  0  0  0  0  0  0  0  0  0
   10.8020  -18.4529   28.5877 O   0  0  0  0  0  0  0  0  0  0  0  0
   10.4675  -16.2095   28.6562 O   0  0  0  0  0  0  0  0  0  0  0  0
  2  1  1  6
  3  2  1  0
  4  3  1  0
  5  4  1  0
  6  5  2  0
  7  2  1  0
  7  8  2  0
  9  5  1  0
 10 11  1  0
 11 12  1  0
 12 13  1  1
 14 12  1  0
 14 15  1  6
 15  7  1  0
 16 14  1  0
 17 16  2  0
 19 18  1  0
 20 19  1  1
 20 22  1  0
 20 21  1  0
 21 16  1  0
 22 23  1  0
 24 22  2  0
M  END
$$$$
