EIS.pdb
     RDKit          3D

 24 23  0  0  1  0  0  0  0  0999 V2000
   10.3342  -17.1949   16.7491 N   0  0  0  0  0  0  0  0  0  0  0  0
    9.7004  -17.7006   17.9645 C   0  0  1  0  0  0  0  0  0  0  0  0
   10.2398  -19.0752   18.2407 C   0  0  0  0  0  0  0  0  0  0  0  0
    9.8919  -19.9668   17.0665 C   0  0  0  0  0  0  0  0  0  0  0  0
   10.9868  -20.9072   16.7763 C   0  0  0  0  0  0  0  0  0  0  0  0
   10.9352  -21.8017   15.8840 O   0  0  0  0  0  0  0  0  0  0  0  0
    9.8805  -16.7652   19.0903 C   0  0  0  0  0  0  0  0  0  0  0  0
   11.0305  -16.4103   19.4145 O   0  0  0  0  0  0  0  0  0  0  0  0
   12.1579  -20.8315   17.5095 O   0  0  0  0  0  0  0  0  0  0  0  0
    7.0433  -12.3839   19.5084 C   0  0  0  0  0  0  0  0  0  0  0  0
    8.1679  -13.4006   19.6543 C   0  0  0  0  0  0  0  0  0  0  0  0
    7.8589  -14.3170   20.8203 C   0  0  2  0  0  0  0  0  0  0  0  0
    7.8414  -13.4667   22.0737 C   0  0  0  0  0  0  0  0  0  0  0  0
    8.8713  -15.3962   20.9472 C   0  0  2  0  0  0  0  0  0  0  0  0
    8.7734  -16.2732   19.7973 N   0  0  0  0  0  0  0  0  0  0  0  0
    8.8698  -16.1337   22.2047 C   0  0  0  0  0  0  0  0  0  0  0  0
    7.9057  -16.9084   22.4351 O   0  0  0  0  0  0  0  0  0  0  0  0
   11.7488  -19.1384   23.3126 O   0  0  0  0  0  0  0  0  0  0  0  0
   11.1294  -18.0304   22.7788 C   0  0  0  0  0  0  0  0  0  0  0  0
   10.5043  -17.1362   23.8602 C   0  0  2  0  0  0  0  0  0  0  0  0
    9.8815  -16.0306   23.1743 N   0  0  0  0  0  0  0  0  0  0  0  0
   11.5378  -16.7200   24.8210 C   0  0  0  0  0  0  0  0  0  0  0  0
   12.4589  -15.7672   24.4564 O   0  0  0  0  0  0  0  0  0  0  0  0
   11.5799  -17.2257   25.9564 O   0  0  0  0  0  0  0  0  0  0  0  0
  2  1  1  6
  3  2  1  0
  4  3  1  0
  5  4  1  0
  6  5  2  0
  7  2  1  0
  7  8  2  0
  9  5  1  0
 10 11  1  0
 11 12  1  0
 12 13  1  1
 14 12  1  0
 14 15  1  6
 15  7  1  0
 16 14  1  0
 17 16  2  0
 19 18  1  0
 20 19  1  6
 20 22  1  0
 20 21  1  0
 21 16  1  0
 22 23  1  0
 24 22  2  0
M  END
$$$$
