EIS.pdb
     RDKit          3D

 24 23  0  0  1  0  0  0  0  0999 V2000
    9.1316  -18.2376   16.3468 N   0  0  0  0  0  0  0  0  0  0  0  0
    8.2621  -18.0154   17.4998 C   0  0  1  0  0  0  0  0  0  0  0  0
    7.7492  -19.3478   17.9673 C   0  0  0  0  0  0  0  0  0  0  0  0
    8.7299  -20.4153   17.5273 C   0  0  0  0  0  0  0  0  0  0  0  0
    8.6549  -21.5942   18.4059 C   0  0  0  0  0  0  0  0  0  0  0  0
    7.8883  -22.5797   18.2060 O   0  0  0  0  0  0  0  0  0  0  0  0
    8.9568  -17.2541   18.5546 C   0  0  0  0  0  0  0  0  0  0  0  0
   10.2008  -17.2924   18.6199 O   0  0  0  0  0  0  0  0  0  0  0  0
    9.4620  -21.6558   19.5283 O   0  0  0  0  0  0  0  0  0  0  0  0
    6.7188  -12.5232   20.0521 C   0  0  0  0  0  0  0  0  0  0  0  0
    7.7228  -13.6006   19.6637 C   0  0  0  0  0  0  0  0  0  0  0  0
    7.9126  -14.5452   20.8327 C   0  0  2  0  0  0  0  0  0  0  0  0
    8.4630  -13.7339   21.9873 C   0  0  0  0  0  0  0  0  0  0  0  0
    8.8444  -15.6508   20.4931 C   0  0  2  0  0  0  0  0  0  0  0  0
    8.2328  -16.4899   19.4817 N   0  0  0  0  0  0  0  0  0  0  0  0
    9.3577  -16.4260   21.6159 C   0  0  0  0  0  0  0  0  0  0  0  0
    8.5399  -17.1037   22.2901 O   0  0  0  0  0  0  0  0  0  0  0  0
   13.4581  -16.7638   22.1089 O   0  0  0  0  0  0  0  0  0  0  0  0
   12.6302  -17.7997   22.4801 C   0  0  0  0  0  0  0  0  0  0  0  0
   11.2794  -17.3014   23.0153 C   0  0  2  0  0  0  0  0  0  0  0  0
   10.7119  -16.4611   21.9893 N   0  0  0  0  0  0  0  0  0  0  0  0
   11.4771  -16.6059   24.2966 C   0  0  0  0  0  0  0  0  0  0  0  0
   11.8951  -17.3162   25.3966 O   0  0  0  0  0  0  0  0  0  0  0  0
   11.2682  -15.3833   24.3864 O   0  0  0  0  0  0  0  0  0  0  0  0
  2  1  1  6
  3  2  1  0
  4  3  1  0
  5  4  1  0
  6  5  2  0
  7  2  1  0
  7  8  2  0
  9  5  1  0
 10 11  1  0
 11 12  1  0
 12 13  1  1
 14 12  1  0
 14 15  1  6
 15  7  1  0
 16 14  1  0
 17 16  2  0
 19 18  1  0
 20 19  1  6
 20 22  1  0
 20 21  1  0
 21 16  1  0
 22 23  1  0
 24 22  2  0
M  END
$$$$
