EIS.pdb
     RDKit          3D

 24 23  0  0  1  0  0  0  0  0999 V2000
    7.9601  -14.1202   20.5406 N   0  0  0  0  0  0  0  0  0  0  0  0
    7.9081  -15.2081   21.5144 C   0  0  1  0  0  0  0  0  0  0  0  0
    8.5075  -16.4334   20.8850 C   0  0  0  0  0  0  0  0  0  0  0  0
    8.3660  -17.5852   21.8587 C   0  0  0  0  0  0  0  0  0  0  0  0
    8.8767  -18.8358   21.2735 C   0  0  0  0  0  0  0  0  0  0  0  0
    9.9084  -19.4410   21.6837 O   0  0  0  0  0  0  0  0  0  0  0  0
    8.5590  -14.8238   22.7807 C   0  0  0  0  0  0  0  0  0  0  0  0
    9.7477  -14.4495   22.7699 O   0  0  0  0  0  0  0  0  0  0  0  0
    8.2067  -19.4084   20.2067 O   0  0  0  0  0  0  0  0  0  0  0  0
    5.9614  -11.7822   26.1707 C   0  0  0  0  0  0  0  0  0  0  0  0
    7.0456  -12.4833   25.3627 C   0  0  0  0  0  0  0  0  0  0  0  0
    7.4369  -13.7660   26.0673 C   0  0  2  0  0  0  0  0  0  0  0  0
    8.0183  -13.3855   27.4132 C   0  0  0  0  0  0  0  0  0  0  0  0
    8.4313  -14.5380   25.2792 C   0  0  2  0  0  0  0  0  0  0  0  0
    7.8549  -14.8756   23.9928 N   0  0  0  0  0  0  0  0  0  0  0  0
    9.0165  -15.6968   25.9423 C   0  0  0  0  0  0  0  0  0  0  0  0
    8.2561  -16.6525   26.2441 O   0  0  0  0  0  0  0  0  0  0  0  0
   13.1896  -17.8631   27.2810 O   0  0  0  0  0  0  0  0  0  0  0  0
   12.4675  -16.9329   26.5671 C   0  0  0  0  0  0  0  0  0  0  0  0
   10.9873  -16.9066   26.9767 C   0  0  2  0  0  0  0  0  0  0  0  0
   10.3797  -15.8094   26.2641 N   0  0  0  0  0  0  0  0  0  0  0  0
   10.8772  -16.7858   28.4389 C   0  0  0  0  0  0  0  0  0  0  0  0
   11.1197  -17.8829   29.2305 O   0  0  0  0  0  0  0  0  0  0  0  0
   10.5668  -15.6990   28.9576 O   0  0  0  0  0  0  0  0  0  0  0  0
  2  1  1  6
  3  2  1  0
  4  3  1  0
  5  4  1  0
  6  5  2  0
  7  2  1  0
  7  8  2  0
  9  5  1  0
 10 11  1  0
 11 12  1  0
 12 13  1  1
 14 12  1  0
 14 15  1  6
 15  7  1  0
 16 14  1  0
 17 16  2  0
 19 18  1  0
 20 19  1  1
 20 22  1  0
 20 21  1  0
 21 16  1  0
 22 23  1  0
 24 22  2  0
M  END
$$$$
