EIS.pdb
     RDKit          3D

 24 23  0  0  1  0  0  0  0  0999 V2000
   25.9175 -330.0195  220.2854 N   0  0  0  0  0  0  0  0  0  0  0  0
   26.8486 -331.1114  220.0106 C   0  0  1  0  0  0  0  0  0  0  0  0
   27.1224 -331.1370  218.5336 C   0  0  0  0  0  0  0  0  0  0  0  0
   26.7268 -332.4989  218.0009 C   0  0  0  0  0  0  0  0  0  0  0  0
   27.6156 -333.5487  218.5255 C   0  0  0  0  0  0  0  0  0  0  0  0
   27.6842 -334.7202  218.0544 O   0  0  0  0  0  0  0  0  0  0  0  0
   28.0695 -330.9915  220.8290 C   0  0  0  0  0  0  0  0  0  0  0  0
   27.9901 -331.1008  222.0680 O   0  0  0  0  0  0  0  0  0  0  0  0
   28.4393 -333.2651  219.6006 O   0  0  0  0  0  0  0  0  0  0  0  0
   28.9977 -325.9154  220.0358 C   0  0  0  0  0  0  0  0  0  0  0  0
   29.8358 -327.1110  219.6021 C   0  0  0  0  0  0  0  0  0  0  0  0
   29.2678 -328.3674  220.2293 C   0  0  2  0  0  0  0  0  0  0  0  0
   29.8293 -328.4682  221.6324 C   0  0  0  0  0  0  0  0  0  0  0  0
   29.6268 -329.5769  219.4455 C   0  0  2  0  0  0  0  0  0  0  0  0
   29.3150 -330.7565  220.2279 N   0  0  0  0  0  0  0  0  0  0  0  0
   30.9810 -329.6147  218.9071 C   0  0  0  0  0  0  0  0  0  0  0  0
   31.7676 -328.6831  219.2179 O   0  0  0  0  0  0  0  0  0  0  0  0
   34.8264 -331.5239  217.4163 O   0  0  0  0  0  0  0  0  0  0  0  0
   33.4910 -331.4342  217.0925 C   0  0  0  0  0  0  0  0  0  0  0  0
   32.5869 -331.4880  218.3331 C   0  0  2  0  0  0  0  0  0  0  0  0
   31.4596 -330.6299  218.0616 N   0  0  0  0  0  0  0  0  0  0  0  0
   33.3517 -331.0879  219.5246 C   0  0  0  0  0  0  0  0  0  0  0  0
   32.6847 -330.7643  220.6819 O   0  0  0  0  0  0  0  0  0  0  0  0
   34.5939 -331.0421  219.4873 O   0  0  0  0  0  0  0  0  0  0  0  0
  2  1  1  6
  3  2  1  0
  4  3  1  0
  5  4  1  0
  6  5  2  0
  7  2  1  0
  7  8  2  0
  9  5  1  0
 10 11  1  0
 11 12  1  0
 12 13  1  1
 14 12  1  0
 14 15  1  1
 15  7  1  0
 16 14  1  0
 17 16  2  0
 19 18  1  0
 20 19  1  6
 20 22  1  0
 20 21  1  0
 21 16  1  0
 22 23  1  0
 24 22  2  0
M  END
$$$$
