EIS.pdb
     RDKit          3D

 24 23  0  0  1  0  0  0  0  0999 V2000
    8.0303  -15.1525   20.2626 N   0  0  0  0  0  0  0  0  0  0  0  0
    7.4327  -15.4990   21.5500 C   0  0  1  0  0  0  0  0  0  0  0  0
    7.0903  -16.9616   21.5326 C   0  0  0  0  0  0  0  0  0  0  0  0
    7.3554  -17.4949   20.1397 C   0  0  0  0  0  0  0  0  0  0  0  0
    6.9926  -18.9184   20.0425 C   0  0  0  0  0  0  0  0  0  0  0  0
    6.5298  -19.5992   21.0024 O   0  0  0  0  0  0  0  0  0  0  0  0
    8.3152  -15.1190   22.6688 C   0  0  0  0  0  0  0  0  0  0  0  0
    9.5513  -15.1894   22.5257 O   0  0  0  0  0  0  0  0  0  0  0  0
    7.1573  -19.5794   18.8380 O   0  0  0  0  0  0  0  0  0  0  0  0
    6.1269  -12.2668   27.0949 C   0  0  0  0  0  0  0  0  0  0  0  0
    6.5767  -13.4084   26.1926 C   0  0  0  0  0  0  0  0  0  0  0  0
    7.9737  -13.1168   25.6843 C   0  0  2  0  0  0  0  0  0  0  0  0
    7.8663  -11.9817   24.6872 C   0  0  0  0  0  0  0  0  0  0  0  0
    8.5779  -14.3104   25.0390 C   0  0  2  0  0  0  0  0  0  0  0  0
    7.7781  -14.6807   23.8882 N   0  0  0  0  0  0  0  0  0  0  0  0
    8.8460  -15.4462   25.9125 C   0  0  0  0  0  0  0  0  0  0  0  0
    7.8654  -16.1088   26.3394 O   0  0  0  0  0  0  0  0  0  0  0  0
   12.7256  -16.7062   26.3962 O   0  0  0  0  0  0  0  0  0  0  0  0
   11.7121  -17.6177   26.5919 C   0  0  0  0  0  0  0  0  0  0  0  0
   10.4441  -16.9640   27.1615 C   0  0  2  0  0  0  0  0  0  0  0  0
   10.1348  -15.8448   26.3056 N   0  0  0  0  0  0  0  0  0  0  0  0
   10.6678  -16.5820   28.5645 C   0  0  0  0  0  0  0  0  0  0  0  0
   10.9863  -17.5486   29.4883 O   0  0  0  0  0  0  0  0  0  0  0  0
   10.5699  -15.3928   28.9149 O   0  0  0  0  0  0  0  0  0  0  0  0
  2  1  1  6
  3  2  1  0
  4  3  1  0
  5  4  1  0
  6  5  2  0
  7  2  1  0
  7  8  2  0
  9  5  1  0
 10 11  1  0
 11 12  1  0
 12 13  1  6
 14 12  1  0
 14 15  1  6
 15  7  1  0
 16 14  1  0
 17 16  2  0
 19 18  1  0
 20 19  1  6
 20 22  1  0
 20 21  1  0
 21 16  1  0
 22 23  1  0
 24 22  2  0
M  END
$$$$
