EIS.pdb
     RDKit          3D

 24 23  0  0  1  0  0  0  0  0999 V2000
    8.6197  -15.1537   20.1564 N   0  0  0  0  0  0  0  0  0  0  0  0
    8.4278  -15.9715   21.3519 C   0  0  1  0  0  0  0  0  0  0  0  0
    9.0758  -17.3067   21.1188 C   0  0  0  0  0  0  0  0  0  0  0  0
    8.7345  -18.2105   22.2855 C   0  0  0  0  0  0  0  0  0  0  0  0
    8.4734  -19.5854   21.8285 C   0  0  0  0  0  0  0  0  0  0  0  0
    7.3294  -20.0225   21.5137 O   0  0  0  0  0  0  0  0  0  0  0  0
    8.9264  -15.2827   22.5567 C   0  0  0  0  0  0  0  0  0  0  0  0
   10.1191  -14.9248   22.6088 O   0  0  0  0  0  0  0  0  0  0  0  0
    9.5262  -20.4777   21.7270 O   0  0  0  0  0  0  0  0  0  0  0  0
    6.7398  -11.6246   26.8423 C   0  0  0  0  0  0  0  0  0  0  0  0
    7.8440  -12.6149   26.4958 C   0  0  0  0  0  0  0  0  0  0  0  0
    7.4164  -13.4329   25.2946 C   0  0  2  0  0  0  0  0  0  0  0  0
    6.1798  -14.2118   25.6926 C   0  0  0  0  0  0  0  0  0  0  0  0
    8.4898  -14.3627   24.8597 C   0  0  2  0  0  0  0  0  0  0  0  0
    8.0736  -15.0275   23.6407 N   0  0  0  0  0  0  0  0  0  0  0  0
    8.9705  -15.3035   25.8642 C   0  0  0  0  0  0  0  0  0  0  0  0
    8.2471  -16.2950   26.1404 O   0  0  0  0  0  0  0  0  0  0  0  0
   12.6321  -16.1827   25.9938 O   0  0  0  0  0  0  0  0  0  0  0  0
   12.2607  -16.0861   27.3163 C   0  0  0  0  0  0  0  0  0  0  0  0
   10.7351  -16.1063   27.4948 C   0  0  2  0  0  0  0  0  0  0  0  0
   10.1941  -15.1684   26.5417 N   0  0  0  0  0  0  0  0  0  0  0  0
   10.3925  -15.7853   28.8892 C   0  0  0  0  0  0  0  0  0  0  0  0
   10.7738  -16.6402   29.8956 O   0  0  0  0  0  0  0  0  0  0  0  0
    9.7619  -14.7477   29.1580 O   0  0  0  0  0  0  0  0  0  0  0  0
  2  1  1  6
  3  2  1  0
  4  3  1  0
  5  4  1  0
  6  5  2  0
  7  2  1  0
  7  8  2  0
  9  5  1  0
 10 11  1  0
 11 12  1  0
 12 13  1  1
 14 12  1  0
 14 15  1  6
 15  7  1  0
 16 14  1  0
 17 16  2  0
 19 18  1  0
 20 19  1  1
 20 22  1  0
 20 21  1  0
 21 16  1  0
 22 23  1  0
 24 22  2  0
M  END
$$$$
