EIS.pdb
     RDKit          3D

 24 23  0  0  1  0  0  0  0  0999 V2000
    9.0591  -15.7583   20.1836 N   0  0  0  0  0  0  0  0  0  0  0  0
    8.2700  -16.0901   21.3676 C   0  0  1  0  0  0  0  0  0  0  0  0
    8.1142  -17.5831   21.4272 C   0  0  0  0  0  0  0  0  0  0  0  0
    7.5563  -18.0558   20.1006 C   0  0  0  0  0  0  0  0  0  0  0  0
    7.3997  -19.5196   20.0863 C   0  0  0  0  0  0  0  0  0  0  0  0
    6.7107  -20.1671   20.9260 O   0  0  0  0  0  0  0  0  0  0  0  0
    8.8684  -15.5161   22.5871 C   0  0  0  0  0  0  0  0  0  0  0  0
   10.1090  -15.4611   22.6938 O   0  0  0  0  0  0  0  0  0  0  0  0
    8.0343  -20.2599   19.1044 O   0  0  0  0  0  0  0  0  0  0  0  0
    7.2488  -11.6713   27.0421 C   0  0  0  0  0  0  0  0  0  0  0  0
    8.1942  -12.7885   26.6204 C   0  0  0  0  0  0  0  0  0  0  0  0
    7.6643  -13.4351   25.3571 C   0  0  2  0  0  0  0  0  0  0  0  0
    6.2978  -14.0047   25.6773 C   0  0  0  0  0  0  0  0  0  0  0  0
    8.5682  -14.5112   24.8764 C   0  0  2  0  0  0  0  0  0  0  0  0
    8.0571  -15.0331   23.6244 N   0  0  0  0  0  0  0  0  0  0  0  0
    8.8718  -15.5695   25.8319 C   0  0  0  0  0  0  0  0  0  0  0  0
    7.9213  -16.2798   26.2499 O   0  0  0  0  0  0  0  0  0  0  0  0
   12.4521  -18.3582   27.5734 O   0  0  0  0  0  0  0  0  0  0  0  0
   11.9470  -17.3710   26.7568 C   0  0  0  0  0  0  0  0  0  0  0  0
   10.5264  -16.9509   27.1629 C   0  0  2  0  0  0  0  0  0  0  0  0
   10.1632  -15.8432   26.3132 N   0  0  0  0  0  0  0  0  0  0  0  0
   10.4948  -16.6221   28.5966 C   0  0  0  0  0  0  0  0  0  0  0  0
   10.5681  -17.6321   29.5260 O   0  0  0  0  0  0  0  0  0  0  0  0
   10.4024  -15.4388   28.9676 O   0  0  0  0  0  0  0  0  0  0  0  0
  2  1  1  6
  3  2  1  0
  4  3  1  0
  5  4  1  0
  6  5  2  0
  7  2  1  0
  7  8  2  0
  9  5  1  0
 10 11  1  0
 11 12  1  0
 12 13  1  1
 14 12  1  0
 14 15  1  6
 15  7  1  0
 16 14  1  0
 17 16  2  0
 19 18  1  0
 20 19  1  6
 20 22  1  0
 20 21  1  0
 21 16  1  0
 22 23  1  0
 24 22  2  0
M  END
$$$$
