EIS.pdb
     RDKit          3D

 24 23  0  0  1  0  0  0  0  0999 V2000
    9.8008  -18.4652   16.7463 N   0  0  0  0  0  0  0  0  0  0  0  0
    8.9001  -18.3647   17.8923 C   0  0  1  0  0  0  0  0  0  0  0  0
    8.6682  -19.7472   18.4324 C   0  0  0  0  0  0  0  0  0  0  0  0
    9.9863  -20.4932   18.4102 C   0  0  0  0  0  0  0  0  0  0  0  0
    9.7834  -21.9294   18.6622 C   0  0  0  0  0  0  0  0  0  0  0  0
   10.7155  -22.7835   18.6867 O   0  0  0  0  0  0  0  0  0  0  0  0
    9.4210  -17.4233   18.9008 C   0  0  0  0  0  0  0  0  0  0  0  0
   10.6508  -17.3425   19.0867 O   0  0  0  0  0  0  0  0  0  0  0  0
    8.5035  -22.4037   18.8897 O   0  0  0  0  0  0  0  0  0  0  0  0
    7.7392  -12.0109   20.9481 C   0  0  0  0  0  0  0  0  0  0  0  0
    8.6316  -13.2180   21.2061 C   0  0  0  0  0  0  0  0  0  0  0  0
    8.1136  -14.3964   20.4074 C   0  0  2  0  0  0  0  0  0  0  0  0
    6.7147  -14.7005   20.9022 C   0  0  0  0  0  0  0  0  0  0  0  0
    8.9849  -15.5883   20.5692 C   0  0  2  0  0  0  0  0  0  0  0  0
    8.5482  -16.6207   19.6503 N   0  0  0  0  0  0  0  0  0  0  0  0
    9.1405  -16.0903   21.9289 C   0  0  0  0  0  0  0  0  0  0  0  0
    8.1175  -16.5208   22.5214 O   0  0  0  0  0  0  0  0  0  0  0  0
   12.6585  -17.5335   23.0495 O   0  0  0  0  0  0  0  0  0  0  0  0
   11.5295  -17.8654   23.7648 C   0  0  0  0  0  0  0  0  0  0  0  0
   10.5762  -16.6728   23.9331 C   0  0  2  0  0  0  0  0  0  0  0  0
   10.3654  -16.1221   22.6167 N   0  0  0  0  0  0  0  0  0  0  0  0
   11.1486  -15.7080   24.8850 C   0  0  0  0  0  0  0  0  0  0  0  0
   11.4067  -14.4219   24.4748 O   0  0  0  0  0  0  0  0  0  0  0  0
   11.3982  -16.0516   26.0538 O   0  0  0  0  0  0  0  0  0  0  0  0
  2  1  1  6
  3  2  1  0
  4  3  1  0
  5  4  1  0
  6  5  2  0
  7  2  1  0
  7  8  2  0
  9  5  1  0
 10 11  1  0
 11 12  1  0
 12 13  1  1
 14 12  1  0
 14 15  1  6
 15  7  1  0
 16 14  1  0
 17 16  2  0
 19 18  1  0
 20 19  1  6
 20 22  1  0
 20 21  1  0
 21 16  1  0
 22 23  1  0
 24 22  2  0
M  END
$$$$
