FSD.pdb
     RDKit          3D

 26 26  0  0  1  0  0  0  0  0999 V2000
   18.4538   -9.3072  -13.2562 N   0  0  0  0  0  0  0  0  0  0  0  0
   18.8227   -8.3192  -12.2409 C   0  0  1  0  0  0  0  0  0  0  0  0
   19.9973   -7.5269  -12.7151 C   0  0  0  0  0  0  0  0  0  0  0  0
   21.2424   -8.2788  -12.8715 C   0  0  0  0  0  0  0  0  0  0  0  0
   21.8528   -8.9504  -11.8099 C   0  0  0  0  0  0  0  0  0  0  0  0
   23.0226   -9.6463  -12.0279 C   0  0  0  0  0  0  0  0  0  0  0  0
   23.6017   -9.6955  -13.2607 C   0  0  0  0  0  0  0  0  0  0  0  0
   23.0292   -9.0492  -14.3190 C   0  0  0  0  0  0  0  0  0  0  0  0
   21.8445   -8.3407  -14.1131 C   0  0  0  0  0  0  0  0  0  0  0  0
   17.6322   -7.4699  -12.0113 C   0  0  0  0  0  0  0  0  0  0  0  0
   16.9094   -7.1650  -12.9843 O   0  0  0  0  0  0  0  0  0  0  0  0
   16.8251   -5.9257   -8.2958 O   0  0  0  0  0  0  0  0  0  0  0  0
   15.7019   -6.2123   -9.0957 C   0  0  0  0  0  0  0  0  0  0  0  0
   16.1326   -6.0952  -10.5225 C   0  0  2  0  0  0  0  0  0  0  0  0
   17.2643   -6.9781  -10.7288 N   0  0  0  0  0  0  0  0  0  0  0  0
   16.4189   -4.7158  -10.9506 C   0  0  0  0  0  0  0  0  0  0  0  0
   17.6093   -4.3127  -10.8813 O   0  0  0  0  0  0  0  0  0  0  0  0
   15.4446   -3.8133  -11.4350 N   0  0  0  0  0  0  0  0  0  0  0  0
   15.7349   -2.4587  -11.8366 C   0  0  1  0  0  0  0  0  0  0  0  0
   14.8267   -1.9435  -12.9033 C   0  0  0  0  0  0  0  0  0  0  0  0
   15.0715   -0.5630  -13.3032 C   0  0  0  0  0  0  0  0  0  0  0  0
   14.2205    0.3261  -13.0750 O   0  0  0  0  0  0  0  0  0  0  0  0
   15.8065   -1.5405  -10.6939 C   0  0  0  0  0  0  0  0  0  0  0  0
   15.1234   -1.7976   -9.6702 O   0  0  0  0  0  0  0  0  0  0  0  0
   16.2440   -0.1999  -13.9419 O   0  0  0  0  0  0  0  0  0  0  0  0
   16.5885   -0.3953  -10.6737 O   0  0  0  0  0  0  0  0  0  0  0  0
  2  1  1  6
  3  2  1  0
  4  9  2  0
  4  3  1  0
  5  4  1  0
  6  7  1  0
  6  5  2  0
  7  8  2  0
  8  9  1  0
 10  2  1  0
 10 11  2  0
 13 12  1  0
 14 15  1  0
 14 13  1  1
 15 10  1  0
 16 14  1  0
 17 16  2  0
 18 16  1  0
 19 23  1  0
 19 18  1  0
 19 20  1  6
 20 21  1  0
 21 22  2  0
 23 26  1  0
 24 23  2  0
 25 21  1  0
M  END
$$$$
