FSD.pdb
     RDKit          3D

 26 26  0  0  1  0  0  0  0  0999 V2000
   26.2473  -12.4140  -16.4059 N   0  0  0  0  0  0  0  0  0  0  0  0
   25.3215  -11.7378  -17.3163 C   0  0  1  0  0  0  0  0  0  0  0  0
   23.9831  -12.3987  -17.2530 C   0  0  0  0  0  0  0  0  0  0  0  0
   23.9260  -13.7582  -17.7901 C   0  0  0  0  0  0  0  0  0  0  0  0
   24.1274  -14.0405  -19.1431 C   0  0  0  0  0  0  0  0  0  0  0  0
   24.0665  -15.3458  -19.5820 C   0  0  0  0  0  0  0  0  0  0  0  0
   23.8131  -16.3736  -18.7236 C   0  0  0  0  0  0  0  0  0  0  0  0
   23.6119  -16.1302  -17.3948 C   0  0  0  0  0  0  0  0  0  0  0  0
   23.6708  -14.8134  -16.9361 C   0  0  0  0  0  0  0  0  0  0  0  0
   25.2639  -10.3187  -16.8989 C   0  0  0  0  0  0  0  0  0  0  0  0
   25.2961  -10.0444  -15.6799 O   0  0  0  0  0  0  0  0  0  0  0  0
   24.5171   -7.2155  -19.5898 O   0  0  0  0  0  0  0  0  0  0  0  0
   25.4327   -6.9815  -18.5456 C   0  0  0  0  0  0  0  0  0  0  0  0
   25.0349   -7.8592  -17.4025 C   0  0  2  0  0  0  0  0  0  0  0  0
   25.1729   -9.2405  -17.8216 N   0  0  0  0  0  0  0  0  0  0  0  0
   23.6942   -7.5729  -16.8657 C   0  0  0  0  0  0  0  0  0  0  0  0
   22.7662   -8.3785  -17.1381 O   0  0  0  0  0  0  0  0  0  0  0  0
   23.3796   -6.4521  -16.0635 N   0  0  0  0  0  0  0  0  0  0  0  0
   22.0613   -6.1816  -15.5444 C   0  0  1  0  0  0  0  0  0  0  0  0
   21.4498   -7.3416  -14.8313 C   0  0  0  0  0  0  0  0  0  0  0  0
   20.0933   -7.1173  -14.3460 C   0  0  0  0  0  0  0  0  0  0  0  0
   19.1957   -6.7240  -15.1247 O   0  0  0  0  0  0  0  0  0  0  0  0
   22.0211   -4.9611  -14.7304 C   0  0  0  0  0  0  0  0  0  0  0  0
   23.0603   -4.6127  -14.1144 O   0  0  0  0  0  0  0  0  0  0  0  0
   19.7630   -7.3318  -13.0197 O   0  0  0  0  0  0  0  0  0  0  0  0
   20.8964   -4.1606  -14.5974 O   0  0  0  0  0  0  0  0  0  0  0  0
  2  1  1  1
  3  2  1  0
  4  9  2  0
  4  3  1  0
  5  4  1  0
  6  7  1  0
  6  5  2  0
  7  8  2  0
  8  9  1  0
 10  2  1  0
 10 11  2  0
 13 12  1  0
 14 15  1  0
 14 13  1  6
 15 10  1  0
 16 14  1  0
 17 16  2  0
 18 16  1  0
 19 23  1  0
 19 18  1  0
 19 20  1  1
 20 21  1  0
 21 22  2  0
 23 26  1  0
 24 23  2  0
 25 21  1  0
M  END
$$$$
