FSD.pdb
     RDKit          3D

 26 26  0  0  1  0  0  0  0  0999 V2000
   25.8189  -33.5084  -14.0580 N   0  0  0  0  0  0  0  0  0  0  0  0
   25.1967  -34.2832  -12.9829 C   0  0  1  0  0  0  0  0  0  0  0  0
   25.8601  -35.6176  -12.8774 C   0  0  0  0  0  0  0  0  0  0  0  0
   25.5196  -36.5753  -13.9294 C   0  0  0  0  0  0  0  0  0  0  0  0
   24.2910  -37.2384  -13.9727 C   0  0  0  0  0  0  0  0  0  0  0  0
   24.0319  -38.1241  -14.9967 C   0  0  0  0  0  0  0  0  0  0  0  0
   24.9498  -38.3702  -15.9735 C   0  0  0  0  0  0  0  0  0  0  0  0
   26.1603  -37.7376  -15.9592 C   0  0  0  0  0  0  0  0  0  0  0  0
   26.4365  -36.8381  -14.9285 C   0  0  0  0  0  0  0  0  0  0  0  0
   25.3371  -33.4898  -11.7411 C   0  0  0  0  0  0  0  0  0  0  0  0
   26.4014  -32.8670  -11.5377 O   0  0  0  0  0  0  0  0  0  0  0  0
   22.1889  -33.1605   -9.4527 O   0  0  0  0  0  0  0  0  0  0  0  0
   23.1092  -32.1471   -9.1215 C   0  0  0  0  0  0  0  0  0  0  0  0
   24.4628  -32.6234   -9.5410 C   0  0  2  0  0  0  0  0  0  0  0  0
   24.3141  -33.3985  -10.7576 N   0  0  0  0  0  0  0  0  0  0  0  0
   25.1878  -33.3644   -8.4955 C   0  0  0  0  0  0  0  0  0  0  0  0
   25.4056  -34.5895   -8.6852 O   0  0  0  0  0  0  0  0  0  0  0  0
   25.6563  -32.7905   -7.2915 N   0  0  0  0  0  0  0  0  0  0  0  0
   26.2933  -33.5429   -6.2387 C   0  0  1  0  0  0  0  0  0  0  0  0
   26.7292  -32.7040   -5.0835 C   0  0  0  0  0  0  0  0  0  0  0  0
   27.8004  -33.2783   -4.2782 C   0  0  0  0  0  0  0  0  0  0  0  0
   28.2833  -34.3967   -4.5658 O   0  0  0  0  0  0  0  0  0  0  0  0
   25.4859  -34.6888   -5.8037 C   0  0  0  0  0  0  0  0  0  0  0  0
   24.3068  -34.4838   -5.4185 O   0  0  0  0  0  0  0  0  0  0  0  0
   28.3095  -32.6069   -3.1807 O   0  0  0  0  0  0  0  0  0  0  0  0
   25.9480  -35.9963   -5.7912 O   0  0  0  0  0  0  0  0  0  0  0  0
  2  1  1  6
  3  2  1  0
  4  9  2  0
  4  3  1  0
  5  4  1  0
  6  7  1  0
  6  5  2  0
  7  8  2  0
  8  9  1  0
 10  2  1  0
 10 11  2  0
 13 12  1  0
 14 15  1  0
 14 13  1  1
 15 10  1  0
 16 14  1  0
 17 16  2  0
 18 16  1  0
 19 23  1  0
 19 18  1  0
 19 20  1  1
 20 21  1  0
 21 22  2  0
 23 26  1  0
 24 23  2  0
 25 21  1  0
M  END
$$$$
