FSD.pdb
     RDKit          3D

 26 26  0  0  1  0  0  0  0  0999 V2000
   23.3029  -16.7677  -16.1868 N   0  0  0  0  0  0  0  0  0  0  0  0
   22.6415  -18.0736  -16.2019 C   0  0  1  0  0  0  0  0  0  0  0  0
   23.6414  -19.1389  -16.5140 C   0  0  0  0  0  0  0  0  0  0  0  0
   24.1815  -19.1170  -17.8734 C   0  0  0  0  0  0  0  0  0  0  0  0
   23.3685  -19.1988  -19.0061 C   0  0  0  0  0  0  0  0  0  0  0  0
   23.9424  -19.1656  -20.2591 C   0  0  0  0  0  0  0  0  0  0  0  0
   25.2910  -19.0543  -20.4208 C   0  0  0  0  0  0  0  0  0  0  0  0
   26.1128  -18.9721  -19.3329 C   0  0  0  0  0  0  0  0  0  0  0  0
   25.5457  -19.0044  -18.0581 C   0  0  0  0  0  0  0  0  0  0  0  0
   22.0235  -18.2607  -14.8698 C   0  0  0  0  0  0  0  0  0  0  0  0
   22.6799  -17.9584  -13.8501 O   0  0  0  0  0  0  0  0  0  0  0  0
   18.1226  -18.1748  -14.3235 O   0  0  0  0  0  0  0  0  0  0  0  0
   18.9918  -17.9785  -13.2329 C   0  0  0  0  0  0  0  0  0  0  0  0
   20.1135  -18.9562  -13.3787 C   0  0  2  0  0  0  0  0  0  0  0  0
   20.7089  -18.7715  -14.6880 N   0  0  0  0  0  0  0  0  0  0  0  0
   19.7237  -20.3555  -13.1381 C   0  0  0  0  0  0  0  0  0  0  0  0
   19.4118  -21.0595  -14.1337 O   0  0  0  0  0  0  0  0  0  0  0  0
   19.6767  -20.9614  -11.8617 N   0  0  0  0  0  0  0  0  0  0  0  0
   19.1811  -22.2950  -11.6244 C   0  0  1  0  0  0  0  0  0  0  0  0
   19.4601  -22.8006  -10.2480 C   0  0  0  0  0  0  0  0  0  0  0  0
   19.1344  -24.2053  -10.0328 C   0  0  0  0  0  0  0  0  0  0  0  0
   18.6902  -24.9064  -10.9698 O   0  0  0  0  0  0  0  0  0  0  0  0
   17.7636  -22.4353  -11.9776 C   0  0  0  0  0  0  0  0  0  0  0  0
   16.9617  -21.5344  -11.6222 O   0  0  0  0  0  0  0  0  0  0  0  0
   19.3064  -24.7985   -8.7947 O   0  0  0  0  0  0  0  0  0  0  0  0
   17.2490  -23.5107  -12.6861 O   0  0  0  0  0  0  0  0  0  0  0  0
  2  1  1  1
  3  2  1  0
  4  9  2  0
  4  3  1  0
  5  4  1  0
  6  7  1  0
  6  5  2  0
  7  8  2  0
  8  9  1  0
 10  2  1  0
 10 11  2  0
 13 12  1  0
 14 15  1  0
 14 13  1  6
 15 10  1  0
 16 14  1  0
 17 16  2  0
 18 16  1  0
 19 23  1  0
 19 18  1  0
 19 20  1  1
 20 21  1  0
 21 22  2  0
 23 26  1  0
 24 23  2  0
 25 21  1  0
M  END
$$$$
