FSD.pdb
     RDKit          3D

 26 26  0  0  1  0  0  0  0  0999 V2000
   25.1793  -20.1734   -9.1389 N   0  0  0  0  0  0  0  0  0  0  0  0
   25.8825  -20.2815  -10.4183 C   0  0  1  0  0  0  0  0  0  0  0  0
   26.6722  -21.5493  -10.4512 C   0  0  0  0  0  0  0  0  0  0  0  0
   28.0886  -21.4182  -10.1097 C   0  0  0  0  0  0  0  0  0  0  0  0
   29.0954  -21.3922  -11.0774 C   0  0  0  0  0  0  0  0  0  0  0  0
   30.4108  -21.2594  -10.6871 C   0  0  0  0  0  0  0  0  0  0  0  0
   30.7552  -21.1523   -9.3728 C   0  0  0  0  0  0  0  0  0  0  0  0
   29.7939  -21.1744   -8.4028 C   0  0  0  0  0  0  0  0  0  0  0  0
   28.4578  -21.3082   -8.7833 C   0  0  0  0  0  0  0  0  0  0  0  0
   24.8541  -20.2362  -11.4821 C   0  0  0  0  0  0  0  0  0  0  0  0
   23.6588  -20.4376  -11.1776 O   0  0  0  0  0  0  0  0  0  0  0  0
   25.8976  -19.5496  -15.3655 O   0  0  0  0  0  0  0  0  0  0  0  0
   24.8513  -18.7473  -14.8705 C   0  0  0  0  0  0  0  0  0  0  0  0
   24.1604  -19.5306  -13.8008 C   0  0  2  0  0  0  0  0  0  0  0  0
   25.1583  -19.9729  -12.8460 N   0  0  0  0  0  0  0  0  0  0  0  0
   23.3438  -20.6460  -14.3076 C   0  0  0  0  0  0  0  0  0  0  0  0
   23.8659  -21.7908  -14.3407 O   0  0  0  0  0  0  0  0  0  0  0  0
   22.0106  -20.5163  -14.7597 N   0  0  0  0  0  0  0  0  0  0  0  0
   21.2059  -21.6242  -15.2131 C   0  0  1  0  0  0  0  0  0  0  0  0
   19.9165  -21.7683  -14.4751 C   0  0  0  0  0  0  0  0  0  0  0  0
   19.1031  -22.9091  -14.8785 C   0  0  0  0  0  0  0  0  0  0  0  0
   18.4717  -22.8903  -15.9591 O   0  0  0  0  0  0  0  0  0  0  0  0
   21.0010  -21.6078  -16.6663 C   0  0  0  0  0  0  0  0  0  0  0  0
   21.0457  -20.5054  -17.2691 O   0  0  0  0  0  0  0  0  0  0  0  0
   19.0074  -24.0370  -14.0827 O   0  0  0  0  0  0  0  0  0  0  0  0
   20.7586  -22.7446  -17.4229 O   0  0  0  0  0  0  0  0  0  0  0  0
  2  1  1  1
  3  2  1  0
  4  9  2  0
  4  3  1  0
  5  4  1  0
  6  7  1  0
  6  5  2  0
  7  8  2  0
  8  9  1  0
 10  2  1  0
 10 11  2  0
 13 12  1  0
 14 15  1  0
 14 13  1  6
 15 10  1  0
 16 14  1  0
 17 16  2  0
 18 16  1  0
 19 23  1  0
 19 18  1  0
 19 20  1  1
 20 21  1  0
 21 22  2  0
 23 26  1  0
 24 23  2  0
 25 21  1  0
M  END
$$$$
