FSD.pdb
     RDKit          3D

 26 26  0  0  1  0  0  0  0  0999 V2000
   21.2048  -11.6020  -19.1762 N   0  0  0  0  0  0  0  0  0  0  0  0
   21.9221  -10.3384  -18.9977 C   0  0  1  0  0  0  0  0  0  0  0  0
   21.7533   -9.4894  -20.2155 C   0  0  0  0  0  0  0  0  0  0  0  0
   22.4077   -9.9866  -21.4256 C   0  0  0  0  0  0  0  0  0  0  0  0
   21.6907  -10.4519  -22.5302 C   0  0  0  0  0  0  0  0  0  0  0  0
   22.3704  -10.9007  -23.6423 C   0  0  0  0  0  0  0  0  0  0  0  0
   23.7324  -10.9018  -23.6910 C   0  0  0  0  0  0  0  0  0  0  0  0
   24.4620  -10.4530  -22.6271 C   0  0  0  0  0  0  0  0  0  0  0  0
   23.7872   -9.9955  -21.4943 C   0  0  0  0  0  0  0  0  0  0  0  0
   21.3673   -9.6937  -17.7861 C   0  0  0  0  0  0  0  0  0  0  0  0
   20.1267   -9.6281  -17.6494 O   0  0  0  0  0  0  0  0  0  0  0  0
   21.6164  -10.2805  -14.1063 O   0  0  0  0  0  0  0  0  0  0  0  0
   22.2684   -9.0616  -14.3760 C   0  0  0  0  0  0  0  0  0  0  0  0
   21.6283   -8.4767  -15.5939 C   0  0  2  0  0  0  0  0  0  0  0  0
   22.1803   -9.1396  -16.7594 N   0  0  0  0  0  0  0  0  0  0  0  0
   21.7391   -7.0113  -15.6838 C   0  0  0  0  0  0  0  0  0  0  0  0
   22.7436   -6.5315  -16.2712 O   0  0  0  0  0  0  0  0  0  0  0  0
   20.7911   -6.1064  -15.1537 N   0  0  0  0  0  0  0  0  0  0  0  0
   20.9575   -4.6737  -15.1621 C   0  0  1  0  0  0  0  0  0  0  0  0
   19.6805   -3.9222  -14.9817 C   0  0  0  0  0  0  0  0  0  0  0  0
   19.8046   -2.4721  -15.0688 C   0  0  0  0  0  0  0  0  0  0  0  0
   20.8320   -1.9495  -15.5566 O   0  0  0  0  0  0  0  0  0  0  0  0
   21.9892   -4.2256  -14.2194 C   0  0  0  0  0  0  0  0  0  0  0  0
   22.3872   -3.0346  -14.2825 O   0  0  0  0  0  0  0  0  0  0  0  0
   18.7962   -1.6390  -14.6175 O   0  0  0  0  0  0  0  0  0  0  0  0
   22.5578   -5.0429  -13.2540 O   0  0  0  0  0  0  0  0  0  0  0  0
  2  1  1  6
  3  2  1  0
  4  9  2  0
  4  3  1  0
  5  4  1  0
  6  7  1  0
  6  5  2  0
  7  8  2  0
  8  9  1  0
 10  2  1  0
 10 11  2  0
 13 12  1  0
 14 15  1  0
 14 13  1  1
 15 10  1  0
 16 14  1  0
 17 16  2  0
 18 16  1  0
 19 23  1  0
 19 18  1  0
 19 20  1  1
 20 21  1  0
 21 22  2  0
 23 26  1  0
 24 23  2  0
 25 21  1  0
M  END
$$$$
