FSD.pdb
     RDKit          3D

 26 26  0  0  1  0  0  0  0  0999 V2000
   23.6948   -9.8852  -17.8372 N   0  0  0  0  0  0  0  0  0  0  0  0
   23.3732   -9.0221  -16.6993 C   0  0  1  0  0  0  0  0  0  0  0  0
   24.5876   -8.2510  -16.2956 C   0  0  0  0  0  0  0  0  0  0  0  0
   25.7814   -9.0521  -16.0254 C   0  0  0  0  0  0  0  0  0  0  0  0
   25.8355   -9.9966  -14.9979 C   0  0  0  0  0  0  0  0  0  0  0  0
   26.9906  -10.7230  -14.8019 C   0  0  0  0  0  0  0  0  0  0  0  0
   28.0873  -10.5413  -15.5904 C   0  0  0  0  0  0  0  0  0  0  0  0
   28.0658   -9.6254  -16.6034 C   0  0  0  0  0  0  0  0  0  0  0  0
   26.9030   -8.8828  -16.8136 C   0  0  0  0  0  0  0  0  0  0  0  0
   22.2664   -8.1371  -17.1271 C   0  0  0  0  0  0  0  0  0  0  0  0
   22.2144   -7.7658  -18.3193 O   0  0  0  0  0  0  0  0  0  0  0  0
   19.1639   -7.1921  -14.5696 O   0  0  0  0  0  0  0  0  0  0  0  0
   18.8998   -7.3950  -15.9380 C   0  0  0  0  0  0  0  0  0  0  0  0
   20.0994   -6.9234  -16.6955 C   0  0  2  0  0  0  0  0  0  0  0  0
   21.2489   -7.6830  -16.2435 N   0  0  0  0  0  0  0  0  0  0  0  0
   20.3264   -5.4710  -16.6141 C   0  0  0  0  0  0  0  0  0  0  0  0
   21.0361   -5.0378  -15.6691 O   0  0  0  0  0  0  0  0  0  0  0  0
   19.7998   -4.5297  -17.5280 N   0  0  0  0  0  0  0  0  0  0  0  0
   19.9958   -3.1052  -17.4147 C   0  0  1  0  0  0  0  0  0  0  0  0
   19.9157   -2.3848  -18.7196 C   0  0  0  0  0  0  0  0  0  0  0  0
   20.9005   -2.8005  -19.7111 C   0  0  0  0  0  0  0  0  0  0  0  0
   20.5364   -3.2176  -20.8338 O   0  0  0  0  0  0  0  0  0  0  0  0
   19.1196   -2.4993  -16.4052 C   0  0  0  0  0  0  0  0  0  0  0  0
   18.0910   -3.1263  -16.0451 O   0  0  0  0  0  0  0  0  0  0  0  0
   22.2562   -2.7458  -19.4400 O   0  0  0  0  0  0  0  0  0  0  0  0
   19.3585   -1.2657  -15.8183 O   0  0  0  0  0  0  0  0  0  0  0  0
  2  1  1  6
  3  2  1  0
  4  9  2  0
  4  3  1  0
  5  4  1  0
  6  7  1  0
  6  5  2  0
  7  8  2  0
  8  9  1  0
 10  2  1  0
 10 11  2  0
 13 12  1  0
 14 15  1  0
 14 13  1  1
 15 10  1  0
 16 14  1  0
 17 16  2  0
 18 16  1  0
 19 23  1  0
 19 18  1  0
 19 20  1  6
 20 21  1  0
 21 22  2  0
 23 26  1  0
 24 23  2  0
 25 21  1  0
M  END
$$$$
