FSD.pdb
     RDKit          3D

 26 26  0  0  1  0  0  0  0  0999 V2000
   19.6766  -12.7237  -16.9515 N   0  0  0  0  0  0  0  0  0  0  0  0
   19.7156  -11.3177  -17.3574 C   0  0  1  0  0  0  0  0  0  0  0  0
   18.4685  -10.9770  -18.1063 C   0  0  0  0  0  0  0  0  0  0  0  0
   18.3219  -11.6207  -19.4117 C   0  0  0  0  0  0  0  0  0  0  0  0
   19.1345  -11.3019  -20.5020 C   0  0  0  0  0  0  0  0  0  0  0  0
   18.9472  -11.9520  -21.7031 C   0  0  0  0  0  0  0  0  0  0  0  0
   17.9832  -12.9036  -21.8539 C   0  0  0  0  0  0  0  0  0  0  0  0
   17.1726  -13.2377  -20.8066 C   0  0  0  0  0  0  0  0  0  0  0  0
   17.3509  -12.5878  -19.5845 C   0  0  0  0  0  0  0  0  0  0  0  0
   19.8624  -10.5150  -16.1224 C   0  0  0  0  0  0  0  0  0  0  0  0
   19.0805  -10.7218  -15.1695 O   0  0  0  0  0  0  0  0  0  0  0  0
   23.2358   -9.4508  -14.7683 O   0  0  0  0  0  0  0  0  0  0  0  0
   22.1049   -9.3609  -13.9337 C   0  0  0  0  0  0  0  0  0  0  0  0
   21.0070   -8.7447  -14.7400 C   0  0  2  0  0  0  0  0  0  0  0  0
   20.8565   -9.5109  -15.9619 N   0  0  0  0  0  0  0  0  0  0  0  0
   21.1917   -7.3081  -15.0045 C   0  0  0  0  0  0  0  0  0  0  0  0
   21.8880   -6.9771  -15.9994 O   0  0  0  0  0  0  0  0  0  0  0  0
   20.6381   -6.2748  -14.2143 N   0  0  0  0  0  0  0  0  0  0  0  0
   20.9021   -4.8729  -14.4272 C   0  0  1  0  0  0  0  0  0  0  0  0
   19.7576   -3.9867  -14.0627 C   0  0  0  0  0  0  0  0  0  0  0  0
   20.0001   -2.5618  -14.2540 C   0  0  0  0  0  0  0  0  0  0  0  0
   19.6665   -1.7358  -13.3746 O   0  0  0  0  0  0  0  0  0  0  0  0
   22.1508   -4.4367  -13.7913 C   0  0  0  0  0  0  0  0  0  0  0  0
   22.6021   -3.2963  -14.0682 O   0  0  0  0  0  0  0  0  0  0  0  0
   20.6020   -2.0864  -15.4055 O   0  0  0  0  0  0  0  0  0  0  0  0
   22.8707   -5.2125  -12.8950 O   0  0  0  0  0  0  0  0  0  0  0  0
  2  1  1  1
  3  2  1  0
  4  9  2  0
  4  3  1  0
  5  4  1  0
  6  7  1  0
  6  5  2  0
  7  8  2  0
  8  9  1  0
 10  2  1  0
 10 11  2  0
 13 12  1  0
 14 15  1  0
 14 13  1  6
 15 10  1  0
 16 14  1  0
 17 16  2  0
 18 16  1  0
 19 23  1  0
 19 18  1  0
 19 20  1  1
 20 21  1  0
 21 22  2  0
 23 26  1  0
 24 23  2  0
 25 21  1  0
M  END
$$$$
