FSD.pdb
     RDKit          3D

 26 26  0  0  1  0  0  0  0  0999 V2000
   24.8217  -11.4703  -17.7154 N   0  0  0  0  0  0  0  0  0  0  0  0
   24.8453  -10.9097  -16.3632 C   0  0  1  0  0  0  0  0  0  0  0  0
   26.1652  -10.2556  -16.1143 C   0  0  0  0  0  0  0  0  0  0  0  0
   27.3337  -11.1267  -16.2404 C   0  0  0  0  0  0  0  0  0  0  0  0
   28.3339  -10.9091  -17.1907 C   0  0  0  0  0  0  0  0  0  0  0  0
   29.4126  -11.7652  -17.2511 C   0  0  0  0  0  0  0  0  0  0  0  0
   29.5280  -12.8248  -16.4017 C   0  0  0  0  0  0  0  0  0  0  0  0
   28.5666  -13.0643  -15.4614 C   0  0  0  0  0  0  0  0  0  0  0  0
   27.4688  -12.2056  -15.3886 C   0  0  0  0  0  0  0  0  0  0  0  0
   23.7210   -9.9511  -16.2729 C   0  0  0  0  0  0  0  0  0  0  0  0
   23.2814   -9.4330  -17.3219 O   0  0  0  0  0  0  0  0  0  0  0  0
   20.1659   -8.0492  -13.6326 O   0  0  0  0  0  0  0  0  0  0  0  0
   21.2832   -8.9060  -13.6640 C   0  0  0  0  0  0  0  0  0  0  0  0
   21.9789   -8.6794  -14.9678 C   0  0  2  0  0  0  0  0  0  0  0  0
   23.1088   -9.5852  -15.0426 N   0  0  0  0  0  0  0  0  0  0  0  0
   22.3724   -7.2800  -15.2016 C   0  0  0  0  0  0  0  0  0  0  0  0
   23.5407   -6.9357  -14.8839 O   0  0  0  0  0  0  0  0  0  0  0  0
   21.5244   -6.2964  -15.7600 N   0  0  0  0  0  0  0  0  0  0  0  0
   21.8628   -4.8965  -15.8394 C   0  0  1  0  0  0  0  0  0  0  0  0
   21.0489   -4.1401  -16.8361 C   0  0  0  0  0  0  0  0  0  0  0  0
   21.1624   -4.6171  -18.2092 C   0  0  0  0  0  0  0  0  0  0  0  0
   22.1048   -5.3690  -18.5459 O   0  0  0  0  0  0  0  0  0  0  0  0
   21.8549   -4.2444  -14.5246 C   0  0  0  0  0  0  0  0  0  0  0  0
   22.3069   -3.0751  -14.4289 O   0  0  0  0  0  0  0  0  0  0  0  0
   20.2373   -4.2539  -19.1718 O   0  0  0  0  0  0  0  0  0  0  0  0
   21.3750   -4.8445  -13.3700 O   0  0  0  0  0  0  0  0  0  0  0  0
  2  1  1  6
  3  2  1  0
  4  9  2  0
  4  3  1  0
  5  4  1  0
  6  7  1  0
  6  5  2  0
  7  8  2  0
  8  9  1  0
 10  2  1  0
 10 11  2  0
 13 12  1  0
 14 15  1  0
 14 13  1  1
 15 10  1  0
 16 14  1  0
 17 16  2  0
 18 16  1  0
 19 23  1  0
 19 18  1  0
 19 20  1  6
 20 21  1  0
 21 22  2  0
 23 26  1  0
 24 23  2  0
 25 21  1  0
M  END
$$$$
