FSD.pdb
     RDKit          3D

 26 26  0  0  1  0  0  0  0  0999 V2000
   24.0626  -10.2578  -15.3083 N   0  0  0  0  0  0  0  0  0  0  0  0
   23.4725   -9.2610  -16.2034 C   0  0  1  0  0  0  0  0  0  0  0  0
   22.7506   -9.9499  -17.3153 C   0  0  0  0  0  0  0  0  0  0  0  0
   23.5928  -10.7167  -18.2333 C   0  0  0  0  0  0  0  0  0  0  0  0
   23.6726  -12.1105  -18.1931 C   0  0  0  0  0  0  0  0  0  0  0  0
   24.4813  -12.7718  -19.0925 C   0  0  0  0  0  0  0  0  0  0  0  0
   25.2091  -12.0954  -20.0253 C   0  0  0  0  0  0  0  0  0  0  0  0
   25.1526  -10.7322  -20.0903 C   0  0  0  0  0  0  0  0  0  0  0  0
   24.3379  -10.0494  -19.1860 C   0  0  0  0  0  0  0  0  0  0  0  0
   22.5671   -8.4252  -15.3830 C   0  0  0  0  0  0  0  0  0  0  0  0
   21.8126   -8.9817  -14.5565 O   0  0  0  0  0  0  0  0  0  0  0  0
   23.3565   -4.8376  -14.0823 O   0  0  0  0  0  0  0  0  0  0  0  0
   22.2985   -5.6101  -13.5650 C   0  0  0  0  0  0  0  0  0  0  0  0
   21.5722   -6.2030  -14.7294 C   0  0  2  0  0  0  0  0  0  0  0  0
   22.5104   -7.0081  -15.4872 N   0  0  0  0  0  0  0  0  0  0  0  0
   20.8825   -5.2126  -15.5728 C   0  0  0  0  0  0  0  0  0  0  0  0
   21.5839   -4.4983  -16.3359 O   0  0  0  0  0  0  0  0  0  0  0  0
   19.4834   -5.0105  -15.5824 N   0  0  0  0  0  0  0  0  0  0  0  0
   18.8247   -3.9960  -16.3683 C   0  0  1  0  0  0  0  0  0  0  0  0
   17.3502   -4.1954  -16.4874 C   0  0  0  0  0  0  0  0  0  0  0  0
   16.6418   -4.3061  -15.2179 C   0  0  0  0  0  0  0  0  0  0  0  0
   17.2746   -4.4011  -14.1421 O   0  0  0  0  0  0  0  0  0  0  0  0
   19.1547   -2.6387  -15.9180 C   0  0  0  0  0  0  0  0  0  0  0  0
   19.7248   -2.4940  -14.8068 O   0  0  0  0  0  0  0  0  0  0  0  0
   15.2591   -4.3093  -15.1677 O   0  0  0  0  0  0  0  0  0  0  0  0
   18.8735   -1.4947  -16.6498 O   0  0  0  0  0  0  0  0  0  0  0  0
  2  1  1  1
  3  2  1  0
  4  9  2  0
  4  3  1  0
  5  4  1  0
  6  7  1  0
  6  5  2  0
  7  8  2  0
  8  9  1  0
 10  2  1  0
 10 11  2  0
 13 12  1  0
 14 15  1  0
 14 13  1  1
 15 10  1  0
 16 14  1  0
 17 16  2  0
 18 16  1  0
 19 23  1  0
 19 18  1  0
 19 20  1  1
 20 21  1  0
 21 22  2  0
 23 26  1  0
 24 23  2  0
 25 21  1  0
M  END
$$$$
