FSD.pdb
     RDKit          3D

 26 26  0  0  1  0  0  0  0  0999 V2000
   21.1844  -19.4472  -19.0914 N   0  0  0  0  0  0  0  0  0  0  0  0
   20.6660  -18.2595  -18.4106 C   0  0  1  0  0  0  0  0  0  0  0  0
   19.5708  -17.6520  -19.2254 C   0  0  0  0  0  0  0  0  0  0  0  0
   19.9738  -17.1254  -20.5292 C   0  0  0  0  0  0  0  0  0  0  0  0
   20.8595  -16.0540  -20.6656 C   0  0  0  0  0  0  0  0  0  0  0  0
   21.2028  -15.6114  -21.9251 C   0  0  0  0  0  0  0  0  0  0  0  0
   20.6967  -16.1966  -23.0471 C   0  0  0  0  0  0  0  0  0  0  0  0
   19.8284  -17.2462  -22.9470 C   0  0  0  0  0  0  0  0  0  0  0  0
   19.4719  -17.7051  -21.6781 C   0  0  0  0  0  0  0  0  0  0  0  0
   20.1936  -18.6969  -17.0776 C   0  0  0  0  0  0  0  0  0  0  0  0
   19.7768  -19.8667  -16.9368 O   0  0  0  0  0  0  0  0  0  0  0  0
   20.1484  -16.2262  -13.6095 O   0  0  0  0  0  0  0  0  0  0  0  0
   20.5863  -17.5648  -13.6014 C   0  0  0  0  0  0  0  0  0  0  0  0
   19.7798  -18.3010  -14.6225 C   0  0  2  0  0  0  0  0  0  0  0  0
   20.1892  -17.8470  -15.9375 N   0  0  0  0  0  0  0  0  0  0  0  0
   18.3244  -18.1950  -14.4265 C   0  0  0  0  0  0  0  0  0  0  0  0
   17.6950  -17.3598  -15.1269 O   0  0  0  0  0  0  0  0  0  0  0  0
   17.5862  -18.9702  -13.5032 N   0  0  0  0  0  0  0  0  0  0  0  0
   16.1525  -18.8998  -13.3619 C   0  0  1  0  0  0  0  0  0  0  0  0
   15.5775  -17.5781  -13.7500 C   0  0  0  0  0  0  0  0  0  0  0  0
   14.1245  -17.4923  -13.6638 C   0  0  0  0  0  0  0  0  0  0  0  0
   13.5051  -18.0838  -12.7511 O   0  0  0  0  0  0  0  0  0  0  0  0
   15.4693  -20.0089  -14.0379 C   0  0  0  0  0  0  0  0  0  0  0  0
   15.3887  -19.9923  -15.2925 O   0  0  0  0  0  0  0  0  0  0  0  0
   13.3951  -16.7591  -14.5830 O   0  0  0  0  0  0  0  0  0  0  0  0
   14.9017  -21.0847  -13.3717 O   0  0  0  0  0  0  0  0  0  0  0  0
  2  1  1  6
  3  2  1  0
  4  9  2  0
  4  3  1  0
  5  4  1  0
  6  7  1  0
  6  5  2  0
  7  8  2  0
  8  9  1  0
 10  2  1  0
 10 11  2  0
 13 12  1  0
 14 15  1  0
 14 13  1  1
 15 10  1  0
 16 14  1  0
 17 16  2  0
 18 16  1  0
 19 23  1  0
 19 18  1  0
 19 20  1  6
 20 21  1  0
 21 22  2  0
 23 26  1  0
 24 23  2  0
 25 21  1  0
M  END
$$$$
