FSD.pdb
     RDKit          3D

 26 26  0  0  1  0  0  0  0  0999 V2000
   22.2603   -9.7144  -16.8026 N   0  0  0  0  0  0  0  0  0  0  0  0
   22.1256   -9.5299  -15.3566 C   0  0  1  0  0  0  0  0  0  0  0  0
   23.2790   -8.7310  -14.8432 C   0  0  0  0  0  0  0  0  0  0  0  0
   24.6013   -9.3107  -15.0787 C   0  0  0  0  0  0  0  0  0  0  0  0
   25.0263  -10.4884  -14.4599 C   0  0  0  0  0  0  0  0  0  0  0  0
   26.2835  -10.9842  -14.7317 C   0  0  0  0  0  0  0  0  0  0  0  0
   27.1269  -10.3501  -15.5942 C   0  0  0  0  0  0  0  0  0  0  0  0
   26.7406   -9.1965  -16.2153 C   0  0  0  0  0  0  0  0  0  0  0  0
   25.4704   -8.6829  -15.9497 C   0  0  0  0  0  0  0  0  0  0  0  0
   20.8300   -8.8521  -15.1260 C   0  0  0  0  0  0  0  0  0  0  0  0
   20.4594   -7.9662  -15.9259 O   0  0  0  0  0  0  0  0  0  0  0  0
   18.1190  -10.5528  -12.7860 O   0  0  0  0  0  0  0  0  0  0  0  0
   17.6557   -9.6415  -13.7548 C   0  0  0  0  0  0  0  0  0  0  0  0
   18.6720   -8.5499  -13.8582 C   0  0  2  0  0  0  0  0  0  0  0  0
   19.9764   -9.1595  -14.0309 N   0  0  0  0  0  0  0  0  0  0  0  0
   18.6474   -7.5998  -12.7338 C   0  0  0  0  0  0  0  0  0  0  0  0
   19.5971   -7.6389  -11.9087 O   0  0  0  0  0  0  0  0  0  0  0  0
   17.6269   -6.6454  -12.5192 N   0  0  0  0  0  0  0  0  0  0  0  0
   17.5716   -5.7742  -11.3710 C   0  0  1  0  0  0  0  0  0  0  0  0
   16.6742   -4.5959  -11.5569 C   0  0  0  0  0  0  0  0  0  0  0  0
   17.0477   -3.7071  -12.6506 C   0  0  0  0  0  0  0  0  0  0  0  0
   18.1474   -3.8419  -13.2330 O   0  0  0  0  0  0  0  0  0  0  0  0
   17.2651   -6.5004  -10.1330 C   0  0  0  0  0  0  0  0  0  0  0  0
   16.8977   -7.7002  -10.2131 O   0  0  0  0  0  0  0  0  0  0  0  0
   16.2021   -2.6963  -13.0722 O   0  0  0  0  0  0  0  0  0  0  0  0
   17.3564   -5.9393   -8.8680 O   0  0  0  0  0  0  0  0  0  0  0  0
  2  1  1  6
  3  2  1  0
  4  9  2  0
  4  3  1  0
  5  4  1  0
  6  7  1  0
  6  5  2  0
  7  8  2  0
  8  9  1  0
 10  2  1  0
 10 11  2  0
 13 12  1  0
 14 15  1  0
 14 13  1  1
 15 10  1  0
 16 14  1  0
 17 16  2  0
 18 16  1  0
 19 23  1  0
 19 18  1  0
 19 20  1  6
 20 21  1  0
 21 22  2  0
 23 26  1  0
 24 23  2  0
 25 21  1  0
M  END
$$$$
