GWW.pdb
     RDKit          3D

 33 36  0  0  1  0  0  0  0  0999 V2000
    8.4027  -15.7982   17.2752 N   0  0  0  0  0  0  0  0  0  0  0  0
    8.6818  -16.8451   18.2076 C   0  0  0  0  0  0  0  0  0  0  0  0
    8.8041  -16.3532   19.6048 C   0  0  0  0  0  0  0  0  0  0  0  0
    9.4991  -15.3404   19.8723 O   0  0  0  0  0  0  0  0  0  0  0  0
    8.1533  -16.9894   20.6973 N   0  0  0  0  0  0  0  0  0  0  0  0
    8.2566  -16.5523   22.0638 C   0  0  1  0  0  0  0  0  0  0  0  0
    7.2497  -17.1345   23.0045 C   0  0  0  0  0  0  0  0  0  0  0  0
    6.9459  -16.3456   24.1911 C   0  0  0  0  0  0  0  0  0  0  0  0
    6.2976  -16.8174   25.3167 C   0  0  0  0  0  0  0  0  0  0  0  0
    6.2082  -15.8224   26.2334 N   0  0  0  0  0  0  0  0  0  0  0  0
    6.7978  -14.7242   25.6884 C   0  0  0  0  0  0  0  0  0  0  0  0
    6.9738  -13.4526   26.1886 C   0  0  0  0  0  0  0  0  0  0  0  0
    7.6070  -12.4709   25.4450 C   0  0  0  0  0  0  0  0  0  0  0  0
    8.0754  -12.7594   24.1760 C   0  0  0  0  0  0  0  0  0  0  0  0
    7.8849  -14.0365   23.7051 C   0  0  0  0  0  0  0  0  0  0  0  0
    7.2611  -15.0288   24.4220 C   0  0  0  0  0  0  0  0  0  0  0  0
    9.6158  -16.9888   22.5508 C   0  0  0  0  0  0  0  0  0  0  0  0
   10.0981  -17.9687   21.9558 O   0  0  0  0  0  0  0  0  0  0  0  0
   10.3090  -16.3582   23.5946 N   0  0  0  0  0  0  0  0  0  0  0  0
   11.6524  -16.6814   23.9944 C   0  0  1  0  0  0  0  0  0  0  0  0
   12.2150  -15.7814   25.0882 C   0  0  0  0  0  0  0  0  0  0  0  0
   11.3210  -15.8714   26.2631 C   0  0  0  0  0  0  0  0  0  0  0  0
   10.7398  -16.9620   26.8684 C   0  0  0  0  0  0  0  0  0  0  0  0
   10.0065  -16.5483   27.9139 N   0  0  0  0  0  0  0  0  0  0  0  0
   10.0864  -15.2154   28.0176 C   0  0  0  0  0  0  0  0  0  0  0  0
    9.5205  -14.3229   28.9180 C   0  0  0  0  0  0  0  0  0  0  0  0
    9.7469  -12.9698   28.8324 C   0  0  0  0  0  0  0  0  0  0  0  0
   10.5567  -12.4972   27.8252 C   0  0  0  0  0  0  0  0  0  0  0  0
   11.1265  -13.3976   26.9184 C   0  0  0  0  0  0  0  0  0  0  0  0
   10.8994  -14.7541   27.0038 C   0  0  0  0  0  0  0  0  0  0  0  0
   11.7904  -18.0782   24.4107 C   0  0  0  0  0  0  0  0  0  0  0  0
   12.9416  -18.5939   24.5363 O   0  0  0  0  0  0  0  0  0  0  0  0
   10.7208  -18.9132   24.6891 O   0  0  0  0  0  0  0  0  0  0  0  0
  1  2  1  0
  2  3  1  0
  3  4  2  0
  5  3  1  0
  5  6  1  0
  6  7  1  1
  8  9  2  0
  8  7  1  0
 10  9  1  0
 11 16  2  0
 11 10  1  0
 12 11  1  0
 13 14  1  0
 13 12  2  0
 14 15  2  0
 15 16  1  0
 16  8  1  0
 17 18  2  0
 17  6  1  0
 19 17  1  0
 20 19  1  0
 20 21  1  1
 22 30  1  0
 22 21  1  0
 23 22  2  0
 24 23  1  0
 24 25  1  0
 25 26  1  0
 25 30  2  0
 26 27  2  0
 27 28  1  0
 29 28  2  0
 30 29  1  0
 31 20  1  0
 32 31  2  0
 33 31  1  0
M  END
$$$$
