GWW.pdb
     RDKit          3D

 33 36  0  0  1  0  0  0  0  0999 V2000
   10.7874  -19.5296   19.9360 N   0  0  0  0  0  0  0  0  0  0  0  0
    9.7275  -19.1788   20.8285 C   0  0  0  0  0  0  0  0  0  0  0  0
    9.7568  -17.7455   21.2209 C   0  0  0  0  0  0  0  0  0  0  0  0
   10.6684  -16.9839   20.8094 O   0  0  0  0  0  0  0  0  0  0  0  0
    8.7728  -17.1662   22.0683 N   0  0  0  0  0  0  0  0  0  0  0  0
    8.7279  -15.7713   22.4168 C   0  0  1  0  0  0  0  0  0  0  0  0
    7.5144  -15.0298   21.9526 C   0  0  0  0  0  0  0  0  0  0  0  0
    7.3551  -14.8947   20.5106 C   0  0  0  0  0  0  0  0  0  0  0  0
    6.6624  -15.7740   19.7001 C   0  0  0  0  0  0  0  0  0  0  0  0
    6.6952  -15.3258   18.4208 N   0  0  0  0  0  0  0  0  0  0  0  0
    7.4073  -14.1668   18.4227 C   0  0  0  0  0  0  0  0  0  0  0  0
    7.7438  -13.3128   17.3951 C   0  0  0  0  0  0  0  0  0  0  0  0
    8.4953  -12.1730   17.6272 C   0  0  0  0  0  0  0  0  0  0  0  0
    8.9220  -11.8755   18.9088 C   0  0  0  0  0  0  0  0  0  0  0  0
    8.5703  -12.7464   19.9122 C   0  0  0  0  0  0  0  0  0  0  0  0
    7.8253  -13.8830   19.7095 C   0  0  0  0  0  0  0  0  0  0  0  0
    8.7317  -15.7067   23.9238 C   0  0  0  0  0  0  0  0  0  0  0  0
    8.3487  -14.6256   24.4049 O   0  0  0  0  0  0  0  0  0  0  0  0
    9.1322  -16.7686   24.7481 N   0  0  0  0  0  0  0  0  0  0  0  0
   10.0424  -16.6441   25.8550 C   0  0  1  0  0  0  0  0  0  0  0  0
    9.6903  -15.5305   26.8342 C   0  0  0  0  0  0  0  0  0  0  0  0
    8.2894  -15.1257   26.5864 C   0  0  0  0  0  0  0  0  0  0  0  0
    7.2023  -15.8597   26.1704 C   0  0  0  0  0  0  0  0  0  0  0  0
    6.1305  -15.0554   26.0906 N   0  0  0  0  0  0  0  0  0  0  0  0
    6.4776  -13.8106   26.4423 C   0  0  0  0  0  0  0  0  0  0  0  0
    5.7438  -12.6349   26.5247 C   0  0  0  0  0  0  0  0  0  0  0  0
    6.3193  -11.4506   26.9195 C   0  0  0  0  0  0  0  0  0  0  0  0
    7.6576  -11.4401   27.2391 C   0  0  0  0  0  0  0  0  0  0  0  0
    8.3963  -12.6254   27.1556 C   0  0  0  0  0  0  0  0  0  0  0  0
    7.8196  -13.8128   26.7597 C   0  0  0  0  0  0  0  0  0  0  0  0
   10.1955  -17.8975   26.5959 C   0  0  0  0  0  0  0  0  0  0  0  0
    9.4716  -18.8981   26.3097 O   0  0  0  0  0  0  0  0  0  0  0  0
   11.1041  -18.0836   27.6248 O   0  0  0  0  0  0  0  0  0  0  0  0
  1  2  1  0
  2  3  1  0
  3  4  2  0
  5  3  1  0
  5  6  1  0
  6  7  1  1
  8  9  2  0
  8  7  1  0
 10  9  1  0
 11 16  2  0
 11 10  1  0
 12 11  1  0
 13 14  1  0
 13 12  2  0
 14 15  2  0
 15 16  1  0
 16  8  1  0
 17 18  2  0
 17  6  1  0
 19 17  1  0
 20 19  1  0
 20 21  1  1
 22 30  1  0
 22 21  1  0
 23 22  2  0
 24 23  1  0
 24 25  1  0
 25 26  1  0
 25 30  2  0
 26 27  2  0
 27 28  1  0
 29 28  2  0
 30 29  1  0
 31 20  1  0
 32 31  2  0
 33 31  1  0
M  END
$$$$
