GWW.pdb
     RDKit          3D

 33 36  0  0  1  0  0  0  0  0999 V2000
   12.4124  -17.0062   18.7982 N   0  0  0  0  0  0  0  0  0  0  0  0
   12.0836  -17.6346   20.0393 C   0  0  0  0  0  0  0  0  0  0  0  0
   11.5024  -16.6881   21.0268 C   0  0  0  0  0  0  0  0  0  0  0  0
   12.0143  -15.5547   21.2108 O   0  0  0  0  0  0  0  0  0  0  0  0
   10.3554  -17.0060   21.8047 N   0  0  0  0  0  0  0  0  0  0  0  0
    9.7435  -16.1063   22.7456 C   0  0  1  0  0  0  0  0  0  0  0  0
    8.2537  -16.1956   22.8475 C   0  0  0  0  0  0  0  0  0  0  0  0
    7.4975  -15.6219   21.7421 C   0  0  0  0  0  0  0  0  0  0  0  0
    6.3391  -16.1542   21.2086 C   0  0  0  0  0  0  0  0  0  0  0  0
    5.8915  -15.3485   20.2141 N   0  0  0  0  0  0  0  0  0  0  0  0
    6.7651  -14.3100   20.1188 C   0  0  0  0  0  0  0  0  0  0  0  0
    6.7833  -13.2207   19.2755 C   0  0  0  0  0  0  0  0  0  0  0  0
    7.7901  -12.2729   19.3503 C   0  0  0  0  0  0  0  0  0  0  0  0
    8.8014  -12.4109   20.2838 C   0  0  0  0  0  0  0  0  0  0  0  0
    8.7554  -13.5079   21.1106 C   0  0  0  0  0  0  0  0  0  0  0  0
    7.7681  -14.4620   21.0580 C   0  0  0  0  0  0  0  0  0  0  0  0
   10.2982  -16.4638   24.1020 C   0  0  0  0  0  0  0  0  0  0  0  0
   10.9978  -17.4918   24.1298 O   0  0  0  0  0  0  0  0  0  0  0  0
   10.0602  -15.7142   25.2634 N   0  0  0  0  0  0  0  0  0  0  0  0
   10.3457  -16.1658   26.5990 C   0  0  1  0  0  0  0  0  0  0  0  0
    9.6442  -15.3702   27.6934 C   0  0  0  0  0  0  0  0  0  0  0  0
    8.3444  -14.9047   27.1628 C   0  0  0  0  0  0  0  0  0  0  0  0
    7.2455  -15.6113   26.7304 C   0  0  0  0  0  0  0  0  0  0  0  0
    6.2931  -14.7504   26.3382 N   0  0  0  0  0  0  0  0  0  0  0  0
    6.7304  -13.4948   26.4991 C   0  0  0  0  0  0  0  0  0  0  0  0
    6.1316  -12.2680   26.2465 C   0  0  0  0  0  0  0  0  0  0  0  0
    6.7811  -11.0824   26.4955 C   0  0  0  0  0  0  0  0  0  0  0  0
    8.0574  -11.1228   27.0085 C   0  0  0  0  0  0  0  0  0  0  0  0
    8.6600  -12.3597   27.2627 C   0  0  0  0  0  0  0  0  0  0  0  0
    8.0091  -13.5484   27.0128 C   0  0  0  0  0  0  0  0  0  0  0  0
   10.0511  -17.5881   26.7825 C   0  0  0  0  0  0  0  0  0  0  0  0
   10.4903  -18.2025   27.8007 O   0  0  0  0  0  0  0  0  0  0  0  0
    9.3013  -18.3448   25.8971 O   0  0  0  0  0  0  0  0  0  0  0  0
  1  2  1  0
  2  3  1  0
  3  4  2  0
  5  3  1  0
  5  6  1  0
  6  7  1  1
  8  9  2  0
  8  7  1  0
 10  9  1  0
 11 16  2  0
 11 10  1  0
 12 11  1  0
 13 14  1  0
 13 12  2  0
 14 15  2  0
 15 16  1  0
 16  8  1  0
 17 18  2  0
 17  6  1  0
 19 17  1  0
 20 19  1  0
 20 21  1  1
 22 30  1  0
 22 21  1  0
 23 22  2  0
 24 23  1  0
 24 25  1  0
 25 26  1  0
 25 30  2  0
 26 27  2  0
 27 28  1  0
 29 28  2  0
 30 29  1  0
 31 20  1  0
 32 31  2  0
 33 31  1  0
M  END
$$$$
