GWW.pdb
     RDKit          3D

 33 36  0  0  1  0  0  0  0  0999 V2000
    4.5733  -21.4967   23.8069 N   0  0  0  0  0  0  0  0  0  0  0  0
    5.8989  -21.1942   24.2478 C   0  0  0  0  0  0  0  0  0  0  0  0
    6.2205  -19.7463   24.1520 C   0  0  0  0  0  0  0  0  0  0  0  0
    5.8732  -19.0747   23.1475 O   0  0  0  0  0  0  0  0  0  0  0  0
    6.9262  -19.0523   25.1728 N   0  0  0  0  0  0  0  0  0  0  0  0
    7.2270  -17.6461   25.1332 C   0  0  1  0  0  0  0  0  0  0  0  0
    7.2632  -16.9572   26.4605 C   0  0  0  0  0  0  0  0  0  0  0  0
    6.8293  -15.5664   26.4758 C   0  0  0  0  0  0  0  0  0  0  0  0
    5.5532  -15.1269   26.1785 C   0  0  0  0  0  0  0  0  0  0  0  0
    5.4985  -13.7794   26.3192 N   0  0  0  0  0  0  0  0  0  0  0  0
    6.7369  -13.3682   26.7038 C   0  0  0  0  0  0  0  0  0  0  0  0
    7.2255  -12.1092   26.9761 C   0  0  0  0  0  0  0  0  0  0  0  0
    8.5448  -11.9176   27.3507 C   0  0  0  0  0  0  0  0  0  0  0  0
    9.3976  -13.0015   27.4567 C   0  0  0  0  0  0  0  0  0  0  0  0
    8.8806  -14.2443   27.1786 C   0  0  0  0  0  0  0  0  0  0  0  0
    7.5762  -14.4620   26.8060 C   0  0  0  0  0  0  0  0  0  0  0  0
    8.6064  -17.5206   24.5359 C   0  0  0  0  0  0  0  0  0  0  0  0
    9.3499  -18.5007   24.7187 O   0  0  0  0  0  0  0  0  0  0  0  0
    9.0474  -16.3957   23.8234 N   0  0  0  0  0  0  0  0  0  0  0  0
   10.2646  -16.3397   23.0588 C   0  0  1  0  0  0  0  0  0  0  0  0
   10.3614  -15.1423   22.1209 C   0  0  0  0  0  0  0  0  0  0  0  0
    9.0164  -14.8857   21.5617 C   0  0  0  0  0  0  0  0  0  0  0  0
    7.7719  -15.2782   21.9987 C   0  0  0  0  0  0  0  0  0  0  0  0
    6.8384  -14.7989   21.1616 N   0  0  0  0  0  0  0  0  0  0  0  0
    7.4297  -14.1004   20.1838 C   0  0  0  0  0  0  0  0  0  0  0  0
    6.9108  -13.4161   19.0929 C   0  0  0  0  0  0  0  0  0  0  0  0
    7.7228  -12.7550   18.2023 C   0  0  0  0  0  0  0  0  0  0  0  0
    9.0836  -12.7775   18.4057 C   0  0  0  0  0  0  0  0  0  0  0  0
    9.6055  -13.4675   19.5054 C   0  0  0  0  0  0  0  0  0  0  0  0
    8.7916  -14.1306   20.3982 C   0  0  0  0  0  0  0  0  0  0  0  0
   11.4583  -16.3778   23.9055 C   0  0  0  0  0  0  0  0  0  0  0  0
   11.3493  -16.2699   25.1639 O   0  0  0  0  0  0  0  0  0  0  0  0
   12.7474  -16.5283   23.4215 O   0  0  0  0  0  0  0  0  0  0  0  0
  1  2  1  0
  2  3  1  0
  3  4  2  0
  5  3  1  0
  5  6  1  0
  6  7  1  1
  8  9  2  0
  8  7  1  0
 10  9  1  0
 11 16  2  0
 11 10  1  0
 12 11  1  0
 13 14  1  0
 13 12  2  0
 14 15  2  0
 15 16  1  0
 16  8  1  0
 17 18  2  0
 17  6  1  0
 19 17  1  0
 20 19  1  0
 20 21  1  1
 22 30  1  0
 22 21  1  0
 23 22  2  0
 24 23  1  0
 24 25  1  0
 25 26  1  0
 25 30  2  0
 26 27  2  0
 27 28  1  0
 29 28  2  0
 30 29  1  0
 31 20  1  0
 32 31  2  0
 33 31  1  0
M  END
$$$$
