GWW.pdb
     RDKit          3D

 33 36  0  0  1  0  0  0  0  0999 V2000
    9.7748  -19.1299   19.0969 N   0  0  0  0  0  0  0  0  0  0  0  0
    9.8086  -19.1483   20.5258 C   0  0  0  0  0  0  0  0  0  0  0  0
    9.7556  -17.7868   21.1197 C   0  0  0  0  0  0  0  0  0  0  0  0
   10.7527  -17.0229   21.0688 O   0  0  0  0  0  0  0  0  0  0  0  0
    8.5948  -17.2815   21.7671 N   0  0  0  0  0  0  0  0  0  0  0  0
    8.5162  -15.9863   22.3880 C   0  0  1  0  0  0  0  0  0  0  0  0
    7.3414  -15.1506   21.9890 C   0  0  0  0  0  0  0  0  0  0  0  0
    7.1996  -14.8778   20.5648 C   0  0  0  0  0  0  0  0  0  0  0  0
    6.4158  -15.6047   19.6889 C   0  0  0  0  0  0  0  0  0  0  0  0
    6.4990  -15.0565   18.4516 N   0  0  0  0  0  0  0  0  0  0  0  0
    7.3338  -13.9865   18.5449 C   0  0  0  0  0  0  0  0  0  0  0  0
    7.7631  -13.0909   17.5901 C   0  0  0  0  0  0  0  0  0  0  0  0
    8.6346  -12.0637   17.9109 C   0  0  0  0  0  0  0  0  0  0  0  0
    9.0898  -11.9236   19.2094 C   0  0  0  0  0  0  0  0  0  0  0  0
    8.6436  -12.8324   20.1390 C   0  0  0  0  0  0  0  0  0  0  0  0
    7.7788  -13.8596   19.8477 C   0  0  0  0  0  0  0  0  0  0  0  0
    8.3975  -16.2300   23.8719 C   0  0  0  0  0  0  0  0  0  0  0  0
    7.3367  -15.8343   24.3867 O   0  0  0  0  0  0  0  0  0  0  0  0
    9.3916  -16.8525   24.6411 N   0  0  0  0  0  0  0  0  0  0  0  0
   10.1049  -16.2206   25.7188 C   0  0  1  0  0  0  0  0  0  0  0  0
    9.3295  -16.1523   27.0291 C   0  0  0  0  0  0  0  0  0  0  0  0
    8.0309  -15.4966   26.7618 C   0  0  0  0  0  0  0  0  0  0  0  0
    6.8252  -16.0226   26.3580 C   0  0  0  0  0  0  0  0  0  0  0  0
    5.9251  -15.0325   26.2504 N   0  0  0  0  0  0  0  0  0  0  0  0
    6.5010  -13.8668   26.5718 C   0  0  0  0  0  0  0  0  0  0  0  0
    6.0028  -12.5719   26.6190 C   0  0  0  0  0  0  0  0  0  0  0  0
    6.7914  -11.5077   26.9866 C   0  0  0  0  0  0  0  0  0  0  0  0
    8.1072  -11.7419   27.3145 C   0  0  0  0  0  0  0  0  0  0  0  0
    8.6083  -13.0474   27.2666 C   0  0  0  0  0  0  0  0  0  0  0  0
    7.8179  -14.1144   26.8979 C   0  0  0  0  0  0  0  0  0  0  0  0
   11.4059  -16.8437   25.9684 C   0  0  0  0  0  0  0  0  0  0  0  0
   12.2082  -16.3286   26.8040 O   0  0  0  0  0  0  0  0  0  0  0  0
   11.8466  -17.9966   25.3395 O   0  0  0  0  0  0  0  0  0  0  0  0
  1  2  1  0
  2  3  1  0
  3  4  2  0
  5  3  1  0
  5  6  1  0
  6  7  1  6
  8  9  2  0
  8  7  1  0
 10  9  1  0
 11 16  2  0
 11 10  1  0
 12 11  1  0
 13 14  1  0
 13 12  2  0
 14 15  2  0
 15 16  1  0
 16  8  1  0
 17 18  2  0
 17  6  1  0
 19 17  1  0
 20 19  1  0
 20 21  1  1
 22 30  1  0
 22 21  1  0
 23 22  2  0
 24 23  1  0
 24 25  1  0
 25 26  1  0
 25 30  2  0
 26 27  2  0
 27 28  1  0
 29 28  2  0
 30 29  1  0
 31 20  1  0
 32 31  2  0
 33 31  1  0
M  END
$$$$
