GWW.pdb
     RDKit          3D

 33 36  0  0  1  0  0  0  0  0999 V2000
    9.8489  -18.7201   19.3153 N   0  0  0  0  0  0  0  0  0  0  0  0
   10.4976  -18.8063   20.5861 C   0  0  0  0  0  0  0  0  0  0  0  0
   10.4047  -17.5443   21.3659 C   0  0  0  0  0  0  0  0  0  0  0  0
   11.2493  -16.6265   21.2084 O   0  0  0  0  0  0  0  0  0  0  0  0
    9.3738  -17.3090   22.3165 N   0  0  0  0  0  0  0  0  0  0  0  0
    9.2409  -16.0969   23.0797 C   0  0  1  0  0  0  0  0  0  0  0  0
    7.8630  -15.5173   23.1340 C   0  0  0  0  0  0  0  0  0  0  0  0
    7.2828  -15.1159   21.8592 C   0  0  0  0  0  0  0  0  0  0  0  0
    6.2288  -15.7498   21.2290 C   0  0  0  0  0  0  0  0  0  0  0  0
    5.9333  -15.0942   20.0796 N   0  0  0  0  0  0  0  0  0  0  0  0
    6.7987  -14.0490   19.9831 C   0  0  0  0  0  0  0  0  0  0  0  0
    6.9361  -13.0777   19.0157 C   0  0  0  0  0  0  0  0  0  0  0  0
    7.9075  -12.0961   19.1183 C   0  0  0  0  0  0  0  0  0  0  0  0
    8.7614  -12.0797   20.2063 C   0  0  0  0  0  0  0  0  0  0  0  0
    8.5992  -13.0616   21.1542 C   0  0  0  0  0  0  0  0  0  0  0  0
    7.6437  -14.0460   21.0773 C   0  0  0  0  0  0  0  0  0  0  0  0
    9.6292  -16.4390   24.4965 C   0  0  0  0  0  0  0  0  0  0  0  0
    9.0222  -17.4063   24.9893 O   0  0  0  0  0  0  0  0  0  0  0  0
   10.5975  -15.7376   25.2299 N   0  0  0  0  0  0  0  0  0  0  0  0
   10.8787  -15.9518   26.6243 C   0  0  1  0  0  0  0  0  0  0  0  0
   10.0855  -15.0564   27.5688 C   0  0  0  0  0  0  0  0  0  0  0  0
    8.6874  -15.0051   27.0887 C   0  0  0  0  0  0  0  0  0  0  0  0
    7.8094  -16.0156   26.7697 C   0  0  0  0  0  0  0  0  0  0  0  0
    6.6416  -15.4798   26.3811 N   0  0  0  0  0  0  0  0  0  0  0  0
    6.7219  -14.1439   26.4343 C   0  0  0  0  0  0  0  0  0  0  0  0
    5.7984  -13.1500   26.1399 C   0  0  0  0  0  0  0  0  0  0  0  0
    6.1054  -11.8167   26.2726 C   0  0  0  0  0  0  0  0  0  0  0  0
    7.3629  -11.4680   26.7092 C   0  0  0  0  0  0  0  0  0  0  0  0
    8.2929  -12.4705   27.0056 C   0  0  0  0  0  0  0  0  0  0  0  0
    7.9855  -13.8072   26.8724 C   0  0  0  0  0  0  0  0  0  0  0  0
   10.6913  -17.3478   27.0238 C   0  0  0  0  0  0  0  0  0  0  0  0
   10.3596  -17.6297   28.2144 O   0  0  0  0  0  0  0  0  0  0  0  0
   10.8540  -18.4266   26.1703 O   0  0  0  0  0  0  0  0  0  0  0  0
  1  2  1  0
  2  3  1  0
  3  4  2  0
  5  3  1  0
  5  6  1  0
  6  7  1  1
  8  9  2  0
  8  7  1  0
 10  9  1  0
 11 16  2  0
 11 10  1  0
 12 11  1  0
 13 14  1  0
 13 12  2  0
 14 15  2  0
 15 16  1  0
 16  8  1  0
 17 18  2  0
 17  6  1  0
 19 17  1  0
 20 19  1  0
 20 21  1  1
 22 30  1  0
 22 21  1  0
 23 22  2  0
 24 23  1  0
 24 25  1  0
 25 26  1  0
 25 30  2  0
 26 27  2  0
 27 28  1  0
 29 28  2  0
 30 29  1  0
 31 20  1  0
 32 31  2  0
 33 31  1  0
M  END
$$$$
