GWW.pdb
     RDKit          3D

 33 36  0  0  1  0  0  0  0  0999 V2000
    9.1302  -17.7036   18.0387 N   0  0  0  0  0  0  0  0  0  0  0  0
    9.6524  -16.3909   18.2561 C   0  0  0  0  0  0  0  0  0  0  0  0
    9.5329  -15.9516   19.6709 C   0  0  0  0  0  0  0  0  0  0  0  0
   10.1511  -14.9380   20.0847 O   0  0  0  0  0  0  0  0  0  0  0  0
    8.7272  -16.6407   20.6184 N   0  0  0  0  0  0  0  0  0  0  0  0
    8.5190  -16.2014   21.9722 C   0  0  1  0  0  0  0  0  0  0  0  0
    7.1821  -16.5291   22.5577 C   0  0  0  0  0  0  0  0  0  0  0  0
    6.9122  -15.9937   23.8856 C   0  0  0  0  0  0  0  0  0  0  0  0
    6.5361  -16.7422   24.9848 C   0  0  0  0  0  0  0  0  0  0  0  0
    6.3963  -15.9250   26.0577 N   0  0  0  0  0  0  0  0  0  0  0  0
    6.6826  -14.6632   25.6376 C   0  0  0  0  0  0  0  0  0  0  0  0
    6.6875  -13.4651   26.3178 C   0  0  0  0  0  0  0  0  0  0  0  0
    7.0089  -12.2793   25.6789 C   0  0  0  0  0  0  0  0  0  0  0  0
    7.3324  -12.2843   24.3341 C   0  0  0  0  0  0  0  0  0  0  0  0
    7.3186  -13.4949   23.6834 C   0  0  0  0  0  0  0  0  0  0  0  0
    7.0045  -14.6854   24.2933 C   0  0  0  0  0  0  0  0  0  0  0  0
    9.5519  -16.9078   22.8145 C   0  0  0  0  0  0  0  0  0  0  0  0
    9.7482  -18.0993   22.5166 O   0  0  0  0  0  0  0  0  0  0  0  0
   10.2544  -16.2947   23.8625 N   0  0  0  0  0  0  0  0  0  0  0  0
   11.4605  -16.8137   24.4500 C   0  0  1  0  0  0  0  0  0  0  0  0
   12.0265  -15.9596   25.5782 C   0  0  0  0  0  0  0  0  0  0  0  0
   11.1588  -16.1296   26.7639 C   0  0  0  0  0  0  0  0  0  0  0  0
   10.8606  -17.2496   27.5058 C   0  0  0  0  0  0  0  0  0  0  0  0
   10.0230  -16.9115   28.4988 N   0  0  0  0  0  0  0  0  0  0  0  0
    9.7589  -15.6001   28.4351 C   0  0  0  0  0  0  0  0  0  0  0  0
    8.9646  -14.7779   29.2228 C   0  0  0  0  0  0  0  0  0  0  0  0
    8.8413  -13.4329   28.9674 C   0  0  0  0  0  0  0  0  0  0  0  0
    9.5266  -12.8968   27.9013 C   0  0  0  0  0  0  0  0  0  0  0  0
   10.3268  -13.7262   27.1080 C   0  0  0  0  0  0  0  0  0  0  0  0
   10.4504  -15.0747   27.3638 C   0  0  0  0  0  0  0  0  0  0  0  0
   11.3020  -18.1883   24.9283 C   0  0  0  0  0  0  0  0  0  0  0  0
   10.1442  -18.6900   25.0501 O   0  0  0  0  0  0  0  0  0  0  0  0
   12.3582  -19.0162   25.2715 O   0  0  0  0  0  0  0  0  0  0  0  0
  1  2  1  0
  2  3  1  0
  3  4  2  0
  5  3  1  0
  5  6  1  0
  6  7  1  1
  8  9  2  0
  8  7  1  0
 10  9  1  0
 11 16  2  0
 11 10  1  0
 12 11  1  0
 13 14  1  0
 13 12  2  0
 14 15  2  0
 15 16  1  0
 16  8  1  0
 17 18  2  0
 17  6  1  0
 19 17  1  0
 20 19  1  0
 20 21  1  1
 22 30  1  0
 22 21  1  0
 23 22  2  0
 24 23  1  0
 24 25  1  0
 25 26  1  0
 25 30  2  0
 26 27  2  0
 27 28  1  0
 29 28  2  0
 30 29  1  0
 31 20  1  0
 32 31  2  0
 33 31  1  0
M  END
$$$$
