GWW.pdb
     RDKit          3D

 33 36  0  0  1  0  0  0  0  0999 V2000
   10.2777  -18.8628   19.2385 N   0  0  0  0  0  0  0  0  0  0  0  0
    9.5836  -18.8720   20.4880 C   0  0  0  0  0  0  0  0  0  0  0  0
    9.6911  -17.5801   21.2150 C   0  0  0  0  0  0  0  0  0  0  0  0
   10.8115  -17.0482   21.4204 O   0  0  0  0  0  0  0  0  0  0  0  0
    8.5529  -16.8861   21.7098 N   0  0  0  0  0  0  0  0  0  0  0  0
    8.6195  -15.6794   22.4900 C   0  0  1  0  0  0  0  0  0  0  0  0
    7.6596  -14.6025   22.0946 C   0  0  0  0  0  0  0  0  0  0  0  0
    7.5910  -14.2917   20.6728 C   0  0  0  0  0  0  0  0  0  0  0  0
    6.5602  -14.6551   19.8270 C   0  0  0  0  0  0  0  0  0  0  0  0
    6.8114  -14.1782   18.5828 N   0  0  0  0  0  0  0  0  0  0  0  0
    7.9981  -13.5158   18.6419 C   0  0  0  0  0  0  0  0  0  0  0  0
    8.7114  -12.8537   17.6667 C   0  0  0  0  0  0  0  0  0  0  0  0
    9.9223  -12.2457   17.9524 C   0  0  0  0  0  0  0  0  0  0  0  0
   10.4358  -12.2971   19.2356 C   0  0  0  0  0  0  0  0  0  0  0  0
    9.7010  -12.9647   20.1861 C   0  0  0  0  0  0  0  0  0  0  0  0
    8.4972  -13.5754   19.9297 C   0  0  0  0  0  0  0  0  0  0  0  0
    8.2831  -16.0680   23.9081 C   0  0  0  0  0  0  0  0  0  0  0  0
    7.2124  -15.6058   24.3403 O   0  0  0  0  0  0  0  0  0  0  0  0
    9.0965  -16.8867   24.7055 N   0  0  0  0  0  0  0  0  0  0  0  0
    9.8027  -16.4421   25.8772 C   0  0  1  0  0  0  0  0  0  0  0  0
    8.9381  -16.3361   27.1279 C   0  0  0  0  0  0  0  0  0  0  0  0
    7.7410  -15.5344   26.7932 C   0  0  0  0  0  0  0  0  0  0  0  0
    6.4792  -15.9231   26.4052 C   0  0  0  0  0  0  0  0  0  0  0  0
    5.7204  -14.8325   26.2138 N   0  0  0  0  0  0  0  0  0  0  0  0
    6.4440  -13.7337   26.4645 C   0  0  0  0  0  0  0  0  0  0  0  0
    6.1228  -12.3840   26.4137 C   0  0  0  0  0  0  0  0  0  0  0  0
    7.0433  -11.4105   26.7211 C   0  0  0  0  0  0  0  0  0  0  0  0
    8.3132  -11.7934   27.0876 C   0  0  0  0  0  0  0  0  0  0  0  0
    8.6359  -13.1540   27.1385 C   0  0  0  0  0  0  0  0  0  0  0  0
    7.7133  -14.1300   26.8301 C   0  0  0  0  0  0  0  0  0  0  0  0
   10.9695  -17.2745   26.1754 C   0  0  0  0  0  0  0  0  0  0  0  0
   11.1909  -18.3247   25.5007 O   0  0  0  0  0  0  0  0  0  0  0  0
   11.8863  -16.9944   27.1753 O   0  0  0  0  0  0  0  0  0  0  0  0
  1  2  1  0
  2  3  1  0
  3  4  2  0
  5  3  1  0
  5  6  1  0
  6  7  1  6
  8  9  2  0
  8  7  1  0
 10  9  1  0
 11 16  2  0
 11 10  1  0
 12 11  1  0
 13 14  1  0
 13 12  2  0
 14 15  2  0
 15 16  1  0
 16  8  1  0
 17 18  2  0
 17  6  1  0
 19 17  1  0
 20 19  1  0
 20 21  1  1
 22 30  1  0
 22 21  1  0
 23 22  2  0
 24 23  1  0
 24 25  1  0
 25 26  1  0
 25 30  2  0
 26 27  2  0
 27 28  1  0
 29 28  2  0
 30 29  1  0
 31 20  1  0
 32 31  2  0
 33 31  1  0
M  END
$$$$
