GWW.pdb
     RDKit          3D

 33 36  0  0  1  0  0  0  0  0999 V2000
   12.2456  -17.8404   18.4816 N   0  0  0  0  0  0  0  0  0  0  0  0
   11.8499  -18.3486   19.7577 C   0  0  0  0  0  0  0  0  0  0  0  0
   11.3117  -17.2932   20.6552 C   0  0  0  0  0  0  0  0  0  0  0  0
   11.7077  -16.1038   20.5601 O   0  0  0  0  0  0  0  0  0  0  0  0
   10.3365  -17.5650   21.6536 N   0  0  0  0  0  0  0  0  0  0  0  0
    9.7140  -16.5571   22.4696 C   0  0  1  0  0  0  0  0  0  0  0  0
    8.2197  -16.6010   22.5199 C   0  0  0  0  0  0  0  0  0  0  0  0
    7.5189  -15.9122   21.4441 C   0  0  0  0  0  0  0  0  0  0  0  0
    6.4353  -16.4152   20.7493 C   0  0  0  0  0  0  0  0  0  0  0  0
    6.0207  -15.4988   19.8400 N   0  0  0  0  0  0  0  0  0  0  0  0
    6.8404  -14.4198   19.9593 C   0  0  0  0  0  0  0  0  0  0  0  0
    6.8624  -13.2235   19.2763 C   0  0  0  0  0  0  0  0  0  0  0  0
    7.8070  -12.2520   19.5622 C   0  0  0  0  0  0  0  0  0  0  0  0
    8.7507  -12.4745   20.5486 C   0  0  0  0  0  0  0  0  0  0  0  0
    8.7027  -13.6773   21.2119 C   0  0  0  0  0  0  0  0  0  0  0  0
    7.7763  -14.6572   20.9488 C   0  0  0  0  0  0  0  0  0  0  0  0
   10.2073  -16.7818   23.8772 C   0  0  0  0  0  0  0  0  0  0  0  0
   10.8793  -17.8156   24.0403 O   0  0  0  0  0  0  0  0  0  0  0  0
    9.9438  -15.9096   24.9437 N   0  0  0  0  0  0  0  0  0  0  0  0
   10.4337  -16.0885   26.2843 C   0  0  1  0  0  0  0  0  0  0  0  0
    9.9494  -15.0361   27.2746 C   0  0  0  0  0  0  0  0  0  0  0  0
    8.4971  -14.8452   27.0697 C   0  0  0  0  0  0  0  0  0  0  0  0
    7.4794  -15.7628   26.9431 C   0  0  0  0  0  0  0  0  0  0  0  0
    6.3169  -15.1128   26.7752 N   0  0  0  0  0  0  0  0  0  0  0  0
    6.5366  -13.7917   26.7874 C   0  0  0  0  0  0  0  0  0  0  0  0
    5.6758  -12.7104   26.6567 C   0  0  0  0  0  0  0  0  0  0  0  0
    6.1318  -11.4144   26.7036 C   0  0  0  0  0  0  0  0  0  0  0  0
    7.4778  -11.1933   26.8853 C   0  0  0  0  0  0  0  0  0  0  0  0
    8.3445  -12.2838   27.0169 C   0  0  0  0  0  0  0  0  0  0  0  0
    7.8876  -13.5831   26.9696 C   0  0  0  0  0  0  0  0  0  0  0  0
   10.1299  -17.4178   26.8172 C   0  0  0  0  0  0  0  0  0  0  0  0
    9.2589  -18.1456   26.2527 O   0  0  0  0  0  0  0  0  0  0  0  0
   10.7428  -17.9643   27.9327 O   0  0  0  0  0  0  0  0  0  0  0  0
  1  2  1  0
  2  3  1  0
  3  4  2  0
  5  3  1  0
  5  6  1  0
  6  7  1  1
  8  9  2  0
  8  7  1  0
 10  9  1  0
 11 16  2  0
 11 10  1  0
 12 11  1  0
 13 14  1  0
 13 12  2  0
 14 15  2  0
 15 16  1  0
 16  8  1  0
 17 18  2  0
 17  6  1  0
 19 17  1  0
 20 19  1  0
 20 21  1  1
 22 30  1  0
 22 21  1  0
 23 22  2  0
 24 23  1  0
 24 25  1  0
 25 26  1  0
 25 30  2  0
 26 27  2  0
 27 28  1  0
 29 28  2  0
 30 29  1  0
 31 20  1  0
 32 31  2  0
 33 31  1  0
M  END
$$$$
