GWW.pdb
     RDKit          3D

 33 36  0  0  1  0  0  0  0  0999 V2000
   10.7436  -15.9039   17.7395 N   0  0  0  0  0  0  0  0  0  0  0  0
   10.5727  -16.9228   18.7273 C   0  0  0  0  0  0  0  0  0  0  0  0
   10.2773  -16.3725   20.0760 C   0  0  0  0  0  0  0  0  0  0  0  0
   10.9533  -15.4223   20.5458 O   0  0  0  0  0  0  0  0  0  0  0  0
    9.2323  -16.8808   20.8953 N   0  0  0  0  0  0  0  0  0  0  0  0
    8.8799  -16.3412   22.1813 C   0  0  1  0  0  0  0  0  0  0  0  0
    7.4636  -16.5646   22.6078 C   0  0  0  0  0  0  0  0  0  0  0  0
    7.0630  -15.9407   23.8620 C   0  0  0  0  0  0  0  0  0  0  0  0
    6.5500  -16.6106   24.9565 C   0  0  0  0  0  0  0  0  0  0  0  0
    6.3136  -15.7242   25.9549 N   0  0  0  0  0  0  0  0  0  0  0  0
    6.6756  -14.4971   25.4925 C   0  0  0  0  0  0  0  0  0  0  0  0
    6.6356  -13.2583   26.0940 C   0  0  0  0  0  0  0  0  0  0  0  0
    7.0547  -12.1217   25.4230 C   0  0  0  0  0  0  0  0  0  0  0  0
    7.5236  -12.2184   24.1254 C   0  0  0  0  0  0  0  0  0  0  0  0
    7.5513  -13.4677   23.5529 C   0  0  0  0  0  0  0  0  0  0  0  0
    7.1425  -14.6109   24.1962 C   0  0  0  0  0  0  0  0  0  0  0  0
    9.7573  -17.0369   23.1920 C   0  0  0  0  0  0  0  0  0  0  0  0
    9.9065  -18.2578   23.0071 O   0  0  0  0  0  0  0  0  0  0  0  0
   10.3721  -16.3840   24.2705 N   0  0  0  0  0  0  0  0  0  0  0  0
   11.5743  -16.8345   24.9193 C   0  0  1  0  0  0  0  0  0  0  0  0
   11.3532  -17.4344   26.3028 C   0  0  0  0  0  0  0  0  0  0  0  0
   10.3055  -16.6441   26.9851 C   0  0  0  0  0  0  0  0  0  0  0  0
    9.0035  -16.9599   27.2990 C   0  0  0  0  0  0  0  0  0  0  0  0
    8.4351  -15.9178   27.9260 N   0  0  0  0  0  0  0  0  0  0  0  0
    9.3240  -14.9221   28.0360 C   0  0  0  0  0  0  0  0  0  0  0  0
    9.2286  -13.6557   28.5966 C   0  0  0  0  0  0  0  0  0  0  0  0
   10.2917  -12.7843   28.5977 C   0  0  0  0  0  0  0  0  0  0  0  0
   11.4770  -13.1868   28.0261 C   0  0  0  0  0  0  0  0  0  0  0  0
   11.5722  -14.4634   27.4613 C   0  0  0  0  0  0  0  0  0  0  0  0
   10.5063  -15.3369   27.4599 C   0  0  0  0  0  0  0  0  0  0  0  0
   12.3258  -17.7889   24.1022 C   0  0  0  0  0  0  0  0  0  0  0  0
   11.9550  -18.9994   24.0352 O   0  0  0  0  0  0  0  0  0  0  0  0
   13.4536  -17.4611   23.3678 O   0  0  0  0  0  0  0  0  0  0  0  0
  1  2  1  0
  2  3  1  0
  3  4  2  0
  5  3  1  0
  5  6  1  0
  6  7  1  1
  8  9  2  0
  8  7  1  0
 10  9  1  0
 11 16  2  0
 11 10  1  0
 12 11  1  0
 13 14  1  0
 13 12  2  0
 14 15  2  0
 15 16  1  0
 16  8  1  0
 17 18  2  0
 17  6  1  0
 19 17  1  0
 20 19  1  0
 20 21  1  1
 22 30  1  0
 22 21  1  0
 23 22  2  0
 24 23  1  0
 24 25  1  0
 25 26  1  0
 25 30  2  0
 26 27  2  0
 27 28  1  0
 29 28  2  0
 30 29  1  0
 31 20  1  0
 32 31  2  0
 33 31  1  0
M  END
$$$$
