GWW.pdb
     RDKit          3D

 33 36  0  0  1  0  0  0  0  0999 V2000
    7.6844  -15.2876   18.2166 N   0  0  0  0  0  0  0  0  0  0  0  0
    7.9289  -16.3310   19.1625 C   0  0  0  0  0  0  0  0  0  0  0  0
    8.5507  -15.8349   20.4180 C   0  0  0  0  0  0  0  0  0  0  0  0
    9.5090  -15.0218   20.3843 O   0  0  0  0  0  0  0  0  0  0  0  0
    8.1044  -16.2449   21.7043 N   0  0  0  0  0  0  0  0  0  0  0  0
    8.8409  -16.0291   22.9209 C   0  0  1  0  0  0  0  0  0  0  0  0
    8.1685  -16.4963   24.1728 C   0  0  0  0  0  0  0  0  0  0  0  0
    7.2909  -15.5360   24.8289 C   0  0  0  0  0  0  0  0  0  0  0  0
    6.1332  -15.8535   25.5135 C   0  0  0  0  0  0  0  0  0  0  0  0
    5.5847  -14.7205   26.0173 N   0  0  0  0  0  0  0  0  0  0  0  0
    6.3932  -13.6894   25.6514 C   0  0  0  0  0  0  0  0  0  0  0  0
    6.2963  -12.3367   25.8943 C   0  0  0  0  0  0  0  0  0  0  0  0
    7.2458  -11.4519   25.4115 C   0  0  0  0  0  0  0  0  0  0  0  0
    8.3152  -11.9218   24.6708 C   0  0  0  0  0  0  0  0  0  0  0  0
    8.3840  -13.2759   24.4456 C   0  0  0  0  0  0  0  0  0  0  0  0
    7.4566  -14.1752   24.9135 C   0  0  0  0  0  0  0  0  0  0  0  0
   10.1213  -16.8157   22.7907 C   0  0  0  0  0  0  0  0  0  0  0  0
   10.5473  -16.9388   21.6287 O   0  0  0  0  0  0  0  0  0  0  0  0
   10.8036  -17.3793   23.8791 N   0  0  0  0  0  0  0  0  0  0  0  0
   12.0551  -16.8950   24.3971 C   0  0  1  0  0  0  0  0  0  0  0  0
   12.3321  -17.2935   25.8419 C   0  0  0  0  0  0  0  0  0  0  0  0
   11.1050  -17.0484   26.6303 C   0  0  0  0  0  0  0  0  0  0  0  0
   10.0627  -17.8865   26.9540 C   0  0  0  0  0  0  0  0  0  0  0  0
    9.1691  -17.2139   27.6963 N   0  0  0  0  0  0  0  0  0  0  0  0
    9.5907  -15.9550   27.8731 C   0  0  0  0  0  0  0  0  0  0  0  0
    9.0351  -14.8815   28.5559 C   0  0  0  0  0  0  0  0  0  0  0  0
    9.6582  -13.6573   28.6068 C   0  0  0  0  0  0  0  0  0  0  0  0
   10.8635  -13.5017   27.9614 C   0  0  0  0  0  0  0  0  0  0  0  0
   11.4227  -14.5842   27.2735 C   0  0  0  0  0  0  0  0  0  0  0  0
   10.7979  -15.8114   27.2221 C   0  0  0  0  0  0  0  0  0  0  0  0
   13.1941  -17.2926   23.5678 C   0  0  0  0  0  0  0  0  0  0  0  0
   13.0208  -18.0631   22.5761 O   0  0  0  0  0  0  0  0  0  0  0  0
   14.4968  -16.8772   23.7896 O   0  0  0  0  0  0  0  0  0  0  0  0
  1  2  1  0
  2  3  1  0
  3  4  2  0
  5  3  1  0
  5  6  1  0
  6  7  1  1
  8  9  2  0
  8  7  1  0
 10  9  1  0
 11 16  2  0
 11 10  1  0
 12 11  1  0
 13 14  1  0
 13 12  2  0
 14 15  2  0
 15 16  1  0
 16  8  1  0
 17 18  2  0
 17  6  1  0
 19 17  1  0
 20 19  1  0
 20 21  1  1
 22 30  1  0
 22 21  1  0
 23 22  2  0
 24 23  1  0
 24 25  1  0
 25 26  1  0
 25 30  2  0
 26 27  2  0
 27 28  1  0
 29 28  2  0
 30 29  1  0
 31 20  1  0
 32 31  2  0
 33 31  1  0
M  END
$$$$
