GWW.pdb
     RDKit          3D

 33 36  0  0  1  0  0  0  0  0999 V2000
    8.6210  -19.7828   18.0439 N   0  0  0  0  0  0  0  0  0  0  0  0
    8.6567  -20.1045   19.4362 C   0  0  0  0  0  0  0  0  0  0  0  0
    8.9944  -18.9344   20.2883 C   0  0  0  0  0  0  0  0  0  0  0  0
   10.0782  -18.3164   20.1332 O   0  0  0  0  0  0  0  0  0  0  0  0
    8.1259  -18.4572   21.3080 N   0  0  0  0  0  0  0  0  0  0  0  0
    8.4125  -17.3248   22.1476 C   0  0  1  0  0  0  0  0  0  0  0  0
    7.2206  -16.5515   22.6155 C   0  0  0  0  0  0  0  0  0  0  0  0
    7.4766  -15.1963   23.0855 C   0  0  0  0  0  0  0  0  0  0  0  0
    7.9726  -14.1650   22.3107 C   0  0  0  0  0  0  0  0  0  0  0  0
    8.0591  -13.0402   23.0628 N   0  0  0  0  0  0  0  0  0  0  0  0
    7.6196  -13.3598   24.3099 C   0  0  0  0  0  0  0  0  0  0  0  0
    7.5059  -12.5949   25.4502 C   0  0  0  0  0  0  0  0  0  0  0  0
    7.0321  -13.1372   26.6330 C   0  0  0  0  0  0  0  0  0  0  0  0
    6.6633  -14.4693   26.6837 C   0  0  0  0  0  0  0  0  0  0  0  0
    6.7881  -15.2059   25.5301 C   0  0  0  0  0  0  0  0  0  0  0  0
    7.2542  -14.6927   24.3439 C   0  0  0  0  0  0  0  0  0  0  0  0
    9.0946  -17.8672   23.3788 C   0  0  0  0  0  0  0  0  0  0  0  0
    8.8264  -19.0510   23.6503 O   0  0  0  0  0  0  0  0  0  0  0  0
    9.9698  -17.1177   24.1786 N   0  0  0  0  0  0  0  0  0  0  0  0
   11.1800  -17.6290   24.7647 C   0  0  1  0  0  0  0  0  0  0  0  0
   12.0005  -16.5885   25.5176 C   0  0  0  0  0  0  0  0  0  0  0  0
   11.2520  -16.2047   26.7343 C   0  0  0  0  0  0  0  0  0  0  0  0
   10.9895  -16.9087   27.8871 C   0  0  0  0  0  0  0  0  0  0  0  0
   10.2702  -16.1401   28.7200 N   0  0  0  0  0  0  0  0  0  0  0  0
   10.0499  -14.9477   28.1513 C   0  0  0  0  0  0  0  0  0  0  0  0
    9.3709  -13.8221   28.5977 C   0  0  0  0  0  0  0  0  0  0  0  0
    9.2722  -12.6863   27.8298 C   0  0  0  0  0  0  0  0  0  0  0  0
    9.8651  -12.6742   26.5880 C   0  0  0  0  0  0  0  0  0  0  0  0
   10.5492  -13.8091   26.1390 C   0  0  0  0  0  0  0  0  0  0  0  0
   10.6479  -14.9480   26.9086 C   0  0  0  0  0  0  0  0  0  0  0  0
   10.9337  -18.7701   25.6482 C   0  0  0  0  0  0  0  0  0  0  0  0
    9.7474  -19.0838   25.9666 O   0  0  0  0  0  0  0  0  0  0  0  0
   11.9334  -19.5650   26.1844 O   0  0  0  0  0  0  0  0  0  0  0  0
  1  2  1  0
  2  3  1  0
  3  4  2  0
  5  3  1  0
  5  6  1  0
  6  7  1  1
  8  9  2  0
  8  7  1  0
 10  9  1  0
 11 16  2  0
 11 10  1  0
 12 11  1  0
 13 14  1  0
 13 12  2  0
 14 15  2  0
 15 16  1  0
 16  8  1  0
 17 18  2  0
 17  6  1  0
 19 17  1  0
 20 19  1  0
 20 21  1  1
 22 30  1  0
 22 21  1  0
 23 22  2  0
 24 23  1  0
 24 25  1  0
 25 26  1  0
 25 30  2  0
 26 27  2  0
 27 28  1  0
 29 28  2  0
 30 29  1  0
 31 20  1  0
 32 31  2  0
 33 31  1  0
M  END
$$$$
