GWW.pdb
     RDKit          3D

 33 36  0  0  1  0  0  0  0  0999 V2000
   11.4562  -17.9299   18.9015 N   0  0  0  0  0  0  0  0  0  0  0  0
   11.6154  -18.3350   20.2630 C   0  0  0  0  0  0  0  0  0  0  0  0
   11.2196  -17.2761   21.2280 C   0  0  0  0  0  0  0  0  0  0  0  0
   11.8457  -16.1872   21.2817 O   0  0  0  0  0  0  0  0  0  0  0  0
   10.1301  -17.4328   22.1282 N   0  0  0  0  0  0  0  0  0  0  0  0
    9.6269  -16.3856   22.9764 C   0  0  1  0  0  0  0  0  0  0  0  0
    8.1378  -16.3160   23.1000 C   0  0  0  0  0  0  0  0  0  0  0  0
    7.4316  -15.6555   22.0101 C   0  0  0  0  0  0  0  0  0  0  0  0
    6.2387  -16.0836   21.4590 C   0  0  0  0  0  0  0  0  0  0  0  0
    5.8573  -15.2183   20.4872 N   0  0  0  0  0  0  0  0  0  0  0  0
    6.8069  -14.2463   20.4238 C   0  0  0  0  0  0  0  0  0  0  0  0
    6.9107  -13.1378   19.6124 C   0  0  0  0  0  0  0  0  0  0  0  0
    7.9856  -12.2710   19.7166 C   0  0  0  0  0  0  0  0  0  0  0  0
    8.9796  -12.5115   20.6479 C   0  0  0  0  0  0  0  0  0  0  0  0
    8.8477  -13.6251   21.4425 C   0  0  0  0  0  0  0  0  0  0  0  0
    7.7917  -14.5003   21.3604 C   0  0  0  0  0  0  0  0  0  0  0  0
   10.1697  -16.6562   24.3575 C   0  0  0  0  0  0  0  0  0  0  0  0
   10.2608  -17.8591   24.6605 O   0  0  0  0  0  0  0  0  0  0  0  0
   10.5508  -15.6488   25.2560 N   0  0  0  0  0  0  0  0  0  0  0  0
   10.8405  -15.8642   26.6485 C   0  0  1  0  0  0  0  0  0  0  0  0
   10.1101  -14.9185   27.5946 C   0  0  0  0  0  0  0  0  0  0  0  0
    8.6976  -14.8365   27.1634 C   0  0  0  0  0  0  0  0  0  0  0  0
    7.7922  -15.8271   26.8592 C   0  0  0  0  0  0  0  0  0  0  0  0
    6.6211  -15.2659   26.5191 N   0  0  0  0  0  0  0  0  0  0  0  0
    6.7260  -13.9326   26.5901 C   0  0  0  0  0  0  0  0  0  0  0  0
    5.8101  -12.9190   26.3428 C   0  0  0  0  0  0  0  0  0  0  0  0
    6.1441  -11.5933   26.4854 C   0  0  0  0  0  0  0  0  0  0  0  0
    7.4215  -11.2724   26.8841 C   0  0  0  0  0  0  0  0  0  0  0  0
    8.3439  -12.2947   27.1330 C   0  0  0  0  0  0  0  0  0  0  0  0
    8.0093  -13.6239   26.9898 C   0  0  0  0  0  0  0  0  0  0  0  0
   10.5849  -17.2442   27.0651 C   0  0  0  0  0  0  0  0  0  0  0  0
   10.9363  -17.6360   28.2184 O   0  0  0  0  0  0  0  0  0  0  0  0
    9.9653  -18.1924   26.2678 O   0  0  0  0  0  0  0  0  0  0  0  0
  1  2  1  0
  2  3  1  0
  3  4  2  0
  5  3  1  0
  5  6  1  0
  6  7  1  1
  8  9  2  0
  8  7  1  0
 10  9  1  0
 11 16  2  0
 11 10  1  0
 12 11  1  0
 13 14  1  0
 13 12  2  0
 14 15  2  0
 15 16  1  0
 16  8  1  0
 17 18  2  0
 17  6  1  0
 19 17  1  0
 20 19  1  0
 20 21  1  1
 22 30  1  0
 22 21  1  0
 23 22  2  0
 24 23  1  0
 24 25  1  0
 25 26  1  0
 25 30  2  0
 26 27  2  0
 27 28  1  0
 29 28  2  0
 30 29  1  0
 31 20  1  0
 32 31  2  0
 33 31  1  0
M  END
$$$$
