GWW.pdb
     RDKit          3D

 33 36  0  0  1  0  0  0  0  0999 V2000
   11.5954  -18.0082   18.2858 N   0  0  0  0  0  0  0  0  0  0  0  0
   11.7266  -18.3627   19.6644 C   0  0  0  0  0  0  0  0  0  0  0  0
   11.2036  -17.3150   20.5798 C   0  0  0  0  0  0  0  0  0  0  0  0
   11.6742  -16.1494   20.5600 O   0  0  0  0  0  0  0  0  0  0  0  0
   10.1604  -17.5682   21.5122 N   0  0  0  0  0  0  0  0  0  0  0  0
    9.5848  -16.5677   22.3707 C   0  0  1  0  0  0  0  0  0  0  0  0
    8.0899  -16.5151   22.3870 C   0  0  0  0  0  0  0  0  0  0  0  0
    7.4571  -15.8435   21.2595 C   0  0  0  0  0  0  0  0  0  0  0  0
    6.5281  -16.4154   20.4111 C   0  0  0  0  0  0  0  0  0  0  0  0
    6.1325  -15.4978   19.4947 N   0  0  0  0  0  0  0  0  0  0  0  0
    6.8102  -14.3491   19.7626 C   0  0  0  0  0  0  0  0  0  0  0  0
    6.7873  -13.1213   19.1381 C   0  0  0  0  0  0  0  0  0  0  0  0
    7.5791  -12.0758   19.5827 C   0  0  0  0  0  0  0  0  0  0  0  0
    8.4124  -12.2547   20.6721 C   0  0  0  0  0  0  0  0  0  0  0  0
    8.4128  -13.4906   21.2736 C   0  0  0  0  0  0  0  0  0  0  0  0
    7.6369  -14.5438   20.8535 C   0  0  0  0  0  0  0  0  0  0  0  0
   10.0274  -16.9019   23.7734 C   0  0  0  0  0  0  0  0  0  0  0  0
   10.4983  -18.0439   23.9184 O   0  0  0  0  0  0  0  0  0  0  0  0
    9.9277  -16.0135   24.8544 N   0  0  0  0  0  0  0  0  0  0  0  0
   10.2941  -16.3317   26.2085 C   0  0  1  0  0  0  0  0  0  0  0  0
    9.8090  -15.3229   27.2429 C   0  0  0  0  0  0  0  0  0  0  0  0
    8.3920  -15.0126   26.9539 C   0  0  0  0  0  0  0  0  0  0  0  0
    7.3259  -15.8424   26.6927 C   0  0  0  0  0  0  0  0  0  0  0  0
    6.2260  -15.0991   26.4931 N   0  0  0  0  0  0  0  0  0  0  0  0
    6.5342  -13.8015   26.6152 C   0  0  0  0  0  0  0  0  0  0  0  0
    5.7613  -12.6536   26.5043 C   0  0  0  0  0  0  0  0  0  0  0  0
    6.3004  -11.4007   26.6753 C   0  0  0  0  0  0  0  0  0  0  0  0
    7.6415  -11.2916   26.9636 C   0  0  0  0  0  0  0  0  0  0  0  0
    8.4196  -12.4492   27.0751 C   0  0  0  0  0  0  0  0  0  0  0  0
    7.8794  -13.7053   26.9035 C   0  0  0  0  0  0  0  0  0  0  0  0
    9.8532  -17.6697   26.6067 C   0  0  0  0  0  0  0  0  0  0  0  0
    8.8417  -18.1971   26.0536 O   0  0  0  0  0  0  0  0  0  0  0  0
   10.4783  -18.4348   27.5776 O   0  0  0  0  0  0  0  0  0  0  0  0
  1  2  1  0
  2  3  1  0
  3  4  2  0
  5  3  1  0
  5  6  1  0
  6  7  1  1
  8  9  2  0
  8  7  1  0
 10  9  1  0
 11 16  2  0
 11 10  1  0
 12 11  1  0
 13 14  1  0
 13 12  2  0
 14 15  2  0
 15 16  1  0
 16  8  1  0
 17 18  2  0
 17  6  1  0
 19 17  1  0
 20 19  1  0
 20 21  1  1
 22 30  1  0
 22 21  1  0
 23 22  2  0
 24 23  1  0
 24 25  1  0
 25 26  1  0
 25 30  2  0
 26 27  2  0
 27 28  1  0
 29 28  2  0
 30 29  1  0
 31 20  1  0
 32 31  2  0
 33 31  1  0
M  END
$$$$
