GWW.pdb
     RDKit          3D

 33 36  0  0  1  0  0  0  0  0999 V2000
   10.7276  -18.1845   17.4031 N   0  0  0  0  0  0  0  0  0  0  0  0
   10.0346  -18.6191   18.5753 C   0  0  0  0  0  0  0  0  0  0  0  0
   10.0806  -17.6194   19.6742 C   0  0  0  0  0  0  0  0  0  0  0  0
   11.0114  -16.7769   19.7396 O   0  0  0  0  0  0  0  0  0  0  0  0
    9.0920  -17.5613   20.6946 N   0  0  0  0  0  0  0  0  0  0  0  0
    9.1149  -16.6272   21.7883 C   0  0  1  0  0  0  0  0  0  0  0  0
    7.7770  -16.1446   22.2517 C   0  0  0  0  0  0  0  0  0  0  0  0
    7.7578  -14.8566   22.9326 C   0  0  0  0  0  0  0  0  0  0  0  0
    8.1771  -13.6595   22.3840 C   0  0  0  0  0  0  0  0  0  0  0  0
    7.9933  -12.6638   23.2858 N   0  0  0  0  0  0  0  0  0  0  0  0
    7.4598  -13.2302   24.4017 C   0  0  0  0  0  0  0  0  0  0  0  0
    7.0887  -12.6743   25.6064 C   0  0  0  0  0  0  0  0  0  0  0  0
    6.5644  -13.4533   26.6242 C   0  0  0  0  0  0  0  0  0  0  0  0
    6.4056  -14.8150   26.4407 C   0  0  0  0  0  0  0  0  0  0  0  0
    6.7849  -15.3396   25.2282 C   0  0  0  0  0  0  0  0  0  0  0  0
    7.3066  -14.5896   24.2021 C   0  0  0  0  0  0  0  0  0  0  0  0
    9.7489  -17.3472   22.9523 C   0  0  0  0  0  0  0  0  0  0  0  0
    9.5707  -18.5780   22.9698 O   0  0  0  0  0  0  0  0  0  0  0  0
   10.4889  -16.7050   23.9561 N   0  0  0  0  0  0  0  0  0  0  0  0
   11.6192  -17.2827   24.6328 C   0  0  1  0  0  0  0  0  0  0  0  0
   12.2113  -16.4033   25.7277 C   0  0  0  0  0  0  0  0  0  0  0  0
   11.2524  -16.3612   26.8531 C   0  0  0  0  0  0  0  0  0  0  0  0
   10.8096  -17.3566   27.6938 C   0  0  0  0  0  0  0  0  0  0  0  0
    9.9371  -16.8375   28.5720 N   0  0  0  0  0  0  0  0  0  0  0  0
    9.7904  -15.5272   28.3364 C   0  0  0  0  0  0  0  0  0  0  0  0
    9.0163  -14.5572   28.9587 C   0  0  0  0  0  0  0  0  0  0  0  0
    9.0256  -13.2478   28.5405 C   0  0  0  0  0  0  0  0  0  0  0  0
    9.8261  -12.8992   27.4768 C   0  0  0  0  0  0  0  0  0  0  0  0
   10.6058  -13.8775   26.8503 C   0  0  0  0  0  0  0  0  0  0  0  0
   10.5964  -15.1903   27.2693 C   0  0  0  0  0  0  0  0  0  0  0  0
   11.3203  -18.6020   25.1928 C   0  0  0  0  0  0  0  0  0  0  0  0
   12.2511  -19.3130   25.6777 O   0  0  0  0  0  0  0  0  0  0  0  0
   10.0515  -19.1561   25.2363 O   0  0  0  0  0  0  0  0  0  0  0  0
  1  2  1  0
  2  3  1  0
  3  4  2  0
  5  3  1  0
  5  6  1  0
  6  7  1  1
  8  9  2  0
  8  7  1  0
 10  9  1  0
 11 16  2  0
 11 10  1  0
 12 11  1  0
 13 14  1  0
 13 12  2  0
 14 15  2  0
 15 16  1  0
 16  8  1  0
 17 18  2  0
 17  6  1  0
 19 17  1  0
 20 19  1  0
 20 21  1  1
 22 30  1  0
 22 21  1  0
 23 22  2  0
 24 23  1  0
 24 25  1  0
 25 26  1  0
 25 30  2  0
 26 27  2  0
 27 28  1  0
 29 28  2  0
 30 29  1  0
 31 20  1  0
 32 31  2  0
 33 31  1  0
M  END
$$$$
