GWW.pdb
     RDKit          3D

 33 36  0  0  1  0  0  0  0  0999 V2000
    8.1181  -17.0397   17.2175 N   0  0  0  0  0  0  0  0  0  0  0  0
    8.8593  -17.7677   18.1992 C   0  0  0  0  0  0  0  0  0  0  0  0
    8.9564  -17.0487   19.4964 C   0  0  0  0  0  0  0  0  0  0  0  0
    9.7808  -16.1126   19.6535 O   0  0  0  0  0  0  0  0  0  0  0  0
    8.1369  -17.3736   20.6120 N   0  0  0  0  0  0  0  0  0  0  0  0
    8.2807  -16.7866   21.9174 C   0  0  1  0  0  0  0  0  0  0  0  0
    7.2266  -17.1591   22.9112 C   0  0  0  0  0  0  0  0  0  0  0  0
    6.9655  -16.1891   23.9666 C   0  0  0  0  0  0  0  0  0  0  0  0
    6.4202  -16.4836   25.2018 C   0  0  0  0  0  0  0  0  0  0  0  0
    6.3439  -15.3492   25.9407 N   0  0  0  0  0  0  0  0  0  0  0  0
    6.8391  -14.3403   25.1743 C   0  0  0  0  0  0  0  0  0  0  0  0
    6.9849  -12.9957   25.4369 C   0  0  0  0  0  0  0  0  0  0  0  0
    7.5158  -12.1340   24.4918 C   0  0  0  0  0  0  0  0  0  0  0  0
    7.9103  -12.6194   23.2581 C   0  0  0  0  0  0  0  0  0  0  0  0
    7.7522  -13.9649   23.0263 C   0  0  0  0  0  0  0  0  0  0  0  0
    7.2294  -14.8413   23.9463 C   0  0  0  0  0  0  0  0  0  0  0  0
    9.5957  -17.2814   22.4662 C   0  0  0  0  0  0  0  0  0  0  0  0
    9.7448  -18.5160   22.4416 O   0  0  0  0  0  0  0  0  0  0  0  0
   10.5948  -16.4380   22.9741 N   0  0  0  0  0  0  0  0  0  0  0  0
   11.0314  -16.4232   24.3447 C   0  0  1  0  0  0  0  0  0  0  0  0
    9.9542  -16.8125   25.3501 C   0  0  0  0  0  0  0  0  0  0  0  0
    9.5333  -15.5907   26.0698 C   0  0  0  0  0  0  0  0  0  0  0  0
    8.4693  -14.7444   25.8570 C   0  0  0  0  0  0  0  0  0  0  0  0
    8.4940  -13.7645   26.7743 N   0  0  0  0  0  0  0  0  0  0  0  0
    9.5436  -13.9388   27.5877 C   0  0  0  0  0  0  0  0  0  0  0  0
    9.9991  -13.2098   28.6779 C   0  0  0  0  0  0  0  0  0  0  0  0
   11.1207  -13.5838   29.3790 C   0  0  0  0  0  0  0  0  0  0  0  0
   11.8029  -14.7113   28.9826 C   0  0  0  0  0  0  0  0  0  0  0  0
   11.3430  -15.4452   27.8837 C   0  0  0  0  0  0  0  0  0  0  0  0
   10.2188  -15.0702   27.1805 C   0  0  0  0  0  0  0  0  0  0  0  0
   12.2113  -17.2617   24.5640 C   0  0  0  0  0  0  0  0  0  0  0  0
   13.3564  -16.7305   24.6808 O   0  0  0  0  0  0  0  0  0  0  0  0
   12.1738  -18.6432   24.6577 O   0  0  0  0  0  0  0  0  0  0  0  0
  1  2  1  0
  2  3  1  0
  3  4  2  0
  5  3  1  0
  5  6  1  0
  6  7  1  1
  8  9  2  0
  8  7  1  0
 10  9  1  0
 11 16  2  0
 11 10  1  0
 12 11  1  0
 13 14  1  0
 13 12  2  0
 14 15  2  0
 15 16  1  0
 16  8  1  0
 17 18  2  0
 17  6  1  0
 19 17  1  0
 20 19  1  0
 20 21  1  1
 22 30  1  0
 22 21  1  0
 23 22  2  0
 24 23  1  0
 24 25  1  0
 25 26  1  0
 25 30  2  0
 26 27  2  0
 27 28  1  0
 29 28  2  0
 30 29  1  0
 31 20  1  0
 32 31  2  0
 33 31  1  0
M  END
$$$$
