NTS.pdb
     RDKit          3D

 22 21  0  0  1  0  0  0  0  0999 V2000
   19.7461  -18.6899  -13.2995 N   0  0  0  0  0  0  0  0  0  0  0  0
   20.5198  -18.9872  -14.4729 C   0  0  0  0  0  0  0  0  0  0  0  0
   20.8281  -20.1661  -14.7239 O   0  0  0  0  0  0  0  0  0  0  0  0
   20.8975  -17.8253  -15.3126 C   0  0  0  0  0  0  0  0  0  0  0  0
   20.4311  -16.5642  -14.6041 C   0  0  2  0  0  0  0  0  0  0  0  0
   19.0074  -16.6043  -14.3746 N   0  0  0  0  0  0  0  0  0  0  0  0
   20.7801  -15.3537  -15.4260 C   0  0  0  0  0  0  0  0  0  0  0  0
   21.9418  -15.1793  -15.8494 O   0  0  0  0  0  0  0  0  0  0  0  0
   19.2374  -14.1767  -18.5756 C   0  0  0  0  0  0  0  0  0  0  0  0
   18.9920  -13.0867  -17.5555 C   0  0  1  0  0  0  0  0  0  0  0  0
   17.7283  -13.2282  -17.0353 O   0  0  0  0  0  0  0  0  0  0  0  0
   20.0141  -13.1759  -16.4395 C   0  0  2  0  0  0  0  0  0  0  0  0
   19.7913  -14.4001  -15.7269 N   0  0  0  0  0  0  0  0  0  0  0  0
   20.0318  -11.9878  -15.5891 C   0  0  0  0  0  0  0  0  0  0  0  0
   19.3141  -11.9678  -14.5593 O   0  0  0  0  0  0  0  0  0  0  0  0
   22.8836   -9.0355  -15.8287 O   0  0  0  0  0  0  0  0  0  0  0  0
   22.1618   -9.2001  -14.6502 C   0  0  0  0  0  0  0  0  0  0  0  0
   20.7583   -9.7132  -14.9825 C   0  0  2  0  0  0  0  0  0  0  0  0
   20.8254  -10.8479  -15.8717 N   0  0  0  0  0  0  0  0  0  0  0  0
   19.9873   -8.5958  -15.5201 C   0  0  0  0  0  0  0  0  0  0  0  0
   19.4858   -8.6570  -16.8035 O   0  0  0  0  0  0  0  0  0  0  0  0
   19.7753   -7.5803  -14.8286 O   0  0  0  0  0  0  0  0  0  0  0  0
  2  1  1  0
  3  2  2  0
  4  2  1  0
  4  5  1  0
  5  7  1  0
  5  6  1  6
  7 13  1  0
  8  7  2  0
 10  9  1  6
 10 12  1  0
 11 10  1  0
 12 14  1  0
 12 13  1  1
 14 15  2  0
 14 19  1  0
 16 17  1  0
 18 17  1  6
 18 20  1  0
 19 18  1  0
 20 21  1  0
 22 20  2  0
M  END
$$$$
