NTS.pdb
     RDKit          3D

 22 21  0  0  1  0  0  0  0  0999 V2000
   20.0731  -15.0881  -15.5227 N   0  0  0  0  0  0  0  0  0  0  0  0
   19.9136  -14.4990  -16.8232 C   0  0  0  0  0  0  0  0  0  0  0  0
   19.5672  -15.2112  -17.7828 O   0  0  0  0  0  0  0  0  0  0  0  0
   20.1844  -13.0442  -16.9142 C   0  0  0  0  0  0  0  0  0  0  0  0
   18.8840  -12.3077  -16.6382 C   0  0  2  0  0  0  0  0  0  0  0  0
   17.8703  -12.6861  -17.5925 N   0  0  0  0  0  0  0  0  0  0  0  0
   19.1114  -10.8221  -16.6996 C   0  0  0  0  0  0  0  0  0  0  0  0
   19.5658  -10.2851  -17.7313 O   0  0  0  0  0  0  0  0  0  0  0  0
   16.4357   -8.4123  -15.9095 C   0  0  0  0  0  0  0  0  0  0  0  0
   17.5838   -8.0574  -14.9902 C   0  0  1  0  0  0  0  0  0  0  0  0
   17.3599   -8.6077  -13.7514 O   0  0  0  0  0  0  0  0  0  0  0  0
   18.8874   -8.5874  -15.5540 C   0  0  2  0  0  0  0  0  0  0  0  0
   18.8112  -10.0189  -15.5850 N   0  0  0  0  0  0  0  0  0  0  0  0
   20.0610   -8.0695  -14.8543 C   0  0  0  0  0  0  0  0  0  0  0  0
   20.4933   -8.6904  -13.8524 O   0  0  0  0  0  0  0  0  0  0  0  0
   22.6849   -5.4235  -16.5602 O   0  0  0  0  0  0  0  0  0  0  0  0
   23.0979   -6.3111  -15.5710 C   0  0  0  0  0  0  0  0  0  0  0  0
   21.9576   -6.5228  -14.5715 C   0  0  2  0  0  0  0  0  0  0  0  0
   20.7407   -6.8916  -15.2540 N   0  0  0  0  0  0  0  0  0  0  0  0
   21.8319   -5.3089  -13.7700 C   0  0  0  0  0  0  0  0  0  0  0  0
   22.8329   -4.9565  -12.8889 O   0  0  0  0  0  0  0  0  0  0  0  0
   20.8241   -4.5820  -13.8730 O   0  0  0  0  0  0  0  0  0  0  0  0
  2  1  1  0
  3  2  2  0
  4  2  1  0
  4  5  1  0
  5  7  1  0
  5  6  1  6
  7 13  1  0
  8  7  2  0
 10  9  1  6
 10 12  1  0
 11 10  1  0
 12 14  1  0
 12 13  1  1
 14 15  2  0
 14 19  1  0
 16 17  1  0
 18 17  1  6
 18 20  1  0
 19 18  1  0
 20 21  1  0
 22 20  2  0
M  END
$$$$
