NTS.pdb
     RDKit          3D

 22 21  0  0  1  0  0  0  0  0999 V2000
   16.3987  -13.5123  -14.8185 N   0  0  0  0  0  0  0  0  0  0  0  0
   16.8055  -12.4237  -15.6631 C   0  0  0  0  0  0  0  0  0  0  0  0
   16.0975  -12.1005  -16.6338 O   0  0  0  0  0  0  0  0  0  0  0  0
   18.0766  -11.7560  -15.2938 C   0  0  0  0  0  0  0  0  0  0  0  0
   18.9638  -11.7228  -16.5273 C   0  0  2  0  0  0  0  0  0  0  0  0
   19.4047  -13.0517  -16.8751 N   0  0  0  0  0  0  0  0  0  0  0  0
   20.1560  -10.8398  -16.2796 C   0  0  0  0  0  0  0  0  0  0  0  0
   21.1077  -11.2308  -15.5720 O   0  0  0  0  0  0  0  0  0  0  0  0
   22.4941   -9.6351  -18.6663 C   0  0  0  0  0  0  0  0  0  0  0  0
   21.8605   -8.3783  -18.1112 C   0  0  1  0  0  0  0  0  0  0  0  0
   20.8450   -7.9760  -18.9445 O   0  0  0  0  0  0  0  0  0  0  0  0
   21.3067   -8.6410  -16.7247 C   0  0  2  0  0  0  0  0  0  0  0  0
   20.2085   -9.5548  -16.8484 N   0  0  0  0  0  0  0  0  0  0  0  0
   20.9806   -7.4140  -16.0014 C   0  0  0  0  0  0  0  0  0  0  0  0
   19.8309   -6.9246  -16.1239 O   0  0  0  0  0  0  0  0  0  0  0  0
   22.3624   -6.2762  -12.4608 O   0  0  0  0  0  0  0  0  0  0  0  0
   22.3908   -5.1914  -13.3322 C   0  0  0  0  0  0  0  0  0  0  0  0
   21.5150   -5.4962  -14.5503 C   0  0  2  0  0  0  0  0  0  0  0  0
   21.9052   -6.7438  -15.1619 N   0  0  0  0  0  0  0  0  0  0  0  0
   21.5920   -4.3535  -15.4559 C   0  0  0  0  0  0  0  0  0  0  0  0
   21.0389   -3.1441  -15.0901 O   0  0  0  0  0  0  0  0  0  0  0  0
   22.1554   -4.4583  -16.5633 O   0  0  0  0  0  0  0  0  0  0  0  0
  2  1  1  0
  3  2  2  0
  4  2  1  0
  4  5  1  0
  5  7  1  0
  5  6  1  1
  7 13  1  0
  8  7  2  0
 10  9  1  6
 10 12  1  0
 11 10  1  0
 12 14  1  0
 12 13  1  6
 14 15  2  0
 14 19  1  0
 16 17  1  0
 18 17  1  1
 18 20  1  0
 19 18  1  0
 20 21  1  0
 22 20  2  0
M  END
$$$$
