NTS.pdb
     RDKit          3D

 22 21  0  0  1  0  0  0  0  0999 V2000
   19.4431  -11.9390  -20.4512 N   0  0  0  0  0  0  0  0  0  0  0  0
   19.3845  -11.9867  -19.0165 C   0  0  0  0  0  0  0  0  0  0  0  0
   19.6689  -13.0432  -18.4241 O   0  0  0  0  0  0  0  0  0  0  0  0
   18.9767  -10.7312  -18.3417 C   0  0  0  0  0  0  0  0  0  0  0  0
   19.1326  -10.9329  -16.8434 C   0  0  2  0  0  0  0  0  0  0  0  0
   18.1955  -11.9177  -16.3605 N   0  0  0  0  0  0  0  0  0  0  0  0
   18.9170   -9.6296  -16.1241 C   0  0  0  0  0  0  0  0  0  0  0  0
   17.8561   -8.9866  -16.2662 O   0  0  0  0  0  0  0  0  0  0  0  0
   18.9474   -9.0872  -12.5443 C   0  0  0  0  0  0  0  0  0  0  0  0
   20.0627   -8.2121  -13.0729 C   0  0  1  0  0  0  0  0  0  0  0  0
   21.2613   -8.8679  -12.9284 O   0  0  0  0  0  0  0  0  0  0  0  0
   19.8293   -7.8959  -14.5370 C   0  0  2  0  0  0  0  0  0  0  0  0
   19.9181   -9.1205  -15.2779 N   0  0  0  0  0  0  0  0  0  0  0  0
   20.7020   -6.8351  -15.0351 C   0  0  0  0  0  0  0  0  0  0  0  0
   21.7820   -7.1496  -15.5929 O   0  0  0  0  0  0  0  0  0  0  0  0
   19.9354   -2.7667  -14.5058 O   0  0  0  0  0  0  0  0  0  0  0  0
   20.6691   -3.1326  -15.6304 C   0  0  0  0  0  0  0  0  0  0  0  0
   21.3464   -4.4820  -15.3770 C   0  0  2  0  0  0  0  0  0  0  0  0
   20.3872   -5.4581  -14.9188 N   0  0  0  0  0  0  0  0  0  0  0  0
   22.4475   -4.2634  -14.4434 C   0  0  0  0  0  0  0  0  0  0  0  0
   23.5497   -3.5324  -14.8348 O   0  0  0  0  0  0  0  0  0  0  0  0
   22.4033   -4.7325  -13.2891 O   0  0  0  0  0  0  0  0  0  0  0  0
  2  1  1  0
  3  2  2  0
  4  2  1  0
  4  5  1  0
  5  7  1  0
  5  6  1  1
  7 13  1  0
  8  7  2  0
 10  9  1  6
 10 12  1  0
 11 10  1  0
 12 14  1  0
 12 13  1  6
 14 15  2  0
 14 19  1  0
 16 17  1  0
 18 17  1  1
 18 20  1  0
 19 18  1  0
 20 21  1  0
 22 20  2  0
M  END
$$$$
