NTS.pdb
     RDKit          3D

 22 21  0  0  1  0  0  0  0  0999 V2000
   12.7947  -11.1841  -12.2789 N   0  0  0  0  0  0  0  0  0  0  0  0
   12.4164  -11.2945  -10.8973 C   0  0  0  0  0  0  0  0  0  0  0  0
   11.3466  -11.8532  -10.5953 O   0  0  0  0  0  0  0  0  0  0  0  0
   13.3647  -10.7140   -9.9167 C   0  0  0  0  0  0  0  0  0  0  0  0
   14.6037  -10.2640  -10.6731 C   0  0  2  0  0  0  0  0  0  0  0  0
   15.4411  -11.3927  -10.9988 N   0  0  0  0  0  0  0  0  0  0  0  0
   15.3803   -9.2761   -9.8465 C   0  0  0  0  0  0  0  0  0  0  0  0
   16.0603   -9.6522   -8.8690 O   0  0  0  0  0  0  0  0  0  0  0  0
   18.2223   -7.6720  -10.2961 C   0  0  0  0  0  0  0  0  0  0  0  0
   17.2724   -6.4961  -10.2326 C   0  0  1  0  0  0  0  0  0  0  0  0
   16.9222   -6.1262  -11.5086 O   0  0  0  0  0  0  0  0  0  0  0  0
   16.0280   -6.8715   -9.4524 C   0  0  2  0  0  0  0  0  0  0  0  0
   15.3462   -7.9083  -10.1711 N   0  0  0  0  0  0  0  0  0  0  0  0
   15.1887   -5.7189   -9.1329 C   0  0  0  0  0  0  0  0  0  0  0  0
   14.3623   -5.3145   -9.9871 O   0  0  0  0  0  0  0  0  0  0  0  0
   13.4646   -2.4635   -6.0156 O   0  0  0  0  0  0  0  0  0  0  0  0
   14.3469   -3.5246   -6.1962 C   0  0  0  0  0  0  0  0  0  0  0  0
   14.4050   -3.8884   -7.6822 C   0  0  2  0  0  0  0  0  0  0  0  0
   15.2620   -5.0295   -7.8966 N   0  0  0  0  0  0  0  0  0  0  0  0
   14.8219   -2.6992   -8.4196 C   0  0  0  0  0  0  0  0  0  0  0  0
   13.8784   -1.7971   -8.8653 O   0  0  0  0  0  0  0  0  0  0  0  0
   16.0283   -2.4877   -8.6529 O   0  0  0  0  0  0  0  0  0  0  0  0
  2  1  1  0
  3  2  2  0
  4  2  1  0
  4  5  1  0
  5  7  1  0
  5  6  1  1
  7 13  1  0
  8  7  2  0
 10  9  1  6
 10 12  1  0
 11 10  1  0
 12 14  1  0
 12 13  1  6
 14 15  2  0
 14 19  1  0
 16 17  1  0
 18 17  1  1
 18 20  1  0
 19 18  1  0
 20 21  1  0
 22 20  2  0
M  END
$$$$
