NTS.pdb
     RDKit          3D

 22 21  0  0  1  0  0  0  0  0999 V2000
   24.4582  -20.9247   -9.1887 N   0  0  0  0  0  0  0  0  0  0  0  0
   25.6286  -20.0921   -9.2188 C   0  0  0  0  0  0  0  0  0  0  0  0
   26.0042  -19.5211   -8.1791 O   0  0  0  0  0  0  0  0  0  0  0  0
   26.3119  -19.9805  -10.5298 C   0  0  0  0  0  0  0  0  0  0  0  0
   25.5145  -20.7847  -11.5434 C   0  0  2  0  0  0  0  0  0  0  0  0
   25.5195  -22.1861  -11.2011 N   0  0  0  0  0  0  0  0  0  0  0  0
   26.0920  -20.5949  -12.9192 C   0  0  0  0  0  0  0  0  0  0  0  0
   27.2634  -20.9424  -13.1765 O   0  0  0  0  0  0  0  0  0  0  0  0
   24.9487  -22.2580  -15.6811 C   0  0  0  0  0  0  0  0  0  0  0  0
   24.7835  -20.8208  -16.1243 C   0  0  1  0  0  0  0  0  0  0  0  0
   23.4758  -20.4387  -15.9468 O   0  0  0  0  0  0  0  0  0  0  0  0
   25.6917  -19.9168  -15.3143 C   0  0  2  0  0  0  0  0  0  0  0  0
   25.3097  -20.0191  -13.9360 N   0  0  0  0  0  0  0  0  0  0  0  0
   25.7280  -18.5468  -15.8211 C   0  0  0  0  0  0  0  0  0  0  0  0
   24.9480  -17.6961  -15.3270 O   0  0  0  0  0  0  0  0  0  0  0  0
   28.5801  -17.2720  -18.4838 O   0  0  0  0  0  0  0  0  0  0  0  0
   28.0263  -16.3016  -17.6540 C   0  0  0  0  0  0  0  0  0  0  0  0
   26.6198  -16.7362  -17.2339 C   0  0  2  0  0  0  0  0  0  0  0  0
   26.6070  -18.1276  -16.8509 N   0  0  0  0  0  0  0  0  0  0  0  0
   25.7073  -16.4247  -18.3303 C   0  0  0  0  0  0  0  0  0  0  0  0
   25.5775  -15.1246  -18.7723 O   0  0  0  0  0  0  0  0  0  0  0  0
   25.0396  -17.3254  -18.8756 O   0  0  0  0  0  0  0  0  0  0  0  0
  2  1  1  0
  3  2  2  0
  4  2  1  0
  4  5  1  0
  5  7  1  0
  5  6  1  1
  7 13  1  0
  8  7  2  0
 10  9  1  1
 10 12  1  0
 11 10  1  0
 12 14  1  0
 12 13  1  1
 14 15  2  0
 14 19  1  0
 16 17  1  0
 18 17  1  6
 18 20  1  0
 19 18  1  0
 20 21  1  0
 22 20  2  0
M  END
$$$$
