NTS.pdb
     RDKit          3D

 22 21  0  0  1  0  0  0  0  0999 V2000
   12.8497  -10.9208  -12.9970 N   0  0  0  0  0  0  0  0  0  0  0  0
   13.7215  -10.4282  -14.0272 C   0  0  0  0  0  0  0  0  0  0  0  0
   13.2352   -9.9179  -15.0524 O   0  0  0  0  0  0  0  0  0  0  0  0
   15.1746  -10.5748  -13.7724 C   0  0  0  0  0  0  0  0  0  0  0  0
   15.8658  -10.7837  -15.1096 C   0  0  2  0  0  0  0  0  0  0  0  0
   15.6931  -12.1409  -15.5672 N   0  0  0  0  0  0  0  0  0  0  0  0
   17.3319  -10.4715  -14.9849 C   0  0  0  0  0  0  0  0  0  0  0  0
   18.0905  -11.2092  -14.3220 O   0  0  0  0  0  0  0  0  0  0  0  0
   19.6122  -10.3118  -17.7347 C   0  0  0  0  0  0  0  0  0  0  0  0
   19.6830   -8.9327  -17.1165 C   0  0  1  0  0  0  0  0  0  0  0  0
   18.8543   -8.0825  -17.8078 O   0  0  0  0  0  0  0  0  0  0  0  0
   19.2555   -8.9893  -15.6631 C   0  0  2  0  0  0  0  0  0  0  0  0
   17.8646   -9.3355  -15.6200 N   0  0  0  0  0  0  0  0  0  0  0  0
   19.5885   -7.7728  -14.9254 C   0  0  0  0  0  0  0  0  0  0  0  0
   18.7196   -6.8733  -14.8144 O   0  0  0  0  0  0  0  0  0  0  0  0
   22.3782   -5.3171  -11.8817 O   0  0  0  0  0  0  0  0  0  0  0  0
   22.3093   -6.4372  -12.7049 C   0  0  0  0  0  0  0  0  0  0  0  0
   21.0903   -6.3173  -13.6233 C   0  0  2  0  0  0  0  0  0  0  0  0
   20.8537   -7.5564  -14.3241 N   0  0  0  0  0  0  0  0  0  0  0  0
   21.3067   -5.1778  -14.5102 C   0  0  0  0  0  0  0  0  0  0  0  0
   20.8537   -3.9260  -14.1492 O   0  0  0  0  0  0  0  0  0  0  0  0
   21.9000   -5.3233  -15.5971 O   0  0  0  0  0  0  0  0  0  0  0  0
  2  1  1  0
  3  2  2  0
  4  2  1  0
  4  5  1  0
  5  7  1  0
  5  6  1  1
  7 13  1  0
  8  7  2  0
 10  9  1  6
 10 12  1  0
 11 10  1  0
 12 14  1  0
 12 13  1  6
 14 15  2  0
 14 19  1  0
 16 17  1  0
 18 17  1  6
 18 20  1  0
 19 18  1  0
 20 21  1  0
 22 20  2  0
M  END
$$$$
