NTS.pdb
     RDKit          3D

 22 21  0  0  1  0  0  0  0  0999 V2000
   17.9517  -14.0493  -14.9269 N   0  0  0  0  0  0  0  0  0  0  0  0
   19.0192  -14.1045  -15.8868 C   0  0  0  0  0  0  0  0  0  0  0  0
   19.6781  -15.1522  -16.0143 O   0  0  0  0  0  0  0  0  0  0  0  0
   19.2524  -12.8674  -16.6697 C   0  0  0  0  0  0  0  0  0  0  0  0
   18.2604  -11.8186  -16.1947 C   0  0  2  0  0  0  0  0  0  0  0  0
   16.9115  -12.2000  -16.5356 N   0  0  0  0  0  0  0  0  0  0  0  0
   18.5844  -10.4866  -16.8138 C   0  0  0  0  0  0  0  0  0  0  0  0
   18.1887  -10.2004  -17.9631 O   0  0  0  0  0  0  0  0  0  0  0  0
   17.5987   -7.3998  -15.3769 C   0  0  0  0  0  0  0  0  0  0  0  0
   18.3275   -7.4679  -16.7011 C   0  0  1  0  0  0  0  0  0  0  0  0
   18.5746   -6.1928  -17.1491 O   0  0  0  0  0  0  0  0  0  0  0  0
   19.6379   -8.2126  -16.5385 C   0  0  2  0  0  0  0  0  0  0  0  0
   19.3426   -9.5444  -16.0964 N   0  0  0  0  0  0  0  0  0  0  0  0
   20.5931   -7.5028  -15.6907 C   0  0  0  0  0  0  0  0  0  0  0  0
   20.5345   -7.6606  -14.4465 O   0  0  0  0  0  0  0  0  0  0  0  0
   24.5988   -4.8570  -15.1638 O   0  0  0  0  0  0  0  0  0  0  0  0
   23.6114   -5.2651  -16.0558 C   0  0  0  0  0  0  0  0  0  0  0  0
   22.5188   -6.0186  -15.2928 C   0  0  2  0  0  0  0  0  0  0  0  0
   21.5904   -6.6383  -16.2076 N   0  0  0  0  0  0  0  0  0  0  0  0
   21.8884   -5.0807  -14.3683 C   0  0  0  0  0  0  0  0  0  0  0  0
   22.3328   -4.9912  -13.0656 O   0  0  0  0  0  0  0  0  0  0  0  0
   20.9470   -4.3548  -14.7444 O   0  0  0  0  0  0  0  0  0  0  0  0
  2  1  1  0
  3  2  2  0
  4  2  1  0
  4  5  1  0
  5  7  1  0
  5  6  1  6
  7 13  1  0
  8  7  2  0
 10  9  1  1
 10 12  1  0
 11 10  1  0
 12 14  1  0
 12 13  1  1
 14 15  2  0
 14 19  1  0
 16 17  1  0
 18 17  1  6
 18 20  1  0
 19 18  1  0
 20 21  1  0
 22 20  2  0
M  END
$$$$
