NTS.pdb
     RDKit          3D

 22 21  0  0  1  0  0  0  0  0999 V2000
   20.1701  -14.3716  -15.7086 N   0  0  0  0  0  0  0  0  0  0  0  0
   18.8687  -13.8250  -15.9760 C   0  0  0  0  0  0  0  0  0  0  0  0
   17.8717  -14.5686  -15.9482 O   0  0  0  0  0  0  0  0  0  0  0  0
   18.8232  -12.3730  -16.2720 C   0  0  0  0  0  0  0  0  0  0  0  0
   17.8604  -11.7249  -15.2908 C   0  0  2  0  0  0  0  0  0  0  0  0
   16.4998  -12.1042  -15.5844 N   0  0  0  0  0  0  0  0  0  0  0  0
   17.9955  -10.2280  -15.3506 C   0  0  0  0  0  0  0  0  0  0  0  0
   17.7579   -9.6044  -16.4059 O   0  0  0  0  0  0  0  0  0  0  0  0
   16.2009   -7.8929  -13.2350 C   0  0  0  0  0  0  0  0  0  0  0  0
   17.6620   -7.6087  -12.9637 C   0  0  1  0  0  0  0  0  0  0  0  0
   18.0450   -8.2584  -11.8153 O   0  0  0  0  0  0  0  0  0  0  0  0
   18.5114   -8.0858  -14.1252 C   0  0  2  0  0  0  0  0  0  0  0  0
   18.3942   -9.5126  -14.2075 N   0  0  0  0  0  0  0  0  0  0  0  0
   19.8896   -7.6055  -14.0560 C   0  0  0  0  0  0  0  0  0  0  0  0
   20.7548   -8.3225  -13.4959 O   0  0  0  0  0  0  0  0  0  0  0  0
   21.9177   -5.9810  -16.8321 O   0  0  0  0  0  0  0  0  0  0  0  0
   22.1542   -5.2052  -15.7010 C   0  0  0  0  0  0  0  0  0  0  0  0
   21.6821   -5.9639  -14.4579 C   0  0  2  0  0  0  0  0  0  0  0  0
   20.3012   -6.3605  -14.5940 N   0  0  0  0  0  0  0  0  0  0  0  0
   21.9344   -5.1195  -13.2938 C   0  0  0  0  0  0  0  0  0  0  0  0
   23.2270   -4.9068  -12.8622 O   0  0  0  0  0  0  0  0  0  0  0  0
   20.9894   -4.5848  -12.6809 O   0  0  0  0  0  0  0  0  0  0  0  0
  2  1  1  0
  3  2  2  0
  4  2  1  0
  4  5  1  0
  5  7  1  0
  5  6  1  6
  7 13  1  0
  8  7  2  0
 10  9  1  6
 10 12  1  0
 11 10  1  0
 12 14  1  0
 12 13  1  1
 14 15  2  0
 14 19  1  0
 16 17  1  0
 18 17  1  6
 18 20  1  0
 19 18  1  0
 20 21  1  0
 22 20  2  0
M  END
$$$$
