NTS.pdb
     RDKit          3D

 22 21  0  0  1  0  0  0  0  0999 V2000
   15.5618  -11.9561  -17.5114 N   0  0  0  0  0  0  0  0  0  0  0  0
   15.3765  -10.8832  -16.5741 C   0  0  0  0  0  0  0  0  0  0  0  0
   14.2510  -10.3697  -16.4418 O   0  0  0  0  0  0  0  0  0  0  0  0
   16.5822  -10.4656  -15.8193 C   0  0  0  0  0  0  0  0  0  0  0  0
   17.7574  -11.2878  -16.3218 C   0  0  2  0  0  0  0  0  0  0  0  0
   17.6197  -12.6690  -15.9283 N   0  0  0  0  0  0  0  0  0  0  0  0
   19.0446  -10.7301  -15.7792 C   0  0  0  0  0  0  0  0  0  0  0  0
   19.4579  -11.0562  -14.6469 O   0  0  0  0  0  0  0  0  0  0  0  0
   22.3684  -10.8150  -17.4846 C   0  0  0  0  0  0  0  0  0  0  0  0
   22.0295   -9.3567  -17.2669 C   0  0  1  0  0  0  0  0  0  0  0  0
   21.4965   -8.8374  -18.4218 O   0  0  0  0  0  0  0  0  0  0  0  0
   21.0287   -9.2161  -16.1369 C   0  0  2  0  0  0  0  0  0  0  0  0
   19.7997   -9.8285  -16.5502 N   0  0  0  0  0  0  0  0  0  0  0  0
   20.8806   -7.8369  -15.6776 C   0  0  0  0  0  0  0  0  0  0  0  0
   19.9505   -7.1371  -16.1481 O   0  0  0  0  0  0  0  0  0  0  0  0
   22.0043   -4.2570  -12.6344 O   0  0  0  0  0  0  0  0  0  0  0  0
   22.3411   -5.5333  -13.0758 C   0  0  0  0  0  0  0  0  0  0  0  0
   21.4870   -5.8900  -14.2953 C   0  0  2  0  0  0  0  0  0  0  0  0
   21.7419   -7.2455  -14.7198 N   0  0  0  0  0  0  0  0  0  0  0  0
   21.7472   -4.8953  -15.3321 C   0  0  0  0  0  0  0  0  0  0  0  0
   20.9287   -3.7915  -15.4509 O   0  0  0  0  0  0  0  0  0  0  0  0
   22.7065   -5.0324  -16.1165 O   0  0  0  0  0  0  0  0  0  0  0  0
  2  1  1  0
  3  2  2  0
  4  2  1  0
  4  5  1  0
  5  7  1  0
  5  6  1  1
  7 13  1  0
  8  7  2  0
 10  9  1  6
 10 12  1  0
 11 10  1  0
 12 14  1  0
 12 13  1  6
 14 15  2  0
 14 19  1  0
 16 17  1  0
 18 17  1  1
 18 20  1  0
 19 18  1  0
 20 21  1  0
 22 20  2  0
M  END
$$$$
