NTS.pdb
     RDKit          3D

 22 21  0  0  1  0  0  0  0  0999 V2000
   15.4559  -12.4864  -16.8154 N   0  0  0  0  0  0  0  0  0  0  0  0
   15.5459  -11.9665  -15.4792 C   0  0  0  0  0  0  0  0  0  0  0  0
   14.5131  -11.8420  -14.7968 O   0  0  0  0  0  0  0  0  0  0  0  0
   16.9071  -11.6109  -15.0117 C   0  0  0  0  0  0  0  0  0  0  0  0
   17.8873  -11.9504  -16.1224 C   0  0  2  0  0  0  0  0  0  0  0  0
   18.0886  -13.3764  -16.2077 N   0  0  0  0  0  0  0  0  0  0  0  0
   19.2029  -11.2647  -15.8745 C   0  0  0  0  0  0  0  0  0  0  0  0
   20.0379  -11.7470  -15.0810 O   0  0  0  0  0  0  0  0  0  0  0  0
   21.7191  -10.4320  -18.3709 C   0  0  0  0  0  0  0  0  0  0  0  0
   21.3198   -9.1047  -17.7643 C   0  0  1  0  0  0  0  0  0  0  0  0
   20.3974   -8.4930  -18.5783 O   0  0  0  0  0  0  0  0  0  0  0  0
   20.7210   -9.3183  -16.3881 C   0  0  2  0  0  0  0  0  0  0  0  0
   19.5057  -10.0639  -16.5407 N   0  0  0  0  0  0  0  0  0  0  0  0
   20.5651   -8.0746  -15.6372 C   0  0  0  0  0  0  0  0  0  0  0  0
   19.4467   -7.5043  -15.6329 O   0  0  0  0  0  0  0  0  0  0  0  0
   22.1611   -4.7107  -12.5859 O   0  0  0  0  0  0  0  0  0  0  0  0
   22.4900   -5.8792  -13.2667 C   0  0  0  0  0  0  0  0  0  0  0  0
   21.4110   -6.1788  -14.3106 C   0  0  2  0  0  0  0  0  0  0  0  0
   21.6225   -7.4755  -14.9076 N   0  0  0  0  0  0  0  0  0  0  0  0
   21.4063   -5.0851  -15.2780 C   0  0  0  0  0  0  0  0  0  0  0  0
   20.5952   -3.9880  -15.0757 O   0  0  0  0  0  0  0  0  0  0  0  0
   22.1313   -5.1310  -16.2913 O   0  0  0  0  0  0  0  0  0  0  0  0
  2  1  1  0
  3  2  2  0
  4  2  1  0
  4  5  1  0
  5  7  1  0
  5  6  1  1
  7 13  1  0
  8  7  2  0
 10  9  1  6
 10 12  1  0
 11 10  1  0
 12 14  1  0
 12 13  1  6
 14 15  2  0
 14 19  1  0
 16 17  1  0
 18 17  1  1
 18 20  1  0
 19 18  1  0
 20 21  1  0
 22 20  2  0
M  END
$$$$
