NTS.pdb
     RDKit          3D

 22 21  0  0  1  0  0  0  0  0999 V2000
   17.2106  -11.3664  -20.3341 N   0  0  0  0  0  0  0  0  0  0  0  0
   18.5032  -11.0535  -19.7907 C   0  0  0  0  0  0  0  0  0  0  0  0
   19.5160  -11.1780  -20.5024 O   0  0  0  0  0  0  0  0  0  0  0  0
   18.5206  -10.5937  -18.3814 C   0  0  0  0  0  0  0  0  0  0  0  0
   19.6595  -11.3059  -17.6705 C   0  0  2  0  0  0  0  0  0  0  0  0
   19.3025  -12.6723  -17.3756 N   0  0  0  0  0  0  0  0  0  0  0  0
   20.0023  -10.5834  -16.3966 C   0  0  0  0  0  0  0  0  0  0  0  0
   19.3096  -10.7324  -15.3685 O   0  0  0  0  0  0  0  0  0  0  0  0
   22.7948  -10.9459  -14.3617 C   0  0  0  0  0  0  0  0  0  0  0  0
   22.8970   -9.4947  -14.7773 C   0  0  1  0  0  0  0  0  0  0  0  0
   23.7826   -9.3831  -15.8217 O   0  0  0  0  0  0  0  0  0  0  0  0
   21.5380   -8.9771  -15.2055 C   0  0  2  0  0  0  0  0  0  0  0  0
   21.1163   -9.7262  -16.3533 N   0  0  0  0  0  0  0  0  0  0  0  0
   21.5172   -7.5291  -15.4001 C   0  0  0  0  0  0  0  0  0  0  0  0
   21.8810   -7.0602  -16.5065 O   0  0  0  0  0  0  0  0  0  0  0  0
   19.9369   -3.1643  -14.6124 O   0  0  0  0  0  0  0  0  0  0  0  0
   19.8528   -4.5182  -14.3011 C   0  0  0  0  0  0  0  0  0  0  0  0
   21.1733   -5.2043  -14.6612 C   0  0  2  0  0  0  0  0  0  0  0  0
   21.1036   -6.6207  -14.3938 N   0  0  0  0  0  0  0  0  0  0  0  0
   22.2439   -4.5259  -13.9364 C   0  0  0  0  0  0  0  0  0  0  0  0
   22.8438   -3.4081  -14.4779 O   0  0  0  0  0  0  0  0  0  0  0  0
   22.6251   -4.9474  -12.8266 O   0  0  0  0  0  0  0  0  0  0  0  0
  2  1  1  0
  3  2  2  0
  4  2  1  0
  4  5  1  0
  5  7  1  0
  5  6  1  1
  7 13  1  0
  8  7  2  0
 10  9  1  6
 10 12  1  0
 11 10  1  0
 12 14  1  0
 12 13  1  6
 14 15  2  0
 14 19  1  0
 16 17  1  0
 18 17  1  1
 18 20  1  0
 19 18  1  0
 20 21  1  0
 22 20  2  0
M  END
$$$$
