NTS.pdb
     RDKit          3D

 22 21  0  0  1  0  0  0  0  0999 V2000
   17.4414  -11.6867  -19.0584 N   0  0  0  0  0  0  0  0  0  0  0  0
   16.6321  -10.6051  -18.5693 C   0  0  0  0  0  0  0  0  0  0  0  0
   15.7297  -10.1386  -19.2876 O   0  0  0  0  0  0  0  0  0  0  0  0
   16.9518  -10.1209  -17.2051 C   0  0  0  0  0  0  0  0  0  0  0  0
   18.1031  -10.9561  -16.6696 C   0  0  2  0  0  0  0  0  0  0  0  0
   17.6142  -12.1704  -16.0631 N   0  0  0  0  0  0  0  0  0  0  0  0
   18.8875  -10.1633  -15.6603 C   0  0  0  0  0  0  0  0  0  0  0  0
   18.4366   -9.9602  -14.5137 O   0  0  0  0  0  0  0  0  0  0  0  0
   22.3649  -10.9012  -14.6110 C   0  0  0  0  0  0  0  0  0  0  0  0
   22.3856   -9.4999  -15.1812 C   0  0  1  0  0  0  0  0  0  0  0  0
   22.8150   -9.5470  -16.4854 O   0  0  0  0  0  0  0  0  0  0  0  0
   20.9979   -8.8922  -15.1243 C   0  0  2  0  0  0  0  0  0  0  0  0
   20.1468   -9.6399  -16.0034 N   0  0  0  0  0  0  0  0  0  0  0  0
   20.9972   -7.4532  -15.3777 C   0  0  0  0  0  0  0  0  0  0  0  0
   20.9582   -7.0460  -16.5647 O   0  0  0  0  0  0  0  0  0  0  0  0
   18.8069   -4.8309  -15.1626 O   0  0  0  0  0  0  0  0  0  0  0  0
   19.8328   -4.3564  -14.3506 C   0  0  0  0  0  0  0  0  0  0  0  0
   21.1318   -5.0904  -14.6935 C   0  0  2  0  0  0  0  0  0  0  0  0
   21.0388   -6.4868  -14.3416 N   0  0  0  0  0  0  0  0  0  0  0  0
   22.2299   -4.3935  -14.0298 C   0  0  0  0  0  0  0  0  0  0  0  0
   22.5619   -3.1095  -14.4084 O   0  0  0  0  0  0  0  0  0  0  0  0
   22.8754   -4.9487  -13.1190 O   0  0  0  0  0  0  0  0  0  0  0  0
  2  1  1  0
  3  2  2  0
  4  2  1  0
  4  5  1  0
  5  7  1  0
  5  6  1  1
  7 13  1  0
  8  7  2  0
 10  9  1  6
 10 12  1  0
 11 10  1  0
 12 14  1  0
 12 13  1  6
 14 15  2  0
 14 19  1  0
 16 17  1  0
 18 17  1  1
 18 20  1  0
 19 18  1  0
 20 21  1  0
 22 20  2  0
M  END
$$$$
