NTS.pdb
     RDKit          3D

 22 21  0  0  1  0  0  0  0  0999 V2000
   21.3428  -20.7586   -9.0304 N   0  0  0  0  0  0  0  0  0  0  0  0
   21.9543  -21.0796  -10.2902 C   0  0  0  0  0  0  0  0  0  0  0  0
   21.6047  -22.1064  -10.8996 O   0  0  0  0  0  0  0  0  0  0  0  0
   22.9841  -20.1285  -10.7726 C   0  0  0  0  0  0  0  0  0  0  0  0
   24.3029  -20.8772  -10.8729 C   0  0  2  0  0  0  0  0  0  0  0  0
   24.7878  -21.2351   -9.5622 N   0  0  0  0  0  0  0  0  0  0  0  0
   25.3240  -20.0277  -11.5788 C   0  0  0  0  0  0  0  0  0  0  0  0
   25.8769  -19.0722  -10.9954 O   0  0  0  0  0  0  0  0  0  0  0  0
   28.4414  -21.0671  -12.8389 C   0  0  0  0  0  0  0  0  0  0  0  0
   27.7408  -20.5478  -14.0753 C   0  0  1  0  0  0  0  0  0  0  0  0
   27.2051  -21.6046  -14.7708 O   0  0  0  0  0  0  0  0  0  0  0  0
   26.6374  -19.5845  -13.6848 C   0  0  2  0  0  0  0  0  0  0  0  0
   25.6671  -20.3058  -12.9139 N   0  0  0  0  0  0  0  0  0  0  0  0
   26.0758  -18.8700  -14.8290 C   0  0  0  0  0  0  0  0  0  0  0  0
   25.0800  -19.3564  -15.4190 O   0  0  0  0  0  0  0  0  0  0  0  0
   25.7905  -14.9550  -17.6443 O   0  0  0  0  0  0  0  0  0  0  0  0
   26.4802  -15.5716  -16.6046 C   0  0  0  0  0  0  0  0  0  0  0  0
   25.9640  -17.0026  -16.4319 C   0  0  2  0  0  0  0  0  0  0  0  0
   26.6038  -17.6455  -15.3095 N   0  0  0  0  0  0  0  0  0  0  0  0
   26.1599  -17.7061  -17.6963 C   0  0  0  0  0  0  0  0  0  0  0  0
   25.2346  -17.5737  -18.7106 O   0  0  0  0  0  0  0  0  0  0  0  0
   27.1599  -18.4298  -17.8716 O   0  0  0  0  0  0  0  0  0  0  0  0
  2  1  1  0
  3  2  2  0
  4  2  1  0
  4  5  1  0
  5  7  1  0
  5  6  1  1
  7 13  1  0
  8  7  2  0
 10  9  1  1
 10 12  1  0
 11 10  1  0
 12 14  1  0
 12 13  1  6
 14 15  2  0
 14 19  1  0
 16 17  1  0
 18 17  1  6
 18 20  1  0
 19 18  1  0
 20 21  1  0
 22 20  2  0
M  END
$$$$
