NTS.pdb
     RDKit          3D

 22 21  0  0  1  0  0  0  0  0999 V2000
   15.3362  -12.5931  -15.5906 N   0  0  0  0  0  0  0  0  0  0  0  0
   16.3845  -12.5242  -14.6107 C   0  0  0  0  0  0  0  0  0  0  0  0
   16.3268  -13.2427  -13.5967 O   0  0  0  0  0  0  0  0  0  0  0  0
   17.4823  -11.5710  -14.9010 C   0  0  0  0  0  0  0  0  0  0  0  0
   17.1295  -10.8249  -16.1772 C   0  0  2  0  0  0  0  0  0  0  0  0
   17.1059  -11.7246  -17.3048 N   0  0  0  0  0  0  0  0  0  0  0  0
   18.1273   -9.7267  -16.4234 C   0  0  0  0  0  0  0  0  0  0  0  0
   19.2246   -9.9676  -16.9683 O   0  0  0  0  0  0  0  0  0  0  0  0
   17.2062   -6.7393  -18.3489 C   0  0  0  0  0  0  0  0  0  0  0  0
   17.6991   -6.2299  -17.0122 C   0  0  1  0  0  0  0  0  0  0  0  0
   16.6227   -5.9929  -16.1921 O   0  0  0  0  0  0  0  0  0  0  0  0
   18.6134   -7.2534  -16.3682 C   0  0  2  0  0  0  0  0  0  0  0  0
   17.8292   -8.4075  -16.0380 N   0  0  0  0  0  0  0  0  0  0  0  0
   19.3727   -6.7092  -15.2446 C   0  0  0  0  0  0  0  0  0  0  0  0
   18.8477   -6.7017  -14.1042 O   0  0  0  0  0  0  0  0  0  0  0  0
   22.5457   -7.7381  -13.9067 O   0  0  0  0  0  0  0  0  0  0  0  0
   22.7243   -6.3643  -14.0402 C   0  0  0  0  0  0  0  0  0  0  0  0
   21.3602   -5.6893  -14.2058 C   0  0  2  0  0  0  0  0  0  0  0  0
   20.6828   -6.1854  -15.3796 N   0  0  0  0  0  0  0  0  0  0  0  0
   21.5730   -4.2449  -14.2221 C   0  0  0  0  0  0  0  0  0  0  0  0
   22.0478   -3.6043  -13.0966 O   0  0  0  0  0  0  0  0  0  0  0  0
   21.3292   -3.5791  -15.2476 O   0  0  0  0  0  0  0  0  0  0  0  0
  2  1  1  0
  3  2  2  0
  4  2  1  0
  4  5  1  0
  5  7  1  0
  5  6  1  6
  7 13  1  0
  8  7  2  0
 10  9  1  6
 10 12  1  0
 11 10  1  0
 12 14  1  0
 12 13  1  1
 14 15  2  0
 14 19  1  0
 16 17  1  0
 18 17  1  6
 18 20  1  0
 19 18  1  0
 20 21  1  0
 22 20  2  0
M  END
$$$$
