HFC.pdb
     RDKit          3D

 28 29  0  0  1  0  0  0  0  0999 V2000
    8.8162  -17.2602   20.3085 N   0  0  0  0  0  0  0  0  0  0  0  0
   10.1724  -16.8929   20.6600 C   0  0  1  0  0  0  0  0  0  0  0  0
   10.7928  -16.1658   19.4662 C   0  0  0  0  0  0  0  0  0  0  0  0
   10.6889  -17.1023   18.3152 C   0  0  0  0  0  0  0  0  0  0  0  0
   11.2208  -18.3543   18.2090 C   0  0  0  0  0  0  0  0  0  0  0  0
   10.8932  -18.8756   16.9922 N   0  0  0  0  0  0  0  0  0  0  0  0
   10.1679  -17.9474   16.3639 C   0  0  0  0  0  0  0  0  0  0  0  0
   10.0371  -16.8580   17.1654 N   0  0  0  0  0  0  0  0  0  0  0  0
   10.1944  -16.0332   21.8805 C   0  0  0  0  0  0  0  0  0  0  0  0
   11.2405  -15.5408   22.3426 O   0  0  0  0  0  0  0  0  0  0  0  0
    8.9804  -15.7699   22.5342 N   0  0  0  0  0  0  0  0  0  0  0  0
    8.8681  -15.1262   23.8191 C   0  0  1  0  0  0  0  0  0  0  0  0
    7.5450  -14.3471   23.7894 C   0  0  0  0  0  0  0  0  0  0  0  0
    7.3408  -13.5758   25.0104 C   0  0  0  0  0  0  0  0  0  0  0  0
    8.1448  -12.5018   25.3122 C   0  0  0  0  0  0  0  0  0  0  0  0
    7.9210  -11.8046   26.4660 C   0  0  0  0  0  0  0  0  0  0  0  0
    6.9051  -12.1633   27.3253 C   0  0  0  0  0  0  0  0  0  0  0  0
    6.0877  -13.2354   27.0430 C   0  0  0  0  0  0  0  0  0  0  0  0
    6.3298  -13.9262   25.8737 C   0  0  0  0  0  0  0  0  0  0  0  0
    8.8440  -16.1232   24.9315 C   0  0  0  0  0  0  0  0  0  0  0  0
    7.7456  -16.6409   25.3132 O   0  0  0  0  0  0  0  0  0  0  0  0
   10.0085  -16.5387   25.6071 N   0  0  0  0  0  0  0  0  0  0  0  0
   10.0568  -17.5890   26.5866 C   0  0  1  0  0  0  0  0  0  0  0  0
   11.1636  -18.5820   26.3259 C   0  0  0  0  0  0  0  0  0  0  0  0
   12.6226  -17.6486   25.7831 S   0  0  0  0  0  0  0  0  0  0  0  0
   10.0961  -17.0874   27.9732 C   0  0  0  0  0  0  0  0  0  0  0  0
   10.2301  -15.8548   28.1505 O   0  0  0  0  0  0  0  0  0  0  0  0
    9.9936  -17.8984   29.0877 O   0  0  0  0  0  0  0  0  0  0  0  0
  2  1  1  6
  2  9  1  0
  3  2  1  0
  4  3  1  0
  5  4  2  0
  6  5  1  0
  7  6  1  0
  7  8  2  0
  8  4  1  0
  9 11  1  0
  9 10  2  0
 11 12  1  0
 12 13  1  6
 13 14  1  0
 14 19  2  0
 15 16  2  0
 15 14  1  0
 16 17  1  0
 17 18  2  0
 19 18  1  0
 20 12  1  0
 20 21  2  0
 22 20  1  0
 23 22  1  0
 23 24  1  6
 24 25  1  0
 26 23  1  0
 27 26  2  0
 28 26  1  0
M  END
$$$$
