HFC.pdb
     RDKit          3D

 28 29  0  0  1  0  0  0  0  0999 V2000
    9.9995  -17.1132   19.5316 N   0  0  0  0  0  0  0  0  0  0  0  0
    9.2272  -17.4636   20.7058 C   0  0  1  0  0  0  0  0  0  0  0  0
    9.5458  -18.9144   21.0692 C   0  0  0  0  0  0  0  0  0  0  0  0
    9.0441  -19.7411   19.9388 C   0  0  0  0  0  0  0  0  0  0  0  0
    7.7535  -20.0967   19.6751 C   0  0  0  0  0  0  0  0  0  0  0  0
    7.7235  -20.8583   18.5443 N   0  0  0  0  0  0  0  0  0  0  0  0
    8.9863  -20.9645   18.1242 C   0  0  0  0  0  0  0  0  0  0  0  0
    9.8025  -20.2841   18.9710 N   0  0  0  0  0  0  0  0  0  0  0  0
    9.5369  -16.5467   21.8428 C   0  0  0  0  0  0  0  0  0  0  0  0
   10.6998  -16.2663   22.1883 O   0  0  0  0  0  0  0  0  0  0  0  0
    8.4679  -15.9770   22.5519 N   0  0  0  0  0  0  0  0  0  0  0  0
    8.6155  -15.1200   23.7015 C   0  0  1  0  0  0  0  0  0  0  0  0
    7.2606  -14.4214   23.8872 C   0  0  0  0  0  0  0  0  0  0  0  0
    7.2475  -13.5653   25.0679 C   0  0  0  0  0  0  0  0  0  0  0  0
    7.9896  -12.4084   25.1117 C   0  0  0  0  0  0  0  0  0  0  0  0
    7.9505  -11.6331   26.2365 C   0  0  0  0  0  0  0  0  0  0  0  0
    7.1806  -11.9953   27.3206 C   0  0  0  0  0  0  0  0  0  0  0  0
    6.4295  -13.1497   27.2986 C   0  0  0  0  0  0  0  0  0  0  0  0
    6.4825  -13.9183   26.1543 C   0  0  0  0  0  0  0  0  0  0  0  0
    8.9545  -15.9021   24.9284 C   0  0  0  0  0  0  0  0  0  0  0  0
    8.2655  -16.9202   25.2581 O   0  0  0  0  0  0  0  0  0  0  0  0
   10.0316  -15.5660   25.7724 N   0  0  0  0  0  0  0  0  0  0  0  0
   10.4535  -16.3373   26.9090 C   0  0  1  0  0  0  0  0  0  0  0  0
   11.8222  -16.9477   26.7268 C   0  0  0  0  0  0  0  0  0  0  0  0
   12.0630  -18.1625   28.0537 S   0  0  0  0  0  0  0  0  0  0  0  0
   10.3570  -15.5963   28.1808 C   0  0  0  0  0  0  0  0  0  0  0  0
   10.3383  -14.3449   28.1338 O   0  0  0  0  0  0  0  0  0  0  0  0
   10.2861  -16.2027   29.4208 O   0  0  0  0  0  0  0  0  0  0  0  0
  2  1  1  6
  2  9  1  0
  3  2  1  0
  4  3  1  0
  5  4  2  0
  6  5  1  0
  7  6  1  0
  7  8  2  0
  8  4  1  0
  9 11  1  0
  9 10  2  0
 11 12  1  0
 12 13  1  1
 13 14  1  0
 14 19  2  0
 15 16  2  0
 15 14  1  0
 16 17  1  0
 17 18  2  0
 19 18  1  0
 20 12  1  0
 20 21  2  0
 22 20  1  0
 23 22  1  0
 23 24  1  6
 24 25  1  0
 26 23  1  0
 27 26  2  0
 28 26  1  0
M  END
$$$$
