HFC.pdb
     RDKit          3D

 28 29  0  0  1  0  0  0  0  0999 V2000
    9.9092  -16.8584   19.3587 N   0  0  0  0  0  0  0  0  0  0  0  0
    8.6829  -16.5638   20.0709 C   0  0  1  0  0  0  0  0  0  0  0  0
    7.8307  -17.8334   20.0959 C   0  0  0  0  0  0  0  0  0  0  0  0
    7.4424  -18.0958   18.6842 C   0  0  0  0  0  0  0  0  0  0  0  0
    7.8562  -17.4284   17.5683 C   0  0  0  0  0  0  0  0  0  0  0  0
    7.2649  -17.9838   16.4722 N   0  0  0  0  0  0  0  0  0  0  0  0
    6.4977  -18.9811   16.9187 C   0  0  0  0  0  0  0  0  0  0  0  0
    6.5994  -19.0579   18.2715 N   0  0  0  0  0  0  0  0  0  0  0  0
    8.9705  -16.0850   21.4556 C   0  0  0  0  0  0  0  0  0  0  0  0
    9.9489  -16.4781   22.1179 O   0  0  0  0  0  0  0  0  0  0  0  0
    8.0976  -15.1502   22.0340 N   0  0  0  0  0  0  0  0  0  0  0  0
    8.2246  -14.6353   23.3744 C   0  0  1  0  0  0  0  0  0  0  0  0
    7.0854  -13.6205   23.5492 C   0  0  0  0  0  0  0  0  0  0  0  0
    7.0347  -13.0883   24.9062 C   0  0  0  0  0  0  0  0  0  0  0  0
    5.9612  -13.3433   25.7270 C   0  0  0  0  0  0  0  0  0  0  0  0
    5.9514  -12.8265   26.9921 C   0  0  0  0  0  0  0  0  0  0  0  0
    6.9986  -12.0576   27.4518 C   0  0  0  0  0  0  0  0  0  0  0  0
    8.0838  -11.7896   26.6470 C   0  0  0  0  0  0  0  0  0  0  0  0
    8.0747  -12.3202   25.3736 C   0  0  0  0  0  0  0  0  0  0  0  0
    8.0968  -15.7207   24.3930 C   0  0  0  0  0  0  0  0  0  0  0  0
    7.0663  -16.4675   24.4174 O   0  0  0  0  0  0  0  0  0  0  0  0
    9.0863  -15.9750   25.3633 N   0  0  0  0  0  0  0  0  0  0  0  0
    9.1058  -17.1181   26.2337 C   0  0  1  0  0  0  0  0  0  0  0  0
    9.5227  -18.3851   25.5267 C   0  0  0  0  0  0  0  0  0  0  0  0
    9.6544  -19.6941   26.7773 S   0  0  0  0  0  0  0  0  0  0  0  0
    9.8945  -16.8992   27.4609 C   0  0  0  0  0  0  0  0  0  0  0  0
   10.5689  -15.8475   27.5482 O   0  0  0  0  0  0  0  0  0  0  0  0
    9.9324  -17.7871   28.5194 O   0  0  0  0  0  0  0  0  0  0  0  0
  2  1  1  1
  2  9  1  0
  3  2  1  0
  4  3  1  0
  5  4  2  0
  6  5  1  0
  7  6  1  0
  7  8  2  0
  8  4  1  0
  9 11  1  0
  9 10  2  0
 11 12  1  0
 12 13  1  1
 13 14  1  0
 14 19  2  0
 15 16  2  0
 15 14  1  0
 16 17  1  0
 17 18  2  0
 19 18  1  0
 20 12  1  0
 20 21  2  0
 22 20  1  0
 23 22  1  0
 23 24  1  6
 24 25  1  0
 26 23  1  0
 27 26  2  0
 28 26  1  0
M  END
$$$$
