HFC.pdb
     RDKit          3D

 28 29  0  0  1  0  0  0  0  0999 V2000
   10.0168  -16.9302   19.4762 N   0  0  0  0  0  0  0  0  0  0  0  0
    9.3446  -17.3911   20.6736 C   0  0  1  0  0  0  0  0  0  0  0  0
    9.8279  -18.8106   20.9737 C   0  0  0  0  0  0  0  0  0  0  0  0
    9.3904  -19.6458   19.8231 C   0  0  0  0  0  0  0  0  0  0  0  0
    8.1408  -20.1351   19.5761 C   0  0  0  0  0  0  0  0  0  0  0  0
    8.1646  -20.8522   18.4165 N   0  0  0  0  0  0  0  0  0  0  0  0
    9.4189  -20.7990   17.9624 C   0  0  0  0  0  0  0  0  0  0  0  0
   10.1772  -20.0628   18.8164 N   0  0  0  0  0  0  0  0  0  0  0  0
    9.6161  -16.4790   21.8240 C   0  0  0  0  0  0  0  0  0  0  0  0
   10.7664  -16.2099   22.2174 O   0  0  0  0  0  0  0  0  0  0  0  0
    8.5243  -15.9004   22.4899 N   0  0  0  0  0  0  0  0  0  0  0  0
    8.6285  -15.0913   23.6784 C   0  0  1  0  0  0  0  0  0  0  0  0
    7.2921  -14.3450   23.8026 C   0  0  0  0  0  0  0  0  0  0  0  0
    7.2280  -13.5433   25.0194 C   0  0  0  0  0  0  0  0  0  0  0  0
    6.4116  -13.9069   26.0645 C   0  0  0  0  0  0  0  0  0  0  0  0
    6.3798  -13.1291   27.1877 C   0  0  0  0  0  0  0  0  0  0  0  0
    7.1519  -11.9917   27.2844 C   0  0  0  0  0  0  0  0  0  0  0  0
    7.9768  -11.6088   26.2500 C   0  0  0  0  0  0  0  0  0  0  0  0
    7.9946  -12.4070   25.1250 C   0  0  0  0  0  0  0  0  0  0  0  0
    8.8553  -15.9296   24.8940 C   0  0  0  0  0  0  0  0  0  0  0  0
    8.0217  -16.8341   25.2215 O   0  0  0  0  0  0  0  0  0  0  0  0
    9.9789  -15.7715   25.7294 N   0  0  0  0  0  0  0  0  0  0  0  0
   10.2921  -16.6150   26.8498 C   0  0  1  0  0  0  0  0  0  0  0  0
   11.6954  -17.1685   26.7915 C   0  0  0  0  0  0  0  0  0  0  0  0
   12.0237  -17.6536   25.0735 S   0  0  0  0  0  0  0  0  0  0  0  0
   10.0162  -15.9770   28.1509 C   0  0  0  0  0  0  0  0  0  0  0  0
    9.6488  -14.7797   28.1541 O   0  0  0  0  0  0  0  0  0  0  0  0
   10.1396  -16.6238   29.3661 O   0  0  0  0  0  0  0  0  0  0  0  0
  2  1  1  6
  2  9  1  0
  3  2  1  0
  4  3  1  0
  5  4  2  0
  6  5  1  0
  7  6  1  0
  7  8  2  0
  8  4  1  0
  9 11  1  0
  9 10  2  0
 11 12  1  0
 12 13  1  1
 13 14  1  0
 14 19  2  0
 15 16  2  0
 15 14  1  0
 16 17  1  0
 17 18  2  0
 19 18  1  0
 20 12  1  0
 20 21  2  0
 22 20  1  0
 23 22  1  0
 23 24  1  1
 24 25  1  0
 26 23  1  0
 27 26  2  0
 28 26  1  0
M  END
$$$$
