HFC.pdb
     RDKit          3D

 28 29  0  0  1  0  0  0  0  0999 V2000
   10.6189  -17.6935   20.4494 N   0  0  0  0  0  0  0  0  0  0  0  0
    9.5638  -17.6987   21.4417 C   0  0  1  0  0  0  0  0  0  0  0  0
    9.6053  -19.0412   22.1730 C   0  0  0  0  0  0  0  0  0  0  0  0
    9.1312  -20.0569   21.1951 C   0  0  0  0  0  0  0  0  0  0  0  0
    8.7264  -19.8497   19.9086 C   0  0  0  0  0  0  0  0  0  0  0  0
    8.3704  -21.0443   19.3558 N   0  0  0  0  0  0  0  0  0  0  0  0
    8.5575  -21.9703   20.2992 C   0  0  0  0  0  0  0  0  0  0  0  0
    9.0231  -21.3760   21.4290 N   0  0  0  0  0  0  0  0  0  0  0  0
    9.7235  -16.5633   22.3980 C   0  0  0  0  0  0  0  0  0  0  0  0
   10.8334  -16.0957   22.7140 O   0  0  0  0  0  0  0  0  0  0  0  0
    8.5695  -15.9997   22.9646 N   0  0  0  0  0  0  0  0  0  0  0  0
    8.5731  -14.9240   23.9241 C   0  0  1  0  0  0  0  0  0  0  0  0
    7.1524  -14.3410   23.9137 C   0  0  0  0  0  0  0  0  0  0  0  0
    6.9830  -13.3035   24.9248 C   0  0  0  0  0  0  0  0  0  0  0  0
    6.0989  -13.4667   25.9654 C   0  0  0  0  0  0  0  0  0  0  0  0
    5.9691  -12.4712   26.8926 C   0  0  0  0  0  0  0  0  0  0  0  0
    6.7096  -11.3128   26.7973 C   0  0  0  0  0  0  0  0  0  0  0  0
    7.6010  -11.1281   25.7636 C   0  0  0  0  0  0  0  0  0  0  0  0
    7.7174  -12.1445   24.8381 C   0  0  0  0  0  0  0  0  0  0  0  0
    8.9097  -15.4133   25.2950 C   0  0  0  0  0  0  0  0  0  0  0  0
    9.0921  -14.5911   26.2493 O   0  0  0  0  0  0  0  0  0  0  0  0
    9.0419  -16.7817   25.6040 N   0  0  0  0  0  0  0  0  0  0  0  0
    9.3265  -17.3022   26.9128 C   0  0  1  0  0  0  0  0  0  0  0  0
    8.0967  -17.8253   27.6147 C   0  0  0  0  0  0  0  0  0  0  0  0
    7.4028  -19.1537   26.5907 S   0  0  0  0  0  0  0  0  0  0  0  0
   10.4156  -18.2971   26.9169 C   0  0  0  0  0  0  0  0  0  0  0  0
   10.8267  -18.7255   25.8141 O   0  0  0  0  0  0  0  0  0  0  0  0
   11.0084  -18.7837   28.0667 O   0  0  0  0  0  0  0  0  0  0  0  0
  2  1  1  6
  2  9  1  0
  3  2  1  0
  4  3  1  0
  5  4  2  0
  6  5  1  0
  7  6  1  0
  7  8  2  0
  8  4  1  0
  9 11  1  0
  9 10  2  0
 11 12  1  0
 12 13  1  1
 13 14  1  0
 14 19  2  0
 15 16  2  0
 15 14  1  0
 16 17  1  0
 17 18  2  0
 19 18  1  0
 20 12  1  0
 20 21  2  0
 22 20  1  0
 23 22  1  0
 23 24  1  6
 24 25  1  0
 26 23  1  0
 27 26  2  0
 28 26  1  0
M  END
$$$$
