HFC.pdb
     RDKit          3D

 28 29  0  0  1  0  0  0  0  0999 V2000
    9.8505  -17.1668   19.5300 N   0  0  0  0  0  0  0  0  0  0  0  0
    8.8863  -17.4176   20.5813 C   0  0  1  0  0  0  0  0  0  0  0  0
    8.8436  -18.9246   20.8379 C   0  0  0  0  0  0  0  0  0  0  0  0
    8.2152  -19.5292   19.6327 C   0  0  0  0  0  0  0  0  0  0  0  0
    8.8264  -20.2444   18.6444 C   0  0  0  0  0  0  0  0  0  0  0  0
    7.8932  -20.6183   17.7231 N   0  0  0  0  0  0  0  0  0  0  0  0
    6.7240  -20.1340   18.1483 C   0  0  0  0  0  0  0  0  0  0  0  0
    6.9104  -19.4657   19.3166 N   0  0  0  0  0  0  0  0  0  0  0  0
    9.2451  -16.6731   21.8248 C   0  0  0  0  0  0  0  0  0  0  0  0
   10.3681  -16.7472   22.3575 O   0  0  0  0  0  0  0  0  0  0  0  0
    8.2714  -15.8541   22.4176 N   0  0  0  0  0  0  0  0  0  0  0  0
    8.4645  -15.1068   23.6350 C   0  0  1  0  0  0  0  0  0  0  0  0
    7.2367  -14.1947   23.7727 C   0  0  0  0  0  0  0  0  0  0  0  0
    7.2757  -13.4124   25.0030 C   0  0  0  0  0  0  0  0  0  0  0  0
    8.2414  -12.4538   25.2021 C   0  0  0  0  0  0  0  0  0  0  0  0
    8.2439  -11.7418   26.3686 C   0  0  0  0  0  0  0  0  0  0  0  0
    7.2956  -11.9722   27.3416 C   0  0  0  0  0  0  0  0  0  0  0  0
    6.3193  -12.9273   27.1635 C   0  0  0  0  0  0  0  0  0  0  0  0
    6.3339  -13.6351   25.9795 C   0  0  0  0  0  0  0  0  0  0  0  0
    8.5613  -16.0085   24.8223 C   0  0  0  0  0  0  0  0  0  0  0  0
    7.6196  -16.8194   25.0979 O   0  0  0  0  0  0  0  0  0  0  0  0
    9.6746  -16.0138   25.6859 N   0  0  0  0  0  0  0  0  0  0  0  0
    9.8288  -16.8844   26.8186 C   0  0  1  0  0  0  0  0  0  0  0  0
   10.6302  -18.1233   26.4998 C   0  0  0  0  0  0  0  0  0  0  0  0
   10.8050  -19.0748   28.0356 S   0  0  0  0  0  0  0  0  0  0  0  0
   10.3518  -16.1947   28.0131 C   0  0  0  0  0  0  0  0  0  0  0  0
   10.8027  -15.0346   27.8737 O   0  0  0  0  0  0  0  0  0  0  0  0
   10.3730  -16.7543   29.2767 O   0  0  0  0  0  0  0  0  0  0  0  0
  2  1  1  6
  2  9  1  0
  3  2  1  0
  4  3  1  0
  5  4  2  0
  6  5  1  0
  7  6  1  0
  7  8  2  0
  8  4  1  0
  9 11  1  0
  9 10  2  0
 11 12  1  0
 12 13  1  1
 13 14  1  0
 14 19  2  0
 15 16  2  0
 15 14  1  0
 16 17  1  0
 17 18  2  0
 19 18  1  0
 20 12  1  0
 20 21  2  0
 22 20  1  0
 23 22  1  0
 23 24  1  6
 24 25  1  0
 26 23  1  0
 27 26  2  0
 28 26  1  0
M  END
$$$$
