HFC.pdb
     RDKit          3D

 28 29  0  0  1  0  0  0  0  0999 V2000
   10.3169  -16.7597   19.4266 N   0  0  0  0  0  0  0  0  0  0  0  0
    9.2406  -16.9653   20.3737 C   0  0  1  0  0  0  0  0  0  0  0  0
    9.0783  -18.4705   20.5898 C   0  0  0  0  0  0  0  0  0  0  0  0
    8.5654  -19.0174   19.3050 C   0  0  0  0  0  0  0  0  0  0  0  0
    7.2859  -19.3875   19.0086 C   0  0  0  0  0  0  0  0  0  0  0  0
    7.2391  -19.8371   17.7220 N   0  0  0  0  0  0  0  0  0  0  0  0
    8.4806  -19.7408   17.2405 C   0  0  0  0  0  0  0  0  0  0  0  0
    9.3001  -19.2401   18.2017 N   0  0  0  0  0  0  0  0  0  0  0  0
    9.5220  -16.2669   21.6631 C   0  0  0  0  0  0  0  0  0  0  0  0
   10.6327  -16.3045   22.2245 O   0  0  0  0  0  0  0  0  0  0  0  0
    8.4867  -15.5363   22.2669 N   0  0  0  0  0  0  0  0  0  0  0  0
    8.5960  -14.8628   23.5367 C   0  0  1  0  0  0  0  0  0  0  0  0
    7.2904  -14.0736   23.7125 C   0  0  0  0  0  0  0  0  0  0  0  0
    7.2601  -13.3473   24.9770 C   0  0  0  0  0  0  0  0  0  0  0  0
    8.0914  -12.2742   25.1971 C   0  0  0  0  0  0  0  0  0  0  0  0
    8.0327  -11.6198   26.3955 C   0  0  0  0  0  0  0  0  0  0  0  0
    7.1553  -12.0208   27.3797 C   0  0  0  0  0  0  0  0  0  0  0  0
    6.3137  -13.0928   27.1809 C   0  0  0  0  0  0  0  0  0  0  0  0
    6.3883  -13.7399   25.9648 C   0  0  0  0  0  0  0  0  0  0  0  0
    8.7558  -15.8343   24.6604 C   0  0  0  0  0  0  0  0  0  0  0  0
    7.8848  -16.7403   24.8618 O   0  0  0  0  0  0  0  0  0  0  0  0
    9.8544  -15.8048   25.5422 N   0  0  0  0  0  0  0  0  0  0  0  0
   10.0997  -16.7700   26.5780 C   0  0  1  0  0  0  0  0  0  0  0  0
   11.3255  -17.6112   26.3158 C   0  0  0  0  0  0  0  0  0  0  0  0
   11.2022  -18.2483   24.6207 S   0  0  0  0  0  0  0  0  0  0  0  0
   10.1300  -16.1766   27.9282 C   0  0  0  0  0  0  0  0  0  0  0  0
   10.0508  -14.9305   28.0263 O   0  0  0  0  0  0  0  0  0  0  0  0
   10.2406  -16.9158   29.0909 O   0  0  0  0  0  0  0  0  0  0  0  0
  2  1  1  6
  2  9  1  0
  3  2  1  0
  4  3  1  0
  5  4  2  0
  6  5  1  0
  7  6  1  0
  7  8  2  0
  8  4  1  0
  9 11  1  0
  9 10  2  0
 11 12  1  0
 12 13  1  1
 13 14  1  0
 14 19  2  0
 15 16  2  0
 15 14  1  0
 16 17  1  0
 17 18  2  0
 19 18  1  0
 20 12  1  0
 20 21  2  0
 22 20  1  0
 23 22  1  0
 23 24  1  6
 24 25  1  0
 26 23  1  0
 27 26  2  0
 28 26  1  0
M  END
$$$$
