HFC.pdb
     RDKit          3D

 28 29  0  0  1  0  0  0  0  0999 V2000
   11.3493  -16.7338   19.8642 N   0  0  0  0  0  0  0  0  0  0  0  0
   10.4330  -17.1899   20.8890 C   0  0  1  0  0  0  0  0  0  0  0  0
   10.8815  -18.5793   21.3439 C   0  0  0  0  0  0  0  0  0  0  0  0
   10.2704  -19.5419   20.3885 C   0  0  0  0  0  0  0  0  0  0  0  0
    9.5263  -19.2575   19.2806 C   0  0  0  0  0  0  0  0  0  0  0  0
    9.1568  -20.4250   18.6807 N   0  0  0  0  0  0  0  0  0  0  0  0
    9.6724  -21.4111   19.4184 C   0  0  0  0  0  0  0  0  0  0  0  0
   10.3559  -20.8810   20.4662 N   0  0  0  0  0  0  0  0  0  0  0  0
   10.3975  -16.2364   22.0375 C   0  0  0  0  0  0  0  0  0  0  0  0
   11.4169  -15.6804   22.4870 O   0  0  0  0  0  0  0  0  0  0  0  0
    9.1588  -15.9562   22.6351 N   0  0  0  0  0  0  0  0  0  0  0  0
    8.9768  -15.0765   23.7625 C   0  0  1  0  0  0  0  0  0  0  0  0
    7.4895  -14.6937   23.7666 C   0  0  0  0  0  0  0  0  0  0  0  0
    7.1614  -13.7992   24.8710 C   0  0  0  0  0  0  0  0  0  0  0  0
    7.5732  -12.4871   24.8655 C   0  0  0  0  0  0  0  0  0  0  0  0
    7.2453  -11.6809   25.9191 C   0  0  0  0  0  0  0  0  0  0  0  0
    6.5114  -12.1648   26.9804 C   0  0  0  0  0  0  0  0  0  0  0  0
    6.0886  -13.4754   27.0068 C   0  0  0  0  0  0  0  0  0  0  0  0
    6.4297  -14.2729   25.9341 C   0  0  0  0  0  0  0  0  0  0  0  0
    9.3295  -15.7520   25.0475 C   0  0  0  0  0  0  0  0  0  0  0  0
    9.0723  -16.9863   25.2219 O   0  0  0  0  0  0  0  0  0  0  0  0
    9.9529  -15.0778   26.1162 N   0  0  0  0  0  0  0  0  0  0  0  0
   10.6218  -15.7221   27.2126 C   0  0  1  0  0  0  0  0  0  0  0  0
   11.3094  -14.7445   28.1347 C   0  0  0  0  0  0  0  0  0  0  0  0
   10.0656  -13.5444   28.6893 S   0  0  0  0  0  0  0  0  0  0  0  0
    9.7504  -16.6487   27.9598 C   0  0  0  0  0  0  0  0  0  0  0  0
    8.5161  -16.5911   27.7552 O   0  0  0  0  0  0  0  0  0  0  0  0
   10.2169  -17.5762   28.8721 O   0  0  0  0  0  0  0  0  0  0  0  0
  2  1  1  6
  2  9  1  0
  3  2  1  0
  4  3  1  0
  5  4  2  0
  6  5  1  0
  7  6  1  0
  7  8  2  0
  8  4  1  0
  9 11  1  0
  9 10  2  0
 11 12  1  0
 12 13  1  1
 13 14  1  0
 14 19  2  0
 15 16  2  0
 15 14  1  0
 16 17  1  0
 17 18  2  0
 19 18  1  0
 20 12  1  0
 20 21  2  0
 22 20  1  0
 23 22  1  0
 23 24  1  1
 24 25  1  0
 26 23  1  0
 27 26  2  0
 28 26  1  0
M  END
$$$$
