HFC.pdb
     RDKit          3D

 28 29  0  0  1  0  0  0  0  0999 V2000
    9.6868  -17.9009   20.8376 N   0  0  0  0  0  0  0  0  0  0  0  0
   10.8096  -16.9861   20.8288 C   0  0  1  0  0  0  0  0  0  0  0  0
   10.9129  -16.3734   19.4314 C   0  0  0  0  0  0  0  0  0  0  0  0
   11.1583  -17.5085   18.5019 C   0  0  0  0  0  0  0  0  0  0  0  0
   12.1918  -18.3990   18.5288 C   0  0  0  0  0  0  0  0  0  0  0  0
   12.0449  -19.2829   17.5009 N   0  0  0  0  0  0  0  0  0  0  0  0
   10.9307  -18.9321   16.8544 C   0  0  0  0  0  0  0  0  0  0  0  0
   10.3805  -17.8470   17.4594 N   0  0  0  0  0  0  0  0  0  0  0  0
   10.6439  -15.9259   21.8670 C   0  0  0  0  0  0  0  0  0  0  0  0
   11.5001  -15.0472   22.0795 O   0  0  0  0  0  0  0  0  0  0  0  0
    9.4697  -15.9220   22.6362 N   0  0  0  0  0  0  0  0  0  0  0  0
    9.2124  -15.0168   23.7282 C   0  0  1  0  0  0  0  0  0  0  0  0
    7.6906  -14.8129   23.7611 C   0  0  0  0  0  0  0  0  0  0  0  0
    7.2926  -13.8538   24.7852 C   0  0  0  0  0  0  0  0  0  0  0  0
    6.6261  -14.2621   25.9167 C   0  0  0  0  0  0  0  0  0  0  0  0
    6.2704  -13.3325   26.8532 C   0  0  0  0  0  0  0  0  0  0  0  0
    6.5701  -11.9988   26.6775 C   0  0  0  0  0  0  0  0  0  0  0  0
    7.2368  -11.5676   25.5521 C   0  0  0  0  0  0  0  0  0  0  0  0
    7.5872  -12.5213   24.6189 C   0  0  0  0  0  0  0  0  0  0  0  0
    9.6757  -15.5833   25.0306 C   0  0  0  0  0  0  0  0  0  0  0  0
    9.5890  -16.8321   25.2610 O   0  0  0  0  0  0  0  0  0  0  0  0
   10.2230  -14.7867   26.0560 N   0  0  0  0  0  0  0  0  0  0  0  0
   10.6662  -15.2818   27.3300 C   0  0  1  0  0  0  0  0  0  0  0  0
   10.8369  -14.1877   28.3560 C   0  0  0  0  0  0  0  0  0  0  0  0
   11.4643  -14.9541   29.8771 S   0  0  0  0  0  0  0  0  0  0  0  0
    9.8309  -16.3822   27.8470 C   0  0  0  0  0  0  0  0  0  0  0  0
    8.5904  -16.2135   27.8835 O   0  0  0  0  0  0  0  0  0  0  0  0
   10.3376  -17.5882   28.2933 O   0  0  0  0  0  0  0  0  0  0  0  0
  2  1  1  6
  2  9  1  0
  3  2  1  0
  4  3  1  0
  5  4  2  0
  6  5  1  0
  7  6  1  0
  7  8  2  0
  8  4  1  0
  9 11  1  0
  9 10  2  0
 11 12  1  0
 12 13  1  1
 13 14  1  0
 14 19  2  0
 15 16  2  0
 15 14  1  0
 16 17  1  0
 17 18  2  0
 19 18  1  0
 20 12  1  0
 20 21  2  0
 22 20  1  0
 23 22  1  0
 23 24  1  1
 24 25  1  0
 26 23  1  0
 27 26  2  0
 28 26  1  0
M  END
$$$$
