HFC.pdb
     RDKit          3D

 28 29  0  0  1  0  0  0  0  0999 V2000
    9.0294  -17.2685   20.5122 N   0  0  0  0  0  0  0  0  0  0  0  0
   10.2950  -16.5913   20.7061 C   0  0  1  0  0  0  0  0  0  0  0  0
   10.6089  -15.7975   19.4374 C   0  0  0  0  0  0  0  0  0  0  0  0
    9.4295  -14.9236   19.1967 C   0  0  0  0  0  0  0  0  0  0  0  0
    9.2465  -13.6373   19.6138 C   0  0  0  0  0  0  0  0  0  0  0  0
    8.0295  -13.1983   19.1828 N   0  0  0  0  0  0  0  0  0  0  0  0
    7.4773  -14.2100   18.5091 C   0  0  0  0  0  0  0  0  0  0  0  0
    8.3264  -15.2708   18.5118 N   0  0  0  0  0  0  0  0  0  0  0  0
   10.2447  -15.6952   21.8993 C   0  0  0  0  0  0  0  0  0  0  0  0
   11.1683  -14.9161   22.1998 O   0  0  0  0  0  0  0  0  0  0  0  0
    9.1044  -15.7348   22.7170 N   0  0  0  0  0  0  0  0  0  0  0  0
    8.9570  -14.9998   23.9483 C   0  0  1  0  0  0  0  0  0  0  0  0
    7.4548  -14.7183   24.0975 C   0  0  0  0  0  0  0  0  0  0  0  0
    7.1844  -13.7598   25.1632 C   0  0  0  0  0  0  0  0  0  0  0  0
    7.6118  -12.4562   25.0681 C   0  0  0  0  0  0  0  0  0  0  0  0
    7.3386  -11.5887   26.0880 C   0  0  0  0  0  0  0  0  0  0  0  0
    6.6439  -12.0029   27.2039 C   0  0  0  0  0  0  0  0  0  0  0  0
    6.2063  -13.3037   27.3202 C   0  0  0  0  0  0  0  0  0  0  0  0
    6.4921  -14.1637   26.2801 C   0  0  0  0  0  0  0  0  0  0  0  0
    9.4431  -15.7896   25.1196 C   0  0  0  0  0  0  0  0  0  0  0  0
    9.5288  -17.0579   25.0547 O   0  0  0  0  0  0  0  0  0  0  0  0
    9.8261  -15.1904   26.3360 N   0  0  0  0  0  0  0  0  0  0  0  0
   10.4093  -15.8912   27.4466 C   0  0  1  0  0  0  0  0  0  0  0  0
   10.6534  -14.9983   28.6392 C   0  0  0  0  0  0  0  0  0  0  0  0
   10.8738  -13.3056   28.0221 S   0  0  0  0  0  0  0  0  0  0  0  0
    9.6606  -17.1048   27.8242 C   0  0  0  0  0  0  0  0  0  0  0  0
    8.5341  -17.2868   27.3081 O   0  0  0  0  0  0  0  0  0  0  0  0
   10.1302  -18.0524   28.7141 O   0  0  0  0  0  0  0  0  0  0  0  0
  2  1  1  6
  2  9  1  0
  3  2  1  0
  4  3  1  0
  5  4  2  0
  6  5  1  0
  7  6  1  0
  7  8  2  0
  8  4  1  0
  9 11  1  0
  9 10  2  0
 11 12  1  0
 12 13  1  1
 13 14  1  0
 14 19  2  0
 15 16  2  0
 15 14  1  0
 16 17  1  0
 17 18  2  0
 19 18  1  0
 20 12  1  0
 20 21  2  0
 22 20  1  0
 23 22  1  0
 23 24  1  1
 24 25  1  0
 26 23  1  0
 27 26  2  0
 28 26  1  0
M  END
$$$$
