HFC.pdb
     RDKit          3D

 28 29  0  0  1  0  0  0  0  0999 V2000
   10.9789  -16.3360   20.2141 N   0  0  0  0  0  0  0  0  0  0  0  0
    9.8828  -15.4533   20.5565 C   0  0  1  0  0  0  0  0  0  0  0  0
    8.6089  -16.0065   19.9163 C   0  0  0  0  0  0  0  0  0  0  0  0
    8.3319  -15.1419   18.7381 C   0  0  0  0  0  0  0  0  0  0  0  0
    8.5879  -13.8083   18.6046 C   0  0  0  0  0  0  0  0  0  0  0  0
    8.1819  -13.3983   17.3691 N   0  0  0  0  0  0  0  0  0  0  0  0
    7.6830  -14.4745   16.7565 C   0  0  0  0  0  0  0  0  0  0  0  0
    7.7702  -15.5471   17.5862 N   0  0  0  0  0  0  0  0  0  0  0  0
    9.7311  -15.3386   22.0374 C   0  0  0  0  0  0  0  0  0  0  0  0
   10.4016  -16.0137   22.8405 O   0  0  0  0  0  0  0  0  0  0  0  0
    8.7903  -14.4284   22.5441 N   0  0  0  0  0  0  0  0  0  0  0  0
    8.6146  -14.1302   23.9434 C   0  0  1  0  0  0  0  0  0  0  0  0
    7.5034  -13.0726   24.0159 C   0  0  0  0  0  0  0  0  0  0  0  0
    7.1744  -12.7233   25.3933 C   0  0  0  0  0  0  0  0  0  0  0  0
    8.0552  -12.0107   26.1726 C   0  0  0  0  0  0  0  0  0  0  0  0
    7.7096  -11.7030   27.4585 C   0  0  0  0  0  0  0  0  0  0  0  0
    6.4960  -12.0963   27.9798 C   0  0  0  0  0  0  0  0  0  0  0  0
    5.5987  -12.8107   27.2173 C   0  0  0  0  0  0  0  0  0  0  0  0
    5.9661  -13.1113   25.9220 C   0  0  0  0  0  0  0  0  0  0  0  0
    8.2104  -15.3434   24.7159 C   0  0  0  0  0  0  0  0  0  0  0  0
    8.1368  -15.3073   25.9861 O   0  0  0  0  0  0  0  0  0  0  0  0
    7.8944  -16.5696   24.0978 N   0  0  0  0  0  0  0  0  0  0  0  0
    7.4871  -17.7578   24.7956 C   0  0  1  0  0  0  0  0  0  0  0  0
    6.4022  -18.5185   24.0723 C   0  0  0  0  0  0  0  0  0  0  0  0
    6.0368  -20.0091   25.0414 S   0  0  0  0  0  0  0  0  0  0  0  0
    8.6169  -18.6363   25.1532 C   0  0  0  0  0  0  0  0  0  0  0  0
    9.6461  -18.5924   24.4408 O   0  0  0  0  0  0  0  0  0  0  0  0
    8.6056  -19.5047   26.2284 O   0  0  0  0  0  0  0  0  0  0  0  0
  2  1  1  1
  2  9  1  0
  3  2  1  0
  4  3  1  0
  5  4  2  0
  6  5  1  0
  7  6  1  0
  7  8  2  0
  8  4  1  0
  9 11  1  0
  9 10  2  0
 11 12  1  0
 12 13  1  6
 13 14  1  0
 14 19  2  0
 15 16  2  0
 15 14  1  0
 16 17  1  0
 17 18  2  0
 19 18  1  0
 20 12  1  0
 20 21  2  0
 22 20  1  0
 23 22  1  0
 23 24  1  6
 24 25  1  0
 26 23  1  0
 27 26  2  0
 28 26  1  0
M  END
$$$$
