KPG.pdb
     RDKit          3D

 21 21  0  0  1  0  0  0  0  0999 V2000
    5.9815  -18.5636   25.2788 N   0  0  0  0  0  0  0  0  0  0  0  0
    6.6752  -17.2797   25.2137 C   0  0  1  0  0  0  0  0  0  0  0  0
    7.4924  -17.1840   26.5107 C   0  0  0  0  0  0  0  0  0  0  0  0
    8.0799  -15.7865   26.5676 C   0  0  0  0  0  0  0  0  0  0  0  0
    8.9230  -15.5625   27.7763 C   0  0  0  0  0  0  0  0  0  0  0  0
    9.4832  -14.1577   27.7021 C   0  0  0  0  0  0  0  0  0  0  0  0
   10.3736  -13.8824   28.8247 N   0  0  0  0  0  0  0  0  0  0  0  0
    7.5234  -17.1981   24.0050 C   0  0  0  0  0  0  0  0  0  0  0  0
    8.0350  -18.2847   23.5944 O   0  0  0  0  0  0  0  0  0  0  0  0
    7.8008  -16.0273   23.2839 N   0  0  0  0  0  0  0  0  0  0  0  0
    7.3300  -14.7030   23.5988 C   0  0  0  0  0  0  0  0  0  0  0  0
    7.6092  -13.8770   22.3721 C   0  0  0  0  0  0  0  0  0  0  0  0
    7.8035  -14.9124   21.2992 C   0  0  0  0  0  0  0  0  0  0  0  0
    8.6118  -15.9717   22.0710 C   0  0  1  0  0  0  0  0  0  0  0  0
    9.9447  -15.4025   22.3105 C   0  0  0  0  0  0  0  0  0  0  0  0
   10.2566  -14.7452   23.3360 O   0  0  0  0  0  0  0  0  0  0  0  0
   10.9404  -15.6047   21.3291 N   0  0  0  0  0  0  0  0  0  0  0  0
   11.8938  -16.6899   21.4513 C   0  0  0  0  0  0  0  0  0  0  0  0
   12.8366  -16.3496   22.5464 C   0  0  0  0  0  0  0  0  0  0  0  0
   13.6520  -15.3821   22.4270 O   0  0  0  0  0  0  0  0  0  0  0  0
   12.8691  -17.0538   23.7184 O   0  0  0  0  0  0  0  0  0  0  0  0
  2  1  1  1
  3  2  1  0
  4  3  1  0
  5  4  1  0
  6  5  1  0
  7  6  1  0
  8  9  2  0
  8  2  1  0
 10  8  1  0
 11 10  1  0
 11 12  1  0
 13 12  1  0
 14 10  1  0
 14 13  1  0
 14 15  1  1
 16 15  2  0
 17 15  1  0
 18 17  1  0
 19 18  1  0
 19 21  1  0
 20 19  2  0
M  END
$$$$
