KPG.pdb
     RDKit          3D

 21 21  0  0  1  0  0  0  0  0999 V2000
    5.9830  -17.7618   22.3818 N   0  0  0  0  0  0  0  0  0  0  0  0
    6.2976  -16.3368   22.3139 C   0  0  1  0  0  0  0  0  0  0  0  0
    6.5713  -15.9034   23.7618 C   0  0  0  0  0  0  0  0  0  0  0  0
    7.4869  -16.9455   24.3757 C   0  0  0  0  0  0  0  0  0  0  0  0
    8.6651  -16.3461   25.0646 C   0  0  0  0  0  0  0  0  0  0  0  0
    9.5401  -17.4766   25.5639 C   0  0  0  0  0  0  0  0  0  0  0  0
   10.7389  -16.9678   26.2218 N   0  0  0  0  0  0  0  0  0  0  0  0
    7.4532  -16.0927   21.4238 C   0  0  0  0  0  0  0  0  0  0  0  0
    8.0081  -17.1161   20.9180 O   0  0  0  0  0  0  0  0  0  0  0  0
    7.9758  -14.8327   21.0968 N   0  0  0  0  0  0  0  0  0  0  0  0
    7.4731  -13.5606   21.5479 C   0  0  0  0  0  0  0  0  0  0  0  0
    8.1418  -12.5336   20.6743 C   0  0  0  0  0  0  0  0  0  0  0  0
    8.6236  -13.3429   19.5021 C   0  0  0  0  0  0  0  0  0  0  0  0
    9.1216  -14.6112   20.2194 C   0  0  1  0  0  0  0  0  0  0  0  0
   10.3337  -14.2364   20.9600 C   0  0  0  0  0  0  0  0  0  0  0  0
   10.3949  -13.2800   21.7738 O   0  0  0  0  0  0  0  0  0  0  0  0
   11.5052  -14.9962   20.7464 N   0  0  0  0  0  0  0  0  0  0  0  0
   12.3779  -14.7154   19.6234 C   0  0  0  0  0  0  0  0  0  0  0  0
   13.4879  -15.7009   19.6490 C   0  0  0  0  0  0  0  0  0  0  0  0
   13.3119  -16.8684   20.1194 O   0  0  0  0  0  0  0  0  0  0  0  0
   14.7344  -15.3998   19.1734 O   0  0  0  0  0  0  0  0  0  0  0  0
  2  1  1  1
  3  2  1  0
  4  3  1  0
  5  4  1  0
  6  5  1  0
  7  6  1  0
  8  9  2  0
  8  2  1  0
 10  8  1  0
 11 10  1  0
 11 12  1  0
 13 12  1  0
 14 10  1  0
 14 13  1  0
 14 15  1  1
 16 15  2  0
 17 15  1  0
 18 17  1  0
 19 18  1  0
 19 21  1  0
 20 19  2  0
M  END
$$$$
