KPG.pdb
     RDKit          3D

 21 21  0  0  1  0  0  0  0  0999 V2000
    5.7530  -18.6393   21.4165 N   0  0  0  0  0  0  0  0  0  0  0  0
    5.9279  -17.2068   21.6429 C   0  0  1  0  0  0  0  0  0  0  0  0
    5.5956  -16.9778   23.1249 C   0  0  0  0  0  0  0  0  0  0  0  0
    6.2795  -18.0793   23.9124 C   0  0  0  0  0  0  0  0  0  0  0  0
    7.2306  -17.5551   24.9334 C   0  0  0  0  0  0  0  0  0  0  0  0
    7.7841  -18.7339   25.7060 C   0  0  0  0  0  0  0  0  0  0  0  0
    8.7977  -18.3094   26.6660 N   0  0  0  0  0  0  0  0  0  0  0  0
    7.3025  -16.7818   21.3006 C   0  0  0  0  0  0  0  0  0  0  0  0
    8.1217  -17.7005   20.9910 O   0  0  0  0  0  0  0  0  0  0  0  0
    7.7649  -15.4576   21.2889 N   0  0  0  0  0  0  0  0  0  0  0  0
    7.0267  -14.2953   21.7116 C   0  0  0  0  0  0  0  0  0  0  0  0
    7.8088  -13.1162   21.1987 C   0  0  0  0  0  0  0  0  0  0  0  0
    8.6862  -13.7225   20.1387 C   0  0  0  0  0  0  0  0  0  0  0  0
    9.0851  -15.0431   20.8227 C   0  0  1  0  0  0  0  0  0  0  0  0
    9.9894  -14.6971   21.9275 C   0  0  0  0  0  0  0  0  0  0  0  0
    9.6083  -14.2243   23.0285 O   0  0  0  0  0  0  0  0  0  0  0  0
   11.3741  -14.9076   21.7445 N   0  0  0  0  0  0  0  0  0  0  0  0
   12.0148  -16.1087   22.2429 C   0  0  0  0  0  0  0  0  0  0  0  0
   13.4788  -15.9620   22.0450 C   0  0  0  0  0  0  0  0  0  0  0  0
   13.9847  -15.9892   20.8794 O   0  0  0  0  0  0  0  0  0  0  0  0
   14.3379  -15.7933   23.0957 O   0  0  0  0  0  0  0  0  0  0  0  0
  2  1  1  1
  3  2  1  0
  4  3  1  0
  5  4  1  0
  6  5  1  0
  7  6  1  0
  8  9  2  0
  8  2  1  0
 10  8  1  0
 11 10  1  0
 11 12  1  0
 13 12  1  0
 14 10  1  0
 14 13  1  0
 14 15  1  1
 16 15  2  0
 17 15  1  0
 18 17  1  0
 19 18  1  0
 19 21  1  0
 20 19  2  0
M  END
$$$$
