KPG.pdb
     RDKit          3D

 21 21  0  0  1  0  0  0  0  0999 V2000
    6.6013  -16.8115   22.6039 N   0  0  0  0  0  0  0  0  0  0  0  0
    7.1447  -15.4794   22.3505 C   0  0  1  0  0  0  0  0  0  0  0  0
    7.9279  -15.1034   23.6171 C   0  0  0  0  0  0  0  0  0  0  0  0
    9.0252  -16.1367   23.7882 C   0  0  0  0  0  0  0  0  0  0  0  0
    9.8347  -15.9217   25.0213 C   0  0  0  0  0  0  0  0  0  0  0  0
   10.8255  -17.0611   25.1350 C   0  0  0  0  0  0  0  0  0  0  0  0
   11.6187  -16.9537   26.3549 N   0  0  0  0  0  0  0  0  0  0  0  0
    7.9944  -15.4768   21.1400 C   0  0  0  0  0  0  0  0  0  0  0  0
    8.3279  -16.6104   20.6765 O   0  0  0  0  0  0  0  0  0  0  0  0
    8.4526  -14.3325   20.4707 N   0  0  0  0  0  0  0  0  0  0  0  0
    8.2012  -12.9665   20.8521 C   0  0  0  0  0  0  0  0  0  0  0  0
    8.6039  -12.1382   19.6618 C   0  0  0  0  0  0  0  0  0  0  0  0
    8.6253  -13.1391   18.5399 C   0  0  0  0  0  0  0  0  0  0  0  0
    9.2569  -14.3494   19.2522 C   0  0  1  0  0  0  0  0  0  0  0  0
   10.6648  -14.0124   19.5021 C   0  0  0  0  0  0  0  0  0  0  0  0
   11.0567  -13.2726   20.4402 O   0  0  0  0  0  0  0  0  0  0  0  0
   11.6416  -14.5519   18.6360 N   0  0  0  0  0  0  0  0  0  0  0  0
   13.0069  -14.7433   19.0841 C   0  0  0  0  0  0  0  0  0  0  0  0
   13.7883  -15.2938   17.9482 C   0  0  0  0  0  0  0  0  0  0  0  0
   13.7475  -16.5330   17.6691 O   0  0  0  0  0  0  0  0  0  0  0  0
   14.5776  -14.5012   17.1611 O   0  0  0  0  0  0  0  0  0  0  0  0
  2  1  1  1
  3  2  1  0
  4  3  1  0
  5  4  1  0
  6  5  1  0
  7  6  1  0
  8  9  2  0
  8  2  1  0
 10  8  1  0
 11 10  1  0
 11 12  1  0
 13 12  1  0
 14 10  1  0
 14 13  1  0
 14 15  1  1
 16 15  2  0
 17 15  1  0
 18 17  1  0
 19 18  1  0
 19 21  1  0
 20 19  2  0
M  END
$$$$
