KPG.pdb
     RDKit          3D

 21 21  0  0  1  0  0  0  0  0999 V2000
    9.2753  -13.0444   17.5604 N   0  0  0  0  0  0  0  0  0  0  0  0
    8.3742  -13.4163   18.6483 C   0  0  1  0  0  0  0  0  0  0  0  0
    7.4763  -14.5263   18.0816 C   0  0  0  0  0  0  0  0  0  0  0  0
    8.3621  -15.4417   17.2579 C   0  0  0  0  0  0  0  0  0  0  0  0
    8.1909  -16.8805   17.6081 C   0  0  0  0  0  0  0  0  0  0  0  0
    8.9808  -17.7018   16.6110 C   0  0  0  0  0  0  0  0  0  0  0  0
    8.8903  -19.1273   16.9089 N   0  0  0  0  0  0  0  0  0  0  0  0
    9.1351  -13.8579   19.8371 C   0  0  0  0  0  0  0  0  0  0  0  0
   10.3950  -13.9407   19.7079 O   0  0  0  0  0  0  0  0  0  0  0  0
    8.5793  -14.1857   21.0826 N   0  0  0  0  0  0  0  0  0  0  0  0
    7.1896  -14.0829   21.4472 C   0  0  0  0  0  0  0  0  0  0  0  0
    7.1578  -14.2211   22.9455 C   0  0  0  0  0  0  0  0  0  0  0  0
    8.5794  -13.9381   23.3455 C   0  0  0  0  0  0  0  0  0  0  0  0
    9.3401  -14.6758   22.2283 C   0  0  1  0  0  0  0  0  0  0  0  0
    9.1487  -16.1142   22.4577 C   0  0  0  0  0  0  0  0  0  0  0  0
    8.2079  -16.7874   21.9652 O   0  0  0  0  0  0  0  0  0  0  0  0
   10.0782  -16.7857   23.2826 N   0  0  0  0  0  0  0  0  0  0  0  0
   11.4995  -16.5255   23.1644 C   0  0  0  0  0  0  0  0  0  0  0  0
   12.1129  -17.6609   22.4305 C   0  0  0  0  0  0  0  0  0  0  0  0
   12.0593  -18.8424   22.8957 O   0  0  0  0  0  0  0  0  0  0  0  0
   12.7555  -17.4878   21.2357 O   0  0  0  0  0  0  0  0  0  0  0  0
  2  1  1  6
  3  2  1  0
  4  3  1  0
  5  4  1  0
  6  5  1  0
  7  6  1  0
  8  9  2  0
  8  2  1  0
 10  8  1  0
 11 10  1  0
 11 12  1  0
 13 12  1  0
 14 10  1  0
 14 13  1  0
 14 15  1  1
 16 15  2  0
 17 15  1  0
 18 17  1  0
 19 18  1  0
 19 21  1  0
 20 19  2  0
M  END
$$$$
