KPG.pdb
     RDKit          3D

 21 21  0  0  1  0  0  0  0  0999 V2000
    6.2577  -18.7484   24.4159 N   0  0  0  0  0  0  0  0  0  0  0  0
    6.4473  -17.3174   24.1916 C   0  0  1  0  0  0  0  0  0  0  0  0
    6.8569  -16.7352   25.5527 C   0  0  0  0  0  0  0  0  0  0  0  0
    6.8135  -17.8714   26.5569 C   0  0  0  0  0  0  0  0  0  0  0  0
    8.0459  -17.9527   27.3915 C   0  0  0  0  0  0  0  0  0  0  0  0
    7.8993  -19.1332   28.3285 C   0  0  0  0  0  0  0  0  0  0  0  0
    9.0660  -19.2708   29.1939 N   0  0  0  0  0  0  0  0  0  0  0  0
    7.4648  -17.0767   23.1457 C   0  0  0  0  0  0  0  0  0  0  0  0
    8.0079  -18.1031   22.6333 O   0  0  0  0  0  0  0  0  0  0  0  0
    7.8693  -15.8172   22.6794 N   0  0  0  0  0  0  0  0  0  0  0  0
    7.3098  -14.5475   23.0657 C   0  0  0  0  0  0  0  0  0  0  0  0
    7.8369  -13.5563   22.0634 C   0  0  0  0  0  0  0  0  0  0  0  0
    8.2898  -14.4285   20.9253 C   0  0  0  0  0  0  0  0  0  0  0  0
    8.9293  -15.5955   21.7000 C   0  0  1  0  0  0  0  0  0  0  0  0
   10.1616  -15.0795   22.3111 C   0  0  0  0  0  0  0  0  0  0  0  0
   10.2166  -14.0411   23.0178 O   0  0  0  0  0  0  0  0  0  0  0  0
   11.3613  -15.7925   22.0927 N   0  0  0  0  0  0  0  0  0  0  0  0
   12.3434  -15.3186   21.1376 C   0  0  0  0  0  0  0  0  0  0  0  0
   13.4592  -16.2974   21.1047 C   0  0  0  0  0  0  0  0  0  0  0  0
   13.3737  -17.3597   20.4123 O   0  0  0  0  0  0  0  0  0  0  0  0
   14.6146  -16.1018   21.8098 O   0  0  0  0  0  0  0  0  0  0  0  0
  2  1  1  1
  3  2  1  0
  4  3  1  0
  5  4  1  0
  6  5  1  0
  7  6  1  0
  8  9  2  0
  8  2  1  0
 10  8  1  0
 11 10  1  0
 11 12  1  0
 13 12  1  0
 14 10  1  0
 14 13  1  0
 14 15  1  1
 16 15  2  0
 17 15  1  0
 18 17  1  0
 19 18  1  0
 19 21  1  0
 20 19  2  0
M  END
$$$$
