KPG.pdb
     RDKit          3D

 21 21  0  0  1  0  0  0  0  0999 V2000
    6.2234  -18.0872   18.5058 N   0  0  0  0  0  0  0  0  0  0  0  0
    6.1097  -17.1221   19.5965 C   0  0  1  0  0  0  0  0  0  0  0  0
    5.4160  -17.8725   20.7432 C   0  0  0  0  0  0  0  0  0  0  0  0
    4.0583  -18.3155   20.2316 C   0  0  0  0  0  0  0  0  0  0  0  0
    3.2827  -19.0873   21.2439 C   0  0  0  0  0  0  0  0  0  0  0  0
    1.9465  -19.4512   20.6315 C   0  0  0  0  0  0  0  0  0  0  0  0
    1.1290  -20.2215   21.5629 N   0  0  0  0  0  0  0  0  0  0  0  0
    7.4395  -16.6039   19.9842 C   0  0  0  0  0  0  0  0  0  0  0  0
    8.4440  -17.2973   19.6362 O   0  0  0  0  0  0  0  0  0  0  0  0
    7.6741  -15.4180   20.6958 N   0  0  0  0  0  0  0  0  0  0  0  0
    6.6702  -14.5304   21.2237 C   0  0  0  0  0  0  0  0  0  0  0  0
    7.4044  -13.2688   21.5902 C   0  0  0  0  0  0  0  0  0  0  0  0
    8.6898  -13.3845   20.8185 C   0  0  0  0  0  0  0  0  0  0  0  0
    8.9970  -14.8820   21.0031 C   0  0  1  0  0  0  0  0  0  0  0  0
    9.3684  -15.0726   22.4117 C   0  0  0  0  0  0  0  0  0  0  0  0
    8.5417  -15.1270   23.3574 O   0  0  0  0  0  0  0  0  0  0  0  0
   10.7393  -15.2030   22.7262 N   0  0  0  0  0  0  0  0  0  0  0  0
   11.2287  -16.3616   23.4472 C   0  0  0  0  0  0  0  0  0  0  0  0
   12.6892  -16.1901   23.6513 C   0  0  0  0  0  0  0  0  0  0  0  0
   13.4842  -16.1419   22.6609 O   0  0  0  0  0  0  0  0  0  0  0  0
   13.2373  -16.0779   24.8993 O   0  0  0  0  0  0  0  0  0  0  0  0
  2  1  1  6
  3  2  1  0
  4  3  1  0
  5  4  1  0
  6  5  1  0
  7  6  1  0
  8  9  2  0
  8  2  1  0
 10  8  1  0
 11 10  1  0
 11 12  1  0
 13 12  1  0
 14 10  1  0
 14 13  1  0
 14 15  1  1
 16 15  2  0
 17 15  1  0
 18 17  1  0
 19 18  1  0
 19 21  1  0
 20 19  2  0
M  END
$$$$
