KPG.pdb
     RDKit          3D

 21 21  0  0  1  0  0  0  0  0999 V2000
    9.1215  -15.2100   14.7300 N   0  0  0  0  0  0  0  0  0  0  0  0
    8.5108  -15.4469   16.0358 C   0  0  1  0  0  0  0  0  0  0  0  0
    8.2528  -16.9596   16.1043 C   0  0  0  0  0  0  0  0  0  0  0  0
    7.7304  -17.2620   17.4960 C   0  0  0  0  0  0  0  0  0  0  0  0
    7.3396  -18.6900   17.6691 C   0  0  0  0  0  0  0  0  0  0  0  0
    6.8141  -18.8636   19.0786 C   0  0  0  0  0  0  0  0  0  0  0  0
    6.3548  -20.2293   19.3084 N   0  0  0  0  0  0  0  0  0  0  0  0
    9.3928  -14.9750   17.1250 C   0  0  0  0  0  0  0  0  0  0  0  0
   10.6377  -15.1717   16.9748 O   0  0  0  0  0  0  0  0  0  0  0  0
    8.9657  -14.3319   18.2962 N   0  0  0  0  0  0  0  0  0  0  0  0
    7.5996  -14.1295   18.7053 C   0  0  0  0  0  0  0  0  0  0  0  0
    7.6614  -13.1225   19.8220 C   0  0  0  0  0  0  0  0  0  0  0  0
    9.0192  -12.5005   19.6472 C   0  0  0  0  0  0  0  0  0  0  0  0
    9.8563  -13.7432   19.2922 C   0  0  1  0  0  0  0  0  0  0  0  0
    9.9533  -14.5567   20.5117 C   0  0  0  0  0  0  0  0  0  0  0  0
    8.9800  -15.1496   21.0427 O   0  0  0  0  0  0  0  0  0  0  0  0
   11.2179  -14.6826   21.1283 N   0  0  0  0  0  0  0  0  0  0  0  0
   11.4818  -15.7530   22.0696 C   0  0  0  0  0  0  0  0  0  0  0  0
   12.8993  -15.6467   22.4978 C   0  0  0  0  0  0  0  0  0  0  0  0
   13.7212  -14.9205   21.8555 O   0  0  0  0  0  0  0  0  0  0  0  0
   13.3780  -16.3176   23.5892 O   0  0  0  0  0  0  0  0  0  0  0  0
  2  1  1  6
  3  2  1  0
  4  3  1  0
  5  4  1  0
  6  5  1  0
  7  6  1  0
  8  9  2  0
  8  2  1  0
 10  8  1  0
 11 10  1  0
 11 12  1  0
 13 12  1  0
 14 10  1  0
 14 13  1  0
 14 15  1  1
 16 15  2  0
 17 15  1  0
 18 17  1  0
 19 18  1  0
 19 21  1  0
 20 19  2  0
M  END
$$$$
