KPG.pdb
     RDKit          3D

 21 21  0  0  1  0  0  0  0  0999 V2000
    8.5495  -15.6578   22.2906 N   0  0  0  0  0  0  0  0  0  0  0  0
    7.6399  -15.3205   23.3827 C   0  0  1  0  0  0  0  0  0  0  0  0
    6.9831  -16.6450   23.7992 C   0  0  0  0  0  0  0  0  0  0  0  0
    6.2426  -17.1781   22.5872 C   0  0  0  0  0  0  0  0  0  0  0  0
    6.3796  -18.6539   22.4290 C   0  0  0  0  0  0  0  0  0  0  0  0
    5.4371  -19.0960   21.3294 C   0  0  0  0  0  0  0  0  0  0  0  0
    5.5883  -20.5185   21.0421 N   0  0  0  0  0  0  0  0  0  0  0  0
    8.3682  -14.6768   24.4973 C   0  0  0  0  0  0  0  0  0  0  0  0
    9.6265  -14.8410   24.5249 O   0  0  0  0  0  0  0  0  0  0  0  0
    7.7836  -13.9056   25.5127 N   0  0  0  0  0  0  0  0  0  0  0  0
    6.4043  -13.4968   25.5828 C   0  0  0  0  0  0  0  0  0  0  0  0
    6.3556  -12.4342   26.6475 C   0  0  0  0  0  0  0  0  0  0  0  0
    7.7928  -12.0109   26.7746 C   0  0  0  0  0  0  0  0  0  0  0  0
    8.5000  -13.3747   26.6690 C   0  0  1  0  0  0  0  0  0  0  0  0
    8.1986  -14.1102   27.9044 C   0  0  0  0  0  0  0  0  0  0  0  0
    7.0455  -14.4831   28.2392 O   0  0  0  0  0  0  0  0  0  0  0  0
    9.2693  -14.4192   28.7725 N   0  0  0  0  0  0  0  0  0  0  0  0
   10.6330  -14.4636   28.2829 C   0  0  0  0  0  0  0  0  0  0  0  0
   11.0734  -15.8814   28.2833 C   0  0  0  0  0  0  0  0  0  0  0  0
   11.3700  -16.4717   27.1976 O   0  0  0  0  0  0  0  0  0  0  0  0
   11.1780  -16.6065   29.4382 O   0  0  0  0  0  0  0  0  0  0  0  0
  2  1  1  6
  3  2  1  0
  4  3  1  0
  5  4  1  0
  6  5  1  0
  7  6  1  0
  8  9  2  0
  8  2  1  0
 10  8  1  0
 11 10  1  0
 11 12  1  0
 13 12  1  0
 14 10  1  0
 14 13  1  0
 14 15  1  1
 16 15  2  0
 17 15  1  0
 18 17  1  0
 19 18  1  0
 19 21  1  0
 20 19  2  0
M  END
$$$$
