KPG.pdb
     RDKit          3D

 21 21  0  0  1  0  0  0  0  0999 V2000
    7.2461  -18.4683   27.3603 N   0  0  0  0  0  0  0  0  0  0  0  0
    7.3699  -17.0182   27.4858 C   0  0  1  0  0  0  0  0  0  0  0  0
    8.7530  -16.7725   28.1072 C   0  0  0  0  0  0  0  0  0  0  0  0
    9.5439  -18.0588   27.9620 C   0  0  0  0  0  0  0  0  0  0  0  0
   10.5242  -18.0112   26.8401 C   0  0  0  0  0  0  0  0  0  0  0  0
   11.3481  -19.2809   26.8846 C   0  0  0  0  0  0  0  0  0  0  0  0
   12.3151  -19.3235   25.7928 N   0  0  0  0  0  0  0  0  0  0  0  0
    7.2170  -16.3591   26.1707 C   0  0  0  0  0  0  0  0  0  0  0  0
    7.0662  -17.1207   25.1666 O   0  0  0  0  0  0  0  0  0  0  0  0
    7.2227  -14.9739   25.9500 N   0  0  0  0  0  0  0  0  0  0  0  0
    7.3573  -13.9529   26.9569 C   0  0  0  0  0  0  0  0  0  0  0  0
    6.9709  -12.6670   26.2770 C   0  0  0  0  0  0  0  0  0  0  0  0
    6.2147  -13.1349   25.0644 C   0  0  0  0  0  0  0  0  0  0  0  0
    7.0743  -14.3408   24.6426 C   0  0  1  0  0  0  0  0  0  0  0  0
    8.3421  -13.8045   24.1296 C   0  0  0  0  0  0  0  0  0  0  0  0
    9.2736  -13.3784   24.8587 O   0  0  0  0  0  0  0  0  0  0  0  0
    8.5292  -13.7637   22.7301 N   0  0  0  0  0  0  0  0  0  0  0  0
    8.5609  -14.9847   21.9493 C   0  0  0  0  0  0  0  0  0  0  0  0
    9.9531  -15.5001   21.9623 C   0  0  0  0  0  0  0  0  0  0  0  0
   10.4615  -15.9765   23.0253 O   0  0  0  0  0  0  0  0  0  0  0  0
   10.7409  -15.4853   20.8445 O   0  0  0  0  0  0  0  0  0  0  0  0
  2  1  1  6
  3  2  1  0
  4  3  1  0
  5  4  1  0
  6  5  1  0
  7  6  1  0
  8  9  2  0
  8  2  1  0
 10  8  1  0
 11 10  1  0
 11 12  1  0
 13 12  1  0
 14 10  1  0
 14 13  1  0
 14 15  1  1
 16 15  2  0
 17 15  1  0
 18 17  1  0
 19 18  1  0
 19 21  1  0
 20 19  2  0
M  END
$$$$
