KPG.pdb
     RDKit          3D

 21 21  0  0  1  0  0  0  0  0999 V2000
   11.1300  -13.9240   20.3052 N   0  0  0  0  0  0  0  0  0  0  0  0
    9.9530  -13.4831   21.0498 C   0  0  1  0  0  0  0  0  0  0  0  0
    8.9035  -13.1198   19.9888 C   0  0  0  0  0  0  0  0  0  0  0  0
    9.0422  -14.1235   18.8598 C   0  0  0  0  0  0  0  0  0  0  0  0
    8.0584  -13.8992   17.7627 C   0  0  0  0  0  0  0  0  0  0  0  0
    8.2835  -14.9622   16.7080 C   0  0  0  0  0  0  0  0  0  0  0  0
    7.3411  -14.8202   15.6032 N   0  0  0  0  0  0  0  0  0  0  0  0
    9.4827  -14.5414   21.9696 C   0  0  0  0  0  0  0  0  0  0  0  0
   10.0830  -15.6580   21.9068 O   0  0  0  0  0  0  0  0  0  0  0  0
    8.4390  -14.4077   22.8971 N   0  0  0  0  0  0  0  0  0  0  0  0
    7.4492  -13.3616   22.9183 C   0  0  0  0  0  0  0  0  0  0  0  0
    6.7823  -13.4690   24.2632 C   0  0  0  0  0  0  0  0  0  0  0  0
    7.7604  -14.2809   25.0664 C   0  0  0  0  0  0  0  0  0  0  0  0
    8.1997  -15.3163   24.0147 C   0  0  1  0  0  0  0  0  0  0  0  0
    7.0526  -16.2043   23.7828 C   0  0  0  0  0  0  0  0  0  0  0  0
    6.0760  -15.9160   23.0453 O   0  0  0  0  0  0  0  0  0  0  0  0
    7.0435  -17.4612   24.4273 N   0  0  0  0  0  0  0  0  0  0  0  0
    7.8916  -18.5407   23.9616 C   0  0  0  0  0  0  0  0  0  0  0  0
    7.5872  -19.7450   24.7744 C   0  0  0  0  0  0  0  0  0  0  0  0
    6.7365  -19.6966   25.7174 O   0  0  0  0  0  0  0  0  0  0  0  0
    8.2013  -20.9458   24.5474 O   0  0  0  0  0  0  0  0  0  0  0  0
  2  1  1  6
  3  2  1  0
  4  3  1  0
  5  4  1  0
  6  5  1  0
  7  6  1  0
  8  9  2  0
  8  2  1  0
 10  8  1  0
 11 10  1  0
 11 12  1  0
 13 12  1  0
 14 10  1  0
 14 13  1  0
 14 15  1  6
 16 15  2  0
 17 15  1  0
 18 17  1  0
 19 18  1  0
 19 21  1  0
 20 19  2  0
M  END
$$$$
