KPG.pdb
     RDKit          3D

 21 21  0  0  1  0  0  0  0  0999 V2000
    8.7370  -14.7445   21.7132 N   0  0  0  0  0  0  0  0  0  0  0  0
    7.7832  -14.4873   22.7894 C   0  0  1  0  0  0  0  0  0  0  0  0
    6.7325  -15.6031   22.6874 C   0  0  0  0  0  0  0  0  0  0  0  0
    7.4719  -16.9243   22.7820 C   0  0  0  0  0  0  0  0  0  0  0  0
    6.5563  -18.1005   22.7816 C   0  0  0  0  0  0  0  0  0  0  0  0
    7.3893  -19.3418   23.0225 C   0  0  0  0  0  0  0  0  0  0  0  0
    6.5511  -20.5324   23.1163 N   0  0  0  0  0  0  0  0  0  0  0  0
    8.4616  -14.4694   24.1035 C   0  0  0  0  0  0  0  0  0  0  0  0
    9.6484  -14.9180   24.1373 O   0  0  0  0  0  0  0  0  0  0  0  0
    7.9028  -13.9980   25.3006 N   0  0  0  0  0  0  0  0  0  0  0  0
    6.6263  -13.3465   25.4445 C   0  0  0  0  0  0  0  0  0  0  0  0
    6.6369  -12.7460   26.8244 C   0  0  0  0  0  0  0  0  0  0  0  0
    8.0986  -12.7235   27.1766 C   0  0  0  0  0  0  0  0  0  0  0  0
    8.5478  -14.0821   26.6078 C   0  0  1  0  0  0  0  0  0  0  0  0
    7.9561  -15.1207   27.4618 C   0  0  0  0  0  0  0  0  0  0  0  0
    6.7204  -15.3287   27.5651 O   0  0  0  0  0  0  0  0  0  0  0  0
    8.8274  -15.9382   28.2153 N   0  0  0  0  0  0  0  0  0  0  0  0
   10.0602  -16.4382   27.6392 C   0  0  0  0  0  0  0  0  0  0  0  0
   10.6521  -17.4072   28.5956 C   0  0  0  0  0  0  0  0  0  0  0  0
   10.5819  -18.6582   28.3827 O   0  0  0  0  0  0  0  0  0  0  0  0
   11.2914  -17.0016   29.7345 O   0  0  0  0  0  0  0  0  0  0  0  0
  2  1  1  6
  3  2  1  0
  4  3  1  0
  5  4  1  0
  6  5  1  0
  7  6  1  0
  8  9  2  0
  8  2  1  0
 10  8  1  0
 11 10  1  0
 11 12  1  0
 13 12  1  0
 14 10  1  0
 14 13  1  0
 14 15  1  1
 16 15  2  0
 17 15  1  0
 18 17  1  0
 19 18  1  0
 19 21  1  0
 20 19  2  0
M  END
$$$$
