KPG.pdb
     RDKit          3D

 21 21  0  0  1  0  0  0  0  0999 V2000
    6.0729  -19.3354   24.2333 N   0  0  0  0  0  0  0  0  0  0  0  0
    6.3309  -17.9005   24.3260 C   0  0  1  0  0  0  0  0  0  0  0  0
    6.6325  -17.6285   25.8074 C   0  0  0  0  0  0  0  0  0  0  0  0
    7.9927  -18.2306   26.1051 C   0  0  0  0  0  0  0  0  0  0  0  0
    8.4926  -17.8849   27.4662 C   0  0  0  0  0  0  0  0  0  0  0  0
    9.8449  -18.5412   27.6485 C   0  0  0  0  0  0  0  0  0  0  0  0
   10.4569  -18.1510   28.9143 N   0  0  0  0  0  0  0  0  0  0  0  0
    7.4482  -17.5063   23.4410 C   0  0  0  0  0  0  0  0  0  0  0  0
    8.0972  -18.4478   22.8901 O   0  0  0  0  0  0  0  0  0  0  0  0
    7.8399  -16.1882   23.1640 N   0  0  0  0  0  0  0  0  0  0  0  0
    7.2240  -14.9922   23.6785 C   0  0  0  0  0  0  0  0  0  0  0  0
    7.7742  -13.8677   22.8432 C   0  0  0  0  0  0  0  0  0  0  0  0
    8.3117  -14.5742   21.6295 C   0  0  0  0  0  0  0  0  0  0  0  0
    8.9432  -15.8177   22.2823 C   0  0  1  0  0  0  0  0  0  0  0  0
   10.1260  -15.3585   23.0229 C   0  0  0  0  0  0  0  0  0  0  0  0
   10.0814  -14.8181   24.1572 O   0  0  0  0  0  0  0  0  0  0  0  0
   11.3940  -15.5339   22.4257 N   0  0  0  0  0  0  0  0  0  0  0  0
   12.5680  -15.7889   23.2370 C   0  0  0  0  0  0  0  0  0  0  0  0
   13.7094  -16.0441   22.3227 C   0  0  0  0  0  0  0  0  0  0  0  0
   13.5439  -16.6834   21.2367 O   0  0  0  0  0  0  0  0  0  0  0  0
   14.9746  -15.6081   22.6051 O   0  0  0  0  0  0  0  0  0  0  0  0
  2  1  1  1
  3  2  1  0
  4  3  1  0
  5  4  1  0
  6  5  1  0
  7  6  1  0
  8  9  2  0
  8  2  1  0
 10  8  1  0
 11 10  1  0
 11 12  1  0
 13 12  1  0
 14 10  1  0
 14 13  1  0
 14 15  1  1
 16 15  2  0
 17 15  1  0
 18 17  1  0
 19 18  1  0
 19 21  1  0
 20 19  2  0
M  END
$$$$
