KPG.pdb
     RDKit          3D

 21 21  0  0  1  0  0  0  0  0999 V2000
    6.1009  -18.6991   19.3582 N   0  0  0  0  0  0  0  0  0  0  0  0
    5.9666  -17.6494   20.3652 C   0  0  1  0  0  0  0  0  0  0  0  0
    5.1888  -18.2863   21.5266 C   0  0  0  0  0  0  0  0  0  0  0  0
    5.9381  -19.5413   21.9323 C   0  0  0  0  0  0  0  0  0  0  0  0
    5.3537  -20.2003   23.1349 C   0  0  0  0  0  0  0  0  0  0  0  0
    6.2197  -21.3929   23.4820 C   0  0  0  0  0  0  0  0  0  0  0  0
    5.7047  -22.0996   24.6501 N   0  0  0  0  0  0  0  0  0  0  0  0
    7.2927  -17.1456   20.7834 C   0  0  0  0  0  0  0  0  0  0  0  0
    8.3018  -17.8135   20.4004 O   0  0  0  0  0  0  0  0  0  0  0  0
    7.5194  -15.9989   21.5587 N   0  0  0  0  0  0  0  0  0  0  0  0
    6.5133  -15.2019   22.2123 C   0  0  0  0  0  0  0  0  0  0  0  0
    7.2102  -13.9306   22.6164 C   0  0  0  0  0  0  0  0  0  0  0  0
    8.4430  -13.9275   21.7554 C   0  0  0  0  0  0  0  0  0  0  0  0
    8.8333  -15.4159   21.8146 C   0  0  1  0  0  0  0  0  0  0  0  0
    9.3103  -15.6796   23.1788 C   0  0  0  0  0  0  0  0  0  0  0  0
    8.5557  -15.9231   24.1546 O   0  0  0  0  0  0  0  0  0  0  0  0
   10.7034  -15.6589   23.4119 N   0  0  0  0  0  0  0  0  0  0  0  0
   11.4345  -16.8876   23.6513 C   0  0  0  0  0  0  0  0  0  0  0  0
   12.8695  -16.5424   23.8114 C   0  0  0  0  0  0  0  0  0  0  0  0
   13.5229  -16.0146   22.8576 O   0  0  0  0  0  0  0  0  0  0  0  0
   13.5439  -16.7743   24.9784 O   0  0  0  0  0  0  0  0  0  0  0  0
  2  1  1  6
  3  2  1  0
  4  3  1  0
  5  4  1  0
  6  5  1  0
  7  6  1  0
  8  9  2  0
  8  2  1  0
 10  8  1  0
 11 10  1  0
 11 12  1  0
 13 12  1  0
 14 10  1  0
 14 13  1  0
 14 15  1  1
 16 15  2  0
 17 15  1  0
 18 17  1  0
 19 18  1  0
 19 21  1  0
 20 19  2  0
M  END
$$$$
