KPG.pdb
     RDKit          3D

 21 21  0  0  1  0  0  0  0  0999 V2000
    6.2000  -16.1971   24.3636 N   0  0  0  0  0  0  0  0  0  0  0  0
    6.9417  -15.1260   23.7029 C   0  0  1  0  0  0  0  0  0  0  0  0
    8.2623  -14.9979   24.4767 C   0  0  0  0  0  0  0  0  0  0  0  0
    8.9832  -16.3271   24.3552 C   0  0  0  0  0  0  0  0  0  0  0  0
   10.3632  -16.2899   24.9173 C   0  0  0  0  0  0  0  0  0  0  0  0
   10.9549  -17.6786   24.7971 C   0  0  0  0  0  0  0  0  0  0  0  0
   12.3090  -17.7262   25.3385 N   0  0  0  0  0  0  0  0  0  0  0  0
    7.1537  -15.4347   22.2722 C   0  0  0  0  0  0  0  0  0  0  0  0
    6.7724  -16.5781   21.8742 O   0  0  0  0  0  0  0  0  0  0  0  0
    7.7339  -14.5711   21.3313 N   0  0  0  0  0  0  0  0  0  0  0  0
    8.2824  -13.2666   21.5993 C   0  0  0  0  0  0  0  0  0  0  0  0
    8.4638  -12.6241   20.2505 C   0  0  0  0  0  0  0  0  0  0  0  0
    7.5793  -13.4488   19.3568 C   0  0  0  0  0  0  0  0  0  0  0  0
    7.8595  -14.8600   19.9056 C   0  0  1  0  0  0  0  0  0  0  0  0
    9.2345  -15.2043   19.5198 C   0  0  0  0  0  0  0  0  0  0  0  0
   10.2559  -14.6032   19.9398 O   0  0  0  0  0  0  0  0  0  0  0  0
    9.4242  -16.2774   18.6211 N   0  0  0  0  0  0  0  0  0  0  0  0
   10.7565  -16.6778   18.2133 C   0  0  0  0  0  0  0  0  0  0  0  0
   11.2388  -17.7047   19.1708 C   0  0  0  0  0  0  0  0  0  0  0  0
   11.3397  -18.9231   18.8234 O   0  0  0  0  0  0  0  0  0  0  0  0
   11.5915  -17.3891   20.4539 O   0  0  0  0  0  0  0  0  0  0  0  0
  2  1  1  1
  3  2  1  0
  4  3  1  0
  5  4  1  0
  6  5  1  0
  7  6  1  0
  8  9  2  0
  8  2  1  0
 10  8  1  0
 11 10  1  0
 11 12  1  0
 13 12  1  0
 14 10  1  0
 14 13  1  0
 14 15  1  1
 16 15  2  0
 17 15  1  0
 18 17  1  0
 19 18  1  0
 19 21  1  0
 20 19  2  0
M  END
$$$$
