VTV.pdb
     RDKit          3D

 22 21  0  0  1  0  0  0  0  0999 V2000
    6.9819  -19.9942   25.6452 C   0  0  0  0  0  0  0  0  0  0  0  0
    6.3035  -20.0934   24.3023 C   0  0  2  0  0  0  0  0  0  0  0  0
    5.7074  -21.4743   24.1419 C   0  0  0  0  0  0  0  0  0  0  0  0
    7.2446  -19.8326   23.1598 C   0  0  2  0  0  0  0  0  0  0  0  0
    8.2654  -20.8708   23.0485 N   0  0  0  0  0  0  0  0  0  0  0  0
    7.9418  -18.5423   23.2658 C   0  0  0  0  0  0  0  0  0  0  0  0
    9.1005  -18.3994   23.6784 O   0  0  0  0  0  0  0  0  0  0  0  0
    7.5897  -13.7638   22.0000 C   0  0  0  0  0  0  0  0  0  0  0  0
    7.1064  -15.1793   21.9313 C   0  0  1  0  0  0  0  0  0  0  0  0
    7.3123  -15.7354   20.6695 O   0  0  0  0  0  0  0  0  0  0  0  0
    7.7449  -16.0428   23.0207 C   0  0  2  0  0  0  0  0  0  0  0  0
    7.2315  -17.3637   22.8628 N   0  0  0  0  0  0  0  0  0  0  0  0
    7.5621  -15.4708   24.3554 C   0  0  0  0  0  0  0  0  0  0  0  0
    6.4700  -15.6183   24.9876 O   0  0  0  0  0  0  0  0  0  0  0  0
   10.6220  -15.0046   27.2709 C   0  0  0  0  0  0  0  0  0  0  0  0
    9.6464  -13.8419   27.1016 C   0  0  2  0  0  0  0  0  0  0  0  0
    9.2609  -13.4512   28.5186 C   0  0  0  0  0  0  0  0  0  0  0  0
    8.4119  -14.2960   26.4152 C   0  0  2  0  0  0  0  0  0  0  0  0
    8.5325  -14.7198   25.0712 N   0  0  0  0  0  0  0  0  0  0  0  0
    7.4126  -13.1978   26.4692 C   0  0  0  0  0  0  0  0  0  0  0  0
    7.1584  -12.4216   25.5150 O   0  0  0  0  0  0  0  0  0  0  0  0
    6.6629  -12.9521   27.6363 O   0  0  0  0  0  0  0  0  0  0  0  0
  2  1  1  1
  2  3  1  0
  4  5  1  1
  4  6  1  0
  4  2  1  0
  6  7  2  0
  9  8  1  6
  9 11  1  0
 10  9  1  0
 11 13  1  0
 11 12  1  1
 12  6  1  0
 13 14  2  0
 13 19  1  0
 16 17  1  1
 16 15  1  0
 18 16  1  0
 18 19  1  6
 20 18  1  0
 20 22  1  0
 21 20  2  0
M  END
$$$$
