VTV.pdb
     RDKit          3D

 22 21  0  0  1  0  0  0  0  0999 V2000
    8.5895  -12.8308   17.8301 C   0  0  0  0  0  0  0  0  0  0  0  0
    7.9014  -13.3960   19.0469 C   0  0  2  0  0  0  0  0  0  0  0  0
    8.1461  -12.4858   20.2300 C   0  0  0  0  0  0  0  0  0  0  0  0
    8.3786  -14.7796   19.3890 C   0  0  2  0  0  0  0  0  0  0  0  0
    8.0417  -15.7443   18.3459 N   0  0  0  0  0  0  0  0  0  0  0  0
    7.8237  -15.2886   20.6521 C   0  0  0  0  0  0  0  0  0  0  0  0
    6.6907  -15.7713   20.7800 O   0  0  0  0  0  0  0  0  0  0  0  0
    8.1667  -18.0271   22.1161 C   0  0  0  0  0  0  0  0  0  0  0  0
    8.7645  -17.1665   23.1857 C   0  0  1  0  0  0  0  0  0  0  0  0
   10.1580  -17.2065   23.1630 O   0  0  0  0  0  0  0  0  0  0  0  0
    8.2570  -15.7263   23.0948 C   0  0  2  0  0  0  0  0  0  0  0  0
    8.6521  -15.2225   21.8206 N   0  0  0  0  0  0  0  0  0  0  0  0
    8.6903  -14.9161   24.2342 C   0  0  0  0  0  0  0  0  0  0  0  0
    9.8119  -14.3194   24.2251 O   0  0  0  0  0  0  0  0  0  0  0  0
    6.0342  -13.5552   27.2973 C   0  0  0  0  0  0  0  0  0  0  0  0
    7.3834  -12.8962   27.0190 C   0  0  2  0  0  0  0  0  0  0  0  0
    7.1098  -11.9170   25.8896 C   0  0  0  0  0  0  0  0  0  0  0  0
    8.3551  -13.8966   26.5131 C   0  0  2  0  0  0  0  0  0  0  0  0
    7.9490  -14.7079   25.4280 N   0  0  0  0  0  0  0  0  0  0  0  0
    8.7446  -14.7851   27.6384 C   0  0  0  0  0  0  0  0  0  0  0  0
    8.4967  -16.0154   27.6903 O   0  0  0  0  0  0  0  0  0  0  0  0
    9.4405  -14.2829   28.7556 O   0  0  0  0  0  0  0  0  0  0  0  0
  2  1  1  6
  2  3  1  0
  4  5  1  6
  4  6  1  0
  4  2  1  0
  6  7  2  0
  9  8  1  6
  9 11  1  0
 10  9  1  0
 11 13  1  0
 11 12  1  6
 12  6  1  0
 13 14  2  0
 13 19  1  0
 16 17  1  6
 16 15  1  0
 18 16  1  0
 18 19  1  6
 20 18  1  0
 20 22  1  0
 21 20  2  0
M  END
$$$$
