VTV.pdb
     RDKit          3D

 22 21  0  0  1  0  0  0  0  0999 V2000
    7.0450  -12.6210   20.7184 C   0  0  0  0  0  0  0  0  0  0  0  0
    8.2257  -13.4651   20.3098 C   0  0  2  0  0  0  0  0  0  0  0  0
    8.5809  -13.1677   18.8698 C   0  0  0  0  0  0  0  0  0  0  0  0
    7.9594  -14.9373   20.4525 C   0  0  2  0  0  0  0  0  0  0  0  0
    7.0010  -15.4152   19.4598 N   0  0  0  0  0  0  0  0  0  0  0  0
    7.4389  -15.3068   21.7772 C   0  0  0  0  0  0  0  0  0  0  0  0
    6.2910  -15.0671   22.1750 O   0  0  0  0  0  0  0  0  0  0  0  0
    6.5207  -18.1406   23.2817 C   0  0  0  0  0  0  0  0  0  0  0  0
    7.6952  -17.7657   24.1314 C   0  0  1  0  0  0  0  0  0  0  0  0
    8.8219  -18.5259   23.8208 O   0  0  0  0  0  0  0  0  0  0  0  0
    8.0011  -16.2699   24.0360 C   0  0  2  0  0  0  0  0  0  0  0  0
    8.3215  -15.9940   22.6742 N   0  0  0  0  0  0  0  0  0  0  0  0
    9.0195  -15.8529   25.0009 C   0  0  0  0  0  0  0  0  0  0  0  0
   10.2169  -15.6343   24.6365 O   0  0  0  0  0  0  0  0  0  0  0  0
    9.3028  -12.8385   27.3712 C   0  0  0  0  0  0  0  0  0  0  0  0
    9.4892  -14.1063   28.2018 C   0  0  2  0  0  0  0  0  0  0  0  0
   10.7239  -13.8375   29.0459 C   0  0  0  0  0  0  0  0  0  0  0  0
    9.7956  -15.2620   27.3233 C   0  0  2  0  0  0  0  0  0  0  0  0
    8.8060  -15.6513   26.3908 N   0  0  0  0  0  0  0  0  0  0  0  0
   10.1140  -16.4331   28.1804 C   0  0  0  0  0  0  0  0  0  0  0  0
    9.3050  -17.3545   28.4529 O   0  0  0  0  0  0  0  0  0  0  0  0
   11.3887  -16.5860   28.7604 O   0  0  0  0  0  0  0  0  0  0  0  0
  2  1  1  6
  2  3  1  0
  4  5  1  6
  4  6  1  0
  4  2  1  0
  6  7  2  0
  9  8  1  6
  9 11  1  0
 10  9  1  0
 11 13  1  0
 11 12  1  6
 12  6  1  0
 13 14  2  0
 13 19  1  0
 16 17  1  1
 16 15  1  0
 18 16  1  0
 18 19  1  1
 20 18  1  0
 20 22  1  0
 21 20  2  0
M  END
$$$$
