VTV.pdb
     RDKit          3D

 22 21  0  0  1  0  0  0  0  0999 V2000
    8.6835  -12.8420   17.7083 C   0  0  0  0  0  0  0  0  0  0  0  0
    8.0956  -13.3786   18.9889 C   0  0  2  0  0  0  0  0  0  0  0  0
    8.6126  -12.5680   20.1568 C   0  0  0  0  0  0  0  0  0  0  0  0
    8.4290  -14.8266   19.2146 C   0  0  2  0  0  0  0  0  0  0  0  0
    7.9598  -15.6698   18.1187 N   0  0  0  0  0  0  0  0  0  0  0  0
    7.8583  -15.3662   20.4577 C   0  0  0  0  0  0  0  0  0  0  0  0
    6.6848  -15.7385   20.5907 O   0  0  0  0  0  0  0  0  0  0  0  0
    8.5032  -18.3019   21.8870 C   0  0  0  0  0  0  0  0  0  0  0  0
    8.9411  -17.3870   22.9885 C   0  0  1  0  0  0  0  0  0  0  0  0
   10.3302  -17.2911   23.0595 O   0  0  0  0  0  0  0  0  0  0  0  0
    8.3033  -16.0031   22.8541 C   0  0  2  0  0  0  0  0  0  0  0  0
    8.7201  -15.4698   21.5990 N   0  0  0  0  0  0  0  0  0  0  0  0
    8.5908  -15.1492   24.0075 C   0  0  0  0  0  0  0  0  0  0  0  0
    9.6048  -14.3838   24.0196 O   0  0  0  0  0  0  0  0  0  0  0  0
    5.9819  -12.7791   25.8025 C   0  0  0  0  0  0  0  0  0  0  0  0
    6.7860  -13.5462   26.8499 C   0  0  2  0  0  0  0  0  0  0  0  0
    7.2465  -12.4861   27.8365 C   0  0  0  0  0  0  0  0  0  0  0  0
    8.0001  -14.1409   26.2390 C   0  0  2  0  0  0  0  0  0  0  0  0
    7.8122  -15.0747   25.1934 N   0  0  0  0  0  0  0  0  0  0  0  0
    8.7936  -14.7958   27.3110 C   0  0  0  0  0  0  0  0  0  0  0  0
    8.8994  -16.0387   27.4575 O   0  0  0  0  0  0  0  0  0  0  0  0
    9.5005  -14.0342   28.2622 O   0  0  0  0  0  0  0  0  0  0  0  0
  2  1  1  6
  2  3  1  0
  4  5  1  6
  4  6  1  0
  4  2  1  0
  6  7  2  0
  9  8  1  6
  9 11  1  0
 10  9  1  0
 11 13  1  0
 11 12  1  6
 12  6  1  0
 13 14  2  0
 13 19  1  0
 16 17  1  1
 16 15  1  0
 18 16  1  0
 18 19  1  6
 20 18  1  0
 20 22  1  0
 21 20  2  0
M  END
$$$$
