VTV.pdb
     RDKit          3D

 22 21  0  0  1  0  0  0  0  0999 V2000
    3.4456  -19.2920   20.2085 C   0  0  0  0  0  0  0  0  0  0  0  0
    4.8409  -18.8507   20.5719 C   0  0  2  0  0  0  0  0  0  0  0  0
    4.8980  -18.5333   22.0497 C   0  0  0  0  0  0  0  0  0  0  0  0
    5.2843  -17.6423   19.7960 C   0  0  2  0  0  0  0  0  0  0  0  0
    5.2287  -17.8710   18.3548 N   0  0  0  0  0  0  0  0  0  0  0  0
    6.6539  -17.2160   20.1193 C   0  0  0  0  0  0  0  0  0  0  0  0
    7.6800  -17.7280   19.6522 O   0  0  0  0  0  0  0  0  0  0  0  0
    7.6179  -13.4992   20.1615 C   0  0  0  0  0  0  0  0  0  0  0  0
    7.9408  -14.0857   21.5009 C   0  0  1  0  0  0  0  0  0  0  0  0
    7.0023  -13.7204   22.4652 O   0  0  0  0  0  0  0  0  0  0  0  0
    8.0851  -15.6068   21.4264 C   0  0  2  0  0  0  0  0  0  0  0  0
    6.8156  -16.1296   21.0411 N   0  0  0  0  0  0  0  0  0  0  0  0
    8.6292  -16.1701   22.6628 C   0  0  0  0  0  0  0  0  0  0  0  0
    7.8744  -16.4352   23.6498 O   0  0  0  0  0  0  0  0  0  0  0  0
    9.9686  -19.4715   23.4582 C   0  0  0  0  0  0  0  0  0  0  0  0
   11.0660  -18.4896   23.8627 C   0  0  2  0  0  0  0  0  0  0  0  0
   11.5357  -18.9741   25.2243 C   0  0  0  0  0  0  0  0  0  0  0  0
   10.5034  -17.1291   24.0460 C   0  0  2  0  0  0  0  0  0  0  0  0
    9.9965  -16.4742   22.8993 N   0  0  0  0  0  0  0  0  0  0  0  0
   11.5494  -16.2649   24.6513 C   0  0  0  0  0  0  0  0  0  0  0  0
   12.2723  -15.4664   24.0051 O   0  0  0  0  0  0  0  0  0  0  0  0
   11.8029  -16.2902   26.0368 O   0  0  0  0  0  0  0  0  0  0  0  0
  2  1  1  6
  2  3  1  0
  4  5  1  6
  4  6  1  0
  4  2  1  0
  6  7  2  0
  9  8  1  6
  9 11  1  0
 10  9  1  0
 11 13  1  0
 11 12  1  1
 12  6  1  0
 13 14  2  0
 13 19  1  0
 16 17  1  1
 16 15  1  0
 18 16  1  0
 18 19  1  6
 20 18  1  0
 20 22  1  0
 21 20  2  0
M  END
$$$$
