VTV.pdb
     RDKit          3D

 22 21  0  0  1  0  0  0  0  0999 V2000
    7.2612  -12.6506   19.4233 C   0  0  0  0  0  0  0  0  0  0  0  0
    8.6289  -13.2800   19.3405 C   0  0  2  0  0  0  0  0  0  0  0  0
    9.3160  -12.8226   18.0730 C   0  0  0  0  0  0  0  0  0  0  0  0
    8.5744  -14.7820   19.3511 C   0  0  2  0  0  0  0  0  0  0  0  0
    7.9009  -15.3099   18.1679 N   0  0  0  0  0  0  0  0  0  0  0  0
    7.8841  -15.3289   20.5286 C   0  0  0  0  0  0  0  0  0  0  0  0
    6.6705  -15.5682   20.5858 O   0  0  0  0  0  0  0  0  0  0  0  0
    8.0489  -18.3692   22.1685 C   0  0  0  0  0  0  0  0  0  0  0  0
    8.5589  -17.4300   23.2173 C   0  0  1  0  0  0  0  0  0  0  0  0
    9.9451  -17.5034   23.3473 O   0  0  0  0  0  0  0  0  0  0  0  0
    8.1099  -15.9926   22.9483 C   0  0  2  0  0  0  0  0  0  0  0  0
    8.6702  -15.6063   21.6952 N   0  0  0  0  0  0  0  0  0  0  0  0
    8.4275  -15.0982   24.0624 C   0  0  0  0  0  0  0  0  0  0  0  0
    9.5249  -14.4588   24.0970 O   0  0  0  0  0  0  0  0  0  0  0  0
    5.9590  -12.4448   25.7851 C   0  0  0  0  0  0  0  0  0  0  0  0
    6.7322  -13.2254   26.8457 C   0  0  2  0  0  0  0  0  0  0  0  0
    7.3038  -12.1619   27.7685 C   0  0  0  0  0  0  0  0  0  0  0  0
    7.8771  -13.9415   26.2313 C   0  0  2  0  0  0  0  0  0  0  0  0
    7.5918  -14.8476   25.1834 N   0  0  0  0  0  0  0  0  0  0  0  0
    8.5995  -14.6785   27.3002 C   0  0  0  0  0  0  0  0  0  0  0  0
    8.3976  -15.8831   27.5930 O   0  0  0  0  0  0  0  0  0  0  0  0
    9.5901  -14.0474   28.0781 O   0  0  0  0  0  0  0  0  0  0  0  0
  2  1  1  6
  2  3  1  0
  4  5  1  6
  4  6  1  0
  4  2  1  0
  6  7  2  0
  9  8  1  6
  9 11  1  0
 10  9  1  0
 11 13  1  0
 11 12  1  6
 12  6  1  0
 13 14  2  0
 13 19  1  0
 16 17  1  1
 16 15  1  0
 18 16  1  0
 18 19  1  6
 20 18  1  0
 20 22  1  0
 21 20  2  0
M  END
$$$$
