VTV.pdb
     RDKit          3D

 22 21  0  0  1  0  0  0  0  0999 V2000
    7.8468  -12.4495   19.2763 C   0  0  0  0  0  0  0  0  0  0  0  0
    9.1077  -13.2585   19.4469 C   0  0  2  0  0  0  0  0  0  0  0  0
   10.0340  -12.9962   18.2801 C   0  0  0  0  0  0  0  0  0  0  0  0
    8.8388  -14.7347   19.5338 C   0  0  2  0  0  0  0  0  0  0  0  0
    8.2211  -15.2476   18.3141 N   0  0  0  0  0  0  0  0  0  0  0  0
    7.9611  -15.0991   20.6559 C   0  0  0  0  0  0  0  0  0  0  0  0
    6.7238  -15.1114   20.6074 O   0  0  0  0  0  0  0  0  0  0  0  0
    7.2204  -17.9632   22.1853 C   0  0  0  0  0  0  0  0  0  0  0  0
    7.8662  -17.2320   23.3212 C   0  0  1  0  0  0  0  0  0  0  0  0
    9.1626  -17.6870   23.5587 O   0  0  0  0  0  0  0  0  0  0  0  0
    7.8501  -15.7192   23.0950 C   0  0  2  0  0  0  0  0  0  0  0  0
    8.5796  -15.4671   21.8960 N   0  0  0  0  0  0  0  0  0  0  0  0
    8.3249  -14.9816   24.2667 C   0  0  0  0  0  0  0  0  0  0  0  0
    9.5627  -14.7540   24.4403 O   0  0  0  0  0  0  0  0  0  0  0  0
    5.6988  -13.5256   27.3934 C   0  0  0  0  0  0  0  0  0  0  0  0
    6.9949  -12.7901   27.0600 C   0  0  2  0  0  0  0  0  0  0  0  0
    6.5942  -11.7490   26.0281 C   0  0  0  0  0  0  0  0  0  0  0  0
    7.9611  -13.7096   26.4103 C   0  0  2  0  0  0  0  0  0  0  0  0
    7.5033  -14.4565   25.2998 N   0  0  0  0  0  0  0  0  0  0  0  0
    8.4671  -14.6602   27.4339 C   0  0  0  0  0  0  0  0  0  0  0  0
    8.2356  -15.8947   27.4325 O   0  0  0  0  0  0  0  0  0  0  0  0
    9.2661  -14.2180   28.5066 O   0  0  0  0  0  0  0  0  0  0  0  0
  2  1  1  6
  2  3  1  0
  4  5  1  6
  4  6  1  0
  4  2  1  0
  6  7  2  0
  9  8  1  6
  9 11  1  0
 10  9  1  0
 11 13  1  0
 11 12  1  6
 12  6  1  0
 13 14  2  0
 13 19  1  0
 16 17  1  6
 16 15  1  0
 18 16  1  0
 18 19  1  6
 20 18  1  0
 20 22  1  0
 21 20  2  0
M  END
$$$$
