VTV.pdb
     RDKit          3D

 22 21  0  0  1  0  0  0  0  0999 V2000
    8.3369  -12.7451   17.8610 C   0  0  0  0  0  0  0  0  0  0  0  0
    7.7725  -13.3475   19.1228 C   0  0  2  0  0  0  0  0  0  0  0  0
    8.1437  -12.4781   20.3037 C   0  0  0  0  0  0  0  0  0  0  0  0
    8.2717  -14.7436   19.3690 C   0  0  2  0  0  0  0  0  0  0  0  0
    7.8875  -15.6557   18.2954 N   0  0  0  0  0  0  0  0  0  0  0  0
    7.7823  -15.3205   20.6299 C   0  0  0  0  0  0  0  0  0  0  0  0
    6.6054  -15.6365   20.8502 O   0  0  0  0  0  0  0  0  0  0  0  0
    8.6861  -18.3607   22.1721 C   0  0  0  0  0  0  0  0  0  0  0  0
    9.1118  -17.3398   23.1813 C   0  0  1  0  0  0  0  0  0  0  0  0
   10.4937  -17.1540   23.1777 O   0  0  0  0  0  0  0  0  0  0  0  0
    8.3807  -16.0117   22.9774 C   0  0  2  0  0  0  0  0  0  0  0  0
    8.7339  -15.5338   21.6811 N   0  0  0  0  0  0  0  0  0  0  0  0
    8.6357  -15.0689   24.0675 C   0  0  0  0  0  0  0  0  0  0  0  0
    9.6174  -14.2637   24.0212 O   0  0  0  0  0  0  0  0  0  0  0  0
    6.0691  -12.5771   25.6182 C   0  0  0  0  0  0  0  0  0  0  0  0
    6.8093  -13.2799   26.7541 C   0  0  2  0  0  0  0  0  0  0  0  0
    7.2605  -12.1577   27.6741 C   0  0  0  0  0  0  0  0  0  0  0  0
    8.0292  -13.9511   26.2418 C   0  0  2  0  0  0  0  0  0  0  0  0
    7.8578  -14.9444   25.2496 N   0  0  0  0  0  0  0  0  0  0  0  0
    8.7489  -14.5596   27.3903 C   0  0  0  0  0  0  0  0  0  0  0  0
    9.2251  -13.9105   28.3544 O   0  0  0  0  0  0  0  0  0  0  0  0
    8.9479  -15.9520   27.4699 O   0  0  0  0  0  0  0  0  0  0  0  0
  2  1  1  6
  2  3  1  0
  4  5  1  6
  4  6  1  0
  4  2  1  0
  6  7  2  0
  9  8  1  6
  9 11  1  0
 10  9  1  0
 11 13  1  0
 11 12  1  6
 12  6  1  0
 13 14  2  0
 13 19  1  0
 16 17  1  1
 16 15  1  0
 18 16  1  0
 18 19  1  6
 20 18  1  0
 20 22  1  0
 21 20  2  0
M  END
$$$$
