VTV.pdb
     RDKit          3D

 22 21  0  0  1  0  0  0  0  0999 V2000
    7.2189  -12.7477   19.4683 C   0  0  0  0  0  0  0  0  0  0  0  0
    8.5603  -13.4201   19.3193 C   0  0  2  0  0  0  0  0  0  0  0  0
    9.1565  -13.0585   17.9769 C   0  0  0  0  0  0  0  0  0  0  0  0
    8.4706  -14.9166   19.4259 C   0  0  2  0  0  0  0  0  0  0  0  0
    7.8138  -15.5062   18.2626 N   0  0  0  0  0  0  0  0  0  0  0  0
    7.7395  -15.3702   20.6183 C   0  0  0  0  0  0  0  0  0  0  0  0
    6.5058  -15.3907   20.7229 O   0  0  0  0  0  0  0  0  0  0  0  0
    7.7612  -18.5319   22.3176 C   0  0  0  0  0  0  0  0  0  0  0  0
    8.3185  -17.5807   23.3308 C   0  0  1  0  0  0  0  0  0  0  0  0
    9.7002  -17.7151   23.4612 O   0  0  0  0  0  0  0  0  0  0  0  0
    7.9372  -16.1343   23.0107 C   0  0  2  0  0  0  0  0  0  0  0  0
    8.5076  -15.8219   21.7416 N   0  0  0  0  0  0  0  0  0  0  0  0
    8.3043  -15.2157   24.0894 C   0  0  0  0  0  0  0  0  0  0  0  0
    9.4171  -14.6027   24.0778 O   0  0  0  0  0  0  0  0  0  0  0  0
    6.0363  -12.4066   25.8756 C   0  0  0  0  0  0  0  0  0  0  0  0
    6.7744  -13.2527   26.9106 C   0  0  2  0  0  0  0  0  0  0  0  0
    7.4248  -12.2437   27.8422 C   0  0  0  0  0  0  0  0  0  0  0  0
    7.8633  -14.0276   26.2663 C   0  0  2  0  0  0  0  0  0  0  0  0
    7.5036  -14.9120   25.2228 N   0  0  0  0  0  0  0  0  0  0  0  0
    8.5696  -14.8079   27.3151 C   0  0  0  0  0  0  0  0  0  0  0  0
    8.4086  -16.0375   27.5147 O   0  0  0  0  0  0  0  0  0  0  0  0
    9.4959  -14.1931   28.1803 O   0  0  0  0  0  0  0  0  0  0  0  0
  2  1  1  6
  2  3  1  0
  4  5  1  6
  4  6  1  0
  4  2  1  0
  6  7  2  0
  9  8  1  6
  9 11  1  0
 10  9  1  0
 11 13  1  0
 11 12  1  6
 12  6  1  0
 13 14  2  0
 13 19  1  0
 16 17  1  1
 16 15  1  0
 18 16  1  0
 18 19  1  6
 20 18  1  0
 20 22  1  0
 21 20  2  0
M  END
$$$$
