VTV.pdb
     RDKit          3D

 22 21  0  0  1  0  0  0  0  0999 V2000
    7.2914  -12.5723   19.4317 C   0  0  0  0  0  0  0  0  0  0  0  0
    8.6662  -13.1883   19.3673 C   0  0  2  0  0  0  0  0  0  0  0  0
    9.3799  -12.6945   18.1283 C   0  0  0  0  0  0  0  0  0  0  0  0
    8.6248  -14.6904   19.3402 C   0  0  2  0  0  0  0  0  0  0  0  0
    7.9846  -15.1950   18.1287 N   0  0  0  0  0  0  0  0  0  0  0  0
    7.9114  -15.2716   20.4872 C   0  0  0  0  0  0  0  0  0  0  0  0
    6.6971  -15.5127   20.5129 O   0  0  0  0  0  0  0  0  0  0  0  0
    7.9015  -18.3140   21.9983 C   0  0  0  0  0  0  0  0  0  0  0  0
    8.4432  -17.4597   23.1023 C   0  0  1  0  0  0  0  0  0  0  0  0
    9.8192  -17.6239   23.2556 O   0  0  0  0  0  0  0  0  0  0  0  0
    8.0876  -15.9862   22.8964 C   0  0  2  0  0  0  0  0  0  0  0  0
    8.6740  -15.5825   21.6609 N   0  0  0  0  0  0  0  0  0  0  0  0
    8.4597  -15.1631   24.0481 C   0  0  0  0  0  0  0  0  0  0  0  0
    9.5707  -14.5479   24.0822 O   0  0  0  0  0  0  0  0  0  0  0  0
    6.2575  -12.3678   25.7206 C   0  0  0  0  0  0  0  0  0  0  0  0
    6.8566  -13.2542   26.8103 C   0  0  2  0  0  0  0  0  0  0  0  0
    7.4553  -12.2824   27.8135 C   0  0  0  0  0  0  0  0  0  0  0  0
    7.9694  -14.0688   26.2633 C   0  0  2  0  0  0  0  0  0  0  0  0
    7.6659  -14.9612   25.2088 N   0  0  0  0  0  0  0  0  0  0  0  0
    8.5716  -14.8494   27.3748 C   0  0  0  0  0  0  0  0  0  0  0  0
    8.3151  -16.0550   27.6163 O   0  0  0  0  0  0  0  0  0  0  0  0
    9.5003  -14.2628   28.2570 O   0  0  0  0  0  0  0  0  0  0  0  0
  2  1  1  6
  2  3  1  0
  4  5  1  6
  4  6  1  0
  4  2  1  0
  6  7  2  0
  9  8  1  6
  9 11  1  0
 10  9  1  0
 11 13  1  0
 11 12  1  6
 12  6  1  0
 13 14  2  0
 13 19  1  0
 16 17  1  1
 16 15  1  0
 18 16  1  0
 18 19  1  6
 20 18  1  0
 20 22  1  0
 21 20  2  0
M  END
$$$$
