VTV.pdb
     RDKit          3D

 22 21  0  0  1  0  0  0  0  0999 V2000
    8.0560  -12.5442   18.7050 C   0  0  0  0  0  0  0  0  0  0  0  0
    7.6743  -13.3777   19.9021 C   0  0  2  0  0  0  0  0  0  0  0  0
    8.1063  -12.6680   21.1662 C   0  0  0  0  0  0  0  0  0  0  0  0
    8.2958  -14.7459   19.8743 C   0  0  2  0  0  0  0  0  0  0  0  0
    7.8418  -15.5261   18.7264 N   0  0  0  0  0  0  0  0  0  0  0  0
    8.0118  -15.5365   21.0811 C   0  0  0  0  0  0  0  0  0  0  0  0
    6.8967  -15.9798   21.3867 O   0  0  0  0  0  0  0  0  0  0  0  0
    8.6676  -18.6551   22.1997 C   0  0  0  0  0  0  0  0  0  0  0  0
    9.4644  -17.8371   23.1683 C   0  0  1  0  0  0  0  0  0  0  0  0
   10.8242  -17.8501   22.8601 O   0  0  0  0  0  0  0  0  0  0  0  0
    8.9373  -16.4039   23.2576 C   0  0  2  0  0  0  0  0  0  0  0  0
    9.1024  -15.8158   21.9691 N   0  0  0  0  0  0  0  0  0  0  0  0
    9.5544  -15.6570   24.3547 C   0  0  0  0  0  0  0  0  0  0  0  0
   10.6039  -14.9658   24.1680 O   0  0  0  0  0  0  0  0  0  0  0  0
    8.1782  -12.8691   26.4036 C   0  0  0  0  0  0  0  0  0  0  0  0
    8.7478  -13.8637   27.4127 C   0  0  2  0  0  0  0  0  0  0  0  0
    9.6132  -13.0237   28.3372 C   0  0  0  0  0  0  0  0  0  0  0  0
    9.6384  -14.8379   26.7353 C   0  0  2  0  0  0  0  0  0  0  0  0
    9.0806  -15.6148   25.6933 N   0  0  0  0  0  0  0  0  0  0  0  0
   10.1912  -15.7613   27.7596 C   0  0  0  0  0  0  0  0  0  0  0  0
    9.7610  -16.9214   27.9760 O   0  0  0  0  0  0  0  0  0  0  0  0
   11.2704  -15.3772   28.5797 O   0  0  0  0  0  0  0  0  0  0  0  0
  2  1  1  6
  2  3  1  0
  4  5  1  6
  4  6  1  0
  4  2  1  0
  6  7  2  0
  9  8  1  6
  9 11  1  0
 10  9  1  0
 11 13  1  0
 11 12  1  6
 12  6  1  0
 13 14  2  0
 13 19  1  0
 16 17  1  1
 16 15  1  0
 18 16  1  0
 18 19  1  6
 20 18  1  0
 20 22  1  0
 21 20  2  0
M  END
$$$$
