VTV.pdb
     RDKit          3D

 22 21  0  0  1  0  0  0  0  0999 V2000
    9.3572  -12.5131   20.0443 C   0  0  0  0  0  0  0  0  0  0  0  0
    8.7270  -13.3298   18.9446 C   0  0  2  0  0  0  0  0  0  0  0  0
    7.2756  -12.9315   18.7924 C   0  0  0  0  0  0  0  0  0  0  0  0
    8.8021  -14.8076   19.2080 C   0  0  2  0  0  0  0  0  0  0  0  0
    8.3264  -15.5878   18.0690 N   0  0  0  0  0  0  0  0  0  0  0  0
    8.0235  -15.2276   20.3825 C   0  0  0  0  0  0  0  0  0  0  0  0
    6.7929  -15.3642   20.3998 O   0  0  0  0  0  0  0  0  0  0  0  0
    7.9988  -18.2188   22.0238 C   0  0  0  0  0  0  0  0  0  0  0  0
    8.4630  -17.3066   23.1168 C   0  0  1  0  0  0  0  0  0  0  0  0
    9.8297  -17.4418   23.3576 O   0  0  0  0  0  0  0  0  0  0  0  0
    8.1008  -15.8498   22.8224 C   0  0  2  0  0  0  0  0  0  0  0  0
    8.7378  -15.4995   21.5956 N   0  0  0  0  0  0  0  0  0  0  0  0
    8.4115  -14.9664   23.9472 C   0  0  0  0  0  0  0  0  0  0  0  0
    9.5257  -14.3598   24.0156 O   0  0  0  0  0  0  0  0  0  0  0  0
    5.9623  -12.2373   25.6281 C   0  0  0  0  0  0  0  0  0  0  0  0
    6.6818  -13.0622   26.6930 C   0  0  2  0  0  0  0  0  0  0  0  0
    7.2486  -12.0357   27.6596 C   0  0  0  0  0  0  0  0  0  0  0  0
    7.8285  -13.7914   26.0977 C   0  0  2  0  0  0  0  0  0  0  0  0
    7.5506  -14.6924   25.0434 N   0  0  0  0  0  0  0  0  0  0  0  0
    8.5228  -14.5388   27.1779 C   0  0  0  0  0  0  0  0  0  0  0  0
    8.3696  -15.7646   27.4049 O   0  0  0  0  0  0  0  0  0  0  0  0
    9.4275  -13.8940   28.0442 O   0  0  0  0  0  0  0  0  0  0  0  0
  2  1  1  1
  2  3  1  0
  4  5  1  6
  4  6  1  0
  4  2  1  0
  6  7  2  0
  9  8  1  6
  9 11  1  0
 10  9  1  0
 11 13  1  0
 11 12  1  6
 12  6  1  0
 13 14  2  0
 13 19  1  0
 16 17  1  1
 16 15  1  0
 18 16  1  0
 18 19  1  6
 20 18  1  0
 20 22  1  0
 21 20  2  0
M  END
$$$$
