VTV.pdb
     RDKit          3D

 22 21  0  0  1  0  0  0  0  0999 V2000
    8.1143  -12.8673   18.4989 C   0  0  0  0  0  0  0  0  0  0  0  0
    7.6689  -13.4706   19.8070 C   0  0  2  0  0  0  0  0  0  0  0  0
    8.0743  -12.5589   20.9440 C   0  0  0  0  0  0  0  0  0  0  0  0
    8.2549  -14.8344   20.0427 C   0  0  2  0  0  0  0  0  0  0  0  0
    7.8821  -15.7756   18.9903 N   0  0  0  0  0  0  0  0  0  0  0  0
    7.8471  -15.4271   21.3251 C   0  0  0  0  0  0  0  0  0  0  0  0
    6.7954  -16.0544   21.5085 O   0  0  0  0  0  0  0  0  0  0  0  0
    7.4658  -17.8016   22.4658 C   0  0  0  0  0  0  0  0  0  0  0  0
    8.5185  -17.4108   23.4565 C   0  0  1  0  0  0  0  0  0  0  0  0
    9.7826  -17.8541   23.0698 O   0  0  0  0  0  0  0  0  0  0  0  0
    8.5206  -15.9015   23.7057 C   0  0  2  0  0  0  0  0  0  0  0  0
    8.7287  -15.2690   22.4448 N   0  0  0  0  0  0  0  0  0  0  0  0
    9.4730  -15.5162   24.7481 C   0  0  0  0  0  0  0  0  0  0  0  0
   10.7166  -15.4342   24.5016 O   0  0  0  0  0  0  0  0  0  0  0  0
    8.3496  -13.9723   28.6981 C   0  0  0  0  0  0  0  0  0  0  0  0
    9.6156  -13.6062   27.9266 C   0  0  2  0  0  0  0  0  0  0  0  0
    9.1917  -12.4781   27.0010 C   0  0  0  0  0  0  0  0  0  0  0  0
   10.0500  -14.7400   27.0741 C   0  0  2  0  0  0  0  0  0  0  0  0
    9.1417  -15.2027   26.0935 N   0  0  0  0  0  0  0  0  0  0  0  0
   10.4052  -15.8822   27.9553 C   0  0  0  0  0  0  0  0  0  0  0  0
    9.7659  -16.9620   28.0107 O   0  0  0  0  0  0  0  0  0  0  0  0
   11.5209  -15.8206   28.8133 O   0  0  0  0  0  0  0  0  0  0  0  0
  2  1  1  6
  2  3  1  0
  4  5  1  6
  4  6  1  0
  4  2  1  0
  6  7  2  0
  9  8  1  6
  9 11  1  0
 10  9  1  0
 11 13  1  0
 11 12  1  6
 12  6  1  0
 13 14  2  0
 13 19  1  0
 16 17  1  6
 16 15  1  0
 18 16  1  0
 18 19  1  6
 20 18  1  0
 20 22  1  0
 21 20  2  0
M  END
$$$$
