VTV.pdb
     RDKit          3D

 22 21  0  0  1  0  0  0  0  0999 V2000
    8.3566  -12.8923   17.9381 C   0  0  0  0  0  0  0  0  0  0  0  0
    7.7950  -13.4507   19.2212 C   0  0  2  0  0  0  0  0  0  0  0  0
    8.2809  -12.6174   20.3863 C   0  0  0  0  0  0  0  0  0  0  0  0
    8.1889  -14.8833   19.4482 C   0  0  2  0  0  0  0  0  0  0  0  0
    7.6451  -15.7662   18.4202 N   0  0  0  0  0  0  0  0  0  0  0  0
    7.7506  -15.4057   20.7509 C   0  0  0  0  0  0  0  0  0  0  0  0
    6.5820  -15.7013   21.0344 O   0  0  0  0  0  0  0  0  0  0  0  0
    9.0626  -17.9386   24.6313 C   0  0  0  0  0  0  0  0  0  0  0  0
    9.2836  -17.3467   23.2738 C   0  0  1  0  0  0  0  0  0  0  0  0
    9.0321  -18.2701   22.2598 O   0  0  0  0  0  0  0  0  0  0  0  0
    8.4549  -16.0764   23.0748 C   0  0  2  0  0  0  0  0  0  0  0  0
    8.7456  -15.5871   21.7673 N   0  0  0  0  0  0  0  0  0  0  0  0
    8.6645  -15.1072   24.1514 C   0  0  0  0  0  0  0  0  0  0  0  0
    9.7633  -14.4793   24.2630 O   0  0  0  0  0  0  0  0  0  0  0  0
    5.9731  -12.4181   25.7661 C   0  0  0  0  0  0  0  0  0  0  0  0
    6.7417  -13.2147   26.8182 C   0  0  2  0  0  0  0  0  0  0  0  0
    7.2400  -12.1720   27.8049 C   0  0  0  0  0  0  0  0  0  0  0  0
    7.9338  -13.8583   26.2133 C   0  0  2  0  0  0  0  0  0  0  0  0
    7.7149  -14.7668   25.1516 N   0  0  0  0  0  0  0  0  0  0  0  0
    8.6810  -14.5661   27.2849 C   0  0  0  0  0  0  0  0  0  0  0  0
    8.5501  -15.7856   27.5553 O   0  0  0  0  0  0  0  0  0  0  0  0
    9.6151  -13.8870   28.0917 O   0  0  0  0  0  0  0  0  0  0  0  0
  2  1  1  6
  2  3  1  0
  4  5  1  6
  4  6  1  0
  4  2  1  0
  6  7  2  0
  9  8  1  1
  9 11  1  0
 10  9  1  0
 11 13  1  0
 11 12  1  6
 12  6  1  0
 13 14  2  0
 13 19  1  0
 16 17  1  1
 16 15  1  0
 18 16  1  0
 18 19  1  6
 20 18  1  0
 20 22  1  0
 21 20  2  0
M  END
$$$$
