VTV.pdb
     RDKit          3D

 22 21  0  0  1  0  0  0  0  0999 V2000
   13.1888  -15.1257   18.7569 C   0  0  0  0  0  0  0  0  0  0  0  0
   12.1977  -14.8841   19.8672 C   0  0  2  0  0  0  0  0  0  0  0  0
   12.9432  -14.6192   21.1565 C   0  0  0  0  0  0  0  0  0  0  0  0
   11.2663  -16.0457   20.0722 C   0  0  2  0  0  0  0  0  0  0  0  0
   10.5293  -16.3730   18.8548 N   0  0  0  0  0  0  0  0  0  0  0  0
   10.2764  -15.8148   21.1347 C   0  0  0  0  0  0  0  0  0  0  0  0
    9.3277  -15.0231   21.0538 O   0  0  0  0  0  0  0  0  0  0  0  0
    7.9110  -18.0311   22.4006 C   0  0  0  0  0  0  0  0  0  0  0  0
    8.7857  -17.7700   23.5875 C   0  0  1  0  0  0  0  0  0  0  0  0
    9.6807  -18.8156   23.8103 O   0  0  0  0  0  0  0  0  0  0  0  0
    9.5237  -16.4364   23.4570 C   0  0  2  0  0  0  0  0  0  0  0  0
   10.4172  -16.5585   22.3525 N   0  0  0  0  0  0  0  0  0  0  0  0
   10.1557  -16.0309   24.7133 C   0  0  0  0  0  0  0  0  0  0  0  0
   11.4085  -16.1531   24.8860 O   0  0  0  0  0  0  0  0  0  0  0  0
    9.2221  -12.7641   27.0034 C   0  0  0  0  0  0  0  0  0  0  0  0
    9.4166  -14.0265   27.8403 C   0  0  2  0  0  0  0  0  0  0  0  0
   10.3669  -13.6115   28.9511 C   0  0  0  0  0  0  0  0  0  0  0  0
   10.0969  -15.0774   27.0441 C   0  0  2  0  0  0  0  0  0  0  0  0
    9.4817  -15.4793   25.8356 N   0  0  0  0  0  0  0  0  0  0  0  0
   10.2693  -16.2791   27.9008 C   0  0  0  0  0  0  0  0  0  0  0  0
    9.4817  -17.2573   27.9187 O   0  0  0  0  0  0  0  0  0  0  0  0
   11.3665  -16.3978   28.7765 O   0  0  0  0  0  0  0  0  0  0  0  0
  2  1  1  6
  2  3  1  0
  4  5  1  6
  4  6  1  0
  4  2  1  0
  6  7  2  0
  9  8  1  6
  9 11  1  0
 10  9  1  0
 11 13  1  0
 11 12  1  6
 12  6  1  0
 13 14  2  0
 13 19  1  0
 16 17  1  1
 16 15  1  0
 18 16  1  0
 18 19  1  6
 20 18  1  0
 20 22  1  0
 21 20  2  0
M  END
$$$$
