RPN.pdb
     RDKit          3D

 27 27  0  0  1  0  0  0  0  0999 V2000
    6.7859  -13.6630   18.5993 N   0  0  0  0  0  0  0  0  0  0  0  0
    8.0685  -13.7810   19.1754 C   0  0  0  0  0  0  0  0  0  0  0  0
    9.0964  -13.4912   18.4176 N   0  0  0  0  0  0  0  0  0  0  0  0
    8.2309  -14.1903   20.5179 N   0  0  0  0  0  0  0  0  0  0  0  0
    7.2481  -13.6817   21.4969 C   0  0  0  0  0  0  0  0  0  0  0  0
    6.7946  -14.8385   22.3104 C   0  0  0  0  0  0  0  0  0  0  0  0
    7.8148  -15.5633   23.1202 C   0  0  0  0  0  0  0  0  0  0  0  0
    9.0159  -14.7295   23.4377 C   0  0  2  0  0  0  0  0  0  0  0  0
    9.9119  -14.6795   22.3002 N   0  0  0  0  0  0  0  0  0  0  0  0
    9.7306  -15.2167   24.6311 C   0  0  0  0  0  0  0  0  0  0  0  0
   10.6822  -16.0565   24.4818 O   0  0  0  0  0  0  0  0  0  0  0  0
   10.0643  -13.5338   18.7666 N   0  0  0  0  0  0  0  0  0  0  0  0
    9.4189  -14.8035   25.9386 C   0  0  0  0  0  0  0  0  0  0  0  0
    8.2756  -13.9916   26.3077 C   0  0  0  0  0  0  0  0  0  0  0  0
    8.8765  -13.1355   27.4352 C   0  0  0  0  0  0  0  0  0  0  0  0
    9.6966  -14.1261   28.1759 C   0  0  1  0  0  0  0  0  0  0  0  0
   10.1841  -15.0985   27.1364 C   0  0  0  0  0  0  0  0  0  0  0  0
   10.0260  -16.5065   27.5737 O   0  0  0  0  0  0  0  0  0  0  0  0
    8.8700  -17.0011   27.5571 N   0  0  0  0  0  0  0  0  0  0  0  0
   12.9506  -19.0431   25.6483 C   0  0  0  0  0  0  0  0  0  0  0  0
   11.8021  -19.5018   26.3444 O   0  0  0  0  0  0  0  0  0  0  0  0
   10.8068  -19.8368   25.6796 C   0  0  0  0  0  0  0  0  0  0  0  0
   11.8214  -19.5658   27.7976 C   0  0  2  0  0  0  0  0  0  0  0  0
   10.8125  -18.7082   28.5164 N   0  0  0  0  0  0  0  0  0  0  0  0
   11.0690  -17.3380   28.0073 C   0  0  0  0  0  0  0  0  0  0  0  0
   10.9454  -18.7093   29.9840 O   0  0  0  0  0  0  0  0  0  0  0  0
   11.4002  -17.5945   30.6989 O   0  0  0  0  0  0  0  0  0  0  0  0
  2  1  1  0
  3  2  2  0
  4  2  1  0
  5  4  1  0
  6  5  1  0
  7  6  1  0
  8  7  1  0
  8  9  1  6
 10  8  1  0
 10 12  1  0
 11 10  2  0
 12 13  1  0
 13 14  1  0
 15 14  1  0
 16 12  1  0
 16 15  1  0
 16 17  1  6
 18 17  2  0
 19 20  1  0
 20 21  2  0
 23 22  1  6
 22 20  1  0
 23 24  1  0
 24 17  1  0
 25 23  1  0
 25 26  1  0
 27 25  2  0
M  END
$$$$
