RPN.pdb
     RDKit          3D

 27 27  0  0  1  0  0  0  0  0999 V2000
   11.2397  -18.4123   15.3077 N   0  0  0  0  0  0  0  0  0  0  0  0
    9.8971  -18.6907   14.9750 C   0  0  0  0  0  0  0  0  0  0  0  0
    9.6737  -19.2973   13.8361 N   0  0  0  0  0  0  0  0  0  0  0  0
    8.8407  -18.3323   15.8420 N   0  0  0  0  0  0  0  0  0  0  0  0
    9.2128  -17.7163   17.1324 C   0  0  0  0  0  0  0  0  0  0  0  0
    9.4637  -16.2747   16.8787 C   0  0  0  0  0  0  0  0  0  0  0  0
   10.8742  -15.7948   16.9231 C   0  0  0  0  0  0  0  0  0  0  0  0
   11.0140  -14.4313   17.5231 C   0  0  2  0  0  0  0  0  0  0  0  0
   12.3180  -13.8768   17.2207 N   0  0  0  0  0  0  0  0  0  0  0  0
   10.7865  -14.4392   18.9794 C   0  0  0  0  0  0  0  0  0  0  0  0
   11.6917  -14.9183   19.7438 O   0  0  0  0  0  0  0  0  0  0  0  0
    8.7215  -19.5005   13.5005 N   0  0  0  0  0  0  0  0  0  0  0  0
    9.6154  -13.9434   19.5793 C   0  0  0  0  0  0  0  0  0  0  0  0
    8.5095  -13.3291   18.8706 C   0  0  0  0  0  0  0  0  0  0  0  0
    8.0821  -12.2472   19.8767 C   0  0  0  0  0  0  0  0  0  0  0  0
    8.1807  -12.9678   21.1704 C   0  0  2  0  0  0  0  0  0  0  0  0
    9.3133  -13.9432   20.9993 C   0  0  0  0  0  0  0  0  0  0  0  0
    8.9653  -15.2942   21.5017 O   0  0  0  0  0  0  0  0  0  0  0  0
    8.4023  -16.0899   20.7073 N   0  0  0  0  0  0  0  0  0  0  0  0
   10.4259  -19.6297   21.9719 C   0  0  0  0  0  0  0  0  0  0  0  0
   11.1321  -18.5218   21.4355 O   0  0  0  0  0  0  0  0  0  0  0  0
   11.9319  -18.7284   20.5070 C   0  0  0  0  0  0  0  0  0  0  0  0
   10.9033  -17.1926   21.9806 C   0  0  2  0  0  0  0  0  0  0  0  0
    9.8439  -17.0820   23.0464 N   0  0  0  0  0  0  0  0  0  0  0  0
    9.2152  -15.7604   22.8007 C   0  0  0  0  0  0  0  0  0  0  0  0
   10.3597  -17.1209   24.4263 O   0  0  0  0  0  0  0  0  0  0  0  0
   10.3022  -18.2740   25.2186 O   0  0  0  0  0  0  0  0  0  0  0  0
  2  1  1  0
  3  2  2  0
  4  2  1  0
  5  4  1  0
  6  5  1  0
  7  6  1  0
  8  7  1  0
  8  9  1  1
 10  8  1  0
 10 12  1  0
 11 10  2  0
 12 13  1  0
 13 14  1  0
 15 14  1  0
 16 12  1  0
 16 15  1  0
 16 17  1  1
 18 17  2  0
 19 20  1  0
 20 21  2  0
 23 22  1  6
 22 20  1  0
 23 24  1  0
 24 17  1  0
 25 23  1  0
 25 26  1  0
 27 25  2  0
M  END
$$$$
