RPN.pdb
     RDKit          3D

 27 27  0  0  1  0  0  0  0  0999 V2000
    7.1927  -15.5974   16.5882 N   0  0  0  0  0  0  0  0  0  0  0  0
    7.1075  -14.1988   16.7540 C   0  0  0  0  0  0  0  0  0  0  0  0
    6.0644  -13.5954   16.2414 N   0  0  0  0  0  0  0  0  0  0  0  0
    8.1075  -13.4840   17.4508 N   0  0  0  0  0  0  0  0  0  0  0  0
    8.5100  -14.0103   18.7714 C   0  0  0  0  0  0  0  0  0  0  0  0
    7.3391  -13.8793   19.6756 C   0  0  0  0  0  0  0  0  0  0  0  0
    7.5215  -14.2450   21.1090 C   0  0  0  0  0  0  0  0  0  0  0  0
    8.5465  -13.4062   21.8052 C   0  0  2  0  0  0  0  0  0  0  0  0
    9.7907  -13.4083   21.0627 N   0  0  0  0  0  0  0  0  0  0  0  0
    8.7774  -13.8485   23.1921 C   0  0  0  0  0  0  0  0  0  0  0  0
    9.8721  -14.4432   23.4770 O   0  0  0  0  0  0  0  0  0  0  0  0
    5.9365  -12.5754   16.3014 N   0  0  0  0  0  0  0  0  0  0  0  0
    7.8490  -13.6498   24.2293 C   0  0  0  0  0  0  0  0  0  0  0  0
    6.5123  -13.1132   24.0623 C   0  0  0  0  0  0  0  0  0  0  0  0
    6.3638  -12.2909   25.3535 C   0  0  0  0  0  0  0  0  0  0  0  0
    6.9764  -13.1866   26.3660 C   0  0  2  0  0  0  0  0  0  0  0  0
    8.0643  -13.9279   25.6377 C   0  0  0  0  0  0  0  0  0  0  0  0
    8.0434  -15.3805   25.9351 O   0  0  0  0  0  0  0  0  0  0  0  0
    7.1451  -16.0777   25.3982 N   0  0  0  0  0  0  0  0  0  0  0  0
    9.9493  -20.1695   26.2354 C   0  0  0  0  0  0  0  0  0  0  0  0
   10.5495  -19.1404   25.4642 O   0  0  0  0  0  0  0  0  0  0  0  0
   11.4162  -19.4589   24.6324 C   0  0  0  0  0  0  0  0  0  0  0  0
   10.1391  -17.7595   25.6666 C   0  0  1  0  0  0  0  0  0  0  0  0
    9.1065  -17.5207   26.7375 N   0  0  0  0  0  0  0  0  0  0  0  0
    8.9511  -16.0452   26.7725 C   0  0  0  0  0  0  0  0  0  0  0  0
    9.4951  -17.9959   28.0772 O   0  0  0  0  0  0  0  0  0  0  0  0
    9.3758  -19.3365   28.4636 O   0  0  0  0  0  0  0  0  0  0  0  0
  2  1  1  0
  3  2  2  0
  4  2  1  0
  5  4  1  0
  6  5  1  0
  7  6  1  0
  8  7  1  0
  8  9  1  6
 10  8  1  0
 10 12  1  0
 11 10  2  0
 12 13  1  0
 13 14  1  0
 15 14  1  0
 16 12  1  0
 16 15  1  0
 16 17  1  1
 18 17  2  0
 19 20  1  0
 20 21  2  0
 23 22  1  6
 22 20  1  0
 23 24  1  0
 24 17  1  0
 25 23  1  0
 25 26  1  0
 27 25  2  0
M  END
$$$$
