RPN.pdb
     RDKit          3D

 27 27  0  0  1  0  0  0  0  0999 V2000
    7.1019  -20.3254   18.1765 N   0  0  0  0  0  0  0  0  0  0  0  0
    8.2042  -20.6465   17.3563 C   0  0  0  0  0  0  0  0  0  0  0  0
    8.3620  -21.9041   17.0272 N   0  0  0  0  0  0  0  0  0  0  0  0
    9.0952  -19.6465   16.9065 N   0  0  0  0  0  0  0  0  0  0  0  0
    8.7881  -18.2533   17.2911 C   0  0  0  0  0  0  0  0  0  0  0  0
    7.9259  -17.6801   16.2264 C   0  0  0  0  0  0  0  0  0  0  0  0
    7.3745  -16.3116   16.4381 C   0  0  0  0  0  0  0  0  0  0  0  0
    8.3647  -15.2268   16.1527 C   0  0  2  0  0  0  0  0  0  0  0  0
    9.2257  -15.6051   15.0505 N   0  0  0  0  0  0  0  0  0  0  0  0
    9.1712  -14.8848   17.3380 C   0  0  0  0  0  0  0  0  0  0  0  0
   10.4090  -15.2020   17.3559 O   0  0  0  0  0  0  0  0  0  0  0  0
    9.1278  -22.2187   16.4147 N   0  0  0  0  0  0  0  0  0  0  0  0
    8.6471  -14.2219   18.4619 C   0  0  0  0  0  0  0  0  0  0  0  0
    7.3051  -13.6821   18.5627 C   0  0  0  0  0  0  0  0  0  0  0  0
    7.5616  -12.4138   19.3940 C   0  0  0  0  0  0  0  0  0  0  0  0
    8.5384  -12.8942   20.4028 C   0  0  2  0  0  0  0  0  0  0  0  0
    9.3510  -13.9486   19.7017 C   0  0  0  0  0  0  0  0  0  0  0  0
    9.5212  -15.1646   20.5332 O   0  0  0  0  0  0  0  0  0  0  0  0
    9.0102  -16.2363   20.1190 N   0  0  0  0  0  0  0  0  0  0  0  0
   12.1666  -18.9023   22.6991 C   0  0  0  0  0  0  0  0  0  0  0  0
   12.3966  -18.2173   21.4777 O   0  0  0  0  0  0  0  0  0  0  0  0
   13.2050  -18.7085   20.6716 C   0  0  0  0  0  0  0  0  0  0  0  0
   11.6891  -16.9753   21.2071 C   0  0  1  0  0  0  0  0  0  0  0  0
   10.7555  -16.4908   22.2859 N   0  0  0  0  0  0  0  0  0  0  0  0
   10.2114  -15.2170   21.7530 C   0  0  0  0  0  0  0  0  0  0  0  0
   11.4041  -16.2319   23.5836 O   0  0  0  0  0  0  0  0  0  0  0  0
   11.3588  -17.1465   24.6428 O   0  0  0  0  0  0  0  0  0  0  0  0
  2  1  1  0
  3  2  2  0
  4  2  1  0
  5  4  1  0
  6  5  1  0
  7  6  1  0
  8  7  1  0
  8  9  1  6
 10  8  1  0
 10 12  1  0
 11 10  2  0
 12 13  1  0
 13 14  1  0
 15 14  1  0
 16 12  1  0
 16 15  1  0
 16 17  1  1
 18 17  2  0
 19 20  1  0
 20 21  2  0
 23 22  1  6
 22 20  1  0
 23 24  1  0
 24 17  1  0
 25 23  1  0
 25 26  1  0
 27 25  2  0
M  END
$$$$
