RPN.pdb
     RDKit          3D

 27 27  0  0  1  0  0  0  0  0999 V2000
    7.7089  -17.5295   15.6999 N   0  0  0  0  0  0  0  0  0  0  0  0
    7.5581  -16.3836   14.8904 C   0  0  0  0  0  0  0  0  0  0  0  0
    7.0569  -16.5558   13.6928 N   0  0  0  0  0  0  0  0  0  0  0  0
    7.9294  -15.1039   15.3602 N   0  0  0  0  0  0  0  0  0  0  0  0
    8.7708  -15.0539   16.5737 C   0  0  0  0  0  0  0  0  0  0  0  0
    7.8693  -15.2072   17.7439 C   0  0  0  0  0  0  0  0  0  0  0  0
    8.4920  -15.3095   19.0943 C   0  0  0  0  0  0  0  0  0  0  0  0
    8.6206  -13.9886   19.7853 C   0  0  2  0  0  0  0  0  0  0  0  0
    9.4648  -13.0960   19.0172 N   0  0  0  0  0  0  0  0  0  0  0  0
    9.1386  -14.1279   21.1581 C   0  0  0  0  0  0  0  0  0  0  0  0
   10.4009  -14.0740   21.3510 O   0  0  0  0  0  0  0  0  0  0  0  0
    6.9286  -15.7743   13.0346 N   0  0  0  0  0  0  0  0  0  0  0  0
    8.3110  -14.3191   22.2787 C   0  0  0  0  0  0  0  0  0  0  0  0
    6.8614  -14.3450   22.2517 C   0  0  0  0  0  0  0  0  0  0  0  0
    6.5317  -13.6607   23.5890 C   0  0  0  0  0  0  0  0  0  0  0  0
    7.5384  -14.2576   24.5015 C   0  0  2  0  0  0  0  0  0  0  0  0
    8.7525  -14.5071   23.6488 C   0  0  0  0  0  0  0  0  0  0  0  0
    9.3250  -15.8559   23.8764 O   0  0  0  0  0  0  0  0  0  0  0  0
    8.9882  -16.7779   23.0905 N   0  0  0  0  0  0  0  0  0  0  0  0
   12.6681  -19.5585   23.2366 C   0  0  0  0  0  0  0  0  0  0  0  0
   12.3712  -18.1713   23.2745 O   0  0  0  0  0  0  0  0  0  0  0  0
   12.3225  -17.5511   22.1986 C   0  0  0  0  0  0  0  0  0  0  0  0
   12.1355  -17.5224   24.5550 C   0  0  2  0  0  0  0  0  0  0  0  0
   10.7238  -17.5740   25.0791 N   0  0  0  0  0  0  0  0  0  0  0  0
   10.2187  -16.1894   24.9047 C   0  0  0  0  0  0  0  0  0  0  0  0
   10.6131  -17.9516   26.4992 O   0  0  0  0  0  0  0  0  0  0  0  0
   10.5729  -19.2860   26.9217 O   0  0  0  0  0  0  0  0  0  0  0  0
  2  1  1  0
  3  2  2  0
  4  2  1  0
  5  4  1  0
  6  5  1  0
  7  6  1  0
  8  7  1  0
  8  9  1  6
 10  8  1  0
 10 12  1  0
 11 10  2  0
 12 13  1  0
 13 14  1  0
 15 14  1  0
 16 12  1  0
 16 15  1  0
 16 17  1  1
 18 17  2  0
 19 20  1  0
 20 21  2  0
 23 22  1  6
 22 20  1  0
 23 24  1  0
 24 17  1  0
 25 23  1  0
 25 26  1  0
 27 25  2  0
M  END
$$$$
