RPN.pdb
     RDKit          3D

 27 27  0  0  1  0  0  0  0  0999 V2000
   11.7240  -17.9843   16.7730 N   0  0  0  0  0  0  0  0  0  0  0  0
   11.1624  -19.2774   16.7146 C   0  0  0  0  0  0  0  0  0  0  0  0
   11.6752  -20.1167   15.8501 N   0  0  0  0  0  0  0  0  0  0  0  0
   10.0936  -19.6480   17.5612 N   0  0  0  0  0  0  0  0  0  0  0  0
    9.0659  -18.6214   17.8311 C   0  0  0  0  0  0  0  0  0  0  0  0
    8.9656  -17.7666   16.6208 C   0  0  0  0  0  0  0  0  0  0  0  0
    7.9961  -16.6347   16.6457 C   0  0  0  0  0  0  0  0  0  0  0  0
    8.6488  -15.2966   16.4967 C   0  0  2  0  0  0  0  0  0  0  0  0
    9.6125  -15.3216   15.4150 N   0  0  0  0  0  0  0  0  0  0  0  0
    9.2924  -14.8503   17.7453 C   0  0  0  0  0  0  0  0  0  0  0  0
   10.5613  -14.9533   17.8577 O   0  0  0  0  0  0  0  0  0  0  0  0
   11.3040  -21.0690   15.7237 N   0  0  0  0  0  0  0  0  0  0  0  0
    8.5788  -14.3120   18.8308 C   0  0  0  0  0  0  0  0  0  0  0  0
    7.1535  -14.0454   18.8435 C   0  0  0  0  0  0  0  0  0  0  0  0
    7.1041  -12.7585   19.6843 C   0  0  0  0  0  0  0  0  0  0  0  0
    8.0900  -13.0475   20.7552 C   0  0  2  0  0  0  0  0  0  0  0  0
    9.1357  -13.9170   20.1119 C   0  0  0  0  0  0  0  0  0  0  0  0
    9.4872  -15.0833   20.9574 O   0  0  0  0  0  0  0  0  0  0  0  0
    8.8427  -16.1493   20.7859 N   0  0  0  0  0  0  0  0  0  0  0  0
   13.5910  -18.4537   22.9101 C   0  0  0  0  0  0  0  0  0  0  0  0
   12.9898  -17.3320   23.5381 O   0  0  0  0  0  0  0  0  0  0  0  0
   13.0262  -17.2633   24.7785 C   0  0  0  0  0  0  0  0  0  0  0  0
   12.3556  -16.3075   22.7229 C   0  0  1  0  0  0  0  0  0  0  0  0
   10.8501  -16.3353   22.6690 N   0  0  0  0  0  0  0  0  0  0  0  0
   10.4878  -15.0943   21.9402 C   0  0  0  0  0  0  0  0  0  0  0  0
   10.1917  -16.3291   23.9873 O   0  0  0  0  0  0  0  0  0  0  0  0
   10.0399  -17.4885   24.7577 O   0  0  0  0  0  0  0  0  0  0  0  0
  2  1  1  0
  3  2  2  0
  4  2  1  0
  5  4  1  0
  6  5  1  0
  7  6  1  0
  8  7  1  0
  8  9  1  6
 10  8  1  0
 10 12  1  0
 11 10  2  0
 12 13  1  0
 13 14  1  0
 15 14  1  0
 16 12  1  0
 16 15  1  0
 16 17  1  1
 18 17  2  0
 19 20  1  0
 20 21  2  0
 23 22  1  6
 22 20  1  0
 23 24  1  0
 24 17  1  0
 25 23  1  0
 25 26  1  0
 27 25  2  0
M  END
$$$$
