RPN.pdb
     RDKit          3D

 27 27  0  0  1  0  0  0  0  0999 V2000
   11.7692  -18.8775   17.3213 N   0  0  0  0  0  0  0  0  0  0  0  0
   10.7090  -19.5907   17.9197 C   0  0  0  0  0  0  0  0  0  0  0  0
   10.9831  -20.2826   18.9973 N   0  0  0  0  0  0  0  0  0  0  0  0
    9.4051  -19.5519   17.3770 N   0  0  0  0  0  0  0  0  0  0  0  0
    8.6152  -18.3268   17.6185 C   0  0  0  0  0  0  0  0  0  0  0  0
    8.3647  -17.6944   16.2983 C   0  0  0  0  0  0  0  0  0  0  0  0
    7.5847  -16.4245   16.2709 C   0  0  0  0  0  0  0  0  0  0  0  0
    8.4396  -15.2121   16.0765 C   0  0  2  0  0  0  0  0  0  0  0  0
    9.3647  -15.4159   14.9802 N   0  0  0  0  0  0  0  0  0  0  0  0
    9.1715  -14.8460   17.3024 C   0  0  0  0  0  0  0  0  0  0  0  0
   10.4265  -15.0790   17.3658 O   0  0  0  0  0  0  0  0  0  0  0  0
   10.2643  -20.8220   19.5001 N   0  0  0  0  0  0  0  0  0  0  0  0
    8.5575  -14.2484   18.4174 C   0  0  0  0  0  0  0  0  0  0  0  0
    7.1922  -13.7618   18.4582 C   0  0  0  0  0  0  0  0  0  0  0  0
    7.3509  -12.5198   19.3512 C   0  0  0  0  0  0  0  0  0  0  0  0
    8.2847  -13.0051   20.3976 C   0  0  2  0  0  0  0  0  0  0  0  0
    9.1768  -14.0003   19.7067 C   0  0  0  0  0  0  0  0  0  0  0  0
    9.3446  -15.2420   20.4997 O   0  0  0  0  0  0  0  0  0  0  0  0
    9.2288  -16.3419   19.9014 N   0  0  0  0  0  0  0  0  0  0  0  0
   11.9652  -18.4808   23.4827 C   0  0  0  0  0  0  0  0  0  0  0  0
   12.3275  -17.8123   22.2845 O   0  0  0  0  0  0  0  0  0  0  0  0
   13.3611  -18.1761   21.6980 C   0  0  0  0  0  0  0  0  0  0  0  0
   11.4901  -16.7337   21.7830 C   0  0  1  0  0  0  0  0  0  0  0  0
   10.1910  -16.5043   22.5109 N   0  0  0  0  0  0  0  0  0  0  0  0
    9.6246  -15.2898   21.8732 C   0  0  0  0  0  0  0  0  0  0  0  0
   10.3357  -16.2655   23.9578 O   0  0  0  0  0  0  0  0  0  0  0  0
   10.0618  -17.2512   24.9139 O   0  0  0  0  0  0  0  0  0  0  0  0
  2  1  1  0
  3  2  2  0
  4  2  1  0
  5  4  1  0
  6  5  1  0
  7  6  1  0
  8  7  1  0
  8  9  1  6
 10  8  1  0
 10 12  1  0
 11 10  2  0
 12 13  1  0
 13 14  1  0
 15 14  1  0
 16 12  1  0
 16 15  1  0
 16 17  1  1
 18 17  2  0
 19 20  1  0
 20 21  2  0
 23 22  1  6
 22 20  1  0
 23 24  1  0
 24 17  1  0
 25 23  1  0
 25 26  1  0
 27 25  2  0
M  END
$$$$
