RPN.pdb
     RDKit          3D

 27 27  0  0  1  0  0  0  0  0999 V2000
    7.4810  -21.9363   18.6501 N   0  0  0  0  0  0  0  0  0  0  0  0
    6.9926  -21.4439   17.4213 C   0  0  0  0  0  0  0  0  0  0  0  0
    7.0016  -22.2629   16.3996 N   0  0  0  0  0  0  0  0  0  0  0  0
    6.5093  -20.1213   17.3051 N   0  0  0  0  0  0  0  0  0  0  0  0
    6.7061  -19.2315   18.4682 C   0  0  0  0  0  0  0  0  0  0  0  0
    7.7348  -18.2294   18.0897 C   0  0  0  0  0  0  0  0  0  0  0  0
    7.2680  -16.9305   17.5269 C   0  0  0  0  0  0  0  0  0  0  0  0
    8.3827  -15.9675   17.2647 C   0  0  2  0  0  0  0  0  0  0  0  0
    9.3620  -16.5576   16.3747 N   0  0  0  0  0  0  0  0  0  0  0  0
    9.0296  -15.5142   18.5090 C   0  0  0  0  0  0  0  0  0  0  0  0
   10.2149  -15.9142   18.7707 O   0  0  0  0  0  0  0  0  0  0  0  0
    6.6882  -21.9738   15.4622 N   0  0  0  0  0  0  0  0  0  0  0  0
    8.4069  -14.6570   19.4336 C   0  0  0  0  0  0  0  0  0  0  0  0
    7.0360  -14.1922   19.3496 C   0  0  0  0  0  0  0  0  0  0  0  0
    7.1788  -12.7604   19.8927 C   0  0  0  0  0  0  0  0  0  0  0  0
    8.1164  -12.9493   21.0275 C   0  0  2  0  0  0  0  0  0  0  0  0
    9.0211  -14.0783   20.6148 C   0  0  0  0  0  0  0  0  0  0  0  0
    9.2020  -15.0720   21.7004 O   0  0  0  0  0  0  0  0  0  0  0  0
    8.2982  -15.9299   21.8688 N   0  0  0  0  0  0  0  0  0  0  0  0
   13.7517  -15.5838   22.4523 C   0  0  0  0  0  0  0  0  0  0  0  0
   12.7313  -16.5120   22.7854 O   0  0  0  0  0  0  0  0  0  0  0  0
   12.6058  -17.5264   22.0783 C   0  0  0  0  0  0  0  0  0  0  0  0
   11.8714  -16.2534   23.9300 C   0  0  2  0  0  0  0  0  0  0  0  0
   10.3960  -16.1438   23.6446 N   0  0  0  0  0  0  0  0  0  0  0  0
   10.3078  -15.1337   22.5610 C   0  0  0  0  0  0  0  0  0  0  0  0
    9.5845  -15.6940   24.7895 O   0  0  0  0  0  0  0  0  0  0  0  0
    9.0048  -14.4207   24.8465 O   0  0  0  0  0  0  0  0  0  0  0  0
  2  1  1  0
  3  2  2  0
  4  2  1  0
  5  4  1  0
  6  5  1  0
  7  6  1  0
  8  7  1  0
  8  9  1  6
 10  8  1  0
 10 12  1  0
 11 10  2  0
 12 13  1  0
 13 14  1  0
 15 14  1  0
 16 12  1  0
 16 15  1  0
 16 17  1  1
 18 17  2  0
 19 20  1  0
 20 21  2  0
 23 22  1  6
 22 20  1  0
 23 24  1  0
 24 17  1  0
 25 23  1  0
 25 26  1  0
 27 25  2  0
M  END
$$$$
