RPN.pdb
     RDKit          3D

 27 27  0  0  1  0  0  0  0  0999 V2000
    8.1271  -15.0028   16.1699 N   0  0  0  0  0  0  0  0  0  0  0  0
    7.9695  -14.1459   17.2797 C   0  0  0  0  0  0  0  0  0  0  0  0
    7.6710  -12.8945   17.0350 N   0  0  0  0  0  0  0  0  0  0  0  0
    8.1231  -14.6253   18.5999 N   0  0  0  0  0  0  0  0  0  0  0  0
    7.6798  -13.7344   19.6920 C   0  0  0  0  0  0  0  0  0  0  0  0
    6.7551  -14.5155   20.5525 C   0  0  0  0  0  0  0  0  0  0  0  0
    7.2255  -14.8962   21.9147 C   0  0  0  0  0  0  0  0  0  0  0  0
    8.4269  -14.1238   22.3604 C   0  0  2  0  0  0  0  0  0  0  0  0
    9.5629  -14.4213   21.5116 N   0  0  0  0  0  0  0  0  0  0  0  0
    8.7614  -14.3824   23.7723 C   0  0  0  0  0  0  0  0  0  0  0  0
    9.7542  -15.1399   24.0436 O   0  0  0  0  0  0  0  0  0  0  0  0
    7.4728  -12.2206   17.7880 N   0  0  0  0  0  0  0  0  0  0  0  0
    8.0397  -13.8355   24.8482 C   0  0  0  0  0  0  0  0  0  0  0  0
    6.8003  -13.0921   24.7305 C   0  0  0  0  0  0  0  0  0  0  0  0
    6.9794  -12.0466   25.8442 C   0  0  0  0  0  0  0  0  0  0  0  0
    7.5763  -12.8540   26.9370 C   0  0  1  0  0  0  0  0  0  0  0  0
    8.4088  -13.9024   26.2505 C   0  0  0  0  0  0  0  0  0  0  0  0
    8.1914  -15.2513   26.8268 O   0  0  0  0  0  0  0  0  0  0  0  0
    7.5064  -16.0708   26.1633 N   0  0  0  0  0  0  0  0  0  0  0  0
    9.6584  -18.5896   25.9017 C   0  0  0  0  0  0  0  0  0  0  0  0
   10.6423  -17.5737   26.0197 O   0  0  0  0  0  0  0  0  0  0  0  0
   11.4854  -17.4639   25.1132 C   0  0  0  0  0  0  0  0  0  0  0  0
   10.6368  -16.7008   27.1835 C   0  0  2  0  0  0  0  0  0  0  0  0
    9.5215  -16.9162   28.1735 N   0  0  0  0  0  0  0  0  0  0  0  0
    8.6918  -15.6909   28.0611 C   0  0  0  0  0  0  0  0  0  0  0  0
    9.9660  -17.0705   29.5699 O   0  0  0  0  0  0  0  0  0  0  0  0
    9.9336  -18.3006   30.2381 O   0  0  0  0  0  0  0  0  0  0  0  0
  2  1  1  0
  3  2  2  0
  4  2  1  0
  5  4  1  0
  6  5  1  0
  7  6  1  0
  8  7  1  0
  8  9  1  6
 10  8  1  0
 10 12  1  0
 11 10  2  0
 12 13  1  0
 13 14  1  0
 15 14  1  0
 16 12  1  0
 16 15  1  0
 16 17  1  6
 18 17  2  0
 19 20  1  0
 20 21  2  0
 23 22  1  6
 22 20  1  0
 23 24  1  0
 24 17  1  0
 25 23  1  0
 25 26  1  0
 27 25  2  0
M  END
$$$$
