RPN.pdb
     RDKit          3D

 27 27  0  0  1  0  0  0  0  0999 V2000
    8.5741  -16.5967   12.1364 N   0  0  0  0  0  0  0  0  0  0  0  0
    7.8092  -17.7728   12.2867 C   0  0  0  0  0  0  0  0  0  0  0  0
    7.7640  -18.5945   11.2680 N   0  0  0  0  0  0  0  0  0  0  0  0
    7.1261  -18.0503   13.4920 N   0  0  0  0  0  0  0  0  0  0  0  0
    7.2971  -17.0841   14.5967 C   0  0  0  0  0  0  0  0  0  0  0  0
    8.5804  -17.4060   15.2713 C   0  0  0  0  0  0  0  0  0  0  0  0
    8.7469  -16.9815   16.6905 C   0  0  0  0  0  0  0  0  0  0  0  0
    9.5959  -15.7591   16.8441 C   0  0  2  0  0  0  0  0  0  0  0  0
   10.8734  -15.9446   16.1859 N   0  0  0  0  0  0  0  0  0  0  0  0
    9.7969  -15.3964   18.2584 C   0  0  0  0  0  0  0  0  0  0  0  0
   10.8314  -15.8341   18.8679 O   0  0  0  0  0  0  0  0  0  0  0  0
    7.2836  -19.5040   11.3180 N   0  0  0  0  0  0  0  0  0  0  0  0
    8.9027  -14.5867   18.9811 C   0  0  0  0  0  0  0  0  0  0  0  0
    7.6917  -13.9958   18.4458 C   0  0  0  0  0  0  0  0  0  0  0  0
    7.6746  -12.6457   19.1823 C   0  0  0  0  0  0  0  0  0  0  0  0
    8.0926  -13.0327   20.5527 C   0  0  2  0  0  0  0  0  0  0  0  0
    9.0374  -14.1892   20.3708 C   0  0  0  0  0  0  0  0  0  0  0  0
    8.7427  -15.3013   21.3063 O   0  0  0  0  0  0  0  0  0  0  0  0
    8.0507  -16.2607   20.8797 N   0  0  0  0  0  0  0  0  0  0  0  0
   13.2553  -17.6225   23.0097 C   0  0  0  0  0  0  0  0  0  0  0  0
   11.9007  -17.9035   22.6936 O   0  0  0  0  0  0  0  0  0  0  0  0
   11.5149  -19.0833   22.7571 C   0  0  0  0  0  0  0  0  0  0  0  0
   11.0131  -16.8171   22.3086 C   0  0  2  0  0  0  0  0  0  0  0  0
    9.8101  -16.5952   23.1881 N   0  0  0  0  0  0  0  0  0  0  0  0
    9.1765  -15.3709   22.6382 C   0  0  0  0  0  0  0  0  0  0  0  0
   10.1258  -16.3765   24.6108 O   0  0  0  0  0  0  0  0  0  0  0  0
   10.5830  -15.1465   25.0994 O   0  0  0  0  0  0  0  0  0  0  0  0
  2  1  1  0
  3  2  2  0
  4  2  1  0
  5  4  1  0
  6  5  1  0
  7  6  1  0
  8  7  1  0
  8  9  1  1
 10  8  1  0
 10 12  1  0
 11 10  2  0
 12 13  1  0
 13 14  1  0
 15 14  1  0
 16 12  1  0
 16 15  1  0
 16 17  1  1
 18 17  2  0
 19 20  1  0
 20 21  2  0
 23 22  1  6
 22 20  1  0
 23 24  1  0
 24 17  1  0
 25 23  1  0
 25 26  1  0
 27 25  2  0
M  END
$$$$
