RPN.pdb
     RDKit          3D

 27 27  0  0  1  0  0  0  0  0999 V2000
    6.1174  -19.8565   14.4186 N   0  0  0  0  0  0  0  0  0  0  0  0
    7.1034  -19.7264   13.4178 C   0  0  0  0  0  0  0  0  0  0  0  0
    6.8985  -20.3546   12.2871 N   0  0  0  0  0  0  0  0  0  0  0  0
    8.2606  -18.9441   13.6303 N   0  0  0  0  0  0  0  0  0  0  0  0
    8.4516  -18.3846   14.9844 C   0  0  0  0  0  0  0  0  0  0  0  0
    7.6974  -17.1067   15.0456 C   0  0  0  0  0  0  0  0  0  0  0  0
    7.6456  -16.3903   16.3517 C   0  0  0  0  0  0  0  0  0  0  0  0
    8.4020  -15.0994   16.3460 C   0  0  2  0  0  0  0  0  0  0  0  0
    9.3414  -15.0685   15.2432 N   0  0  0  0  0  0  0  0  0  0  0  0
    9.1016  -14.8597   17.6210 C   0  0  0  0  0  0  0  0  0  0  0  0
   10.3510  -15.1167   17.6983 O   0  0  0  0  0  0  0  0  0  0  0  0
    7.5590  -20.2954   11.4993 N   0  0  0  0  0  0  0  0  0  0  0  0
    8.4621  -14.3586   18.7687 C   0  0  0  0  0  0  0  0  0  0  0  0
    7.0599  -13.9993   18.8539 C   0  0  0  0  0  0  0  0  0  0  0  0
    7.1268  -12.7792   19.7880 C   0  0  0  0  0  0  0  0  0  0  0  0
    8.1242  -13.2136   20.7976 C   0  0  2  0  0  0  0  0  0  0  0  0
    9.0859  -14.0997   20.0537 C   0  0  0  0  0  0  0  0  0  0  0  0
    9.3826  -15.3475   20.7979 O   0  0  0  0  0  0  0  0  0  0  0  0
    9.2787  -16.4386   20.1814 N   0  0  0  0  0  0  0  0  0  0  0  0
   12.0951  -18.5600   21.3709 C   0  0  0  0  0  0  0  0  0  0  0  0
   12.6228  -17.2615   21.1484 O   0  0  0  0  0  0  0  0  0  0  0  0
   13.6129  -17.1487   20.4057 C   0  0  0  0  0  0  0  0  0  0  0  0
   11.9983  -16.1137   21.7879 C   0  0  2  0  0  0  0  0  0  0  0  0
   10.7740  -16.3975   22.6190 N   0  0  0  0  0  0  0  0  0  0  0  0
    9.7730  -15.4103   22.1435 C   0  0  0  0  0  0  0  0  0  0  0  0
   10.9677  -16.2264   24.0697 O   0  0  0  0  0  0  0  0  0  0  0  0
   11.1367  -17.3109   24.9391 O   0  0  0  0  0  0  0  0  0  0  0  0
  2  1  1  0
  3  2  2  0
  4  2  1  0
  5  4  1  0
  6  5  1  0
  7  6  1  0
  8  7  1  0
  8  9  1  6
 10  8  1  0
 10 12  1  0
 11 10  2  0
 12 13  1  0
 13 14  1  0
 15 14  1  0
 16 12  1  0
 16 15  1  0
 16 17  1  1
 18 17  2  0
 19 20  1  0
 20 21  2  0
 23 22  1  6
 22 20  1  0
 23 24  1  0
 24 17  1  0
 25 23  1  0
 25 26  1  0
 27 25  2  0
M  END
$$$$
