RPN.pdb
     RDKit          3D

 27 27  0  0  1  0  0  0  0  0999 V2000
    5.5793  -20.5091   20.5125 N   0  0  0  0  0  0  0  0  0  0  0  0
    6.8555  -20.8879   20.0449 C   0  0  0  0  0  0  0  0  0  0  0  0
    7.4820  -21.8298   20.7047 N   0  0  0  0  0  0  0  0  0  0  0  0
    7.4272  -20.2762   18.9068 N   0  0  0  0  0  0  0  0  0  0  0  0
    6.7516  -19.0708   18.3837 C   0  0  0  0  0  0  0  0  0  0  0  0
    7.6458  -17.9141   18.6445 C   0  0  0  0  0  0  0  0  0  0  0  0
    8.8352  -17.7404   17.7631 C   0  0  0  0  0  0  0  0  0  0  0  0
    9.2880  -16.3182   17.6580 C   0  0  2  0  0  0  0  0  0  0  0  0
   10.4995  -16.2302   16.8683 N   0  0  0  0  0  0  0  0  0  0  0  0
    9.4934  -15.7013   18.9808 C   0  0  0  0  0  0  0  0  0  0  0  0
   10.5625  -15.9683   19.6280 O   0  0  0  0  0  0  0  0  0  0  0  0
    8.4131  -22.1690   20.4248 N   0  0  0  0  0  0  0  0  0  0  0  0
    8.5672  -14.8262   19.5754 C   0  0  0  0  0  0  0  0  0  0  0  0
    7.2623  -14.4979   19.0351 C   0  0  0  0  0  0  0  0  0  0  0  0
    7.1455  -13.0166   19.4320 C   0  0  0  0  0  0  0  0  0  0  0  0
    7.7007  -13.0177   20.8083 C   0  0  2  0  0  0  0  0  0  0  0  0
    8.7546  -14.0914   20.8133 C   0  0  0  0  0  0  0  0  0  0  0  0
    8.6542  -14.9644   22.0077 O   0  0  0  0  0  0  0  0  0  0  0  0
    8.0095  -16.0384   21.8985 N   0  0  0  0  0  0  0  0  0  0  0  0
    7.0039  -16.9650   26.5859 C   0  0  0  0  0  0  0  0  0  0  0  0
    7.3027  -17.1882   25.2166 O   0  0  0  0  0  0  0  0  0  0  0  0
    7.2508  -18.3529   24.7860 C   0  0  0  0  0  0  0  0  0  0  0  0
    7.6571  -16.0622   24.3665 C   0  0  1  0  0  0  0  0  0  0  0  0
    9.1007  -15.6316   24.3973 N   0  0  0  0  0  0  0  0  0  0  0  0
    9.2246  -14.6877   23.2589 C   0  0  0  0  0  0  0  0  0  0  0  0
   10.0689  -16.7284   24.2211 O   0  0  0  0  0  0  0  0  0  0  0  0
    9.6794  -18.0258   23.8664 O   0  0  0  0  0  0  0  0  0  0  0  0
  2  1  1  0
  3  2  2  0
  4  2  1  0
  5  4  1  0
  6  5  1  0
  7  6  1  0
  8  7  1  0
  8  9  1  6
 10  8  1  0
 10 12  1  0
 11 10  2  0
 12 13  1  0
 13 14  1  0
 15 14  1  0
 16 12  1  0
 16 15  1  0
 16 17  1  1
 18 17  2  0
 19 20  1  0
 20 21  2  0
 23 22  1  1
 22 20  1  0
 23 24  1  0
 24 17  1  0
 25 23  1  0
 25 26  1  0
 27 25  2  0
M  END
$$$$
