RPN.pdb
     RDKit          3D

 27 27  0  0  1  0  0  0  0  0999 V2000
    9.8518  -12.1387   19.7138 N   0  0  0  0  0  0  0  0  0  0  0  0
    8.5212  -12.5643   19.9113 C   0  0  0  0  0  0  0  0  0  0  0  0
    7.6975  -12.4504   18.8996 N   0  0  0  0  0  0  0  0  0  0  0  0
    8.1012  -13.0963   21.1510 N   0  0  0  0  0  0  0  0  0  0  0  0
    6.7057  -13.5740   21.2368 C   0  0  0  0  0  0  0  0  0  0  0  0
    6.7470  -15.0583   21.2639 C   0  0  0  0  0  0  0  0  0  0  0  0
    7.3312  -15.7606   20.0861 C   0  0  0  0  0  0  0  0  0  0  0  0
    7.2330  -17.2506   20.1802 C   0  0  2  0  0  0  0  0  0  0  0  0
    6.5966  -17.6380   21.4229 N   0  0  0  0  0  0  0  0  0  0  0  0
    8.5484  -17.9032   20.0537 C   0  0  0  0  0  0  0  0  0  0  0  0
    9.0632  -18.4608   21.0820 O   0  0  0  0  0  0  0  0  0  0  0  0
    7.9974  -12.0782   17.9875 N   0  0  0  0  0  0  0  0  0  0  0  0
    9.2754  -17.9459   18.8508 C   0  0  0  0  0  0  0  0  0  0  0  0
    8.8222  -17.4106   17.5817 C   0  0  0  0  0  0  0  0  0  0  0  0
    9.4001  -18.4476   16.6038 C   0  0  0  0  0  0  0  0  0  0  0  0
   10.7471  -18.6978   17.1744 C   0  0  2  0  0  0  0  0  0  0  0  0
   10.5867  -18.5393   18.6620 C   0  0  0  0  0  0  0  0  0  0  0  0
   11.6686  -17.7160   19.2540 O   0  0  0  0  0  0  0  0  0  0  0  0
   11.3905  -16.5389   19.5977 N   0  0  0  0  0  0  0  0  0  0  0  0
   14.5911  -13.7541   18.5234 C   0  0  0  0  0  0  0  0  0  0  0  0
   14.8055  -15.1007   18.9165 O   0  0  0  0  0  0  0  0  0  0  0  0
   15.9563  -15.5622   18.8296 C   0  0  0  0  0  0  0  0  0  0  0  0
   13.6869  -15.8932   19.4033 C   0  0  2  0  0  0  0  0  0  0  0  0
   14.0287  -17.2349   19.9976 N   0  0  0  0  0  0  0  0  0  0  0  0
   12.9867  -18.1469   19.4637 C   0  0  0  0  0  0  0  0  0  0  0  0
   13.9964  -17.2766   21.4703 O   0  0  0  0  0  0  0  0  0  0  0  0
   12.9013  -17.7775   22.1847 O   0  0  0  0  0  0  0  0  0  0  0  0
  2  1  1  0
  3  2  2  0
  4  2  1  0
  5  4  1  0
  6  5  1  0
  7  6  1  0
  8  7  1  0
  8  9  1  1
 10  8  1  0
 10 12  1  0
 11 10  2  0
 12 13  1  0
 13 14  1  0
 15 14  1  0
 16 12  1  0
 16 15  1  0
 16 17  1  6
 18 17  2  0
 19 20  1  0
 20 21  2  0
 23 22  1  6
 22 20  1  0
 23 24  1  0
 24 17  1  0
 25 23  1  0
 25 26  1  0
 27 25  2  0
M  END
$$$$
