EPG.pdb
     RDKit          3D

 21 21  0  0  1  0  0  0  0  0999 V2000
    8.7494  -14.8755   21.9169 N   0  0  0  0  0  0  0  0  0  0  0  0
    7.7217  -14.6190   22.9008 C   0  0  1  0  0  0  0  0  0  0  0  0
    6.7260  -15.7641   22.9445 C   0  0  0  0  0  0  0  0  0  0  0  0
    7.3570  -17.0784   23.2864 C   0  0  0  0  0  0  0  0  0  0  0  0
    6.4353  -18.2109   23.3312 C   0  0  0  0  0  0  0  0  0  0  0  0
    6.8296  -19.3461   23.6738 O   0  0  0  0  0  0  0  0  0  0  0  0
    8.3133  -14.3879   24.2319 C   0  0  0  0  0  0  0  0  0  0  0  0
    9.4521  -14.9263   24.4760 O   0  0  0  0  0  0  0  0  0  0  0  0
    5.0899  -18.0721   22.9963 O   0  0  0  0  0  0  0  0  0  0  0  0
    7.6646  -13.6103   25.2038 N   0  0  0  0  0  0  0  0  0  0  0  0
    6.4204  -12.9086   25.0865 C   0  0  0  0  0  0  0  0  0  0  0  0
    6.1760  -12.2403   26.4355 C   0  0  0  0  0  0  0  0  0  0  0  0
    7.4872  -12.2538   27.1481 C   0  0  0  0  0  0  0  0  0  0  0  0
    8.2213  -13.4081   26.5514 C   0  0  1  0  0  0  0  0  0  0  0  0
    7.9624  -14.6083   27.3417 C   0  0  0  0  0  0  0  0  0  0  0  0
    7.0454  -15.3934   26.9953 O   0  0  0  0  0  0  0  0  0  0  0  0
    8.7432  -14.9044   28.5118 N   0  0  0  0  0  0  0  0  0  0  0  0
    9.1432  -16.2624   28.7188 C   0  0  0  0  0  0  0  0  0  0  0  0
   10.5814  -16.4853   28.5834 C   0  0  0  0  0  0  0  0  0  0  0  0
   11.3254  -15.7595   27.6726 O   0  0  0  0  0  0  0  0  0  0  0  0
   11.1760  -17.3378   29.2874 O   0  0  0  0  0  0  0  0  0  0  0  0
  2  1  1  6
  3  2  1  0
  4  3  1  0
  4  5  1  0
  5  6  2  0
  7  2  1  0
  8  7  2  0
  9  5  1  0
 10 14  1  0
 10  7  1  0
 11 10  1  0
 12 11  1  0
 12 13  1  0
 13 14  1  0
 14 15  1  1
 15 17  1  0
 15 16  2  0
 17 18  1  0
 19 18  1  0
 19 20  1  0
 21 19  2  0
M  END
$$$$
