EPG.pdb
     RDKit          3D

 21 21  0  0  1  0  0  0  0  0999 V2000
    8.4872  -14.1863   21.2300 N   0  0  0  0  0  0  0  0  0  0  0  0
    7.5014  -14.0246   22.2751 C   0  0  1  0  0  0  0  0  0  0  0  0
    6.3500  -14.9942   22.0783 C   0  0  0  0  0  0  0  0  0  0  0  0
    6.7862  -16.4265   22.0519 C   0  0  0  0  0  0  0  0  0  0  0  0
    5.7024  -17.3981   21.9282 C   0  0  0  0  0  0  0  0  0  0  0  0
    5.0552  -17.5056   20.8647 O   0  0  0  0  0  0  0  0  0  0  0  0
    8.1120  -14.1994   23.6062 C   0  0  0  0  0  0  0  0  0  0  0  0
    9.2021  -14.8726   23.6746 O   0  0  0  0  0  0  0  0  0  0  0  0
    5.3494  -18.2377   22.9828 O   0  0  0  0  0  0  0  0  0  0  0  0
    7.5318  -13.6548   24.7624 N   0  0  0  0  0  0  0  0  0  0  0  0
    6.2666  -12.9930   24.8871 C   0  0  0  0  0  0  0  0  0  0  0  0
    6.1239  -12.6140   26.3576 C   0  0  0  0  0  0  0  0  0  0  0  0
    7.4914  -12.7164   26.9464 C   0  0  0  0  0  0  0  0  0  0  0  0
    8.1974  -13.7007   26.0745 C   0  0  1  0  0  0  0  0  0  0  0  0
    8.0344  -15.0424   26.6271 C   0  0  0  0  0  0  0  0  0  0  0  0
    6.9611  -15.6660   26.4360 O   0  0  0  0  0  0  0  0  0  0  0  0
    9.0861  -15.6604   27.3876 N   0  0  0  0  0  0  0  0  0  0  0  0
    9.0280  -17.0778   27.5741 C   0  0  0  0  0  0  0  0  0  0  0  0
   10.1206  -17.6161   28.3820 C   0  0  0  0  0  0  0  0  0  0  0  0
   10.1640  -18.9591   28.7052 O   0  0  0  0  0  0  0  0  0  0  0  0
   11.0440  -16.8764   28.8018 O   0  0  0  0  0  0  0  0  0  0  0  0
  2  1  1  6
  3  2  1  0
  4  3  1  0
  4  5  1  0
  5  6  2  0
  7  2  1  0
  8  7  2  0
  9  5  1  0
 10 14  1  0
 10  7  1  0
 11 10  1  0
 12 11  1  0
 12 13  1  0
 13 14  1  0
 14 15  1  1
 15 17  1  0
 15 16  2  0
 17 18  1  0
 19 18  1  0
 19 20  1  0
 21 19  2  0
M  END
$$$$
