EPG.pdb
     RDKit          3D

 21 21  0  0  1  0  0  0  0  0999 V2000
    7.2930  -17.6064   22.4012 N   0  0  0  0  0  0  0  0  0  0  0  0
    8.1031  -16.4143   22.5152 C   0  0  1  0  0  0  0  0  0  0  0  0
    9.2878  -16.6590   23.4322 C   0  0  0  0  0  0  0  0  0  0  0  0
    8.9649  -16.4453   24.8787 C   0  0  0  0  0  0  0  0  0  0  0  0
   10.0969  -16.5909   25.7905 C   0  0  0  0  0  0  0  0  0  0  0  0
    9.9190  -16.8761   26.9941 O   0  0  0  0  0  0  0  0  0  0  0  0
    8.5538  -15.9554   21.1879 C   0  0  0  0  0  0  0  0  0  0  0  0
    8.9474  -16.8477   20.3543 O   0  0  0  0  0  0  0  0  0  0  0  0
   11.4104  -16.4191   25.3584 O   0  0  0  0  0  0  0  0  0  0  0  0
    8.5568  -14.5961   20.8381 N   0  0  0  0  0  0  0  0  0  0  0  0
    8.0901  -13.4843   21.6128 C   0  0  0  0  0  0  0  0  0  0  0  0
    8.3390  -12.2386   20.7687 C   0  0  0  0  0  0  0  0  0  0  0  0
    8.5710  -12.7216   19.3758 C   0  0  0  0  0  0  0  0  0  0  0  0
    9.0745  -14.1162   19.5464 C   0  0  1  0  0  0  0  0  0  0  0  0
   10.5331  -14.1006   19.6117 C   0  0  0  0  0  0  0  0  0  0  0  0
   11.1027  -13.7888   20.6867 O   0  0  0  0  0  0  0  0  0  0  0  0
   11.3273  -14.4375   18.4619 N   0  0  0  0  0  0  0  0  0  0  0  0
   12.7500  -14.4403   18.6134 C   0  0  0  0  0  0  0  0  0  0  0  0
   13.4738  -14.8721   17.4193 C   0  0  0  0  0  0  0  0  0  0  0  0
   12.8933  -15.7459   16.5195 O   0  0  0  0  0  0  0  0  0  0  0  0
   14.6364  -14.4630   17.1805 O   0  0  0  0  0  0  0  0  0  0  0  0
  2  1  1  6
  3  2  1  0
  4  3  1  0
  4  5  1  0
  5  6  2  0
  7  2  1  0
  8  7  2  0
  9  5  1  0
 10 14  1  0
 10  7  1  0
 11 10  1  0
 12 11  1  0
 12 13  1  0
 13 14  1  0
 14 15  1  1
 15 17  1  0
 15 16  2  0
 17 18  1  0
 19 18  1  0
 19 20  1  0
 21 19  2  0
M  END
$$$$
