EPG.pdb
     RDKit          3D

 21 21  0  0  1  0  0  0  0  0999 V2000
    7.3491  -17.2238   22.3977 N   0  0  0  0  0  0  0  0  0  0  0  0
    7.8653  -15.8775   22.2922 C   0  0  1  0  0  0  0  0  0  0  0  0
    8.8198  -15.5800   23.4345 C   0  0  0  0  0  0  0  0  0  0  0  0
    9.9504  -16.5577   23.5249 C   0  0  0  0  0  0  0  0  0  0  0  0
   10.8965  -16.3065   24.6093 C   0  0  0  0  0  0  0  0  0  0  0  0
   11.9032  -15.5884   24.4292 O   0  0  0  0  0  0  0  0  0  0  0  0
    8.5249  -15.6672   20.9899 C   0  0  0  0  0  0  0  0  0  0  0  0
    9.0349  -16.6925   20.4113 O   0  0  0  0  0  0  0  0  0  0  0  0
   10.7161  -16.8533   25.8782 O   0  0  0  0  0  0  0  0  0  0  0  0
    8.5986  -14.3978   20.3955 N   0  0  0  0  0  0  0  0  0  0  0  0
    8.1660  -13.1433   20.9370 C   0  0  0  0  0  0  0  0  0  0  0  0
    8.4913  -12.0872   19.8857 C   0  0  0  0  0  0  0  0  0  0  0  0
    8.7326  -12.8295   18.6137 C   0  0  0  0  0  0  0  0  0  0  0  0
    9.1672  -14.1877   19.0541 C   0  0  1  0  0  0  0  0  0  0  0  0
   10.6231  -14.2201   19.1607 C   0  0  0  0  0  0  0  0  0  0  0  0
   11.1764  -13.8345   20.2202 O   0  0  0  0  0  0  0  0  0  0  0  0
   11.4330  -14.6877   18.0690 N   0  0  0  0  0  0  0  0  0  0  0  0
   12.8392  -14.8246   18.2946 C   0  0  0  0  0  0  0  0  0  0  0  0
   13.5889  -15.2681   17.1209 C   0  0  0  0  0  0  0  0  0  0  0  0
   13.6656  -16.6097   16.7980 O   0  0  0  0  0  0  0  0  0  0  0  0
   14.1802  -14.4463   16.3787 O   0  0  0  0  0  0  0  0  0  0  0  0
  2  1  1  6
  3  2  1  0
  4  3  1  0
  4  5  1  0
  5  6  2  0
  7  2  1  0
  8  7  2  0
  9  5  1  0
 10 14  1  0
 10  7  1  0
 11 10  1  0
 12 11  1  0
 12 13  1  0
 13 14  1  0
 14 15  1  1
 15 17  1  0
 15 16  2  0
 17 18  1  0
 19 18  1  0
 19 20  1  0
 21 19  2  0
M  END
$$$$
