EPG.pdb
     RDKit          3D

 21 21  0  0  1  0  0  0  0  0999 V2000
    8.9388  -15.4965   14.6495 N   0  0  0  0  0  0  0  0  0  0  0  0
    8.3641  -15.3858   15.9715 C   0  0  1  0  0  0  0  0  0  0  0  0
    7.8586  -16.7352   16.4491 C   0  0  0  0  0  0  0  0  0  0  0  0
    8.9409  -17.7650   16.5519 C   0  0  0  0  0  0  0  0  0  0  0  0
    8.5328  -19.0286   17.1609 C   0  0  0  0  0  0  0  0  0  0  0  0
    8.2611  -19.0959   18.3788 O   0  0  0  0  0  0  0  0  0  0  0  0
    9.3400  -14.8245   16.9243 C   0  0  0  0  0  0  0  0  0  0  0  0
   10.5842  -15.0331   16.6905 O   0  0  0  0  0  0  0  0  0  0  0  0
    8.4308  -20.2006   16.4142 O   0  0  0  0  0  0  0  0  0  0  0  0
    8.9352  -14.0881   18.0485 N   0  0  0  0  0  0  0  0  0  0  0  0
    7.6026  -13.8750   18.5310 C   0  0  0  0  0  0  0  0  0  0  0  0
    7.7326  -13.0177   19.7858 C   0  0  0  0  0  0  0  0  0  0  0  0
    9.1065  -12.4360   19.7495 C   0  0  0  0  0  0  0  0  0  0  0  0
    9.8951  -13.3996   18.9268 C   0  0  1  0  0  0  0  0  0  0  0  0
   10.5130  -14.3920   19.8017 C   0  0  0  0  0  0  0  0  0  0  0  0
    9.8155  -15.3248   20.2717 O   0  0  0  0  0  0  0  0  0  0  0  0
   11.9097  -14.3167   20.1331 N   0  0  0  0  0  0  0  0  0  0  0  0
   12.4669  -15.3789   20.9129 C   0  0  0  0  0  0  0  0  0  0  0  0
   13.9129  -15.2816   21.1024 C   0  0  0  0  0  0  0  0  0  0  0  0
   14.6787  -14.4707   20.2862 O   0  0  0  0  0  0  0  0  0  0  0  0
   14.4948  -15.9287   22.0071 O   0  0  0  0  0  0  0  0  0  0  0  0
  2  1  1  6
  3  2  1  0
  4  3  1  0
  4  5  1  0
  5  6  2  0
  7  2  1  0
  8  7  2  0
  9  5  1  0
 10 14  1  0
 10  7  1  0
 11 10  1  0
 12 11  1  0
 12 13  1  0
 13 14  1  0
 14 15  1  1
 15 17  1  0
 15 16  2  0
 17 18  1  0
 19 18  1  0
 19 20  1  0
 21 19  2  0
M  END
$$$$
