EPG.pdb
     RDKit          3D

 21 21  0  0  1  0  0  0  0  0999 V2000
    9.8186  -15.2623   15.5364 N   0  0  0  0  0  0  0  0  0  0  0  0
    8.7964  -15.1140   16.5480 C   0  0  1  0  0  0  0  0  0  0  0  0
    7.9104  -16.3457   16.5969 C   0  0  0  0  0  0  0  0  0  0  0  0
    8.6729  -17.6078   16.8579 C   0  0  0  0  0  0  0  0  0  0  0  0
    7.8522  -18.8111   16.9698 C   0  0  0  0  0  0  0  0  0  0  0  0
    6.8514  -18.8382   17.7177 O   0  0  0  0  0  0  0  0  0  0  0  0
    9.3973  -14.8480   17.8684 C   0  0  0  0  0  0  0  0  0  0  0  0
   10.6024  -15.2435   18.0619 O   0  0  0  0  0  0  0  0  0  0  0  0
    8.1499  -19.9683   16.2529 O   0  0  0  0  0  0  0  0  0  0  0  0
    8.6875  -14.1879   18.8836 N   0  0  0  0  0  0  0  0  0  0  0  0
    7.3218  -13.7534   18.8664 C   0  0  0  0  0  0  0  0  0  0  0  0
    7.0598  -13.1083   20.2235 C   0  0  0  0  0  0  0  0  0  0  0  0
    8.4011  -12.8378   20.8194 C   0  0  0  0  0  0  0  0  0  0  0  0
    9.3014  -13.8387   20.1751 C   0  0  1  0  0  0  0  0  0  0  0  0
    9.3567  -15.0427   20.9994 C   0  0  0  0  0  0  0  0  0  0  0  0
    8.7063  -16.0606   20.6554 O   0  0  0  0  0  0  0  0  0  0  0  0
   10.1459  -15.0797   22.2003 N   0  0  0  0  0  0  0  0  0  0  0  0
   10.6805  -16.3431   22.6066 C   0  0  0  0  0  0  0  0  0  0  0  0
   12.1247  -16.3326   22.8313 C   0  0  0  0  0  0  0  0  0  0  0  0
   12.9970  -16.0338   21.8018 O   0  0  0  0  0  0  0  0  0  0  0  0
   12.6088  -16.5935   23.9597 O   0  0  0  0  0  0  0  0  0  0  0  0
  2  1  1  6
  3  2  1  0
  4  3  1  0
  4  5  1  0
  5  6  2  0
  7  2  1  0
  8  7  2  0
  9  5  1  0
 10 14  1  0
 10  7  1  0
 11 10  1  0
 12 11  1  0
 12 13  1  0
 13 14  1  0
 14 15  1  1
 15 17  1  0
 15 16  2  0
 17 18  1  0
 19 18  1  0
 19 20  1  0
 21 19  2  0
M  END
$$$$
