EPG.pdb
     RDKit          3D

 21 21  0  0  1  0  0  0  0  0999 V2000
    9.3513  -15.5364   14.8333 N   0  0  0  0  0  0  0  0  0  0  0  0
    8.5552  -15.2339   16.0015 C   0  0  1  0  0  0  0  0  0  0  0  0
    7.6779  -16.4163   16.3712 C   0  0  0  0  0  0  0  0  0  0  0  0
    8.4610  -17.6542   16.6819 C   0  0  0  0  0  0  0  0  0  0  0  0
    7.6663  -18.7805   17.1656 C   0  0  0  0  0  0  0  0  0  0  0  0
    6.4200  -18.7092   17.2222 O   0  0  0  0  0  0  0  0  0  0  0  0
    9.4128  -14.8427   17.1360 C   0  0  0  0  0  0  0  0  0  0  0  0
   10.6239  -15.2662   17.1372 O   0  0  0  0  0  0  0  0  0  0  0  0
    8.2612  -19.9704   17.5802 O   0  0  0  0  0  0  0  0  0  0  0  0
    8.9335  -14.0378   18.1812 N   0  0  0  0  0  0  0  0  0  0  0  0
    7.5894  -13.5956   18.4094 C   0  0  0  0  0  0  0  0  0  0  0  0
    7.6231  -12.7618   19.6862 C   0  0  0  0  0  0  0  0  0  0  0  0
    9.0574  -12.4239   19.9225 C   0  0  0  0  0  0  0  0  0  0  0  0
    9.8125  -13.5156   19.2402 C   0  0  1  0  0  0  0  0  0  0  0  0
   10.0762  -14.5910   20.1919 C   0  0  0  0  0  0  0  0  0  0  0  0
    9.1287  -15.3120   20.5917 O   0  0  0  0  0  0  0  0  0  0  0  0
   11.4064  -14.8367   20.6783 N   0  0  0  0  0  0  0  0  0  0  0  0
   11.5757  -15.8575   21.6664 C   0  0  0  0  0  0  0  0  0  0  0  0
   12.9704  -16.1220   22.0145 C   0  0  0  0  0  0  0  0  0  0  0  0
   13.5841  -17.2977   21.6257 O   0  0  0  0  0  0  0  0  0  0  0  0
   13.6446  -15.2925   22.6727 O   0  0  0  0  0  0  0  0  0  0  0  0
  2  1  1  6
  3  2  1  0
  4  3  1  0
  4  5  1  0
  5  6  2  0
  7  2  1  0
  8  7  2  0
  9  5  1  0
 10 14  1  0
 10  7  1  0
 11 10  1  0
 12 11  1  0
 12 13  1  0
 13 14  1  0
 14 15  1  1
 15 17  1  0
 15 16  2  0
 17 18  1  0
 19 18  1  0
 19 20  1  0
 21 19  2  0
M  END
$$$$
