EPG.pdb
     RDKit          3D

 21 21  0  0  1  0  0  0  0  0999 V2000
    6.3004  -19.7224   22.4082 N   0  0  0  0  0  0  0  0  0  0  0  0
    6.5165  -18.6852   23.3919 C   0  0  1  0  0  0  0  0  0  0  0  0
    6.5333  -19.2718   24.7920 C   0  0  0  0  0  0  0  0  0  0  0  0
    7.8634  -19.1417   25.4674 C   0  0  0  0  0  0  0  0  0  0  0  0
    7.8089  -18.6731   26.8500 C   0  0  0  0  0  0  0  0  0  0  0  0
    7.2068  -19.3292   27.7267 O   0  0  0  0  0  0  0  0  0  0  0  0
    7.7653  -17.9504   23.1165 C   0  0  0  0  0  0  0  0  0  0  0  0
    8.8017  -18.6392   22.8042 O   0  0  0  0  0  0  0  0  0  0  0  0
    8.4212  -17.4850   27.2438 O   0  0  0  0  0  0  0  0  0  0  0  0
    7.8303  -16.5503   23.1903 N   0  0  0  0  0  0  0  0  0  0  0  0
    6.7950  -15.6379   23.5775 C   0  0  0  0  0  0  0  0  0  0  0  0
    7.4013  -14.2409   23.4947 C   0  0  0  0  0  0  0  0  0  0  0  0
    8.6422  -14.3757   22.6766 C   0  0  0  0  0  0  0  0  0  0  0  0
    9.0517  -15.7996   22.8565 C   0  0  1  0  0  0  0  0  0  0  0  0
    9.9762  -15.8998   23.9822 C   0  0  0  0  0  0  0  0  0  0  0  0
    9.5239  -16.0182   25.1479 O   0  0  0  0  0  0  0  0  0  0  0  0
   11.3983  -15.8650   23.7751 N   0  0  0  0  0  0  0  0  0  0  0  0
   11.9351  -16.6550   22.7098 C   0  0  0  0  0  0  0  0  0  0  0  0
   13.3952  -16.6498   22.6437 C   0  0  0  0  0  0  0  0  0  0  0  0
   14.1333  -17.6397   23.2644 O   0  0  0  0  0  0  0  0  0  0  0  0
   14.0146  -15.7503   22.0246 O   0  0  0  0  0  0  0  0  0  0  0  0
  2  1  1  6
  3  2  1  0
  4  3  1  0
  4  5  1  0
  5  6  2  0
  7  2  1  0
  8  7  2  0
  9  5  1  0
 10 14  1  0
 10  7  1  0
 11 10  1  0
 12 11  1  0
 12 13  1  0
 13 14  1  0
 14 15  1  1
 15 17  1  0
 15 16  2  0
 17 18  1  0
 19 18  1  0
 19 20  1  0
 21 19  2  0
M  END
$$$$
