EPG.pdb
     RDKit          3D

 21 21  0  0  1  0  0  0  0  0999 V2000
    8.3328  -14.5602   21.7733 N   0  0  0  0  0  0  0  0  0  0  0  0
    7.4307  -14.5162   22.9021 C   0  0  1  0  0  0  0  0  0  0  0  0
    6.7416  -15.8560   23.0881 C   0  0  0  0  0  0  0  0  0  0  0  0
    7.6968  -16.9731   23.3740 C   0  0  0  0  0  0  0  0  0  0  0  0
    7.1132  -18.1212   24.0634 C   0  0  0  0  0  0  0  0  0  0  0  0
    6.0140  -18.5948   23.7042 O   0  0  0  0  0  0  0  0  0  0  0  0
    8.1436  -14.1186   24.1306 C   0  0  0  0  0  0  0  0  0  0  0  0
    9.3928  -14.4004   24.2084 O   0  0  0  0  0  0  0  0  0  0  0  0
    7.7536  -18.7298   25.1410 O   0  0  0  0  0  0  0  0  0  0  0  0
    7.4909  -13.4565   25.1820 N   0  0  0  0  0  0  0  0  0  0  0  0
    6.0966  -13.1461   25.2992 C   0  0  0  0  0  0  0  0  0  0  0  0
    5.9261  -12.4363   26.6384 C   0  0  0  0  0  0  0  0  0  0  0  0
    7.2932  -12.0090   27.0577 C   0  0  0  0  0  0  0  0  0  0  0  0
    8.2079  -12.9680   26.3712 C   0  0  1  0  0  0  0  0  0  0  0  0
    8.4685  -14.1038   27.2509 C   0  0  0  0  0  0  0  0  0  0  0  0
    7.9164  -15.2078   27.0190 O   0  0  0  0  0  0  0  0  0  0  0  0
    9.3492  -13.9765   28.3799 N   0  0  0  0  0  0  0  0  0  0  0  0
   10.6620  -14.5338   28.2661 C   0  0  0  0  0  0  0  0  0  0  0  0
   10.7817  -15.8872   28.8047 C   0  0  0  0  0  0  0  0  0  0  0  0
   12.0157  -16.5021   28.9005 O   0  0  0  0  0  0  0  0  0  0  0  0
    9.7718  -16.5240   29.1927 O   0  0  0  0  0  0  0  0  0  0  0  0
  2  1  1  6
  3  2  1  0
  4  3  1  0
  4  5  1  0
  5  6  2  0
  7  2  1  0
  8  7  2  0
  9  5  1  0
 10 14  1  0
 10  7  1  0
 11 10  1  0
 12 11  1  0
 12 13  1  0
 13 14  1  0
 14 15  1  1
 15 17  1  0
 15 16  2  0
 17 18  1  0
 19 18  1  0
 19 20  1  0
 21 19  2  0
M  END
$$$$
