EPG.pdb
     RDKit          3D

 21 21  0  0  1  0  0  0  0  0999 V2000
    7.0550  -16.2823   24.1645 N   0  0  0  0  0  0  0  0  0  0  0  0
    7.4882  -15.1116   23.4352 C   0  0  1  0  0  0  0  0  0  0  0  0
    8.8384  -14.6363   23.9409 C   0  0  0  0  0  0  0  0  0  0  0  0
    9.3447  -15.4344   25.1023 C   0  0  0  0  0  0  0  0  0  0  0  0
   10.5091  -16.2687   24.8153 C   0  0  0  0  0  0  0  0  0  0  0  0
   11.4602  -15.8306   24.1335 O   0  0  0  0  0  0  0  0  0  0  0  0
    7.5371  -15.3823   21.9862 C   0  0  0  0  0  0  0  0  0  0  0  0
    7.3618  -16.5942   21.6033 O   0  0  0  0  0  0  0  0  0  0  0  0
   10.6053  -17.5765   25.2866 O   0  0  0  0  0  0  0  0  0  0  0  0
    7.7661  -14.3609   21.0512 N   0  0  0  0  0  0  0  0  0  0  0  0
    8.0379  -12.9767   21.3050 C   0  0  0  0  0  0  0  0  0  0  0  0
    8.2185  -12.3179   19.9413 C   0  0  0  0  0  0  0  0  0  0  0  0
    7.6462  -13.2683   18.9430 C   0  0  0  0  0  0  0  0  0  0  0  0
    7.7539  -14.6043   19.5995 C   0  0  1  0  0  0  0  0  0  0  0  0
    9.0206  -15.2274   19.2262 C   0  0  0  0  0  0  0  0  0  0  0  0
   10.0296  -15.0677   19.9567 O   0  0  0  0  0  0  0  0  0  0  0  0
    9.1292  -16.0219   18.0331 N   0  0  0  0  0  0  0  0  0  0  0  0
   10.0426  -17.1231   18.0478 C   0  0  0  0  0  0  0  0  0  0  0  0
   10.1364  -17.8343   16.7744 C   0  0  0  0  0  0  0  0  0  0  0  0
    9.1291  -18.6885   16.3671 O   0  0  0  0  0  0  0  0  0  0  0  0
   11.1295  -17.6888   16.0204 O   0  0  0  0  0  0  0  0  0  0  0  0
  2  1  1  1
  3  2  1  0
  4  3  1  0
  4  5  1  0
  5  6  2  0
  7  2  1  0
  8  7  2  0
  9  5  1  0
 10 14  1  0
 10  7  1  0
 11 10  1  0
 12 11  1  0
 12 13  1  0
 13 14  1  0
 14 15  1  6
 15 17  1  0
 15 16  2  0
 17 18  1  0
 19 18  1  0
 19 20  1  0
 21 19  2  0
M  END
$$$$
