EPG.pdb
     RDKit          3D

 21 21  0  0  1  0  0  0  0  0999 V2000
    8.4573  -14.9651   19.9874 N   0  0  0  0  0  0  0  0  0  0  0  0
    7.5551  -14.7358   21.0937 C   0  0  1  0  0  0  0  0  0  0  0  0
    6.3861  -15.7027   21.0390 C   0  0  0  0  0  0  0  0  0  0  0  0
    6.8123  -17.1369   20.9801 C   0  0  0  0  0  0  0  0  0  0  0  0
    5.7180  -18.1046   20.9697 C   0  0  0  0  0  0  0  0  0  0  0  0
    5.0648  -18.3236   19.9271 O   0  0  0  0  0  0  0  0  0  0  0  0
    8.2645  -14.8435   22.3823 C   0  0  0  0  0  0  0  0  0  0  0  0
    9.3661  -15.5011   22.3994 O   0  0  0  0  0  0  0  0  0  0  0  0
    5.3612  -18.8169   22.1129 O   0  0  0  0  0  0  0  0  0  0  0  0
    7.7633  -14.2534   23.5530 N   0  0  0  0  0  0  0  0  0  0  0  0
    6.5032  -13.5968   23.7407 C   0  0  0  0  0  0  0  0  0  0  0  0
    6.4629  -13.1549   25.1999 C   0  0  0  0  0  0  0  0  0  0  0  0
    7.8704  -13.2206   25.6917 C   0  0  0  0  0  0  0  0  0  0  0  0
    8.5224  -14.2365   24.8141 C   0  0  1  0  0  0  0  0  0  0  0  0
    8.4146  -15.5539   25.4344 C   0  0  0  0  0  0  0  0  0  0  0  0
    7.3675  -16.2296   25.2779 O   0  0  0  0  0  0  0  0  0  0  0  0
    9.4911  -16.0893   26.2224 N   0  0  0  0  0  0  0  0  0  0  0  0
   10.0777  -17.3230   25.7970 C   0  0  0  0  0  0  0  0  0  0  0  0
   11.1892  -17.7719   26.6332 C   0  0  0  0  0  0  0  0  0  0  0  0
   11.0158  -18.7915   27.5499 O   0  0  0  0  0  0  0  0  0  0  0  0
   12.3253  -17.2458   26.5415 O   0  0  0  0  0  0  0  0  0  0  0  0
  2  1  1  6
  3  2  1  0
  4  3  1  0
  4  5  1  0
  5  6  2  0
  7  2  1  0
  8  7  2  0
  9  5  1  0
 10 14  1  0
 10  7  1  0
 11 10  1  0
 12 11  1  0
 12 13  1  0
 13 14  1  0
 14 15  1  1
 15 17  1  0
 15 16  2  0
 17 18  1  0
 19 18  1  0
 19 20  1  0
 21 19  2  0
M  END
$$$$
