EPG.pdb
     RDKit          3D

 21 21  0  0  1  0  0  0  0  0999 V2000
    8.4721  -14.0243   21.3875 N   0  0  0  0  0  0  0  0  0  0  0  0
    7.5066  -14.1226   22.4591 C   0  0  1  0  0  0  0  0  0  0  0  0
    6.6572  -15.3708   22.3003 C   0  0  0  0  0  0  0  0  0  0  0  0
    6.6794  -15.9232   20.9087 C   0  0  0  0  0  0  0  0  0  0  0  0
    5.9565  -17.1805   20.7336 C   0  0  0  0  0  0  0  0  0  0  0  0
    5.8637  -17.7161   19.6084 O   0  0  0  0  0  0  0  0  0  0  0  0
    8.1757  -14.1078   23.7734 C   0  0  0  0  0  0  0  0  0  0  0  0
    9.3523  -14.6144   23.8454 O   0  0  0  0  0  0  0  0  0  0  0  0
    5.3461  -17.8282   21.8058 O   0  0  0  0  0  0  0  0  0  0  0  0
    7.5588  -13.5630   24.9104 N   0  0  0  0  0  0  0  0  0  0  0  0
    6.2612  -12.9622   25.0079 C   0  0  0  0  0  0  0  0  0  0  0  0
    6.0867  -12.5527   26.4668 C   0  0  0  0  0  0  0  0  0  0  0  0
    7.4523  -12.5713   27.0685 C   0  0  0  0  0  0  0  0  0  0  0  0
    8.2141  -13.5415   26.2283 C   0  0  1  0  0  0  0  0  0  0  0  0
    8.1132  -14.8748   26.8149 C   0  0  0  0  0  0  0  0  0  0  0  0
    7.0457  -15.5257   26.6960 O   0  0  0  0  0  0  0  0  0  0  0  0
    9.2194  -15.4537   27.5272 N   0  0  0  0  0  0  0  0  0  0  0  0
    9.1661  -16.8543   27.8146 C   0  0  0  0  0  0  0  0  0  0  0  0
   10.3355  -17.3585   28.5319 C   0  0  0  0  0  0  0  0  0  0  0  0
   11.0538  -18.4335   28.0434 O   0  0  0  0  0  0  0  0  0  0  0  0
   10.7167  -16.8313   29.6055 O   0  0  0  0  0  0  0  0  0  0  0  0
  2  1  1  6
  3  2  1  0
  4  3  1  0
  4  5  1  0
  5  6  2  0
  7  2  1  0
  8  7  2  0
  9  5  1  0
 10 14  1  0
 10  7  1  0
 11 10  1  0
 12 11  1  0
 12 13  1  0
 13 14  1  0
 14 15  1  1
 15 17  1  0
 15 16  2  0
 17 18  1  0
 19 18  1  0
 19 20  1  0
 21 19  2  0
M  END
$$$$
