EPG.pdb
     RDKit          3D

 21 21  0  0  1  0  0  0  0  0999 V2000
    6.4536  -16.8250   23.3727 N   0  0  0  0  0  0  0  0  0  0  0  0
    7.0053  -15.5704   22.9127 C   0  0  1  0  0  0  0  0  0  0  0  0
    8.2449  -15.2073   23.7102 C   0  0  0  0  0  0  0  0  0  0  0  0
    9.2912  -16.2783   23.6895 C   0  0  0  0  0  0  0  0  0  0  0  0
   10.5533  -15.9188   24.3314 C   0  0  0  0  0  0  0  0  0  0  0  0
   11.5512  -16.6664   24.2485 O   0  0  0  0  0  0  0  0  0  0  0  0
    7.3078  -15.6257   21.4702 C   0  0  0  0  0  0  0  0  0  0  0  0
    7.2835  -16.7764   20.9032 O   0  0  0  0  0  0  0  0  0  0  0  0
   10.6942  -14.7372   25.0562 O   0  0  0  0  0  0  0  0  0  0  0  0
    7.6126  -14.4700   20.7344 N   0  0  0  0  0  0  0  0  0  0  0  0
    7.6763  -13.1169   21.2027 C   0  0  0  0  0  0  0  0  0  0  0  0
    8.0609  -12.2638   19.9982 C   0  0  0  0  0  0  0  0  0  0  0  0
    7.8108  -13.1100   18.7945 C   0  0  0  0  0  0  0  0  0  0  0  0
    7.9246  -14.5109   19.2964 C   0  0  1  0  0  0  0  0  0  0  0  0
    9.3003  -14.9732   19.1364 C   0  0  0  0  0  0  0  0  0  0  0  0
   10.1938  -14.5400   19.9055 O   0  0  0  0  0  0  0  0  0  0  0  0
    9.6470  -15.9182   18.1102 N   0  0  0  0  0  0  0  0  0  0  0  0
   11.0136  -16.3326   18.0212 C   0  0  0  0  0  0  0  0  0  0  0  0
   11.2816  -17.2656   16.9286 C   0  0  0  0  0  0  0  0  0  0  0  0
   11.6867  -16.8047   15.6903 O   0  0  0  0  0  0  0  0  0  0  0  0
   11.1515  -18.5043   17.0851 O   0  0  0  0  0  0  0  0  0  0  0  0
  2  1  1  1
  3  2  1  0
  4  3  1  0
  4  5  1  0
  5  6  2  0
  7  2  1  0
  8  7  2  0
  9  5  1  0
 10 14  1  0
 10  7  1  0
 11 10  1  0
 12 11  1  0
 12 13  1  0
 13 14  1  0
 14 15  1  1
 15 17  1  0
 15 16  2  0
 17 18  1  0
 19 18  1  0
 19 20  1  0
 21 19  2  0
M  END
$$$$
