EPG.pdb
     RDKit          3D

 21 21  0  0  1  0  0  0  0  0999 V2000
    9.2019  -15.8109   15.0299 N   0  0  0  0  0  0  0  0  0  0  0  0
    8.4890  -15.4610   16.2380 C   0  0  1  0  0  0  0  0  0  0  0  0
    7.7057  -16.6519   16.7602 C   0  0  0  0  0  0  0  0  0  0  0  0
    8.5772  -17.8128   17.1274 C   0  0  0  0  0  0  0  0  0  0  0  0
    7.8625  -18.9875   17.6208 C   0  0  0  0  0  0  0  0  0  0  0  0
    8.4825  -20.0083   17.9885 O   0  0  0  0  0  0  0  0  0  0  0  0
    9.4149  -14.9510   17.2666 C   0  0  0  0  0  0  0  0  0  0  0  0
   10.6414  -15.3209   17.1960 O   0  0  0  0  0  0  0  0  0  0  0  0
    6.4717  -19.0170   17.7007 O   0  0  0  0  0  0  0  0  0  0  0  0
    8.9825  -14.0927   18.2895 N   0  0  0  0  0  0  0  0  0  0  0  0
    7.6439  -13.6717   18.5814 C   0  0  0  0  0  0  0  0  0  0  0  0
    7.7378  -12.7563   19.7978 C   0  0  0  0  0  0  0  0  0  0  0  0
    9.1738  -12.3666   19.9131 C   0  0  0  0  0  0  0  0  0  0  0  0
    9.9142  -13.4803   19.2506 C   0  0  1  0  0  0  0  0  0  0  0  0
   10.2736  -14.4845   20.2477 C   0  0  0  0  0  0  0  0  0  0  0  0
    9.4143  -15.3188   20.6258 O   0  0  0  0  0  0  0  0  0  0  0  0
   11.5985  -14.5319   20.8035 N   0  0  0  0  0  0  0  0  0  0  0  0
   11.9011  -15.5944   21.7127 C   0  0  0  0  0  0  0  0  0  0  0  0
   13.3090  -15.6629   22.0991 C   0  0  0  0  0  0  0  0  0  0  0  0
   13.7224  -16.5057   23.1134 O   0  0  0  0  0  0  0  0  0  0  0  0
   14.1760  -14.9614   21.5228 O   0  0  0  0  0  0  0  0  0  0  0  0
  2  1  1  6
  3  2  1  0
  4  3  1  0
  4  5  1  0
  5  6  2  0
  7  2  1  0
  8  7  2  0
  9  5  1  0
 10 14  1  0
 10  7  1  0
 11 10  1  0
 12 11  1  0
 12 13  1  0
 13 14  1  0
 14 15  1  1
 15 17  1  0
 15 16  2  0
 17 18  1  0
 19 18  1  0
 19 20  1  0
 21 19  2  0
M  END
$$$$
