EPG.pdb
     RDKit          3D

 21 21  0  0  1  0  0  0  0  0999 V2000
    7.3466  -17.4212   21.9471 N   0  0  0  0  0  0  0  0  0  0  0  0
    7.6757  -16.0148   22.0083 C   0  0  1  0  0  0  0  0  0  0  0  0
    8.3239  -15.6750   23.3383 C   0  0  0  0  0  0  0  0  0  0  0  0
    9.6492  -16.3441   23.5338 C   0  0  0  0  0  0  0  0  0  0  0  0
   10.3018  -16.0572   24.8089 C   0  0  0  0  0  0  0  0  0  0  0  0
    9.7546  -15.3228   25.6590 O   0  0  0  0  0  0  0  0  0  0  0  0
    8.5508  -15.6296   20.8853 C   0  0  0  0  0  0  0  0  0  0  0  0
    9.2994  -16.5397   20.3779 O   0  0  0  0  0  0  0  0  0  0  0  0
   11.5511  -16.5867   25.1261 O   0  0  0  0  0  0  0  0  0  0  0  0
    8.5729  -14.3197   20.3816 N   0  0  0  0  0  0  0  0  0  0  0  0
    7.9675  -13.1480   20.9428 C   0  0  0  0  0  0  0  0  0  0  0  0
    8.3100  -11.9963   20.0032 C   0  0  0  0  0  0  0  0  0  0  0  0
    8.7609  -12.6236   18.7263 C   0  0  0  0  0  0  0  0  0  0  0  0
    9.2672  -13.9675   19.1323 C   0  0  1  0  0  0  0  0  0  0  0  0
   10.6985  -13.8834   19.4086 C   0  0  0  0  0  0  0  0  0  0  0  0
   11.0918  -13.6412   20.5766 O   0  0  0  0  0  0  0  0  0  0  0  0
   11.6651  -14.0741   18.3618 N   0  0  0  0  0  0  0  0  0  0  0  0
   13.0496  -13.9735   18.7080 C   0  0  0  0  0  0  0  0  0  0  0  0
   13.8261  -15.1746   18.4069 C   0  0  0  0  0  0  0  0  0  0  0  0
   14.3693  -15.9371   19.4236 O   0  0  0  0  0  0  0  0  0  0  0  0
   14.0193  -15.5438   17.2227 O   0  0  0  0  0  0  0  0  0  0  0  0
  2  1  1  1
  3  2  1  0
  4  3  1  0
  4  5  1  0
  5  6  2  0
  7  2  1  0
  8  7  2  0
  9  5  1  0
 10 14  1  0
 10  7  1  0
 11 10  1  0
 12 11  1  0
 12 13  1  0
 13 14  1  0
 14 15  1  1
 15 17  1  0
 15 16  2  0
 17 18  1  0
 19 18  1  0
 19 20  1  0
 21 19  2  0
M  END
$$$$
