WHG.pdb
     RDKit          3D

 29 31  0  0  1  0  0  0  0  0999 V2000
   23.8434  -14.3774  -18.4645 N   0  0  0  0  0  0  0  0  0  0  0  0
   22.7840  -13.7885  -17.6926 C   0  0  1  0  0  0  0  0  0  0  0  0
   22.9571  -14.3001  -16.2623 C   0  0  0  0  0  0  0  0  0  0  0  0
   22.3146  -15.6204  -16.1178 C   0  0  0  0  0  0  0  0  0  0  0  0
   22.9585  -16.8548  -16.1728 C   0  0  0  0  0  0  0  0  0  0  0  0
   22.0588  -17.8351  -16.0017 N   0  0  0  0  0  0  0  0  0  0  0  0
   20.8390  -17.2828  -15.8353 C   0  0  0  0  0  0  0  0  0  0  0  0
   19.5864  -17.8622  -15.6247 C   0  0  0  0  0  0  0  0  0  0  0  0
   18.4633  -17.0752  -15.4815 C   0  0  0  0  0  0  0  0  0  0  0  0
   18.6394  -15.7117  -15.5558 C   0  0  0  0  0  0  0  0  0  0  0  0
   19.8659  -15.1183  -15.7628 C   0  0  0  0  0  0  0  0  0  0  0  0
   20.9902  -15.9043  -15.9063 C   0  0  0  0  0  0  0  0  0  0  0  0
   22.9163  -12.3048  -17.6599 C   0  0  0  0  0  0  0  0  0  0  0  0
   24.0450  -11.7600  -17.7605 O   0  0  0  0  0  0  0  0  0  0  0  0
   21.7908  -11.4861  -17.5172 N   0  0  0  0  0  0  0  0  0  0  0  0
   21.8747  -10.0113  -17.5449 C   0  0  1  0  0  0  0  0  0  0  0  0
   21.0129   -9.4605  -18.6294 C   0  0  0  0  0  0  0  0  0  0  0  0
   21.4305   -9.7920  -19.9993 C   0  0  0  0  0  0  0  0  0  0  0  0
   22.7163  -10.2341  -20.3345 C   0  0  0  0  0  0  0  0  0  0  0  0
   22.7542  -10.4404  -21.6417 N   0  0  0  0  0  0  0  0  0  0  0  0
   21.5653  -10.1572  -22.1746 C   0  0  0  0  0  0  0  0  0  0  0  0
   20.7833   -9.7687  -21.1677 N   0  0  0  0  0  0  0  0  0  0  0  0
   21.5373   -9.5360  -16.1794 C   0  0  0  0  0  0  0  0  0  0  0  0
   20.6649  -10.0644  -15.4539 O   0  0  0  0  0  0  0  0  0  0  0  0
   22.2053   -8.4081  -15.5796 N   0  0  0  0  0  0  0  0  0  0  0  0
   21.9729   -8.0130  -14.2190 C   0  0  0  0  0  0  0  0  0  0  0  0
   20.6731   -7.3304  -14.0357 C   0  0  0  0  0  0  0  0  0  0  0  0
   20.2799   -6.9668  -12.9066 O   0  0  0  0  0  0  0  0  0  0  0  0
   19.8574   -7.0784  -15.1261 O   0  0  0  0  0  0  0  0  0  0  0  0
  2 13  1  0
  2  1  1  6
  3  4  1  0
  3  2  1  0
  4  5  2  0
  5  6  1  0
  7  6  1  0
  8  7  2  0
  9  8  1  0
 10 11  1  0
 10  9  2  0
 11 12  2  0
 12  4  1  0
 12  7  1  0
 13 14  2  0
 15 16  1  0
 15 13  1  0
 16 17  1  6
 18 22  1  0
 18 17  1  0
 19 18  2  0
 20 19  1  0
 20 21  1  0
 21 22  2  0
 23 24  2  0
 23 16  1  0
 25 23  1  0
 26 25  1  0
 27 26  1  0
 27 29  1  0
 28 27  2  0
M  END
$$$$
