WHG.pdb
     RDKit          3D

 29 31  0  0  1  0  0  0  0  0999 V2000
   28.0085  -21.7388  -10.4149 N   0  0  0  0  0  0  0  0  0  0  0  0
   26.8152  -21.1003   -9.9319 C   0  0  1  0  0  0  0  0  0  0  0  0
   27.2625  -19.8001   -9.2634 C   0  0  0  0  0  0  0  0  0  0  0  0
   28.2439  -20.0911   -8.2008 C   0  0  0  0  0  0  0  0  0  0  0  0
   29.5309  -20.5907   -8.3894 C   0  0  0  0  0  0  0  0  0  0  0  0
   30.1339  -20.7302   -7.1992 N   0  0  0  0  0  0  0  0  0  0  0  0
   29.2813  -20.3369   -6.2300 C   0  0  0  0  0  0  0  0  0  0  0  0
   29.4236  -20.2883   -4.8421 C   0  0  0  0  0  0  0  0  0  0  0  0
   28.3914  -19.8402   -4.0452 C   0  0  0  0  0  0  0  0  0  0  0  0
   27.2333  -19.4501   -4.6796 C   0  0  0  0  0  0  0  0  0  0  0  0
   27.0709  -19.4896   -6.0475 C   0  0  0  0  0  0  0  0  0  0  0  0
   28.1026  -19.9376   -6.8459 C   0  0  0  0  0  0  0  0  0  0  0  0
   25.9147  -20.7393  -11.0626 C   0  0  0  0  0  0  0  0  0  0  0  0
   26.2885  -19.9246  -11.9442 O   0  0  0  0  0  0  0  0  0  0  0  0
   24.6362  -21.2972  -11.1692 N   0  0  0  0  0  0  0  0  0  0  0  0
   23.7351  -21.0038  -12.3027 C   0  0  1  0  0  0  0  0  0  0  0  0
   23.5080  -22.2304  -13.1190 C   0  0  0  0  0  0  0  0  0  0  0  0
   24.6427  -22.6554  -13.9515 C   0  0  0  0  0  0  0  0  0  0  0  0
   25.8140  -21.9046  -14.1110 C   0  0  0  0  0  0  0  0  0  0  0  0
   26.6244  -22.5707  -14.9189 N   0  0  0  0  0  0  0  0  0  0  0  0
   26.0453  -23.7119  -15.2930 C   0  0  0  0  0  0  0  0  0  0  0  0
   24.8527  -23.7425  -14.6989 N   0  0  0  0  0  0  0  0  0  0  0  0
   22.5055  -20.4009  -11.7293 C   0  0  0  0  0  0  0  0  0  0  0  0
   22.0457  -20.6950  -10.6030 O   0  0  0  0  0  0  0  0  0  0  0  0
   21.7378  -19.4125  -12.4448 N   0  0  0  0  0  0  0  0  0  0  0  0
   20.5691  -18.7951  -11.8842 C   0  0  0  0  0  0  0  0  0  0  0  0
   19.3353  -19.5720  -12.1358 C   0  0  0  0  0  0  0  0  0  0  0  0
   19.3597  -20.6499  -12.7677 O   0  0  0  0  0  0  0  0  0  0  0  0
   18.1146  -19.1132  -11.6697 O   0  0  0  0  0  0  0  0  0  0  0  0
  2 13  1  0
  2  1  1  6
  3  4  1  0
  3  2  1  0
  4  5  2  0
  5  6  1  0
  7  6  1  0
  8  7  2  0
  9  8  1  0
 10 11  1  0
 10  9  2  0
 11 12  2  0
 12  4  1  0
 12  7  1  0
 13 14  2  0
 15 16  1  0
 15 13  1  0
 16 17  1  1
 18 22  1  0
 18 17  1  0
 19 18  2  0
 20 19  1  0
 20 21  1  0
 21 22  2  0
 23 24  2  0
 23 16  1  0
 25 23  1  0
 26 25  1  0
 27 26  1  0
 27 29  1  0
 28 27  2  0
M  END
$$$$
