WHG.pdb
     RDKit          3D

 29 31  0  0  1  0  0  0  0  0999 V2000
   24.8220  -15.8670  -19.7014 N   0  0  0  0  0  0  0  0  0  0  0  0
   25.2928  -16.2570  -18.4010 C   0  0  1  0  0  0  0  0  0  0  0  0
   24.9135  -15.1237  -17.4475 C   0  0  0  0  0  0  0  0  0  0  0  0
   25.7378  -13.9323  -17.7271 C   0  0  0  0  0  0  0  0  0  0  0  0
   25.2631  -12.6398  -17.9399 C   0  0  0  0  0  0  0  0  0  0  0  0
   26.2978  -11.8161  -18.1646 N   0  0  0  0  0  0  0  0  0  0  0  0
   27.4424  -12.5283  -18.1063 C   0  0  0  0  0  0  0  0  0  0  0  0
   28.7750  -12.1451  -18.2679 C   0  0  0  0  0  0  0  0  0  0  0  0
   29.7905  -13.0716  -18.1607 C   0  0  0  0  0  0  0  0  0  0  0  0
   29.4271  -14.3719  -17.8906 C   0  0  0  0  0  0  0  0  0  0  0  0
   28.1187  -14.7724  -17.7272 C   0  0  0  0  0  0  0  0  0  0  0  0
   27.1018  -13.8467  -17.8342 C   0  0  0  0  0  0  0  0  0  0  0  0
   24.5976  -17.4898  -17.9354 C   0  0  0  0  0  0  0  0  0  0  0  0
   23.4444  -17.7702  -18.3505 O   0  0  0  0  0  0  0  0  0  0  0  0
   25.2103  -18.3612  -17.0285 N   0  0  0  0  0  0  0  0  0  0  0  0
   24.6264  -19.6696  -16.6683 C   0  0  1  0  0  0  0  0  0  0  0  0
   25.7034  -20.6648  -16.3997 C   0  0  0  0  0  0  0  0  0  0  0  0
   25.2431  -22.0070  -16.0152 C   0  0  0  0  0  0  0  0  0  0  0  0
   23.8942  -22.3547  -15.8717 C   0  0  0  0  0  0  0  0  0  0  0  0
   23.8317  -23.6295  -15.5199 N   0  0  0  0  0  0  0  0  0  0  0  0
   25.0643  -24.1295  -15.4269 C   0  0  0  0  0  0  0  0  0  0  0  0
   25.8987  -23.1353  -15.7293 N   0  0  0  0  0  0  0  0  0  0  0  0
   23.7026  -19.4296  -15.5311 C   0  0  0  0  0  0  0  0  0  0  0  0
   24.0341  -18.8424  -14.4766 O   0  0  0  0  0  0  0  0  0  0  0  0
   22.3288  -19.8653  -15.5617 N   0  0  0  0  0  0  0  0  0  0  0  0
   21.4075  -19.5744  -14.4996 C   0  0  0  0  0  0  0  0  0  0  0  0
   21.3631  -20.6392  -13.4733 C   0  0  0  0  0  0  0  0  0  0  0  0
   22.1209  -21.6314  -13.5285 O   0  0  0  0  0  0  0  0  0  0  0  0
   20.4694  -20.5552  -12.4189 O   0  0  0  0  0  0  0  0  0  0  0  0
  2 13  1  0
  2  1  1  6
  3  4  1  0
  3  2  1  0
  4  5  2  0
  5  6  1  0
  7  6  1  0
  8  7  2  0
  9  8  1  0
 10 11  1  0
 10  9  2  0
 11 12  2  0
 12  4  1  0
 12  7  1  0
 13 14  2  0
 15 16  1  0
 15 13  1  0
 16 17  1  1
 18 22  1  0
 18 17  1  0
 19 18  2  0
 20 19  1  0
 20 21  1  0
 21 22  2  0
 23 24  2  0
 23 16  1  0
 25 23  1  0
 26 25  1  0
 27 26  1  0
 27 29  1  0
 28 27  2  0
M  END
$$$$
