WHG.pdb
     RDKit          3D

 29 31  0  0  1  0  0  0  0  0999 V2000
   27.9971  -21.3900  -10.8220 N   0  0  0  0  0  0  0  0  0  0  0  0
   26.7800  -21.0239  -10.1515 C   0  0  1  0  0  0  0  0  0  0  0  0
   27.1267  -19.8450   -9.2420 C   0  0  0  0  0  0  0  0  0  0  0  0
   28.1676  -20.2431   -8.2751 C   0  0  0  0  0  0  0  0  0  0  0  0
   29.4003  -20.8126   -8.5873 C   0  0  0  0  0  0  0  0  0  0  0  0
   30.0848  -21.0419   -7.4566 N   0  0  0  0  0  0  0  0  0  0  0  0
   29.3388  -20.6398   -6.4065 C   0  0  0  0  0  0  0  0  0  0  0  0
   29.5928  -20.6617   -5.0340 C   0  0  0  0  0  0  0  0  0  0  0  0
   28.6580  -20.1862   -4.1387 C   0  0  0  0  0  0  0  0  0  0  0  0
   27.4815  -19.6973   -4.6609 C   0  0  0  0  0  0  0  0  0  0  0  0
   27.2097  -19.6660   -6.0116 C   0  0  0  0  0  0  0  0  0  0  0  0
   28.1438  -20.1413   -6.9082 C   0  0  0  0  0  0  0  0  0  0  0  0
   25.7591  -20.5539  -11.1297 C   0  0  0  0  0  0  0  0  0  0  0  0
   25.9726  -19.5388  -11.8403 O   0  0  0  0  0  0  0  0  0  0  0  0
   24.5432  -21.2294  -11.2797 N   0  0  0  0  0  0  0  0  0  0  0  0
   23.5558  -20.8638  -12.3162 C   0  0  1  0  0  0  0  0  0  0  0  0
   23.5347  -21.8873  -13.3999 C   0  0  0  0  0  0  0  0  0  0  0  0
   24.7218  -21.9155  -14.2667 C   0  0  0  0  0  0  0  0  0  0  0  0
   25.8116  -21.0484  -14.1208 C   0  0  0  0  0  0  0  0  0  0  0  0
   26.7007  -21.3417  -15.0569 N   0  0  0  0  0  0  0  0  0  0  0  0
   26.2497  -22.3508  -15.8027 C   0  0  0  0  0  0  0  0  0  0  0  0
   25.0564  -22.6807  -15.3093 N   0  0  0  0  0  0  0  0  0  0  0  0
   22.2585  -20.6645  -11.6225 C   0  0  0  0  0  0  0  0  0  0  0  0
   21.9181  -21.2853  -10.5903 O   0  0  0  0  0  0  0  0  0  0  0  0
   21.2778  -19.7213  -12.0990 N   0  0  0  0  0  0  0  0  0  0  0  0
   20.0076  -19.5430  -11.4539 C   0  0  0  0  0  0  0  0  0  0  0  0
   19.0328  -20.5980  -11.8087 C   0  0  0  0  0  0  0  0  0  0  0  0
   19.3340  -21.5317  -12.5827 O   0  0  0  0  0  0  0  0  0  0  0  0
   17.7520  -20.5700  -11.2829 O   0  0  0  0  0  0  0  0  0  0  0  0
  2 13  1  0
  2  1  1  6
  3  4  1  0
  3  2  1  0
  4  5  2  0
  5  6  1  0
  7  6  1  0
  8  7  2  0
  9  8  1  0
 10 11  1  0
 10  9  2  0
 11 12  2  0
 12  4  1  0
 12  7  1  0
 13 14  2  0
 15 16  1  0
 15 13  1  0
 16 17  1  6
 18 22  1  0
 18 17  1  0
 19 18  2  0
 20 19  1  0
 20 21  1  0
 21 22  2  0
 23 24  2  0
 23 16  1  0
 25 23  1  0
 26 25  1  0
 27 26  1  0
 27 29  1  0
 28 27  2  0
M  END
$$$$
