WHG.pdb
     RDKit          3D

 29 31  0  0  1  0  0  0  0  0999 V2000
   27.7353  -21.7722  -10.7076 N   0  0  0  0  0  0  0  0  0  0  0  0
   26.5703  -21.0595  -10.2606 C   0  0  1  0  0  0  0  0  0  0  0  0
   27.0671  -19.7205   -9.7150 C   0  0  0  0  0  0  0  0  0  0  0  0
   28.0784  -19.9478   -8.6650 C   0  0  0  0  0  0  0  0  0  0  0  0
   29.4503  -20.0859   -8.8657 C   0  0  0  0  0  0  0  0  0  0  0  0
   30.0563  -20.2807   -7.6848 N   0  0  0  0  0  0  0  0  0  0  0  0
   29.1232  -20.2750   -6.7100 C   0  0  0  0  0  0  0  0  0  0  0  0
   29.2345  -20.4339   -5.3275 C   0  0  0  0  0  0  0  0  0  0  0  0
   28.1157  -20.3890   -4.5228 C   0  0  0  0  0  0  0  0  0  0  0  0
   26.9043  -20.1829   -5.1441 C   0  0  0  0  0  0  0  0  0  0  0  0
   26.7711  -20.0236   -6.5064 C   0  0  0  0  0  0  0  0  0  0  0  0
   27.8894  -20.0683   -7.3125 C   0  0  0  0  0  0  0  0  0  0  0  0
   25.6577  -20.7706  -11.4023 C   0  0  0  0  0  0  0  0  0  0  0  0
   26.0775  -20.1635  -12.4202 O   0  0  0  0  0  0  0  0  0  0  0  0
   24.3165  -21.1672  -11.3682 N   0  0  0  0  0  0  0  0  0  0  0  0
   23.3964  -20.9500  -12.5036 C   0  0  1  0  0  0  0  0  0  0  0  0
   23.1751  -22.2235  -13.2461 C   0  0  0  0  0  0  0  0  0  0  0  0
   24.2848  -22.6538  -14.1090 C   0  0  0  0  0  0  0  0  0  0  0  0
   24.5150  -22.1427  -15.3923 C   0  0  0  0  0  0  0  0  0  0  0  0
   25.5865  -22.7412  -15.8889 N   0  0  0  0  0  0  0  0  0  0  0  0
   26.0654  -23.6123  -15.0003 C   0  0  0  0  0  0  0  0  0  0  0  0
   25.2664  -23.5434  -13.9359 N   0  0  0  0  0  0  0  0  0  0  0  0
   22.1665  -20.3314  -11.9478 C   0  0  0  0  0  0  0  0  0  0  0  0
   21.5049  -20.8223  -11.0055 O   0  0  0  0  0  0  0  0  0  0  0  0
   21.6360  -19.0949  -12.4653 N   0  0  0  0  0  0  0  0  0  0  0  0
   20.2352  -18.9068  -12.7179 C   0  0  0  0  0  0  0  0  0  0  0  0
   19.3783  -19.5708  -11.7110 C   0  0  0  0  0  0  0  0  0  0  0  0
   19.3933  -20.8108  -11.5563 O   0  0  0  0  0  0  0  0  0  0  0  0
   18.5326  -18.8210  -10.9109 O   0  0  0  0  0  0  0  0  0  0  0  0
  2 13  1  0
  2  1  1  6
  3  4  1  0
  3  2  1  0
  4  5  2  0
  5  6  1  0
  7  6  1  0
  8  7  2  0
  9  8  1  0
 10 11  1  0
 10  9  2  0
 11 12  2  0
 12  4  1  0
 12  7  1  0
 13 14  2  0
 15 16  1  0
 15 13  1  0
 16 17  1  1
 18 22  1  0
 18 17  1  0
 19 18  2  0
 20 19  1  0
 20 21  1  0
 21 22  2  0
 23 24  2  0
 23 16  1  0
 25 23  1  0
 26 25  1  0
 27 26  1  0
 27 29  1  0
 28 27  2  0
M  END
$$$$
