WHG.pdb
     RDKit          3D

 29 31  0  0  1  0  0  0  0  0999 V2000
   23.9172  -17.8232  -19.2971 N   0  0  0  0  0  0  0  0  0  0  0  0
   23.0984  -17.6468  -18.1294 C   0  0  1  0  0  0  0  0  0  0  0  0
   21.6518  -17.5948  -18.6213 C   0  0  0  0  0  0  0  0  0  0  0  0
   21.3897  -16.3016  -19.2813 C   0  0  0  0  0  0  0  0  0  0  0  0
   21.2715  -16.0918  -20.6536 C   0  0  0  0  0  0  0  0  0  0  0  0
   21.0346  -14.7922  -20.8873 N   0  0  0  0  0  0  0  0  0  0  0  0
   20.9930  -14.1379  -19.7079 C   0  0  0  0  0  0  0  0  0  0  0  0
   20.7802  -12.7910  -19.4087 C   0  0  0  0  0  0  0  0  0  0  0  0
   20.7836  -12.3526  -18.1014 C   0  0  0  0  0  0  0  0  0  0  0  0
   21.0042  -13.2969  -17.1239 C   0  0  0  0  0  0  0  0  0  0  0  0
   21.2163  -14.6310  -17.3962 C   0  0  0  0  0  0  0  0  0  0  0  0
   21.2132  -15.0710  -18.7034 C   0  0  0  0  0  0  0  0  0  0  0  0
   23.2224  -18.8171  -17.2158 C   0  0  0  0  0  0  0  0  0  0  0  0
   23.3572  -19.9788  -17.6777 O   0  0  0  0  0  0  0  0  0  0  0  0
   23.1920  -18.6510  -15.8270 N   0  0  0  0  0  0  0  0  0  0  0  0
   23.3237  -19.7854  -14.8897 C   0  0  1  0  0  0  0  0  0  0  0  0
   24.1702  -19.4026  -13.7239 C   0  0  0  0  0  0  0  0  0  0  0  0
   24.4774  -20.4882  -12.7815 C   0  0  0  0  0  0  0  0  0  0  0  0
   24.0647  -21.8142  -12.9619 C   0  0  0  0  0  0  0  0  0  0  0  0
   24.5064  -22.5270  -11.9373 N   0  0  0  0  0  0  0  0  0  0  0  0
   25.1828  -21.7386  -11.1015 C   0  0  0  0  0  0  0  0  0  0  0  0
   25.1528  -20.5152  -11.6292 N   0  0  0  0  0  0  0  0  0  0  0  0
   21.9466  -20.2190  -14.5437 C   0  0  0  0  0  0  0  0  0  0  0  0
   21.0118  -19.4279  -14.2848 O   0  0  0  0  0  0  0  0  0  0  0  0
   21.5808  -21.6120  -14.4802 N   0  0  0  0  0  0  0  0  0  0  0  0
   20.2569  -22.0426  -14.1288 C   0  0  0  0  0  0  0  0  0  0  0  0
   20.0972  -22.2730  -12.6759 C   0  0  0  0  0  0  0  0  0  0  0  0
   21.0258  -22.0419  -11.8722 O   0  0  0  0  0  0  0  0  0  0  0  0
   18.9004  -22.7554  -12.1734 O   0  0  0  0  0  0  0  0  0  0  0  0
  2 13  1  0
  2  1  1  6
  3  4  1  0
  3  2  1  0
  4  5  2  0
  5  6  1  0
  7  6  1  0
  8  7  2  0
  9  8  1  0
 10 11  1  0
 10  9  2  0
 11 12  2  0
 12  4  1  0
 12  7  1  0
 13 14  2  0
 15 16  1  0
 15 13  1  0
 16 17  1  1
 18 22  1  0
 18 17  1  0
 19 18  2  0
 20 19  1  0
 20 21  1  0
 21 22  2  0
 23 24  2  0
 23 16  1  0
 25 23  1  0
 26 25  1  0
 27 26  1  0
 27 29  1  0
 28 27  2  0
M  END
$$$$
