WHG.pdb
     RDKit          3D

 29 31  0  0  1  0  0  0  0  0999 V2000
   26.5819  -21.8016  -12.2648 N   0  0  0  0  0  0  0  0  0  0  0  0
   25.5845  -21.4688  -11.2853 C   0  0  1  0  0  0  0  0  0  0  0  0
   26.1458  -20.2971  -10.4795 C   0  0  0  0  0  0  0  0  0  0  0  0
   27.3063  -20.7419   -9.6844 C   0  0  0  0  0  0  0  0  0  0  0  0
   28.3618  -21.5265  -10.1445 C   0  0  0  0  0  0  0  0  0  0  0  0
   29.2331  -21.7321   -9.1454 N   0  0  0  0  0  0  0  0  0  0  0  0
   28.7827  -21.1055   -8.0385 C   0  0  0  0  0  0  0  0  0  0  0  0
   29.3144  -21.0141   -6.7509 C   0  0  0  0  0  0  0  0  0  0  0  0
   28.6580  -20.3033   -5.7685 C   0  0  0  0  0  0  0  0  0  0  0  0
   27.4713  -19.6991   -6.1184 C   0  0  0  0  0  0  0  0  0  0  0  0
   26.9281  -19.7760   -7.3826 C   0  0  0  0  0  0  0  0  0  0  0  0
   27.5836  -20.4867   -8.3663 C   0  0  0  0  0  0  0  0  0  0  0  0
   24.3317  -21.0039  -11.9442 C   0  0  0  0  0  0  0  0  0  0  0  0
   24.2270  -19.8217  -12.3594 O   0  0  0  0  0  0  0  0  0  0  0  0
   23.2462  -21.8697  -12.1159 N   0  0  0  0  0  0  0  0  0  0  0  0
   21.9559  -21.4215  -12.6790 C   0  0  1  0  0  0  0  0  0  0  0  0
   21.8605  -21.7892  -14.1205 C   0  0  0  0  0  0  0  0  0  0  0  0
   22.8157  -21.1133  -15.0104 C   0  0  0  0  0  0  0  0  0  0  0  0
   24.0355  -21.6730  -15.4103 C   0  0  0  0  0  0  0  0  0  0  0  0
   24.6464  -20.8071  -16.2040 N   0  0  0  0  0  0  0  0  0  0  0  0
   23.8920  -19.7164  -16.3422 C   0  0  0  0  0  0  0  0  0  0  0  0
   22.7943  -19.9222  -15.6150 N   0  0  0  0  0  0  0  0  0  0  0  0
   20.8897  -21.9933  -11.8185 C   0  0  0  0  0  0  0  0  0  0  0  0
   20.8950  -23.1702  -11.3926 O   0  0  0  0  0  0  0  0  0  0  0  0
   19.7483  -21.2165  -11.4037 N   0  0  0  0  0  0  0  0  0  0  0  0
   18.7693  -21.7223  -10.4833 C   0  0  0  0  0  0  0  0  0  0  0  0
   17.8906  -22.7472  -11.0890 C   0  0  0  0  0  0  0  0  0  0  0  0
   18.0308  -23.1079  -12.2772 O   0  0  0  0  0  0  0  0  0  0  0  0
   16.8836  -23.3333  -10.3408 O   0  0  0  0  0  0  0  0  0  0  0  0
  2 13  1  0
  2  1  1  6
  3  4  1  0
  3  2  1  0
  4  5  2  0
  5  6  1  0
  7  6  1  0
  8  7  2  0
  9  8  1  0
 10 11  1  0
 10  9  2  0
 11 12  2  0
 12  4  1  0
 12  7  1  0
 13 14  2  0
 15 16  1  0
 15 13  1  0
 16 17  1  6
 18 22  1  0
 18 17  1  0
 19 18  2  0
 20 19  1  0
 20 21  1  0
 21 22  2  0
 23 24  2  0
 23 16  1  0
 25 23  1  0
 26 25  1  0
 27 26  1  0
 27 29  1  0
 28 27  2  0
M  END
$$$$
