WHG.pdb
     RDKit          3D

 29 31  0  0  1  0  0  0  0  0999 V2000
   25.2934  -18.9708   -8.6844 N   0  0  0  0  0  0  0  0  0  0  0  0
   26.3746  -19.7052   -9.2816 C   0  0  1  0  0  0  0  0  0  0  0  0
   26.3392  -21.1032   -8.6637 C   0  0  0  0  0  0  0  0  0  0  0  0
   26.4761  -21.0100   -7.1975 C   0  0  0  0  0  0  0  0  0  0  0  0
   25.5080  -21.3652   -6.2605 C   0  0  0  0  0  0  0  0  0  0  0  0
   25.9815  -21.1452   -5.0248 N   0  0  0  0  0  0  0  0  0  0  0  0
   27.2350  -20.6548   -5.1194 C   0  0  0  0  0  0  0  0  0  0  0  0
   28.1493  -20.2680   -4.1379 C   0  0  0  0  0  0  0  0  0  0  0  0
   29.3938  -19.7877   -4.4871 C   0  0  0  0  0  0  0  0  0  0  0  0
   29.6819  -19.7111   -5.8313 C   0  0  0  0  0  0  0  0  0  0  0  0
   28.7951  -20.0872   -6.8168 C   0  0  0  0  0  0  0  0  0  0  0  0
   27.5499  -20.5678   -6.4690 C   0  0  0  0  0  0  0  0  0  0  0  0
   26.1640  -19.8553  -10.7489 C   0  0  0  0  0  0  0  0  0  0  0  0
   25.0064  -19.9984  -11.2185 O   0  0  0  0  0  0  0  0  0  0  0  0
   27.2462  -19.8403  -11.6354 N   0  0  0  0  0  0  0  0  0  0  0  0
   27.0748  -19.6699  -13.0929 C   0  0  1  0  0  0  0  0  0  0  0  0
   28.3576  -19.2448  -13.7223 C   0  0  0  0  0  0  0  0  0  0  0  0
   28.2990  -18.9915  -15.1692 C   0  0  0  0  0  0  0  0  0  0  0  0
   27.1285  -19.0987  -15.9304 C   0  0  0  0  0  0  0  0  0  0  0  0
   27.4249  -18.8055  -17.1870 N   0  0  0  0  0  0  0  0  0  0  0  0
   28.7223  -18.5138  -17.2849 C   0  0  0  0  0  0  0  0  0  0  0  0
   29.2293  -18.6321  -16.0580 N   0  0  0  0  0  0  0  0  0  0  0  0
   26.5189  -20.9449  -13.6122 C   0  0  0  0  0  0  0  0  0  0  0  0
   26.9290  -22.0756  -13.2660 O   0  0  0  0  0  0  0  0  0  0  0  0
   25.4441  -20.9711  -14.5726 N   0  0  0  0  0  0  0  0  0  0  0  0
   24.8880  -22.1983  -15.0687 C   0  0  0  0  0  0  0  0  0  0  0  0
   23.7443  -21.9801  -15.9817 C   0  0  0  0  0  0  0  0  0  0  0  0
   23.8315  -22.2163  -17.2058 O   0  0  0  0  0  0  0  0  0  0  0  0
   22.5403  -21.5037  -15.4905 O   0  0  0  0  0  0  0  0  0  0  0  0
  2 13  1  0
  2  1  1  1
  3  4  1  0
  3  2  1  0
  4  5  2  0
  5  6  1  0
  7  6  1  0
  8  7  2  0
  9  8  1  0
 10 11  1  0
 10  9  2  0
 11 12  2  0
 12  4  1  0
 12  7  1  0
 13 14  2  0
 15 16  1  0
 15 13  1  0
 16 17  1  6
 18 22  1  0
 18 17  1  0
 19 18  2  0
 20 19  1  0
 20 21  1  0
 21 22  2  0
 23 24  2  0
 23 16  1  0
 25 23  1  0
 26 25  1  0
 27 26  1  0
 27 29  1  0
 28 27  2  0
M  END
$$$$
