WHG.pdb
     RDKit          3D

 29 31  0  0  1  0  0  0  0  0999 V2000
   25.4081  -17.9560  -19.1508 N   0  0  0  0  0  0  0  0  0  0  0  0
   25.6863  -18.3391  -17.7940 C   0  0  1  0  0  0  0  0  0  0  0  0
   25.6829  -17.0496  -16.9727 C   0  0  0  0  0  0  0  0  0  0  0  0
   26.9314  -16.2990  -17.2072 C   0  0  0  0  0  0  0  0  0  0  0  0
   27.0273  -15.0161  -17.7423 C   0  0  0  0  0  0  0  0  0  0  0  0
   28.3179  -14.6565  -17.8099 N   0  0  0  0  0  0  0  0  0  0  0  0
   29.0770  -15.6658  -17.3345 C   0  0  0  0  0  0  0  0  0  0  0  0
   30.4601  -15.7901  -17.1921 C   0  0  0  0  0  0  0  0  0  0  0  0
   31.0123  -16.9410  -16.6708 C   0  0  0  0  0  0  0  0  0  0  0  0
   30.1425  -17.9436  -16.3045 C   0  0  0  0  0  0  0  0  0  0  0  0
   28.7745  -17.8426  -16.4360 C   0  0  0  0  0  0  0  0  0  0  0  0
   28.2208  -16.6919  -16.9573 C   0  0  0  0  0  0  0  0  0  0  0  0
   24.6064  -19.2161  -17.2609 C   0  0  0  0  0  0  0  0  0  0  0  0
   23.5008  -19.3029  -17.8534 O   0  0  0  0  0  0  0  0  0  0  0  0
   24.7971  -19.9613  -16.0923 N   0  0  0  0  0  0  0  0  0  0  0  0
   23.8331  -20.9848  -15.6385 C   0  0  1  0  0  0  0  0  0  0  0  0
   24.5509  -22.1970  -15.1511 C   0  0  0  0  0  0  0  0  0  0  0  0
   25.3828  -22.8841  -16.1497 C   0  0  0  0  0  0  0  0  0  0  0  0
   26.7823  -22.9116  -16.1092 C   0  0  0  0  0  0  0  0  0  0  0  0
   27.2116  -23.6100  -17.1489 N   0  0  0  0  0  0  0  0  0  0  0  0
   26.1696  -24.0377  -17.8624 C   0  0  0  0  0  0  0  0  0  0  0  0
   25.0782  -23.5891  -17.2428 N   0  0  0  0  0  0  0  0  0  0  0  0
   22.9566  -20.3336  -14.6326 C   0  0  0  0  0  0  0  0  0  0  0  0
   23.3804  -19.7864  -13.5898 O   0  0  0  0  0  0  0  0  0  0  0  0
   21.5244  -20.2843  -14.7894 N   0  0  0  0  0  0  0  0  0  0  0  0
   20.6681  -19.6526  -13.8256 C   0  0  0  0  0  0  0  0  0  0  0  0
   19.9678  -20.6255  -12.9581 C   0  0  0  0  0  0  0  0  0  0  0  0
   20.1698  -21.8545  -13.0596 O   0  0  0  0  0  0  0  0  0  0  0  0
   19.0639  -20.1865  -12.0053 O   0  0  0  0  0  0  0  0  0  0  0  0
  2 13  1  0
  2  1  1  6
  3  4  1  0
  3  2  1  0
  4  5  2  0
  5  6  1  0
  7  6  1  0
  8  7  2  0
  9  8  1  0
 10 11  1  0
 10  9  2  0
 11 12  2  0
 12  4  1  0
 12  7  1  0
 13 14  2  0
 15 16  1  0
 15 13  1  0
 16 17  1  1
 18 22  1  0
 18 17  1  0
 19 18  2  0
 20 19  1  0
 20 21  1  0
 21 22  2  0
 23 24  2  0
 23 16  1  0
 25 23  1  0
 26 25  1  0
 27 26  1  0
 27 29  1  0
 28 27  2  0
M  END
$$$$
