WHG.pdb
     RDKit          3D

 29 31  0  0  1  0  0  0  0  0999 V2000
   24.8155  -19.0414   -9.5051 N   0  0  0  0  0  0  0  0  0  0  0  0
   25.9269  -19.8126   -9.9900 C   0  0  1  0  0  0  0  0  0  0  0  0
   25.9884  -21.0713   -9.1245 C   0  0  0  0  0  0  0  0  0  0  0  0
   26.2573  -20.7053   -7.7207 C   0  0  0  0  0  0  0  0  0  0  0  0
   25.2989  -20.4937   -6.7317 C   0  0  0  0  0  0  0  0  0  0  0  0
   25.9092  -20.1770   -5.5798 N   0  0  0  0  0  0  0  0  0  0  0  0
   27.2436  -20.1735   -5.7803 C   0  0  0  0  0  0  0  0  0  0  0  0
   28.3048  -19.9100   -4.9124 C   0  0  0  0  0  0  0  0  0  0  0  0
   29.6084  -19.9695   -5.3580 C   0  0  0  0  0  0  0  0  0  0  0  0
   29.8046  -20.2968   -6.6809 C   0  0  0  0  0  0  0  0  0  0  0  0
   28.7724  -20.5607   -7.5551 C   0  0  0  0  0  0  0  0  0  0  0  0
   27.4681  -20.5015   -7.1108 C   0  0  0  0  0  0  0  0  0  0  0  0
   25.6963  -20.2439  -11.3974 C   0  0  0  0  0  0  0  0  0  0  0  0
   24.5297  -20.3276  -11.8587 O   0  0  0  0  0  0  0  0  0  0  0  0
   26.7696  -20.5644  -12.2356 N   0  0  0  0  0  0  0  0  0  0  0  0
   26.6030  -20.7884  -13.6864 C   0  0  1  0  0  0  0  0  0  0  0  0
   27.6365  -20.0349  -14.4522 C   0  0  0  0  0  0  0  0  0  0  0  0
   27.3513  -18.6085  -14.6652 C   0  0  0  0  0  0  0  0  0  0  0  0
   26.1441  -17.9954  -14.3077 C   0  0  0  0  0  0  0  0  0  0  0  0
   26.2185  -16.7148  -14.6358 N   0  0  0  0  0  0  0  0  0  0  0  0
   27.4062  -16.4617  -15.1863 C   0  0  0  0  0  0  0  0  0  0  0  0
   28.0723  -17.6161  -15.1941 N   0  0  0  0  0  0  0  0  0  0  0  0
   26.6186  -22.2577  -13.8990 C   0  0  0  0  0  0  0  0  0  0  0  0
   27.4531  -23.0285  -13.3736 O   0  0  0  0  0  0  0  0  0  0  0  0
   25.6526  -22.9146  -14.7438 N   0  0  0  0  0  0  0  0  0  0  0  0
   25.6369  -24.3384  -14.9284 C   0  0  0  0  0  0  0  0  0  0  0  0
   26.5891  -24.7910  -15.9666 C   0  0  0  0  0  0  0  0  0  0  0  0
   27.3209  -23.9835  -16.5782 O   0  0  0  0  0  0  0  0  0  0  0  0
   26.6883  -26.1353  -16.2839 O   0  0  0  0  0  0  0  0  0  0  0  0
  2 13  1  0
  2  1  1  1
  3  4  1  0
  3  2  1  0
  4  5  2  0
  5  6  1  0
  7  6  1  0
  8  7  2  0
  9  8  1  0
 10 11  1  0
 10  9  2  0
 11 12  2  0
 12  4  1  0
 12  7  1  0
 13 14  2  0
 15 16  1  0
 15 13  1  0
 16 17  1  6
 18 22  1  0
 18 17  1  0
 19 18  2  0
 20 19  1  0
 20 21  1  0
 21 22  2  0
 23 24  2  0
 23 16  1  0
 25 23  1  0
 26 25  1  0
 27 26  1  0
 27 29  1  0
 28 27  2  0
M  END
$$$$
