WHG.pdb
     RDKit          3D

 29 31  0  0  1  0  0  0  0  0999 V2000
   24.5328  -15.5575  -19.1613 N   0  0  0  0  0  0  0  0  0  0  0  0
   24.2377  -16.0569  -17.8465 C   0  0  1  0  0  0  0  0  0  0  0  0
   23.5444  -14.9180  -17.0985 C   0  0  0  0  0  0  0  0  0  0  0  0
   24.4550  -13.7629  -16.9824 C   0  0  0  0  0  0  0  0  0  0  0  0
   24.1171  -12.4287  -17.1994 C   0  0  0  0  0  0  0  0  0  0  0  0
   25.1972  -11.6576  -17.0034 N   0  0  0  0  0  0  0  0  0  0  0  0
   26.2388  -12.4450  -16.6630 C   0  0  0  0  0  0  0  0  0  0  0  0
   27.5660  -12.1366  -16.3593 C   0  0  0  0  0  0  0  0  0  0  0  0
   28.4625  -13.1329  -16.0353 C   0  0  0  0  0  0  0  0  0  0  0  0
   27.9878  -14.4253  -16.0272 C   0  0  0  0  0  0  0  0  0  0  0  0
   26.6823  -14.7526  -16.3235 C   0  0  0  0  0  0  0  0  0  0  0  0
   25.7845  -13.7571  -16.6478 C   0  0  0  0  0  0  0  0  0  0  0  0
   23.2819  -17.1976  -17.9172 C   0  0  0  0  0  0  0  0  0  0  0  0
   22.3564  -17.2060  -18.7683 O   0  0  0  0  0  0  0  0  0  0  0  0
   23.3920  -18.2826  -17.0410 N   0  0  0  0  0  0  0  0  0  0  0  0
   22.5347  -19.4808  -17.1510 C   0  0  1  0  0  0  0  0  0  0  0  0
   23.3685  -20.7040  -17.3262 C   0  0  0  0  0  0  0  0  0  0  0  0
   23.9737  -20.8723  -18.6553 C   0  0  0  0  0  0  0  0  0  0  0  0
   23.7624  -19.9909  -19.7228 C   0  0  0  0  0  0  0  0  0  0  0  0
   24.4495  -20.4325  -20.7649 N   0  0  0  0  0  0  0  0  0  0  0  0
   25.0952  -21.5512  -20.4343 C   0  0  0  0  0  0  0  0  0  0  0  0
   24.7946  -21.7978  -19.1595 N   0  0  0  0  0  0  0  0  0  0  0  0
   21.6562  -19.4921  -15.9542 C   0  0  0  0  0  0  0  0  0  0  0  0
   20.9423  -20.4656  -15.6236 O   0  0  0  0  0  0  0  0  0  0  0  0
   21.5614  -18.3580  -15.0692 N   0  0  0  0  0  0  0  0  0  0  0  0
   20.6341  -18.3148  -13.9739 C   0  0  0  0  0  0  0  0  0  0  0  0
   19.2532  -18.0046  -14.4054 C   0  0  0  0  0  0  0  0  0  0  0  0
   18.9576  -17.8869  -15.6139 O   0  0  0  0  0  0  0  0  0  0  0  0
   18.2497  -17.8368  -13.4660 O   0  0  0  0  0  0  0  0  0  0  0  0
  2 13  1  0
  2  1  1  6
  3  4  1  0
  3  2  1  0
  4  5  2  0
  5  6  1  0
  7  6  1  0
  8  7  2  0
  9  8  1  0
 10 11  1  0
 10  9  2  0
 11 12  2  0
 12  4  1  0
 12  7  1  0
 13 14  2  0
 15 16  1  0
 15 13  1  0
 16 17  1  1
 18 22  1  0
 18 17  1  0
 19 18  2  0
 20 19  1  0
 20 21  1  0
 21 22  2  0
 23 24  2  0
 23 16  1  0
 25 23  1  0
 26 25  1  0
 27 26  1  0
 27 29  1  0
 28 27  2  0
M  END
$$$$
