WHG.pdb
     RDKit          3D

 29 31  0  0  1  0  0  0  0  0999 V2000
   26.5693  -21.9284  -12.8425 N   0  0  0  0  0  0  0  0  0  0  0  0
   25.4315  -21.0568  -12.7386 C   0  0  1  0  0  0  0  0  0  0  0  0
   25.8117  -19.9697  -11.7331 C   0  0  0  0  0  0  0  0  0  0  0  0
   25.3780  -20.3619  -10.3785 C   0  0  0  0  0  0  0  0  0  0  0  0
   26.1999  -20.4910   -9.2608 C   0  0  0  0  0  0  0  0  0  0  0  0
   25.4612  -20.8635   -8.2047 N   0  0  0  0  0  0  0  0  0  0  0  0
   24.1747  -20.9840   -8.5936 C   0  0  0  0  0  0  0  0  0  0  0  0
   23.0275  -21.3423   -7.8834 C   0  0  0  0  0  0  0  0  0  0  0  0
   21.8009  -21.3966   -8.5109 C   0  0  0  0  0  0  0  0  0  0  0  0
   21.7680  -21.0841   -9.8515 C   0  0  0  0  0  0  0  0  0  0  0  0
   22.8874  -20.7279  -10.5721 C   0  0  0  0  0  0  0  0  0  0  0  0
   24.1150  -20.6732   -9.9456 C   0  0  0  0  0  0  0  0  0  0  0  0
   25.1570  -20.3893  -14.0420 C   0  0  0  0  0  0  0  0  0  0  0  0
   26.0699  -19.7779  -14.6534 O   0  0  0  0  0  0  0  0  0  0  0  0
   23.8809  -20.4275  -14.6142 N   0  0  0  0  0  0  0  0  0  0  0  0
   23.5814  -19.8164  -15.9255 C   0  0  1  0  0  0  0  0  0  0  0  0
   23.2420  -20.8686  -16.9255 C   0  0  0  0  0  0  0  0  0  0  0  0
   24.3506  -21.7517  -17.3158 C   0  0  0  0  0  0  0  0  0  0  0  0
   25.6663  -21.5941  -16.8629 C   0  0  0  0  0  0  0  0  0  0  0  0
   26.4059  -22.5506  -17.4024 N   0  0  0  0  0  0  0  0  0  0  0  0
   25.6445  -23.3207  -18.1803 C   0  0  0  0  0  0  0  0  0  0  0  0
   24.4106  -22.8216  -18.1134 N   0  0  0  0  0  0  0  0  0  0  0  0
   22.5159  -18.8082  -15.6964 C   0  0  0  0  0  0  0  0  0  0  0  0
   21.5529  -18.9779  -14.9152 O   0  0  0  0  0  0  0  0  0  0  0  0
   22.5154  -17.5347  -16.3722 N   0  0  0  0  0  0  0  0  0  0  0  0
   21.4956  -16.5487  -16.1506 C   0  0  0  0  0  0  0  0  0  0  0  0
   20.1290  -17.1076  -16.2474 C   0  0  0  0  0  0  0  0  0  0  0  0
   19.7862  -17.8321  -17.2062 O   0  0  0  0  0  0  0  0  0  0  0  0
   19.1922  -16.8346  -15.2647 O   0  0  0  0  0  0  0  0  0  0  0  0
  2 13  1  0
  2  1  1  6
  3  4  1  0
  3  2  1  0
  4  5  2  0
  5  6  1  0
  7  6  1  0
  8  7  2  0
  9  8  1  0
 10 11  1  0
 10  9  2  0
 11 12  2  0
 12  4  1  0
 12  7  1  0
 13 14  2  0
 15 16  1  0
 15 13  1  0
 16 17  1  6
 18 22  1  0
 18 17  1  0
 19 18  2  0
 20 19  1  0
 20 21  1  0
 21 22  2  0
 23 24  2  0
 23 16  1  0
 25 23  1  0
 26 25  1  0
 27 26  1  0
 27 29  1  0
 28 27  2  0
M  END
$$$$
