GMA.pdb
     RDKit          3D

 18 17  0  0  1  0  0  0  0  0999 V2000
   11.8382  -11.6981    4.7085 N   0  0  0  0  0  0  0  0  0  0  0  0
   12.7392  -11.7192    5.8315 C   0  0  0  0  0  0  0  0  0  0  0  0
   14.0142  -12.4344    5.4886 C   0  0  0  0  0  0  0  0  0  0  0  0
   14.0858  -13.0594    4.3967 O   0  0  0  0  0  0  0  0  0  0  0  0
   21.7588  -12.4161    6.2124 C   0  0  0  0  0  0  0  0  0  0  0  0
   20.1840  -11.7282    6.7879 S   0  0  0  0  0  0  0  0  0  0  0  0
   18.8526  -12.7983    6.1653 C   0  0  0  0  0  0  0  0  0  0  0  0
   17.5230  -12.2121    6.5087 C   0  0  0  0  0  0  0  0  0  0  0  0
   16.3764  -13.0491    6.0093 C   0  0  2  0  0  0  0  0  0  0  0  0
   15.1187  -12.4069    6.3785 N   0  0  0  0  0  0  0  0  0  0  0  0
   16.3748  -14.4297    6.5130 C   0  0  0  0  0  0  0  0  0  0  0  0
   16.1000  -14.6999    7.7004 O   0  0  0  0  0  0  0  0  0  0  0  0
   16.6387  -17.8340    4.9863 C   0  0  0  0  0  0  0  0  0  0  0  0
   16.6868  -16.8524    6.1456 C   0  0  2  0  0  0  0  0  0  0  0  0
   16.6975  -15.5202    5.6262 N   0  0  0  0  0  0  0  0  0  0  0  0
   17.8750  -17.0795    6.9822 C   0  0  0  0  0  0  0  0  0  0  0  0
   18.9345  -16.4598    6.7445 O   0  0  0  0  0  0  0  0  0  0  0  0
   17.9007  -17.9675    8.0569 O   0  0  0  0  0  0  0  0  0  0  0  0
  1  2  1  0
  2  3  1  0
  3  4  2  0
  6  5  1  0
  7  6  1  0
  7  8  1  0
  9  8  1  1
 10  9  1  0
 10  3  1  0
 11 15  1  0
 11  9  1  0
 12 11  2  0
 14 13  1  6
 14 15  1  0
 16 14  1  0
 16 18  1  0
 17 16  2  0
M  END
$$$$
