GMA.pdb
     RDKit          3D

 18 17  0  0  1  0  0  0  0  0999 V2000
   15.5717  -13.7831  -11.8786 N   0  0  0  0  0  0  0  0  0  0  0  0
   16.6983  -12.8937  -11.9941 C   0  0  0  0  0  0  0  0  0  0  0  0
   16.2558  -11.4589  -12.0051 C   0  0  0  0  0  0  0  0  0  0  0  0
   15.5084  -11.0604  -12.9381 O   0  0  0  0  0  0  0  0  0  0  0  0
   14.7354   -5.1427   -7.6705 C   0  0  0  0  0  0  0  0  0  0  0  0
   15.3119   -6.8603   -7.7131 S   0  0  0  0  0  0  0  0  0  0  0  0
   15.4744   -7.3459   -9.4575 C   0  0  0  0  0  0  0  0  0  0  0  0
   15.9850   -8.7458   -9.5530 C   0  0  0  0  0  0  0  0  0  0  0  0
   16.2015   -9.1859  -10.9756 C   0  0  2  0  0  0  0  0  0  0  0  0
   16.6720  -10.5677  -10.9828 N   0  0  0  0  0  0  0  0  0  0  0  0
   17.1518   -8.3528  -11.7255 C   0  0  0  0  0  0  0  0  0  0  0  0
   18.3667   -8.3157  -11.4403 O   0  0  0  0  0  0  0  0  0  0  0  0
   17.3515   -7.0296  -15.0771 C   0  0  0  0  0  0  0  0  0  0  0  0
   17.6509   -6.8249  -13.6012 C   0  0  2  0  0  0  0  0  0  0  0  0
   16.6888   -7.5460  -12.8275 N   0  0  0  0  0  0  0  0  0  0  0  0
   17.6183   -5.3975  -13.2477 C   0  0  0  0  0  0  0  0  0  0  0  0
   16.6392   -4.9296  -12.6267 O   0  0  0  0  0  0  0  0  0  0  0  0
   18.6379   -4.5022  -13.5685 O   0  0  0  0  0  0  0  0  0  0  0  0
  1  2  1  0
  2  3  1  0
  3  4  2  0
  6  5  1  0
  7  6  1  0
  7  8  1  0
  9  8  1  1
 10  9  1  0
 10  3  1  0
 11 15  1  0
 11  9  1  0
 12 11  2  0
 14 13  1  6
 14 15  1  0
 16 14  1  0
 16 18  1  0
 17 16  2  0
M  END
$$$$
