GMA.pdb
     RDKit          3D

 18 17  0  0  1  0  0  0  0  0999 V2000
   23.6166   -9.4932  -21.7228 N   0  0  0  0  0  0  0  0  0  0  0  0
   22.5303   -8.6512  -21.2931 C   0  0  0  0  0  0  0  0  0  0  0  0
   22.1314   -8.9624  -19.8793 C   0  0  0  0  0  0  0  0  0  0  0  0
   21.1831   -9.7676  -19.6786 O   0  0  0  0  0  0  0  0  0  0  0  0
   26.4778   -9.5654  -15.5679 C   0  0  0  0  0  0  0  0  0  0  0  0
   25.0889  -10.1644  -14.5697 S   0  0  0  0  0  0  0  0  0  0  0  0
   23.5619   -9.4778  -15.2783 C   0  0  0  0  0  0  0  0  0  0  0  0
   23.7830   -9.1084  -16.7081 C   0  0  0  0  0  0  0  0  0  0  0  0
   22.5030   -8.7617  -17.4196 C   0  0  2  0  0  0  0  0  0  0  0  0
   22.8103   -8.3603  -18.7889 N   0  0  0  0  0  0  0  0  0  0  0  0
   21.7238   -7.6972  -16.7722 C   0  0  0  0  0  0  0  0  0  0  0  0
   21.2046   -7.8489  -15.6471 O   0  0  0  0  0  0  0  0  0  0  0  0
   19.3161   -5.9655  -16.6640 C   0  0  0  0  0  0  0  0  0  0  0  0
   20.7329   -5.4347  -16.8077 C   0  0  2  0  0  0  0  0  0  0  0  0
   21.5409   -6.4314  -17.4387 N   0  0  0  0  0  0  0  0  0  0  0  0
   21.2995   -5.0779  -15.4980 C   0  0  0  0  0  0  0  0  0  0  0  0
   22.3024   -5.6855  -15.0643 O   0  0  0  0  0  0  0  0  0  0  0  0
   20.7772   -4.0757  -14.6813 O   0  0  0  0  0  0  0  0  0  0  0  0
  1  2  1  0
  2  3  1  0
  3  4  2  0
  6  5  1  0
  7  6  1  0
  7  8  1  0
  9  8  1  1
 10  9  1  0
 10  3  1  0
 11 15  1  0
 11  9  1  0
 12 11  2  0
 14 13  1  1
 14 15  1  0
 16 14  1  0
 16 18  1  0
 17 16  2  0
M  END
$$$$
