GMA.pdb
     RDKit          3D

 18 17  0  0  1  0  0  0  0  0999 V2000
   16.5159  -14.2432  -14.7641 N   0  0  0  0  0  0  0  0  0  0  0  0
   17.2790  -13.0253  -14.6758 C   0  0  0  0  0  0  0  0  0  0  0  0
   16.3790  -11.8331  -14.5223 C   0  0  0  0  0  0  0  0  0  0  0  0
   15.6018  -11.5325  -15.4675 O   0  0  0  0  0  0  0  0  0  0  0  0
   11.5084   -9.5830  -10.4041 C   0  0  0  0  0  0  0  0  0  0  0  0
   12.9212  -10.6994  -10.1994 S   0  0  0  0  0  0  0  0  0  0  0  0
   13.7583  -10.8326  -11.8078 C   0  0  0  0  0  0  0  0  0  0  0  0
   14.8932   -9.8645  -11.8750 C   0  0  0  0  0  0  0  0  0  0  0  0
   15.5732   -9.8641  -13.2174 C   0  0  2  0  0  0  0  0  0  0  0  0
   16.4034  -11.0590  -13.3337 N   0  0  0  0  0  0  0  0  0  0  0  0
   16.4030   -8.6781  -13.4715 C   0  0  0  0  0  0  0  0  0  0  0  0
   17.5167   -8.5220  -12.9296 O   0  0  0  0  0  0  0  0  0  0  0  0
   16.5471   -6.1769  -16.1643 C   0  0  0  0  0  0  0  0  0  0  0  0
   16.8319   -6.5975  -14.7319 C   0  0  2  0  0  0  0  0  0  0  0  0
   15.9360   -7.6515  -14.3703 N   0  0  0  0  0  0  0  0  0  0  0  0
   16.6795   -5.4637  -13.8074 C   0  0  0  0  0  0  0  0  0  0  0  0
   15.7018   -5.4185  -13.0295 O   0  0  0  0  0  0  0  0  0  0  0  0
   17.5804   -4.4018  -13.7375 O   0  0  0  0  0  0  0  0  0  0  0  0
  1  2  1  0
  2  3  1  0
  3  4  2  0
  6  5  1  0
  7  6  1  0
  7  8  1  0
  9  8  1  1
 10  9  1  0
 10  3  1  0
 11 15  1  0
 11  9  1  0
 12 11  2  0
 14 13  1  6
 14 15  1  0
 16 14  1  0
 16 18  1  0
 17 16  2  0
M  END
$$$$
