GMA.pdb
     RDKit          3D

 18 17  0  0  1  0  0  0  0  0999 V2000
   21.3696  -21.7018   -7.1317 N   0  0  0  0  0  0  0  0  0  0  0  0
   22.7523  -22.1026   -7.1013 C   0  0  0  0  0  0  0  0  0  0  0  0
   23.5814  -21.2549   -8.0226 C   0  0  0  0  0  0  0  0  0  0  0  0
   23.0124  -20.6553   -8.9737 O   0  0  0  0  0  0  0  0  0  0  0  0
   29.2258  -20.4099   -5.8479 C   0  0  0  0  0  0  0  0  0  0  0  0
   28.4899  -18.7731   -6.1001 S   0  0  0  0  0  0  0  0  0  0  0  0
   26.9152  -19.0042   -6.9789 C   0  0  0  0  0  0  0  0  0  0  0  0
   27.0900  -19.9841   -8.0919 C   0  0  0  0  0  0  0  0  0  0  0  0
   25.7875  -20.3450   -8.7536 C   0  0  2  0  0  0  0  0  0  0  0  0
   24.9809  -21.1315   -7.8255 N   0  0  0  0  0  0  0  0  0  0  0  0
   25.9373  -21.0927  -10.0098 C   0  0  0  0  0  0  0  0  0  0  0  0
   26.2938  -22.2889  -10.0287 O   0  0  0  0  0  0  0  0  0  0  0  0
   24.6433  -21.6337  -13.0863 C   0  0  0  0  0  0  0  0  0  0  0  0
   25.9513  -21.1539  -12.4792 C   0  0  2  0  0  0  0  0  0  0  0  0
   25.6698  -20.4446  -11.2701 N   0  0  0  0  0  0  0  0  0  0  0  0
   26.6831  -20.2877  -13.4160 C   0  0  0  0  0  0  0  0  0  0  0  0
   26.8248  -19.0717  -13.1623 O   0  0  0  0  0  0  0  0  0  0  0  0
   27.2475  -20.7454  -14.6060 O   0  0  0  0  0  0  0  0  0  0  0  0
  1  2  1  0
  2  3  1  0
  3  4  2  0
  6  5  1  0
  7  6  1  0
  7  8  1  0
  9  8  1  1
 10  9  1  0
 10  3  1  0
 11 15  1  0
 11  9  1  0
 12 11  2  0
 14 13  1  6
 14 15  1  0
 16 14  1  0
 16 18  1  0
 17 16  2  0
M  END
$$$$
