GMA.pdb
     RDKit          3D

 18 17  0  0  1  0  0  0  0  0999 V2000
   28.3735  -22.2527  -14.7144 N   0  0  0  0  0  0  0  0  0  0  0  0
   28.0093  -21.0412  -14.0264 C   0  0  0  0  0  0  0  0  0  0  0  0
   27.2790  -21.3430  -12.7495 C   0  0  0  0  0  0  0  0  0  0  0  0
   26.4777  -22.3151  -12.7229 O   0  0  0  0  0  0  0  0  0  0  0  0
   26.1381  -20.5913   -5.2831 C   0  0  0  0  0  0  0  0  0  0  0  0
   27.2436  -20.3628   -6.7008 S   0  0  0  0  0  0  0  0  0  0  0  0
   26.2256  -19.8583   -8.1201 C   0  0  0  0  0  0  0  0  0  0  0  0
   27.0710  -19.7630   -9.3472 C   0  0  0  0  0  0  0  0  0  0  0  0
   26.5637  -20.6312  -10.4669 C   0  0  2  0  0  0  0  0  0  0  0  0
   27.4878  -20.5475  -11.5937 N   0  0  0  0  0  0  0  0  0  0  0  0
   25.2120  -20.2879  -10.9298 C   0  0  0  0  0  0  0  0  0  0  0  0
   24.9480  -19.1763  -11.4330 O   0  0  0  0  0  0  0  0  0  0  0  0
   22.4852  -22.1451  -12.2966 C   0  0  0  0  0  0  0  0  0  0  0  0
   22.8893  -20.9618  -11.4327 C   0  0  2  0  0  0  0  0  0  0  0  0
   24.1434  -21.2487  -10.8088 N   0  0  0  0  0  0  0  0  0  0  0  0
   21.8687  -20.6789  -10.4120 C   0  0  0  0  0  0  0  0  0  0  0  0
   20.7172  -20.3361  -10.7578 O   0  0  0  0  0  0  0  0  0  0  0  0
   22.1060  -20.7702   -9.0411 O   0  0  0  0  0  0  0  0  0  0  0  0
  1  2  1  0
  2  3  1  0
  3  4  2  0
  6  5  1  0
  7  6  1  0
  7  8  1  0
  9  8  1  1
 10  9  1  0
 10  3  1  0
 11 15  1  0
 11  9  1  0
 12 11  2  0
 14 13  1  1
 14 15  1  0
 16 14  1  0
 16 18  1  0
 17 16  2  0
M  END
$$$$
