GMA.pdb
     RDKit          3D

 18 17  0  0  1  0  0  0  0  0999 V2000
   21.8241  -16.7740  -18.1597 N   0  0  0  0  0  0  0  0  0  0  0  0
   21.4548  -15.4158  -18.4639 C   0  0  0  0  0  0  0  0  0  0  0  0
   21.7507  -14.5032  -17.3088 C   0  0  0  0  0  0  0  0  0  0  0  0
   21.0360  -14.5813  -16.2739 O   0  0  0  0  0  0  0  0  0  0  0  0
   27.3809  -12.4865  -15.1948 C   0  0  0  0  0  0  0  0  0  0  0  0
   26.7077  -14.1542  -14.9720 S   0  0  0  0  0  0  0  0  0  0  0  0
   24.9129  -14.0677  -15.2484 C   0  0  0  0  0  0  0  0  0  0  0  0
   24.5592  -12.7762  -15.9090 C   0  0  0  0  0  0  0  0  0  0  0  0
   23.0973  -12.6855  -16.2545 C   0  0  2  0  0  0  0  0  0  0  0  0
   22.8162  -13.5694  -17.3815 N   0  0  0  0  0  0  0  0  0  0  0  0
   22.6398  -11.3286  -16.5846 C   0  0  0  0  0  0  0  0  0  0  0  0
   22.9890  -10.7503  -17.6345 O   0  0  0  0  0  0  0  0  0  0  0  0
   19.8423   -9.1826  -15.7454 C   0  0  0  0  0  0  0  0  0  0  0  0
   21.3291   -9.3085  -16.0342 C   0  0  2  0  0  0  0  0  0  0  0  0
   21.7608  -10.6256  -15.6830 N   0  0  0  0  0  0  0  0  0  0  0  0
   22.1005   -8.3057  -15.2840 C   0  0  0  0  0  0  0  0  0  0  0  0
   21.9076   -7.0874  -15.4885 O   0  0  0  0  0  0  0  0  0  0  0  0
   23.0631   -8.6321  -14.3296 O   0  0  0  0  0  0  0  0  0  0  0  0
  1  2  1  0
  2  3  1  0
  3  4  2  0
  6  5  1  0
  7  6  1  0
  7  8  1  0
  9  8  1  6
 10  9  1  0
 10  3  1  0
 11 15  1  0
 11  9  1  0
 12 11  2  0
 14 13  1  1
 14 15  1  0
 16 14  1  0
 16 18  1  0
 17 16  2  0
M  END
$$$$
