GMA.pdb
     RDKit          3D

 18 17  0  0  1  0  0  0  0  0999 V2000
   15.4175  -10.8833  -14.3270 N   0  0  0  0  0  0  0  0  0  0  0  0
   15.7812   -9.5509  -14.7346 C   0  0  0  0  0  0  0  0  0  0  0  0
   17.2658   -9.3444  -14.6452 C   0  0  0  0  0  0  0  0  0  0  0  0
   17.8980   -9.8803  -13.6961 O   0  0  0  0  0  0  0  0  0  0  0  0
   21.2866  -12.2925  -18.6850 C   0  0  0  0  0  0  0  0  0  0  0  0
   21.0491  -10.4999  -18.5655 S   0  0  0  0  0  0  0  0  0  0  0  0
   20.3339  -10.1445  -16.9322 C   0  0  0  0  0  0  0  0  0  0  0  0
   20.0389   -8.6859  -16.8098 C   0  0  0  0  0  0  0  0  0  0  0  0
   19.3828   -8.3371  -15.5012 C   0  0  2  0  0  0  0  0  0  0  0  0
   17.9445   -8.5595  -15.6126 N   0  0  0  0  0  0  0  0  0  0  0  0
   19.6207   -6.9564  -15.0576 C   0  0  0  0  0  0  0  0  0  0  0  0
   18.8698   -6.0164  -15.3908 O   0  0  0  0  0  0  0  0  0  0  0  0
   21.8451   -5.2836  -12.5740 C   0  0  0  0  0  0  0  0  0  0  0  0
   20.9664   -5.2999  -13.8139 C   0  0  2  0  0  0  0  0  0  0  0  0
   20.7495   -6.6560  -14.2118 N   0  0  0  0  0  0  0  0  0  0  0  0
   21.5866   -4.5428  -14.9119 C   0  0  0  0  0  0  0  0  0  0  0  0
   22.1525   -5.1490  -15.8475 O   0  0  0  0  0  0  0  0  0  0  0  0
   21.5861   -3.1503  -14.9823 O   0  0  0  0  0  0  0  0  0  0  0  0
  1  2  1  0
  2  3  1  0
  3  4  2  0
  6  5  1  0
  7  6  1  0
  7  8  1  0
  9  8  1  6
 10  9  1  0
 10  3  1  0
 11 15  1  0
 11  9  1  0
 12 11  2  0
 14 13  1  1
 14 15  1  0
 16 14  1  0
 16 18  1  0
 17 16  2  0
M  END
$$$$
