GMA.pdb
     RDKit          3D

 18 17  0  0  1  0  0  0  0  0999 V2000
   20.6910  -14.9051  -19.3542 N   0  0  0  0  0  0  0  0  0  0  0  0
   21.9934  -14.2912  -19.3311 C   0  0  0  0  0  0  0  0  0  0  0  0
   22.1815  -13.4683  -18.0892 C   0  0  0  0  0  0  0  0  0  0  0  0
   21.2178  -13.3514  -17.2858 O   0  0  0  0  0  0  0  0  0  0  0  0
   27.6803  -12.4424  -14.8788 C   0  0  0  0  0  0  0  0  0  0  0  0
   26.7209  -13.9711  -15.0425 S   0  0  0  0  0  0  0  0  0  0  0  0
   24.9848  -13.5074  -15.3192 C   0  0  0  0  0  0  0  0  0  0  0  0
   24.9131  -12.1983  -16.0337 C   0  0  0  0  0  0  0  0  0  0  0  0
   23.5689  -11.9585  -16.6664 C   0  0  2  0  0  0  0  0  0  0  0  0
   23.4225  -12.8337  -17.8253 N   0  0  0  0  0  0  0  0  0  0  0  0
   23.3397  -10.5684  -17.0844 C   0  0  0  0  0  0  0  0  0  0  0  0
   23.8905  -10.0821  -18.0936 O   0  0  0  0  0  0  0  0  0  0  0  0
   20.9675   -8.3196  -17.5780 C   0  0  0  0  0  0  0  0  0  0  0  0
   22.2455   -8.3780  -16.7575 C   0  0  2  0  0  0  0  0  0  0  0  0
   22.4559   -9.7230  -16.3202 N   0  0  0  0  0  0  0  0  0  0  0  0
   22.1724   -7.4743  -15.5993 C   0  0  0  0  0  0  0  0  0  0  0  0
   21.9784   -7.9393  -14.4551 O   0  0  0  0  0  0  0  0  0  0  0  0
   22.3093   -6.0900  -15.6940 O   0  0  0  0  0  0  0  0  0  0  0  0
  1  2  1  0
  2  3  1  0
  3  4  2  0
  6  5  1  0
  7  6  1  0
  7  8  1  0
  9  8  1  6
 10  9  1  0
 10  3  1  0
 11 15  1  0
 11  9  1  0
 12 11  2  0
 14 13  1  1
 14 15  1  0
 16 14  1  0
 16 18  1  0
 17 16  2  0
M  END
$$$$
