GMA.pdb
     RDKit          3D

 18 17  0  0  1  0  0  0  0  0999 V2000
   19.2242  -11.6944  -16.8948 N   0  0  0  0  0  0  0  0  0  0  0  0
   20.2240  -10.6673  -16.7567 C   0  0  0  0  0  0  0  0  0  0  0  0
   19.6753   -9.4727  -16.0310 C   0  0  0  0  0  0  0  0  0  0  0  0
   18.6389   -8.9129  -16.4784 O   0  0  0  0  0  0  0  0  0  0  0  0
   16.2867  -10.2932  -10.8420 C   0  0  0  0  0  0  0  0  0  0  0  0
   17.7825   -9.2714  -10.8928 S   0  0  0  0  0  0  0  0  0  0  0  0
   18.1397   -8.9001  -12.6363 C   0  0  0  0  0  0  0  0  0  0  0  0
   19.4486   -8.1907  -12.7501 C   0  0  0  0  0  0  0  0  0  0  0  0
   19.7802   -7.8142  -14.1689 C   0  0  2  0  0  0  0  0  0  0  0  0
   20.3129   -8.9831  -14.8621 N   0  0  0  0  0  0  0  0  0  0  0  0
   20.7395   -6.7076  -14.2895 C   0  0  0  0  0  0  0  0  0  0  0  0
   21.9683   -6.8799  -14.1519 O   0  0  0  0  0  0  0  0  0  0  0  0
   20.5587   -3.1281  -15.3727 C   0  0  0  0  0  0  0  0  0  0  0  0
   21.2293   -4.3248  -14.7186 C   0  0  2  0  0  0  0  0  0  0  0  0
   20.2692   -5.3745  -14.5750 N   0  0  0  0  0  0  0  0  0  0  0  0
   21.7879   -3.9662  -13.4060 C   0  0  0  0  0  0  0  0  0  0  0  0
   21.1975   -4.3124  -12.3597 O   0  0  0  0  0  0  0  0  0  0  0  0
   22.9690   -3.2431  -13.2443 O   0  0  0  0  0  0  0  0  0  0  0  0
  1  2  1  0
  2  3  1  0
  3  4  2  0
  6  5  1  0
  7  6  1  0
  7  8  1  0
  9  8  1  1
 10  9  1  0
 10  3  1  0
 11 15  1  0
 11  9  1  0
 12 11  2  0
 14 13  1  1
 14 15  1  0
 16 14  1  0
 16 18  1  0
 17 16  2  0
M  END
$$$$
