AYY.pdb
     RDKit          3D

 30 31  0  0  1  0  0  0  0  0999 V2000
    9.8980  -17.1517   17.9613 C   0  0  0  0  0  0  0  0  0  0  0  0
   10.0362  -17.7236   19.3590 C   0  0  2  0  0  0  0  0  0  0  0  0
    9.0949  -18.7763   19.6223 N   0  0  0  0  0  0  0  0  0  0  0  0
    9.9193  -16.6262   20.3324 C   0  0  0  0  0  0  0  0  0  0  0  0
   10.8388  -15.7504   20.3307 O   0  0  0  0  0  0  0  0  0  0  0  0
    6.5777  -11.5536   26.8184 O   0  0  0  0  0  0  0  0  0  0  0  0
    6.7593  -12.4793   25.7990 C   0  0  0  0  0  0  0  0  0  0  0  0
    7.2283  -12.1152   24.5477 C   0  0  0  0  0  0  0  0  0  0  0  0
    7.4055  -13.0449   23.5400 C   0  0  0  0  0  0  0  0  0  0  0  0
    7.1152  -14.3714   23.7626 C   0  0  0  0  0  0  0  0  0  0  0  0
    7.2790  -15.4075   22.7419 C   0  0  0  0  0  0  0  0  0  0  0  0
    8.6330  -15.3666   22.0689 C   0  0  2  0  0  0  0  0  0  0  0  0
    8.8329  -16.5379   21.2387 N   0  0  0  0  0  0  0  0  0  0  0  0
    9.6507  -15.3796   23.1688 C   0  0  0  0  0  0  0  0  0  0  0  0
   10.2557  -14.3410   23.5409 O   0  0  0  0  0  0  0  0  0  0  0  0
    6.6484  -14.7295   25.0105 C   0  0  0  0  0  0  0  0  0  0  0  0
    6.4722  -13.7937   26.0181 C   0  0  0  0  0  0  0  0  0  0  0  0
   11.4928  -15.7956   31.4452 O   0  0  0  0  0  0  0  0  0  0  0  0
   11.0886  -15.7313   30.1066 C   0  0  0  0  0  0  0  0  0  0  0  0
   10.1817  -14.7894   29.6675 C   0  0  0  0  0  0  0  0  0  0  0  0
    9.7804  -14.7222   28.3486 C   0  0  0  0  0  0  0  0  0  0  0  0
   10.2767  -15.6055   27.4055 C   0  0  0  0  0  0  0  0  0  0  0  0
    9.8866  -15.5843   25.9907 C   0  0  0  0  0  0  0  0  0  0  0  0
   10.6501  -16.5504   25.1222 C   0  0  2  0  0  0  0  0  0  0  0  0
    9.9730  -16.5906   23.8421 N   0  0  0  0  0  0  0  0  0  0  0  0
   10.7552  -17.9008   25.6606 C   0  0  0  0  0  0  0  0  0  0  0  0
   11.5512  -18.1720   26.5872 O   0  0  0  0  0  0  0  0  0  0  0  0
   11.1828  -16.5424   27.8575 C   0  0  0  0  0  0  0  0  0  0  0  0
   11.5872  -16.6143   29.1729 C   0  0  0  0  0  0  0  0  0  0  0  0
    9.9646  -18.9131   25.1457 O   0  0  0  0  0  0  0  0  0  0  0  0
  2  1  1  6
  2  3  1  0
  4  2  1  0
  4 13  1  0
  5  4  2  0
  7 17  2  0
  7  6  1  0
  8  7  1  0
  9 10  1  0
  9  8  2  0
 10 16  2  0
 12 11  1  1
 11 10  1  0
 13 12  1  0
 14 15  2  0
 14 12  1  0
 16 17  1  0
 18 19  1  0
 19 20  2  0
 19 29  1  0
 20 21  1  0
 21 22  2  0
 22 23  1  0
 24 23  1  1
 24 25  1  0
 24 26  1  0
 25 14  1  0
 26 30  1  0
 27 26  2  0
 28 22  1  0
 29 28  2  0
M  END
$$$$
