AYY.pdb
     RDKit          3D

 30 31  0  0  1  0  0  0  0  0999 V2000
   11.7034    4.5924   20.1681 C   0  0  0  0  0  0  0  0  0  0  0  0
   11.9436    3.1648   20.6197 C   0  0  2  0  0  0  0  0  0  0  0  0
   10.7467    2.3706   20.6057 N   0  0  0  0  0  0  0  0  0  0  0  0
   12.5709    3.1892   21.9507 C   0  0  0  0  0  0  0  0  0  0  0  0
   13.7042    3.7539   22.0461 O   0  0  0  0  0  0  0  0  0  0  0  0
   10.2833    8.7137   24.7725 O   0  0  0  0  0  0  0  0  0  0  0  0
   10.5409    7.3585   24.9342 C   0  0  0  0  0  0  0  0  0  0  0  0
    9.5728    6.4718   25.3757 C   0  0  0  0  0  0  0  0  0  0  0  0
    9.8399    5.1246   25.5333 C   0  0  0  0  0  0  0  0  0  0  0  0
   11.0921    4.6290   25.2503 C   0  0  0  0  0  0  0  0  0  0  0  0
   11.4436    3.2156   25.3948 C   0  0  0  0  0  0  0  0  0  0  0  0
   12.5051    2.7665   24.4151 C   0  0  2  0  0  0  0  0  0  0  0  0
   11.9487    2.6113   23.0856 N   0  0  0  0  0  0  0  0  0  0  0  0
   12.9816    1.4289   24.8941 C   0  0  0  0  0  0  0  0  0  0  0  0
   12.3268    0.3714   24.7042 O   0  0  0  0  0  0  0  0  0  0  0  0
   12.0532    5.5158   24.8108 C   0  0  0  0  0  0  0  0  0  0  0  0
   11.7808    6.8662   24.6543 C   0  0  0  0  0  0  0  0  0  0  0  0
   17.7145   -5.6684   24.9625 O   0  0  0  0  0  0  0  0  0  0  0  0
   16.9952   -4.4698   24.8906 C   0  0  0  0  0  0  0  0  0  0  0  0
   15.7916   -4.3062   25.5442 C   0  0  0  0  0  0  0  0  0  0  0  0
   15.0790   -3.1262   25.4761 C   0  0  0  0  0  0  0  0  0  0  0  0
   15.5481   -2.0502   24.7426 C   0  0  0  0  0  0  0  0  0  0  0  0
   14.8349   -0.7722   24.6315 C   0  0  0  0  0  0  0  0  0  0  0  0
   14.7352   -0.0030   25.9234 C   0  0  2  0  0  0  0  0  0  0  0  0
   14.2146    1.3080   25.5932 N   0  0  0  0  0  0  0  0  0  0  0  0
   15.9934    0.1399   26.6454 C   0  0  0  0  0  0  0  0  0  0  0  0
   16.5444   -0.8408   27.1935 O   0  0  0  0  0  0  0  0  0  0  0  0
   16.7527   -2.2267   24.0938 C   0  0  0  0  0  0  0  0  0  0  0  0
   17.4687   -3.4024   24.1581 C   0  0  0  0  0  0  0  0  0  0  0  0
   16.6017    1.3796   26.7343 O   0  0  0  0  0  0  0  0  0  0  0  0
  2  1  1  1
  2  3  1  0
  4  2  1  0
  4 13  1  0
  5  4  2  0
  7 17  2  0
  7  6  1  0
  8  7  1  0
  9 10  1  0
  9  8  2  0
 10 16  2  0
 12 11  1  1
 11 10  1  0
 13 12  1  0
 14 15  2  0
 14 12  1  0
 16 17  1  0
 18 19  1  0
 19 20  2  0
 19 29  1  0
 20 21  1  0
 21 22  2  0
 22 23  1  0
 24 23  1  6
 24 25  1  0
 24 26  1  0
 25 14  1  0
 26 30  1  0
 27 26  2  0
 28 22  1  0
 29 28  2  0
M  END
$$$$
