AYY.pdb
     RDKit          3D

 30 31  0  0  1  0  0  0  0  0999 V2000
    7.7218  -12.3438   21.1297 C   0  0  0  0  0  0  0  0  0  0  0  0
    8.0557  -13.4953   20.2010 C   0  0  2  0  0  0  0  0  0  0  0  0
    7.0235  -13.7437   19.2333 N   0  0  0  0  0  0  0  0  0  0  0  0
    8.3463  -14.6880   21.0124 C   0  0  0  0  0  0  0  0  0  0  0  0
    7.3598  -15.4123   21.3508 O   0  0  0  0  0  0  0  0  0  0  0  0
   12.5378  -21.8296   23.9717 O   0  0  0  0  0  0  0  0  0  0  0  0
   12.2270  -20.5920   23.4235 C   0  0  0  0  0  0  0  0  0  0  0  0
   11.2783  -20.4455   22.4250 C   0  0  0  0  0  0  0  0  0  0  0  0
   10.9764  -19.2087   21.8862 C   0  0  0  0  0  0  0  0  0  0  0  0
   11.6221  -18.0804   22.3374 C   0  0  0  0  0  0  0  0  0  0  0  0
   11.3523  -16.7412   21.8119 C   0  0  0  0  0  0  0  0  0  0  0  0
    9.9515  -16.2576   22.1152 C   0  0  2  0  0  0  0  0  0  0  0  0
    9.6653  -15.0260   21.4063 N   0  0  0  0  0  0  0  0  0  0  0  0
    9.9102  -15.9833   23.5879 C   0  0  0  0  0  0  0  0  0  0  0  0
   10.5856  -15.0664   24.1229 O   0  0  0  0  0  0  0  0  0  0  0  0
   12.5663  -18.2310   23.3320 C   0  0  0  0  0  0  0  0  0  0  0  0
   12.8657  -19.4734   23.8694 C   0  0  0  0  0  0  0  0  0  0  0  0
    6.9194  -10.5254   26.1427 O   0  0  0  0  0  0  0  0  0  0  0  0
    7.1212  -11.9102   26.1740 C   0  0  0  0  0  0  0  0  0  0  0  0
    6.5797  -12.7436   25.2177 C   0  0  0  0  0  0  0  0  0  0  0  0
    6.7761  -14.1095   25.2446 C   0  0  0  0  0  0  0  0  0  0  0  0
    7.5313  -14.7027   26.2415 C   0  0  0  0  0  0  0  0  0  0  0  0
    7.7735  -16.1480   26.3237 C   0  0  0  0  0  0  0  0  0  0  0  0
    9.1499  -16.5725   25.8813 C   0  0  2  0  0  0  0  0  0  0  0  0
    9.0897  -16.7660   24.4468 N   0  0  0  0  0  0  0  0  0  0  0  0
    9.6459  -17.7870   26.5165 C   0  0  0  0  0  0  0  0  0  0  0  0
    9.8351  -17.8448   27.7521 O   0  0  0  0  0  0  0  0  0  0  0  0
    8.0672  -13.8581   27.1917 C   0  0  0  0  0  0  0  0  0  0  0  0
    7.8746  -12.4938   27.1700 C   0  0  0  0  0  0  0  0  0  0  0  0
    9.9170  -18.9064   25.7494 O   0  0  0  0  0  0  0  0  0  0  0  0
  2  1  1  1
  2  3  1  0
  4  2  1  0
  4 13  1  0
  5  4  2  0
  7 17  2  0
  7  6  1  0
  8  7  1  0
  9 10  1  0
  9  8  2  0
 10 16  2  0
 12 11  1  6
 11 10  1  0
 13 12  1  0
 14 15  2  0
 14 12  1  0
 16 17  1  0
 18 19  1  0
 19 20  2  0
 19 29  1  0
 20 21  1  0
 21 22  2  0
 22 23  1  0
 24 23  1  1
 24 25  1  0
 24 26  1  0
 25 14  1  0
 26 30  1  0
 27 26  2  0
 28 22  1  0
 29 28  2  0
M  END
$$$$
