AYY.pdb
     RDKit          3D

 30 31  0  0  1  0  0  0  0  0999 V2000
   12.1277  -18.0633   15.8707 C   0  0  0  0  0  0  0  0  0  0  0  0
   11.3181  -17.7133   17.1043 C   0  0  2  0  0  0  0  0  0  0  0  0
   10.3100  -16.7238   16.8430 N   0  0  0  0  0  0  0  0  0  0  0  0
   12.2400  -17.2899   18.1703 C   0  0  0  0  0  0  0  0  0  0  0  0
   13.1152  -18.1297   18.5460 O   0  0  0  0  0  0  0  0  0  0  0  0
   17.8929  -15.0122   15.6914 O   0  0  0  0  0  0  0  0  0  0  0  0
   16.8991  -14.8630   16.6502 C   0  0  0  0  0  0  0  0  0  0  0  0
   17.0084  -15.4131   17.9166 C   0  0  0  0  0  0  0  0  0  0  0  0
   16.0132  -15.2585   18.8636 C   0  0  0  0  0  0  0  0  0  0  0  0
   14.8761  -14.5441   18.5631 C   0  0  0  0  0  0  0  0  0  0  0  0
   13.7843  -14.3416   19.5166 C   0  0  0  0  0  0  0  0  0  0  0  0
   13.0437  -15.6182   19.8483 C   0  0  2  0  0  0  0  0  0  0  0  0
   12.1658  -16.0036   18.7611 N   0  0  0  0  0  0  0  0  0  0  0  0
   12.2081  -15.3188   21.0557 C   0  0  0  0  0  0  0  0  0  0  0  0
   12.2395  -14.2043   21.6389 O   0  0  0  0  0  0  0  0  0  0  0  0
   14.7716  -13.9981   17.3005 C   0  0  0  0  0  0  0  0  0  0  0  0
   15.7722  -14.1557   16.3540 C   0  0  0  0  0  0  0  0  0  0  0  0
    8.0652  -12.6021   17.7698 O   0  0  0  0  0  0  0  0  0  0  0  0
    8.3078  -13.4289   18.8730 C   0  0  0  0  0  0  0  0  0  0  0  0
    8.2687  -12.9453   20.1641 C   0  0  0  0  0  0  0  0  0  0  0  0
    8.5071  -13.7568   21.2547 C   0  0  0  0  0  0  0  0  0  0  0  0
    8.7976  -15.1006   21.0947 C   0  0  0  0  0  0  0  0  0  0  0  0
    9.0616  -16.0119   22.2146 C   0  0  0  0  0  0  0  0  0  0  0  0
   10.4813  -15.9806   22.7186 C   0  0  2  0  0  0  0  0  0  0  0  0
   11.3343  -16.3043   21.5933 N   0  0  0  0  0  0  0  0  0  0  0  0
   10.7571  -16.8963   23.8186 C   0  0  0  0  0  0  0  0  0  0  0  0
   11.5847  -17.8271   23.6988 O   0  0  0  0  0  0  0  0  0  0  0  0
    8.8337  -15.5718   19.7986 C   0  0  0  0  0  0  0  0  0  0  0  0
    8.5965  -14.7664   18.7058 C   0  0  0  0  0  0  0  0  0  0  0  0
   10.0974  -16.7445   25.0255 O   0  0  0  0  0  0  0  0  0  0  0  0
  2  1  1  6
  2  3  1  0
  4  2  1  0
  4 13  1  0
  5  4  2  0
  7 17  2  0
  7  6  1  0
  8  7  1  0
  9 10  1  0
  9  8  2  0
 10 16  2  0
 12 11  1  6
 11 10  1  0
 13 12  1  0
 14 15  2  0
 14 12  1  0
 16 17  1  0
 18 19  1  0
 19 20  2  0
 19 29  1  0
 20 21  1  0
 21 22  2  0
 22 23  1  0
 24 23  1  6
 24 25  1  0
 24 26  1  0
 25 14  1  0
 26 30  1  0
 27 26  2  0
 28 22  1  0
 29 28  2  0
M  END
$$$$
