AYY.pdb
     RDKit          3D

 30 31  0  0  1  0  0  0  0  0999 V2000
    9.2196  -19.4784   16.6772 C   0  0  0  0  0  0  0  0  0  0  0  0
    9.6922  -19.4428   18.1177 C   0  0  2  0  0  0  0  0  0  0  0  0
    8.6058  -19.4519   19.0575 N   0  0  0  0  0  0  0  0  0  0  0  0
   10.5660  -18.2729   18.2998 C   0  0  0  0  0  0  0  0  0  0  0  0
   11.6482  -18.2498   17.6359 O   0  0  0  0  0  0  0  0  0  0  0  0
    5.3811  -14.4996   21.7156 O   0  0  0  0  0  0  0  0  0  0  0  0
    6.5878  -14.5409   21.0294 C   0  0  0  0  0  0  0  0  0  0  0  0
    7.3177  -13.3967   20.7524 C   0  0  0  0  0  0  0  0  0  0  0  0
    8.5180  -13.4491   20.0685 C   0  0  0  0  0  0  0  0  0  0  0  0
    9.0202  -14.6572   19.6423 C   0  0  0  0  0  0  0  0  0  0  0  0
   10.2831  -14.7855   18.9138 C   0  0  0  0  0  0  0  0  0  0  0  0
   11.0589  -16.0288   19.2884 C   0  0  2  0  0  0  0  0  0  0  0  0
   10.2272  -17.2105   19.1749 N   0  0  0  0  0  0  0  0  0  0  0  0
   11.4581  -15.8599   20.7229 C   0  0  0  0  0  0  0  0  0  0  0  0
   12.1570  -14.8917   21.1196 O   0  0  0  0  0  0  0  0  0  0  0  0
    8.2899  -15.7942   19.9203 C   0  0  0  0  0  0  0  0  0  0  0  0
    7.0866  -15.7369   20.6065 C   0  0  0  0  0  0  0  0  0  0  0  0
    5.4663  -14.9818   24.7726 O   0  0  0  0  0  0  0  0  0  0  0  0
    6.8326  -15.0699   24.4816 C   0  0  0  0  0  0  0  0  0  0  0  0
    7.7000  -15.7830   25.2825 C   0  0  0  0  0  0  0  0  0  0  0  0
    9.0479  -15.8726   24.9994 C   0  0  0  0  0  0  0  0  0  0  0  0
    9.5877  -15.2446   23.8903 C   0  0  0  0  0  0  0  0  0  0  0  0
   11.0116  -15.3023   23.5389 C   0  0  0  0  0  0  0  0  0  0  0  0
   11.4826  -16.6575   23.0784 C   0  0  2  0  0  0  0  0  0  0  0  0
   11.0522  -16.8074   21.7033 N   0  0  0  0  0  0  0  0  0  0  0  0
   10.9851  -17.7761   23.8695 C   0  0  0  0  0  0  0  0  0  0  0  0
   11.2392  -17.8736   25.0909 O   0  0  0  0  0  0  0  0  0  0  0  0
    8.7097  -14.5347   23.0976 C   0  0  0  0  0  0  0  0  0  0  0  0
    7.3631  -14.4417   23.3752 C   0  0  0  0  0  0  0  0  0  0  0  0
   10.2150  -18.7573   23.2704 O   0  0  0  0  0  0  0  0  0  0  0  0
  2  1  1  6
  2  3  1  0
  4  2  1  0
  4 13  1  0
  5  4  2  0
  7 17  2  0
  7  6  1  0
  8  7  1  0
  9 10  1  0
  9  8  2  0
 10 16  2  0
 12 11  1  1
 11 10  1  0
 13 12  1  0
 14 15  2  0
 14 12  1  0
 16 17  1  0
 18 19  1  0
 19 20  2  0
 19 29  1  0
 20 21  1  0
 21 22  2  0
 22 23  1  0
 24 23  1  1
 24 25  1  0
 24 26  1  0
 25 14  1  0
 26 30  1  0
 27 26  2  0
 28 22  1  0
 29 28  2  0
M  END
$$$$
