AYY.pdb
     RDKit          3D

 30 31  0  0  1  0  0  0  0  0999 V2000
    8.4282  -17.9879   17.4868 C   0  0  0  0  0  0  0  0  0  0  0  0
    7.4127  -18.9551   18.0639 C   0  0  2  0  0  0  0  0  0  0  0  0
    6.4807  -19.4320   17.0802 N   0  0  0  0  0  0  0  0  0  0  0  0
    6.7322  -18.3064   19.1960 C   0  0  0  0  0  0  0  0  0  0  0  0
    6.0632  -17.2568   18.9449 O   0  0  0  0  0  0  0  0  0  0  0  0
    0.5122  -20.6249   19.6341 O   0  0  0  0  0  0  0  0  0  0  0  0
    1.6931  -20.3062   20.2921 C   0  0  0  0  0  0  0  0  0  0  0  0
    2.8284  -21.0933   20.1915 C   0  0  0  0  0  0  0  0  0  0  0  0
    3.9988  -20.7668   20.8508 C   0  0  0  0  0  0  0  0  0  0  0  0
    4.0612  -19.6361   21.6324 C   0  0  0  0  0  0  0  0  0  0  0  0
    5.2664  -19.2313   22.3576 C   0  0  0  0  0  0  0  0  0  0  0  0
    6.0896  -18.2050   21.6112 C   0  0  2  0  0  0  0  0  0  0  0  0
    6.8115  -18.8199   20.5149 N   0  0  0  0  0  0  0  0  0  0  0  0
    7.0823  -17.6647   22.5953 C   0  0  0  0  0  0  0  0  0  0  0  0
    8.1405  -18.2774   22.8920 O   0  0  0  0  0  0  0  0  0  0  0  0
    2.9281  -18.8551   21.7297 C   0  0  0  0  0  0  0  0  0  0  0  0
    1.7564  -19.1864   21.0667 C   0  0  0  0  0  0  0  0  0  0  0  0
    8.4762  -12.6828   18.4790 O   0  0  0  0  0  0  0  0  0  0  0  0
    8.2994  -13.0899   19.8066 C   0  0  0  0  0  0  0  0  0  0  0  0
    7.0491  -13.1519   20.3856 C   0  0  0  0  0  0  0  0  0  0  0  0
    6.8701  -13.5528   21.6941 C   0  0  0  0  0  0  0  0  0  0  0  0
    7.9481  -13.9118   22.4846 C   0  0  0  0  0  0  0  0  0  0  0  0
    7.8207  -14.3441   23.8815 C   0  0  0  0  0  0  0  0  0  0  0  0
    7.8864  -15.8367   24.0774 C   0  0  2  0  0  0  0  0  0  0  0  0
    6.8567  -16.4166   23.2393 N   0  0  0  0  0  0  0  0  0  0  0  0
    7.7007  -16.2787   25.4539 C   0  0  0  0  0  0  0  0  0  0  0  0
    6.6277  -16.8002   25.8311 O   0  0  0  0  0  0  0  0  0  0  0  0
    9.1929  -13.8454   21.8937 C   0  0  0  0  0  0  0  0  0  0  0  0
    9.3778  -13.4460   20.5878 C   0  0  0  0  0  0  0  0  0  0  0  0
    8.7239  -16.1244   26.3727 O   0  0  0  0  0  0  0  0  0  0  0  0
  2  1  1  6
  2  3  1  0
  4  2  1  0
  4 13  1  0
  5  4  2  0
  7 17  2  0
  7  6  1  0
  8  7  1  0
  9 10  1  0
  9  8  2  0
 10 16  2  0
 12 11  1  1
 11 10  1  0
 13 12  1  0
 14 15  2  0
 14 12  1  0
 16 17  1  0
 18 19  1  0
 19 20  2  0
 19 29  1  0
 20 21  1  0
 21 22  2  0
 22 23  1  0
 24 23  1  1
 24 25  1  0
 24 26  1  0
 25 14  1  0
 26 30  1  0
 27 26  2  0
 28 22  1  0
 29 28  2  0
M  END
$$$$
