AYY.pdb
     RDKit          3D

 30 31  0  0  1  0  0  0  0  0999 V2000
    7.3478  -19.0898   21.5855 C   0  0  0  0  0  0  0  0  0  0  0  0
    7.5097  -18.2519   20.3319 C   0  0  2  0  0  0  0  0  0  0  0  0
    7.7943  -19.0450   19.1684 N   0  0  0  0  0  0  0  0  0  0  0  0
    8.5481  -17.2373   20.5723 C   0  0  0  0  0  0  0  0  0  0  0  0
    9.7142  -17.4880   20.1366 O   0  0  0  0  0  0  0  0  0  0  0  0
    7.1817  -13.2552   15.5921 O   0  0  0  0  0  0  0  0  0  0  0  0
    7.5192  -13.3474   16.9362 C   0  0  0  0  0  0  0  0  0  0  0  0
    6.5611  -13.3814   17.9360 C   0  0  0  0  0  0  0  0  0  0  0  0
    6.9080  -13.4732   19.2711 C   0  0  0  0  0  0  0  0  0  0  0  0
    8.2323  -13.5337   19.6400 C   0  0  0  0  0  0  0  0  0  0  0  0
    8.6700  -13.6315   21.0332 C   0  0  0  0  0  0  0  0  0  0  0  0
    9.2669  -14.9793   21.3729 C   0  0  2  0  0  0  0  0  0  0  0  0
    8.2728  -16.0281   21.2588 N   0  0  0  0  0  0  0  0  0  0  0  0
    9.7124  -14.8948   22.8012 C   0  0  0  0  0  0  0  0  0  0  0  0
    9.4767  -13.8919   23.5236 O   0  0  0  0  0  0  0  0  0  0  0  0
    9.1830  -13.4995   18.6409 C   0  0  0  0  0  0  0  0  0  0  0  0
    8.8305  -13.4074   17.3033 C   0  0  0  0  0  0  0  0  0  0  0  0
   10.6925  -15.4058   31.2127 O   0  0  0  0  0  0  0  0  0  0  0  0
   10.4462  -15.4501   29.8355 C   0  0  0  0  0  0  0  0  0  0  0  0
   10.3027  -16.6455   29.1626 C   0  0  0  0  0  0  0  0  0  0  0  0
   10.0598  -16.6939   27.8048 C   0  0  0  0  0  0  0  0  0  0  0  0
    9.9494  -15.5340   27.0576 C   0  0  0  0  0  0  0  0  0  0  0  0
    9.6939  -15.5221   25.6123 C   0  0  0  0  0  0  0  0  0  0  0  0
   10.8962  -15.8538   24.7669 C   0  0  2  0  0  0  0  0  0  0  0  0
   10.4308  -15.9669   23.3997 N   0  0  0  0  0  0  0  0  0  0  0  0
   11.5897  -17.0778   25.1485 C   0  0  0  0  0  0  0  0  0  0  0  0
   12.6127  -17.0489   25.8686 O   0  0  0  0  0  0  0  0  0  0  0  0
   10.0949  -14.3453   27.7424 C   0  0  0  0  0  0  0  0  0  0  0  0
   10.3375  -14.2907   29.0978 C   0  0  0  0  0  0  0  0  0  0  0  0
   11.1180  -18.3034   24.7125 O   0  0  0  0  0  0  0  0  0  0  0  0
  2  1  1  1
  2  3  1  0
  4  2  1  0
  4 13  1  0
  5  4  2  0
  7 17  2  0
  7  6  1  0
  8  7  1  0
  9 10  1  0
  9  8  2  0
 10 16  2  0
 12 11  1  1
 11 10  1  0
 13 12  1  0
 14 15  2  0
 14 12  1  0
 16 17  1  0
 18 19  1  0
 19 20  2  0
 19 29  1  0
 20 21  1  0
 21 22  2  0
 22 23  1  0
 24 23  1  1
 24 25  1  0
 24 26  1  0
 25 14  1  0
 26 30  1  0
 27 26  2  0
 28 22  1  0
 29 28  2  0
M  END
$$$$
