AYY.pdb
     RDKit          3D

 30 31  0  0  1  0  0  0  0  0999 V2000
    9.9156  -19.5361   21.8094 C   0  0  0  0  0  0  0  0  0  0  0  0
    9.5901  -18.5637   20.6922 C   0  0  2  0  0  0  0  0  0  0  0  0
   10.3338  -18.8294   19.4923 N   0  0  0  0  0  0  0  0  0  0  0  0
    9.8072  -17.1926   21.1806 C   0  0  0  0  0  0  0  0  0  0  0  0
   10.9120  -16.6409   20.8846 O   0  0  0  0  0  0  0  0  0  0  0  0
    7.2811  -13.3759   16.4291 O   0  0  0  0  0  0  0  0  0  0  0  0
    7.3924  -13.6268   17.7906 C   0  0  0  0  0  0  0  0  0  0  0  0
    6.8279  -14.7445   18.3826 C   0  0  0  0  0  0  0  0  0  0  0  0
    6.9447  -14.9848   19.7390 C   0  0  0  0  0  0  0  0  0  0  0  0
    7.6348  -14.1052   20.5412 C   0  0  0  0  0  0  0  0  0  0  0  0
    7.7972  -14.2974   21.9831 C   0  0  0  0  0  0  0  0  0  0  0  0
    9.0159  -15.1207   22.3369 C   0  0  2  0  0  0  0  0  0  0  0  0
    8.8343  -16.5055   21.9490 N   0  0  0  0  0  0  0  0  0  0  0  0
    9.1505  -15.0545   23.8280 C   0  0  0  0  0  0  0  0  0  0  0  0
    8.9410  -13.9979   24.4784 O   0  0  0  0  0  0  0  0  0  0  0  0
    8.1955  -12.9933   19.9473 C   0  0  0  0  0  0  0  0  0  0  0  0
    8.0757  -12.7564   18.5865 C   0  0  0  0  0  0  0  0  0  0  0  0
    6.4756  -10.6575   27.4222 O   0  0  0  0  0  0  0  0  0  0  0  0
    6.7776  -11.9866   27.1036 C   0  0  0  0  0  0  0  0  0  0  0  0
    5.8517  -12.8179   26.5086 C   0  0  0  0  0  0  0  0  0  0  0  0
    6.1450  -14.1290   26.1927 C   0  0  0  0  0  0  0  0  0  0  0  0
    7.3916  -14.6667   26.4627 C   0  0  0  0  0  0  0  0  0  0  0  0
    7.7613  -16.0527   26.1518 C   0  0  0  0  0  0  0  0  0  0  0  0
    9.2424  -16.2785   25.9909 C   0  0  2  0  0  0  0  0  0  0  0  0
    9.5271  -16.2068   24.5723 N   0  0  0  0  0  0  0  0  0  0  0  0
    9.7259  -17.5471   26.5215 C   0  0  0  0  0  0  0  0  0  0  0  0
    9.9050  -17.7135   27.7487 O   0  0  0  0  0  0  0  0  0  0  0  0
    8.3084  -13.8250   27.0578 C   0  0  0  0  0  0  0  0  0  0  0  0
    8.0213  -12.5152   27.3755 C   0  0  0  0  0  0  0  0  0  0  0  0
    9.9963  -18.5972   25.6618 O   0  0  0  0  0  0  0  0  0  0  0  0
  2  1  1  1
  2  3  1  0
  4  2  1  0
  4 13  1  0
  5  4  2  0
  7 17  2  0
  7  6  1  0
  8  7  1  0
  9 10  1  0
  9  8  2  0
 10 16  2  0
 12 11  1  1
 11 10  1  0
 13 12  1  0
 14 15  2  0
 14 12  1  0
 16 17  1  0
 18 19  1  0
 19 20  2  0
 19 29  1  0
 20 21  1  0
 21 22  2  0
 22 23  1  0
 24 23  1  6
 24 25  1  0
 24 26  1  0
 25 14  1  0
 26 30  1  0
 27 26  2  0
 28 22  1  0
 29 28  2  0
M  END
$$$$
