AYY.pdb
     RDKit          3D

 30 31  0  0  1  0  0  0  0  0999 V2000
    9.2373  -17.8218   18.6138 C   0  0  0  0  0  0  0  0  0  0  0  0
    8.0855  -18.7816   18.8419 C   0  0  2  0  0  0  0  0  0  0  0  0
    6.9504  -18.4924   18.0104 N   0  0  0  0  0  0  0  0  0  0  0  0
    7.7364  -18.7697   20.2714 C   0  0  0  0  0  0  0  0  0  0  0  0
    6.9212  -17.8773   20.6607 O   0  0  0  0  0  0  0  0  0  0  0  0
    6.7692  -21.4072   28.6697 O   0  0  0  0  0  0  0  0  0  0  0  0
    7.0891  -21.3241   27.3207 C   0  0  0  0  0  0  0  0  0  0  0  0
    6.1177  -21.2727   26.3347 C   0  0  0  0  0  0  0  0  0  0  0  0
    6.4471  -21.1901   24.9946 C   0  0  0  0  0  0  0  0  0  0  0  0
    7.7669  -21.1568   24.6066 C   0  0  0  0  0  0  0  0  0  0  0  0
    8.1865  -21.0702   23.2071 C   0  0  0  0  0  0  0  0  0  0  0  0
    7.8705  -19.7322   22.5762 C   0  0  2  0  0  0  0  0  0  0  0  0
    8.2788  -19.7074   21.1855 N   0  0  0  0  0  0  0  0  0  0  0  0
    8.6703  -18.7123   23.3285 C   0  0  0  0  0  0  0  0  0  0  0  0
    9.8690  -18.4530   23.0471 O   0  0  0  0  0  0  0  0  0  0  0  0
    8.7310  -21.2082   25.5921 C   0  0  0  0  0  0  0  0  0  0  0  0
    8.3960  -21.2910   26.9348 C   0  0  0  0  0  0  0  0  0  0  0  0
   10.7470  -13.4678   30.1944 O   0  0  0  0  0  0  0  0  0  0  0  0
   10.0668  -14.2129   29.2240 C   0  0  0  0  0  0  0  0  0  0  0  0
    9.6582  -15.5090   29.4598 C   0  0  0  0  0  0  0  0  0  0  0  0
    8.9873  -16.2474   28.5060 C   0  0  0  0  0  0  0  0  0  0  0  0
    8.6952  -15.7116   27.2636 C   0  0  0  0  0  0  0  0  0  0  0  0
    7.9868  -16.4475   26.2096 C   0  0  0  0  0  0  0  0  0  0  0  0
    8.8852  -17.0354   25.1524 C   0  0  2  0  0  0  0  0  0  0  0  0
    8.0894  -17.9893   24.4071 N   0  0  0  0  0  0  0  0  0  0  0  0
   10.0801  -17.6934   25.6661 C   0  0  0  0  0  0  0  0  0  0  0  0
   11.2174  -17.1979   25.5026 O   0  0  0  0  0  0  0  0  0  0  0  0
    9.1093  -14.4147   27.0406 C   0  0  0  0  0  0  0  0  0  0  0  0
    9.7794  -13.6726   27.9889 C   0  0  0  0  0  0  0  0  0  0  0  0
    9.9689  -18.8910   26.3504 O   0  0  0  0  0  0  0  0  0  0  0  0
  2  1  1  1
  2  3  1  0
  4  2  1  0
  4 13  1  0
  5  4  2  0
  7 17  2  0
  7  6  1  0
  8  7  1  0
  9 10  1  0
  9  8  2  0
 10 16  2  0
 12 11  1  1
 11 10  1  0
 13 12  1  0
 14 15  2  0
 14 12  1  0
 16 17  1  0
 18 19  1  0
 19 20  2  0
 19 29  1  0
 20 21  1  0
 21 22  2  0
 22 23  1  0
 24 23  1  1
 24 25  1  0
 24 26  1  0
 25 14  1  0
 26 30  1  0
 27 26  2  0
 28 22  1  0
 29 28  2  0
M  END
$$$$
