AYY.pdb
     RDKit          3D

 30 31  0  0  1  0  0  0  0  0999 V2000
    7.1015  -19.5959   22.3865 C   0  0  0  0  0  0  0  0  0  0  0  0
    7.6305  -18.8117   21.2012 C   0  0  2  0  0  0  0  0  0  0  0  0
    8.4039  -19.6219   20.3017 N   0  0  0  0  0  0  0  0  0  0  0  0
    8.3982  -17.6600   21.7009 C   0  0  0  0  0  0  0  0  0  0  0  0
    9.6624  -17.7757   21.7298 O   0  0  0  0  0  0  0  0  0  0  0  0
    7.5313  -13.1960   16.4911 O   0  0  0  0  0  0  0  0  0  0  0  0
    7.6119  -13.3819   17.8652 C   0  0  0  0  0  0  0  0  0  0  0  0
    8.5602  -12.7370   18.6418 C   0  0  0  0  0  0  0  0  0  0  0  0
    8.6317  -12.9292   20.0090 C   0  0  0  0  0  0  0  0  0  0  0  0
    7.7487  -13.7782   20.6361 C   0  0  0  0  0  0  0  0  0  0  0  0
    7.7677  -14.0280   22.0781 C   0  0  0  0  0  0  0  0  0  0  0  0
    8.5330  -15.2781   22.4521 C   0  0  2  0  0  0  0  0  0  0  0  0
    7.7672  -16.4671   22.1345 N   0  0  0  0  0  0  0  0  0  0  0  0
    8.7347  -15.2203   23.9360 C   0  0  0  0  0  0  0  0  0  0  0  0
    8.5282  -14.1749   24.6050 O   0  0  0  0  0  0  0  0  0  0  0  0
    6.8059  -14.4184   19.8586 C   0  0  0  0  0  0  0  0  0  0  0  0
    6.7380  -14.2225   18.4878 C   0  0  0  0  0  0  0  0  0  0  0  0
    6.4647  -10.6563   27.2736 O   0  0  0  0  0  0  0  0  0  0  0  0
    6.7763  -12.0092   27.0951 C   0  0  0  0  0  0  0  0  0  0  0  0
    5.8309  -12.9218   26.6761 C   0  0  0  0  0  0  0  0  0  0  0  0
    6.1336  -14.2567   26.4987 C   0  0  0  0  0  0  0  0  0  0  0  0
    7.4099  -14.7370   26.7365 C   0  0  0  0  0  0  0  0  0  0  0  0
    7.7910  -16.1442   26.5673 C   0  0  0  0  0  0  0  0  0  0  0  0
    9.2084  -16.3512   26.0997 C   0  0  2  0  0  0  0  0  0  0  0  0
    9.1752  -16.3682   24.6515 N   0  0  0  0  0  0  0  0  0  0  0  0
    9.8381  -17.5720   26.5872 C   0  0  0  0  0  0  0  0  0  0  0  0
   10.1742  -17.6972   27.7859 O   0  0  0  0  0  0  0  0  0  0  0  0
    8.3460  -13.8141   27.1551 C   0  0  0  0  0  0  0  0  0  0  0  0
    8.0496  -12.4802   27.3339 C   0  0  0  0  0  0  0  0  0  0  0  0
   10.0749  -18.6218   25.7172 O   0  0  0  0  0  0  0  0  0  0  0  0
  2  1  1  1
  2  3  1  0
  4  2  1  0
  4 13  1  0
  5  4  2  0
  7 17  2  0
  7  6  1  0
  8  7  1  0
  9 10  1  0
  9  8  2  0
 10 16  2  0
 12 11  1  1
 11 10  1  0
 13 12  1  0
 14 15  2  0
 14 12  1  0
 16 17  1  0
 18 19  1  0
 19 20  2  0
 19 29  1  0
 20 21  1  0
 21 22  2  0
 22 23  1  0
 24 23  1  1
 24 25  1  0
 24 26  1  0
 25 14  1  0
 26 30  1  0
 27 26  2  0
 28 22  1  0
 29 28  2  0
M  END
$$$$
