AYY.pdb
     RDKit          3D

 30 31  0  0  1  0  0  0  0  0999 V2000
    8.7850  -19.4174   21.6550 C   0  0  0  0  0  0  0  0  0  0  0  0
    8.4255  -18.5397   20.4718 C   0  0  2  0  0  0  0  0  0  0  0  0
    8.7546  -19.1463   19.2119 N   0  0  0  0  0  0  0  0  0  0  0  0
    9.0780  -17.2312   20.6383 C   0  0  0  0  0  0  0  0  0  0  0  0
   10.2005  -17.0674   20.0679 O   0  0  0  0  0  0  0  0  0  0  0  0
    6.5389  -13.1434   16.0491 O   0  0  0  0  0  0  0  0  0  0  0  0
    6.9833  -13.2874   17.3571 C   0  0  0  0  0  0  0  0  0  0  0  0
    8.2945  -13.0309   17.7224 C   0  0  0  0  0  0  0  0  0  0  0  0
    8.7264  -13.1774   19.0274 C   0  0  0  0  0  0  0  0  0  0  0  0
    7.8494  -13.5872   20.0054 C   0  0  0  0  0  0  0  0  0  0  0  0
    8.2387  -13.7631   21.4053 C   0  0  0  0  0  0  0  0  0  0  0  0
    9.1762  -14.9313   21.6166 C   0  0  2  0  0  0  0  0  0  0  0  0
    8.4905  -16.1898   21.3997 N   0  0  0  0  0  0  0  0  0  0  0  0
    9.6152  -14.8655   23.0480 C   0  0  0  0  0  0  0  0  0  0  0  0
    9.1574  -14.0166   23.8561 O   0  0  0  0  0  0  0  0  0  0  0  0
    6.5444  -13.8415   19.6370 C   0  0  0  0  0  0  0  0  0  0  0  0
    6.1157  -13.6932   18.3269 C   0  0  0  0  0  0  0  0  0  0  0  0
   11.0705  -15.5602   31.3659 O   0  0  0  0  0  0  0  0  0  0  0  0
   10.7713  -15.6083   29.9994 C   0  0  0  0  0  0  0  0  0  0  0  0
   10.6271  -16.8059   29.3304 C   0  0  0  0  0  0  0  0  0  0  0  0
   10.3321  -16.8581   27.9832 C   0  0  0  0  0  0  0  0  0  0  0  0
   10.1678  -15.7002   27.2429 C   0  0  0  0  0  0  0  0  0  0  0  0
    9.8555  -15.6922   25.8088 C   0  0  0  0  0  0  0  0  0  0  0  0
   11.0647  -15.6491   24.9107 C   0  0  2  0  0  0  0  0  0  0  0  0
   10.5832  -15.7787   23.5505 N   0  0  0  0  0  0  0  0  0  0  0  0
   12.0577  -16.6824   25.1768 C   0  0  0  0  0  0  0  0  0  0  0  0
   13.1816  -16.3992   25.6484 O   0  0  0  0  0  0  0  0  0  0  0  0
   10.3146  -14.5093   27.9237 C   0  0  0  0  0  0  0  0  0  0  0  0
   10.6090  -14.4509   29.2686 C   0  0  0  0  0  0  0  0  0  0  0  0
   11.7647  -18.0076   24.9072 O   0  0  0  0  0  0  0  0  0  0  0  0
  2  1  1  1
  2  3  1  0
  4  2  1  0
  4 13  1  0
  5  4  2  0
  7 17  2  0
  7  6  1  0
  8  7  1  0
  9 10  1  0
  9  8  2  0
 10 16  2  0
 12 11  1  1
 11 10  1  0
 13 12  1  0
 14 15  2  0
 14 12  1  0
 16 17  1  0
 18 19  1  0
 19 20  2  0
 19 29  1  0
 20 21  1  0
 21 22  2  0
 22 23  1  0
 24 23  1  1
 24 25  1  0
 24 26  1  0
 25 14  1  0
 26 30  1  0
 27 26  2  0
 28 22  1  0
 29 28  2  0
M  END
$$$$
