MQR.pdb
     RDKit          3D

 29 28  0  0  1  0  0  0  0  0999 V2000
    8.1268  -11.4588   26.1771 C   0  0  0  0  0  0  0  0  0  0  0  0
    6.5653  -11.8812   26.9492 S   0  0  0  0  0  0  0  0  0  0  0  0
    5.9256  -13.3938   26.1378 C   0  0  0  0  0  0  0  0  0  0  0  0
    7.0361  -14.2674   25.6976 C   0  0  0  0  0  0  0  0  0  0  0  0
    6.6545  -15.4894   24.9234 C   0  0  2  0  0  0  0  0  0  0  0  0
    5.8453  -16.3647   25.8064 N   0  0  0  0  0  0  0  0  0  0  0  0
    7.9176  -16.2347   24.5775 C   0  0  0  0  0  0  0  0  0  0  0  0
    8.2864  -17.0873   25.4254 O   0  0  0  0  0  0  0  0  0  0  0  0
   11.2836  -15.4277   19.1766 N   0  0  0  0  0  0  0  0  0  0  0  0
   12.0264  -16.3988   19.8875 C   0  0  0  0  0  0  0  0  0  0  0  0
   13.0784  -16.8732   19.4025 O   0  0  0  0  0  0  0  0  0  0  0  0
   11.5797  -16.8770   21.2195 C   0  0  0  0  0  0  0  0  0  0  0  0
   10.3269  -16.1335   21.6078 C   0  0  0  0  0  0  0  0  0  0  0  0
    9.7816  -16.6495   22.9530 C   0  0  2  0  0  0  0  0  0  0  0  0
    8.5983  -15.9713   23.3916 N   0  0  0  0  0  0  0  0  0  0  0  0
   10.8693  -16.7414   23.9129 C   0  0  0  0  0  0  0  0  0  0  0  0
   11.5266  -15.6962   24.2572 O   0  0  0  0  0  0  0  0  0  0  0  0
   12.3366  -22.3439   30.6124 N   0  0  0  0  0  0  0  0  0  0  0  0
   13.2162  -21.2659   30.8419 C   0  0  0  0  0  0  0  0  0  0  0  0
   13.8933  -21.2072   31.9297 N   0  0  0  0  0  0  0  0  0  0  0  0
   13.3405  -20.2539   29.8596 N   0  0  0  0  0  0  0  0  0  0  0  0
   12.4375  -20.1977   28.7497 C   0  0  0  0  0  0  0  0  0  0  0  0
   12.8685  -19.1366   27.7560 C   0  0  0  0  0  0  0  0  0  0  0  0
   11.8965  -19.0431   26.6255 C   0  0  0  0  0  0  0  0  0  0  0  0
   12.2521  -17.9546   25.6717 C   0  0  2  0  0  0  0  0  0  0  0  0
   11.2931  -17.9473   24.5380 N   0  0  0  0  0  0  0  0  0  0  0  0
   13.5737  -18.1558   25.0716 C   0  0  0  0  0  0  0  0  0  0  0  0
   14.6920  -17.5935   25.6428 O   0  0  0  0  0  0  0  0  0  0  0  0
   13.7117  -18.8368   24.0339 O   0  0  0  0  0  0  0  0  0  0  0  0
  2  1  1  0
  3  4  1  0
  3  2  1  0
  4  5  1  0
  5  7  1  0
  5  6  1  1
  7  8  2  0
 10 12  1  0
 10  9  1  0
 11 10  2  0
 13 12  1  0
 14 13  1  6
 15 14  1  0
 15  7  1  0
 16 17  2  0
 16 14  1  0
 19 21  1  0
 19 18  1  0
 20 19  2  0
 22 21  1  0
 23 22  1  0
 23 24  1  0
 25 24  1  1
 25 26  1  0
 26 16  1  0
 27 25  1  0
 27 28  1  0
 29 27  2  0
M  END
$$$$
