MQR.pdb
     RDKit          3D

 29 28  0  0  1  0  0  0  0  0999 V2000
    4.8615  -11.9814   27.4105 C   0  0  0  0  0  0  0  0  0  0  0  0
    5.7545  -12.2566   25.8808 S   0  0  0  0  0  0  0  0  0  0  0  0
    7.2177  -13.2914   26.2601 C   0  0  0  0  0  0  0  0  0  0  0  0
    6.8305  -14.7085   26.4403 C   0  0  0  0  0  0  0  0  0  0  0  0
    6.1628  -15.3688   25.2757 C   0  0  2  0  0  0  0  0  0  0  0  0
    5.8140  -16.7568   25.6661 N   0  0  0  0  0  0  0  0  0  0  0  0
    7.1621  -15.4499   24.1507 C   0  0  0  0  0  0  0  0  0  0  0  0
    8.0712  -16.3059   24.3018 O   0  0  0  0  0  0  0  0  0  0  0  0
    6.7641  -13.7384   18.5427 N   0  0  0  0  0  0  0  0  0  0  0  0
    8.1720  -13.6317   18.6233 C   0  0  0  0  0  0  0  0  0  0  0  0
    8.8760  -13.7339   17.5932 O   0  0  0  0  0  0  0  0  0  0  0  0
    8.8465  -13.3970   19.9241 C   0  0  0  0  0  0  0  0  0  0  0  0
    7.8061  -13.3814   21.0152 C   0  0  0  0  0  0  0  0  0  0  0  0
    7.9420  -14.6237   21.9159 C   0  0  2  0  0  0  0  0  0  0  0  0
    7.0510  -14.6204   23.0379 N   0  0  0  0  0  0  0  0  0  0  0  0
    9.3467  -14.8608   22.2046 C   0  0  0  0  0  0  0  0  0  0  0  0
   10.0154  -14.0330   22.9190 O   0  0  0  0  0  0  0  0  0  0  0  0
   12.2297  -22.1500   25.8055 N   0  0  0  0  0  0  0  0  0  0  0  0
   12.2187  -20.8562   26.3660 C   0  0  0  0  0  0  0  0  0  0  0  0
   12.0331  -20.7013   27.6258 N   0  0  0  0  0  0  0  0  0  0  0  0
   12.4141  -19.7357   25.5229 N   0  0  0  0  0  0  0  0  0  0  0  0
   12.0530  -19.7911   24.1383 C   0  0  0  0  0  0  0  0  0  0  0  0
   12.3523  -18.4741   23.4490 C   0  0  0  0  0  0  0  0  0  0  0  0
   11.1106  -17.8916   22.8569 C   0  0  0  0  0  0  0  0  0  0  0  0
   11.3018  -16.4728   22.4427 C   0  0  2  0  0  0  0  0  0  0  0  0
   10.0858  -15.9858   21.7433 N   0  0  0  0  0  0  0  0  0  0  0  0
   12.3987  -16.3204   21.4833 C   0  0  0  0  0  0  0  0  0  0  0  0
   13.6838  -16.0994   21.9224 O   0  0  0  0  0  0  0  0  0  0  0  0
   12.1911  -16.3859   20.2535 O   0  0  0  0  0  0  0  0  0  0  0  0
  2  1  1  0
  3  4  1  0
  3  2  1  0
  4  5  1  0
  5  7  1  0
  5  6  1  1
  7  8  2  0
 10 12  1  0
 10  9  1  0
 11 10  2  0
 13 12  1  0
 14 13  1  1
 15 14  1  0
 15  7  1  0
 16 17  2  0
 16 14  1  0
 19 21  1  0
 19 18  1  0
 20 19  2  0
 22 21  1  0
 23 22  1  0
 23 24  1  0
 25 24  1  6
 25 26  1  0
 26 16  1  0
 27 25  1  0
 27 28  1  0
 29 27  2  0
M  END
$$$$
