MQR.pdb
     RDKit          3D

 29 28  0  0  1  0  0  0  0  0999 V2000
    7.3307  -10.1653   26.6677 C   0  0  0  0  0  0  0  0  0  0  0  0
    6.0715  -11.4301   26.5008 S   0  0  0  0  0  0  0  0  0  0  0  0
    6.9009  -12.9923   26.0239 C   0  0  0  0  0  0  0  0  0  0  0  0
    5.9345  -14.1124   25.9823 C   0  0  0  0  0  0  0  0  0  0  0  0
    6.4892  -15.4569   25.6316 C   0  0  2  0  0  0  0  0  0  0  0  0
    7.8175  -15.5942   26.2776 N   0  0  0  0  0  0  0  0  0  0  0  0
    6.7018  -15.4982   24.1404 C   0  0  0  0  0  0  0  0  0  0  0  0
    5.6514  -15.5445   23.4501 O   0  0  0  0  0  0  0  0  0  0  0  0
    7.5114  -13.4470   18.7313 N   0  0  0  0  0  0  0  0  0  0  0  0
    8.5520  -13.1365   19.6372 C   0  0  0  0  0  0  0  0  0  0  0  0
    9.6638  -12.7441   19.2162 O   0  0  0  0  0  0  0  0  0  0  0  0
    8.3531  -13.2671   21.1020 C   0  0  0  0  0  0  0  0  0  0  0  0
    7.5101  -14.4878   21.3711 C   0  0  0  0  0  0  0  0  0  0  0  0
    8.2945  -15.5191   22.2044 C   0  0  2  0  0  0  0  0  0  0  0  0
    7.9863  -15.4819   23.6030 N   0  0  0  0  0  0  0  0  0  0  0  0
    9.7028  -15.4577   21.8494 C   0  0  0  0  0  0  0  0  0  0  0  0
   10.2553  -14.3379   21.5604 O   0  0  0  0  0  0  0  0  0  0  0  0
   10.5871  -21.8799   26.4356 N   0  0  0  0  0  0  0  0  0  0  0  0
    9.5040  -21.2040   27.0341 C   0  0  0  0  0  0  0  0  0  0  0  0
    9.1075  -21.5350   28.2082 N   0  0  0  0  0  0  0  0  0  0  0  0
    8.8630  -20.1602   26.3241 N   0  0  0  0  0  0  0  0  0  0  0  0
    9.1220  -19.9577   24.9303 C   0  0  0  0  0  0  0  0  0  0  0  0
    9.9906  -18.7337   24.7147 C   0  0  0  0  0  0  0  0  0  0  0  0
   10.2165  -18.4942   23.2576 C   0  0  0  0  0  0  0  0  0  0  0  0
   11.0453  -17.2800   23.0131 C   0  0  2  0  0  0  0  0  0  0  0  0
   10.5691  -16.5850   21.7903 N   0  0  0  0  0  0  0  0  0  0  0  0
   12.4497  -17.6118   22.7589 C   0  0  0  0  0  0  0  0  0  0  0  0
   12.8913  -17.8401   21.4758 O   0  0  0  0  0  0  0  0  0  0  0  0
   13.2705  -17.6955   23.6963 O   0  0  0  0  0  0  0  0  0  0  0  0
  2  1  1  0
  3  4  1  0
  3  2  1  0
  4  5  1  0
  5  7  1  0
  5  6  1  1
  7  8  2  0
 10 12  1  0
 10  9  1  0
 11 10  2  0
 13 12  1  0
 14 13  1  6
 15 14  1  0
 15  7  1  0
 16 17  2  0
 16 14  1  0
 19 21  1  0
 19 18  1  0
 20 19  2  0
 22 21  1  0
 23 22  1  0
 23 24  1  0
 25 24  1  6
 25 26  1  0
 26 16  1  0
 27 25  1  0
 27 28  1  0
 29 27  2  0
M  END
$$$$
