MQR.pdb
     RDKit          3D

 29 28  0  0  1  0  0  0  0  0999 V2000
    8.3821  -11.6245   19.4862 C   0  0  0  0  0  0  0  0  0  0  0  0
    6.9771  -12.4983   18.7968 S   0  0  0  0  0  0  0  0  0  0  0  0
    7.3757  -14.2862   18.7840 C   0  0  0  0  0  0  0  0  0  0  0  0
    7.9594  -14.7069   20.0773 C   0  0  0  0  0  0  0  0  0  0  0  0
    8.3767  -16.1396   20.1841 C   0  0  2  0  0  0  0  0  0  0  0  0
    7.2066  -16.9899   19.8550 N   0  0  0  0  0  0  0  0  0  0  0  0
    8.7470  -16.4108   21.6194 C   0  0  0  0  0  0  0  0  0  0  0  0
    9.7732  -15.8111   22.0308 O   0  0  0  0  0  0  0  0  0  0  0  0
    5.7910  -20.6359   25.4349 N   0  0  0  0  0  0  0  0  0  0  0  0
    6.6895  -19.9755   26.3048 C   0  0  0  0  0  0  0  0  0  0  0  0
    6.7198  -20.2626   27.5230 O   0  0  0  0  0  0  0  0  0  0  0  0
    7.6141  -18.9312   25.7981 C   0  0  0  0  0  0  0  0  0  0  0  0
    7.2754  -18.6393   24.3582 C   0  0  0  0  0  0  0  0  0  0  0  0
    8.2867  -17.6489   23.7502 C   0  0  2  0  0  0  0  0  0  0  0  0
    7.9803  -17.2691   22.4032 N   0  0  0  0  0  0  0  0  0  0  0  0
    9.6379  -18.1238   23.9983 C   0  0  0  0  0  0  0  0  0  0  0  0
   10.0252  -19.2582   23.5445 O   0  0  0  0  0  0  0  0  0  0  0  0
   12.9015  -13.7438   20.7709 N   0  0  0  0  0  0  0  0  0  0  0  0
   12.9186  -15.0889   20.3481 C   0  0  0  0  0  0  0  0  0  0  0  0
   12.0869  -15.4958   19.4604 N   0  0  0  0  0  0  0  0  0  0  0  0
   13.8617  -15.9799   20.9149 N   0  0  0  0  0  0  0  0  0  0  0  0
   13.9972  -16.0939   22.3359 C   0  0  0  0  0  0  0  0  0  0  0  0
   12.9627  -17.0468   22.9023 C   0  0  0  0  0  0  0  0  0  0  0  0
   13.0036  -17.0468   24.3956 C   0  0  0  0  0  0  0  0  0  0  0  0
   11.9790  -17.9561   24.9824 C   0  0  2  0  0  0  0  0  0  0  0  0
   10.6212  -17.4077   24.7366 N   0  0  0  0  0  0  0  0  0  0  0  0
   12.1052  -18.0643   26.4382 C   0  0  0  0  0  0  0  0  0  0  0  0
   13.1462  -18.7690   26.9977 O   0  0  0  0  0  0  0  0  0  0  0  0
   11.2742  -17.5236   27.1976 O   0  0  0  0  0  0  0  0  0  0  0  0
  2  1  1  0
  3  4  1  0
  3  2  1  0
  4  5  1  0
  5  7  1  0
  5  6  1  1
  7  8  2  0
 10 12  1  0
 10  9  1  0
 11 10  2  0
 13 12  1  0
 14 13  1  6
 15 14  1  0
 15  7  1  0
 16 17  2  0
 16 14  1  0
 19 21  1  0
 19 18  1  0
 20 19  2  0
 22 21  1  0
 23 22  1  0
 23 24  1  0
 25 24  1  1
 25 26  1  0
 26 16  1  0
 27 25  1  0
 27 28  1  0
 29 27  2  0
M  END
$$$$
