MQR.pdb
     RDKit          3D

 29 28  0  0  1  0  0  0  0  0999 V2000
    4.9180  -11.6844   26.7311 C   0  0  0  0  0  0  0  0  0  0  0  0
    6.6718  -12.0107   26.5551 S   0  0  0  0  0  0  0  0  0  0  0  0
    7.0503  -13.5605   27.4555 C   0  0  0  0  0  0  0  0  0  0  0  0
    7.5424  -14.6037   26.5282 C   0  0  0  0  0  0  0  0  0  0  0  0
    6.5421  -15.1663   25.5685 C   0  0  2  0  0  0  0  0  0  0  0  0
    6.0256  -16.4390   26.1288 N   0  0  0  0  0  0  0  0  0  0  0  0
    7.2609  -15.4926   24.2849 C   0  0  0  0  0  0  0  0  0  0  0  0
    7.8733  -16.5912   24.2777 O   0  0  0  0  0  0  0  0  0  0  0  0
    6.3224  -13.6482   18.6989 N   0  0  0  0  0  0  0  0  0  0  0  0
    7.7090  -13.8974   18.5752 C   0  0  0  0  0  0  0  0  0  0  0  0
    8.2055  -14.1829   17.4620 O   0  0  0  0  0  0  0  0  0  0  0  0
    8.6056  -13.8267   19.7556 C   0  0  0  0  0  0  0  0  0  0  0  0
    7.7672  -13.6149   20.9907 C   0  0  0  0  0  0  0  0  0  0  0  0
    8.0235  -14.7308   22.0214 C   0  0  2  0  0  0  0  0  0  0  0  0
    7.2237  -14.6151   23.2044 N   0  0  0  0  0  0  0  0  0  0  0  0
    9.4550  -14.8869   22.2197 C   0  0  0  0  0  0  0  0  0  0  0  0
   10.1250  -14.0051   22.8649 O   0  0  0  0  0  0  0  0  0  0  0  0
   11.3741  -21.3302   26.6971 N   0  0  0  0  0  0  0  0  0  0  0  0
   11.0551  -21.3441   25.3237 C   0  0  0  0  0  0  0  0  0  0  0  0
   10.5016  -22.3767   24.8012 N   0  0  0  0  0  0  0  0  0  0  0  0
   11.3532  -20.2081   24.5330 N   0  0  0  0  0  0  0  0  0  0  0  0
   12.0223  -19.0770   25.1017 C   0  0  0  0  0  0  0  0  0  0  0  0
   12.3808  -18.0663   24.0297 C   0  0  0  0  0  0  0  0  0  0  0  0
   11.1491  -17.5050   23.3974 C   0  0  0  0  0  0  0  0  0  0  0  0
   11.4663  -16.4347   22.4101 C   0  0  2  0  0  0  0  0  0  0  0  0
   10.2202  -15.9858   21.7387 N   0  0  0  0  0  0  0  0  0  0  0  0
   12.3434  -16.9138   21.3386 C   0  0  0  0  0  0  0  0  0  0  0  0
   13.6930  -17.0676   21.5583 O   0  0  0  0  0  0  0  0  0  0  0  0
   11.8873  -17.1895   20.2092 O   0  0  0  0  0  0  0  0  0  0  0  0
  2  1  1  0
  3  4  1  0
  3  2  1  0
  4  5  1  0
  5  7  1  0
  5  6  1  1
  7  8  2  0
 10 12  1  0
 10  9  1  0
 11 10  2  0
 13 12  1  0
 14 13  1  6
 15 14  1  0
 15  7  1  0
 16 17  2  0
 16 14  1  0
 19 21  1  0
 19 18  1  0
 20 19  2  0
 22 21  1  0
 23 22  1  0
 23 24  1  0
 25 24  1  1
 25 26  1  0
 26 16  1  0
 27 25  1  0
 27 28  1  0
 29 27  2  0
M  END
$$$$
