MQR.pdb
     RDKit          3D

 29 28  0  0  1  0  0  0  0  0999 V2000
    7.6862  -11.7324   20.0970 C   0  0  0  0  0  0  0  0  0  0  0  0
    7.2949  -12.4740   18.5127 S   0  0  0  0  0  0  0  0  0  0  0  0
    8.4140  -13.9033   18.2672 C   0  0  0  0  0  0  0  0  0  0  0  0
    8.6078  -14.6464   19.5323 C   0  0  0  0  0  0  0  0  0  0  0  0
    9.9010  -15.3840   19.6792 C   0  0  2  0  0  0  0  0  0  0  0  0
   10.0963  -16.2240   18.4722 N   0  0  0  0  0  0  0  0  0  0  0  0
    9.7776  -16.3090   20.8623 C   0  0  0  0  0  0  0  0  0  0  0  0
    9.2873  -15.7916   21.8985 O   0  0  0  0  0  0  0  0  0  0  0  0
   12.3224  -22.1069   20.8766 N   0  0  0  0  0  0  0  0  0  0  0  0
   11.2555  -21.7356   20.0259 C   0  0  0  0  0  0  0  0  0  0  0  0
   10.9569  -22.4427   19.0369 O   0  0  0  0  0  0  0  0  0  0  0  0
   10.4670  -20.5049   20.2829 C   0  0  0  0  0  0  0  0  0  0  0  0
   10.9599  -19.8695   21.5582 C   0  0  0  0  0  0  0  0  0  0  0  0
   10.1818  -18.5741   21.8580 C   0  0  2  0  0  0  0  0  0  0  0  0
   10.1862  -17.6372   20.7741 N   0  0  0  0  0  0  0  0  0  0  0  0
   10.5783  -18.0615   23.1591 C   0  0  0  0  0  0  0  0  0  0  0  0
   11.8154  -17.8779   23.4395 O   0  0  0  0  0  0  0  0  0  0  0  0
    5.6057  -12.6405   27.1437 N   0  0  0  0  0  0  0  0  0  0  0  0
    6.4810  -12.1835   26.1370 C   0  0  0  0  0  0  0  0  0  0  0  0
    6.3683  -10.9910   25.6780 N   0  0  0  0  0  0  0  0  0  0  0  0
    7.4807  -13.0553   25.6420 N   0  0  0  0  0  0  0  0  0  0  0  0
    7.6200  -14.3804   26.1666 C   0  0  0  0  0  0  0  0  0  0  0  0
    8.7575  -15.1147   25.4839 C   0  0  0  0  0  0  0  0  0  0  0  0
    9.0204  -16.4241   26.1532 C   0  0  0  0  0  0  0  0  0  0  0  0
   10.1332  -17.1710   25.5014 C   0  0  2  0  0  0  0  0  0  0  0  0
    9.6722  -17.7273   24.2041 N   0  0  0  0  0  0  0  0  0  0  0  0
   10.5647  -18.3239   26.2961 C   0  0  0  0  0  0  0  0  0  0  0  0
   11.6139  -18.2092   27.1789 O   0  0  0  0  0  0  0  0  0  0  0  0
    9.9936  -19.4292   26.1883 O   0  0  0  0  0  0  0  0  0  0  0  0
  2  1  1  0
  3  4  1  0
  3  2  1  0
  4  5  1  0
  5  7  1  0
  5  6  1  6
  7  8  2  0
 10 12  1  0
 10  9  1  0
 11 10  2  0
 13 12  1  0
 14 13  1  6
 15 14  1  0
 15  7  1  0
 16 17  2  0
 16 14  1  0
 19 21  1  0
 19 18  1  0
 20 19  2  0
 22 21  1  0
 23 22  1  0
 23 24  1  0
 25 24  1  1
 25 26  1  0
 26 16  1  0
 27 25  1  0
 27 28  1  0
 29 27  2  0
M  END
$$$$
