MQR.pdb
     RDKit          3D

 29 28  0  0  1  0  0  0  0  0999 V2000
    7.3743  -11.8485   27.9532 C   0  0  0  0  0  0  0  0  0  0  0  0
    6.5140  -12.3336   26.4574 S   0  0  0  0  0  0  0  0  0  0  0  0
    6.1574  -14.1269   26.5681 C   0  0  0  0  0  0  0  0  0  0  0  0
    6.9528  -14.8862   25.5775 C   0  0  0  0  0  0  0  0  0  0  0  0
    7.5942  -14.0879   24.4869 C   0  0  2  0  0  0  0  0  0  0  0  0
    6.5211  -13.5151   23.6379 N   0  0  0  0  0  0  0  0  0  0  0  0
    8.3976  -15.0318   23.6300 C   0  0  0  0  0  0  0  0  0  0  0  0
    8.9301  -15.9918   24.2438 O   0  0  0  0  0  0  0  0  0  0  0  0
    8.6671  -12.3340   17.8223 N   0  0  0  0  0  0  0  0  0  0  0  0
    8.2920  -13.6115   18.2991 C   0  0  0  0  0  0  0  0  0  0  0  0
    7.8745  -14.4868   17.5074 O   0  0  0  0  0  0  0  0  0  0  0  0
    8.3836  -13.9448   19.7422 C   0  0  0  0  0  0  0  0  0  0  0  0
    9.2459  -15.1710   19.9040 C   0  0  0  0  0  0  0  0  0  0  0  0
    9.4192  -15.5229   21.3938 C   0  0  2  0  0  0  0  0  0  0  0  0
    8.5161  -14.8232   22.2583 N   0  0  0  0  0  0  0  0  0  0  0  0
   10.8286  -15.4636   21.7443 C   0  0  0  0  0  0  0  0  0  0  0  0
   11.3487  -14.3752   22.1776 O   0  0  0  0  0  0  0  0  0  0  0  0
    9.2459  -20.9214   27.3650 N   0  0  0  0  0  0  0  0  0  0  0  0
   10.5931  -20.6510   27.6814 C   0  0  0  0  0  0  0  0  0  0  0  0
   11.0605  -20.9677   28.8332 N   0  0  0  0  0  0  0  0  0  0  0  0
   11.4186  -20.0274   26.7148 N   0  0  0  0  0  0  0  0  0  0  0  0
   10.8450  -19.2787   25.6374 C   0  0  0  0  0  0  0  0  0  0  0  0
   11.9259  -18.6284   24.7960 C   0  0  0  0  0  0  0  0  0  0  0  0
   11.3285  -17.8976   23.6382 C   0  0  0  0  0  0  0  0  0  0  0  0
   12.3600  -17.1748   22.8416 C   0  0  2  0  0  0  0  0  0  0  0  0
   11.7306  -16.5596   21.6456 N   0  0  0  0  0  0  0  0  0  0  0  0
   13.3926  -18.0775   22.3260 C   0  0  0  0  0  0  0  0  0  0  0  0
   13.1974  -18.7596   21.1471 O   0  0  0  0  0  0  0  0  0  0  0  0
   14.4649  -18.2472   22.9433 O   0  0  0  0  0  0  0  0  0  0  0  0
  2  1  1  0
  3  4  1  0
  3  2  1  0
  4  5  1  0
  5  7  1  0
  5  6  1  6
  7  8  2  0
 10 12  1  0
 10  9  1  0
 11 10  2  0
 13 12  1  0
 14 13  1  6
 15 14  1  0
 15  7  1  0
 16 17  2  0
 16 14  1  0
 19 21  1  0
 19 18  1  0
 20 19  2  0
 22 21  1  0
 23 22  1  0
 23 24  1  0
 25 24  1  6
 25 26  1  0
 26 16  1  0
 27 25  1  0
 27 28  1  0
 29 27  2  0
M  END
$$$$
