MQR.pdb
     RDKit          3D

 29 28  0  0  1  0  0  0  0  0999 V2000
    6.1162  -10.6565   25.2404 C   0  0  0  0  0  0  0  0  0  0  0  0
    5.8753  -11.5712   26.7630 S   0  0  0  0  0  0  0  0  0  0  0  0
    5.4906  -13.3073   26.3233 C   0  0  0  0  0  0  0  0  0  0  0  0
    6.5558  -13.8859   25.4742 C   0  0  0  0  0  0  0  0  0  0  0  0
    6.2721  -15.2256   24.8718 C   0  0  2  0  0  0  0  0  0  0  0  0
    6.1879  -16.2200   25.9694 N   0  0  0  0  0  0  0  0  0  0  0  0
    7.4447  -15.6037   24.0041 C   0  0  0  0  0  0  0  0  0  0  0  0
    8.1115  -16.5920   24.4048 O   0  0  0  0  0  0  0  0  0  0  0  0
    8.8219  -12.5428   18.6150 N   0  0  0  0  0  0  0  0  0  0  0  0
    7.9705  -13.6687   18.5286 C   0  0  0  0  0  0  0  0  0  0  0  0
    7.2552  -13.8472   17.5168 O   0  0  0  0  0  0  0  0  0  0  0  0
    7.9041  -14.6617   19.6294 C   0  0  0  0  0  0  0  0  0  0  0  0
    8.8574  -14.2430   20.7198 C   0  0  0  0  0  0  0  0  0  0  0  0
    8.7756  -15.2098   21.9164 C   0  0  2  0  0  0  0  0  0  0  0  0
    7.7352  -14.8863   22.8466 N   0  0  0  0  0  0  0  0  0  0  0  0
   10.1043  -15.4051   22.4724 C   0  0  0  0  0  0  0  0  0  0  0  0
   10.5843  -14.5761   23.3240 O   0  0  0  0  0  0  0  0  0  0  0  0
   10.0084  -21.0576   26.7281 N   0  0  0  0  0  0  0  0  0  0  0  0
   11.0467  -20.3896   27.4092 C   0  0  0  0  0  0  0  0  0  0  0  0
   10.9621  -20.1868   28.6730 N   0  0  0  0  0  0  0  0  0  0  0  0
   12.1783  -19.9476   26.6821 N   0  0  0  0  0  0  0  0  0  0  0  0
   12.1271  -19.8202   25.2567 C   0  0  0  0  0  0  0  0  0  0  0  0
   12.3133  -18.3752   24.8366 C   0  0  0  0  0  0  0  0  0  0  0  0
   12.1542  -18.2283   23.3586 C   0  0  0  0  0  0  0  0  0  0  0  0
   12.1825  -16.8004   22.9330 C   0  0  2  0  0  0  0  0  0  0  0  0
   10.9656  -16.4883   22.1412 N   0  0  0  0  0  0  0  0  0  0  0  0
   13.3151  -16.5093   22.0501 C   0  0  0  0  0  0  0  0  0  0  0  0
   13.1065  -16.2101   20.7234 O   0  0  0  0  0  0  0  0  0  0  0  0
   14.4873  -16.5284   22.4805 O   0  0  0  0  0  0  0  0  0  0  0  0
  2  1  1  0
  3  4  1  0
  3  2  1  0
  4  5  1  0
  5  7  1  0
  5  6  1  1
  7  8  2  0
 10 12  1  0
 10  9  1  0
 11 10  2  0
 13 12  1  0
 14 13  1  6
 15 14  1  0
 15  7  1  0
 16 17  2  0
 16 14  1  0
 19 21  1  0
 19 18  1  0
 20 19  2  0
 22 21  1  0
 23 22  1  0
 23 24  1  0
 25 24  1  6
 25 26  1  0
 26 16  1  0
 27 25  1  0
 27 28  1  0
 29 27  2  0
M  END
$$$$
