MQR.pdb
     RDKit          3D

 29 28  0  0  1  0  0  0  0  0999 V2000
    7.4171  -12.8089   22.0400 C   0  0  0  0  0  0  0  0  0  0  0  0
    6.9411  -11.7808   20.6509 S   0  0  0  0  0  0  0  0  0  0  0  0
    7.6636  -12.5117   19.1346 C   0  0  0  0  0  0  0  0  0  0  0  0
    8.7528  -13.4559   19.4701 C   0  0  0  0  0  0  0  0  0  0  0  0
    9.3612  -14.2034   18.3258 C   0  0  2  0  0  0  0  0  0  0  0  0
    8.3210  -15.0845   17.7410 N   0  0  0  0  0  0  0  0  0  0  0  0
   10.4511  -15.0877   18.8742 C   0  0  0  0  0  0  0  0  0  0  0  0
   10.0571  -16.1583   19.4038 O   0  0  0  0  0  0  0  0  0  0  0  0
   15.8792  -14.0778   16.3959 N   0  0  0  0  0  0  0  0  0  0  0  0
   14.9426  -15.0965   16.1045 C   0  0  0  0  0  0  0  0  0  0  0  0
   15.1292  -15.8731   15.1404 O   0  0  0  0  0  0  0  0  0  0  0  0
   13.7216  -15.2698   16.9300 C   0  0  0  0  0  0  0  0  0  0  0  0
   14.1302  -15.4507   18.3700 C   0  0  0  0  0  0  0  0  0  0  0  0
   12.8942  -15.4675   19.2893 C   0  0  2  0  0  0  0  0  0  0  0  0
   11.7886  -14.7122   18.7797 N   0  0  0  0  0  0  0  0  0  0  0  0
   13.3023  -15.1783   20.6541 C   0  0  0  0  0  0  0  0  0  0  0  0
   14.0000  -14.1366   20.9204 O   0  0  0  0  0  0  0  0  0  0  0  0
   10.5795  -16.2114   28.3913 N   0  0  0  0  0  0  0  0  0  0  0  0
   10.1438  -14.9738   27.8745 C   0  0  0  0  0  0  0  0  0  0  0  0
    9.6398  -14.0907   28.6564 N   0  0  0  0  0  0  0  0  0  0  0  0
   10.2695  -14.7211   26.4872 N   0  0  0  0  0  0  0  0  0  0  0  0
   10.7936  -15.7213   25.6066 C   0  0  0  0  0  0  0  0  0  0  0  0
   12.1893  -15.3538   25.1416 C   0  0  0  0  0  0  0  0  0  0  0  0
   12.7066  -16.3625   24.1687 C   0  0  0  0  0  0  0  0  0  0  0  0
   13.5660  -15.7399   23.1224 C   0  0  2  0  0  0  0  0  0  0  0  0
   12.9815  -15.9872   21.7800 N   0  0  0  0  0  0  0  0  0  0  0  0
   14.9068  -16.3298   23.0858 C   0  0  0  0  0  0  0  0  0  0  0  0
   15.1776  -17.3953   22.2584 O   0  0  0  0  0  0  0  0  0  0  0  0
   15.8263  -15.8816   23.8021 O   0  0  0  0  0  0  0  0  0  0  0  0
  2  1  1  0
  3  4  1  0
  3  2  1  0
  4  5  1  0
  5  7  1  0
  5  6  1  1
  7  8  2  0
 10 12  1  0
 10  9  1  0
 11 10  2  0
 13 12  1  0
 14 13  1  6
 15 14  1  0
 15  7  1  0
 16 17  2  0
 16 14  1  0
 19 21  1  0
 19 18  1  0
 20 19  2  0
 22 21  1  0
 23 22  1  0
 23 24  1  0
 25 24  1  1
 25 26  1  0
 26 16  1  0
 27 25  1  0
 27 28  1  0
 29 27  2  0
M  END
$$$$
