MQR.pdb
     RDKit          3D

 29 28  0  0  1  0  0  0  0  0999 V2000
    7.6125  -11.8198   27.8624 C   0  0  0  0  0  0  0  0  0  0  0  0
    5.8967  -11.9283   27.3548 S   0  0  0  0  0  0  0  0  0  0  0  0
    5.8529  -12.6180   25.6584 C   0  0  0  0  0  0  0  0  0  0  0  0
    6.9397  -13.6028   25.4599 C   0  0  0  0  0  0  0  0  0  0  0  0
    7.7094  -13.4953   24.1816 C   0  0  2  0  0  0  0  0  0  0  0  0
    6.7576  -13.6385   23.0528 N   0  0  0  0  0  0  0  0  0  0  0  0
    8.6695  -14.6550   24.1173 C   0  0  0  0  0  0  0  0  0  0  0  0
    8.7781  -15.1991   22.9886 O   0  0  0  0  0  0  0  0  0  0  0  0
   11.4116  -17.4243   29.1477 N   0  0  0  0  0  0  0  0  0  0  0  0
   11.2158  -16.0332   28.9849 C   0  0  0  0  0  0  0  0  0  0  0  0
   11.3116  -15.2599   29.9648 O   0  0  0  0  0  0  0  0  0  0  0  0
   10.8938  -15.4581   27.6553 C   0  0  0  0  0  0  0  0  0  0  0  0
   10.7452  -16.5829   26.6624 C   0  0  0  0  0  0  0  0  0  0  0  0
   10.4251  -16.0328   25.2595 C   0  0  2  0  0  0  0  0  0  0  0  0
    9.3702  -15.0635   25.2491 N   0  0  0  0  0  0  0  0  0  0  0  0
   10.2990  -17.1379   24.3236 C   0  0  0  0  0  0  0  0  0  0  0  0
    9.2070  -17.8040   24.2428 O   0  0  0  0  0  0  0  0  0  0  0  0
    6.9070  -13.4651   19.0575 N   0  0  0  0  0  0  0  0  0  0  0  0
    8.0691  -13.9915   18.4568 C   0  0  0  0  0  0  0  0  0  0  0  0
    8.5908  -13.4066   17.4413 N   0  0  0  0  0  0  0  0  0  0  0  0
    8.6488  -15.1692   18.9873 N   0  0  0  0  0  0  0  0  0  0  0  0
   10.0366  -15.2066   19.3383 C   0  0  0  0  0  0  0  0  0  0  0  0
   10.4090  -16.5541   19.9254 C   0  0  0  0  0  0  0  0  0  0  0  0
   10.6684  -16.4398   21.3921 C   0  0  0  0  0  0  0  0  0  0  0  0
   11.1050  -17.7356   21.9847 C   0  0  2  0  0  0  0  0  0  0  0  0
   11.3298  -17.5702   23.4432 N   0  0  0  0  0  0  0  0  0  0  0  0
   12.3850  -18.1908   21.4355 C   0  0  0  0  0  0  0  0  0  0  0  0
   12.4481  -18.7367   20.1741 O   0  0  0  0  0  0  0  0  0  0  0  0
   13.4394  -18.0950   22.0978 O   0  0  0  0  0  0  0  0  0  0  0  0
  2  1  1  0
  3  4  1  0
  3  2  1  0
  4  5  1  0
  5  7  1  0
  5  6  1  6
  7  8  2  0
 10 12  1  0
 10  9  1  0
 11 10  2  0
 13 12  1  0
 14 13  1  1
 15 14  1  0
 15  7  1  0
 16 17  2  0
 16 14  1  0
 19 21  1  0
 19 18  1  0
 20 19  2  0
 22 21  1  0
 23 22  1  0
 23 24  1  0
 25 24  1  6
 25 26  1  0
 26 16  1  0
 27 25  1  0
 27 28  1  0
 29 27  2  0
M  END
$$$$
