MQR.pdb
     RDKit          3D

 29 28  0  0  1  0  0  0  0  0999 V2000
    8.2133  -11.3865   21.1818 C   0  0  0  0  0  0  0  0  0  0  0  0
    6.9220  -12.5098   20.6491 S   0  0  0  0  0  0  0  0  0  0  0  0
    7.6789  -13.7520   19.5357 C   0  0  0  0  0  0  0  0  0  0  0  0
    8.5043  -13.0970   18.4964 C   0  0  0  0  0  0  0  0  0  0  0  0
    9.1689  -14.0012   17.5071 C   0  0  2  0  0  0  0  0  0  0  0  0
    8.1177  -14.7905   16.8198 N   0  0  0  0  0  0  0  0  0  0  0  0
   10.0378  -14.9675   18.2700 C   0  0  0  0  0  0  0  0  0  0  0  0
    9.4876  -16.0561   18.5768 O   0  0  0  0  0  0  0  0  0  0  0  0
   15.8755  -13.1600   17.6399 N   0  0  0  0  0  0  0  0  0  0  0  0
   15.6337  -14.5388   17.8412 C   0  0  0  0  0  0  0  0  0  0  0  0
   16.5873  -15.3322   18.0101 O   0  0  0  0  0  0  0  0  0  0  0  0
   14.2508  -15.0770   17.8573 C   0  0  0  0  0  0  0  0  0  0  0  0
   13.7203  -15.0114   19.2671 C   0  0  0  0  0  0  0  0  0  0  0  0
   12.2549  -15.4836   19.3206 C   0  0  2  0  0  0  0  0  0  0  0  0
   11.3531  -14.6424   18.5914 N   0  0  0  0  0  0  0  0  0  0  0  0
   11.8928  -15.7830   20.6962 C   0  0  0  0  0  0  0  0  0  0  0  0
   11.7744  -14.8432   21.5597 O   0  0  0  0  0  0  0  0  0  0  0  0
    6.8146  -21.9791   24.3643 N   0  0  0  0  0  0  0  0  0  0  0  0
    7.0604  -21.0589   25.4040 C   0  0  0  0  0  0  0  0  0  0  0  0
    6.4801  -21.1993   26.5393 N   0  0  0  0  0  0  0  0  0  0  0  0
    7.9520  -19.9825   25.1782 N   0  0  0  0  0  0  0  0  0  0  0  0
    8.5160  -19.7605   23.8808 C   0  0  0  0  0  0  0  0  0  0  0  0
    9.5445  -18.6471   23.9224 C   0  0  0  0  0  0  0  0  0  0  0  0
   10.1084  -18.3954   22.5621 C   0  0  0  0  0  0  0  0  0  0  0  0
   11.1471  -17.3269   22.5770 C   0  0  2  0  0  0  0  0  0  0  0  0
   11.6447  -17.0911   21.1979 N   0  0  0  0  0  0  0  0  0  0  0  0
   12.3230  -17.7105   23.3625 C   0  0  0  0  0  0  0  0  0  0  0  0
   12.3595  -17.4847   24.7193 O   0  0  0  0  0  0  0  0  0  0  0  0
   13.3122  -18.2458   22.8198 O   0  0  0  0  0  0  0  0  0  0  0  0
  2  1  1  0
  3  4  1  0
  3  2  1  0
  4  5  1  0
  5  7  1  0
  5  6  1  1
  7  8  2  0
 10 12  1  0
 10  9  1  0
 11 10  2  0
 13 12  1  0
 14 13  1  1
 15 14  1  0
 15  7  1  0
 16 17  2  0
 16 14  1  0
 19 21  1  0
 19 18  1  0
 20 19  2  0
 22 21  1  0
 23 22  1  0
 23 24  1  0
 25 24  1  6
 25 26  1  0
 26 16  1  0
 27 25  1  0
 27 28  1  0
 29 27  2  0
M  END
$$$$
