MQR.pdb
     RDKit          3D

 29 28  0  0  1  0  0  0  0  0999 V2000
    7.4473  -12.6671   21.6157 C   0  0  0  0  0  0  0  0  0  0  0  0
    6.6622  -12.2745   20.0528 S   0  0  0  0  0  0  0  0  0  0  0  0
    7.3891  -13.3593   18.7682 C   0  0  0  0  0  0  0  0  0  0  0  0
    8.3924  -14.2751   19.3555 C   0  0  0  0  0  0  0  0  0  0  0  0
    9.8276  -13.9532   19.0820 C   0  0  2  0  0  0  0  0  0  0  0  0
   10.0562  -14.0558   17.6200 N   0  0  0  0  0  0  0  0  0  0  0  0
   10.6759  -15.0041   19.7503 C   0  0  0  0  0  0  0  0  0  0  0  0
   10.0697  -15.7416   20.5692 O   0  0  0  0  0  0  0  0  0  0  0  0
   17.1340  -14.8229   20.1122 N   0  0  0  0  0  0  0  0  0  0  0  0
   16.7283  -16.1505   20.3822 C   0  0  0  0  0  0  0  0  0  0  0  0
   17.5266  -16.9654   20.8978 O   0  0  0  0  0  0  0  0  0  0  0  0
   15.3533  -16.6084   20.0630 C   0  0  0  0  0  0  0  0  0  0  0  0
   14.4602  -15.4021   19.9200 C   0  0  0  0  0  0  0  0  0  0  0  0
   13.0067  -15.7529   20.2908 C   0  0  2  0  0  0  0  0  0  0  0  0
   12.0313  -15.1205   19.4533 N   0  0  0  0  0  0  0  0  0  0  0  0
   12.8237  -15.6038   21.7251 C   0  0  0  0  0  0  0  0  0  0  0  0
   12.6116  -14.4494   22.2400 O   0  0  0  0  0  0  0  0  0  0  0  0
    8.2969  -20.1243   25.4893 N   0  0  0  0  0  0  0  0  0  0  0  0
    7.4458  -19.1084   25.9708 C   0  0  0  0  0  0  0  0  0  0  0  0
    6.6763  -19.3334   26.9721 N   0  0  0  0  0  0  0  0  0  0  0  0
    7.4521  -17.8428   25.3363 N   0  0  0  0  0  0  0  0  0  0  0  0
    8.2926  -17.5974   24.2032 C   0  0  0  0  0  0  0  0  0  0  0  0
    9.7011  -17.2462   24.6416 C   0  0  0  0  0  0  0  0  0  0  0  0
   10.5945  -17.0639   23.4583 C   0  0  0  0  0  0  0  0  0  0  0  0
   11.9860  -16.7109   23.8582 C   0  0  2  0  0  0  0  0  0  0  0  0
   12.8601  -16.6774   22.6582 N   0  0  0  0  0  0  0  0  0  0  0  0
   12.5755  -17.7129   24.7501 C   0  0  0  0  0  0  0  0  0  0  0  0
   12.2739  -17.7153   26.0926 O   0  0  0  0  0  0  0  0  0  0  0  0
   13.3611  -18.5798   24.3133 O   0  0  0  0  0  0  0  0  0  0  0  0
  2  1  1  0
  3  4  1  0
  3  2  1  0
  4  5  1  0
  5  7  1  0
  5  6  1  6
  7  8  2  0
 10 12  1  0
 10  9  1  0
 11 10  2  0
 13 12  1  0
 14 13  1  6
 15 14  1  0
 15  7  1  0
 16 17  2  0
 16 14  1  0
 19 21  1  0
 19 18  1  0
 20 19  2  0
 22 21  1  0
 23 22  1  0
 23 24  1  0
 25 24  1  6
 25 26  1  0
 26 16  1  0
 27 25  1  0
 27 28  1  0
 29 27  2  0
M  END
$$$$
