EGL.pdb
     RDKit          3D

 22 21  0  0  1  0  0  0  0  0999 V2000
   17.4962  -13.0101  -15.9138 N   0  0  0  0  0  0  0  0  0  0  0  0
   18.6030  -12.1499  -16.3373 C   0  0  1  0  0  0  0  0  0  0  0  0
   18.3688  -11.8514  -17.7949 C   0  0  0  0  0  0  0  0  0  0  0  0
   19.2605  -12.5596  -18.7455 C   0  0  0  0  0  0  0  0  0  0  0  0
   19.0378  -12.1881  -20.1351 C   0  0  0  0  0  0  0  0  0  0  0  0
   18.1398  -11.3861  -20.4712 O   0  0  0  0  0  0  0  0  0  0  0  0
   18.5459  -10.8379  -15.6312 C   0  0  0  0  0  0  0  0  0  0  0  0
   17.5635  -10.0862  -15.8586 O   0  0  0  0  0  0  0  0  0  0  0  0
   19.8108  -12.7000  -21.1952 O   0  0  0  0  0  0  0  0  0  0  0  0
   19.5313  -10.3965  -14.7249 N   0  0  0  0  0  0  0  0  0  0  0  0
   19.3969   -9.0883  -14.1325 C   0  0  0  0  0  0  0  0  0  0  0  0
   20.6161   -8.2634  -14.2966 C   0  0  0  0  0  0  0  0  0  0  0  0
   21.6067   -8.7350  -14.9295 O   0  0  0  0  0  0  0  0  0  0  0  0
   22.9776   -5.4866  -17.8460 C   0  0  0  0  0  0  0  0  0  0  0  0
   22.9911   -5.2250  -16.3072 C   0  0  1  0  0  0  0  0  0  0  0  0
   22.7486   -3.7339  -16.1391 C   0  0  0  0  0  0  0  0  0  0  0  0
   21.9419   -6.0293  -15.6636 C   0  0  0  0  0  0  0  0  0  0  0  0
   21.9086   -6.0693  -14.1985 C   0  0  2  0  0  0  0  0  0  0  0  0
   20.7631   -6.9623  -13.7906 N   0  0  0  0  0  0  0  0  0  0  0  0
   21.7058   -4.8811  -13.3987 C   0  0  0  0  0  0  0  0  0  0  0  0
   22.7553   -4.1200  -12.9285 O   0  0  0  0  0  0  0  0  0  0  0  0
   20.5472   -4.4454  -13.0540 O   0  0  0  0  0  0  0  0  0  0  0  0
  2  1  1  1
  2  3  1  0
  3  4  1  0
  5  4  1  0
  5  6  2  0
  7  2  1  0
  7  8  2  0
  9  5  1  0
 10  7  1  0
 11 10  1  0
 11 12  1  0
 12 19  1  0
 13 12  2  0
 15 14  1  6
 15 16  1  0
 17 15  1  0
 18 17  1  6
 19 18  1  0
 20 18  1  0
 20 21  1  0
 22 20  2  0
M  END
$$$$
