EGL.pdb
     RDKit          3D

 22 21  0  0  1  0  0  0  0  0999 V2000
   21.8910  -27.4437  -13.6757 N   0  0  0  0  0  0  0  0  0  0  0  0
   21.9872  -27.2722  -15.1268 C   0  0  1  0  0  0  0  0  0  0  0  0
   21.2376  -28.4273  -15.7367 C   0  0  0  0  0  0  0  0  0  0  0  0
   21.7262  -29.7773  -15.3633 C   0  0  0  0  0  0  0  0  0  0  0  0
   22.4040  -30.4690  -16.4498 C   0  0  0  0  0  0  0  0  0  0  0  0
   22.9179  -31.5984  -16.2984 O   0  0  0  0  0  0  0  0  0  0  0  0
   21.2687  -26.0385  -15.5566 C   0  0  0  0  0  0  0  0  0  0  0  0
   21.4187  -25.6499  -16.7434 O   0  0  0  0  0  0  0  0  0  0  0  0
   22.5303  -29.9221  -17.7415 O   0  0  0  0  0  0  0  0  0  0  0  0
   20.4327  -25.2867  -14.7063 N   0  0  0  0  0  0  0  0  0  0  0  0
   19.8791  -24.0466  -15.1924 C   0  0  0  0  0  0  0  0  0  0  0  0
   20.0132  -22.9433  -14.2133 C   0  0  0  0  0  0  0  0  0  0  0  0
   20.2718  -23.2124  -13.0030 O   0  0  0  0  0  0  0  0  0  0  0  0
   22.9500  -18.5307  -15.2265 C   0  0  0  0  0  0  0  0  0  0  0  0
   21.4794  -19.0138  -15.0258 C   0  0  1  0  0  0  0  0  0  0  0  0
   21.1161  -19.7703  -16.2931 C   0  0  0  0  0  0  0  0  0  0  0  0
   21.4026  -19.8697  -13.8328 C   0  0  0  0  0  0  0  0  0  0  0  0
   20.1143  -20.4940  -13.5169 C   0  0  2  0  0  0  0  0  0  0  0  0
   19.8720  -21.5834  -14.5319 N   0  0  0  0  0  0  0  0  0  0  0  0
   18.8739  -19.7496  -13.5246 C   0  0  0  0  0  0  0  0  0  0  0  0
   18.5522  -18.8410  -12.5383 O   0  0  0  0  0  0  0  0  0  0  0  0
   17.9738  -19.8776  -14.4326 O   0  0  0  0  0  0  0  0  0  0  0  0
  2  1  1  1
  2  3  1  0
  3  4  1  0
  5  4  1  0
  5  6  2  0
  7  2  1  0
  7  8  2  0
  9  5  1  0
 10  7  1  0
 11 10  1  0
 11 12  1  0
 12 19  1  0
 13 12  2  0
 15 14  1  6
 15 16  1  0
 17 15  1  0
 18 17  1  6
 19 18  1  0
 20 18  1  0
 20 21  1  0
 22 20  2  0
M  END
$$$$
