EGL.pdb
     RDKit          3D

 22 21  0  0  1  0  0  0  0  0999 V2000
   24.7605  -19.5520  -18.8667 N   0  0  0  0  0  0  0  0  0  0  0  0
   25.4077  -18.3404  -18.3593 C   0  0  1  0  0  0  0  0  0  0  0  0
   24.7768  -17.1877  -19.0953 C   0  0  0  0  0  0  0  0  0  0  0  0
   25.4465  -16.7897  -20.3577 C   0  0  0  0  0  0  0  0  0  0  0  0
   26.6054  -15.9332  -20.1534 C   0  0  0  0  0  0  0  0  0  0  0  0
   26.5795  -14.9574  -19.3726 O   0  0  0  0  0  0  0  0  0  0  0  0
   25.0841  -18.1387  -16.9179 C   0  0  0  0  0  0  0  0  0  0  0  0
   23.9876  -17.5949  -16.6284 O   0  0  0  0  0  0  0  0  0  0  0  0
   27.8319  -16.1382  -20.8147 O   0  0  0  0  0  0  0  0  0  0  0  0
   25.9392  -18.5240  -15.8654 N   0  0  0  0  0  0  0  0  0  0  0  0
   25.4847  -18.3661  -14.5056 C   0  0  0  0  0  0  0  0  0  0  0  0
   24.8728  -19.6019  -13.9650 C   0  0  0  0  0  0  0  0  0  0  0  0
   24.6879  -20.5925  -14.7323 O   0  0  0  0  0  0  0  0  0  0  0  0
   25.5525  -21.2428   -8.5651 C   0  0  0  0  0  0  0  0  0  0  0  0
   24.8493  -20.5430   -9.7701 C   0  0  1  0  0  0  0  0  0  0  0  0
   25.6095  -19.2464   -9.9964 C   0  0  0  0  0  0  0  0  0  0  0  0
   24.9001  -21.4233  -10.9466 C   0  0  0  0  0  0  0  0  0  0  0  0
   24.0324  -21.1013  -12.0836 C   0  0  2  0  0  0  0  0  0  0  0  0
   24.4703  -19.7651  -12.6301 N   0  0  0  0  0  0  0  0  0  0  0  0
   22.6005  -20.9505  -11.9428 C   0  0  0  0  0  0  0  0  0  0  0  0
   21.9551  -19.7591  -12.1993 O   0  0  0  0  0  0  0  0  0  0  0  0
   21.8201  -21.8975  -11.5618 O   0  0  0  0  0  0  0  0  0  0  0  0
  2  1  1  6
  2  3  1  0
  3  4  1  0
  5  4  1  0
  5  6  2  0
  7  2  1  0
  7  8  2  0
  9  5  1  0
 10  7  1  0
 11 10  1  0
 11 12  1  0
 12 19  1  0
 13 12  2  0
 15 14  1  1
 15 16  1  0
 17 15  1  0
 18 17  1  1
 19 18  1  0
 20 18  1  0
 20 21  1  0
 22 20  2  0
M  END
$$$$
