EGL.pdb
     RDKit          3D

 22 21  0  0  1  0  0  0  0  0999 V2000
   26.5404  -19.9135  -16.3400 N   0  0  0  0  0  0  0  0  0  0  0  0
   27.0003  -18.5357  -16.1536 C   0  0  1  0  0  0  0  0  0  0  0  0
   25.9202  -17.6523  -16.7205 C   0  0  0  0  0  0  0  0  0  0  0  0
   24.8285  -18.3548  -17.4382 C   0  0  0  0  0  0  0  0  0  0  0  0
   23.7069  -18.7103  -16.5813 C   0  0  0  0  0  0  0  0  0  0  0  0
   23.1112  -17.8620  -15.8827 O   0  0  0  0  0  0  0  0  0  0  0  0
   27.0871  -18.2049  -14.7024 C   0  0  0  0  0  0  0  0  0  0  0  0
   27.4621  -17.0481  -14.3809 O   0  0  0  0  0  0  0  0  0  0  0  0
   23.2136  -20.0253  -16.4763 O   0  0  0  0  0  0  0  0  0  0  0  0
   26.7724  -19.1168  -13.6745 N   0  0  0  0  0  0  0  0  0  0  0  0
   26.8787  -18.6839  -12.3027 C   0  0  0  0  0  0  0  0  0  0  0  0
   26.4867  -19.7411  -11.3423 C   0  0  0  0  0  0  0  0  0  0  0  0
   26.3170  -20.9263  -11.7556 O   0  0  0  0  0  0  0  0  0  0  0  0
   27.9001  -19.0651   -6.1358 C   0  0  0  0  0  0  0  0  0  0  0  0
   27.7500  -19.7478   -7.5314 C   0  0  1  0  0  0  0  0  0  0  0  0
   28.7777  -20.8674   -7.5566 C   0  0  0  0  0  0  0  0  0  0  0  0
   26.3788  -20.2558   -7.6842 C   0  0  0  0  0  0  0  0  0  0  0  0
   25.9377  -20.6499   -9.0256 C   0  0  2  0  0  0  0  0  0  0  0  0
   26.2829  -19.5255   -9.9702 N   0  0  0  0  0  0  0  0  0  0  0  0
   24.5513  -20.9279   -9.3312 C   0  0  0  0  0  0  0  0  0  0  0  0
   23.7651  -20.0543  -10.0526 O   0  0  0  0  0  0  0  0  0  0  0  0
   23.9397  -21.9927   -8.9527 O   0  0  0  0  0  0  0  0  0  0  0  0
  2  1  1  1
  2  3  1  0
  3  4  1  0
  5  4  1  0
  5  6  2  0
  7  2  1  0
  7  8  2  0
  9  5  1  0
 10  7  1  0
 11 10  1  0
 11 12  1  0
 12 19  1  0
 13 12  2  0
 15 14  1  1
 15 16  1  0
 17 15  1  0
 18 17  1  1
 19 18  1  0
 20 18  1  0
 20 21  1  0
 22 20  2  0
M  END
$$$$
