EGL.pdb
     RDKit          3D

 22 21  0  0  1  0  0  0  0  0999 V2000
   25.9765  -20.0489  -17.0917 N   0  0  0  0  0  0  0  0  0  0  0  0
   25.5586  -19.7716  -15.7159 C   0  0  1  0  0  0  0  0  0  0  0  0
   24.2683  -20.5208  -15.5100 C   0  0  0  0  0  0  0  0  0  0  0  0
   23.0625  -19.8970  -16.1078 C   0  0  0  0  0  0  0  0  0  0  0  0
   22.8229  -18.5384  -15.6441 C   0  0  0  0  0  0  0  0  0  0  0  0
   22.1589  -18.2971  -14.6129 O   0  0  0  0  0  0  0  0  0  0  0  0
   26.5327  -20.3497  -14.7464 C   0  0  0  0  0  0  0  0  0  0  0  0
   26.7562  -21.5863  -14.7989 O   0  0  0  0  0  0  0  0  0  0  0  0
   23.3170  -17.4041  -16.3169 O   0  0  0  0  0  0  0  0  0  0  0  0
   27.2146  -19.5864  -13.7771 N   0  0  0  0  0  0  0  0  0  0  0  0
   28.1433  -20.2498  -12.8951 C   0  0  0  0  0  0  0  0  0  0  0  0
   27.4731  -20.8719  -11.7299 C   0  0  0  0  0  0  0  0  0  0  0  0
   27.7450  -22.0699  -11.4214 O   0  0  0  0  0  0  0  0  0  0  0  0
   27.6723  -18.4112   -7.2084 C   0  0  0  0  0  0  0  0  0  0  0  0
   27.6385  -19.5615   -8.2629 C   0  0  1  0  0  0  0  0  0  0  0  0
   28.4061  -20.7161   -7.6398 C   0  0  0  0  0  0  0  0  0  0  0  0
   26.2425  -19.9211   -8.5522 C   0  0  0  0  0  0  0  0  0  0  0  0
   25.9871  -20.8469   -9.6599 C   0  0  2  0  0  0  0  0  0  0  0  0
   26.5331  -20.2181  -10.9177 N   0  0  0  0  0  0  0  0  0  0  0  0
   24.6491  -21.2445  -10.0400 C   0  0  0  0  0  0  0  0  0  0  0  0
   23.8464  -22.0112   -9.2215 O   0  0  0  0  0  0  0  0  0  0  0  0
   24.1059  -20.9308  -11.1614 O   0  0  0  0  0  0  0  0  0  0  0  0
  2  1  1  6
  2  3  1  0
  3  4  1  0
  5  4  1  0
  5  6  2  0
  7  2  1  0
  7  8  2  0
  9  5  1  0
 10  7  1  0
 11 10  1  0
 11 12  1  0
 12 19  1  0
 13 12  2  0
 15 14  1  1
 15 16  1  0
 17 15  1  0
 18 17  1  1
 19 18  1  0
 20 18  1  0
 20 21  1  0
 22 20  2  0
M  END
$$$$
