EGL.pdb
     RDKit          3D

 22 21  0  0  1  0  0  0  0  0999 V2000
   26.9306  -18.4027  -12.5602 N   0  0  0  0  0  0  0  0  0  0  0  0
   25.6846  -19.1381  -12.7863 C   0  0  1  0  0  0  0  0  0  0  0  0
   25.7185  -19.5900  -14.2226 C   0  0  0  0  0  0  0  0  0  0  0  0
   27.0607  -19.6203  -14.8535 C   0  0  0  0  0  0  0  0  0  0  0  0
   27.3820  -18.4068  -15.5900 C   0  0  0  0  0  0  0  0  0  0  0  0
   26.5256  -17.5271  -15.8246 O   0  0  0  0  0  0  0  0  0  0  0  0
   25.6528  -20.3798  -11.9617 C   0  0  0  0  0  0  0  0  0  0  0  0
   24.6807  -21.1639  -12.1105 O   0  0  0  0  0  0  0  0  0  0  0  0
   28.6708  -18.1357  -16.0891 O   0  0  0  0  0  0  0  0  0  0  0  0
   26.6513  -20.7209  -11.0268 N   0  0  0  0  0  0  0  0  0  0  0  0
   26.4615  -21.8869  -10.1993 C   0  0  0  0  0  0  0  0  0  0  0  0
   26.7122  -21.6119   -8.7657 C   0  0  0  0  0  0  0  0  0  0  0  0
   26.4022  -22.4836   -7.9007 O   0  0  0  0  0  0  0  0  0  0  0  0
   30.9335  -20.4136   -5.8800 C   0  0  0  0  0  0  0  0  0  0  0  0
   29.4832  -20.9256   -6.1462 C   0  0  1  0  0  0  0  0  0  0  0  0
   29.0913  -21.7188   -4.9102 C   0  0  0  0  0  0  0  0  0  0  0  0
   28.5912  -19.7785   -6.3698 C   0  0  0  0  0  0  0  0  0  0  0  0
   27.2218  -20.0501   -6.8175 C   0  0  2  0  0  0  0  0  0  0  0  0
   27.2832  -20.4261   -8.2772 N   0  0  0  0  0  0  0  0  0  0  0  0
   26.1829  -19.0443   -6.7760 C   0  0  0  0  0  0  0  0  0  0  0  0
   25.7371  -18.3964   -7.9089 O   0  0  0  0  0  0  0  0  0  0  0  0
   25.6023  -18.6663   -5.6939 O   0  0  0  0  0  0  0  0  0  0  0  0
  2  1  1  1
  2  3  1  0
  3  4  1  0
  5  4  1  0
  5  6  2  0
  7  2  1  0
  7  8  2  0
  9  5  1  0
 10  7  1  0
 11 10  1  0
 11 12  1  0
 12 19  1  0
 13 12  2  0
 15 14  1  1
 15 16  1  0
 17 15  1  0
 18 17  1  6
 19 18  1  0
 20 18  1  0
 20 21  1  0
 22 20  2  0
M  END
$$$$
