EGL.pdb
     RDKit          3D

 22 21  0  0  1  0  0  0  0  0999 V2000
   24.3425  -23.1291  -14.2434 N   0  0  0  0  0  0  0  0  0  0  0  0
   25.1248  -21.9295  -14.5493 C   0  0  1  0  0  0  0  0  0  0  0  0
   24.3380  -21.1675  -15.5831 C   0  0  0  0  0  0  0  0  0  0  0  0
   24.7078  -21.4340  -16.9948 C   0  0  0  0  0  0  0  0  0  0  0  0
   26.0006  -20.8800  -17.3693 C   0  0  0  0  0  0  0  0  0  0  0  0
   26.1548  -19.6643  -17.6158 O   0  0  0  0  0  0  0  0  0  0  0  0
   25.2091  -21.0411  -13.3549 C   0  0  0  0  0  0  0  0  0  0  0  0
   24.1376  -20.5825  -12.8821 O   0  0  0  0  0  0  0  0  0  0  0  0
   27.1641  -21.6657  -17.4808 O   0  0  0  0  0  0  0  0  0  0  0  0
   26.4221  -20.6889  -12.7290 N   0  0  0  0  0  0  0  0  0  0  0  0
   26.3868  -19.8077  -11.5876 C   0  0  0  0  0  0  0  0  0  0  0  0
   26.2568  -20.5422  -10.3080 C   0  0  0  0  0  0  0  0  0  0  0  0
   26.1892  -21.8069  -10.3197 O   0  0  0  0  0  0  0  0  0  0  0  0
   28.9382  -19.9202   -7.4099 C   0  0  0  0  0  0  0  0  0  0  0  0
   27.9529  -20.1194   -6.2159 C   0  0  1  0  0  0  0  0  0  0  0  0
   28.3732  -19.1100   -5.1601 C   0  0  0  0  0  0  0  0  0  0  0  0
   26.5742  -19.8943   -6.6746 C   0  0  0  0  0  0  0  0  0  0  0  0
   26.0714  -20.7250   -7.7729 C   0  0  2  0  0  0  0  0  0  0  0  0
   26.2012  -19.9277   -9.0470 N   0  0  0  0  0  0  0  0  0  0  0  0
   24.7065  -21.2027   -7.8165 C   0  0  0  0  0  0  0  0  0  0  0  0
   24.2751  -22.2739   -7.0627 O   0  0  0  0  0  0  0  0  0  0  0  0
   23.7952  -20.6836   -8.5588 O   0  0  0  0  0  0  0  0  0  0  0  0
  2  1  1  1
  2  3  1  0
  3  4  1  0
  5  4  1  0
  5  6  2  0
  7  2  1  0
  7  8  2  0
  9  5  1  0
 10  7  1  0
 11 10  1  0
 11 12  1  0
 12 19  1  0
 13 12  2  0
 15 14  1  6
 15 16  1  0
 17 15  1  0
 18 17  1  1
 19 18  1  0
 20 18  1  0
 20 21  1  0
 22 20  2  0
M  END
$$$$
