EGL.pdb
     RDKit          3D

 22 21  0  0  1  0  0  0  0  0999 V2000
   17.0691  -12.6311  -17.9739 N   0  0  0  0  0  0  0  0  0  0  0  0
   18.1389  -12.1672  -18.8597 C   0  0  1  0  0  0  0  0  0  0  0  0
   17.6058  -12.2917  -20.2628 C   0  0  0  0  0  0  0  0  0  0  0  0
   17.2657  -13.6680  -20.6995 C   0  0  0  0  0  0  0  0  0  0  0  0
   16.8390  -13.7461  -22.0888 C   0  0  0  0  0  0  0  0  0  0  0  0
   16.7372  -12.7297  -22.8093 O   0  0  0  0  0  0  0  0  0  0  0  0
   18.4042  -10.7159  -18.6444 C   0  0  0  0  0  0  0  0  0  0  0  0
   17.4289   -9.9709  -18.3691 O   0  0  0  0  0  0  0  0  0  0  0  0
   16.5118  -14.9621  -22.7195 O   0  0  0  0  0  0  0  0  0  0  0  0
   19.6860  -10.1360  -18.7327 N   0  0  0  0  0  0  0  0  0  0  0  0
   19.8212   -8.7127  -18.5415 C   0  0  0  0  0  0  0  0  0  0  0  0
   20.0094   -8.3470  -17.1186 C   0  0  0  0  0  0  0  0  0  0  0  0
   19.1198   -8.6583  -16.2725 O   0  0  0  0  0  0  0  0  0  0  0  0
   23.5728  -10.4651  -14.2248 C   0  0  0  0  0  0  0  0  0  0  0  0
   22.2247   -9.7346  -14.5172 C   0  0  1  0  0  0  0  0  0  0  0  0
   21.3523   -9.9721  -13.2954 C   0  0  0  0  0  0  0  0  0  0  0  0
   22.4803   -8.3042  -14.7415 C   0  0  0  0  0  0  0  0  0  0  0  0
   21.3514   -7.4592  -15.1425 C   0  0  2  0  0  0  0  0  0  0  0  0
   21.1294   -7.6625  -16.6207 N   0  0  0  0  0  0  0  0  0  0  0  0
   21.3784   -6.0194  -15.0046 C   0  0  0  0  0  0  0  0  0  0  0  0
   21.2624   -5.3928  -13.7816 O   0  0  0  0  0  0  0  0  0  0  0  0
   21.5002   -5.2124  -15.9971 O   0  0  0  0  0  0  0  0  0  0  0  0
  2  1  1  1
  2  3  1  0
  3  4  1  0
  5  4  1  0
  5  6  2  0
  7  2  1  0
  7  8  2  0
  9  5  1  0
 10  7  1  0
 11 10  1  0
 11 12  1  0
 12 19  1  0
 13 12  2  0
 15 14  1  1
 15 16  1  0
 17 15  1  0
 18 17  1  6
 19 18  1  0
 20 18  1  0
 20 21  1  0
 22 20  2  0
M  END
$$$$
