EGL.pdb
     RDKit          3D

 22 21  0  0  1  0  0  0  0  0999 V2000
   25.8339  -21.1543  -15.8541 N   0  0  0  0  0  0  0  0  0  0  0  0
   25.8526  -19.6906  -15.8138 C   0  0  1  0  0  0  0  0  0  0  0  0
   24.5531  -19.2371  -16.4254 C   0  0  0  0  0  0  0  0  0  0  0  0
   24.6425  -18.7274  -17.8157 C   0  0  0  0  0  0  0  0  0  0  0  0
   24.3881  -17.2986  -17.9262 C   0  0  0  0  0  0  0  0  0  0  0  0
   23.3749  -16.7648  -17.4252 O   0  0  0  0  0  0  0  0  0  0  0  0
   25.8385  -19.2057  -14.4039 C   0  0  0  0  0  0  0  0  0  0  0  0
   24.7248  -19.0776  -13.8336 O   0  0  0  0  0  0  0  0  0  0  0  0
   25.2570  -16.4186  -18.6000 O   0  0  0  0  0  0  0  0  0  0  0  0
   27.0035  -18.8842  -13.6781 N   0  0  0  0  0  0  0  0  0  0  0  0
   26.8750  -18.4706  -12.3023 C   0  0  0  0  0  0  0  0  0  0  0  0
   26.5574  -19.5997  -11.3979 C   0  0  0  0  0  0  0  0  0  0  0  0
   26.6615  -20.7877  -11.8244 O   0  0  0  0  0  0  0  0  0  0  0  0
   27.8767  -19.0250   -6.2434 C   0  0  0  0  0  0  0  0  0  0  0  0
   27.7348  -19.6737   -7.6560 C   0  0  1  0  0  0  0  0  0  0  0  0
   28.8036  -20.7523   -7.7250 C   0  0  0  0  0  0  0  0  0  0  0  0
   26.3818  -20.2290   -7.8073 C   0  0  0  0  0  0  0  0  0  0  0  0
   25.9516  -20.6340   -9.1490 C   0  0  2  0  0  0  0  0  0  0  0  0
   26.1380  -19.4510  -10.0664 N   0  0  0  0  0  0  0  0  0  0  0  0
   24.5984  -21.0624   -9.4287 C   0  0  0  0  0  0  0  0  0  0  0  0
   24.0928  -22.2592   -8.9663 O   0  0  0  0  0  0  0  0  0  0  0  0
   23.7672  -20.3790  -10.1309 O   0  0  0  0  0  0  0  0  0  0  0  0
  2  1  1  1
  2  3  1  0
  3  4  1  0
  5  4  1  0
  5  6  2  0
  7  2  1  0
  7  8  2  0
  9  5  1  0
 10  7  1  0
 11 10  1  0
 11 12  1  0
 12 19  1  0
 13 12  2  0
 15 14  1  1
 15 16  1  0
 17 15  1  0
 18 17  1  1
 19 18  1  0
 20 18  1  0
 20 21  1  0
 22 20  2  0
M  END
$$$$
