EGL.pdb
     RDKit          3D

 22 21  0  0  1  0  0  0  0  0999 V2000
   22.8584  -19.3847  -18.2942 N   0  0  0  0  0  0  0  0  0  0  0  0
   22.9961  -19.3435  -16.8368 C   0  0  1  0  0  0  0  0  0  0  0  0
   22.9431  -20.7743  -16.3695 C   0  0  0  0  0  0  0  0  0  0  0  0
   21.7674  -21.1344  -15.5397 C   0  0  0  0  0  0  0  0  0  0  0  0
   21.7015  -20.4058  -14.2814 C   0  0  0  0  0  0  0  0  0  0  0  0
   21.0624  -19.3377  -14.1664 O   0  0  0  0  0  0  0  0  0  0  0  0
   24.3427  -18.8316  -16.4527 C   0  0  0  0  0  0  0  0  0  0  0  0
   25.3461  -19.3025  -17.0472 O   0  0  0  0  0  0  0  0  0  0  0  0
   22.3473  -20.8461  -13.1099 O   0  0  0  0  0  0  0  0  0  0  0  0
   24.5507  -17.8508  -15.4617 N   0  0  0  0  0  0  0  0  0  0  0  0
   25.8966  -17.4082  -15.1914 C   0  0  0  0  0  0  0  0  0  0  0  0
   26.6430  -18.3550  -14.3312 C   0  0  0  0  0  0  0  0  0  0  0  0
   27.7958  -18.0396  -13.9118 O   0  0  0  0  0  0  0  0  0  0  0  0
   24.6872  -19.3670  -11.7068 C   0  0  0  0  0  0  0  0  0  0  0  0
   25.7499  -20.3383  -11.1038 C   0  0  1  0  0  0  0  0  0  0  0  0
   25.0313  -21.1086  -10.0080 C   0  0  0  0  0  0  0  0  0  0  0  0
   26.2572  -21.2272  -12.1594 C   0  0  0  0  0  0  0  0  0  0  0  0
   27.0365  -20.6274  -13.2467 C   0  0  2  0  0  0  0  0  0  0  0  0
   26.1582  -19.6109  -13.9332 N   0  0  0  0  0  0  0  0  0  0  0  0
   27.5594  -21.4112  -14.3444 C   0  0  0  0  0  0  0  0  0  0  0  0
   28.6558  -22.2362  -14.2057 O   0  0  0  0  0  0  0  0  0  0  0  0
   27.0606  -21.3976  -15.5285 O   0  0  0  0  0  0  0  0  0  0  0  0
  2  1  1  6
  2  3  1  0
  3  4  1  0
  5  4  1  0
  5  6  2  0
  7  2  1  0
  7  8  2  0
  9  5  1  0
 10  7  1  0
 11 10  1  0
 11 12  1  0
 12 19  1  0
 13 12  2  0
 15 14  1  6
 15 16  1  0
 17 15  1  0
 18 17  1  1
 19 18  1  0
 20 18  1  0
 20 21  1  0
 22 20  2  0
M  END
$$$$
