EGL.pdb
     RDKit          3D

 22 21  0  0  1  0  0  0  0  0999 V2000
   20.1115  -14.3812  -18.0718 N   0  0  0  0  0  0  0  0  0  0  0  0
   18.8718  -13.8200  -18.6126 C   0  0  1  0  0  0  0  0  0  0  0  0
   17.7549  -14.3836  -17.7739 C   0  0  0  0  0  0  0  0  0  0  0  0
   17.9467  -14.2918  -16.3058 C   0  0  0  0  0  0  0  0  0  0  0  0
   16.9151  -14.9788  -15.5428 C   0  0  0  0  0  0  0  0  0  0  0  0
   15.8855  -14.3936  -15.1430 O   0  0  0  0  0  0  0  0  0  0  0  0
   18.8353  -12.3429  -18.4130 C   0  0  0  0  0  0  0  0  0  0  0  0
   17.8463  -11.7096  -18.8632 O   0  0  0  0  0  0  0  0  0  0  0  0
   16.9994  -16.3425  -15.2011 O   0  0  0  0  0  0  0  0  0  0  0  0
   19.8472  -11.6205  -17.7486 N   0  0  0  0  0  0  0  0  0  0  0  0
   19.7304  -10.1861  -17.6527 C   0  0  0  0  0  0  0  0  0  0  0  0
   20.3580   -9.6469  -16.4242 C   0  0  0  0  0  0  0  0  0  0  0  0
   19.8324   -9.8902  -15.2978 O   0  0  0  0  0  0  0  0  0  0  0  0
   25.5217  -10.3404  -15.3659 C   0  0  0  0  0  0  0  0  0  0  0  0
   23.9731  -10.2016  -15.2284 C   0  0  1  0  0  0  0  0  0  0  0  0
   23.6104  -10.8910  -13.9232 C   0  0  0  0  0  0  0  0  0  0  0  0
   23.6070   -8.7777  -15.2190 C   0  0  0  0  0  0  0  0  0  0  0  0
   22.1847   -8.4347  -15.1249 C   0  0  2  0  0  0  0  0  0  0  0  0
   21.5237   -8.8646  -16.4109 N   0  0  0  0  0  0  0  0  0  0  0  0
   21.7294   -7.0720  -14.9557 C   0  0  0  0  0  0  0  0  0  0  0  0
   21.7577   -6.4306  -13.7352 O   0  0  0  0  0  0  0  0  0  0  0  0
   21.2563   -6.3566  -15.9124 O   0  0  0  0  0  0  0  0  0  0  0  0
  2  1  1  1
  2  3  1  0
  3  4  1  0
  5  4  1  0
  5  6  2  0
  7  2  1  0
  7  8  2  0
  9  5  1  0
 10  7  1  0
 11 10  1  0
 11 12  1  0
 12 19  1  0
 13 12  2  0
 15 14  1  1
 15 16  1  0
 17 15  1  0
 18 17  1  6
 19 18  1  0
 20 18  1  0
 20 21  1  0
 22 20  2  0
M  END
$$$$
