EGL.pdb
     RDKit          3D

 22 21  0  0  1  0  0  0  0  0999 V2000
   15.9771  -13.6367  -15.4112 N   0  0  0  0  0  0  0  0  0  0  0  0
   17.3946  -14.0033  -15.3852 C   0  0  1  0  0  0  0  0  0  0  0  0
   17.5535  -15.1357  -16.3654 C   0  0  0  0  0  0  0  0  0  0  0  0
   16.8310  -16.3854  -16.0236 C   0  0  0  0  0  0  0  0  0  0  0  0
   16.9021  -17.3991  -17.0656 C   0  0  0  0  0  0  0  0  0  0  0  0
   15.9189  -17.6816  -17.7840 O   0  0  0  0  0  0  0  0  0  0  0  0
   18.2338  -12.8853  -15.9039 C   0  0  0  0  0  0  0  0  0  0  0  0
   19.4770  -13.0627  -15.9749 O   0  0  0  0  0  0  0  0  0  0  0  0
   18.0738  -18.1308  -17.3399 O   0  0  0  0  0  0  0  0  0  0  0  0
   17.7097  -11.6439  -16.3178 N   0  0  0  0  0  0  0  0  0  0  0  0
   18.6043  -10.6640  -16.8835 C   0  0  0  0  0  0  0  0  0  0  0  0
   19.3434   -9.9060  -15.8476 C   0  0  0  0  0  0  0  0  0  0  0  0
   18.9584   -9.9607  -14.6423 O   0  0  0  0  0  0  0  0  0  0  0  0
   24.5168  -10.5528  -15.2059 C   0  0  0  0  0  0  0  0  0  0  0  0
   23.0262  -10.2857  -14.8275 C   0  0  1  0  0  0  0  0  0  0  0  0
   22.9266  -10.5428  -13.3327 C   0  0  0  0  0  0  0  0  0  0  0  0
   22.6730   -8.9008  -15.1725 C   0  0  0  0  0  0  0  0  0  0  0  0
   21.2788   -8.4832  -14.9965 C   0  0  2  0  0  0  0  0  0  0  0  0
   20.4697   -9.1087  -16.1056 N   0  0  0  0  0  0  0  0  0  0  0  0
   20.8789   -7.0935  -15.0356 C   0  0  0  0  0  0  0  0  0  0  0  0
   20.1751   -6.5575  -16.0936 O   0  0  0  0  0  0  0  0  0  0  0  0
   21.1508   -6.2491  -14.1060 O   0  0  0  0  0  0  0  0  0  0  0  0
  2  1  1  6
  2  3  1  0
  3  4  1  0
  5  4  1  0
  5  6  2  0
  7  2  1  0
  7  8  2  0
  9  5  1  0
 10  7  1  0
 11 10  1  0
 11 12  1  0
 12 19  1  0
 13 12  2  0
 15 14  1  1
 15 16  1  0
 17 15  1  0
 18 17  1  6
 19 18  1  0
 20 18  1  0
 20 21  1  0
 22 20  2  0
M  END
$$$$
