CWE.pdb
     RDKit          3D

 30 31  0  0  1  0  0  0  0  0999 V2000
    8.8841  -17.2025   18.6329 N   0  0  0  0  0  0  0  0  0  0  0  0
    8.3344  -17.2920   19.9505 C   0  0  1  0  0  0  0  0  0  0  0  0
    8.0008  -18.7113   20.3350 C   0  0  0  0  0  0  0  0  0  0  0  0
    6.2510  -19.0179   19.9267 S   0  0  0  0  0  0  0  0  0  0  0  0
    9.2579  -16.7096   20.9962 C   0  0  0  0  0  0  0  0  0  0  0  0
   10.4745  -16.5868   20.7097 O   0  0  0  0  0  0  0  0  0  0  0  0
    8.7108  -16.3347   22.2362 N   0  0  0  0  0  0  0  0  0  0  0  0
    9.4400  -15.8360   23.3537 C   0  0  1  0  0  0  0  0  0  0  0  0
    9.1061  -14.3851   23.6306 C   0  0  0  0  0  0  0  0  0  0  0  0
    7.9260  -14.3408   24.5321 C   0  0  0  0  0  0  0  0  0  0  0  0
    7.0512  -15.3257   24.9294 C   0  0  0  0  0  0  0  0  0  0  0  0
    6.1129  -14.8308   25.7794 N   0  0  0  0  0  0  0  0  0  0  0  0
    6.3491  -13.5203   25.9580 C   0  0  0  0  0  0  0  0  0  0  0  0
    5.6950  -12.5750   26.7172 C   0  0  0  0  0  0  0  0  0  0  0  0
    6.1339  -11.2605   26.7453 C   0  0  0  0  0  0  0  0  0  0  0  0
    7.2394  -10.9266   25.9950 C   0  0  0  0  0  0  0  0  0  0  0  0
    7.8824  -11.9088   25.2341 C   0  0  0  0  0  0  0  0  0  0  0  0
    7.4516  -13.1991   25.2061 C   0  0  0  0  0  0  0  0  0  0  0  0
    9.3166  -16.7144   24.5318 C   0  0  0  0  0  0  0  0  0  0  0  0
    8.4725  -16.4595   25.4218 O   0  0  0  0  0  0  0  0  0  0  0  0
   10.1383  -17.8607   24.6934 N   0  0  0  0  0  0  0  0  0  0  0  0
   11.4979  -17.8662   25.1757 C   0  0  1  0  0  0  0  0  0  0  0  0
   12.4163  -17.1435   24.2768 C   0  0  0  0  0  0  0  0  0  0  0  0
   13.8107  -16.9660   24.7558 C   0  0  0  0  0  0  0  0  0  0  0  0
   14.8321  -16.9485   23.7025 C   0  0  0  0  0  0  0  0  0  0  0  0
   15.5956  -17.8662   23.3794 O   0  0  0  0  0  0  0  0  0  0  0  0
   11.6335  -17.5585   26.6209 C   0  0  0  0  0  0  0  0  0  0  0  0
   12.7010  -17.6472   27.2510 O   0  0  0  0  0  0  0  0  0  0  0  0
   14.9592  -15.7499   22.9750 O   0  0  0  0  0  0  0  0  0  0  0  0
   10.5138  -17.1532   27.3135 O   0  0  0  0  0  0  0  0  0  0  0  0
  2  1  1  6
  2  5  1  0
  3  4  1  0
  3  2  1  0
  5  7  1  0
  5  6  2  0
  7  8  1  0
  8  9  1  1
  8 19  1  0
  9 10  1  0
 10 11  2  0
 10 18  1  0
 11 12  1  0
 12 13  1  0
 13 14  2  0
 14 15  1  0
 16 15  2  0
 17 18  2  0
 17 16  1  0
 18 13  1  0
 19 20  2  0
 21 22  1  0
 21 19  1  0
 23 24  1  0
 22 23  1  6
 24 25  1  0
 25 26  2  0
 25 29  1  0
 27 22  1  0
 27 30  1  0
 28 27  2  0
M  END
$$$$
