CWE.pdb
     RDKit          3D

 30 31  0  0  1  0  0  0  0  0999 V2000
    6.8677  -17.0662   21.4482 N   0  0  0  0  0  0  0  0  0  0  0  0
    7.6400  -15.8847   21.2167 C   0  0  1  0  0  0  0  0  0  0  0  0
    6.7743  -14.6668   21.0148 C   0  0  0  0  0  0  0  0  0  0  0  0
    7.7876  -13.3680   20.2344 S   0  0  0  0  0  0  0  0  0  0  0  0
    8.6131  -15.6083   22.3402 C   0  0  0  0  0  0  0  0  0  0  0  0
    9.5006  -14.7393   22.1549 O   0  0  0  0  0  0  0  0  0  0  0  0
    8.4774  -16.3366   23.5356 N   0  0  0  0  0  0  0  0  0  0  0  0
    9.3440  -16.2583   24.6635 C   0  0  1  0  0  0  0  0  0  0  0  0
    8.5654  -16.2696   25.9624 C   0  0  0  0  0  0  0  0  0  0  0  0
    7.4879  -15.2509   25.8704 C   0  0  0  0  0  0  0  0  0  0  0  0
    6.1457  -15.3734   25.5935 C   0  0  0  0  0  0  0  0  0  0  0  0
    5.5291  -14.1623   25.6229 N   0  0  0  0  0  0  0  0  0  0  0  0
    6.4455  -13.2251   25.9177 C   0  0  0  0  0  0  0  0  0  0  0  0
    6.3328  -11.8601   26.0664 C   0  0  0  0  0  0  0  0  0  0  0  0
    7.4398  -11.0873   26.3803 C   0  0  0  0  0  0  0  0  0  0  0  0
    8.6525  -11.7204   26.5392 C   0  0  0  0  0  0  0  0  0  0  0  0
    8.7352  -13.1080   26.3817 C   0  0  0  0  0  0  0  0  0  0  0  0
    7.6488  -13.8668   26.0733 C   0  0  0  0  0  0  0  0  0  0  0  0
   10.4230  -17.2617   24.6032 C   0  0  0  0  0  0  0  0  0  0  0  0
   10.1455  -18.4817   24.5363 O   0  0  0  0  0  0  0  0  0  0  0  0
   11.7912  -16.8835   24.6187 N   0  0  0  0  0  0  0  0  0  0  0  0
   12.9059  -17.7516   24.9109 C   0  0  1  0  0  0  0  0  0  0  0  0
   14.1535  -17.3004   24.2678 C   0  0  0  0  0  0  0  0  0  0  0  0
   14.0477  -16.8512   22.8563 C   0  0  0  0  0  0  0  0  0  0  0  0
   15.1726  -16.0409   22.3760 C   0  0  0  0  0  0  0  0  0  0  0  0
   16.1773  -15.6971   23.0102 O   0  0  0  0  0  0  0  0  0  0  0  0
   13.0187  -18.1396   26.3385 C   0  0  0  0  0  0  0  0  0  0  0  0
   12.3597  -17.6162   27.2529 O   0  0  0  0  0  0  0  0  0  0  0  0
   15.1021  -15.6031   21.0398 O   0  0  0  0  0  0  0  0  0  0  0  0
   13.9069  -19.1359   26.6796 O   0  0  0  0  0  0  0  0  0  0  0  0
  2  1  1  1
  2  5  1  0
  3  4  1  0
  3  2  1  0
  5  7  1  0
  5  6  2  0
  7  8  1  0
  8  9  1  1
  8 19  1  0
  9 10  1  0
 10 11  2  0
 10 18  1  0
 11 12  1  0
 12 13  1  0
 13 14  2  0
 14 15  1  0
 16 15  2  0
 17 18  2  0
 17 16  1  0
 18 13  1  0
 19 20  2  0
 21 22  1  0
 21 19  1  0
 23 24  1  0
 22 23  1  1
 24 25  1  0
 25 26  2  0
 25 29  1  0
 27 22  1  0
 27 30  1  0
 28 27  2  0
M  END
$$$$
