CWE.pdb
     RDKit          3D

 30 31  0  0  1  0  0  0  0  0999 V2000
    6.8106  -17.0061   21.3456 N   0  0  0  0  0  0  0  0  0  0  0  0
    7.5786  -15.8297   21.0769 C   0  0  1  0  0  0  0  0  0  0  0  0
    6.7106  -14.6105   20.8932 C   0  0  0  0  0  0  0  0  0  0  0  0
    5.1957  -15.1146   20.0137 S   0  0  0  0  0  0  0  0  0  0  0  0
    8.5903  -15.5466   22.1641 C   0  0  0  0  0  0  0  0  0  0  0  0
    9.3873  -14.5906   21.9972 O   0  0  0  0  0  0  0  0  0  0  0  0
    8.5896  -16.3662   23.3069 N   0  0  0  0  0  0  0  0  0  0  0  0
    9.4461  -16.2241   24.4363 C   0  0  1  0  0  0  0  0  0  0  0  0
    8.6810  -16.3751   25.7345 C   0  0  0  0  0  0  0  0  0  0  0  0
    7.5950  -15.3615   25.7576 C   0  0  0  0  0  0  0  0  0  0  0  0
    6.2340  -15.4874   25.5994 C   0  0  0  0  0  0  0  0  0  0  0  0
    5.6170  -14.2808   25.7058 N   0  0  0  0  0  0  0  0  0  0  0  0
    6.5518  -13.3433   25.9348 C   0  0  0  0  0  0  0  0  0  0  0  0
    6.4467  -11.9820   26.1180 C   0  0  0  0  0  0  0  0  0  0  0  0
    7.5738  -11.2081   26.3461 C   0  0  0  0  0  0  0  0  0  0  0  0
    8.7986  -11.8365   26.3846 C   0  0  0  0  0  0  0  0  0  0  0  0
    8.8732  -13.2205   26.1949 C   0  0  0  0  0  0  0  0  0  0  0  0
    7.7671  -13.9803   25.9707 C   0  0  0  0  0  0  0  0  0  0  0  0
   10.6377  -17.0875   24.3394 C   0  0  0  0  0  0  0  0  0  0  0  0
   10.5109  -18.3331   24.2931 O   0  0  0  0  0  0  0  0  0  0  0  0
   11.9482  -16.5433   24.2962 N   0  0  0  0  0  0  0  0  0  0  0  0
   13.1757  -17.2977   24.2223 C   0  0  1  0  0  0  0  0  0  0  0  0
   14.2864  -16.5101   23.6569 C   0  0  0  0  0  0  0  0  0  0  0  0
   15.6137  -17.1746   23.6084 C   0  0  0  0  0  0  0  0  0  0  0  0
   16.6908  -16.3692   23.0219 C   0  0  0  0  0  0  0  0  0  0  0  0
   16.9809  -15.1957   23.2835 O   0  0  0  0  0  0  0  0  0  0  0  0
   13.4909  -18.0710   25.4487 C   0  0  0  0  0  0  0  0  0  0  0  0
   14.0508  -19.1804   25.4435 O   0  0  0  0  0  0  0  0  0  0  0  0
   17.4866  -17.0034   22.0490 O   0  0  0  0  0  0  0  0  0  0  0  0
   13.1426  -17.5361   26.6695 O   0  0  0  0  0  0  0  0  0  0  0  0
  2  1  1  1
  2  5  1  0
  3  4  1  0
  3  2  1  0
  5  7  1  0
  5  6  2  0
  7  8  1  0
  8  9  1  1
  8 19  1  0
  9 10  1  0
 10 11  2  0
 10 18  1  0
 11 12  1  0
 12 13  1  0
 13 14  2  0
 14 15  1  0
 16 15  2  0
 17 18  2  0
 17 16  1  0
 18 13  1  0
 19 20  2  0
 21 22  1  0
 21 19  1  0
 23 24  1  0
 22 23  1  1
 24 25  1  0
 25 26  2  0
 25 29  1  0
 27 22  1  0
 27 30  1  0
 28 27  2  0
M  END
$$$$
