CWE.pdb
     RDKit          3D

 30 31  0  0  1  0  0  0  0  0999 V2000
    8.7736  -16.2350   17.9009 N   0  0  0  0  0  0  0  0  0  0  0  0
    7.9441  -16.6434   18.9923 C   0  0  1  0  0  0  0  0  0  0  0  0
    7.7352  -18.1363   19.0234 C   0  0  0  0  0  0  0  0  0  0  0  0
    9.3629  -18.9378   19.1989 S   0  0  0  0  0  0  0  0  0  0  0  0
    8.4982  -16.2023   20.3280 C   0  0  0  0  0  0  0  0  0  0  0  0
    9.7232  -15.9359   20.4022 O   0  0  0  0  0  0  0  0  0  0  0  0
    7.6167  -16.1124   21.4200 N   0  0  0  0  0  0  0  0  0  0  0  0
    7.9713  -15.7497   22.7511 C   0  0  1  0  0  0  0  0  0  0  0  0
    6.7516  -15.6574   23.6439 C   0  0  0  0  0  0  0  0  0  0  0  0
    7.1915  -15.2138   24.9920 C   0  0  0  0  0  0  0  0  0  0  0  0
    7.7829  -15.9036   26.0252 C   0  0  0  0  0  0  0  0  0  0  0  0
    8.0219  -15.0854   27.0841 N   0  0  0  0  0  0  0  0  0  0  0  0
    7.5963  -13.8499   26.7720 C   0  0  0  0  0  0  0  0  0  0  0  0
    7.6121  -12.6753   27.4918 C   0  0  0  0  0  0  0  0  0  0  0  0
    7.1091  -11.5037   26.9481 C   0  0  0  0  0  0  0  0  0  0  0  0
    6.5944  -11.5464   25.6714 C   0  0  0  0  0  0  0  0  0  0  0  0
    6.5922  -12.7542   24.9656 C   0  0  0  0  0  0  0  0  0  0  0  0
    7.0856  -13.9044   25.4992 C   0  0  0  0  0  0  0  0  0  0  0  0
    9.0450  -16.6046   23.2904 C   0  0  0  0  0  0  0  0  0  0  0  0
    9.0015  -17.8465   23.1306 O   0  0  0  0  0  0  0  0  0  0  0  0
   10.1469  -16.0563   23.9980 N   0  0  0  0  0  0  0  0  0  0  0  0
   11.3654  -16.7506   24.3364 C   0  0  1  0  0  0  0  0  0  0  0  0
   12.5374  -16.2089   23.6247 C   0  0  0  0  0  0  0  0  0  0  0  0
   13.8372  -16.8806   23.8794 C   0  0  0  0  0  0  0  0  0  0  0  0
   14.9804  -16.3184   23.1514 C   0  0  0  0  0  0  0  0  0  0  0  0
   14.9584  -15.6846   22.0896 O   0  0  0  0  0  0  0  0  0  0  0  0
   11.5464  -16.9917   25.7892 C   0  0  0  0  0  0  0  0  0  0  0  0
   11.0499  -16.2780   26.6771 O   0  0  0  0  0  0  0  0  0  0  0  0
   16.2492  -16.5230   23.7261 O   0  0  0  0  0  0  0  0  0  0  0  0
   12.3118  -18.0663   26.1858 O   0  0  0  0  0  0  0  0  0  0  0  0
  2  1  1  6
  2  5  1  0
  3  4  1  0
  3  2  1  0
  5  7  1  0
  5  6  2  0
  7  8  1  0
  8  9  1  1
  8 19  1  0
  9 10  1  0
 10 11  2  0
 10 18  1  0
 11 12  1  0
 12 13  1  0
 13 14  2  0
 14 15  1  0
 16 15  2  0
 17 18  2  0
 17 16  1  0
 18 13  1  0
 19 20  2  0
 21 22  1  0
 21 19  1  0
 23 24  1  0
 22 23  1  1
 24 25  1  0
 25 26  2  0
 25 29  1  0
 27 22  1  0
 27 30  1  0
 28 27  2  0
M  END
$$$$
