CWE.pdb
     RDKit          3D

 30 31  0  0  1  0  0  0  0  0999 V2000
    7.1596  -16.9886   21.4077 N   0  0  0  0  0  0  0  0  0  0  0  0
    8.0146  -15.8589   21.2107 C   0  0  1  0  0  0  0  0  0  0  0  0
    7.2406  -14.6072   20.8828 C   0  0  0  0  0  0  0  0  0  0  0  0
    6.0083  -15.0157   19.6033 S   0  0  0  0  0  0  0  0  0  0  0  0
    8.8902  -15.5879   22.4130 C   0  0  0  0  0  0  0  0  0  0  0  0
    9.7231  -14.6508   22.3400 O   0  0  0  0  0  0  0  0  0  0  0  0
    8.7298  -16.3969   23.5520 N   0  0  0  0  0  0  0  0  0  0  0  0
    9.4935  -16.3103   24.7515 C   0  0  1  0  0  0  0  0  0  0  0  0
    8.6102  -16.3980   25.9784 C   0  0  0  0  0  0  0  0  0  0  0  0
    7.5165  -15.4020   25.8391 C   0  0  0  0  0  0  0  0  0  0  0  0
    6.2133  -15.5394   25.4198 C   0  0  0  0  0  0  0  0  0  0  0  0
    5.5599  -14.3480   25.4597 N   0  0  0  0  0  0  0  0  0  0  0  0
    6.4129  -13.4094   25.9031 C   0  0  0  0  0  0  0  0  0  0  0  0
    6.2439  -12.0598   26.1224 C   0  0  0  0  0  0  0  0  0  0  0  0
    7.2896  -11.2818   26.5942 C   0  0  0  0  0  0  0  0  0  0  0  0
    8.4991  -11.8940   26.8371 C   0  0  0  0  0  0  0  0  0  0  0  0
    8.6398  -13.2663   26.6047 C   0  0  0  0  0  0  0  0  0  0  0  0
    7.6136  -14.0301   26.1413 C   0  0  0  0  0  0  0  0  0  0  0  0
   10.6233  -17.2580   24.7579 C   0  0  0  0  0  0  0  0  0  0  0  0
   10.4188  -18.4830   24.5927 O   0  0  0  0  0  0  0  0  0  0  0  0
   11.9600  -16.8195   24.9488 N   0  0  0  0  0  0  0  0  0  0  0  0
   13.1007  -17.6663   25.1998 C   0  0  1  0  0  0  0  0  0  0  0  0
   14.3487  -17.1062   24.6499 C   0  0  0  0  0  0  0  0  0  0  0  0
   14.2750  -16.5428   23.2778 C   0  0  0  0  0  0  0  0  0  0  0  0
   15.5540  -16.0817   22.7259 C   0  0  0  0  0  0  0  0  0  0  0  0
   16.0626  -14.9602   22.8407 O   0  0  0  0  0  0  0  0  0  0  0  0
   13.1818  -18.1843   26.5879 C   0  0  0  0  0  0  0  0  0  0  0  0
   12.4717  -17.7759   27.5224 O   0  0  0  0  0  0  0  0  0  0  0  0
   16.2881  -17.0228   21.9791 O   0  0  0  0  0  0  0  0  0  0  0  0
   14.0984  -19.1743   26.8664 O   0  0  0  0  0  0  0  0  0  0  0  0
  2  1  1  1
  2  5  1  0
  3  4  1  0
  3  2  1  0
  5  7  1  0
  5  6  2  0
  7  8  1  0
  8  9  1  1
  8 19  1  0
  9 10  1  0
 10 11  2  0
 10 18  1  0
 11 12  1  0
 12 13  1  0
 13 14  2  0
 14 15  1  0
 16 15  2  0
 17 18  2  0
 17 16  1  0
 18 13  1  0
 19 20  2  0
 21 22  1  0
 21 19  1  0
 23 24  1  0
 22 23  1  1
 24 25  1  0
 25 26  2  0
 25 29  1  0
 27 22  1  0
 27 30  1  0
 28 27  2  0
M  END
$$$$
