CWE.pdb
     RDKit          3D

 30 31  0  0  1  0  0  0  0  0999 V2000
    8.3400  -13.1147   18.0139 N   0  0  0  0  0  0  0  0  0  0  0  0
    7.9682  -14.3268   18.6760 C   0  0  1  0  0  0  0  0  0  0  0  0
    8.4755  -15.5502   17.9552 C   0  0  0  0  0  0  0  0  0  0  0  0
    7.5783  -15.6959   16.3752 S   0  0  0  0  0  0  0  0  0  0  0  0
    8.4546  -14.3692   20.1069 C   0  0  0  0  0  0  0  0  0  0  0  0
    9.6085  -13.9391   20.3532 O   0  0  0  0  0  0  0  0  0  0  0  0
    7.5930  -14.8874   21.0901 N   0  0  0  0  0  0  0  0  0  0  0  0
    7.8683  -14.9617   22.4858 C   0  0  1  0  0  0  0  0  0  0  0  0
    6.5932  -15.0487   23.2983 C   0  0  0  0  0  0  0  0  0  0  0  0
    6.9518  -14.9880   24.7388 C   0  0  0  0  0  0  0  0  0  0  0  0
    7.3716  -15.9662   25.6105 C   0  0  0  0  0  0  0  0  0  0  0  0
    7.5965  -15.4522   26.8488 N   0  0  0  0  0  0  0  0  0  0  0  0
    7.3316  -14.1355   26.8177 C   0  0  0  0  0  0  0  0  0  0  0  0
    7.4033  -13.1714   27.7992 C   0  0  0  0  0  0  0  0  0  0  0  0
    7.0762  -11.8530   27.5235 C   0  0  0  0  0  0  0  0  0  0  0  0
    6.6786  -11.5343   26.2441 C   0  0  0  0  0  0  0  0  0  0  0  0
    6.6157  -12.5354   25.2688 C   0  0  0  0  0  0  0  0  0  0  0  0
    6.9364  -13.8296   25.5393 C   0  0  0  0  0  0  0  0  0  0  0  0
    8.8521  -16.0141   22.8007 C   0  0  0  0  0  0  0  0  0  0  0  0
    8.7263  -17.1606   22.3114 O   0  0  0  0  0  0  0  0  0  0  0  0
    9.9577  -15.7660   23.6560 N   0  0  0  0  0  0  0  0  0  0  0  0
   11.0460  -16.6761   23.9179 C   0  0  1  0  0  0  0  0  0  0  0  0
   12.3258  -16.1960   23.3653 C   0  0  0  0  0  0  0  0  0  0  0  0
   13.5185  -17.0428   23.6215 C   0  0  0  0  0  0  0  0  0  0  0  0
   14.7564  -16.5823   22.9825 C   0  0  0  0  0  0  0  0  0  0  0  0
   15.2451  -15.4467   23.0195 O   0  0  0  0  0  0  0  0  0  0  0  0
   11.0941  -17.1843   25.3110 C   0  0  0  0  0  0  0  0  0  0  0  0
   10.4907  -16.6583   26.2616 O   0  0  0  0  0  0  0  0  0  0  0  0
   15.4717  -17.5420   22.2413 O   0  0  0  0  0  0  0  0  0  0  0  0
   11.8531  -18.3031   25.5757 O   0  0  0  0  0  0  0  0  0  0  0  0
  2  1  1  6
  2  5  1  0
  3  4  1  0
  3  2  1  0
  5  7  1  0
  5  6  2  0
  7  8  1  0
  8  9  1  1
  8 19  1  0
  9 10  1  0
 10 11  2  0
 10 18  1  0
 11 12  1  0
 12 13  1  0
 13 14  2  0
 14 15  1  0
 16 15  2  0
 17 18  2  0
 17 16  1  0
 18 13  1  0
 19 20  2  0
 21 22  1  0
 21 19  1  0
 23 24  1  0
 22 23  1  1
 24 25  1  0
 25 26  2  0
 25 29  1  0
 27 22  1  0
 27 30  1  0
 28 27  2  0
M  END
$$$$
