CWE.pdb
     RDKit          3D

 30 31  0  0  1  0  0  0  0  0999 V2000
   10.9580  -15.9868   18.4472 N   0  0  0  0  0  0  0  0  0  0  0  0
    9.8875  -16.5310   19.2244 C   0  0  1  0  0  0  0  0  0  0  0  0
    9.8926  -18.0388   19.2269 C   0  0  0  0  0  0  0  0  0  0  0  0
   11.3850  -18.6040   20.1079 S   0  0  0  0  0  0  0  0  0  0  0  0
    9.9138  -16.0426   20.6550 C   0  0  0  0  0  0  0  0  0  0  0  0
   11.0269  -15.7643   21.1655 O   0  0  0  0  0  0  0  0  0  0  0  0
    8.6929  -15.9243   21.3428 N   0  0  0  0  0  0  0  0  0  0  0  0
    8.5409  -15.6348   22.7293 C   0  0  1  0  0  0  0  0  0  0  0  0
    7.1033  -15.3039   23.0719 C   0  0  0  0  0  0  0  0  0  0  0  0
    7.0232  -15.0201   24.5281 C   0  0  0  0  0  0  0  0  0  0  0  0
    6.9401  -15.8627   25.6127 C   0  0  0  0  0  0  0  0  0  0  0  0
    6.8952  -15.1588   26.7748 N   0  0  0  0  0  0  0  0  0  0  0  0
    6.9479  -13.8488   26.4813 C   0  0  0  0  0  0  0  0  0  0  0  0
    6.9358  -12.7354   27.2926 C   0  0  0  0  0  0  0  0  0  0  0  0
    7.0034  -11.4618   26.7497 C   0  0  0  0  0  0  0  0  0  0  0  0
    7.0830  -11.3407   25.3802 C   0  0  0  0  0  0  0  0  0  0  0  0
    7.0932  -12.4900   24.5828 C   0  0  0  0  0  0  0  0  0  0  0  0
    7.0265  -13.7403   25.1153 C   0  0  0  0  0  0  0  0  0  0  0  0
    9.1340  -16.6817   23.5818 C   0  0  0  0  0  0  0  0  0  0  0  0
    8.7790  -17.8762   23.4514 O   0  0  0  0  0  0  0  0  0  0  0  0
   10.1124  -16.3748   24.5636 N   0  0  0  0  0  0  0  0  0  0  0  0
   10.7259  -17.3148   25.4697 C   0  0  1  0  0  0  0  0  0  0  0  0
   12.1210  -17.6203   25.1035 C   0  0  0  0  0  0  0  0  0  0  0  0
   12.9552  -16.4760   24.6560 C   0  0  0  0  0  0  0  0  0  0  0  0
   13.9886  -16.8090   23.6690 C   0  0  0  0  0  0  0  0  0  0  0  0
   14.2349  -17.9192   23.1827 O   0  0  0  0  0  0  0  0  0  0  0  0
   10.4832  -17.0258   26.9047 C   0  0  0  0  0  0  0  0  0  0  0  0
   10.8839  -17.7469   27.8341 O   0  0  0  0  0  0  0  0  0  0  0  0
   14.7934  -15.7434   23.2231 O   0  0  0  0  0  0  0  0  0  0  0  0
    9.7694  -15.8947   27.2348 O   0  0  0  0  0  0  0  0  0  0  0  0
  2  1  1  6
  2  5  1  0
  3  4  1  0
  3  2  1  0
  5  7  1  0
  5  6  2  0
  7  8  1  0
  8  9  1  1
  8 19  1  0
  9 10  1  0
 10 11  2  0
 10 18  1  0
 11 12  1  0
 12 13  1  0
 13 14  2  0
 14 15  1  0
 16 15  2  0
 17 18  2  0
 17 16  1  0
 18 13  1  0
 19 20  2  0
 21 22  1  0
 21 19  1  0
 23 24  1  0
 22 23  1  1
 24 25  1  0
 25 26  2  0
 25 29  1  0
 27 22  1  0
 27 30  1  0
 28 27  2  0
M  END
$$$$
