CWE.pdb
     RDKit          3D

 30 31  0  0  1  0  0  0  0  0999 V2000
    8.1402  -17.0680   20.5565 N   0  0  0  0  0  0  0  0  0  0  0  0
    8.9017  -15.8672   20.7123 C   0  0  1  0  0  0  0  0  0  0  0  0
    8.1492  -14.6485   20.2412 C   0  0  0  0  0  0  0  0  0  0  0  0
    7.6893  -14.9000   18.4954 S   0  0  0  0  0  0  0  0  0  0  0  0
    9.3358  -15.6471   22.1437 C   0  0  0  0  0  0  0  0  0  0  0  0
   10.1219  -14.6978   22.3849 O   0  0  0  0  0  0  0  0  0  0  0  0
    8.8395  -16.5145   23.1330 N   0  0  0  0  0  0  0  0  0  0  0  0
    9.1300  -16.4450   24.5259 C   0  0  1  0  0  0  0  0  0  0  0  0
    7.8689  -16.5305   25.3600 C   0  0  0  0  0  0  0  0  0  0  0  0
    7.0816  -15.2888   25.1457 C   0  0  0  0  0  0  0  0  0  0  0  0
    6.0289  -15.0171   24.3025 C   0  0  0  0  0  0  0  0  0  0  0  0
    5.6068  -13.7330   24.4474 N   0  0  0  0  0  0  0  0  0  0  0  0
    6.3669  -13.1380   25.3819 C   0  0  0  0  0  0  0  0  0  0  0  0
    6.3443  -11.8579   25.8905 C   0  0  0  0  0  0  0  0  0  0  0  0
    7.2440  -11.4682   26.8704 C   0  0  0  0  0  0  0  0  0  0  0  0
    8.1587  -12.3942   27.3203 C   0  0  0  0  0  0  0  0  0  0  0  0
    8.1569  -13.6864   26.7844 C   0  0  0  0  0  0  0  0  0  0  0  0
    7.2741  -14.0691   25.8224 C   0  0  0  0  0  0  0  0  0  0  0  0
   10.1761  -17.4060   24.9218 C   0  0  0  0  0  0  0  0  0  0  0  0
    9.9755  -18.6376   24.8086 O   0  0  0  0  0  0  0  0  0  0  0  0
   11.4265  -16.9733   25.4365 N   0  0  0  0  0  0  0  0  0  0  0  0
   12.4803  -17.8270   25.9283 C   0  0  1  0  0  0  0  0  0  0  0  0
   13.8205  -17.3335   25.5625 C   0  0  0  0  0  0  0  0  0  0  0  0
   14.0466  -17.0293   24.1266 C   0  0  0  0  0  0  0  0  0  0  0  0
   15.1944  -16.1584   23.8491 C   0  0  0  0  0  0  0  0  0  0  0  0
   15.9781  -15.6627   24.6675 O   0  0  0  0  0  0  0  0  0  0  0  0
   12.3116  -18.2526   27.3397 C   0  0  0  0  0  0  0  0  0  0  0  0
   11.3907  -17.8604   28.0762 O   0  0  0  0  0  0  0  0  0  0  0  0
   15.4326  -15.8503   22.4961 O   0  0  0  0  0  0  0  0  0  0  0  0
   13.2278  -19.1317   27.8741 O   0  0  0  0  0  0  0  0  0  0  0  0
  2  1  1  1
  2  5  1  0
  3  4  1  0
  3  2  1  0
  5  7  1  0
  5  6  2  0
  7  8  1  0
  8  9  1  1
  8 19  1  0
  9 10  1  0
 10 11  2  0
 10 18  1  0
 11 12  1  0
 12 13  1  0
 13 14  2  0
 14 15  1  0
 16 15  2  0
 17 18  2  0
 17 16  1  0
 18 13  1  0
 19 20  2  0
 21 22  1  0
 21 19  1  0
 23 24  1  0
 22 23  1  1
 24 25  1  0
 25 26  2  0
 25 29  1  0
 27 22  1  0
 27 30  1  0
 28 27  2  0
M  END
$$$$
