CWE.pdb
     RDKit          3D

 30 31  0  0  1  0  0  0  0  0999 V2000
    6.6989  -14.5883   20.3741 N   0  0  0  0  0  0  0  0  0  0  0  0
    7.1987  -15.7717   21.0032 C   0  0  1  0  0  0  0  0  0  0  0  0
    7.8949  -16.6867   20.0276 C   0  0  0  0  0  0  0  0  0  0  0  0
    8.1381  -18.3034   20.8337 S   0  0  0  0  0  0  0  0  0  0  0  0
    8.1474  -15.4591   22.1380 C   0  0  0  0  0  0  0  0  0  0  0  0
    8.8930  -14.4547   22.0271 O   0  0  0  0  0  0  0  0  0  0  0  0
    8.1488  -16.3069   23.2601 N   0  0  0  0  0  0  0  0  0  0  0  0
    9.0604  -16.2432   24.3530 C   0  0  1  0  0  0  0  0  0  0  0  0
    8.3349  -16.2695   25.6820 C   0  0  0  0  0  0  0  0  0  0  0  0
    7.2842  -15.2192   25.6618 C   0  0  0  0  0  0  0  0  0  0  0  0
    5.9461  -15.2813   25.3475 C   0  0  0  0  0  0  0  0  0  0  0  0
    5.3580  -14.0624   25.4753 N   0  0  0  0  0  0  0  0  0  0  0  0
    6.2895  -13.1799   25.8735 C   0  0  0  0  0  0  0  0  0  0  0  0
    6.2060  -11.8318   26.1445 C   0  0  0  0  0  0  0  0  0  0  0  0
    7.3237  -11.1196   26.5506 C   0  0  0  0  0  0  0  0  0  0  0  0
    8.5170  -11.7956   26.6754 C   0  0  0  0  0  0  0  0  0  0  0  0
    8.5702  -13.1647   26.3930 C   0  0  0  0  0  0  0  0  0  0  0  0
    7.4734  -13.8639   25.9941 C   0  0  0  0  0  0  0  0  0  0  0  0
   10.1345  -17.2469   24.2370 C   0  0  0  0  0  0  0  0  0  0  0  0
    9.8613  -18.4691   24.2749 O   0  0  0  0  0  0  0  0  0  0  0  0
   11.4933  -16.8666   24.0810 N   0  0  0  0  0  0  0  0  0  0  0  0
   12.6385  -17.6048   24.5553 C   0  0  1  0  0  0  0  0  0  0  0  0
   13.9133  -17.0073   24.1175 C   0  0  0  0  0  0  0  0  0  0  0  0
   14.0342  -16.6866   22.6726 C   0  0  0  0  0  0  0  0  0  0  0  0
   14.9987  -15.6292   22.3493 C   0  0  0  0  0  0  0  0  0  0  0  0
   14.7994  -14.6072   21.6819 O   0  0  0  0  0  0  0  0  0  0  0  0
   12.5644  -17.9926   25.9855 C   0  0  0  0  0  0  0  0  0  0  0  0
   11.6907  -17.5847   26.7696 O   0  0  0  0  0  0  0  0  0  0  0  0
   16.3016  -15.7953   22.8563 O   0  0  0  0  0  0  0  0  0  0  0  0
   13.5187  -18.8528   26.4826 O   0  0  0  0  0  0  0  0  0  0  0  0
  2  1  1  6
  2  5  1  0
  3  4  1  0
  3  2  1  0
  5  7  1  0
  5  6  2  0
  7  8  1  0
  8  9  1  1
  8 19  1  0
  9 10  1  0
 10 11  2  0
 10 18  1  0
 11 12  1  0
 12 13  1  0
 13 14  2  0
 14 15  1  0
 16 15  2  0
 17 18  2  0
 17 16  1  0
 18 13  1  0
 19 20  2  0
 21 22  1  0
 21 19  1  0
 23 24  1  0
 22 23  1  1
 24 25  1  0
 25 26  2  0
 25 29  1  0
 27 22  1  0
 27 30  1  0
 28 27  2  0
M  END
$$$$
