CWE.pdb
     RDKit          3D

 30 31  0  0  1  0  0  0  0  0999 V2000
    7.5885  -14.3894   19.6950 N   0  0  0  0  0  0  0  0  0  0  0  0
    7.2896  -15.3735   20.6891 C   0  0  1  0  0  0  0  0  0  0  0  0
    7.2334  -16.7666   20.1148 C   0  0  0  0  0  0  0  0  0  0  0  0
    8.8443  -17.1327   19.3443 S   0  0  0  0  0  0  0  0  0  0  0  0
    8.2843  -15.3569   21.8274 C   0  0  0  0  0  0  0  0  0  0  0  0
    9.3876  -14.7863   21.6418 O   0  0  0  0  0  0  0  0  0  0  0  0
    7.9265  -15.9803   23.0362 N   0  0  0  0  0  0  0  0  0  0  0  0
    8.7432  -16.0761   24.1994 C   0  0  1  0  0  0  0  0  0  0  0  0
    7.9111  -16.3099   25.4429 C   0  0  0  0  0  0  0  0  0  0  0  0
    7.0326  -15.1291   25.6464 C   0  0  0  0  0  0  0  0  0  0  0  0
    5.6709  -14.9793   25.5175 C   0  0  0  0  0  0  0  0  0  0  0  0
    5.2897  -13.7089   25.8150 N   0  0  0  0  0  0  0  0  0  0  0  0
    6.3839  -13.0019   26.1435 C   0  0  0  0  0  0  0  0  0  0  0  0
    6.5349  -11.6859   26.5218 C   0  0  0  0  0  0  0  0  0  0  0  0
    7.7877  -11.1730   26.8197 C   0  0  0  0  0  0  0  0  0  0  0  0
    8.8746  -12.0136   26.7273 C   0  0  0  0  0  0  0  0  0  0  0  0
    8.6894  -13.3452   26.3404 C   0  0  0  0  0  0  0  0  0  0  0  0
    7.4598  -13.8488   26.0477 C   0  0  0  0  0  0  0  0  0  0  0  0
    9.8439  -17.0419   24.0250 C   0  0  0  0  0  0  0  0  0  0  0  0
    9.7706  -17.9276   23.1419 O   0  0  0  0  0  0  0  0  0  0  0  0
   11.0054  -17.0000   24.8401 N   0  0  0  0  0  0  0  0  0  0  0  0
   12.0835  -17.9585   24.8268 C   0  0  1  0  0  0  0  0  0  0  0  0
   13.1003  -17.6470   23.8056 C   0  0  0  0  0  0  0  0  0  0  0  0
   14.0465  -16.5478   24.1250 C   0  0  0  0  0  0  0  0  0  0  0  0
   15.0100  -16.2297   23.0652 C   0  0  0  0  0  0  0  0  0  0  0  0
   15.8134  -16.9982   22.5232 O   0  0  0  0  0  0  0  0  0  0  0  0
   12.6045  -18.3090   26.1712 C   0  0  0  0  0  0  0  0  0  0  0  0
   12.2047  -17.7885   27.2265 O   0  0  0  0  0  0  0  0  0  0  0  0
   15.0232  -14.8969   22.6118 O   0  0  0  0  0  0  0  0  0  0  0  0
   13.5926  -19.2645   26.2636 O   0  0  0  0  0  0  0  0  0  0  0  0
  2  1  1  6
  2  5  1  0
  3  4  1  0
  3  2  1  0
  5  7  1  0
  5  6  2  0
  7  8  1  0
  8  9  1  1
  8 19  1  0
  9 10  1  0
 10 11  2  0
 10 18  1  0
 11 12  1  0
 12 13  1  0
 13 14  2  0
 14 15  1  0
 16 15  2  0
 17 18  2  0
 17 16  1  0
 18 13  1  0
 19 20  2  0
 21 22  1  0
 21 19  1  0
 23 24  1  0
 22 23  1  6
 24 25  1  0
 25 26  2  0
 25 29  1  0
 27 22  1  0
 27 30  1  0
 28 27  2  0
M  END
$$$$
