CWE.pdb
     RDKit          3D

 30 31  0  0  1  0  0  0  0  0999 V2000
   10.1077  -15.9597   17.9186 N   0  0  0  0  0  0  0  0  0  0  0  0
    9.2916  -16.6701   18.8542 C   0  0  1  0  0  0  0  0  0  0  0  0
    9.5654  -18.1528   18.8404 C   0  0  0  0  0  0  0  0  0  0  0  0
    9.0945  -18.8060   17.2051 S   0  0  0  0  0  0  0  0  0  0  0  0
    9.4620  -16.1576   20.2662 C   0  0  0  0  0  0  0  0  0  0  0  0
   10.5773  -15.6818   20.5932 O   0  0  0  0  0  0  0  0  0  0  0  0
    8.3655  -16.2386   21.1430 N   0  0  0  0  0  0  0  0  0  0  0  0
    8.3389  -15.7784   22.4909 C   0  0  1  0  0  0  0  0  0  0  0  0
    6.9340  -15.4166   22.9253 C   0  0  0  0  0  0  0  0  0  0  0  0
    6.9637  -15.0822   24.3726 C   0  0  0  0  0  0  0  0  0  0  0  0
    6.8300  -15.8749   25.4892 C   0  0  0  0  0  0  0  0  0  0  0  0
    6.9328  -15.1372   26.6263 N   0  0  0  0  0  0  0  0  0  0  0  0
    7.1351  -13.8538   26.2843 C   0  0  0  0  0  0  0  0  0  0  0  0
    7.3042  -12.7245   27.0551 C   0  0  0  0  0  0  0  0  0  0  0  0
    7.5042  -11.4865   26.4647 C   0  0  0  0  0  0  0  0  0  0  0  0
    7.5292  -11.4169   25.0896 C   0  0  0  0  0  0  0  0  0  0  0  0
    7.3544  -12.5811   24.3339 C   0  0  0  0  0  0  0  0  0  0  0  0
    7.1578  -13.7964   24.9131 C   0  0  0  0  0  0  0  0  0  0  0  0
    9.0286  -16.7063   23.4063 C   0  0  0  0  0  0  0  0  0  0  0  0
    8.7723  -17.9322   23.3714 O   0  0  0  0  0  0  0  0  0  0  0  0
    9.9913  -16.2474   24.3433 N   0  0  0  0  0  0  0  0  0  0  0  0
   10.8920  -17.0768   25.1062 C   0  0  1  0  0  0  0  0  0  0  0  0
   12.2921  -16.6257   25.0069 C   0  0  0  0  0  0  0  0  0  0  0  0
   13.0432  -17.0538   23.7994 C   0  0  0  0  0  0  0  0  0  0  0  0
   14.4352  -16.5939   23.7379 C   0  0  0  0  0  0  0  0  0  0  0  0
   14.8406  -15.4264   23.6914 O   0  0  0  0  0  0  0  0  0  0  0  0
   10.4130  -17.4005   26.4727 C   0  0  0  0  0  0  0  0  0  0  0  0
   11.0399  -18.1117   27.2762 O   0  0  0  0  0  0  0  0  0  0  0  0
   15.4246  -17.5955   23.7308 O   0  0  0  0  0  0  0  0  0  0  0  0
    9.2009  -16.8892   26.8816 O   0  0  0  0  0  0  0  0  0  0  0  0
  2  1  1  6
  2  5  1  0
  3  4  1  0
  3  2  1  0
  5  7  1  0
  5  6  2  0
  7  8  1  0
  8  9  1  1
  8 19  1  0
  9 10  1  0
 10 11  2  0
 10 18  1  0
 11 12  1  0
 12 13  1  0
 13 14  2  0
 14 15  1  0
 16 15  2  0
 17 18  2  0
 17 16  1  0
 18 13  1  0
 19 20  2  0
 21 22  1  0
 21 19  1  0
 23 24  1  0
 22 23  1  1
 24 25  1  0
 25 26  2  0
 25 29  1  0
 27 22  1  0
 27 30  1  0
 28 27  2  0
M  END
$$$$
