CWE.pdb
     RDKit          3D

 30 31  0  0  1  0  0  0  0  0999 V2000
    9.3526  -18.1743   18.3149 N   0  0  0  0  0  0  0  0  0  0  0  0
    8.4182  -17.9250   19.3688 C   0  0  1  0  0  0  0  0  0  0  0  0
    7.8704  -19.1995   19.9598 C   0  0  0  0  0  0  0  0  0  0  0  0
    9.2643  -20.1638   20.6306 S   0  0  0  0  0  0  0  0  0  0  0  0
    9.0175  -17.0927   20.4795 C   0  0  0  0  0  0  0  0  0  0  0  0
   10.2690  -17.0290   20.5628 O   0  0  0  0  0  0  0  0  0  0  0  0
    8.1461  -16.4318   21.3636 N   0  0  0  0  0  0  0  0  0  0  0  0
    8.5347  -15.5859   22.4418 C   0  0  1  0  0  0  0  0  0  0  0  0
    7.3856  -14.7150   22.9049 C   0  0  0  0  0  0  0  0  0  0  0  0
    7.9218  -13.6904   23.8376 C   0  0  0  0  0  0  0  0  0  0  0  0
    9.0535  -12.9104   23.7742 C   0  0  0  0  0  0  0  0  0  0  0  0
    9.1450  -12.0947   24.8578 N   0  0  0  0  0  0  0  0  0  0  0  0
    8.0836  -12.3190   25.6504 C   0  0  0  0  0  0  0  0  0  0  0  0
    7.7123  -11.7560   26.8516 C   0  0  0  0  0  0  0  0  0  0  0  0
    6.5500  -12.1552   27.4927 C   0  0  0  0  0  0  0  0  0  0  0  0
    5.7785  -13.1280   26.8967 C   0  0  0  0  0  0  0  0  0  0  0  0
    6.1819  -13.6809   25.6766 C   0  0  0  0  0  0  0  0  0  0  0  0
    7.3229  -13.2894   25.0473 C   0  0  0  0  0  0  0  0  0  0  0  0
    9.1909  -16.3384   23.5270 C   0  0  0  0  0  0  0  0  0  0  0  0
    8.6614  -17.3789   23.9816 O   0  0  0  0  0  0  0  0  0  0  0  0
   10.4261  -15.9145   24.0839 N   0  0  0  0  0  0  0  0  0  0  0  0
   11.1945  -16.6245   25.0772 C   0  0  1  0  0  0  0  0  0  0  0  0
   12.5800  -16.1300   25.1754 C   0  0  0  0  0  0  0  0  0  0  0  0
   13.6362  -17.1527   25.3852 C   0  0  0  0  0  0  0  0  0  0  0  0
   14.9428  -16.8250   24.8035 C   0  0  0  0  0  0  0  0  0  0  0  0
   15.2511  -15.8080   24.1707 O   0  0  0  0  0  0  0  0  0  0  0  0
   10.4876  -16.8254   26.3662 C   0  0  0  0  0  0  0  0  0  0  0  0
    9.6438  -16.0361   26.8239 O   0  0  0  0  0  0  0  0  0  0  0  0
   15.9644  -17.7765   24.9855 O   0  0  0  0  0  0  0  0  0  0  0  0
   10.7806  -17.9491   27.1073 O   0  0  0  0  0  0  0  0  0  0  0  0
  2  1  1  6
  2  5  1  0
  3  4  1  0
  3  2  1  0
  5  7  1  0
  5  6  2  0
  7  8  1  0
  8  9  1  1
  8 19  1  0
  9 10  1  0
 10 11  2  0
 10 18  1  0
 11 12  1  0
 12 13  1  0
 13 14  2  0
 14 15  1  0
 16 15  2  0
 17 18  2  0
 17 16  1  0
 18 13  1  0
 19 20  2  0
 21 22  1  0
 21 19  1  0
 23 24  1  0
 22 23  1  1
 24 25  1  0
 25 26  2  0
 25 29  1  0
 27 22  1  0
 27 30  1  0
 28 27  2  0
M  END
$$$$
