CWE.pdb
     RDKit          3D

 30 31  0  0  1  0  0  0  0  0999 V2000
    7.2048  -14.6922   20.1499 N   0  0  0  0  0  0  0  0  0  0  0  0
    7.3469  -15.8348   20.9985 C   0  0  1  0  0  0  0  0  0  0  0  0
    7.7308  -17.0735   20.2291 C   0  0  0  0  0  0  0  0  0  0  0  0
    6.2618  -17.6632   19.3252 S   0  0  0  0  0  0  0  0  0  0  0  0
    8.3628  -15.6098   22.0953 C   0  0  0  0  0  0  0  0  0  0  0  0
    9.3688  -14.9045   21.8353 O   0  0  0  0  0  0  0  0  0  0  0  0
    8.1322  -16.2003   23.3506 N   0  0  0  0  0  0  0  0  0  0  0  0
    9.0243  -16.1758   24.4610 C   0  0  1  0  0  0  0  0  0  0  0  0
    8.2775  -16.2796   25.7743 C   0  0  0  0  0  0  0  0  0  0  0  0
    7.2801  -15.1800   25.8331 C   0  0  0  0  0  0  0  0  0  0  0  0
    5.9132  -15.1866   25.6758 C   0  0  0  0  0  0  0  0  0  0  0  0
    5.3994  -13.9366   25.8221 N   0  0  0  0  0  0  0  0  0  0  0  0
    6.4096  -13.0882   26.0770 C   0  0  0  0  0  0  0  0  0  0  0  0
    6.4189  -11.7293   26.3031 C   0  0  0  0  0  0  0  0  0  0  0  0
    7.6070  -11.0599   26.5513 C   0  0  0  0  0  0  0  0  0  0  0  0
    8.7750  -11.7893   26.5657 C   0  0  0  0  0  0  0  0  0  0  0  0
    8.7334  -13.1681   26.3325 C   0  0  0  0  0  0  0  0  0  0  0  0
    7.5674  -13.8254   26.0886 C   0  0  0  0  0  0  0  0  0  0  0  0
   10.1174  -17.1548   24.3145 C   0  0  0  0  0  0  0  0  0  0  0  0
    9.8610  -18.3463   24.0240 O   0  0  0  0  0  0  0  0  0  0  0  0
   11.4759  -16.7845   24.4953 N   0  0  0  0  0  0  0  0  0  0  0  0
   12.6167  -17.6559   24.3521 C   0  0  1  0  0  0  0  0  0  0  0  0
   13.6300  -17.1089   23.4314 C   0  0  0  0  0  0  0  0  0  0  0  0
   14.6267  -16.1777   24.0189 C   0  0  0  0  0  0  0  0  0  0  0  0
   15.5553  -15.5736   23.0568 C   0  0  0  0  0  0  0  0  0  0  0  0
   15.6035  -15.7645   21.8358 O   0  0  0  0  0  0  0  0  0  0  0  0
   13.1336  -18.1990   25.6325 C   0  0  0  0  0  0  0  0  0  0  0  0
   12.7816  -17.7888   26.7516 O   0  0  0  0  0  0  0  0  0  0  0  0
   16.5010  -14.6726   23.5822 O   0  0  0  0  0  0  0  0  0  0  0  0
   14.0615  -19.2163   25.5870 O   0  0  0  0  0  0  0  0  0  0  0  0
  2  1  1  6
  2  5  1  0
  3  4  1  0
  3  2  1  0
  5  7  1  0
  5  6  2  0
  7  8  1  0
  8  9  1  1
  8 19  1  0
  9 10  1  0
 10 11  2  0
 10 18  1  0
 11 12  1  0
 12 13  1  0
 13 14  2  0
 14 15  1  0
 16 15  2  0
 17 18  2  0
 17 16  1  0
 18 13  1  0
 19 20  2  0
 21 22  1  0
 21 19  1  0
 23 24  1  0
 22 23  1  1
 24 25  1  0
 25 26  2  0
 25 29  1  0
 27 22  1  0
 27 30  1  0
 28 27  2  0
M  END
$$$$
