RYE.pdb
     RDKit          3D

 33 33  0  0  1  0  0  0  0  0999 V2000
   10.5197  -19.7670   17.9142 N   0  0  0  0  0  0  0  0  0  0  0  0
    9.3570  -19.0217   18.2234 C   0  0  0  0  0  0  0  0  0  0  0  0
    8.7959  -18.3346   17.2912 N   0  0  0  0  0  0  0  0  0  0  0  0
    8.7903  -19.0048   19.5209 N   0  0  0  0  0  0  0  0  0  0  0  0
    7.5723  -18.2529   19.8262 C   0  0  0  0  0  0  0  0  0  0  0  0
    8.0013  -16.8463   20.1467 C   0  0  0  0  0  0  0  0  0  0  0  0
    6.8446  -15.9316   20.4475 C   0  0  0  0  0  0  0  0  0  0  0  0
    7.3625  -14.5934   20.9139 C   0  0  2  0  0  0  0  0  0  0  0  0
    8.0673  -13.9954   19.8153 N   0  0  0  0  0  0  0  0  0  0  0  0
    8.2601  -14.7538   22.0925 C   0  0  0  0  0  0  0  0  0  0  0  0
    9.4752  -15.0145   21.9186 O   0  0  0  0  0  0  0  0  0  0  0  0
    9.2042  -18.3107   16.3440 O   0  0  0  0  0  0  0  0  0  0  0  0
   11.0122  -14.8569   30.5538 C   0  0  0  0  0  0  0  0  0  0  0  0
   10.2520  -14.6982   29.3780 C   0  0  0  0  0  0  0  0  0  0  0  0
    9.5084  -15.7302   28.8725 C   0  0  0  0  0  0  0  0  0  0  0  0
    8.7783  -15.5420   27.7234 C   0  0  0  0  0  0  0  0  0  0  0  0
    8.7497  -14.3555   27.0377 C   0  0  0  0  0  0  0  0  0  0  0  0
    7.9586  -14.2096   25.8252 C   0  0  1  0  0  0  0  0  0  0  0  0
    8.6417  -14.7262   24.5825 N   0  0  0  0  0  0  0  0  0  0  0  0
    7.7778  -14.6194   23.4241 C   0  0  0  0  0  0  0  0  0  0  0  0
    9.1103  -16.1045   24.7023 O   0  0  0  0  0  0  0  0  0  0  0  0
    8.3631  -17.1180   24.6471 C   0  0  0  0  0  0  0  0  0  0  0  0
    9.4964  -13.3184   27.5451 C   0  0  0  0  0  0  0  0  0  0  0  0
   10.2488  -13.4893   28.7168 N   0  0  0  0  0  0  0  0  0  0  0  0
   10.4879  -16.3681   24.8939 C   0  0  2  0  0  0  0  0  0  0  0  0
   10.9763  -17.7483   25.0735 C   0  0  0  0  0  0  0  0  0  0  0  0
   12.1032  -18.0217   24.1438 C   0  0  0  0  0  0  0  0  0  0  0  0
   13.1762  -16.9845   24.2595 C   0  0  0  0  0  0  0  0  0  0  0  0
   14.0415  -16.9440   23.0504 O   0  0  0  0  0  0  0  0  0  0  0  0
   15.1032  -17.5908   23.0392 C   0  0  0  0  0  0  0  0  0  0  0  0
   11.4406  -17.8384   26.4768 O   0  0  0  0  0  0  0  0  0  0  0  0
   11.9285  -18.9677   27.1000 O   0  0  0  0  0  0  0  0  0  0  0  0
   13.6647  -16.1969   21.9597 O   0  0  0  0  0  0  0  0  0  0  0  0
  2  1  1  0
  3  2  2  0
  4  2  1  0
  5  4  1  0
  6  5  1  0
  7  6  1  0
  8 10  1  0
  8  7  1  0
  8  9  1  6
 10 19  1  0
 10 11  2  0
 12 13  1  0
 13 23  2  0
 13 14  1  0
 14 15  2  0
 15 16  1  0
 16 17  1  0
 18 17  1  6
 19 18  1  0
 20 24  1  0
 20 18  1  0
 21 20  2  0
 22 16  2  0
 23 22  1  0
 25 26  1  6
 25 30  1  0
 25 24  1  0
 27 28  1  0
 27 26  1  0
 28 32  1  0
 29 28  2  0
 30 31  1  0
 33 30  2  0
M  END
$$$$
