RYE.pdb
     RDKit          3D

 33 33  0  0  1  0  0  0  0  0999 V2000
   12.8952  -20.0582   15.1009 N   0  0  0  0  0  0  0  0  0  0  0  0
   13.7774  -18.9892   14.8147 C   0  0  0  0  0  0  0  0  0  0  0  0
   14.0531  -18.7260   13.5855 N   0  0  0  0  0  0  0  0  0  0  0  0
   14.3672  -18.2003   15.8318 N   0  0  0  0  0  0  0  0  0  0  0  0
   14.0914  -18.4303   17.2506 C   0  0  0  0  0  0  0  0  0  0  0  0
   12.7208  -17.8702   17.5211 C   0  0  0  0  0  0  0  0  0  0  0  0
   12.3116  -17.9859   18.9648 C   0  0  0  0  0  0  0  0  0  0  0  0
   10.9097  -17.4562   19.1399 C   0  0  2  0  0  0  0  0  0  0  0  0
   10.4579  -16.9954   17.8574 N   0  0  0  0  0  0  0  0  0  0  0  0
   10.8816  -16.3503   20.1382 C   0  0  0  0  0  0  0  0  0  0  0  0
   11.6050  -15.3392   19.9675 O   0  0  0  0  0  0  0  0  0  0  0  0
   14.7146  -17.9698   13.3505 O   0  0  0  0  0  0  0  0  0  0  0  0
    6.8293  -12.7432   17.3650 C   0  0  0  0  0  0  0  0  0  0  0  0
    7.2895  -13.2254   18.6064 C   0  0  0  0  0  0  0  0  0  0  0  0
    8.1562  -12.4928   19.3718 C   0  0  0  0  0  0  0  0  0  0  0  0
    8.5859  -12.9925   20.5779 C   0  0  0  0  0  0  0  0  0  0  0  0
    8.1895  -14.2083   21.0713 C   0  0  0  0  0  0  0  0  0  0  0  0
    8.6748  -14.6901   22.3556 C   0  0  2  0  0  0  0  0  0  0  0  0
   10.0290  -15.3533   22.2889 N   0  0  0  0  0  0  0  0  0  0  0  0
   10.0514  -16.4048   21.2922 C   0  0  0  0  0  0  0  0  0  0  0  0
   10.4770  -15.8988   23.5676 O   0  0  0  0  0  0  0  0  0  0  0  0
   10.5012  -15.2513   24.6488 C   0  0  0  0  0  0  0  0  0  0  0  0
    7.3189  -14.9446   20.3028 C   0  0  0  0  0  0  0  0  0  0  0  0
    6.8678  -14.4530   19.0687 N   0  0  0  0  0  0  0  0  0  0  0  0
   10.9226  -17.2401   23.6462 C   0  0  1  0  0  0  0  0  0  0  0  0
   11.3334  -17.8266   24.9358 C   0  0  0  0  0  0  0  0  0  0  0  0
   11.0478  -19.2851   24.9534 C   0  0  0  0  0  0  0  0  0  0  0  0
   11.5263  -19.9243   26.2195 C   0  0  0  0  0  0  0  0  0  0  0  0
   11.2786  -21.3908   26.2288 O   0  0  0  0  0  0  0  0  0  0  0  0
   10.2231  -21.8333   25.7431 C   0  0  0  0  0  0  0  0  0  0  0  0
   12.7913  -17.5919   25.0459 O   0  0  0  0  0  0  0  0  0  0  0  0
   13.6590  -17.3655   23.9982 O   0  0  0  0  0  0  0  0  0  0  0  0
   12.2117  -22.2427   26.7703 O   0  0  0  0  0  0  0  0  0  0  0  0
  2  1  1  0
  3  2  2  0
  4  2  1  0
  5  4  1  0
  6  5  1  0
  7  6  1  0
  8 10  1  0
  8  7  1  0
  8  9  1  6
 10 19  1  0
 10 11  2  0
 12 13  1  0
 13 23  2  0
 13 14  1  0
 14 15  2  0
 15 16  1  0
 16 17  1  0
 18 17  1  6
 19 18  1  0
 20 24  1  0
 20 18  1  0
 21 20  2  0
 22 16  2  0
 23 22  1  0
 25 26  1  1
 25 30  1  0
 25 24  1  0
 27 28  1  0
 27 26  1  0
 28 32  1  0
 29 28  2  0
 30 31  1  0
 33 30  2  0
M  END
$$$$
