RYE.pdb
     RDKit          3D

 33 33  0  0  1  0  0  0  0  0999 V2000
    8.0628  -13.3129   16.1411 N   0  0  0  0  0  0  0  0  0  0  0  0
    8.0061  -14.3549   15.1850 C   0  0  0  0  0  0  0  0  0  0  0  0
    7.2083  -14.2328   14.1827 N   0  0  0  0  0  0  0  0  0  0  0  0
    8.7948  -15.5258   15.2925 N   0  0  0  0  0  0  0  0  0  0  0  0
    9.6974  -15.7527   16.4220 C   0  0  0  0  0  0  0  0  0  0  0  0
    9.1688  -14.9344   17.5693 C   0  0  0  0  0  0  0  0  0  0  0  0
   10.0760  -14.9483   18.7700 C   0  0  0  0  0  0  0  0  0  0  0  0
    9.6314  -16.0235   19.7307 C   0  0  2  0  0  0  0  0  0  0  0  0
    8.2895  -16.3918   19.3771 N   0  0  0  0  0  0  0  0  0  0  0  0
    9.6917  -15.5357   21.1374 C   0  0  0  0  0  0  0  0  0  0  0  0
   10.7981  -15.2256   21.6417 O   0  0  0  0  0  0  0  0  0  0  0  0
    7.1557  -14.9729   13.4657 O   0  0  0  0  0  0  0  0  0  0  0  0
    7.1279  -12.1559   28.9290 C   0  0  0  0  0  0  0  0  0  0  0  0
    7.1767  -12.6363   27.6053 C   0  0  0  0  0  0  0  0  0  0  0  0
    6.5522  -13.8022   27.2530 C   0  0  0  0  0  0  0  0  0  0  0  0
    6.6196  -14.2429   25.9530 C   0  0  0  0  0  0  0  0  0  0  0  0
    7.2902  -13.5692   24.9655 C   0  0  0  0  0  0  0  0  0  0  0  0
    7.3298  -14.0801   23.6037 C   0  0  1  0  0  0  0  0  0  0  0  0
    8.5537  -14.9077   23.2954 N   0  0  0  0  0  0  0  0  0  0  0  0
    8.5214  -15.4089   21.9363 C   0  0  0  0  0  0  0  0  0  0  0  0
    8.7488  -16.0279   24.2123 O   0  0  0  0  0  0  0  0  0  0  0  0
    7.9599  -17.0050   24.3207 C   0  0  0  0  0  0  0  0  0  0  0  0
    7.9178  -12.3978   25.3187 C   0  0  0  0  0  0  0  0  0  0  0  0
    7.8613  -11.9302   26.6401 N   0  0  0  0  0  0  0  0  0  0  0  0
    9.8859  -16.0615   25.0547 C   0  0  2  0  0  0  0  0  0  0  0  0
   10.1292  -17.2067   25.9520 C   0  0  0  0  0  0  0  0  0  0  0  0
   11.5261  -17.6918   25.8019 C   0  0  0  0  0  0  0  0  0  0  0  0
   11.7574  -18.2938   24.4512 C   0  0  0  0  0  0  0  0  0  0  0  0
   13.1613  -18.7554   24.2824 O   0  0  0  0  0  0  0  0  0  0  0  0
   13.9600  -18.6341   25.2274 C   0  0  0  0  0  0  0  0  0  0  0  0
    9.9103  -16.7026   27.3270 O   0  0  0  0  0  0  0  0  0  0  0  0
    9.7119  -17.4737   28.4529 O   0  0  0  0  0  0  0  0  0  0  0  0
   13.5646  -19.3097   23.0909 O   0  0  0  0  0  0  0  0  0  0  0  0
  2  1  1  0
  3  2  2  0
  4  2  1  0
  5  4  1  0
  6  5  1  0
  7  6  1  0
  8 10  1  0
  8  7  1  0
  8  9  1  6
 10 19  1  0
 10 11  2  0
 12 13  1  0
 13 23  2  0
 13 14  1  0
 14 15  2  0
 15 16  1  0
 16 17  1  0
 18 17  1  6
 19 18  1  0
 20 24  1  0
 20 18  1  0
 21 20  2  0
 22 16  2  0
 23 22  1  0
 25 26  1  6
 25 30  1  0
 25 24  1  0
 27 28  1  0
 27 26  1  0
 28 32  1  0
 29 28  2  0
 30 31  1  0
 33 30  2  0
M  END
$$$$
