RYE.pdb
     RDKit          3D

 33 33  0  0  1  0  0  0  0  0999 V2000
    8.2448  -12.5860   16.0790 N   0  0  0  0  0  0  0  0  0  0  0  0
    8.4570  -13.5423   15.0576 C   0  0  0  0  0  0  0  0  0  0  0  0
    8.9692  -13.1542   13.9427 N   0  0  0  0  0  0  0  0  0  0  0  0
    8.1254  -14.9094   15.2185 N   0  0  0  0  0  0  0  0  0  0  0  0
    7.4978  -15.4174   16.4393 C   0  0  0  0  0  0  0  0  0  0  0  0
    8.3750  -16.5308   16.9455 C   0  0  0  0  0  0  0  0  0  0  0  0
    9.2753  -16.1050   18.0737 C   0  0  0  0  0  0  0  0  0  0  0  0
    9.0397  -16.9889   19.2736 C   0  0  2  0  0  0  0  0  0  0  0  0
    7.7019  -17.5010   19.1778 N   0  0  0  0  0  0  0  0  0  0  0  0
    9.2230  -16.2245   20.5395 C   0  0  0  0  0  0  0  0  0  0  0  0
   10.3551  -15.7702   20.8339 O   0  0  0  0  0  0  0  0  0  0  0  0
    9.1453  -13.8332   13.1860 O   0  0  0  0  0  0  0  0  0  0  0  0
    7.2822  -12.2095   28.2414 C   0  0  0  0  0  0  0  0  0  0  0  0
    7.2162  -12.8127   26.9696 C   0  0  0  0  0  0  0  0  0  0  0  0
    7.4725  -12.0947   25.8327 C   0  0  0  0  0  0  0  0  0  0  0  0
    7.3993  -12.7136   24.6077 C   0  0  0  0  0  0  0  0  0  0  0  0
    7.0775  -14.0369   24.4529 C   0  0  0  0  0  0  0  0  0  0  0  0
    7.0146  -14.6432   23.1317 C   0  0  1  0  0  0  0  0  0  0  0  0
    8.3076  -15.2844   22.6900 N   0  0  0  0  0  0  0  0  0  0  0  0
    8.1430  -15.9906   21.4355 C   0  0  0  0  0  0  0  0  0  0  0  0
    8.8764  -16.1961   23.6793 O   0  0  0  0  0  0  0  0  0  0  0  0
    8.4798  -17.3772   23.8704 C   0  0  0  0  0  0  0  0  0  0  0  0
    6.8201  -14.7587   25.5946 C   0  0  0  0  0  0  0  0  0  0  0  0
    6.8894  -14.1464   26.8549 N   0  0  0  0  0  0  0  0  0  0  0  0
    9.9468  -15.7683   24.5010 C   0  0  2  0  0  0  0  0  0  0  0  0
   10.8667  -16.7446   25.1145 C   0  0  0  0  0  0  0  0  0  0  0  0
   12.2557  -16.5144   24.6382 C   0  0  0  0  0  0  0  0  0  0  0  0
   13.2292  -17.4242   25.3203 C   0  0  0  0  0  0  0  0  0  0  0  0
   14.6166  -17.2261   24.8221 O   0  0  0  0  0  0  0  0  0  0  0  0
   14.9545  -17.7387   23.7410 C   0  0  0  0  0  0  0  0  0  0  0  0
   10.7859  -16.5202   26.5760 O   0  0  0  0  0  0  0  0  0  0  0  0
   11.1782  -17.4066   27.5568 O   0  0  0  0  0  0  0  0  0  0  0  0
   15.5109  -16.4823   25.5546 O   0  0  0  0  0  0  0  0  0  0  0  0
  2  1  1  0
  3  2  2  0
  4  2  1  0
  5  4  1  0
  6  5  1  0
  7  6  1  0
  8 10  1  0
  8  7  1  0
  8  9  1  6
 10 19  1  0
 10 11  2  0
 12 13  1  0
 13 23  2  0
 13 14  1  0
 14 15  2  0
 15 16  1  0
 16 17  1  0
 18 17  1  6
 19 18  1  0
 20 24  1  0
 20 18  1  0
 21 20  2  0
 22 16  2  0
 23 22  1  0
 25 26  1  6
 25 30  1  0
 25 24  1  0
 27 28  1  0
 27 26  1  0
 28 32  1  0
 29 28  2  0
 30 31  1  0
 33 30  2  0
M  END
$$$$
