RYE.pdb
     RDKit          3D

 33 33  0  0  1  0  0  0  0  0999 V2000
    7.3035  -14.0141   15.7760 N   0  0  0  0  0  0  0  0  0  0  0  0
    8.6966  -14.0651   16.0207 C   0  0  0  0  0  0  0  0  0  0  0  0
    9.5000  -14.1204   15.0169 N   0  0  0  0  0  0  0  0  0  0  0  0
    9.2369  -14.0580   17.3294 N   0  0  0  0  0  0  0  0  0  0  0  0
    8.8062  -13.0926   18.3417 C   0  0  0  0  0  0  0  0  0  0  0  0
    7.7119  -13.7559   19.1340 C   0  0  0  0  0  0  0  0  0  0  0  0
    7.9469  -13.7057   20.6197 C   0  0  0  0  0  0  0  0  0  0  0  0
    8.4247  -15.0522   21.1048 C   0  0  2  0  0  0  0  0  0  0  0  0
    7.3764  -16.0001   20.8520 N   0  0  0  0  0  0  0  0  0  0  0  0
    8.7558  -15.0058   22.5569 C   0  0  0  0  0  0  0  0  0  0  0  0
    9.7077  -14.2921   22.9557 O   0  0  0  0  0  0  0  0  0  0  0  0
   10.5207  -14.1327   15.1669 O   0  0  0  0  0  0  0  0  0  0  0  0
    6.2749   -9.9395   26.3761 C   0  0  0  0  0  0  0  0  0  0  0  0
    6.5149  -11.3211   26.2377 C   0  0  0  0  0  0  0  0  0  0  0  0
    7.6381  -11.8996   26.7644 C   0  0  0  0  0  0  0  0  0  0  0  0
    7.8419  -13.2502   26.6113 C   0  0  0  0  0  0  0  0  0  0  0  0
    6.9678  -14.0711   25.9474 C   0  0  0  0  0  0  0  0  0  0  0  0
    7.2317  -15.4958   25.8146 C   0  0  2  0  0  0  0  0  0  0  0  0
    8.3980  -15.8211   24.9135 N   0  0  0  0  0  0  0  0  0  0  0  0
    8.0186  -15.7536   23.5167 C   0  0  0  0  0  0  0  0  0  0  0  0
    8.9989  -17.1251   25.1820 O   0  0  0  0  0  0  0  0  0  0  0  0
    8.4517  -18.2294   24.9177 C   0  0  0  0  0  0  0  0  0  0  0  0
    5.8393  -13.4906   25.4182 C   0  0  0  0  0  0  0  0  0  0  0  0
    5.6119  -12.1138   25.5632 N   0  0  0  0  0  0  0  0  0  0  0  0
   10.2808  -17.2031   25.7775 C   0  0  1  0  0  0  0  0  0  0  0  0
   10.9082  -18.5089   26.0545 C   0  0  0  0  0  0  0  0  0  0  0  0
   12.0855  -18.7135   25.1706 C   0  0  0  0  0  0  0  0  0  0  0  0
   12.9418  -17.4877   25.1020 C   0  0  0  0  0  0  0  0  0  0  0  0
   14.1130  -17.6785   24.2053 O   0  0  0  0  0  0  0  0  0  0  0  0
   14.3787  -16.8092   23.3570 C   0  0  0  0  0  0  0  0  0  0  0  0
   11.3370  -18.4642   27.4712 O   0  0  0  0  0  0  0  0  0  0  0  0
   11.2128  -17.3876   28.3239 O   0  0  0  0  0  0  0  0  0  0  0  0
   14.8898  -18.8070   24.3190 O   0  0  0  0  0  0  0  0  0  0  0  0
  2  1  1  0
  3  2  2  0
  4  2  1  0
  5  4  1  0
  6  5  1  0
  7  6  1  0
  8 10  1  0
  8  7  1  0
  8  9  1  1
 10 19  1  0
 10 11  2  0
 12 13  1  0
 13 23  2  0
 13 14  1  0
 14 15  2  0
 15 16  1  0
 16 17  1  0
 18 17  1  6
 19 18  1  0
 20 24  1  0
 20 18  1  0
 21 20  2  0
 22 16  2  0
 23 22  1  0
 25 26  1  6
 25 30  1  0
 25 24  1  0
 27 28  1  0
 27 26  1  0
 28 32  1  0
 29 28  2  0
 30 31  1  0
 33 30  2  0
M  END
$$$$
