RYE.pdb
     RDKit          3D

 33 33  0  0  1  0  0  0  0  0999 V2000
    9.5592  -13.9177   13.5641 N   0  0  0  0  0  0  0  0  0  0  0  0
    8.1679  -14.0354   13.7957 C   0  0  0  0  0  0  0  0  0  0  0  0
    7.4031  -14.3692   12.8161 N   0  0  0  0  0  0  0  0  0  0  0  0
    7.5884  -13.7985   15.0657 N   0  0  0  0  0  0  0  0  0  0  0  0
    8.3966  -13.4486   16.2346 C   0  0  0  0  0  0  0  0  0  0  0  0
    8.4202  -14.6630   17.1234 C   0  0  0  0  0  0  0  0  0  0  0  0
    9.2753  -14.4801   18.3483 C   0  0  0  0  0  0  0  0  0  0  0  0
    9.1813  -15.7069   19.2217 C   0  0  2  0  0  0  0  0  0  0  0  0
    7.9107  -16.3242   18.9656 N   0  0  0  0  0  0  0  0  0  0  0  0
    9.3115  -15.3441   20.6611 C   0  0  0  0  0  0  0  0  0  0  0  0
   10.4511  -15.1949   21.1648 O   0  0  0  0  0  0  0  0  0  0  0  0
    6.3932  -14.5141   12.9697 O   0  0  0  0  0  0  0  0  0  0  0  0
    7.0366  -12.4246   28.7496 C   0  0  0  0  0  0  0  0  0  0  0  0
    7.0221  -12.8368   27.4022 C   0  0  0  0  0  0  0  0  0  0  0  0
    6.4455  -14.0216   27.0318 C   0  0  0  0  0  0  0  0  0  0  0  0
    6.4487  -14.3941   25.7088 C   0  0  0  0  0  0  0  0  0  0  0  0
    7.0076  -13.6327   24.7156 C   0  0  0  0  0  0  0  0  0  0  0  0
    6.9830  -14.0740   23.3293 C   0  0  1  0  0  0  0  0  0  0  0  0
    8.2713  -14.7094   22.8660 N   0  0  0  0  0  0  0  0  0  0  0  0
    8.1718  -15.1594   21.4923 C   0  0  0  0  0  0  0  0  0  0  0  0
    8.7077  -15.8244   23.7026 O   0  0  0  0  0  0  0  0  0  0  0  0
    8.1872  -16.9722   23.6877 C   0  0  0  0  0  0  0  0  0  0  0  0
    7.5870  -12.4423   25.0871 C   0  0  0  0  0  0  0  0  0  0  0  0
    7.5945  -12.0432   26.4320 N   0  0  0  0  0  0  0  0  0  0  0  0
    9.7841  -15.6510   24.6056 C   0  0  2  0  0  0  0  0  0  0  0  0
   10.3828  -16.8064   25.2999 C   0  0  0  0  0  0  0  0  0  0  0  0
   11.8419  -16.8741   25.0249 C   0  0  0  0  0  0  0  0  0  0  0  0
   12.4997  -17.9658   25.8097 C   0  0  0  0  0  0  0  0  0  0  0  0
   13.6942  -18.5098   25.1100 O   0  0  0  0  0  0  0  0  0  0  0  0
   14.0410  -18.0157   24.0231 C   0  0  0  0  0  0  0  0  0  0  0  0
   10.1469  -16.5825   26.7446 O   0  0  0  0  0  0  0  0  0  0  0  0
    9.7967  -17.5439   27.6690 O   0  0  0  0  0  0  0  0  0  0  0  0
   14.4031  -19.5484   25.6654 O   0  0  0  0  0  0  0  0  0  0  0  0
  2  1  1  0
  3  2  2  0
  4  2  1  0
  5  4  1  0
  6  5  1  0
  7  6  1  0
  8 10  1  0
  8  7  1  0
  8  9  1  1
 10 19  1  0
 10 11  2  0
 12 13  1  0
 13 23  2  0
 13 14  1  0
 14 15  2  0
 15 16  1  0
 16 17  1  0
 18 17  1  6
 19 18  1  0
 20 24  1  0
 20 18  1  0
 21 20  2  0
 22 16  2  0
 23 22  1  0
 25 26  1  6
 25 30  1  0
 25 24  1  0
 27 28  1  0
 27 26  1  0
 28 32  1  0
 29 28  2  0
 30 31  1  0
 33 30  2  0
M  END
$$$$
