RYE.pdb
     RDKit          3D

 33 33  0  0  1  0  0  0  0  0999 V2000
    8.2959  -12.7386   15.0714 N   0  0  0  0  0  0  0  0  0  0  0  0
    7.8360  -14.0760   15.1243 C   0  0  0  0  0  0  0  0  0  0  0  0
    8.3046  -14.9259   14.2792 N   0  0  0  0  0  0  0  0  0  0  0  0
    6.8790  -14.5115   16.0726 N   0  0  0  0  0  0  0  0  0  0  0  0
    7.0926  -14.3671   17.5133 C   0  0  0  0  0  0  0  0  0  0  0  0
    8.5801  -14.4168   17.7371 C   0  0  0  0  0  0  0  0  0  0  0  0
    8.9770  -14.0514   19.1421 C   0  0  0  0  0  0  0  0  0  0  0  0
    8.7836  -15.2405   20.0506 C   0  0  2  0  0  0  0  0  0  0  0  0
    7.4283  -15.6879   19.8952 N   0  0  0  0  0  0  0  0  0  0  0  0
    9.0596  -14.8748   21.4686 C   0  0  0  0  0  0  0  0  0  0  0  0
   10.1921  -14.4403   21.7902 O   0  0  0  0  0  0  0  0  0  0  0  0
    7.9886  -15.9079   14.2983 O   0  0  0  0  0  0  0  0  0  0  0  0
    7.8156  -13.5683   30.1735 C   0  0  0  0  0  0  0  0  0  0  0  0
    7.6475  -13.7194   28.7827 C   0  0  0  0  0  0  0  0  0  0  0  0
    7.3855  -14.9446   28.2314 C   0  0  0  0  0  0  0  0  0  0  0  0
    7.2271  -15.0574   26.8708 C   0  0  0  0  0  0  0  0  0  0  0  0
    7.3180  -13.9919   26.0134 C   0  0  0  0  0  0  0  0  0  0  0  0
    7.1411  -14.1666   24.5797 C   0  0  1  0  0  0  0  0  0  0  0  0
    8.3445  -14.7510   23.8810 N   0  0  0  0  0  0  0  0  0  0  0  0
    8.0688  -15.0041   22.4811 C   0  0  0  0  0  0  0  0  0  0  0  0
    8.8411  -15.9780   24.4986 O   0  0  0  0  0  0  0  0  0  0  0  0
    8.1999  -17.0623   24.5442 C   0  0  0  0  0  0  0  0  0  0  0  0
    7.5811  -12.7608   26.5665 C   0  0  0  0  0  0  0  0  0  0  0  0
    7.7461  -12.6237   27.9529 N   0  0  0  0  0  0  0  0  0  0  0  0
   10.1233  -15.9982   25.0982 C   0  0  2  0  0  0  0  0  0  0  0  0
   10.7192  -17.2632   25.5675 C   0  0  0  0  0  0  0  0  0  0  0  0
   12.1153  -17.3903   25.0735 C   0  0  0  0  0  0  0  0  0  0  0  0
   12.2238  -18.4151   23.9879 C   0  0  0  0  0  0  0  0  0  0  0  0
   13.5646  -18.4019   23.3443 O   0  0  0  0  0  0  0  0  0  0  0  0
   13.8199  -19.2285   22.4514 C   0  0  0  0  0  0  0  0  0  0  0  0
   10.7066  -17.1972   27.0468 O   0  0  0  0  0  0  0  0  0  0  0  0
   11.0911  -18.2032   27.9081 O   0  0  0  0  0  0  0  0  0  0  0  0
   14.5073  -17.4818   23.7376 O   0  0  0  0  0  0  0  0  0  0  0  0
  2  1  1  0
  3  2  2  0
  4  2  1  0
  5  4  1  0
  6  5  1  0
  7  6  1  0
  8 10  1  0
  8  7  1  0
  8  9  1  1
 10 19  1  0
 10 11  2  0
 12 13  1  0
 13 23  2  0
 13 14  1  0
 14 15  2  0
 15 16  1  0
 16 17  1  0
 18 17  1  6
 19 18  1  0
 20 24  1  0
 20 18  1  0
 21 20  2  0
 22 16  2  0
 23 22  1  0
 25 26  1  6
 25 30  1  0
 25 24  1  0
 27 28  1  0
 27 26  1  0
 28 32  1  0
 29 28  2  0
 30 31  1  0
 33 30  2  0
M  END
$$$$
