RYE.pdb
     RDKit          3D

 33 33  0  0  1  0  0  0  0  0999 V2000
   10.5045  -20.7105   18.6454 N   0  0  0  0  0  0  0  0  0  0  0  0
    9.7695  -21.2891   17.5834 C   0  0  0  0  0  0  0  0  0  0  0  0
   10.4007  -21.9711   16.6930 N   0  0  0  0  0  0  0  0  0  0  0  0
    8.3660  -21.1439   17.4655 N   0  0  0  0  0  0  0  0  0  0  0  0
    7.5639  -20.4895   18.5000 C   0  0  0  0  0  0  0  0  0  0  0  0
    7.7568  -19.0072   18.3237 C   0  0  0  0  0  0  0  0  0  0  0  0
    8.3432  -18.3408   19.5391 C   0  0  0  0  0  0  0  0  0  0  0  0
    8.4904  -16.8606   19.2860 C   0  0  2  0  0  0  0  0  0  0  0  0
    9.5115  -16.6912   18.2911 N   0  0  0  0  0  0  0  0  0  0  0  0
    8.8510  -16.1416   20.5404 C   0  0  0  0  0  0  0  0  0  0  0  0
   10.0356  -16.1662   20.9534 O   0  0  0  0  0  0  0  0  0  0  0  0
    9.8862  -22.4209   15.9200 O   0  0  0  0  0  0  0  0  0  0  0  0
    7.8602  -11.6528   28.1618 C   0  0  0  0  0  0  0  0  0  0  0  0
    7.6779  -12.1921   26.8728 C   0  0  0  0  0  0  0  0  0  0  0  0
    8.2465  -11.6057   25.7744 C   0  0  0  0  0  0  0  0  0  0  0  0
    8.0487  -12.1573   24.5312 C   0  0  0  0  0  0  0  0  0  0  0  0
    7.2989  -13.2852   24.3207 C   0  0  0  0  0  0  0  0  0  0  0  0
    7.1218  -13.8283   22.9826 C   0  0  1  0  0  0  0  0  0  0  0  0
    8.1801  -14.8271   22.5821 N   0  0  0  0  0  0  0  0  0  0  0  0
    7.8837  -15.4198   21.2935 C   0  0  0  0  0  0  0  0  0  0  0  0
    8.3806  -15.8918   23.5618 O   0  0  0  0  0  0  0  0  0  0  0  0
    7.6072  -16.8755   23.7128 C   0  0  0  0  0  0  0  0  0  0  0  0
    6.7275  -13.8748   25.4237 C   0  0  0  0  0  0  0  0  0  0  0  0
    6.9169  -13.3280   26.7018 N   0  0  0  0  0  0  0  0  0  0  0  0
    9.5054  -15.8587   24.4207 C   0  0  2  0  0  0  0  0  0  0  0  0
    9.7677  -16.9597   25.3666 C   0  0  0  0  0  0  0  0  0  0  0  0
   10.8711  -17.8195   24.8642 C   0  0  0  0  0  0  0  0  0  0  0  0
   12.0570  -17.0061   24.4488 C   0  0  0  0  0  0  0  0  0  0  0  0
   13.1379  -17.8529   23.8769 O   0  0  0  0  0  0  0  0  0  0  0  0
   13.9044  -17.3695   23.0257 C   0  0  0  0  0  0  0  0  0  0  0  0
   10.1623  -16.3182   26.6416 O   0  0  0  0  0  0  0  0  0  0  0  0
   10.4085  -16.9651   27.8343 O   0  0  0  0  0  0  0  0  0  0  0  0
   13.2822  -19.1560   24.2902 O   0  0  0  0  0  0  0  0  0  0  0  0
  2  1  1  0
  3  2  2  0
  4  2  1  0
  5  4  1  0
  6  5  1  0
  7  6  1  0
  8 10  1  0
  8  7  1  0
  8  9  1  6
 10 19  1  0
 10 11  2  0
 12 13  1  0
 13 23  2  0
 13 14  1  0
 14 15  2  0
 15 16  1  0
 16 17  1  0
 18 17  1  6
 19 18  1  0
 20 24  1  0
 20 18  1  0
 21 20  2  0
 22 16  2  0
 23 22  1  0
 25 26  1  6
 25 30  1  0
 25 24  1  0
 27 28  1  0
 27 26  1  0
 28 32  1  0
 29 28  2  0
 30 31  1  0
 33 30  2  0
M  END
$$$$
