RYE.pdb
     RDKit          3D

 33 33  0  0  1  0  0  0  0  0999 V2000
    7.3558  -15.5828   16.1794 N   0  0  0  0  0  0  0  0  0  0  0  0
    7.7092  -14.3121   15.6661 C   0  0  0  0  0  0  0  0  0  0  0  0
    7.4472  -14.0471   14.4344 N   0  0  0  0  0  0  0  0  0  0  0  0
    8.3408  -13.3234   16.4589 N   0  0  0  0  0  0  0  0  0  0  0  0
    8.5761  -13.5106   17.8912 C   0  0  0  0  0  0  0  0  0  0  0  0
    7.2589  -13.2748   18.5803 C   0  0  0  0  0  0  0  0  0  0  0  0
    7.3532  -13.3690   20.0794 C   0  0  0  0  0  0  0  0  0  0  0  0
    8.1157  -14.6130   20.4637 C   0  0  2  0  0  0  0  0  0  0  0  0
    7.1869  -15.7078   20.4618 N   0  0  0  0  0  0  0  0  0  0  0  0
    8.7443  -14.4562   21.8056 C   0  0  0  0  0  0  0  0  0  0  0  0
    9.7535  -13.7224   21.9382 O   0  0  0  0  0  0  0  0  0  0  0  0
    7.7385  -13.1474   14.0218 O   0  0  0  0  0  0  0  0  0  0  0  0
   10.3684  -15.0852   30.4905 C   0  0  0  0  0  0  0  0  0  0  0  0
    9.7700  -15.0256   29.2162 C   0  0  0  0  0  0  0  0  0  0  0  0
    9.8190  -13.8824   28.4650 C   0  0  0  0  0  0  0  0  0  0  0  0
    9.2248  -13.8579   27.2260 C   0  0  0  0  0  0  0  0  0  0  0  0
    8.5710  -14.9344   26.6852 C   0  0  0  0  0  0  0  0  0  0  0  0
    7.9592  -14.8549   25.3674 C   0  0  1  0  0  0  0  0  0  0  0  0
    8.9172  -15.1160   24.2307 N   0  0  0  0  0  0  0  0  0  0  0  0
    8.2310  -15.1198   22.9545 C   0  0  0  0  0  0  0  0  0  0  0  0
    9.6677  -16.3611   24.3723 O   0  0  0  0  0  0  0  0  0  0  0  0
    9.1634  -17.5119   24.2722 C   0  0  0  0  0  0  0  0  0  0  0  0
    8.5214  -16.0831   27.4392 C   0  0  0  0  0  0  0  0  0  0  0  0
    9.1216  -16.1295   28.7065 N   0  0  0  0  0  0  0  0  0  0  0  0
   11.0573  -16.3218   24.6398 C   0  0  2  0  0  0  0  0  0  0  0  0
   11.8371  -17.5664   24.7757 C   0  0  0  0  0  0  0  0  0  0  0  0
   13.2161  -17.3704   24.2569 C   0  0  0  0  0  0  0  0  0  0  0  0
   13.2169  -17.1004   22.7846 C   0  0  0  0  0  0  0  0  0  0  0  0
   14.5026  -16.5066   22.3301 O   0  0  0  0  0  0  0  0  0  0  0  0
   15.3878  -16.2572   23.1668 C   0  0  0  0  0  0  0  0  0  0  0  0
   11.8765  -17.8680   26.2250 O   0  0  0  0  0  0  0  0  0  0  0  0
   11.3217  -17.1030   27.2293 O   0  0  0  0  0  0  0  0  0  0  0  0
   14.7034  -16.2390   20.9968 O   0  0  0  0  0  0  0  0  0  0  0  0
  2  1  1  0
  3  2  2  0
  4  2  1  0
  5  4  1  0
  6  5  1  0
  7  6  1  0
  8 10  1  0
  8  7  1  0
  8  9  1  1
 10 19  1  0
 10 11  2  0
 12 13  1  0
 13 23  2  0
 13 14  1  0
 14 15  2  0
 15 16  1  0
 16 17  1  0
 18 17  1  6
 19 18  1  0
 20 24  1  0
 20 18  1  0
 21 20  2  0
 22 16  2  0
 23 22  1  0
 25 26  1  6
 25 30  1  0
 25 24  1  0
 27 28  1  0
 27 26  1  0
 28 32  1  0
 29 28  2  0
 30 31  1  0
 33 30  2  0
M  END
$$$$
