RYE.pdb
     RDKit          3D

 33 33  0  0  1  0  0  0  0  0999 V2000
    7.5991  -15.5038   17.1738 N   0  0  0  0  0  0  0  0  0  0  0  0
    7.6602  -14.0899   17.1719 C   0  0  0  0  0  0  0  0  0  0  0  0
    7.8837  -13.4812   16.0603 N   0  0  0  0  0  0  0  0  0  0  0  0
    7.4849  -13.3221   18.3486 N   0  0  0  0  0  0  0  0  0  0  0  0
    6.7994  -13.8538   19.5273 C   0  0  0  0  0  0  0  0  0  0  0  0
    7.7191  -14.8772   20.1376 C   0  0  0  0  0  0  0  0  0  0  0  0
    8.1026  -14.5529   21.5563 C   0  0  0  0  0  0  0  0  0  0  0  0
    8.9460  -15.6686   22.1226 C   0  0  2  0  0  0  0  0  0  0  0  0
    8.2509  -16.9015   21.8818 N   0  0  0  0  0  0  0  0  0  0  0  0
    9.1784  -15.4696   23.5810 C   0  0  0  0  0  0  0  0  0  0  0  0
    9.9024  -14.5223   23.9723 O   0  0  0  0  0  0  0  0  0  0  0  0
    7.8713  -12.4503   16.0193 O   0  0  0  0  0  0  0  0  0  0  0  0
    6.5277  -10.0114   25.3233 C   0  0  0  0  0  0  0  0  0  0  0  0
    6.7261  -11.3773   25.6067 C   0  0  0  0  0  0  0  0  0  0  0  0
    6.2417  -12.3496   24.7739 C   0  0  0  0  0  0  0  0  0  0  0  0
    6.4525  -13.6728   25.0797 C   0  0  0  0  0  0  0  0  0  0  0  0
    7.1344  -14.0865   26.1944 C   0  0  0  0  0  0  0  0  0  0  0  0
    7.3301  -15.5015   26.4710 C   0  0  2  0  0  0  0  0  0  0  0  0
    8.6477  -16.0458   25.9753 N   0  0  0  0  0  0  0  0  0  0  0  0
    8.5991  -16.3294   24.5552 C   0  0  0  0  0  0  0  0  0  0  0  0
    9.0908  -17.2427   26.6857 O   0  0  0  0  0  0  0  0  0  0  0  0
    9.0193  -17.3970   27.9346 C   0  0  0  0  0  0  0  0  0  0  0  0
    7.6213  -13.1103   27.0315 C   0  0  0  0  0  0  0  0  0  0  0  0
    7.4173  -11.7537   26.7378 N   0  0  0  0  0  0  0  0  0  0  0  0
    9.6439  -18.3281   25.9646 C   0  0  1  0  0  0  0  0  0  0  0  0
   10.1198  -19.5368   26.6633 C   0  0  0  0  0  0  0  0  0  0  0  0
    9.3665  -20.7311   26.1994 C   0  0  0  0  0  0  0  0  0  0  0  0
    7.9200  -20.6497   26.5753 C   0  0  0  0  0  0  0  0  0  0  0  0
    7.1696  -21.8651   26.1608 O   0  0  0  0  0  0  0  0  0  0  0  0
    7.1750  -22.2060   24.9651 C   0  0  0  0  0  0  0  0  0  0  0  0
   11.5530  -19.6722   26.3162 O   0  0  0  0  0  0  0  0  0  0  0  0
   12.4096  -20.6529   26.7703 O   0  0  0  0  0  0  0  0  0  0  0  0
    6.4796  -22.5997   27.0956 O   0  0  0  0  0  0  0  0  0  0  0  0
  2  1  1  0
  3  2  2  0
  4  2  1  0
  5  4  1  0
  6  5  1  0
  7  6  1  0
  8 10  1  0
  8  7  1  0
  8  9  1  1
 10 19  1  0
 10 11  2  0
 12 13  1  0
 13 23  2  0
 13 14  1  0
 14 15  2  0
 15 16  1  0
 16 17  1  0
 18 17  1  6
 19 18  1  0
 20 24  1  0
 20 18  1  0
 21 20  2  0
 22 16  2  0
 23 22  1  0
 25 26  1  1
 25 30  1  0
 25 24  1  0
 27 28  1  0
 27 26  1  0
 28 32  1  0
 29 28  2  0
 30 31  1  0
 33 30  2  0
M  END
$$$$
