WNI.pdb
     RDKit          3D

 31 32  0  0  1  0  0  0  0  0999 V2000
    6.3145  -17.1648   23.4683 N   0  0  0  0  0  0  0  0  0  0  0  0
    7.6536  -16.6679   23.6359 C   0  0  1  0  0  0  0  0  0  0  0  0
    7.8984  -16.2504   25.0502 C   0  0  0  0  0  0  0  0  0  0  0  0
    6.9649  -15.1332   25.3608 C   0  0  0  0  0  0  0  0  0  0  0  0
    5.7763  -15.1583   26.0668 C   0  0  0  0  0  0  0  0  0  0  0  0
    5.2528  -13.9173   26.1085 N   0  0  0  0  0  0  0  0  0  0  0  0
    6.0460  -13.0553   25.4556 C   0  0  0  0  0  0  0  0  0  0  0  0
    5.9192  -11.6954   25.2381 C   0  0  0  0  0  0  0  0  0  0  0  0
    6.9242  -11.0755   24.5125 C   0  0  0  0  0  0  0  0  0  0  0  0
    7.9991  -11.8059   24.0359 C   0  0  0  0  0  0  0  0  0  0  0  0
    8.0984  -13.1640   24.2693 C   0  0  0  0  0  0  0  0  0  0  0  0
    7.1147  -13.7931   24.9843 C   0  0  0  0  0  0  0  0  0  0  0  0
    8.6364  -17.6650   23.1365 C   0  0  0  0  0  0  0  0  0  0  0  0
    8.4320  -18.2901   22.0608 O   0  0  0  0  0  0  0  0  0  0  0  0
   10.7277  -17.0384   20.2354 N   0  0  0  0  0  0  0  0  0  0  0  0
   11.4836  -16.4966   21.3098 C   0  0  0  0  0  0  0  0  0  0  0  0
   12.7105  -16.3256   21.1140 O   0  0  0  0  0  0  0  0  0  0  0  0
   10.9098  -16.1326   22.6170 C   0  0  0  0  0  0  0  0  0  0  0  0
   11.0943  -17.2496   23.5883 C   0  0  2  0  0  0  0  0  0  0  0  0
    9.8389  -17.9703   23.8217 N   0  0  0  0  0  0  0  0  0  0  0  0
   11.6090  -16.6945   24.8682 C   0  0  0  0  0  0  0  0  0  0  0  0
   12.6991  -16.0792   24.9772 O   0  0  0  0  0  0  0  0  0  0  0  0
    9.2485  -13.2045   27.6895 C   0  0  0  0  0  0  0  0  0  0  0  0
   10.3099  -14.1369   27.1171 C   0  0  0  0  0  0  0  0  0  0  0  0
   10.5285  -15.3301   28.0135 C   0  0  2  0  0  0  0  0  0  0  0  0
   10.9607  -14.8665   29.3720 C   0  0  0  0  0  0  0  0  0  0  0  0
   11.4088  -16.3173   27.3541 C   0  0  2  0  0  0  0  0  0  0  0  0
   10.8961  -16.8173   26.0958 N   0  0  0  0  0  0  0  0  0  0  0  0
   11.6261  -17.4868   28.2220 C   0  0  0  0  0  0  0  0  0  0  0  0
   11.1643  -18.7673   27.8696 O   0  0  0  0  0  0  0  0  0  0  0  0
   12.2252  -17.4251   29.3133 O   0  0  0  0  0  0  0  0  0  0  0  0
  2  1  1  1
  2  3  1  0
  3  4  1  0
  4  5  2  0
  5  6  1  0
  7  6  1  0
  8  7  2  0
  9  8  1  0
 10 11  1  0
 10  9  2  0
 11 12  2  0
 12  4  1  0
 12  7  1  0
 13 14  2  0
 13  2  1  0
 15 16  1  0
 16 17  2  0
 18 16  1  0
 19 18  1  6
 19 20  1  0
 20 13  1  0
 21 28  1  0
 21 19  1  0
 22 21  2  0
 23 24  1  0
 24 25  1  0
 25 26  1  1
 25 27  1  0
 27 28  1  6
 27 29  1  0
 29 30  1  0
 31 29  2  0
M  END
$$$$
