WNI.pdb
     RDKit          3D

 31 32  0  0  1  0  0  0  0  0999 V2000
    6.1789  -18.5835   23.9802 N   0  0  0  0  0  0  0  0  0  0  0  0
    6.9171  -17.3516   24.0547 C   0  0  1  0  0  0  0  0  0  0  0  0
    6.4019  -16.4826   25.1565 C   0  0  0  0  0  0  0  0  0  0  0  0
    6.8269  -15.0854   24.8679 C   0  0  0  0  0  0  0  0  0  0  0  0
    7.6173  -14.6073   23.8390 C   0  0  0  0  0  0  0  0  0  0  0  0
    7.7501  -13.2717   23.9586 N   0  0  0  0  0  0  0  0  0  0  0  0
    7.0774  -12.8312   25.0318 C   0  0  0  0  0  0  0  0  0  0  0  0
    6.9273  -11.5559   25.5451 C   0  0  0  0  0  0  0  0  0  0  0  0
    6.1560  -11.4221   26.6887 C   0  0  0  0  0  0  0  0  0  0  0  0
    5.5707  -12.5311   27.2748 C   0  0  0  0  0  0  0  0  0  0  0  0
    5.7386  -13.7933   26.7388 C   0  0  0  0  0  0  0  0  0  0  0  0
    6.4974  -13.9444   25.6090 C   0  0  0  0  0  0  0  0  0  0  0  0
    8.3733  -17.6321   24.1565 C   0  0  0  0  0  0  0  0  0  0  0  0
    8.7988  -18.5901   24.8571 O   0  0  0  0  0  0  0  0  0  0  0  0
   13.3453  -18.1805   21.7844 N   0  0  0  0  0  0  0  0  0  0  0  0
   12.9023  -16.9370   22.3104 C   0  0  0  0  0  0  0  0  0  0  0  0
   13.7804  -16.1648   22.7637 O   0  0  0  0  0  0  0  0  0  0  0  0
   11.4907  -16.5172   22.3494 C   0  0  0  0  0  0  0  0  0  0  0  0
   10.7708  -17.2355   23.4407 C   0  0  2  0  0  0  0  0  0  0  0  0
    9.3547  -16.8583   23.4880 N   0  0  0  0  0  0  0  0  0  0  0  0
   11.4258  -16.9206   24.7380 C   0  0  0  0  0  0  0  0  0  0  0  0
   12.5795  -17.3064   25.0526 O   0  0  0  0  0  0  0  0  0  0  0  0
    9.1094  -13.5665   29.0229 C   0  0  0  0  0  0  0  0  0  0  0  0
    9.6044  -14.8376   28.3426 C   0  0  0  0  0  0  0  0  0  0  0  0
   10.9293  -14.6098   27.6588 C   0  0  2  0  0  0  0  0  0  0  0  0
   10.8340  -13.4115   26.7631 C   0  0  0  0  0  0  0  0  0  0  0  0
   11.4051  -15.8574   27.0253 C   0  0  2  0  0  0  0  0  0  0  0  0
   10.7877  -16.1428   25.7471 N   0  0  0  0  0  0  0  0  0  0  0  0
   11.1451  -17.0177   27.8940 C   0  0  0  0  0  0  0  0  0  0  0  0
   11.9137  -17.2695   29.0441 O   0  0  0  0  0  0  0  0  0  0  0  0
   10.2395  -17.8455   27.6743 O   0  0  0  0  0  0  0  0  0  0  0  0
  2  1  1  1
  2  3  1  0
  3  4  1  0
  4  5  2  0
  5  6  1  0
  7  6  1  0
  8  7  2  0
  9  8  1  0
 10 11  1  0
 10  9  2  0
 11 12  2  0
 12  4  1  0
 12  7  1  0
 13 14  2  0
 13  2  1  0
 15 16  1  0
 16 17  2  0
 18 16  1  0
 19 18  1  6
 19 20  1  0
 20 13  1  0
 21 28  1  0
 21 19  1  0
 22 21  2  0
 23 24  1  0
 24 25  1  0
 25 26  1  6
 25 27  1  0
 27 28  1  6
 27 29  1  0
 29 30  1  0
 31 29  2  0
M  END
$$$$
