WNI.pdb
     RDKit          3D

 31 32  0  0  1  0  0  0  0  0999 V2000
    8.5618  -17.9582   21.0708 N   0  0  0  0  0  0  0  0  0  0  0  0
    7.9315  -17.2477   22.1505 C   0  0  1  0  0  0  0  0  0  0  0  0
    6.6621  -16.6004   21.6988 C   0  0  0  0  0  0  0  0  0  0  0  0
    6.9965  -15.6822   20.5758 C   0  0  0  0  0  0  0  0  0  0  0  0
    7.0139  -15.9344   19.2164 C   0  0  0  0  0  0  0  0  0  0  0  0
    7.3754  -14.8161   18.5571 N   0  0  0  0  0  0  0  0  0  0  0  0
    7.6028  -13.8179   19.4233 C   0  0  0  0  0  0  0  0  0  0  0  0
    7.9896  -12.5071   19.2122 C   0  0  0  0  0  0  0  0  0  0  0  0
    8.1441  -11.7061   20.3326 C   0  0  0  0  0  0  0  0  0  0  0  0
    7.9157  -12.2173   21.5984 C   0  0  0  0  0  0  0  0  0  0  0  0
    7.5299  -13.5317   21.7780 C   0  0  0  0  0  0  0  0  0  0  0  0
    7.3723  -14.3378   20.6824 C   0  0  0  0  0  0  0  0  0  0  0  0
    7.7512  -18.1475   23.3200 C   0  0  0  0  0  0  0  0  0  0  0  0
    7.1041  -19.2242   23.2123 O   0  0  0  0  0  0  0  0  0  0  0  0
   10.0415  -20.5120   24.0984 N   0  0  0  0  0  0  0  0  0  0  0  0
   10.6900  -19.4825   23.3643 C   0  0  0  0  0  0  0  0  0  0  0  0
   11.4454  -19.8389   22.4288 O   0  0  0  0  0  0  0  0  0  0  0  0
   10.5230  -18.0452   23.6415 C   0  0  0  0  0  0  0  0  0  0  0  0
    9.7215  -17.8513   24.8845 C   0  0  2  0  0  0  0  0  0  0  0  0
    8.2828  -17.8595   24.6018 N   0  0  0  0  0  0  0  0  0  0  0  0
   10.1104  -16.5602   25.5116 C   0  0  0  0  0  0  0  0  0  0  0  0
   11.3002  -16.2039   25.7022 O   0  0  0  0  0  0  0  0  0  0  0  0
    6.3756  -12.2592   26.4390 C   0  0  0  0  0  0  0  0  0  0  0  0
    7.2303  -13.5037   26.6491 C   0  0  0  0  0  0  0  0  0  0  0  0
    8.6807  -13.2278   26.3407 C   0  0  2  0  0  0  0  0  0  0  0  0
    8.8074  -12.7075   24.9404 C   0  0  0  0  0  0  0  0  0  0  0  0
    9.5125  -14.4030   26.6741 C   0  0  2  0  0  0  0  0  0  0  0  0
    9.1495  -15.6061   25.9549 N   0  0  0  0  0  0  0  0  0  0  0  0
    9.4207  -14.7191   28.1093 C   0  0  0  0  0  0  0  0  0  0  0  0
    8.9762  -15.9728   28.5652 O   0  0  0  0  0  0  0  0  0  0  0  0
    9.7257  -13.9103   29.0073 O   0  0  0  0  0  0  0  0  0  0  0  0
  2  1  1  6
  2  3  1  0
  3  4  1  0
  4  5  2  0
  5  6  1  0
  7  6  1  0
  8  7  2  0
  9  8  1  0
 10 11  1  0
 10  9  2  0
 11 12  2  0
 12  4  1  0
 12  7  1  0
 13 14  2  0
 13  2  1  0
 15 16  1  0
 16 17  2  0
 18 16  1  0
 19 18  1  6
 19 20  1  0
 20 13  1  0
 21 28  1  0
 21 19  1  0
 22 21  2  0
 23 24  1  0
 24 25  1  0
 25 26  1  6
 25 27  1  0
 27 28  1  6
 27 29  1  0
 29 30  1  0
 31 29  2  0
M  END
$$$$
