WNI.pdb
     RDKit          3D

 31 32  0  0  1  0  0  0  0  0999 V2000
    7.3119  -17.5952   22.5586 N   0  0  0  0  0  0  0  0  0  0  0  0
    8.2811  -16.5337   22.5203 C   0  0  1  0  0  0  0  0  0  0  0  0
    7.6126  -15.1978   22.4643 C   0  0  0  0  0  0  0  0  0  0  0  0
    6.9668  -14.9586   23.7840 C   0  0  0  0  0  0  0  0  0  0  0  0
    6.4082  -15.8697   24.6615 C   0  0  0  0  0  0  0  0  0  0  0  0
    5.9337  -15.2191   25.7419 N   0  0  0  0  0  0  0  0  0  0  0  0
    6.1522  -13.9012   25.6250 C   0  0  0  0  0  0  0  0  0  0  0  0
    5.8440  -12.8539   26.4741 C   0  0  0  0  0  0  0  0  0  0  0  0
    6.2071  -11.5808   26.0642 C   0  0  0  0  0  0  0  0  0  0  0  0
    6.8497  -11.3895   24.8532 C   0  0  0  0  0  0  0  0  0  0  0  0
    7.1446  -12.4558   24.0257 C   0  0  0  0  0  0  0  0  0  0  0  0
    6.7932  -13.7208   24.4146 C   0  0  0  0  0  0  0  0  0  0  0  0
    9.2347  -16.6692   23.6525 C   0  0  0  0  0  0  0  0  0  0  0  0
    9.1433  -15.9249   24.6661 O   0  0  0  0  0  0  0  0  0  0  0  0
   12.1881  -16.3841   20.2295 N   0  0  0  0  0  0  0  0  0  0  0  0
   12.4111  -16.9530   21.5125 C   0  0  0  0  0  0  0  0  0  0  0  0
   12.8901  -18.1115   21.5466 O   0  0  0  0  0  0  0  0  0  0  0  0
   12.1137  -16.2637   22.7801 C   0  0  0  0  0  0  0  0  0  0  0  0
   11.6947  -17.2515   23.8163 C   0  0  2  0  0  0  0  0  0  0  0  0
   10.2841  -17.6218   23.6651 N   0  0  0  0  0  0  0  0  0  0  0  0
   11.9262  -16.6643   25.1627 C   0  0  0  0  0  0  0  0  0  0  0  0
   13.0109  -16.1420   25.5226 O   0  0  0  0  0  0  0  0  0  0  0  0
    9.3738  -12.8447   27.3419 C   0  0  0  0  0  0  0  0  0  0  0  0
   10.3926  -13.9265   27.0024 C   0  0  0  0  0  0  0  0  0  0  0  0
   10.2966  -15.0865   27.9616 C   0  0  2  0  0  0  0  0  0  0  0  0
   10.5039  -14.5986   29.3639 C   0  0  0  0  0  0  0  0  0  0  0  0
   11.1726  -16.1932   27.5233 C   0  0  2  0  0  0  0  0  0  0  0  0
   10.9199  -16.6458   26.1714 N   0  0  0  0  0  0  0  0  0  0  0  0
   11.0159  -17.3643   28.4023 C   0  0  0  0  0  0  0  0  0  0  0  0
   11.5847  -17.4078   29.6874 O   0  0  0  0  0  0  0  0  0  0  0  0
   10.3781  -18.3836   28.0740 O   0  0  0  0  0  0  0  0  0  0  0  0
  2  1  1  1
  2  3  1  0
  3  4  1  0
  4  5  2  0
  5  6  1  0
  7  6  1  0
  8  7  2  0
  9  8  1  0
 10 11  1  0
 10  9  2  0
 11 12  2  0
 12  4  1  0
 12  7  1  0
 13 14  2  0
 13  2  1  0
 15 16  1  0
 16 17  2  0
 18 16  1  0
 19 18  1  6
 19 20  1  0
 20 13  1  0
 21 28  1  0
 21 19  1  0
 22 21  2  0
 23 24  1  0
 24 25  1  0
 25 26  1  1
 25 27  1  0
 27 28  1  6
 27 29  1  0
 29 30  1  0
 31 29  2  0
M  END
$$$$
