WNI.pdb
     RDKit          3D

 31 32  0  0  1  0  0  0  0  0999 V2000
   10.0973  -16.7177   21.0282 N   0  0  0  0  0  0  0  0  0  0  0  0
    9.1353  -16.3022   22.0130 C   0  0  1  0  0  0  0  0  0  0  0  0
    7.7416  -16.4210   21.4858 C   0  0  0  0  0  0  0  0  0  0  0  0
    7.6456  -15.5758   20.2641 C   0  0  0  0  0  0  0  0  0  0  0  0
    7.4099  -15.9549   18.9555 C   0  0  0  0  0  0  0  0  0  0  0  0
    7.4051  -14.8630   18.1659 N   0  0  0  0  0  0  0  0  0  0  0  0
    7.6291  -13.7601   18.8951 C   0  0  0  0  0  0  0  0  0  0  0  0
    7.7114  -12.4306   18.5234 C   0  0  0  0  0  0  0  0  0  0  0  0
    7.9579  -11.5081   19.5278 C   0  0  0  0  0  0  0  0  0  0  0  0
    8.1116  -11.9224   20.8396 C   0  0  0  0  0  0  0  0  0  0  0  0
    8.0240  -13.2583   21.1808 C   0  0  0  0  0  0  0  0  0  0  0  0
    7.7810  -14.1838   20.2013 C   0  0  0  0  0  0  0  0  0  0  0  0
    9.3504  -17.0424   23.2840 C   0  0  0  0  0  0  0  0  0  0  0  0
    8.4707  -17.0434   24.1872 O   0  0  0  0  0  0  0  0  0  0  0  0
   14.2066  -19.4142   24.4799 N   0  0  0  0  0  0  0  0  0  0  0  0
   12.9035  -19.2186   23.9479 C   0  0  0  0  0  0  0  0  0  0  0  0
   12.8214  -18.6291   22.8440 O   0  0  0  0  0  0  0  0  0  0  0  0
   11.6679  -19.6647   24.6149 C   0  0  0  0  0  0  0  0  0  0  0  0
   10.7427  -18.5108   24.8081 C   0  0  2  0  0  0  0  0  0  0  0  0
   10.5312  -17.7774   23.5561 N   0  0  0  0  0  0  0  0  0  0  0  0
   11.3127  -17.6042   25.8398 C   0  0  0  0  0  0  0  0  0  0  0  0
   12.4416  -17.0600   25.7482 O   0  0  0  0  0  0  0  0  0  0  0  0
    8.4360  -13.7455   28.4214 C   0  0  0  0  0  0  0  0  0  0  0  0
    9.0624  -15.1297   28.2988 C   0  0  0  0  0  0  0  0  0  0  0  0
   10.5462  -15.0364   28.0444 C   0  0  2  0  0  0  0  0  0  0  0  0
   10.7964  -14.1975   26.8274 C   0  0  0  0  0  0  0  0  0  0  0  0
   11.1556  -16.3828   28.0411 C   0  0  2  0  0  0  0  0  0  0  0  0
   10.6134  -17.2734   27.0365 N   0  0  0  0  0  0  0  0  0  0  0  0
   10.9702  -17.0444   29.3435 C   0  0  0  0  0  0  0  0  0  0  0  0
   11.4816  -16.4960   30.5329 O   0  0  0  0  0  0  0  0  0  0  0  0
   10.3565  -18.1205   29.4812 O   0  0  0  0  0  0  0  0  0  0  0  0
  2  1  1  6
  2  3  1  0
  3  4  1  0
  4  5  2  0
  5  6  1  0
  7  6  1  0
  8  7  2  0
  9  8  1  0
 10 11  1  0
 10  9  2  0
 11 12  2  0
 12  4  1  0
 12  7  1  0
 13 14  2  0
 13  2  1  0
 15 16  1  0
 16 17  2  0
 18 16  1  0
 19 18  1  6
 19 20  1  0
 20 13  1  0
 21 28  1  0
 21 19  1  0
 22 21  2  0
 23 24  1  0
 24 25  1  0
 25 26  1  6
 25 27  1  0
 27 28  1  6
 27 29  1  0
 29 30  1  0
 31 29  2  0
M  END
$$$$
