WNI.pdb
     RDKit          3D

 31 32  0  0  1  0  0  0  0  0999 V2000
    6.6518  -18.9136   23.8019 N   0  0  0  0  0  0  0  0  0  0  0  0
    7.4062  -17.7088   23.5847 C   0  0  1  0  0  0  0  0  0  0  0  0
    6.6945  -16.5207   24.1472 C   0  0  0  0  0  0  0  0  0  0  0  0
    6.8463  -15.4010   23.1781 C   0  0  0  0  0  0  0  0  0  0  0  0
    6.9619  -15.4467   21.8010 C   0  0  0  0  0  0  0  0  0  0  0  0
    7.0806  -14.1940   21.3188 N   0  0  0  0  0  0  0  0  0  0  0  0
    7.0493  -13.3042   22.3216 C   0  0  0  0  0  0  0  0  0  0  0  0
    7.1352  -11.9240   22.3098 C   0  0  0  0  0  0  0  0  0  0  0  0
    7.0699  -11.2767   23.5335 C   0  0  0  0  0  0  0  0  0  0  0  0
    6.9247  -12.0009   24.7042 C   0  0  0  0  0  0  0  0  0  0  0  0
    6.8415  -13.3798   24.6844 C   0  0  0  0  0  0  0  0  0  0  0  0
    6.9042  -14.0361   23.4843 C   0  0  0  0  0  0  0  0  0  0  0  0
    8.7893  -17.8692   24.1054 C   0  0  0  0  0  0  0  0  0  0  0  0
    9.0263  -18.6261   25.0855 O   0  0  0  0  0  0  0  0  0  0  0  0
   11.8903  -17.1032   20.4577 N   0  0  0  0  0  0  0  0  0  0  0  0
   12.0143  -17.7340   21.7250 C   0  0  0  0  0  0  0  0  0  0  0  0
   11.8908  -18.9816   21.7550 O   0  0  0  0  0  0  0  0  0  0  0  0
   12.2756  -17.0101   22.9813 C   0  0  0  0  0  0  0  0  0  0  0  0
   11.2778  -17.4031   24.0180 C   0  0  2  0  0  0  0  0  0  0  0  0
    9.9048  -17.1969   23.5466 N   0  0  0  0  0  0  0  0  0  0  0  0
   11.5203  -16.6026   25.2475 C   0  0  0  0  0  0  0  0  0  0  0  0
   12.6276  -16.0858   25.5404 O   0  0  0  0  0  0  0  0  0  0  0  0
    7.9337  -13.1493   27.7330 C   0  0  0  0  0  0  0  0  0  0  0  0
    8.6150  -14.4975   27.5290 C   0  0  0  0  0  0  0  0  0  0  0  0
   10.1159  -14.3665   27.6006 C   0  0  2  0  0  0  0  0  0  0  0  0
   10.5762  -13.3165   26.6347 C   0  0  0  0  0  0  0  0  0  0  0  0
   10.7569  -15.6920   27.4725 C   0  0  2  0  0  0  0  0  0  0  0  0
   10.4997  -16.3523   26.2098 N   0  0  0  0  0  0  0  0  0  0  0  0
   10.2933  -16.6024   28.5330 C   0  0  0  0  0  0  0  0  0  0  0  0
   10.5183  -16.3303   29.8940 O   0  0  0  0  0  0  0  0  0  0  0  0
    9.6784  -17.6618   28.3025 O   0  0  0  0  0  0  0  0  0  0  0  0
  2  1  1  1
  2  3  1  0
  3  4  1  0
  4  5  2  0
  5  6  1  0
  7  6  1  0
  8  7  2  0
  9  8  1  0
 10 11  1  0
 10  9  2  0
 11 12  2  0
 12  4  1  0
 12  7  1  0
 13 14  2  0
 13  2  1  0
 15 16  1  0
 16 17  2  0
 18 16  1  0
 19 18  1  6
 19 20  1  0
 20 13  1  0
 21 28  1  0
 21 19  1  0
 22 21  2  0
 23 24  1  0
 24 25  1  0
 25 26  1  6
 25 27  1  0
 27 28  1  6
 27 29  1  0
 29 30  1  0
 31 29  2  0
M  END
$$$$
