WNI.pdb
     RDKit          3D

 31 32  0  0  1  0  0  0  0  0999 V2000
    8.4883  -17.7078   20.8338 N   0  0  0  0  0  0  0  0  0  0  0  0
    8.5788  -16.7890   21.9363 C   0  0  1  0  0  0  0  0  0  0  0  0
    7.2745  -16.0959   22.1663 C   0  0  0  0  0  0  0  0  0  0  0  0
    6.9488  -15.3235   20.9361 C   0  0  0  0  0  0  0  0  0  0  0  0
    6.0604  -15.6295   19.9217 C   0  0  0  0  0  0  0  0  0  0  0  0
    6.0796  -14.6491   18.9975 N   0  0  0  0  0  0  0  0  0  0  0  0
    6.9495  -13.6920   19.3520 C   0  0  0  0  0  0  0  0  0  0  0  0
    7.3012  -12.5111   18.7241 C   0  0  0  0  0  0  0  0  0  0  0  0
    8.2485  -11.7191   19.3534 C   0  0  0  0  0  0  0  0  0  0  0  0
    8.8052  -12.1131   20.5579 C   0  0  0  0  0  0  0  0  0  0  0  0
    8.4337  -13.2990   21.1615 C   0  0  0  0  0  0  0  0  0  0  0  0
    7.4990  -14.0942   20.5540 C   0  0  0  0  0  0  0  0  0  0  0  0
    9.0976  -17.4855   23.1427 C   0  0  0  0  0  0  0  0  0  0  0  0
    8.3080  -17.9872   23.9880 O   0  0  0  0  0  0  0  0  0  0  0  0
   10.6492  -20.3461   22.9975 N   0  0  0  0  0  0  0  0  0  0  0  0
   11.9231  -20.1095   23.5810 C   0  0  0  0  0  0  0  0  0  0  0  0
   12.8364  -20.9235   23.3048 O   0  0  0  0  0  0  0  0  0  0  0  0
   12.2195  -18.9780   24.4768 C   0  0  0  0  0  0  0  0  0  0  0  0
   10.9949  -18.1517   24.6835 C   0  0  2  0  0  0  0  0  0  0  0  0
   10.4814  -17.6270   23.4143 N   0  0  0  0  0  0  0  0  0  0  0  0
   11.3205  -17.0304   25.6043 C   0  0  0  0  0  0  0  0  0  0  0  0
   12.1895  -16.1554   25.3633 O   0  0  0  0  0  0  0  0  0  0  0  0
    7.9624  -13.6286   28.2543 C   0  0  0  0  0  0  0  0  0  0  0  0
    8.7494  -14.8968   27.9447 C   0  0  0  0  0  0  0  0  0  0  0  0
   10.1997  -14.5856   27.6711 C   0  0  2  0  0  0  0  0  0  0  0  0
   10.3184  -13.8358   26.3783 C   0  0  0  0  0  0  0  0  0  0  0  0
   11.0218  -15.8079   27.7903 C   0  0  2  0  0  0  0  0  0  0  0  0
   10.6627  -16.8540   26.8559 N   0  0  0  0  0  0  0  0  0  0  0  0
   10.9099  -16.3844   29.1407 C   0  0  0  0  0  0  0  0  0  0  0  0
   10.4679  -17.7027   29.3496 O   0  0  0  0  0  0  0  0  0  0  0  0
   11.1946  -15.7540   30.1777 O   0  0  0  0  0  0  0  0  0  0  0  0
  2  1  1  6
  2  3  1  0
  3  4  1  0
  4  5  2  0
  5  6  1  0
  7  6  1  0
  8  7  2  0
  9  8  1  0
 10 11  1  0
 10  9  2  0
 11 12  2  0
 12  4  1  0
 12  7  1  0
 13 14  2  0
 13  2  1  0
 15 16  1  0
 16 17  2  0
 18 16  1  0
 19 18  1  6
 19 20  1  0
 20 13  1  0
 21 28  1  0
 21 19  1  0
 22 21  2  0
 23 24  1  0
 24 25  1  0
 25 26  1  6
 25 27  1  0
 27 28  1  6
 27 29  1  0
 29 30  1  0
 31 29  2  0
M  END
$$$$
