WNI.pdb
     RDKit          3D

 31 32  0  0  1  0  0  0  0  0999 V2000
    7.7225  -17.5449   20.9932 N   0  0  0  0  0  0  0  0  0  0  0  0
    7.9859  -16.6274   22.0687 C   0  0  1  0  0  0  0  0  0  0  0  0
    6.7287  -15.9599   22.5252 C   0  0  0  0  0  0  0  0  0  0  0  0
    7.0384  -14.5231   22.7608 C   0  0  0  0  0  0  0  0  0  0  0  0
    7.6349  -13.6074   21.9137 C   0  0  0  0  0  0  0  0  0  0  0  0
    7.7232  -12.4140   22.5333 N   0  0  0  0  0  0  0  0  0  0  0  0
    7.2075  -12.4917   23.7688 C   0  0  0  0  0  0  0  0  0  0  0  0
    7.0813  -11.5341   24.7586 C   0  0  0  0  0  0  0  0  0  0  0  0
    6.4937  -11.9305   25.9495 C   0  0  0  0  0  0  0  0  0  0  0  0
    6.0592  -13.2338   26.1186 C   0  0  0  0  0  0  0  0  0  0  0  0
    6.1988  -14.1688   25.1111 C   0  0  0  0  0  0  0  0  0  0  0  0
    6.7772  -13.7948   23.9276 C   0  0  0  0  0  0  0  0  0  0  0  0
    8.7186  -17.3169   23.1629 C   0  0  0  0  0  0  0  0  0  0  0  0
    8.0946  -17.8885   24.0976 O   0  0  0  0  0  0  0  0  0  0  0  0
   10.2354  -20.2019   22.6661 N   0  0  0  0  0  0  0  0  0  0  0  0
   11.5976  -19.8803   22.9116 C   0  0  0  0  0  0  0  0  0  0  0  0
   12.4616  -20.5741   22.3245 O   0  0  0  0  0  0  0  0  0  0  0  0
   12.0375  -18.7937   23.8041 C   0  0  0  0  0  0  0  0  0  0  0  0
   10.8571  -18.0376   24.3139 C   0  0  2  0  0  0  0  0  0  0  0  0
   10.1334  -17.3748   23.2246 N   0  0  0  0  0  0  0  0  0  0  0  0
   11.3217  -17.0304   25.3043 C   0  0  0  0  0  0  0  0  0  0  0  0
   12.2331  -16.1950   25.0796 O   0  0  0  0  0  0  0  0  0  0  0  0
    8.8523  -13.7678   28.9621 C   0  0  0  0  0  0  0  0  0  0  0  0
    9.4297  -15.0995   28.4966 C   0  0  0  0  0  0  0  0  0  0  0  0
   10.8644  -14.9480   28.0566 C   0  0  2  0  0  0  0  0  0  0  0  0
   10.9583  -13.8855   27.0032 C   0  0  0  0  0  0  0  0  0  0  0  0
   11.4385  -16.2636   27.7045 C   0  0  2  0  0  0  0  0  0  0  0  0
   10.7621  -16.9289   26.6108 N   0  0  0  0  0  0  0  0  0  0  0  0
   11.3924  -17.1800   28.8562 C   0  0  0  0  0  0  0  0  0  0  0  0
   12.0775  -16.9023   30.0522 O   0  0  0  0  0  0  0  0  0  0  0  0
   10.7528  -18.2498   28.8520 O   0  0  0  0  0  0  0  0  0  0  0  0
  2  1  1  6
  2  3  1  0
  3  4  1  0
  4  5  2  0
  5  6  1  0
  7  6  1  0
  8  7  2  0
  9  8  1  0
 10 11  1  0
 10  9  2  0
 11 12  2  0
 12  4  1  0
 12  7  1  0
 13 14  2  0
 13  2  1  0
 15 16  1  0
 16 17  2  0
 18 16  1  0
 19 18  1  6
 19 20  1  0
 20 13  1  0
 21 28  1  0
 21 19  1  0
 22 21  2  0
 23 24  1  0
 24 25  1  0
 25 26  1  6
 25 27  1  0
 27 28  1  6
 27 29  1  0
 29 30  1  0
 31 29  2  0
M  END
$$$$
