WNI.pdb
     RDKit          3D

 31 32  0  0  1  0  0  0  0  0999 V2000
    9.0357  -17.2160   21.3908 N   0  0  0  0  0  0  0  0  0  0  0  0
    8.7781  -16.5410   22.6341 C   0  0  1  0  0  0  0  0  0  0  0  0
    7.3102  -16.4485   22.9009 C   0  0  0  0  0  0  0  0  0  0  0  0
    6.9597  -15.0060   23.0112 C   0  0  0  0  0  0  0  0  0  0  0  0
    6.3523  -14.3316   24.0544 C   0  0  0  0  0  0  0  0  0  0  0  0
    6.2237  -13.0294   23.7325 N   0  0  0  0  0  0  0  0  0  0  0  0
    6.7229  -12.8008   22.5090 C   0  0  0  0  0  0  0  0  0  0  0  0
    6.8094  -11.6349   21.7702 C   0  0  0  0  0  0  0  0  0  0  0  0
    7.3895  -11.7244   20.5147 C   0  0  0  0  0  0  0  0  0  0  0  0
    7.8552  -12.9388   20.0412 C   0  0  0  0  0  0  0  0  0  0  0  0
    7.7549  -14.0873   20.8026 C   0  0  0  0  0  0  0  0  0  0  0  0
    7.1846  -14.0176   22.0456 C   0  0  0  0  0  0  0  0  0  0  0  0
    9.5384  -17.1876   23.7356 C   0  0  0  0  0  0  0  0  0  0  0  0
    9.0349  -17.3046   24.8856 O   0  0  0  0  0  0  0  0  0  0  0  0
   12.4786  -20.9186   23.2225 N   0  0  0  0  0  0  0  0  0  0  0  0
   12.8900  -19.5645   23.0941 C   0  0  0  0  0  0  0  0  0  0  0  0
   13.1619  -19.1588   21.9390 O   0  0  0  0  0  0  0  0  0  0  0  0
   13.0109  -18.6312   24.2276 C   0  0  0  0  0  0  0  0  0  0  0  0
   11.6582  -18.1996   24.6845 C   0  0  2  0  0  0  0  0  0  0  0  0
   10.8483  -17.7024   23.5679 N   0  0  0  0  0  0  0  0  0  0  0  0
   11.8137  -17.1378   25.7138 C   0  0  0  0  0  0  0  0  0  0  0  0
   12.7039  -16.2516   25.6777 O   0  0  0  0  0  0  0  0  0  0  0  0
    8.0534  -14.1480   28.3136 C   0  0  0  0  0  0  0  0  0  0  0  0
    8.9415  -15.3753   28.1449 C   0  0  0  0  0  0  0  0  0  0  0  0
   10.3982  -14.9897   28.0796 C   0  0  2  0  0  0  0  0  0  0  0  0
   10.5980  -13.9569   27.0115 C   0  0  0  0  0  0  0  0  0  0  0  0
   11.2480  -16.1951   27.9840 C   0  0  2  0  0  0  0  0  0  0  0  0
   10.9517  -17.0370   26.8439 N   0  0  0  0  0  0  0  0  0  0  0  0
   11.1022  -17.0349   29.1848 C   0  0  0  0  0  0  0  0  0  0  0  0
   11.4686  -16.5730   30.4613 O   0  0  0  0  0  0  0  0  0  0  0  0
   10.6508  -18.1963   29.1547 O   0  0  0  0  0  0  0  0  0  0  0  0
  2  1  1  6
  2  3  1  0
  3  4  1  0
  4  5  2  0
  5  6  1  0
  7  6  1  0
  8  7  2  0
  9  8  1  0
 10 11  1  0
 10  9  2  0
 11 12  2  0
 12  4  1  0
 12  7  1  0
 13 14  2  0
 13  2  1  0
 15 16  1  0
 16 17  2  0
 18 16  1  0
 19 18  1  6
 19 20  1  0
 20 13  1  0
 21 28  1  0
 21 19  1  0
 22 21  2  0
 23 24  1  0
 24 25  1  0
 25 26  1  6
 25 27  1  0
 27 28  1  6
 27 29  1  0
 29 30  1  0
 31 29  2  0
M  END
$$$$
