WNI.pdb
     RDKit          3D

 31 32  0  0  1  0  0  0  0  0999 V2000
    7.3951  -18.3417   22.0499 N   0  0  0  0  0  0  0  0  0  0  0  0
    7.9130  -17.1797   22.7201 C   0  0  1  0  0  0  0  0  0  0  0  0
    6.9810  -16.7191   23.7942 C   0  0  0  0  0  0  0  0  0  0  0  0
    7.0954  -15.2379   23.8890 C   0  0  0  0  0  0  0  0  0  0  0  0
    7.6022  -14.3399   22.9678 C   0  0  0  0  0  0  0  0  0  0  0  0
    7.5135  -13.0901   23.4638 N   0  0  0  0  0  0  0  0  0  0  0  0
    6.9647  -13.1126   24.6872 C   0  0  0  0  0  0  0  0  0  0  0  0
    6.6792  -12.0871   25.5700 C   0  0  0  0  0  0  0  0  0  0  0  0
    6.1015  -12.4379   26.7799 C   0  0  0  0  0  0  0  0  0  0  0  0
    5.8308  -13.7638   27.0708 C   0  0  0  0  0  0  0  0  0  0  0  0
    6.1274  -14.7670   26.1683 C   0  0  0  0  0  0  0  0  0  0  0  0
    6.6985  -14.4389   24.9678 C   0  0  0  0  0  0  0  0  0  0  0  0
    9.2924  -17.4417   23.2083 C   0  0  0  0  0  0  0  0  0  0  0  0
    9.5965  -18.5544   23.7172 O   0  0  0  0  0  0  0  0  0  0  0  0
   14.4631  -17.6384   23.1908 N   0  0  0  0  0  0  0  0  0  0  0  0
   14.0593  -16.2789   23.1007 C   0  0  0  0  0  0  0  0  0  0  0  0
   14.9497  -15.4088   23.2518 O   0  0  0  0  0  0  0  0  0  0  0  0
   12.6740  -15.8484   22.8435 C   0  0  0  0  0  0  0  0  0  0  0  0
   11.7155  -16.7707   23.5185 C   0  0  2  0  0  0  0  0  0  0  0  0
   10.3305  -16.4796   23.1349 N   0  0  0  0  0  0  0  0  0  0  0  0
   11.8753  -16.6380   24.9909 C   0  0  0  0  0  0  0  0  0  0  0  0
   12.9457  -16.8770   25.6041 O   0  0  0  0  0  0  0  0  0  0  0  0
   10.3557  -12.3425   27.6109 C   0  0  0  0  0  0  0  0  0  0  0  0
   11.0381  -13.6353   27.1791 C   0  0  0  0  0  0  0  0  0  0  0  0
   10.3894  -14.8356   27.8220 C   0  0  2  0  0  0  0  0  0  0  0  0
   10.4310  -14.6917   29.3136 C   0  0  0  0  0  0  0  0  0  0  0  0
   10.9576  -16.0853   27.2745 C   0  0  2  0  0  0  0  0  0  0  0  0
   10.8098  -16.2220   25.8406 N   0  0  0  0  0  0  0  0  0  0  0  0
   10.3172  -17.2627   27.8842 C   0  0  0  0  0  0  0  0  0  0  0  0
   10.6143  -17.6718   29.1963 O   0  0  0  0  0  0  0  0  0  0  0  0
    9.4797  -17.9688   27.2896 O   0  0  0  0  0  0  0  0  0  0  0  0
  2  1  1  1
  2  3  1  0
  3  4  1  0
  4  5  2  0
  5  6  1  0
  7  6  1  0
  8  7  2  0
  9  8  1  0
 10 11  1  0
 10  9  2  0
 11 12  2  0
 12  4  1  0
 12  7  1  0
 13 14  2  0
 13  2  1  0
 15 16  1  0
 16 17  2  0
 18 16  1  0
 19 18  1  6
 19 20  1  0
 20 13  1  0
 21 28  1  0
 21 19  1  0
 22 21  2  0
 23 24  1  0
 24 25  1  0
 25 26  1  1
 25 27  1  0
 27 28  1  6
 27 29  1  0
 29 30  1  0
 31 29  2  0
M  END
$$$$
