WNI.pdb
     RDKit          3D

 31 32  0  0  1  0  0  0  0  0999 V2000
    6.9513  -18.4631   24.7747 N   0  0  0  0  0  0  0  0  0  0  0  0
    7.3894  -18.0554   23.4671 C   0  0  1  0  0  0  0  0  0  0  0  0
    6.6696  -16.8243   23.0192 C   0  0  0  0  0  0  0  0  0  0  0  0
    6.6104  -15.8882   24.1752 C   0  0  0  0  0  0  0  0  0  0  0  0
    6.2374  -16.1373   25.4831 C   0  0  0  0  0  0  0  0  0  0  0  0
    6.3300  -15.0004   26.2005 N   0  0  0  0  0  0  0  0  0  0  0  0
    6.7525  -13.9925   25.4232 C   0  0  0  0  0  0  0  0  0  0  0  0
    6.9925  -12.6626   25.7167 C   0  0  0  0  0  0  0  0  0  0  0  0
    7.4308  -11.8559   24.6785 C   0  0  0  0  0  0  0  0  0  0  0  0
    7.6136  -12.3804   23.4106 C   0  0  0  0  0  0  0  0  0  0  0  0
    7.3655  -13.7138   23.1476 C   0  0  0  0  0  0  0  0  0  0  0  0
    6.9318  -14.5257   24.1613 C   0  0  0  0  0  0  0  0  0  0  0  0
    8.8691  -17.9156   23.4428 C   0  0  0  0  0  0  0  0  0  0  0  0
    9.6138  -18.9330   23.4488 O   0  0  0  0  0  0  0  0  0  0  0  0
   10.9280  -15.0287   20.1492 N   0  0  0  0  0  0  0  0  0  0  0  0
   11.4894  -15.7927   21.2076 C   0  0  0  0  0  0  0  0  0  0  0  0
   12.0428  -16.8747   20.8980 O   0  0  0  0  0  0  0  0  0  0  0  0
   11.4549  -15.3857   22.6231 C   0  0  0  0  0  0  0  0  0  0  0  0
   10.9812  -16.5171   23.4719 C   0  0  2  0  0  0  0  0  0  0  0  0
    9.5230  -16.6586   23.4121 N   0  0  0  0  0  0  0  0  0  0  0  0
   11.4132  -16.2802   24.8749 C   0  0  0  0  0  0  0  0  0  0  0  0
   12.5900  -15.9900   25.2064 O   0  0  0  0  0  0  0  0  0  0  0  0
    8.2277  -13.4223   27.9624 C   0  0  0  0  0  0  0  0  0  0  0  0
    9.4608  -14.0621   27.3348 C   0  0  0  0  0  0  0  0  0  0  0  0
    9.8810  -15.2960   28.0936 C   0  0  2  0  0  0  0  0  0  0  0  0
   10.2477  -14.9226   29.4984 C   0  0  0  0  0  0  0  0  0  0  0  0
   10.9025  -16.0468   27.3340 C   0  0  2  0  0  0  0  0  0  0  0  0
   10.5129  -16.3645   25.9761 N   0  0  0  0  0  0  0  0  0  0  0  0
   11.2158  -17.3231   27.9983 C   0  0  0  0  0  0  0  0  0  0  0  0
   12.1871  -17.4127   29.0110 O   0  0  0  0  0  0  0  0  0  0  0  0
   10.6509  -18.3973   27.7141 O   0  0  0  0  0  0  0  0  0  0  0  0
  2  1  1  1
  2  3  1  0
  3  4  1  0
  4  5  2  0
  5  6  1  0
  7  6  1  0
  8  7  2  0
  9  8  1  0
 10 11  1  0
 10  9  2  0
 11 12  2  0
 12  4  1  0
 12  7  1  0
 13 14  2  0
 13  2  1  0
 15 16  1  0
 16 17  2  0
 18 16  1  0
 19 18  1  6
 19 20  1  0
 20 13  1  0
 21 28  1  0
 21 19  1  0
 22 21  2  0
 23 24  1  0
 24 25  1  0
 25 26  1  1
 25 27  1  0
 27 28  1  6
 27 29  1  0
 29 30  1  0
 31 29  2  0
M  END
$$$$
