WNI.pdb
     RDKit          3D

 31 32  0  0  1  0  0  0  0  0999 V2000
    6.0662  -18.1189   22.4054 N   0  0  0  0  0  0  0  0  0  0  0  0
    6.8586  -17.2262   23.2073 C   0  0  1  0  0  0  0  0  0  0  0  0
    6.4087  -17.2420   24.6327 C   0  0  0  0  0  0  0  0  0  0  0  0
    5.8958  -15.8837   24.9611 C   0  0  0  0  0  0  0  0  0  0  0  0
    4.7196  -15.5228   25.5921 C   0  0  0  0  0  0  0  0  0  0  0  0
    4.6540  -14.1801   25.6851 N   0  0  0  0  0  0  0  0  0  0  0  0
    5.7443  -13.6218   25.1392 C   0  0  0  0  0  0  0  0  0  0  0  0
    6.1111  -12.2951   25.0055 C   0  0  0  0  0  0  0  0  0  0  0  0
    7.3219  -12.0342   24.3837 C   0  0  0  0  0  0  0  0  0  0  0  0
    8.1134  -13.0726   23.9241 C   0  0  0  0  0  0  0  0  0  0  0  0
    7.7203  -14.3888   24.0721 C   0  0  0  0  0  0  0  0  0  0  0  0
    6.5270  -14.6652   24.6841 C   0  0  0  0  0  0  0  0  0  0  0  0
    8.3034  -17.5338   23.0411 C   0  0  0  0  0  0  0  0  0  0  0  0
    8.7354  -18.0476   21.9738 O   0  0  0  0  0  0  0  0  0  0  0  0
   13.3660  -17.0056   22.9629 N   0  0  0  0  0  0  0  0  0  0  0  0
   12.4040  -16.1517   22.3590 C   0  0  0  0  0  0  0  0  0  0  0  0
   12.8183  -15.3573   21.4815 O   0  0  0  0  0  0  0  0  0  0  0  0
   10.9720  -16.1525   22.7053 C   0  0  0  0  0  0  0  0  0  0  0  0
   10.7011  -17.1621   23.7694 C   0  0  2  0  0  0  0  0  0  0  0  0
    9.2662  -17.2754   24.0486 N   0  0  0  0  0  0  0  0  0  0  0  0
   11.4310  -16.7683   25.0037 C   0  0  0  0  0  0  0  0  0  0  0  0
   12.6715  -16.5742   25.0525 O   0  0  0  0  0  0  0  0  0  0  0  0
    9.6723  -12.9396   28.0321 C   0  0  0  0  0  0  0  0  0  0  0  0
   10.5460  -13.9699   27.3260 C   0  0  0  0  0  0  0  0  0  0  0  0
   10.8624  -15.1314   28.2347 C   0  0  2  0  0  0  0  0  0  0  0  0
   11.6334  -14.6441   29.4245 C   0  0  0  0  0  0  0  0  0  0  0  0
   11.4800  -16.2338   27.4682 C   0  0  2  0  0  0  0  0  0  0  0  0
   10.7722  -16.5760   26.2524 N   0  0  0  0  0  0  0  0  0  0  0  0
   11.5518  -17.4600   28.2804 C   0  0  0  0  0  0  0  0  0  0  0  0
   10.5610  -18.4551   28.2093 O   0  0  0  0  0  0  0  0  0  0  0  0
   12.4813  -17.6985   29.0758 O   0  0  0  0  0  0  0  0  0  0  0  0
  2  1  1  6
  2  3  1  0
  3  4  1  0
  4  5  2  0
  5  6  1  0
  7  6  1  0
  8  7  2  0
  9  8  1  0
 10 11  1  0
 10  9  2  0
 11 12  2  0
 12  4  1  0
 12  7  1  0
 13 14  2  0
 13  2  1  0
 15 16  1  0
 16 17  2  0
 18 16  1  0
 19 18  1  6
 19 20  1  0
 20 13  1  0
 21 28  1  0
 21 19  1  0
 22 21  2  0
 23 24  1  0
 24 25  1  0
 25 26  1  1
 25 27  1  0
 27 28  1  6
 27 29  1  0
 29 30  1  0
 31 29  2  0
M  END
$$$$
