NCS.pdb
     RDKit          3D

 21 20  0  0  1  0  0  0  0  0999 V2000
   18.3958  -16.6874  -15.0205 N   0  0  0  0  0  0  0  0  0  0  0  0
   19.0019  -16.7286  -16.3123 C   0  0  0  0  0  0  0  0  0  0  0  0
   19.0616  -17.8329  -16.8783 O   0  0  0  0  0  0  0  0  0  0  0  0
   19.5264  -15.4956  -16.9244 C   0  0  0  0  0  0  0  0  0  0  0  0
   19.3154  -14.3605  -15.9545 C   0  0  2  0  0  0  0  0  0  0  0  0
   17.8981  -14.2347  -15.7204 N   0  0  0  0  0  0  0  0  0  0  0  0
   19.8548  -13.1205  -16.5817 C   0  0  0  0  0  0  0  0  0  0  0  0
   21.0599  -13.0191  -16.9138 O   0  0  0  0  0  0  0  0  0  0  0  0
   18.9943  -12.0338  -16.8090 N   0  0  0  0  0  0  0  0  0  0  0  0
   19.4621  -10.8445  -17.4502 C   0  0  1  0  0  0  0  0  0  0  0  0
   18.3629  -10.0719  -18.1428 C   0  0  0  0  0  0  0  0  0  0  0  0
   16.8539  -10.0049  -17.1539 S   0  0  0  0  0  0  0  0  0  0  0  0
   20.0305   -9.9496  -16.4090 C   0  0  0  0  0  0  0  0  0  0  0  0
   19.5062   -9.8800  -15.2809 O   0  0  0  0  0  0  0  0  0  0  0  0
   23.3771   -7.8994  -17.1611 O   0  0  0  0  0  0  0  0  0  0  0  0
   23.2661   -8.3207  -15.8489 C   0  0  0  0  0  0  0  0  0  0  0  0
   21.7705   -8.4078  -15.5422 C   0  0  2  0  0  0  0  0  0  0  0  0
   21.1768   -9.1435  -16.6398 N   0  0  0  0  0  0  0  0  0  0  0  0
   21.2670   -7.0385  -15.4405 C   0  0  0  0  0  0  0  0  0  0  0  0
   20.4792   -6.5621  -16.2961 O   0  0  0  0  0  0  0  0  0  0  0  0
   21.6537   -6.2281  -14.3845 O   0  0  0  0  0  0  0  0  0  0  0  0
  2  1  1  0
  2  4  1  0
  3  2  2  0
  5  6  1  6
  5  7  1  0
  5  4  1  0
  7  9  1  0
  7  8  2  0
  9 10  1  0
 10 13  1  0
 10 11  1  1
 12 11  1  0
 13 18  1  0
 13 14  2  0
 15 16  1  0
 17 16  1  6
 17 19  1  0
 18 17  1  0
 19 21  1  0
 20 19  2  0
M  END
$$$$
