NCS.pdb
     RDKit          3D

 21 20  0  0  1  0  0  0  0  0999 V2000
   17.1463  -12.3799  -17.4000 N   0  0  0  0  0  0  0  0  0  0  0  0
   17.5339  -12.6684  -16.0567 C   0  0  0  0  0  0  0  0  0  0  0  0
   16.9468  -13.6004  -15.4823 O   0  0  0  0  0  0  0  0  0  0  0  0
   18.5904  -11.8760  -15.4039 C   0  0  0  0  0  0  0  0  0  0  0  0
   19.1253  -10.8854  -16.4071 C   0  0  2  0  0  0  0  0  0  0  0  0
   20.0100  -11.5920  -17.3000 N   0  0  0  0  0  0  0  0  0  0  0  0
   19.8690   -9.8345  -15.6558 C   0  0  0  0  0  0  0  0  0  0  0  0
   19.3475   -9.2124  -14.6998 O   0  0  0  0  0  0  0  0  0  0  0  0
   21.1895   -9.5291  -16.0248 N   0  0  0  0  0  0  0  0  0  0  0  0
   21.9582   -8.5735  -15.2895 C   0  0  1  0  0  0  0  0  0  0  0  0
   23.4475   -8.8171  -15.3758 C   0  0  0  0  0  0  0  0  0  0  0  0
   23.9642  -10.2243  -14.3695 S   0  0  0  0  0  0  0  0  0  0  0  0
   21.7049   -7.2294  -15.8702 C   0  0  0  0  0  0  0  0  0  0  0  0
   21.7213   -7.0612  -17.1046 O   0  0  0  0  0  0  0  0  0  0  0  0
   20.4539   -4.2130  -13.5652 O   0  0  0  0  0  0  0  0  0  0  0  0
   20.0964   -4.1294  -14.8981 C   0  0  0  0  0  0  0  0  0  0  0  0
   21.2145   -4.8036  -15.6942 C   0  0  2  0  0  0  0  0  0  0  0  0
   21.4365   -6.0900  -15.0661 N   0  0  0  0  0  0  0  0  0  0  0  0
   22.3854   -3.9301  -15.6247 C   0  0  0  0  0  0  0  0  0  0  0  0
   23.4226   -4.2687  -15.0007 O   0  0  0  0  0  0  0  0  0  0  0  0
   22.3745   -2.6950  -16.2541 O   0  0  0  0  0  0  0  0  0  0  0  0
  2  1  1  0
  2  4  1  0
  3  2  2  0
  5  6  1  6
  5  7  1  0
  5  4  1  0
  7  9  1  0
  7  8  2  0
  9 10  1  0
 10 13  1  0
 10 11  1  6
 12 11  1  0
 13 18  1  0
 13 14  2  0
 15 16  1  0
 17 16  1  1
 17 19  1  0
 18 17  1  0
 19 21  1  0
 20 19  2  0
M  END
$$$$
