NCS.pdb
     RDKit          3D

 21 20  0  0  1  0  0  0  0  0999 V2000
   20.1567  -14.5691  -17.3585 N   0  0  0  0  0  0  0  0  0  0  0  0
   19.2239  -13.6692  -16.7603 C   0  0  0  0  0  0  0  0  0  0  0  0
   18.4560  -14.1332  -15.9010 O   0  0  0  0  0  0  0  0  0  0  0  0
   19.1960  -12.2532  -17.1657 C   0  0  0  0  0  0  0  0  0  0  0  0
   19.4146  -11.4064  -15.9373 C   0  0  2  0  0  0  0  0  0  0  0  0
   18.2828  -11.5918  -15.0634 N   0  0  0  0  0  0  0  0  0  0  0  0
   19.5103   -9.9851  -16.3763 C   0  0  0  0  0  0  0  0  0  0  0  0
   20.2257   -9.6407  -17.3470 O   0  0  0  0  0  0  0  0  0  0  0  0
   18.7815   -9.0015  -15.6874 N   0  0  0  0  0  0  0  0  0  0  0  0
   18.7678   -7.6441  -16.1366 C   0  0  1  0  0  0  0  0  0  0  0  0
   17.3935   -7.0167  -16.0884 C   0  0  0  0  0  0  0  0  0  0  0  0
   16.2414   -7.8185  -17.2239 S   0  0  0  0  0  0  0  0  0  0  0  0
   19.6391   -6.8483  -15.2336 C   0  0  0  0  0  0  0  0  0  0  0  0
   19.4893   -6.9067  -13.9981 O   0  0  0  0  0  0  0  0  0  0  0  0
   23.6345   -4.3153  -14.6490 O   0  0  0  0  0  0  0  0  0  0  0  0
   22.8491   -5.0728  -15.4981 C   0  0  0  0  0  0  0  0  0  0  0  0
   21.5128   -5.2849  -14.7854 C   0  0  2  0  0  0  0  0  0  0  0  0
   20.6666   -5.9974  -15.7206 N   0  0  0  0  0  0  0  0  0  0  0  0
   20.9891   -3.9636  -14.4411 C   0  0  0  0  0  0  0  0  0  0  0  0
   20.3012   -3.2964  -15.2543 O   0  0  0  0  0  0  0  0  0  0  0  0
   21.2443   -3.4135  -13.1946 O   0  0  0  0  0  0  0  0  0  0  0  0
  2  1  1  0
  2  4  1  0
  3  2  2  0
  5  6  1  1
  5  7  1  0
  5  4  1  0
  7  9  1  0
  7  8  2  0
  9 10  1  0
 10 13  1  0
 10 11  1  1
 12 11  1  0
 13 18  1  0
 13 14  2  0
 15 16  1  0
 17 16  1  6
 17 19  1  0
 18 17  1  0
 19 21  1  0
 20 19  2  0
M  END
$$$$
