NCS.pdb
     RDKit          3D

 21 20  0  0  1  0  0  0  0  0999 V2000
   17.4830  -13.3769  -12.8859 N   0  0  0  0  0  0  0  0  0  0  0  0
   16.2508  -12.9048  -13.4303 C   0  0  0  0  0  0  0  0  0  0  0  0
   15.5748  -13.7103  -14.0918 O   0  0  0  0  0  0  0  0  0  0  0  0
   15.8238  -11.5137  -13.2006 C   0  0  0  0  0  0  0  0  0  0  0  0
   14.8294  -11.5063  -12.0672 C   0  0  2  0  0  0  0  0  0  0  0  0
   13.6001  -12.0839  -12.5517 N   0  0  0  0  0  0  0  0  0  0  0  0
   14.6167  -10.0887  -11.6584 C   0  0  0  0  0  0  0  0  0  0  0  0
   13.8130   -9.3404  -12.2642 O   0  0  0  0  0  0  0  0  0  0  0  0
   15.3332   -9.5725  -10.5661 N   0  0  0  0  0  0  0  0  0  0  0  0
   15.0632   -8.2628  -10.0598 C   0  0  1  0  0  0  0  0  0  0  0  0
   15.1945   -8.1687   -8.5569 C   0  0  0  0  0  0  0  0  0  0  0  0
   15.0741   -6.4653   -7.9707 S   0  0  0  0  0  0  0  0  0  0  0  0
   16.0600   -7.3266  -10.6410 C   0  0  0  0  0  0  0  0  0  0  0  0
   17.2798   -7.5591  -10.5386 O   0  0  0  0  0  0  0  0  0  0  0  0
   17.3220   -4.2082  -13.8522 O   0  0  0  0  0  0  0  0  0  0  0  0
   16.3441   -5.0341  -13.3296 C   0  0  0  0  0  0  0  0  0  0  0  0
   16.7052   -5.2652  -11.8617 C   0  0  2  0  0  0  0  0  0  0  0  0
   15.6831   -6.1429  -11.3292 N   0  0  0  0  0  0  0  0  0  0  0  0
   16.7251   -3.9572  -11.2076 C   0  0  0  0  0  0  0  0  0  0  0  0
   15.7559   -3.5519  -10.5177 O   0  0  0  0  0  0  0  0  0  0  0  0
   17.8280   -3.1275  -11.3374 O   0  0  0  0  0  0  0  0  0  0  0  0
  2  1  1  0
  2  4  1  0
  3  2  2  0
  5  6  1  6
  5  7  1  0
  5  4  1  0
  7  9  1  0
  7  8  2  0
  9 10  1  0
 10 13  1  0
 10 11  1  1
 12 11  1  0
 13 18  1  0
 13 14  2  0
 15 16  1  0
 17 16  1  6
 17 19  1  0
 18 17  1  0
 19 21  1  0
 20 19  2  0
M  END
$$$$
