NCS.pdb
     RDKit          3D

 21 20  0  0  1  0  0  0  0  0999 V2000
   21.4037  -10.8723  -20.7519 N   0  0  0  0  0  0  0  0  0  0  0  0
   20.0017  -10.7407  -20.5175 C   0  0  0  0  0  0  0  0  0  0  0  0
   19.2469  -10.8607  -21.4969 O   0  0  0  0  0  0  0  0  0  0  0  0
   19.4995  -10.4734  -19.1586 C   0  0  0  0  0  0  0  0  0  0  0  0
   20.6828  -10.3741  -18.2293 C   0  0  2  0  0  0  0  0  0  0  0  0
   21.0830  -11.7136  -17.8758 N   0  0  0  0  0  0  0  0  0  0  0  0
   20.2479   -9.6207  -17.0187 C   0  0  0  0  0  0  0  0  0  0  0  0
   19.2764   -9.9970  -16.3206 O   0  0  0  0  0  0  0  0  0  0  0  0
   20.9417   -8.4576  -16.6459 N   0  0  0  0  0  0  0  0  0  0  0  0
   20.5742   -7.7233  -15.4754 C   0  0  1  0  0  0  0  0  0  0  0  0
   21.7396   -7.4611  -14.5491 C   0  0  0  0  0  0  0  0  0  0  0  0
   21.4138   -8.0369  -12.8692 S   0  0  0  0  0  0  0  0  0  0  0  0
   20.0547   -6.3986  -15.9034 C   0  0  0  0  0  0  0  0  0  0  0  0
   20.6638   -5.7272  -16.7582 O   0  0  0  0  0  0  0  0  0  0  0  0
   16.3817   -5.6857  -15.4044 O   0  0  0  0  0  0  0  0  0  0  0  0
   16.9473   -4.4250  -15.3562 C   0  0  0  0  0  0  0  0  0  0  0  0
   18.3800   -4.5682  -15.8714 C   0  0  2  0  0  0  0  0  0  0  0  0
   18.8620   -5.8397  -15.3721 N   0  0  0  0  0  0  0  0  0  0  0  0
   19.1430   -3.4318  -15.3562 C   0  0  0  0  0  0  0  0  0  0  0  0
   20.1019   -3.5903  -14.5594 O   0  0  0  0  0  0  0  0  0  0  0  0
   18.8194   -2.1401  -15.7417 O   0  0  0  0  0  0  0  0  0  0  0  0
  2  1  1  0
  2  4  1  0
  3  2  2  0
  5  6  1  1
  5  7  1  0
  5  4  1  0
  7  9  1  0
  7  8  2  0
  9 10  1  0
 10 13  1  0
 10 11  1  1
 12 11  1  0
 13 18  1  0
 13 14  2  0
 15 16  1  0
 17 16  1  1
 17 19  1  0
 18 17  1  0
 19 21  1  0
 20 19  2  0
M  END
$$$$
