NCS.pdb
     RDKit          3D

 21 20  0  0  1  0  0  0  0  0999 V2000
   19.6933  -10.5785  -14.6158 N   0  0  0  0  0  0  0  0  0  0  0  0
   19.3753   -9.2401  -14.9973 C   0  0  0  0  0  0  0  0  0  0  0  0
   20.0562   -8.7288  -15.9018 O   0  0  0  0  0  0  0  0  0  0  0  0
   18.2788   -8.5195  -14.3276 C   0  0  0  0  0  0  0  0  0  0  0  0
   17.6490   -9.4486  -13.3208 C   0  0  2  0  0  0  0  0  0  0  0  0
   16.9346  -10.4701  -14.0457 N   0  0  0  0  0  0  0  0  0  0  0  0
   16.7109   -8.6456  -12.4858 C   0  0  0  0  0  0  0  0  0  0  0  0
   15.5393   -8.4001  -12.8597 O   0  0  0  0  0  0  0  0  0  0  0  0
   17.1462   -8.1484  -11.2463 N   0  0  0  0  0  0  0  0  0  0  0  0
   16.2952   -7.3292  -10.4406 C   0  0  1  0  0  0  0  0  0  0  0  0
   16.5769   -7.4558   -8.9610 C   0  0  0  0  0  0  0  0  0  0  0  0
   15.5149   -6.3801   -7.9736 S   0  0  0  0  0  0  0  0  0  0  0  0
   16.5359   -5.9095  -10.8073 C   0  0  0  0  0  0  0  0  0  0  0  0
   17.6957   -5.4560  -10.8503 O   0  0  0  0  0  0  0  0  0  0  0  0
   15.2694   -2.0485  -13.1037 O   0  0  0  0  0  0  0  0  0  0  0  0
   14.8766   -3.2961  -12.6556 C   0  0  0  0  0  0  0  0  0  0  0  0
   15.7821   -3.6412  -11.4726 C   0  0  2  0  0  0  0  0  0  0  0  0
   15.4796   -5.0136  -11.1213 N   0  0  0  0  0  0  0  0  0  0  0  0
   15.4707   -2.6999  -10.3975 C   0  0  0  0  0  0  0  0  0  0  0  0
   14.5918   -2.9531   -9.5355 O   0  0  0  0  0  0  0  0  0  0  0  0
   16.1477   -1.4936  -10.3066 O   0  0  0  0  0  0  0  0  0  0  0  0
  2  1  1  0
  2  4  1  0
  3  2  2  0
  5  6  1  6
  5  7  1  0
  5  4  1  0
  7  9  1  0
  7  8  2  0
  9 10  1  0
 10 13  1  0
 10 11  1  1
 12 11  1  0
 13 18  1  0
 13 14  2  0
 15 16  1  0
 17 16  1  6
 17 19  1  0
 18 17  1  0
 19 21  1  0
 20 19  2  0
M  END
$$$$
