NCS.pdb
     RDKit          3D

 21 20  0  0  1  0  0  0  0  0999 V2000
   18.1524  -12.2745  -18.9431 N   0  0  0  0  0  0  0  0  0  0  0  0
   17.8170  -12.5149  -17.5765 C   0  0  0  0  0  0  0  0  0  0  0  0
   16.8659  -13.2814  -17.3500 O   0  0  0  0  0  0  0  0  0  0  0  0
   18.5854  -11.8665  -16.4998 C   0  0  0  0  0  0  0  0  0  0  0  0
   19.7621  -11.1574  -17.1211 C   0  0  2  0  0  0  0  0  0  0  0  0
   20.6479  -12.1581  -17.6626 N   0  0  0  0  0  0  0  0  0  0  0  0
   20.4437  -10.3808  -16.0466 C   0  0  0  0  0  0  0  0  0  0  0  0
   19.8788  -10.1264  -14.9562 O   0  0  0  0  0  0  0  0  0  0  0  0
   21.7538   -9.9194  -16.2563 N   0  0  0  0  0  0  0  0  0  0  0  0
   22.4325   -9.1495  -15.2607 C   0  0  1  0  0  0  0  0  0  0  0  0
   23.9294   -9.3595  -15.2664 C   0  0  0  0  0  0  0  0  0  0  0  0
   24.3837  -11.0193  -14.7202 S   0  0  0  0  0  0  0  0  0  0  0  0
   22.1960   -7.7107  -15.5465 C   0  0  0  0  0  0  0  0  0  0  0  0
   22.2800   -7.2757  -16.7110 O   0  0  0  0  0  0  0  0  0  0  0  0
   20.0073   -3.8015  -15.2269 O   0  0  0  0  0  0  0  0  0  0  0  0
   20.1856   -5.1311  -14.8923 C   0  0  0  0  0  0  0  0  0  0  0  0
   21.6946   -5.3775  -14.8674 C   0  0  2  0  0  0  0  0  0  0  0  0
   21.8686   -6.7753  -14.5292 N   0  0  0  0  0  0  0  0  0  0  0  0
   22.2658   -4.4774  -13.8662 C   0  0  0  0  0  0  0  0  0  0  0  0
   22.4943   -4.8606  -12.6912 O   0  0  0  0  0  0  0  0  0  0  0  0
   22.5706   -3.1664  -14.1977 O   0  0  0  0  0  0  0  0  0  0  0  0
  2  1  1  0
  2  4  1  0
  3  2  2  0
  5  6  1  1
  5  7  1  0
  5  4  1  0
  7  9  1  0
  7  8  2  0
  9 10  1  0
 10 13  1  0
 10 11  1  6
 12 11  1  0
 13 18  1  0
 13 14  2  0
 15 16  1  0
 17 16  1  1
 17 19  1  0
 18 17  1  0
 19 21  1  0
 20 19  2  0
M  END
$$$$
