NCS.pdb
     RDKit          3D

 21 20  0  0  1  0  0  0  0  0999 V2000
   20.8384  -12.0184  -18.9166 N   0  0  0  0  0  0  0  0  0  0  0  0
   20.0459  -10.9139  -19.3522 C   0  0  0  0  0  0  0  0  0  0  0  0
   19.6551  -10.9235  -20.5314 O   0  0  0  0  0  0  0  0  0  0  0  0
   19.7206   -9.8215  -18.4189 C   0  0  0  0  0  0  0  0  0  0  0  0
   20.4150  -10.0974  -17.1091 C   0  0  2  0  0  0  0  0  0  0  0  0
   19.7411  -11.2025  -16.4738 N   0  0  0  0  0  0  0  0  0  0  0  0
   20.3104   -8.8686  -16.2717 C   0  0  0  0  0  0  0  0  0  0  0  0
   19.2197   -8.4990  -15.7752 O   0  0  0  0  0  0  0  0  0  0  0  0
   21.4614   -8.1009  -16.0293 N   0  0  0  0  0  0  0  0  0  0  0  0
   21.4041   -6.9198  -15.2255 C   0  0  1  0  0  0  0  0  0  0  0  0
   22.3907   -6.9325  -14.0805 C   0  0  0  0  0  0  0  0  0  0  0  0
   22.4149   -5.3631  -13.1882 S   0  0  0  0  0  0  0  0  0  0  0  0
   21.7518   -5.7578  -16.0838 C   0  0  0  0  0  0  0  0  0  0  0  0
   22.8320   -5.7313  -16.7041 O   0  0  0  0  0  0  0  0  0  0  0  0
   20.2793   -1.8153  -18.3447 O   0  0  0  0  0  0  0  0  0  0  0  0
   19.9725   -2.7705  -17.3932 C   0  0  0  0  0  0  0  0  0  0  0  0
   21.2499   -3.5767  -17.1548 C   0  0  2  0  0  0  0  0  0  0  0  0
   20.8897   -4.6399  -16.2392 N   0  0  0  0  0  0  0  0  0  0  0  0
   22.2441   -2.6611  -16.5962 C   0  0  0  0  0  0  0  0  0  0  0  0
   22.2079   -2.3064  -15.3910 O   0  0  0  0  0  0  0  0  0  0  0  0
   23.2596   -2.1596  -17.3955 O   0  0  0  0  0  0  0  0  0  0  0  0
  2  1  1  0
  2  4  1  0
  3  2  2  0
  5  6  1  1
  5  7  1  0
  5  4  1  0
  7  9  1  0
  7  8  2  0
  9 10  1  0
 10 13  1  0
 10 11  1  1
 12 11  1  0
 13 18  1  0
 13 14  2  0
 15 16  1  0
 17 16  1  1
 17 19  1  0
 18 17  1  0
 19 21  1  0
 20 19  2  0
M  END
$$$$
