NCS.pdb
     RDKit          3D

 21 20  0  0  1  0  0  0  0  0999 V2000
   14.9901  -11.7667  -12.0390 N   0  0  0  0  0  0  0  0  0  0  0  0
   14.4242  -10.4602  -11.9368 C   0  0  0  0  0  0  0  0  0  0  0  0
   13.1859  -10.3790  -11.8784 O   0  0  0  0  0  0  0  0  0  0  0  0
   15.2980   -9.2746  -11.9040 C   0  0  0  0  0  0  0  0  0  0  0  0
   16.7186   -9.7408  -11.7081 C   0  0  2  0  0  0  0  0  0  0  0  0
   16.8849  -10.0848  -10.3177 N   0  0  0  0  0  0  0  0  0  0  0  0
   17.6218   -8.6150  -12.0808 C   0  0  0  0  0  0  0  0  0  0  0  0
   17.8052   -7.6358  -11.3190 O   0  0  0  0  0  0  0  0  0  0  0  0
   18.2875   -8.6472  -13.3173 N   0  0  0  0  0  0  0  0  0  0  0  0
   19.2126   -7.6203  -13.6835 C   0  0  1  0  0  0  0  0  0  0  0  0
   20.4791   -8.1579  -14.3093 C   0  0  0  0  0  0  0  0  0  0  0  0
   21.7130   -8.6029  -13.0686 S   0  0  0  0  0  0  0  0  0  0  0  0
   18.5628   -6.7517  -14.6989 C   0  0  0  0  0  0  0  0  0  0  0  0
   18.0730   -7.2457  -15.7325 O   0  0  0  0  0  0  0  0  0  0  0  0
   16.3044   -3.9126  -13.8365 O   0  0  0  0  0  0  0  0  0  0  0  0
   17.1459   -3.3779  -14.7944 C   0  0  0  0  0  0  0  0  0  0  0  0
   17.7636   -4.5597  -15.5430 C   0  0  2  0  0  0  0  0  0  0  0  0
   18.4676   -5.3427  -14.5482 N   0  0  0  0  0  0  0  0  0  0  0  0
   18.6539   -4.0098  -16.5647 C   0  0  0  0  0  0  0  0  0  0  0  0
   19.8936   -3.9212  -16.3783 O   0  0  0  0  0  0  0  0  0  0  0  0
   18.1413   -3.5697  -17.7752 O   0  0  0  0  0  0  0  0  0  0  0  0
  2  1  1  0
  2  4  1  0
  3  2  2  0
  5  6  1  1
  5  7  1  0
  5  4  1  0
  7  9  1  0
  7  8  2  0
  9 10  1  0
 10 13  1  0
 10 11  1  6
 12 11  1  0
 13 18  1  0
 13 14  2  0
 15 16  1  0
 17 16  1  1
 17 19  1  0
 18 17  1  0
 19 21  1  0
 20 19  2  0
M  END
$$$$
