NCS.pdb
     RDKit          3D

 21 20  0  0  1  0  0  0  0  0999 V2000
   23.4101  -19.9000  -17.3875 N   0  0  0  0  0  0  0  0  0  0  0  0
   24.2346  -19.3834  -16.3430 C   0  0  0  0  0  0  0  0  0  0  0  0
   25.2687  -18.7821  -16.6784 O   0  0  0  0  0  0  0  0  0  0  0  0
   23.8495  -19.5710  -14.9335 C   0  0  0  0  0  0  0  0  0  0  0  0
   22.5622  -20.3553  -14.8965 C   0  0  2  0  0  0  0  0  0  0  0  0
   21.4900  -19.4662  -15.2693 N   0  0  0  0  0  0  0  0  0  0  0  0
   22.3716  -20.8505  -13.5035 C   0  0  0  0  0  0  0  0  0  0  0  0
   23.2240  -21.5765  -12.9385 O   0  0  0  0  0  0  0  0  0  0  0  0
   21.2078  -20.4974  -12.8007 N   0  0  0  0  0  0  0  0  0  0  0  0
   20.9847  -20.9575  -11.4654 C   0  0  1  0  0  0  0  0  0  0  0  0
   20.6023  -19.8489  -10.5117 C   0  0  0  0  0  0  0  0  0  0  0  0
   19.2048  -18.8817  -11.1210 S   0  0  0  0  0  0  0  0  0  0  0  0
   19.8513  -21.9181  -11.4894 C   0  0  0  0  0  0  0  0  0  0  0  0
   18.9237  -21.7804  -12.3098 O   0  0  0  0  0  0  0  0  0  0  0  0
   17.6137  -25.5840   -9.3538 O   0  0  0  0  0  0  0  0  0  0  0  0
   18.6524  -24.6733   -9.2968 C   0  0  0  0  0  0  0  0  0  0  0  0
   18.5692  -23.8342  -10.5725 C   0  0  2  0  0  0  0  0  0  0  0  0
   19.7672  -23.0203  -10.5978 N   0  0  0  0  0  0  0  0  0  0  0  0
   17.3453  -23.0377  -10.4900 C   0  0  0  0  0  0  0  0  0  0  0  0
   16.2595  -23.4485  -10.9715 O   0  0  0  0  0  0  0  0  0  0  0  0
   17.3588  -21.7975   -9.8710 O   0  0  0  0  0  0  0  0  0  0  0  0
  2  1  1  0
  2  4  1  0
  3  2  2  0
  5  6  1  1
  5  7  1  0
  5  4  1  0
  7  9  1  0
  7  8  2  0
  9 10  1  0
 10 13  1  0
 10 11  1  1
 12 11  1  0
 13 18  1  0
 13 14  2  0
 15 16  1  0
 17 16  1  1
 17 19  1  0
 18 17  1  0
 19 21  1  0
 20 19  2  0
M  END
$$$$
