NCS.pdb
     RDKit          3D

 21 20  0  0  1  0  0  0  0  0999 V2000
   18.0296  -11.3316  -16.5342 N   0  0  0  0  0  0  0  0  0  0  0  0
   17.3151  -10.1285  -16.8170 C   0  0  0  0  0  0  0  0  0  0  0  0
   16.6610  -10.0894  -17.8724 O   0  0  0  0  0  0  0  0  0  0  0  0
   17.3699   -8.9957  -15.8769 C   0  0  0  0  0  0  0  0  0  0  0  0
   18.2726   -9.3769  -14.7308 C   0  0  2  0  0  0  0  0  0  0  0  0
   17.4938  -10.1402  -13.7875 N   0  0  0  0  0  0  0  0  0  0  0  0
   18.7678   -8.1182  -14.1042 C   0  0  0  0  0  0  0  0  0  0  0  0
   18.0921   -7.4955  -13.2507 O   0  0  0  0  0  0  0  0  0  0  0  0
   20.0241   -7.6120  -14.4765 N   0  0  0  0  0  0  0  0  0  0  0  0
   20.5074   -6.3754  -13.9458 C   0  0  1  0  0  0  0  0  0  0  0  0
   22.0000   -6.3748  -13.7075 C   0  0  0  0  0  0  0  0  0  0  0  0
   22.6103   -4.7438  -13.2308 S   0  0  0  0  0  0  0  0  0  0  0  0
   20.2267   -5.3045  -14.9369 C   0  0  0  0  0  0  0  0  0  0  0  0
   20.5513   -5.4481  -16.1312 O   0  0  0  0  0  0  0  0  0  0  0  0
   17.7435   -1.7531  -16.5671 O   0  0  0  0  0  0  0  0  0  0  0  0
   17.9374   -2.6681  -15.5489 C   0  0  0  0  0  0  0  0  0  0  0  0
   19.4184   -3.0481  -15.5783 C   0  0  2  0  0  0  0  0  0  0  0  0
   19.5872   -4.0868  -14.5828 N   0  0  0  0  0  0  0  0  0  0  0  0
   20.1835   -1.8401  -15.2714 C   0  0  0  0  0  0  0  0  0  0  0  0
   20.4981   -1.5427  -14.0915 O   0  0  0  0  0  0  0  0  0  0  0  0
   20.5822   -0.9877  -16.2893 O   0  0  0  0  0  0  0  0  0  0  0  0
  2  1  1  0
  2  4  1  0
  3  2  2  0
  5  6  1  1
  5  7  1  0
  5  4  1  0
  7  9  1  0
  7  8  2  0
  9 10  1  0
 10 13  1  0
 10 11  1  6
 12 11  1  0
 13 18  1  0
 13 14  2  0
 15 16  1  0
 17 16  1  1
 17 19  1  0
 18 17  1  0
 19 21  1  0
 20 19  2  0
M  END
$$$$
