NCS.pdb
     RDKit          3D

 21 20  0  0  1  0  0  0  0  0999 V2000
   17.9484  -10.8790  -20.4840 N   0  0  0  0  0  0  0  0  0  0  0  0
   18.9281  -10.0363  -19.8776 C   0  0  0  0  0  0  0  0  0  0  0  0
   19.8974   -9.6959  -20.5762 O   0  0  0  0  0  0  0  0  0  0  0  0
   18.7696   -9.6036  -18.4784 C   0  0  0  0  0  0  0  0  0  0  0  0
   20.0918   -9.7836  -17.7761 C   0  0  2  0  0  0  0  0  0  0  0  0
   20.1904  -11.1613  -17.3622 N   0  0  0  0  0  0  0  0  0  0  0  0
   20.1042   -8.8786  -16.5917 C   0  0  0  0  0  0  0  0  0  0  0  0
   19.2660   -8.9916  -15.6658 O   0  0  0  0  0  0  0  0  0  0  0  0
   21.0789   -7.8708  -16.5059 N   0  0  0  0  0  0  0  0  0  0  0  0
   21.0957   -6.9529  -15.4096 C   0  0  1  0  0  0  0  0  0  0  0  0
   22.3267   -7.0862  -14.5427 C   0  0  0  0  0  0  0  0  0  0  0  0
   22.4239   -5.7826  -13.2973 S   0  0  0  0  0  0  0  0  0  0  0  0
   21.1015   -5.5729  -15.9607 C   0  0  0  0  0  0  0  0  0  0  0  0
   22.0323   -5.1898  -16.6951 O   0  0  0  0  0  0  0  0  0  0  0  0
   18.6971   -1.5088  -16.7414 O   0  0  0  0  0  0  0  0  0  0  0  0
   18.7149   -2.7178  -16.0708 C   0  0  0  0  0  0  0  0  0  0  0  0
   20.0925   -3.3344  -16.3169 C   0  0  2  0  0  0  0  0  0  0  0  0
   20.0687   -4.6379  -15.6854 N   0  0  0  0  0  0  0  0  0  0  0  0
   21.0831   -2.4363  -15.7244 C   0  0  0  0  0  0  0  0  0  0  0  0
   21.2975   -2.4186  -14.4861 O   0  0  0  0  0  0  0  0  0  0  0  0
   21.8149   -1.5753  -16.5274 O   0  0  0  0  0  0  0  0  0  0  0  0
  2  1  1  0
  2  4  1  0
  3  2  2  0
  5  6  1  1
  5  7  1  0
  5  4  1  0
  7  9  1  0
  7  8  2  0
  9 10  1  0
 10 13  1  0
 10 11  1  6
 12 11  1  0
 13 18  1  0
 13 14  2  0
 15 16  1  0
 17 16  1  1
 17 19  1  0
 18 17  1  0
 19 21  1  0
 20 19  2  0
M  END
$$$$
