MPV.pdb
     RDKit          3D

 23 23  0  0  1  0  0  0  0  0999 V2000
   25.0375  -29.6310  -18.6864 C   0  0  0  0  0  0  0  0  0  0  0  0
   25.4060  -28.6166  -17.2265 S   0  0  0  0  0  0  0  0  0  0  0  0
   26.5861  -27.3100  -17.6120 C   0  0  0  0  0  0  0  0  0  0  0  0
   26.8201  -26.3886  -16.4388 C   0  0  0  0  0  0  0  0  0  0  0  0
   27.8795  -25.3689  -16.8800 C   0  0  2  0  0  0  0  0  0  0  0  0
   29.1250  -25.9330  -16.6225 N   0  0  0  0  0  0  0  0  0  0  0  0
   27.5670  -24.0722  -16.2484 C   0  0  0  0  0  0  0  0  0  0  0  0
   28.3088  -23.7865  -15.2449 O   0  0  0  0  0  0  0  0  0  0  0  0
   26.5594  -23.1705  -16.6514 N   0  0  0  0  0  0  0  0  0  0  0  0
   25.5551  -23.2656  -17.6818 C   0  0  0  0  0  0  0  0  0  0  0  0
   25.5239  -21.8590  -18.2464 C   0  0  0  0  0  0  0  0  0  0  0  0
   25.9464  -20.9391  -17.1518 C   0  0  0  0  0  0  0  0  0  0  0  0
   26.3263  -21.8641  -16.0425 C   0  0  1  0  0  0  0  0  0  0  0  0
   25.2371  -21.8853  -15.0591 C   0  0  0  0  0  0  0  0  0  0  0  0
   24.2051  -22.5434  -15.2988 O   0  0  0  0  0  0  0  0  0  0  0  0
   23.9501  -21.2627  -10.3106 C   0  0  0  0  0  0  0  0  0  0  0  0
   24.9522  -21.1330  -11.4303 C   0  0  2  0  0  0  0  0  0  0  0  0
   25.5173  -19.7161  -11.4267 C   0  0  0  0  0  0  0  0  0  0  0  0
   24.3531  -21.3811  -12.7811 C   0  0  2  0  0  0  0  0  0  0  0  0
   25.3229  -21.1782  -13.8420 N   0  0  0  0  0  0  0  0  0  0  0  0
   23.1990  -20.4429  -12.9346 C   0  0  0  0  0  0  0  0  0  0  0  0
   22.1504  -20.5428  -12.2848 O   0  0  0  0  0  0  0  0  0  0  0  0
   23.3229  -19.4103  -13.8571 O   0  0  0  0  0  0  0  0  0  0  0  0
  1  2  1  0
  3  4  1  0
  3  2  1  0
  5  4  1  0
  5  7  1  0
  5  6  1  1
  7  9  1  0
  8  7  2  0
  9 10  1  0
  9 13  1  0
 10 11  1  0
 12 11  1  0
 13 12  1  0
 14 15  2  0
 13 14  1  1
 17 16  1  1
 18 17  1  0
 19 17  1  0
 19 20  1  6
 20 14  1  0
 21 19  1  0
 22 21  2  0
 23 21  1  0
M  END
$$$$
