MPV.pdb
     RDKit          3D

 23 23  0  0  1  0  0  0  0  0999 V2000
   19.3704  -20.6627  -12.3183 C   0  0  0  0  0  0  0  0  0  0  0  0
   19.0458  -21.3956  -13.9473 S   0  0  0  0  0  0  0  0  0  0  0  0
   19.1161  -23.1957  -13.8866 C   0  0  0  0  0  0  0  0  0  0  0  0
   18.5021  -23.7479  -12.6224 C   0  0  0  0  0  0  0  0  0  0  0  0
   18.1302  -25.2090  -12.9115 C   0  0  2  0  0  0  0  0  0  0  0  0
   17.1757  -25.1974  -13.9237 N   0  0  0  0  0  0  0  0  0  0  0  0
   17.7726  -25.8581  -11.6352 C   0  0  0  0  0  0  0  0  0  0  0  0
   16.5521  -25.6908  -11.2869 O   0  0  0  0  0  0  0  0  0  0  0  0
   18.6367  -26.6117  -10.8130 N   0  0  0  0  0  0  0  0  0  0  0  0
   20.0539  -26.8634  -10.9016 C   0  0  0  0  0  0  0  0  0  0  0  0
   20.1594  -28.3183  -10.4886 C   0  0  0  0  0  0  0  0  0  0  0  0
   19.0089  -28.6003   -9.5833 C   0  0  0  0  0  0  0  0  0  0  0  0
   18.2182  -27.3337   -9.6150 C   0  0  1  0  0  0  0  0  0  0  0  0
   18.4865  -26.5853   -8.3814 C   0  0  0  0  0  0  0  0  0  0  0  0
   19.5077  -25.8733   -8.3042 O   0  0  0  0  0  0  0  0  0  0  0  0
   16.0247  -24.1372   -6.8309 C   0  0  0  0  0  0  0  0  0  0  0  0
   16.5104  -25.0833   -5.7616 C   0  0  2  0  0  0  0  0  0  0  0  0
   16.7583  -24.2953   -4.4792 C   0  0  0  0  0  0  0  0  0  0  0  0
   17.7903  -25.7708   -6.1283 C   0  0  2  0  0  0  0  0  0  0  0  0
   17.6179  -26.6476   -7.2722 N   0  0  0  0  0  0  0  0  0  0  0  0
   18.2368  -26.5471   -4.9309 C   0  0  0  0  0  0  0  0  0  0  0  0
   17.9295  -27.7297   -4.7339 O   0  0  0  0  0  0  0  0  0  0  0  0
   19.0373  -25.8959   -3.9994 O   0  0  0  0  0  0  0  0  0  0  0  0
  1  2  1  0
  3  4  1  0
  3  2  1  0
  5  4  1  0
  5  7  1  0
  5  6  1  6
  7  9  1  0
  8  7  2  0
  9 10  1  0
  9 13  1  0
 10 11  1  0
 12 11  1  0
 13 12  1  0
 14 15  2  0
 13 14  1  1
 17 16  1  6
 18 17  1  0
 19 17  1  0
 19 20  1  6
 20 14  1  0
 21 19  1  0
 22 21  2  0
 23 21  1  0
M  END
$$$$
