MPV.pdb
     RDKit          3D

 23 23  0  0  1  0  0  0  0  0999 V2000
   24.4787  -15.7688  -16.2209 C   0  0  0  0  0  0  0  0  0  0  0  0
   26.1595  -16.0035  -15.5759 S   0  0  0  0  0  0  0  0  0  0  0  0
   26.6553  -17.7352  -15.6415 C   0  0  0  0  0  0  0  0  0  0  0  0
   25.6175  -18.6488  -15.0346 C   0  0  0  0  0  0  0  0  0  0  0  0
   26.1251  -20.0850  -15.2249 C   0  0  2  0  0  0  0  0  0  0  0  0
   25.2265  -20.7299  -16.0690 N   0  0  0  0  0  0  0  0  0  0  0  0
   26.3624  -20.6738  -13.8927 C   0  0  0  0  0  0  0  0  0  0  0  0
   25.4077  -21.4148  -13.4703 O   0  0  0  0  0  0  0  0  0  0  0  0
   27.5087  -20.4873  -13.0915 N   0  0  0  0  0  0  0  0  0  0  0  0
   28.6839  -19.6750  -13.2878 C   0  0  0  0  0  0  0  0  0  0  0  0
   29.7940  -20.5641  -12.7629 C   0  0  0  0  0  0  0  0  0  0  0  0
   29.1886  -21.4584  -11.7350 C   0  0  0  0  0  0  0  0  0  0  0  0
   27.7319  -21.1358  -11.8026 C   0  0  1  0  0  0  0  0  0  0  0  0
   27.3928  -20.2693  -10.6677 C   0  0  0  0  0  0  0  0  0  0  0  0
   27.5285  -19.0341  -10.7753 O   0  0  0  0  0  0  0  0  0  0  0  0
   24.9492  -21.7451   -7.4533 C   0  0  0  0  0  0  0  0  0  0  0  0
   25.0086  -20.3391   -7.9957 C   0  0  2  0  0  0  0  0  0  0  0  0
   24.1105  -20.2448   -9.2251 C   0  0  0  0  0  0  0  0  0  0  0  0
   26.3900  -19.9309   -8.4084 C   0  0  2  0  0  0  0  0  0  0  0  0
   26.9147  -20.7953   -9.4498 N   0  0  0  0  0  0  0  0  0  0  0  0
   27.2536  -19.9892   -7.1892 C   0  0  0  0  0  0  0  0  0  0  0  0
   28.1098  -20.8634   -7.0035 O   0  0  0  0  0  0  0  0  0  0  0  0
   27.0760  -19.0057   -6.2228 O   0  0  0  0  0  0  0  0  0  0  0  0
  1  2  1  0
  3  4  1  0
  3  2  1  0
  5  4  1  0
  5  7  1  0
  5  6  1  1
  7  9  1  0
  8  7  2  0
  9 10  1  0
  9 13  1  0
 10 11  1  0
 12 11  1  0
 13 12  1  0
 14 15  2  0
 13 14  1  1
 17 16  1  6
 18 17  1  0
 19 17  1  0
 19 20  1  6
 20 14  1  0
 21 19  1  0
 22 21  2  0
 23 21  1  0
M  END
$$$$
