MPV.pdb
     RDKit          3D

 23 23  0  0  1  0  0  0  0  0999 V2000
   17.7768  -19.5677  -15.0512 C   0  0  0  0  0  0  0  0  0  0  0  0
   18.9751  -18.2853  -14.5870 S   0  0  0  0  0  0  0  0  0  0  0  0
   20.5226  -19.0066  -14.0093 C   0  0  0  0  0  0  0  0  0  0  0  0
   20.2962  -20.2181  -13.1369 C   0  0  0  0  0  0  0  0  0  0  0  0
   21.6821  -20.7803  -12.7903 C   0  0  2  0  0  0  0  0  0  0  0  0
   22.2139  -21.3127  -13.9606 N   0  0  0  0  0  0  0  0  0  0  0  0
   21.5413  -21.6778  -11.6273 C   0  0  0  0  0  0  0  0  0  0  0  0
   21.3697  -22.9089  -11.9340 O   0  0  0  0  0  0  0  0  0  0  0  0
   21.5801  -21.2950  -10.2699 N   0  0  0  0  0  0  0  0  0  0  0  0
   21.6794  -19.9963   -9.6508 C   0  0  0  0  0  0  0  0  0  0  0  0
   22.6049  -20.2568   -8.4787 C   0  0  0  0  0  0  0  0  0  0  0  0
   22.4354  -21.6882   -8.0976 C   0  0  0  0  0  0  0  0  0  0  0  0
   21.5166  -22.2245   -9.1458 C   0  0  1  0  0  0  0  0  0  0  0  0
   20.1687  -22.3299   -8.5750 C   0  0  0  0  0  0  0  0  0  0  0  0
   19.4363  -21.3210   -8.5375 O   0  0  0  0  0  0  0  0  0  0  0  0
   18.2017  -26.0784   -8.3520 C   0  0  0  0  0  0  0  0  0  0  0  0
   17.5624  -24.7150   -8.4343 C   0  0  2  0  0  0  0  0  0  0  0  0
   17.5567  -24.2583   -9.8898 C   0  0  0  0  0  0  0  0  0  0  0  0
   18.2924  -23.6790   -7.6348 C   0  0  2  0  0  0  0  0  0  0  0  0
   19.6729  -23.5470   -8.0636 N   0  0  0  0  0  0  0  0  0  0  0  0
   18.2228  -24.0944   -6.2001 C   0  0  0  0  0  0  0  0  0  0  0  0
   17.1876  -24.0350   -5.5244 O   0  0  0  0  0  0  0  0  0  0  0  0
   19.3869  -24.5697   -5.6070 O   0  0  0  0  0  0  0  0  0  0  0  0
  1  2  1  0
  3  4  1  0
  3  2  1  0
  5  4  1  0
  5  7  1  0
  5  6  1  6
  7  9  1  0
  8  7  2  0
  9 10  1  0
  9 13  1  0
 10 11  1  0
 12 11  1  0
 13 12  1  0
 14 15  2  0
 13 14  1  1
 17 16  1  6
 18 17  1  0
 19 17  1  0
 19 20  1  6
 20 14  1  0
 21 19  1  0
 22 21  2  0
 23 21  1  0
M  END
$$$$
