MPV.pdb
     RDKit          3D

 23 23  0  0  1  0  0  0  0  0999 V2000
   25.6803  -14.5024  -13.8535 C   0  0  0  0  0  0  0  0  0  0  0  0
   25.1851  -14.5754  -15.5987 S   0  0  0  0  0  0  0  0  0  0  0  0
   25.1894  -16.2691  -16.2152 C   0  0  0  0  0  0  0  0  0  0  0  0
   25.1391  -17.2829  -15.0972 C   0  0  0  0  0  0  0  0  0  0  0  0
   25.1190  -18.6693  -15.7563 C   0  0  2  0  0  0  0  0  0  0  0  0
   23.9656  -18.7389  -16.5313 N   0  0  0  0  0  0  0  0  0  0  0  0
   25.3033  -19.6865  -14.7031 C   0  0  0  0  0  0  0  0  0  0  0  0
   24.2116  -20.1986  -14.2731 O   0  0  0  0  0  0  0  0  0  0  0  0
   26.5351  -20.1132  -14.1634 N   0  0  0  0  0  0  0  0  0  0  0  0
   27.8806  -19.6392  -14.3742 C   0  0  0  0  0  0  0  0  0  0  0  0
   28.6857  -20.9236  -14.3972 C   0  0  0  0  0  0  0  0  0  0  0  0
   27.9472  -21.9173  -13.5665 C   0  0  0  0  0  0  0  0  0  0  0  0
   26.6851  -21.2050  -13.2056 C   0  0  1  0  0  0  0  0  0  0  0  0
   26.7965  -20.7309  -11.8212 C   0  0  0  0  0  0  0  0  0  0  0  0
   27.8928  -20.3091  -11.4021 O   0  0  0  0  0  0  0  0  0  0  0  0
   26.8762  -19.8562   -7.4526 C   0  0  0  0  0  0  0  0  0  0  0  0
   26.6536  -19.7316   -8.9390 C   0  0  2  0  0  0  0  0  0  0  0  0
   25.8746  -18.4499   -9.2168 C   0  0  0  0  0  0  0  0  0  0  0  0
   25.8694  -20.8740   -9.5093 C   0  0  2  0  0  0  0  0  0  0  0  0
   25.6925  -20.7383  -10.9437 N   0  0  0  0  0  0  0  0  0  0  0  0
   24.5458  -20.8954   -8.8141 C   0  0  0  0  0  0  0  0  0  0  0  0
   23.4713  -20.6844   -9.3908 O   0  0  0  0  0  0  0  0  0  0  0  0
   24.5354  -21.1674   -7.4508 O   0  0  0  0  0  0  0  0  0  0  0  0
  1  2  1  0
  3  4  1  0
  3  2  1  0
  5  4  1  0
  5  7  1  0
  5  6  1  1
  7  9  1  0
  8  7  2  0
  9 10  1  0
  9 13  1  0
 10 11  1  0
 12 11  1  0
 13 12  1  0
 14 15  2  0
 13 14  1  1
 17 16  1  1
 18 17  1  0
 19 17  1  0
 19 20  1  6
 20 14  1  0
 21 19  1  0
 22 21  2  0
 23 21  1  0
M  END
$$$$
