MPV.pdb
     RDKit          3D

 23 23  0  0  1  0  0  0  0  0999 V2000
   25.2978  -15.9442  -15.4476 C   0  0  0  0  0  0  0  0  0  0  0  0
   26.6284  -16.0228  -16.6803 S   0  0  0  0  0  0  0  0  0  0  0  0
   27.4357  -17.6344  -16.6776 C   0  0  0  0  0  0  0  0  0  0  0  0
   26.7859  -18.5959  -15.7115 C   0  0  0  0  0  0  0  0  0  0  0  0
   27.5165  -19.9376  -15.8622 C   0  0  2  0  0  0  0  0  0  0  0  0
   27.0257  -20.5455  -17.0134 N   0  0  0  0  0  0  0  0  0  0  0  0
   27.3983  -20.6759  -14.5898 C   0  0  0  0  0  0  0  0  0  0  0  0
   26.4239  -21.5056  -14.5546 O   0  0  0  0  0  0  0  0  0  0  0  0
   28.2402  -20.5392  -13.4659 N   0  0  0  0  0  0  0  0  0  0  0  0
   29.4148  -19.7308  -13.2507 C   0  0  0  0  0  0  0  0  0  0  0  0
   30.3126  -20.6550  -12.4519 C   0  0  0  0  0  0  0  0  0  0  0  0
   29.4234  -21.5903  -11.7052 C   0  0  0  0  0  0  0  0  0  0  0  0
   28.0574  -21.2498  -12.2037 C   0  0  1  0  0  0  0  0  0  0  0  0
   27.3803  -20.4340  -11.1888 C   0  0  0  0  0  0  0  0  0  0  0  0
   27.6029  -19.2079  -11.1369 O   0  0  0  0  0  0  0  0  0  0  0  0
   23.5297  -20.0115   -8.0978 C   0  0  0  0  0  0  0  0  0  0  0  0
   24.4251  -20.8745   -8.9510 C   0  0  2  0  0  0  0  0  0  0  0  0
   24.8492  -22.0973   -8.1436 C   0  0  0  0  0  0  0  0  0  0  0  0
   25.6696  -20.1663   -9.3926 C   0  0  2  0  0  0  0  0  0  0  0  0
   26.4789  -20.9993  -10.2633 N   0  0  0  0  0  0  0  0  0  0  0  0
   26.4308  -19.7951   -8.1603 C   0  0  0  0  0  0  0  0  0  0  0  0
   26.0994  -18.8686   -7.4097 O   0  0  0  0  0  0  0  0  0  0  0  0
   27.5663  -20.5362   -7.8535 O   0  0  0  0  0  0  0  0  0  0  0  0
  1  2  1  0
  3  4  1  0
  3  2  1  0
  5  4  1  0
  5  7  1  0
  5  6  1  6
  7  9  1  0
  8  7  2  0
  9 10  1  0
  9 13  1  0
 10 11  1  0
 12 11  1  0
 13 12  1  0
 14 15  2  0
 13 14  1  1
 17 16  1  1
 18 17  1  0
 19 17  1  0
 19 20  1  6
 20 14  1  0
 21 19  1  0
 22 21  2  0
 23 21  1  0
M  END
$$$$
