MPV.pdb
     RDKit          3D

 23 23  0  0  1  0  0  0  0  0999 V2000
   26.2717  -16.5983  -20.7474 C   0  0  0  0  0  0  0  0  0  0  0  0
   25.0466  -15.5835  -21.6223 S   0  0  0  0  0  0  0  0  0  0  0  0
   23.5947  -15.2747  -20.5997 C   0  0  0  0  0  0  0  0  0  0  0  0
   23.7720  -14.0700  -19.7069 C   0  0  0  0  0  0  0  0  0  0  0  0
   24.2678  -14.5919  -18.3510 C   0  0  2  0  0  0  0  0  0  0  0  0
   23.7517  -15.8739  -18.1906 N   0  0  0  0  0  0  0  0  0  0  0  0
   23.9454  -13.5859  -17.3204 C   0  0  0  0  0  0  0  0  0  0  0  0
   22.7792  -13.7162  -16.8084 O   0  0  0  0  0  0  0  0  0  0  0  0
   24.7884  -12.5431  -16.8815 N   0  0  0  0  0  0  0  0  0  0  0  0
   26.0757  -12.0980  -17.3551 C   0  0  0  0  0  0  0  0  0  0  0  0
   26.8061  -11.7652  -16.0690 C   0  0  0  0  0  0  0  0  0  0  0  0
   25.7716  -11.3878  -15.0639 C   0  0  0  0  0  0  0  0  0  0  0  0
   24.4825  -11.6425  -15.7738 C   0  0  1  0  0  0  0  0  0  0  0  0
   23.9364  -10.3571  -16.2248 C   0  0  0  0  0  0  0  0  0  0  0  0
   24.4377   -9.7900  -17.2161 O   0  0  0  0  0  0  0  0  0  0  0  0
   19.9238   -9.5309  -15.8074 C   0  0  0  0  0  0  0  0  0  0  0  0
   20.9020   -8.8884  -16.7587 C   0  0  2  0  0  0  0  0  0  0  0  0
   21.1821   -9.8533  -17.9066 C   0  0  0  0  0  0  0  0  0  0  0  0
   22.2125   -8.5570  -16.1122 C   0  0  2  0  0  0  0  0  0  0  0  0
   22.8536   -9.7390  -15.5657 N   0  0  0  0  0  0  0  0  0  0  0  0
   21.9361   -7.5598  -15.0330 C   0  0  0  0  0  0  0  0  0  0  0  0
   21.8726   -7.8564  -13.8331 O   0  0  0  0  0  0  0  0  0  0  0  0
   21.7427   -6.2356  -15.4097 O   0  0  0  0  0  0  0  0  0  0  0  0
  1  2  1  0
  3  4  1  0
  3  2  1  0
  5  4  1  0
  5  7  1  0
  5  6  1  1
  7  9  1  0
  8  7  2  0
  9 10  1  0
  9 13  1  0
 10 11  1  0
 12 11  1  0
 13 12  1  0
 14 15  2  0
 13 14  1  6
 17 16  1  1
 18 17  1  0
 19 17  1  0
 19 20  1  1
 20 14  1  0
 21 19  1  0
 22 21  2  0
 23 21  1  0
M  END
$$$$
