MPV.pdb
     RDKit          3D

 23 23  0  0  1  0  0  0  0  0999 V2000
   24.9268  -25.4613  -14.2650 C   0  0  0  0  0  0  0  0  0  0  0  0
   24.5225  -24.0767  -15.3677 S   0  0  0  0  0  0  0  0  0  0  0  0
   24.9986  -22.4963  -14.6437 C   0  0  0  0  0  0  0  0  0  0  0  0
   24.7516  -22.4538  -13.1546 C   0  0  0  0  0  0  0  0  0  0  0  0
   25.7993  -21.5033  -12.5582 C   0  0  2  0  0  0  0  0  0  0  0  0
   25.7391  -21.6413  -11.1750 N   0  0  0  0  0  0  0  0  0  0  0  0
   25.5825  -20.1584  -13.1260 C   0  0  0  0  0  0  0  0  0  0  0  0
   24.6068  -19.5187  -12.5989 O   0  0  0  0  0  0  0  0  0  0  0  0
   26.3359  -19.5580  -14.1568 N   0  0  0  0  0  0  0  0  0  0  0  0
   27.2764  -20.1168  -15.0963 C   0  0  0  0  0  0  0  0  0  0  0  0
   28.3469  -19.0459  -15.1717 C   0  0  0  0  0  0  0  0  0  0  0  0
   27.6871  -17.7457  -14.8602 C   0  0  0  0  0  0  0  0  0  0  0  0
   26.2936  -18.1378  -14.4930 C   0  0  1  0  0  0  0  0  0  0  0  0
   25.4132  -17.8526  -15.6321 C   0  0  0  0  0  0  0  0  0  0  0  0
   25.1825  -18.7473  -16.4698 O   0  0  0  0  0  0  0  0  0  0  0  0
   21.5754  -15.0903  -17.0731 C   0  0  0  0  0  0  0  0  0  0  0  0
   22.6935  -15.4230  -16.1173 C   0  0  2  0  0  0  0  0  0  0  0  0
   23.4612  -14.1460  -15.7904 C   0  0  0  0  0  0  0  0  0  0  0  0
   23.6698  -16.4095  -16.6820 C   0  0  2  0  0  0  0  0  0  0  0  0
   24.8159  -16.5875  -15.8092 N   0  0  0  0  0  0  0  0  0  0  0  0
   24.0991  -15.8946  -18.0185 C   0  0  0  0  0  0  0  0  0  0  0  0
   25.1206  -15.2174  -18.1902 O   0  0  0  0  0  0  0  0  0  0  0  0
   23.3017  -16.1992  -19.1158 O   0  0  0  0  0  0  0  0  0  0  0  0
  1  2  1  0
  3  4  1  0
  3  2  1  0
  5  4  1  0
  5  7  1  0
  5  6  1  1
  7  9  1  0
  8  7  2  0
  9 10  1  0
  9 13  1  0
 10 11  1  0
 12 11  1  0
 13 12  1  0
 14 15  2  0
 13 14  1  6
 17 16  1  6
 18 17  1  0
 19 17  1  0
 19 20  1  1
 20 14  1  0
 21 19  1  0
 22 21  2  0
 23 21  1  0
M  END
$$$$
