MPV.pdb
     RDKit          3D

 23 23  0  0  1  0  0  0  0  0999 V2000
   23.1545  -16.7012  -22.0507 C   0  0  0  0  0  0  0  0  0  0  0  0
   22.6979  -15.3934  -20.8770 S   0  0  0  0  0  0  0  0  0  0  0  0
   23.8209  -15.3503  -19.4679 C   0  0  0  0  0  0  0  0  0  0  0  0
   23.4578  -14.2654  -18.4824 C   0  0  0  0  0  0  0  0  0  0  0  0
   24.4965  -14.3259  -17.3535 C   0  0  2  0  0  0  0  0  0  0  0  0
   24.4610  -15.6150  -16.8313 N   0  0  0  0  0  0  0  0  0  0  0  0
   24.2450  -13.2020  -16.4307 C   0  0  0  0  0  0  0  0  0  0  0  0
   23.3491  -13.4401  -15.5478 O   0  0  0  0  0  0  0  0  0  0  0  0
   24.8891  -11.9469  -16.4515 N   0  0  0  0  0  0  0  0  0  0  0  0
   25.8938  -11.4083  -17.3347 C   0  0  0  0  0  0  0  0  0  0  0  0
   26.7899  -10.6357  -16.3869 C   0  0  0  0  0  0  0  0  0  0  0  0
   25.9449  -10.2127  -15.2337 C   0  0  0  0  0  0  0  0  0  0  0  0
   24.6300  -10.8680  -15.5025 C   0  0  1  0  0  0  0  0  0  0  0  0
   23.7055   -9.8589  -16.0325 C   0  0  0  0  0  0  0  0  0  0  0  0
   23.7858   -9.5204  -17.2302 O   0  0  0  0  0  0  0  0  0  0  0  0
   20.1801  -10.4064  -16.3032 C   0  0  0  0  0  0  0  0  0  0  0  0
   20.3166   -9.0809  -15.5970 C   0  0  2  0  0  0  0  0  0  0  0  0
   19.2664   -8.1189  -16.1431 C   0  0  0  0  0  0  0  0  0  0  0  0
   21.6607   -8.4491  -15.7967 C   0  0  2  0  0  0  0  0  0  0  0  0
   22.7218   -9.2558  -15.2219 N   0  0  0  0  0  0  0  0  0  0  0  0
   21.6171   -7.0993  -15.1549 C   0  0  0  0  0  0  0  0  0  0  0  0
   21.9508   -6.8935  -13.9810 O   0  0  0  0  0  0  0  0  0  0  0  0
   21.1779   -6.0298  -15.9268 O   0  0  0  0  0  0  0  0  0  0  0  0
  1  2  1  0
  3  4  1  0
  3  2  1  0
  5  4  1  0
  5  7  1  0
  5  6  1  1
  7  9  1  0
  8  7  2  0
  9 10  1  0
  9 13  1  0
 10 11  1  0
 12 11  1  0
 13 12  1  0
 14 15  2  0
 13 14  1  6
 17 16  1  6
 18 17  1  0
 19 17  1  0
 19 20  1  1
 20 14  1  0
 21 19  1  0
 22 21  2  0
 23 21  1  0
M  END
$$$$
