MPV.pdb
     RDKit          3D

 23 23  0  0  1  0  0  0  0  0999 V2000
   21.2252  -19.7182  -11.2006 C   0  0  0  0  0  0  0  0  0  0  0  0
   22.6871  -19.3528  -10.1879 S   0  0  0  0  0  0  0  0  0  0  0  0
   24.1976  -19.9472  -10.9715 C   0  0  0  0  0  0  0  0  0  0  0  0
   23.9535  -21.1658  -11.8291 C   0  0  0  0  0  0  0  0  0  0  0  0
   25.3085  -21.5627  -12.4317 C   0  0  2  0  0  0  0  0  0  0  0  0
   25.0758  -22.6212  -13.3043 N   0  0  0  0  0  0  0  0  0  0  0  0
   26.2626  -21.7784  -11.3267 C   0  0  0  0  0  0  0  0  0  0  0  0
   25.9831  -22.7815  -10.5820 O   0  0  0  0  0  0  0  0  0  0  0  0
   27.4033  -20.9968  -11.0464 N   0  0  0  0  0  0  0  0  0  0  0  0
   27.8820  -19.7691  -11.6323 C   0  0  0  0  0  0  0  0  0  0  0  0
   29.3816  -19.9864  -11.6805 C   0  0  0  0  0  0  0  0  0  0  0  0
   29.7226  -20.9279  -10.5759 C   0  0  0  0  0  0  0  0  0  0  0  0
   28.3914  -21.3134  -10.0193 C   0  0  1  0  0  0  0  0  0  0  0  0
   28.1722  -20.5669   -8.7749 C   0  0  0  0  0  0  0  0  0  0  0  0
   27.3682  -19.6134   -8.7635 O   0  0  0  0  0  0  0  0  0  0  0  0
   28.5352  -20.8188   -3.8063 C   0  0  0  0  0  0  0  0  0  0  0  0
   29.0923  -21.1518   -5.1676 C   0  0  2  0  0  0  0  0  0  0  0  0
   30.5289  -20.6457   -5.2515 C   0  0  0  0  0  0  0  0  0  0  0  0
   28.3203  -20.5183   -6.2849 C   0  0  2  0  0  0  0  0  0  0  0  0
   28.8487  -20.8976   -7.5826 N   0  0  0  0  0  0  0  0  0  0  0  0
   28.3987  -19.0372   -6.0955 C   0  0  0  0  0  0  0  0  0  0  0  0
   29.0541  -18.2910   -6.8340 O   0  0  0  0  0  0  0  0  0  0  0  0
   27.6952  -18.4828   -5.0323 O   0  0  0  0  0  0  0  0  0  0  0  0
  1  2  1  0
  3  4  1  0
  3  2  1  0
  5  4  1  0
  5  7  1  0
  5  6  1  1
  7  9  1  0
  8  7  2  0
  9 10  1  0
  9 13  1  0
 10 11  1  0
 12 11  1  0
 13 12  1  0
 14 15  2  0
 13 14  1  1
 17 16  1  1
 18 17  1  0
 19 17  1  0
 19 20  1  6
 20 14  1  0
 21 19  1  0
 22 21  2  0
 23 21  1  0
M  END
$$$$
