QIQ.pdb
     RDKit          3D

 27 26  0  0  1  0  0  0  0  0999 V2000
   26.9568  -15.3908  -14.7182 N   0  0  0  0  0  0  0  0  0  0  0  0
   26.8988  -15.0510  -16.0887 C   0  0  0  0  0  0  0  0  0  0  0  0
   27.4420  -13.9923  -16.4724 O   0  0  0  0  0  0  0  0  0  0  0  0
   26.2166  -15.9086  -17.0776 C   0  0  0  0  0  0  0  0  0  0  0  0
   25.6864  -17.1541  -16.4239 C   0  0  0  0  0  0  0  0  0  0  0  0
   26.8074  -18.1102  -16.0709 C   0  0  2  0  0  0  0  0  0  0  0  0
   27.3016  -18.6784  -17.3156 N   0  0  0  0  0  0  0  0  0  0  0  0
   26.2894  -19.2472  -15.2645 C   0  0  0  0  0  0  0  0  0  0  0  0
   25.8090  -20.2261  -15.9223 O   0  0  0  0  0  0  0  0  0  0  0  0
   29.1451  -21.0725  -11.2813 C   0  0  0  0  0  0  0  0  0  0  0  0
   28.2190  -20.9260  -12.4771 C   0  0  0  0  0  0  0  0  0  0  0  0
   26.7966  -20.7622  -12.0688 C   0  0  2  0  0  0  0  0  0  0  0  0
   26.2727  -21.9244  -11.2592 C   0  0  0  0  0  0  0  0  0  0  0  0
   25.8200  -20.5255  -13.1891 C   0  0  2  0  0  0  0  0  0  0  0  0
   26.3024  -19.2956  -13.8579 N   0  0  0  0  0  0  0  0  0  0  0  0
   24.4780  -20.2942  -12.6462 C   0  0  0  0  0  0  0  0  0  0  0  0
   24.2331  -19.3825  -11.8244 O   0  0  0  0  0  0  0  0  0  0  0  0
   19.6604  -17.9795  -14.4434 N   0  0  0  0  0  0  0  0  0  0  0  0
   20.7955  -18.3872  -15.1891 C   0  0  0  0  0  0  0  0  0  0  0  0
   20.8700  -18.0942  -16.4124 O   0  0  0  0  0  0  0  0  0  0  0  0
   21.8676  -19.1329  -14.5431 C   0  0  0  0  0  0  0  0  0  0  0  0
   21.7285  -19.4402  -13.1102 C   0  0  0  0  0  0  0  0  0  0  0  0
   21.9864  -20.8177  -12.6311 C   0  0  2  0  0  0  0  0  0  0  0  0
   23.3808  -21.1088  -13.0366 N   0  0  0  0  0  0  0  0  0  0  0  0
   21.0993  -21.8902  -13.0095 C   0  0  0  0  0  0  0  0  0  0  0  0
   21.4681  -22.7609  -13.8538 O   0  0  0  0  0  0  0  0  0  0  0  0
   19.8256  -22.0416  -12.4874 O   0  0  0  0  0  0  0  0  0  0  0  0
  2  1  1  0
  3  2  2  0
  4  2  1  0
  5  4  1  0
  6  7  1  6
  6  5  1  0
  8  6  1  0
  9  8  2  0
 10 11  1  0
 11 12  1  0
 12 14  1  0
 12 13  1  6
 14 15  1  1
 15  8  1  0
 16 14  1  0
 16 17  2  0
 18 19  1  0
 19 21  1  0
 20 19  2  0
 21 22  1  0
 23 22  1  6
 23 24  1  0
 24 16  1  0
 25 23  1  0
 26 25  2  0
 27 25  1  0
M  END
$$$$
