QIQ.pdb
     RDKit          3D

 27 26  0  0  1  0  0  0  0  0999 V2000
   17.6708  -13.8222  -14.2446 N   0  0  0  0  0  0  0  0  0  0  0  0
   16.8723  -14.8504  -14.7943 C   0  0  0  0  0  0  0  0  0  0  0  0
   16.8048  -15.9473  -14.1982 O   0  0  0  0  0  0  0  0  0  0  0  0
   16.1176  -14.6664  -16.0494 C   0  0  0  0  0  0  0  0  0  0  0  0
   16.3452  -13.2898  -16.6086 C   0  0  0  0  0  0  0  0  0  0  0  0
   15.1330  -12.4047  -16.4022 C   0  0  2  0  0  0  0  0  0  0  0  0
   14.1468  -12.7786  -17.4042 N   0  0  0  0  0  0  0  0  0  0  0  0
   15.4763  -10.9808  -16.6590 C   0  0  0  0  0  0  0  0  0  0  0  0
   15.9784  -10.7238  -17.8007 O   0  0  0  0  0  0  0  0  0  0  0  0
   12.2625   -7.2718  -16.2397 C   0  0  0  0  0  0  0  0  0  0  0  0
   13.6319   -7.5727  -16.8259 C   0  0  0  0  0  0  0  0  0  0  0  0
   14.6869   -7.6474  -15.7780 C   0  0  2  0  0  0  0  0  0  0  0  0
   15.2995   -6.3056  -15.4542 C   0  0  0  0  0  0  0  0  0  0  0  0
   15.8202   -8.5964  -16.0607 C   0  0  2  0  0  0  0  0  0  0  0  0
   15.2813   -9.9368  -15.7354 N   0  0  0  0  0  0  0  0  0  0  0  0
   16.9563   -8.2986  -15.1833 C   0  0  0  0  0  0  0  0  0  0  0  0
   16.8749   -8.3539  -13.9356 O   0  0  0  0  0  0  0  0  0  0  0  0
   22.0366  -11.0424  -16.0304 N   0  0  0  0  0  0  0  0  0  0  0  0
   22.4999  -10.1080  -15.0698 C   0  0  0  0  0  0  0  0  0  0  0  0
   23.6531  -10.2442  -14.5802 O   0  0  0  0  0  0  0  0  0  0  0  0
   21.6510   -8.9975  -14.6585 C   0  0  0  0  0  0  0  0  0  0  0  0
   20.3212   -8.8789  -15.2788 C   0  0  0  0  0  0  0  0  0  0  0  0
   19.4278   -7.7662  -14.8819 C   0  0  2  0  0  0  0  0  0  0  0  0
   18.2186   -7.9287  -15.7215 N   0  0  0  0  0  0  0  0  0  0  0  0
   19.9092   -6.4071  -14.9193 C   0  0  0  0  0  0  0  0  0  0  0  0
   19.7134   -5.6846  -15.9424 O   0  0  0  0  0  0  0  0  0  0  0  0
   20.5911   -5.8143  -13.8699 O   0  0  0  0  0  0  0  0  0  0  0  0
  2  1  1  0
  3  2  2  0
  4  2  1  0
  5  4  1  0
  6  7  1  6
  6  5  1  0
  8  6  1  0
  9  8  2  0
 10 11  1  0
 11 12  1  0
 12 14  1  0
 12 13  1  6
 14 15  1  1
 15  8  1  0
 16 14  1  0
 16 17  2  0
 18 19  1  0
 19 21  1  0
 20 19  2  0
 21 22  1  0
 23 22  1  6
 23 24  1  0
 24 16  1  0
 25 23  1  0
 26 25  2  0
 27 25  1  0
M  END
$$$$
