QIQ.pdb
     RDKit          3D

 27 26  0  0  1  0  0  0  0  0999 V2000
   19.2165  -20.3600  -11.7719 N   0  0  0  0  0  0  0  0  0  0  0  0
   19.4215  -21.5893  -12.4380 C   0  0  0  0  0  0  0  0  0  0  0  0
   18.5135  -22.4485  -12.4141 O   0  0  0  0  0  0  0  0  0  0  0  0
   20.6744  -21.8870  -13.1595 C   0  0  0  0  0  0  0  0  0  0  0  0
   21.6335  -20.7342  -13.0555 C   0  0  0  0  0  0  0  0  0  0  0  0
   22.8441  -21.0992  -12.2208 C   0  0  2  0  0  0  0  0  0  0  0  0
   22.6012  -20.6175  -10.8698 N   0  0  0  0  0  0  0  0  0  0  0  0
   24.0519  -20.3848  -12.7126 C   0  0  0  0  0  0  0  0  0  0  0  0
   23.9509  -19.1193  -12.8132 O   0  0  0  0  0  0  0  0  0  0  0  0
   28.7167  -21.4344  -10.6589 C   0  0  0  0  0  0  0  0  0  0  0  0
   27.5144  -20.7540  -11.2921 C   0  0  0  0  0  0  0  0  0  0  0  0
   27.5945  -20.7426  -12.7788 C   0  0  2  0  0  0  0  0  0  0  0  0
   28.8135  -20.0217  -13.3032 C   0  0  0  0  0  0  0  0  0  0  0  0
   26.3991  -20.1697  -13.4915 C   0  0  2  0  0  0  0  0  0  0  0  0
   25.2615  -21.0145  -13.0612 N   0  0  0  0  0  0  0  0  0  0  0  0
   26.5750  -20.2860  -14.9422 C   0  0  0  0  0  0  0  0  0  0  0  0
   26.6669  -21.3914  -15.5219 O   0  0  0  0  0  0  0  0  0  0  0  0
   22.6235  -18.3925  -18.5273 N   0  0  0  0  0  0  0  0  0  0  0  0
   23.6326  -18.5369  -19.5130 C   0  0  0  0  0  0  0  0  0  0  0  0
   23.3322  -18.4057  -20.7298 O   0  0  0  0  0  0  0  0  0  0  0  0
   25.0050  -18.8281  -19.1198 C   0  0  0  0  0  0  0  0  0  0  0  0
   25.3100  -18.9016  -17.6815 C   0  0  0  0  0  0  0  0  0  0  0  0
   26.6924  -19.2029  -17.2435 C   0  0  2  0  0  0  0  0  0  0  0  0
   26.6495  -19.1295  -15.7648 N   0  0  0  0  0  0  0  0  0  0  0  0
   27.7976  -18.4411  -17.7710 C   0  0  0  0  0  0  0  0  0  0  0  0
   27.9967  -17.2491  -17.3879 O   0  0  0  0  0  0  0  0  0  0  0  0
   28.6936  -18.9460  -18.6983 O   0  0  0  0  0  0  0  0  0  0  0  0
  2  1  1  0
  3  2  2  0
  4  2  1  0
  5  4  1  0
  6  7  1  1
  6  5  1  0
  8  6  1  0
  9  8  2  0
 10 11  1  0
 11 12  1  0
 12 14  1  0
 12 13  1  1
 14 15  1  1
 15  8  1  0
 16 14  1  0
 16 17  2  0
 18 19  1  0
 19 21  1  0
 20 19  2  0
 21 22  1  0
 23 22  1  6
 23 24  1  0
 24 16  1  0
 25 23  1  0
 26 25  2  0
 27 25  1  0
M  END
$$$$
