QIQ.pdb
     RDKit          3D

 27 26  0  0  1  0  0  0  0  0999 V2000
   25.7151  -19.0243  -18.8731 N   0  0  0  0  0  0  0  0  0  0  0  0
   26.4202  -18.3556  -17.8471 C   0  0  0  0  0  0  0  0  0  0  0  0
   26.4125  -17.1056  -17.8240 O   0  0  0  0  0  0  0  0  0  0  0  0
   27.1636  -19.0895  -16.8043 C   0  0  0  0  0  0  0  0  0  0  0  0
   26.2161  -19.7599  -15.8491 C   0  0  0  0  0  0  0  0  0  0  0  0
   26.9640  -20.4658  -14.7367 C   0  0  2  0  0  0  0  0  0  0  0  0
   27.6853  -21.5779  -15.3360 N   0  0  0  0  0  0  0  0  0  0  0  0
   26.0110  -21.0581  -13.7608 C   0  0  0  0  0  0  0  0  0  0  0  0
   25.5468  -22.2059  -14.0587 O   0  0  0  0  0  0  0  0  0  0  0  0
   26.7941  -20.2037   -8.5057 C   0  0  0  0  0  0  0  0  0  0  0  0
   26.3716  -21.0752   -9.6766 C   0  0  0  0  0  0  0  0  0  0  0  0
   25.0782  -20.6334  -10.2672 C   0  0  2  0  0  0  0  0  0  0  0  0
   23.8917  -20.9106   -9.3751 C   0  0  0  0  0  0  0  0  0  0  0  0
   24.7548  -21.1977  -11.6244 C   0  0  2  0  0  0  0  0  0  0  0  0
   25.6088  -20.4359  -12.5641 N   0  0  0  0  0  0  0  0  0  0  0  0
   23.3435  -20.9626  -11.9436 C   0  0  0  0  0  0  0  0  0  0  0  0
   22.4131  -21.5637  -11.3609 O   0  0  0  0  0  0  0  0  0  0  0  0
   20.7882  -22.4436  -16.6691 N   0  0  0  0  0  0  0  0  0  0  0  0
   19.6869  -21.8259  -16.0241 C   0  0  0  0  0  0  0  0  0  0  0  0
   18.5170  -22.0823  -16.4160 O   0  0  0  0  0  0  0  0  0  0  0  0
   19.9079  -20.9081  -14.9142 C   0  0  0  0  0  0  0  0  0  0  0  0
   21.2859  -20.7342  -14.4265 C   0  0  0  0  0  0  0  0  0  0  0  0
   21.5541  -19.7860  -13.3207 C   0  0  2  0  0  0  0  0  0  0  0  0
   22.9662  -20.0268  -12.9445 N   0  0  0  0  0  0  0  0  0  0  0  0
   20.7002  -19.7743  -12.1584 C   0  0  0  0  0  0  0  0  0  0  0  0
   20.6298  -20.7901  -11.4032 O   0  0  0  0  0  0  0  0  0  0  0  0
   19.9276  -18.6840  -11.7951 O   0  0  0  0  0  0  0  0  0  0  0  0
  2  1  1  0
  3  2  2  0
  4  2  1  0
  5  4  1  0
  6  7  1  6
  6  5  1  0
  8  6  1  0
  9  8  2  0
 10 11  1  0
 11 12  1  0
 12 14  1  0
 12 13  1  1
 14 15  1  6
 15  8  1  0
 16 14  1  0
 16 17  2  0
 18 19  1  0
 19 21  1  0
 20 19  2  0
 21 22  1  0
 23 22  1  6
 23 24  1  0
 24 16  1  0
 25 23  1  0
 26 25  2  0
 27 25  1  0
M  END
$$$$
