QIQ.pdb
     RDKit          3D

 27 26  0  0  1  0  0  0  0  0999 V2000
   29.5091  -19.8896  -16.6818 N   0  0  0  0  0  0  0  0  0  0  0  0
   28.2012  -19.4277  -16.9518 C   0  0  0  0  0  0  0  0  0  0  0  0
   27.8789  -18.2769  -16.5847 O   0  0  0  0  0  0  0  0  0  0  0  0
   27.2072  -20.2637  -17.6531 C   0  0  0  0  0  0  0  0  0  0  0  0
   26.1158  -20.6924  -16.7125 C   0  0  0  0  0  0  0  0  0  0  0  0
   26.6634  -21.5456  -15.5867 C   0  0  2  0  0  0  0  0  0  0  0  0
   26.9085  -22.8735  -16.1280 N   0  0  0  0  0  0  0  0  0  0  0  0
   25.6472  -21.7086  -14.5134 C   0  0  0  0  0  0  0  0  0  0  0  0
   24.8004  -22.6445  -14.6825 O   0  0  0  0  0  0  0  0  0  0  0  0
   26.7731  -20.6899   -9.3170 C   0  0  0  0  0  0  0  0  0  0  0  0
   26.1979  -21.3693  -10.5486 C   0  0  0  0  0  0  0  0  0  0  0  0
   25.0026  -20.6557  -11.0766 C   0  0  2  0  0  0  0  0  0  0  0  0
   23.8422  -20.6438  -10.1103 C   0  0  0  0  0  0  0  0  0  0  0  0
   24.4767  -21.1531  -12.3960 C   0  0  2  0  0  0  0  0  0  0  0  0
   25.5755  -20.9080  -13.3579 N   0  0  0  0  0  0  0  0  0  0  0  0
   23.2968  -20.3781  -12.7916 C   0  0  0  0  0  0  0  0  0  0  0  0
   23.3709  -19.1890  -13.1751 O   0  0  0  0  0  0  0  0  0  0  0  0
   22.5274  -18.4461  -16.8568 N   0  0  0  0  0  0  0  0  0  0  0  0
   21.3056  -19.1212  -17.1054 C   0  0  0  0  0  0  0  0  0  0  0  0
   20.8495  -19.1628  -18.2794 O   0  0  0  0  0  0  0  0  0  0  0  0
   20.5887  -19.7657  -16.0129 C   0  0  0  0  0  0  0  0  0  0  0  0
   21.3809  -20.4206  -14.9591 C   0  0  0  0  0  0  0  0  0  0  0  0
   20.8727  -20.4367  -13.5680 C   0  0  2  0  0  0  0  0  0  0  0  0
   21.9979  -20.9539  -12.7557 N   0  0  0  0  0  0  0  0  0  0  0  0
   19.6452  -21.1275  -13.2572 C   0  0  0  0  0  0  0  0  0  0  0  0
   18.5248  -20.5860  -13.4990 O   0  0  0  0  0  0  0  0  0  0  0  0
   19.6076  -22.3934  -12.6969 O   0  0  0  0  0  0  0  0  0  0  0  0
  2  1  1  0
  3  2  2  0
  4  2  1  0
  5  4  1  0
  6  7  1  6
  6  5  1  0
  8  6  1  0
  9  8  2  0
 10 11  1  0
 11 12  1  0
 12 14  1  0
 12 13  1  1
 14 15  1  6
 15  8  1  0
 16 14  1  0
 16 17  2  0
 18 19  1  0
 19 21  1  0
 20 19  2  0
 21 22  1  0
 23 22  1  6
 23 24  1  0
 24 16  1  0
 25 23  1  0
 26 25  2  0
 27 25  1  0
M  END
$$$$
