QIQ.pdb
     RDKit          3D

 27 26  0  0  1  0  0  0  0  0999 V2000
   18.4984  -25.8859   -6.5697 N   0  0  0  0  0  0  0  0  0  0  0  0
   18.7146  -26.4387   -7.8521 C   0  0  0  0  0  0  0  0  0  0  0  0
   18.8080  -27.6802   -7.9671 O   0  0  0  0  0  0  0  0  0  0  0  0
   18.8330  -25.5939   -9.0567 C   0  0  0  0  0  0  0  0  0  0  0  0
   18.6024  -24.1482   -8.7158 C   0  0  0  0  0  0  0  0  0  0  0  0
   19.7194  -23.6019   -7.8503 C   0  0  2  0  0  0  0  0  0  0  0  0
   19.1189  -23.1345   -6.6104 N   0  0  0  0  0  0  0  0  0  0  0  0
   20.3431  -22.4138   -8.4911 C   0  0  0  0  0  0  0  0  0  0  0  0
   19.5900  -21.3973   -8.6369 O   0  0  0  0  0  0  0  0  0  0  0  0
   25.4329  -20.7876   -7.5665 C   0  0  0  0  0  0  0  0  0  0  0  0
   23.9352  -20.8271   -7.8209 C   0  0  0  0  0  0  0  0  0  0  0  0
   23.6157  -21.0386   -9.2596 C   0  0  2  0  0  0  0  0  0  0  0  0
   24.2224  -19.9921  -10.1637 C   0  0  0  0  0  0  0  0  0  0  0  0
   22.1512  -21.1214   -9.5966 C   0  0  2  0  0  0  0  0  0  0  0  0
   21.6790  -22.3567   -8.9304 N   0  0  0  0  0  0  0  0  0  0  0  0
   21.9751  -21.2483  -11.0465 C   0  0  0  0  0  0  0  0  0  0  0  0
   22.3316  -22.2668  -11.6805 O   0  0  0  0  0  0  0  0  0  0  0  0
   18.6136  -16.9937  -14.3401 N   0  0  0  0  0  0  0  0  0  0  0  0
   19.3204  -17.6565  -15.3753 C   0  0  0  0  0  0  0  0  0  0  0  0
   19.1599  -17.2865  -16.5692 O   0  0  0  0  0  0  0  0  0  0  0  0
   20.2282  -18.7513  -15.0586 C   0  0  0  0  0  0  0  0  0  0  0  0
   20.4016  -19.1164  -13.6431 C   0  0  0  0  0  0  0  0  0  0  0  0
   21.3010  -20.2370  -13.2838 C   0  0  2  0  0  0  0  0  0  0  0  0
   21.3823  -20.2030  -11.8053 N   0  0  0  0  0  0  0  0  0  0  0  0
   22.6132  -20.3261  -13.8757 C   0  0  0  0  0  0  0  0  0  0  0  0
   23.5934  -19.7093  -13.3601 O   0  0  0  0  0  0  0  0  0  0  0  0
   22.8855  -21.0739  -15.0090 O   0  0  0  0  0  0  0  0  0  0  0  0
  2  1  1  0
  3  2  2  0
  4  2  1  0
  5  4  1  0
  6  7  1  1
  6  5  1  0
  8  6  1  0
  9  8  2  0
 10 11  1  0
 11 12  1  0
 12 14  1  0
 12 13  1  6
 14 15  1  1
 15  8  1  0
 16 14  1  0
 16 17  2  0
 18 19  1  0
 19 21  1  0
 20 19  2  0
 21 22  1  0
 23 22  1  6
 23 24  1  0
 24 16  1  0
 25 23  1  0
 26 25  2  0
 27 25  1  0
M  END
$$$$
