QIQ.pdb
     RDKit          3D

 27 26  0  0  1  0  0  0  0  0999 V2000
   26.5450  -21.7022  -18.9929 N   0  0  0  0  0  0  0  0  0  0  0  0
   27.6793  -20.8924  -18.7601 C   0  0  0  0  0  0  0  0  0  0  0  0
   28.4786  -20.6874  -19.6994 O   0  0  0  0  0  0  0  0  0  0  0  0
   27.9466  -20.2831  -17.4425 C   0  0  0  0  0  0  0  0  0  0  0  0
   26.7948  -20.5181  -16.5056 C   0  0  0  0  0  0  0  0  0  0  0  0
   27.2432  -21.2438  -15.2535 C   0  0  2  0  0  0  0  0  0  0  0  0
   27.6724  -22.5750  -15.6534 N   0  0  0  0  0  0  0  0  0  0  0  0
   26.1000  -21.4314  -14.3212 C   0  0  0  0  0  0  0  0  0  0  0  0
   25.2630  -22.3373  -14.6380 O   0  0  0  0  0  0  0  0  0  0  0  0
   26.8183  -20.5007   -9.1035 C   0  0  0  0  0  0  0  0  0  0  0  0
   26.2861  -21.2292  -10.3263 C   0  0  0  0  0  0  0  0  0  0  0  0
   25.1079  -20.5404  -10.9214 C   0  0  2  0  0  0  0  0  0  0  0  0
   23.8697  -20.6304  -10.0617 C   0  0  0  0  0  0  0  0  0  0  0  0
   24.7212  -20.9885  -12.3051 C   0  0  2  0  0  0  0  0  0  0  0  0
   25.9020  -20.6839  -13.1452 N   0  0  0  0  0  0  0  0  0  0  0  0
   23.5691  -20.2165  -12.7802 C   0  0  0  0  0  0  0  0  0  0  0  0
   23.6830  -19.0687  -13.2660 O   0  0  0  0  0  0  0  0  0  0  0  0
   22.8521  -20.7322  -17.6073 N   0  0  0  0  0  0  0  0  0  0  0  0
   21.4989  -20.3287  -17.4781 C   0  0  0  0  0  0  0  0  0  0  0  0
   20.8172  -20.1089  -18.5149 O   0  0  0  0  0  0  0  0  0  0  0  0
   20.9023  -20.1764  -16.1576 C   0  0  0  0  0  0  0  0  0  0  0  0
   21.7455  -20.4532  -14.9832 C   0  0  0  0  0  0  0  0  0  0  0  0
   21.1696  -20.3238  -13.6248 C   0  0  2  0  0  0  0  0  0  0  0  0
   22.2529  -20.7478  -12.7082 N   0  0  0  0  0  0  0  0  0  0  0  0
   19.9274  -20.9825  -13.3030 C   0  0  0  0  0  0  0  0  0  0  0  0
   18.8560  -20.3139  -13.1925 O   0  0  0  0  0  0  0  0  0  0  0  0
   19.8219  -22.3491  -13.1056 O   0  0  0  0  0  0  0  0  0  0  0  0
  2  1  1  0
  3  2  2  0
  4  2  1  0
  5  4  1  0
  6  7  1  6
  6  5  1  0
  8  6  1  0
  9  8  2  0
 10 11  1  0
 11 12  1  0
 12 14  1  0
 12 13  1  1
 14 15  1  6
 15  8  1  0
 16 14  1  0
 16 17  2  0
 18 19  1  0
 19 21  1  0
 20 19  2  0
 21 22  1  0
 23 22  1  6
 23 24  1  0
 24 16  1  0
 25 23  1  0
 26 25  2  0
 27 25  1  0
M  END
$$$$
