QIQ.pdb
     RDKit          3D

 27 26  0  0  1  0  0  0  0  0999 V2000
   26.5495  -20.6494  -17.1790 N   0  0  0  0  0  0  0  0  0  0  0  0
   27.9549  -20.5014  -17.1881 C   0  0  0  0  0  0  0  0  0  0  0  0
   28.4911  -19.8801  -18.1312 O   0  0  0  0  0  0  0  0  0  0  0  0
   28.8056  -21.0585  -16.1182 C   0  0  0  0  0  0  0  0  0  0  0  0
   27.9637  -21.6979  -15.0495 C   0  0  0  0  0  0  0  0  0  0  0  0
   27.1707  -20.6614  -14.2801 C   0  0  2  0  0  0  0  0  0  0  0  0
   28.1233  -19.7219  -13.7089 N   0  0  0  0  0  0  0  0  0  0  0  0
   26.4611  -21.2912  -13.1350 C   0  0  0  0  0  0  0  0  0  0  0  0
   26.0048  -22.4629  -13.3361 O   0  0  0  0  0  0  0  0  0  0  0  0
   27.0412  -20.1700   -7.9193 C   0  0  0  0  0  0  0  0  0  0  0  0
   26.6234  -21.0025   -9.1200 C   0  0  0  0  0  0  0  0  0  0  0  0
   25.3419  -20.5295   -9.7124 C   0  0  2  0  0  0  0  0  0  0  0  0
   24.1361  -20.8673   -8.8683 C   0  0  0  0  0  0  0  0  0  0  0  0
   25.0539  -21.0084  -11.1098 C   0  0  2  0  0  0  0  0  0  0  0  0
   26.2740  -20.6790  -11.8815 N   0  0  0  0  0  0  0  0  0  0  0  0
   23.9102  -20.2791  -11.6657 C   0  0  0  0  0  0  0  0  0  0  0  0
   24.0242  -19.1480  -12.1894 O   0  0  0  0  0  0  0  0  0  0  0  0
   22.5943  -20.2994  -16.6092 N   0  0  0  0  0  0  0  0  0  0  0  0
   22.2143  -21.5220  -15.9998 C   0  0  0  0  0  0  0  0  0  0  0  0
   22.1697  -22.5721  -16.6949 O   0  0  0  0  0  0  0  0  0  0  0  0
   21.8847  -21.5626  -14.5811 C   0  0  0  0  0  0  0  0  0  0  0  0
   21.9404  -20.3018  -13.8233 C   0  0  0  0  0  0  0  0  0  0  0  0
   21.4774  -20.2750  -12.4167 C   0  0  2  0  0  0  0  0  0  0  0  0
   22.6026  -20.8348  -11.6330 N   0  0  0  0  0  0  0  0  0  0  0  0
   20.2292  -20.9019  -12.0569 C   0  0  0  0  0  0  0  0  0  0  0  0
   20.2210  -22.0234  -11.4658 O   0  0  0  0  0  0  0  0  0  0  0  0
   18.9926  -20.3361  -12.3182 O   0  0  0  0  0  0  0  0  0  0  0  0
  2  1  1  0
  3  2  2  0
  4  2  1  0
  5  4  1  0
  6  7  1  1
  6  5  1  0
  8  6  1  0
  9  8  2  0
 10 11  1  0
 11 12  1  0
 12 14  1  0
 12 13  1  1
 14 15  1  6
 15  8  1  0
 16 14  1  0
 16 17  2  0
 18 19  1  0
 19 21  1  0
 20 19  2  0
 21 22  1  0
 23 22  1  6
 23 24  1  0
 24 16  1  0
 25 23  1  0
 26 25  2  0
 27 25  1  0
M  END
$$$$
