QIQ.pdb
     RDKit          3D

 27 26  0  0  1  0  0  0  0  0999 V2000
   25.1539  -19.0510  -22.9321 N   0  0  0  0  0  0  0  0  0  0  0  0
   26.3554  -18.3577  -23.2020 C   0  0  0  0  0  0  0  0  0  0  0  0
   26.7263  -18.2308  -24.3892 O   0  0  0  0  0  0  0  0  0  0  0  0
   27.1829  -17.7807  -22.1244 C   0  0  0  0  0  0  0  0  0  0  0  0
   26.5238  -17.9745  -20.7874 C   0  0  0  0  0  0  0  0  0  0  0  0
   27.2605  -17.2240  -19.6968 C   0  0  2  0  0  0  0  0  0  0  0  0
   28.4994  -17.9410  -19.4372 N   0  0  0  0  0  0  0  0  0  0  0  0
   26.4841  -17.2505  -18.4289 C   0  0  0  0  0  0  0  0  0  0  0  0
   26.6878  -18.2521  -17.6693 O   0  0  0  0  0  0  0  0  0  0  0  0
   26.9970  -13.3222  -15.6901 C   0  0  0  0  0  0  0  0  0  0  0  0
   26.6938  -14.8087  -15.7778 C   0  0  0  0  0  0  0  0  0  0  0  0
   25.2479  -15.0735  -16.0149 C   0  0  2  0  0  0  0  0  0  0  0  0
   24.4198  -15.0248  -14.7530 C   0  0  0  0  0  0  0  0  0  0  0  0
   24.9279  -16.3714  -16.7062 C   0  0  2  0  0  0  0  0  0  0  0  0
   25.5658  -16.2580  -18.0378 N   0  0  0  0  0  0  0  0  0  0  0  0
   23.4775  -16.5110  -16.8677 C   0  0  0  0  0  0  0  0  0  0  0  0
   22.7727  -15.6275  -17.4055 O   0  0  0  0  0  0  0  0  0  0  0  0
   18.6249  -19.2392  -19.1409 N   0  0  0  0  0  0  0  0  0  0  0  0
   19.3405  -20.1644  -18.3394 C   0  0  0  0  0  0  0  0  0  0  0  0
   19.6109  -21.3047  -18.8026 O   0  0  0  0  0  0  0  0  0  0  0  0
   19.7637  -19.7957  -16.9948 C   0  0  0  0  0  0  0  0  0  0  0  0
   21.1300  -19.2766  -16.8194 C   0  0  0  0  0  0  0  0  0  0  0  0
   21.3322  -17.8390  -16.5262 C   0  0  2  0  0  0  0  0  0  0  0  0
   22.7998  -17.6745  -16.4130 N   0  0  0  0  0  0  0  0  0  0  0  0
   20.6520  -17.2285  -15.4104 C   0  0  0  0  0  0  0  0  0  0  0  0
   21.1141  -17.3441  -14.2356 O   0  0  0  0  0  0  0  0  0  0  0  0
   19.4873  -16.4913  -15.5426 O   0  0  0  0  0  0  0  0  0  0  0  0
  2  1  1  0
  3  2  2  0
  4  2  1  0
  5  4  1  0
  6  7  1  1
  6  5  1  0
  8  6  1  0
  9  8  2  0
 10 11  1  0
 11 12  1  0
 12 14  1  0
 12 13  1  1
 14 15  1  6
 15  8  1  0
 16 14  1  0
 16 17  2  0
 18 19  1  0
 19 21  1  0
 20 19  2  0
 21 22  1  0
 23 22  1  1
 23 24  1  0
 24 16  1  0
 25 23  1  0
 26 25  2  0
 27 25  1  0
M  END
$$$$
