QIQ.pdb
     RDKit          3D

 27 26  0  0  1  0  0  0  0  0999 V2000
   18.3490  -25.5504   -4.3316 N   0  0  0  0  0  0  0  0  0  0  0  0
   17.5814  -26.5699   -4.9387 C   0  0  0  0  0  0  0  0  0  0  0  0
   17.3563  -26.5068   -6.1669 O   0  0  0  0  0  0  0  0  0  0  0  0
   17.0392  -27.7043   -4.1656 C   0  0  0  0  0  0  0  0  0  0  0  0
   17.3572  -27.5511   -2.7044 C   0  0  0  0  0  0  0  0  0  0  0  0
   18.8522  -27.5794   -2.4607 C   0  0  2  0  0  0  0  0  0  0  0  0
   19.3027  -28.9447   -2.6832 N   0  0  0  0  0  0  0  0  0  0  0  0
   19.1558  -27.2613   -1.0402 C   0  0  0  0  0  0  0  0  0  0  0  0
   19.0062  -28.2147   -0.2093 O   0  0  0  0  0  0  0  0  0  0  0  0
   22.8875  -23.5617    0.1028 C   0  0  0  0  0  0  0  0  0  0  0  0
   22.1165  -24.8637    0.2429 C   0  0  0  0  0  0  0  0  0  0  0  0
   20.8154  -24.6731    0.9411 C   0  0  2  0  0  0  0  0  0  0  0  0
   20.9702  -24.3196    2.4011 C   0  0  0  0  0  0  0  0  0  0  0  0
   19.8584  -25.8321    0.8639 C   0  0  2  0  0  0  0  0  0  0  0  0
   19.5858  -26.0020   -0.5816 N   0  0  0  0  0  0  0  0  0  0  0  0
   18.6123  -25.5029    1.5625 C   0  0  0  0  0  0  0  0  0  0  0  0
   17.5968  -25.0822    0.9639 O   0  0  0  0  0  0  0  0  0  0  0  0
   14.8061  -28.5756    1.5086 N   0  0  0  0  0  0  0  0  0  0  0  0
   14.2459  -27.9470    2.6494 C   0  0  0  0  0  0  0  0  0  0  0  0
   13.0792  -28.2532    3.0143 O   0  0  0  0  0  0  0  0  0  0  0  0
   15.0163  -26.9606    3.3953 C   0  0  0  0  0  0  0  0  0  0  0  0
   16.3844  -26.6649    2.9392 C   0  0  0  0  0  0  0  0  0  0  0  0
   17.1992  -25.6699    3.6739 C   0  0  2  0  0  0  0  0  0  0  0  0
   18.5032  -25.6502    2.9718 N   0  0  0  0  0  0  0  0  0  0  0  0
   17.3771  -25.7956    5.0996 C   0  0  0  0  0  0  0  0  0  0  0  0
   18.1886  -26.6468    5.5728 O   0  0  0  0  0  0  0  0  0  0  0  0
   16.6996  -25.0145    6.0208 O   0  0  0  0  0  0  0  0  0  0  0  0
  2  1  1  0
  3  2  2  0
  4  2  1  0
  5  4  1  0
  6  7  1  1
  6  5  1  0
  8  6  1  0
  9  8  2  0
 10 11  1  0
 11 12  1  0
 12 14  1  0
 12 13  1  1
 14 15  1  6
 15  8  1  0
 16 14  1  0
 16 17  2  0
 18 19  1  0
 19 21  1  0
 20 19  2  0
 21 22  1  0
 23 22  1  6
 23 24  1  0
 24 16  1  0
 25 23  1  0
 26 25  2  0
 27 25  1  0
M  END
$$$$
