QIQ.pdb
     RDKit          3D

 27 26  0  0  1  0  0  0  0  0999 V2000
   19.9487  -18.1663  -20.4549 N   0  0  0  0  0  0  0  0  0  0  0  0
   20.4051  -19.4876  -20.2473 C   0  0  0  0  0  0  0  0  0  0  0  0
   19.9533  -20.4034  -20.9686 O   0  0  0  0  0  0  0  0  0  0  0  0
   21.3977  -19.8161  -19.2054 C   0  0  0  0  0  0  0  0  0  0  0  0
   21.8349  -18.5750  -18.4786 C   0  0  0  0  0  0  0  0  0  0  0  0
   22.8495  -18.8972  -17.4006 C   0  0  2  0  0  0  0  0  0  0  0  0
   22.1820  -19.7283  -16.4105 N   0  0  0  0  0  0  0  0  0  0  0  0
   23.2730  -17.6586  -16.6952 C   0  0  0  0  0  0  0  0  0  0  0  0
   22.5009  -17.2513  -15.7680 O   0  0  0  0  0  0  0  0  0  0  0  0
   26.2639  -16.9415  -13.9799 C   0  0  0  0  0  0  0  0  0  0  0  0
   26.7869  -16.7767  -15.3972 C   0  0  0  0  0  0  0  0  0  0  0  0
   26.1794  -15.6053  -16.0869 C   0  0  2  0  0  0  0  0  0  0  0  0
   26.4934  -14.2904  -15.4140 C   0  0  0  0  0  0  0  0  0  0  0  0
   24.6874  -15.6621  -16.2762 C   0  0  2  0  0  0  0  0  0  0  0  0
   24.4449  -16.9368  -16.9898 N   0  0  0  0  0  0  0  0  0  0  0  0
   24.2431  -14.5412  -17.1100 C   0  0  0  0  0  0  0  0  0  0  0  0
   24.8422  -14.2019  -18.1552 O   0  0  0  0  0  0  0  0  0  0  0  0
   21.8728  -15.1336  -21.3516 N   0  0  0  0  0  0  0  0  0  0  0  0
   21.6120  -13.7401  -21.3750 C   0  0  0  0  0  0  0  0  0  0  0  0
   21.2035  -13.2048  -22.4402 O   0  0  0  0  0  0  0  0  0  0  0  0
   21.8093  -12.9372  -20.1752 C   0  0  0  0  0  0  0  0  0  0  0  0
   22.2770  -13.6194  -18.9575 C   0  0  0  0  0  0  0  0  0  0  0  0
   22.4387  -12.8462  -17.7046 C   0  0  2  0  0  0  0  0  0  0  0  0
   23.0947  -13.7803  -16.7608 N   0  0  0  0  0  0  0  0  0  0  0  0
   21.2952  -12.2102  -17.0977 C   0  0  0  0  0  0  0  0  0  0  0  0
   20.7370  -11.2209  -17.6605 O   0  0  0  0  0  0  0  0  0  0  0  0
   20.7417  -12.6279  -15.8991 O   0  0  0  0  0  0  0  0  0  0  0  0
  2  1  1  0
  3  2  2  0
  4  2  1  0
  5  4  1  0
  6  7  1  1
  6  5  1  0
  8  6  1  0
  9  8  2  0
 10 11  1  0
 11 12  1  0
 12 14  1  0
 12 13  1  1
 14 15  1  6
 15  8  1  0
 16 14  1  0
 16 17  2  0
 18 19  1  0
 19 21  1  0
 20 19  2  0
 21 22  1  0
 23 22  1  6
 23 24  1  0
 24 16  1  0
 25 23  1  0
 26 25  2  0
 27 25  1  0
M  END
$$$$
