ATK.pdb
     RDKit          3D

 22 21  0  0  1  0  0  0  0  0999 V2000
    8.4945  -12.1488   19.4726 C   0  0  0  0  0  0  0  0  0  0  0  0
    8.6422  -13.4951   18.7963 C   0  0  2  0  0  0  0  0  0  0  0  0
    7.7592  -13.4806   17.6313 N   0  0  0  0  0  0  0  0  0  0  0  0
    8.2624  -14.5901   19.7258 C   0  0  0  0  0  0  0  0  0  0  0  0
    7.2643  -15.2765   19.4227 O   0  0  0  0  0  0  0  0  0  0  0  0
    7.8761  -17.2722   19.8135 C   0  0  0  0  0  0  0  0  0  0  0  0
    8.9670  -17.2348   20.8789 C   0  0  1  0  0  0  0  0  0  0  0  0
   10.1445  -17.5159   20.2282 O   0  0  0  0  0  0  0  0  0  0  0  0
    8.9424  -16.0189   21.7195 C   0  0  2  0  0  0  0  0  0  0  0  0
    8.9892  -14.8514   20.9001 N   0  0  0  0  0  0  0  0  0  0  0  0
    9.9026  -15.9606   22.8331 C   0  0  0  0  0  0  0  0  0  0  0  0
   11.0602  -15.5425   22.6339 O   0  0  0  0  0  0  0  0  0  0  0  0
    9.6152  -16.3540   24.1679 N   0  0  0  0  0  0  0  0  0  0  0  0
   10.5609  -16.1818   25.2573 C   0  0  1  0  0  0  0  0  0  0  0  0
    9.8399  -15.5781   26.4234 C   0  0  0  0  0  0  0  0  0  0  0  0
   10.6721  -15.3676   27.6332 C   0  0  0  0  0  0  0  0  0  0  0  0
    9.9184  -14.8475   28.8238 C   0  0  0  0  0  0  0  0  0  0  0  0
   10.8277  -14.6393   30.0252 C   0  0  0  0  0  0  0  0  0  0  0  0
   10.0187  -14.2334   31.1597 N   0  0  0  0  0  0  0  0  0  0  0  0
   11.2258  -17.4614   25.6056 C   0  0  0  0  0  0  0  0  0  0  0  0
   12.4953  -17.4727   26.1683 O   0  0  0  0  0  0  0  0  0  0  0  0
   10.6815  -18.5764   25.4116 O   0  0  0  0  0  0  0  0  0  0  0  0
  2  1  1  1
  2  3  1  0
  4  2  1  0
  4  5  2  0
  7  9  1  0
  7  6  1  6
  8  7  1  0
  9 10  1  6
  9 11  1  0
 10  4  1  0
 11 13  1  0
 12 11  2  0
 13 14  1  0
 14 15  1  1
 15 16  1  0
 17 16  1  0
 18 19  1  0
 18 17  1  0
 20 14  1  0
 20 21  1  0
 22 20  2  0
M  END
$$$$
