ATK.pdb
     RDKit          3D

 22 21  0  0  1  0  0  0  0  0999 V2000
    8.2421  -12.1993   19.3520 C   0  0  0  0  0  0  0  0  0  0  0  0
    8.4132  -13.5274   18.6459 C   0  0  2  0  0  0  0  0  0  0  0  0
    7.4222  -13.5645   17.5719 N   0  0  0  0  0  0  0  0  0  0  0  0
    8.1999  -14.6526   19.5924 C   0  0  0  0  0  0  0  0  0  0  0  0
    7.1873  -15.3621   19.4176 O   0  0  0  0  0  0  0  0  0  0  0  0
    8.2768  -17.3890   19.4691 C   0  0  0  0  0  0  0  0  0  0  0  0
    9.3479  -17.2847   20.5501 C   0  0  1  0  0  0  0  0  0  0  0  0
   10.5535  -17.4335   19.9071 O   0  0  0  0  0  0  0  0  0  0  0  0
    9.2006  -16.1043   21.4280 C   0  0  2  0  0  0  0  0  0  0  0  0
    9.0941  -14.9166   20.6441 N   0  0  0  0  0  0  0  0  0  0  0  0
   10.1714  -15.9662   22.5253 C   0  0  0  0  0  0  0  0  0  0  0  0
   11.2279  -15.3296   22.3435 O   0  0  0  0  0  0  0  0  0  0  0  0
   10.0039  -16.5157   23.8249 N   0  0  0  0  0  0  0  0  0  0  0  0
   10.8961  -16.2054   24.9287 C   0  0  1  0  0  0  0  0  0  0  0  0
   10.0743  -15.7236   26.0849 C   0  0  0  0  0  0  0  0  0  0  0  0
   10.8528  -15.3191   27.2809 C   0  0  0  0  0  0  0  0  0  0  0  0
   10.0158  -14.9419   28.4696 C   0  0  0  0  0  0  0  0  0  0  0  0
   10.8704  -14.5344   29.6601 C   0  0  0  0  0  0  0  0  0  0  0  0
   10.0018  -14.2793   30.7944 N   0  0  0  0  0  0  0  0  0  0  0  0
   11.7436  -17.3697   25.2849 C   0  0  0  0  0  0  0  0  0  0  0  0
   13.0036  -17.1885   25.8398 O   0  0  0  0  0  0  0  0  0  0  0  0
   11.3684  -18.5545   25.1045 O   0  0  0  0  0  0  0  0  0  0  0  0
  2  1  1  1
  2  3  1  0
  4  2  1  0
  4  5  2  0
  7  9  1  0
  7  6  1  6
  8  7  1  0
  9 10  1  6
  9 11  1  0
 10  4  1  0
 11 13  1  0
 12 11  2  0
 13 14  1  0
 14 15  1  1
 15 16  1  0
 17 16  1  0
 18 19  1  0
 18 17  1  0
 20 14  1  0
 20 21  1  0
 22 20  2  0
M  END
$$$$
