ATK.pdb
     RDKit          3D

 22 21  0  0  1  0  0  0  0  0999 V2000
    7.8622  -18.1435   16.7672 C   0  0  0  0  0  0  0  0  0  0  0  0
    7.9752  -16.6447   16.5879 C   0  0  2  0  0  0  0  0  0  0  0  0
    8.6337  -16.4226   15.3017 N   0  0  0  0  0  0  0  0  0  0  0  0
    8.7695  -16.0458   17.6914 C   0  0  0  0  0  0  0  0  0  0  0  0
   10.0045  -15.9627   17.5268 O   0  0  0  0  0  0  0  0  0  0  0  0
    7.6460  -12.8273   19.6469 C   0  0  0  0  0  0  0  0  0  0  0  0
    7.9592  -13.9673   20.6107 C   0  0  1  0  0  0  0  0  0  0  0  0
    6.7546  -14.3537   21.1478 O   0  0  0  0  0  0  0  0  0  0  0  0
    8.8019  -15.0321   20.0259 C   0  0  2  0  0  0  0  0  0  0  0  0
    8.1663  -15.5885   18.8756 N   0  0  0  0  0  0  0  0  0  0  0  0
    9.3001  -16.0667   20.9462 C   0  0  0  0  0  0  0  0  0  0  0  0
    8.7340  -17.1763   20.9985 O   0  0  0  0  0  0  0  0  0  0  0  0
   10.4137  -15.9062   21.8141 N   0  0  0  0  0  0  0  0  0  0  0  0
   10.8191  -16.9256   22.7666 C   0  0  1  0  0  0  0  0  0  0  0  0
   12.3049  -17.0954   22.6795 C   0  0  0  0  0  0  0  0  0  0  0  0
   12.8717  -18.1245   23.5851 C   0  0  0  0  0  0  0  0  0  0  0  0
   14.3637  -18.2747   23.4995 C   0  0  0  0  0  0  0  0  0  0  0  0
   14.8850  -19.3277   24.4655 C   0  0  0  0  0  0  0  0  0  0  0  0
   16.3199  -19.4552   24.2891 N   0  0  0  0  0  0  0  0  0  0  0  0
   10.3684  -16.5941   24.1405 C   0  0  0  0  0  0  0  0  0  0  0  0
    9.7772  -15.3686   24.4184 O   0  0  0  0  0  0  0  0  0  0  0  0
   10.4979  -17.3922   25.1015 O   0  0  0  0  0  0  0  0  0  0  0  0
  2  1  1  1
  2  3  1  0
  4  2  1  0
  4  5  2  0
  7  9  1  0
  7  6  1  6
  8  7  1  0
  9 10  1  6
  9 11  1  0
 10  4  1  0
 11 13  1  0
 12 11  2  0
 13 14  1  0
 14 15  1  1
 15 16  1  0
 17 16  1  0
 18 19  1  0
 18 17  1  0
 20 14  1  0
 20 21  1  0
 22 20  2  0
M  END
$$$$
