ATK.pdb
     RDKit          3D

 22 21  0  0  1  0  0  0  0  0999 V2000
    4.0221  -22.0003   23.2519 C   0  0  0  0  0  0  0  0  0  0  0  0
    4.8464  -21.3695   22.1500 C   0  0  2  0  0  0  0  0  0  0  0  0
    4.5976  -22.1491   20.9386 N   0  0  0  0  0  0  0  0  0  0  0  0
    6.2902  -21.3940   22.4995 C   0  0  0  0  0  0  0  0  0  0  0  0
    6.8189  -22.5130   22.6656 O   0  0  0  0  0  0  0  0  0  0  0  0
    8.7898  -19.4457   20.4537 C   0  0  0  0  0  0  0  0  0  0  0  0
    9.0244  -19.1060   21.9221 C   0  0  1  0  0  0  0  0  0  0  0  0
    8.6420  -17.7949   22.0755 O   0  0  0  0  0  0  0  0  0  0  0  0
    8.4429  -20.0858   22.8642 C   0  0  2  0  0  0  0  0  0  0  0  0
    7.0393  -20.2131   22.6398 N   0  0  0  0  0  0  0  0  0  0  0  0
    8.7691  -19.9133   24.2888 C   0  0  0  0  0  0  0  0  0  0  0  0
    7.9994  -19.2696   25.0287 O   0  0  0  0  0  0  0  0  0  0  0  0
    9.9296  -20.4367   24.9200 N   0  0  0  0  0  0  0  0  0  0  0  0
   10.2443  -20.1849   26.3158 C   0  0  1  0  0  0  0  0  0  0  0  0
    9.9525  -21.4265   27.1017 C   0  0  0  0  0  0  0  0  0  0  0  0
   10.2516  -21.3344   28.5517 C   0  0  0  0  0  0  0  0  0  0  0  0
    9.9507  -22.5835   29.3294 C   0  0  0  0  0  0  0  0  0  0  0  0
   10.1086  -22.3721   30.8274 C   0  0  0  0  0  0  0  0  0  0  0  0
    9.6135  -23.5470   31.5208 N   0  0  0  0  0  0  0  0  0  0  0  0
   11.6459  -19.7281   26.4819 C   0  0  0  0  0  0  0  0  0  0  0  0
   12.0697  -19.1529   27.6727 O   0  0  0  0  0  0  0  0  0  0  0  0
   12.5013  -19.8378   25.5690 O   0  0  0  0  0  0  0  0  0  0  0  0
  2  1  1  1
  2  3  1  0
  4  2  1  0
  4  5  2  0
  7  9  1  0
  7  6  1  6
  8  7  1  0
  9 10  1  1
  9 11  1  0
 10  4  1  0
 11 13  1  0
 12 11  2  0
 13 14  1  0
 14 15  1  1
 15 16  1  0
 17 16  1  0
 18 19  1  0
 18 17  1  0
 20 14  1  0
 20 21  1  0
 22 20  2  0
M  END
$$$$
