ATK.pdb
     RDKit          3D

 22 21  0  0  1  0  0  0  0  0999 V2000
    8.5607  -12.7067   18.3273 C   0  0  0  0  0  0  0  0  0  0  0  0
    8.6399  -14.1249   17.8038 C   0  0  2  0  0  0  0  0  0  0  0  0
    7.7690  -14.1907   16.6316 N   0  0  0  0  0  0  0  0  0  0  0  0
    8.1928  -15.0896   18.8415 C   0  0  0  0  0  0  0  0  0  0  0  0
    7.3422  -15.9390   18.5033 O   0  0  0  0  0  0  0  0  0  0  0  0
    8.5324  -17.8375   19.3695 C   0  0  0  0  0  0  0  0  0  0  0  0
    9.1679  -17.3373   20.6628 C   0  0  1  0  0  0  0  0  0  0  0  0
   10.5264  -17.3721   20.4578 O   0  0  0  0  0  0  0  0  0  0  0  0
    8.5995  -16.0651   21.1569 C   0  0  2  0  0  0  0  0  0  0  0  0
    8.6993  -15.0567   20.1520 N   0  0  0  0  0  0  0  0  0  0  0  0
    9.0654  -15.5945   22.4711 C   0  0  0  0  0  0  0  0  0  0  0  0
   10.1987  -15.0871   22.5832 O   0  0  0  0  0  0  0  0  0  0  0  0
    8.3072  -15.6701   23.6705 N   0  0  0  0  0  0  0  0  0  0  0  0
    8.5485  -14.7980   24.8072 C   0  0  1  0  0  0  0  0  0  0  0  0
    7.2871  -14.0484   25.1090 C   0  0  0  0  0  0  0  0  0  0  0  0
    7.3751  -13.1105   26.2549 C   0  0  0  0  0  0  0  0  0  0  0  0
    6.0814  -12.4322   26.6043 C   0  0  0  0  0  0  0  0  0  0  0  0
    6.2335  -11.4967   27.7940 C   0  0  0  0  0  0  0  0  0  0  0  0
    4.9876  -10.7778   27.9865 N   0  0  0  0  0  0  0  0  0  0  0  0
    9.0467  -15.5594   25.9788 C   0  0  0  0  0  0  0  0  0  0  0  0
    9.8070  -14.9370   26.9601 O   0  0  0  0  0  0  0  0  0  0  0  0
    8.8088  -16.7824   26.1364 O   0  0  0  0  0  0  0  0  0  0  0  0
  2  1  1  1
  2  3  1  0
  4  2  1  0
  4  5  2  0
  7  9  1  0
  7  6  1  6
  8  7  1  0
  9 10  1  6
  9 11  1  0
 10  4  1  0
 11 13  1  0
 12 11  2  0
 13 14  1  0
 14 15  1  1
 15 16  1  0
 17 16  1  0
 18 19  1  0
 18 17  1  0
 20 14  1  0
 20 21  1  0
 22 20  2  0
M  END
$$$$
