ATK.pdb
     RDKit          3D

 22 21  0  0  1  0  0  0  0  0999 V2000
    8.5964  -12.5598   18.4969 C   0  0  0  0  0  0  0  0  0  0  0  0
    8.6866  -13.9442   17.8910 C   0  0  2  0  0  0  0  0  0  0  0  0
    7.7878  -13.9590   16.7382 N   0  0  0  0  0  0  0  0  0  0  0  0
    8.2820  -14.9746   18.8819 C   0  0  0  0  0  0  0  0  0  0  0  0
    7.4870  -15.8570   18.4965 O   0  0  0  0  0  0  0  0  0  0  0  0
    8.5976  -17.6781   19.3073 C   0  0  0  0  0  0  0  0  0  0  0  0
    9.1990  -17.2674   20.6474 C   0  0  1  0  0  0  0  0  0  0  0  0
   10.5623  -17.3493   20.4941 O   0  0  0  0  0  0  0  0  0  0  0  0
    8.6621  -15.9976   21.1814 C   0  0  2  0  0  0  0  0  0  0  0  0
    8.7677  -14.9661   20.2008 N   0  0  0  0  0  0  0  0  0  0  0  0
    9.1549  -15.5694   22.5002 C   0  0  0  0  0  0  0  0  0  0  0  0
   10.2273  -14.9397   22.5881 O   0  0  0  0  0  0  0  0  0  0  0  0
    8.4896  -15.8199   23.7305 N   0  0  0  0  0  0  0  0  0  0  0  0
    8.6743  -14.9863   24.9061 C   0  0  1  0  0  0  0  0  0  0  0  0
    7.4315  -14.1768   25.1164 C   0  0  0  0  0  0  0  0  0  0  0  0
    7.4820  -13.2388   26.2643 C   0  0  0  0  0  0  0  0  0  0  0  0
    6.2506  -12.3956   26.4334 C   0  0  0  0  0  0  0  0  0  0  0  0
    6.3848  -11.4199   27.5925 C   0  0  0  0  0  0  0  0  0  0  0  0
    5.1306  -10.7072   27.7519 N   0  0  0  0  0  0  0  0  0  0  0  0
    9.0275  -15.7979   26.0965 C   0  0  0  0  0  0  0  0  0  0  0  0
    9.7156  -15.2339   27.1627 O   0  0  0  0  0  0  0  0  0  0  0  0
    8.7263  -17.0131   26.1951 O   0  0  0  0  0  0  0  0  0  0  0  0
  2  1  1  1
  2  3  1  0
  4  2  1  0
  4  5  2  0
  7  9  1  0
  7  6  1  6
  8  7  1  0
  9 10  1  6
  9 11  1  0
 10  4  1  0
 11 13  1  0
 12 11  2  0
 13 14  1  0
 14 15  1  1
 15 16  1  0
 17 16  1  0
 18 19  1  0
 18 17  1  0
 20 14  1  0
 20 21  1  0
 22 20  2  0
M  END
$$$$
