ATK.pdb
     RDKit          3D

 22 21  0  0  1  0  0  0  0  0999 V2000
    8.2155  -12.1786   19.1462 C   0  0  0  0  0  0  0  0  0  0  0  0
    8.4623  -13.5553   18.5672 C   0  0  2  0  0  0  0  0  0  0  0  0
    7.6011  -13.6791   17.3924 N   0  0  0  0  0  0  0  0  0  0  0  0
    8.1380  -14.6068   19.5655 C   0  0  0  0  0  0  0  0  0  0  0  0
    7.1374  -15.3192   19.3405 O   0  0  0  0  0  0  0  0  0  0  0  0
    8.0167  -17.3337   19.6782 C   0  0  0  0  0  0  0  0  0  0  0  0
    9.1095  -17.1761   20.7305 C   0  0  1  0  0  0  0  0  0  0  0  0
   10.3020  -17.3531   20.0705 O   0  0  0  0  0  0  0  0  0  0  0  0
    8.9770  -15.9556   21.5543 C   0  0  2  0  0  0  0  0  0  0  0  0
    8.9179  -14.8003   20.7186 N   0  0  0  0  0  0  0  0  0  0  0  0
    9.9294  -15.7959   22.6646 C   0  0  0  0  0  0  0  0  0  0  0  0
   11.1172  -15.5009   22.4265 O   0  0  0  0  0  0  0  0  0  0  0  0
    9.6015  -15.9539   24.0381 N   0  0  0  0  0  0  0  0  0  0  0  0
   10.5733  -15.7711   25.1026 C   0  0  1  0  0  0  0  0  0  0  0  0
    9.8375  -15.4834   26.3754 C   0  0  0  0  0  0  0  0  0  0  0  0
   10.6990  -15.2993   27.5688 C   0  0  0  0  0  0  0  0  0  0  0  0
    9.9493  -15.0245   28.8409 C   0  0  0  0  0  0  0  0  0  0  0  0
   10.8854  -14.8656   30.0291 C   0  0  0  0  0  0  0  0  0  0  0  0
   10.0995  -14.5323   31.2029 N   0  0  0  0  0  0  0  0  0  0  0  0
   11.4727  -16.9446   25.2234 C   0  0  0  0  0  0  0  0  0  0  0  0
   12.8199  -16.7804   25.5175 O   0  0  0  0  0  0  0  0  0  0  0  0
   11.0656  -18.1224   25.0680 O   0  0  0  0  0  0  0  0  0  0  0  0
  2  1  1  1
  2  3  1  0
  4  2  1  0
  4  5  2  0
  7  9  1  0
  7  6  1  6
  8  7  1  0
  9 10  1  6
  9 11  1  0
 10  4  1  0
 11 13  1  0
 12 11  2  0
 13 14  1  0
 14 15  1  1
 15 16  1  0
 17 16  1  0
 18 19  1  0
 18 17  1  0
 20 14  1  0
 20 21  1  0
 22 20  2  0
M  END
$$$$
