ATK.pdb
     RDKit          3D

 22 21  0  0  1  0  0  0  0  0999 V2000
    8.0325  -12.2266   19.5800 C   0  0  0  0  0  0  0  0  0  0  0  0
    8.3263  -13.4618   18.7556 C   0  0  2  0  0  0  0  0  0  0  0  0
    7.2866  -13.5418   17.7311 N   0  0  0  0  0  0  0  0  0  0  0  0
    8.3106  -14.6761   19.6115 C   0  0  0  0  0  0  0  0  0  0  0  0
    7.3125  -15.4216   19.5273 O   0  0  0  0  0  0  0  0  0  0  0  0
    8.0672  -17.3759   19.5620 C   0  0  0  0  0  0  0  0  0  0  0  0
    9.4254  -17.3546   20.2559 C   0  0  1  0  0  0  0  0  0  0  0  0
   10.3624  -17.5161   19.2636 O   0  0  0  0  0  0  0  0  0  0  0  0
    9.6129  -16.2089   21.1713 C   0  0  2  0  0  0  0  0  0  0  0  0
    9.3696  -14.9825   20.4832 N   0  0  0  0  0  0  0  0  0  0  0  0
   10.8615  -16.1767   21.9494 C   0  0  0  0  0  0  0  0  0  0  0  0
   11.8262  -15.4965   21.5479 O   0  0  0  0  0  0  0  0  0  0  0  0
   11.0726  -16.8798   23.1660 N   0  0  0  0  0  0  0  0  0  0  0  0
   12.3142  -16.7951   23.9157 C   0  0  1  0  0  0  0  0  0  0  0  0
   12.1446  -17.5399   25.2043 C   0  0  0  0  0  0  0  0  0  0  0  0
   11.2817  -16.8684   26.2067 C   0  0  0  0  0  0  0  0  0  0  0  0
   11.1533  -17.6044   27.5097 C   0  0  0  0  0  0  0  0  0  0  0  0
   10.3022  -16.8403   28.5124 C   0  0  0  0  0  0  0  0  0  0  0  0
   10.1342  -17.6556   29.7012 N   0  0  0  0  0  0  0  0  0  0  0  0
   13.4626  -17.2957   23.1212 C   0  0  0  0  0  0  0  0  0  0  0  0
   14.7241  -16.7326   23.2627 O   0  0  0  0  0  0  0  0  0  0  0  0
   13.3507  -18.2365   22.2969 O   0  0  0  0  0  0  0  0  0  0  0  0
  2  1  1  1
  2  3  1  0
  4  2  1  0
  4  5  2  0
  7  9  1  0
  7  6  1  6
  8  7  1  0
  9 10  1  6
  9 11  1  0
 10  4  1  0
 11 13  1  0
 12 11  2  0
 13 14  1  0
 14 15  1  1
 15 16  1  0
 17 16  1  0
 18 19  1  0
 18 17  1  0
 20 14  1  0
 20 21  1  0
 22 20  2  0
M  END
$$$$
