ATK.pdb
     RDKit          3D

 22 21  0  0  1  0  0  0  0  0999 V2000
    7.8470  -19.1809   18.5591 C   0  0  0  0  0  0  0  0  0  0  0  0
    7.8061  -17.7313   18.1247 C   0  0  2  0  0  0  0  0  0  0  0  0
    8.4356  -17.6683   16.8069 N   0  0  0  0  0  0  0  0  0  0  0  0
    8.5375  -16.8754   19.0943 C   0  0  0  0  0  0  0  0  0  0  0  0
    9.7633  -16.7237   18.9111 O   0  0  0  0  0  0  0  0  0  0  0  0
    7.5912  -13.3516   20.0415 C   0  0  0  0  0  0  0  0  0  0  0  0
    7.6714  -14.1781   21.3210 C   0  0  1  0  0  0  0  0  0  0  0  0
    6.3798  -14.3072   21.7725 O   0  0  0  0  0  0  0  0  0  0  0  0
    8.4578  -15.4224   21.1825 C   0  0  2  0  0  0  0  0  0  0  0  0
    7.8868  -16.2576   20.1760 N   0  0  0  0  0  0  0  0  0  0  0  0
    8.7578  -16.1608   22.4195 C   0  0  0  0  0  0  0  0  0  0  0  0
    8.0154  -17.0951   22.7807 O   0  0  0  0  0  0  0  0  0  0  0  0
    9.8627  -15.8925   23.2717 N   0  0  0  0  0  0  0  0  0  0  0  0
   10.1062  -16.6338   24.4973 C   0  0  1  0  0  0  0  0  0  0  0  0
   11.3488  -17.4516   24.3207 C   0  0  0  0  0  0  0  0  0  0  0  0
   11.6841  -18.3358   25.4636 C   0  0  0  0  0  0  0  0  0  0  0  0
   12.9928  -19.0600   25.3268 C   0  0  0  0  0  0  0  0  0  0  0  0
   13.2334  -20.0215   26.4804 C   0  0  0  0  0  0  0  0  0  0  0  0
   14.4554  -20.7619   26.2257 N   0  0  0  0  0  0  0  0  0  0  0  0
   10.1872  -15.7300   25.6708 C   0  0  0  0  0  0  0  0  0  0  0  0
   10.0997  -16.2326   26.9624 O   0  0  0  0  0  0  0  0  0  0  0  0
   10.3362  -14.4886   25.5542 O   0  0  0  0  0  0  0  0  0  0  0  0
  2  1  1  1
  2  3  1  0
  4  2  1  0
  4  5  2  0
  7  9  1  0
  7  6  1  6
  8  7  1  0
  9 10  1  6
  9 11  1  0
 10  4  1  0
 11 13  1  0
 12 11  2  0
 13 14  1  0
 14 15  1  6
 15 16  1  0
 17 16  1  0
 18 19  1  0
 18 17  1  0
 20 14  1  0
 20 21  1  0
 22 20  2  0
M  END
$$$$
