ATK.pdb
     RDKit          3D

 22 21  0  0  1  0  0  0  0  0999 V2000
    7.0027  -19.5107   18.7981 C   0  0  0  0  0  0  0  0  0  0  0  0
    7.0670  -18.2679   17.9362 C   0  0  2  0  0  0  0  0  0  0  0  0
    7.5589  -18.6890   16.6256 N   0  0  0  0  0  0  0  0  0  0  0  0
    7.9801  -17.2623   18.5383 C   0  0  0  0  0  0  0  0  0  0  0  0
    9.2004  -17.5273   18.5401 O   0  0  0  0  0  0  0  0  0  0  0  0
    8.3251  -12.6211   20.3808 C   0  0  0  0  0  0  0  0  0  0  0  0
    7.5942  -13.7476   19.6575 C   0  0  1  0  0  0  0  0  0  0  0  0
    7.3842  -13.3029   18.3741 O   0  0  0  0  0  0  0  0  0  0  0  0
    8.2342  -15.0717   19.8090 C   0  0  2  0  0  0  0  0  0  0  0  0
    7.5013  -16.0597   19.0857 N   0  0  0  0  0  0  0  0  0  0  0  0
    8.5541  -15.5029   21.1792 C   0  0  0  0  0  0  0  0  0  0  0  0
    7.6355  -15.6988   21.9991 O   0  0  0  0  0  0  0  0  0  0  0  0
    9.8694  -15.7247   21.6690 N   0  0  0  0  0  0  0  0  0  0  0  0
   10.1364  -16.1683   23.0264 C   0  0  1  0  0  0  0  0  0  0  0  0
   10.1380  -17.6663   23.0467 C   0  0  0  0  0  0  0  0  0  0  0  0
   10.4376  -18.2742   24.3661 C   0  0  0  0  0  0  0  0  0  0  0  0
   10.4826  -19.7755   24.3635 C   0  0  0  0  0  0  0  0  0  0  0  0
   10.7759  -20.3376   25.7461 C   0  0  0  0  0  0  0  0  0  0  0  0
   10.8472  -21.7845   25.6577 N   0  0  0  0  0  0  0  0  0  0  0  0
   11.4027  -15.5954   23.5450 C   0  0  0  0  0  0  0  0  0  0  0  0
   12.3011  -14.9681   22.6918 O   0  0  0  0  0  0  0  0  0  0  0  0
   11.7174  -15.6495   24.7596 O   0  0  0  0  0  0  0  0  0  0  0  0
  2  1  1  1
  2  3  1  0
  4  2  1  0
  4  5  2  0
  7  9  1  0
  7  6  1  1
  8  7  1  0
  9 10  1  1
  9 11  1  0
 10  4  1  0
 11 13  1  0
 12 11  2  0
 13 14  1  0
 14 15  1  6
 15 16  1  0
 17 16  1  0
 18 19  1  0
 18 17  1  0
 20 14  1  0
 20 21  1  0
 22 20  2  0
M  END
$$$$
