ATK.pdb
     RDKit          3D

 22 21  0  0  1  0  0  0  0  0999 V2000
    7.8876  -12.0913   20.1835 C   0  0  0  0  0  0  0  0  0  0  0  0
    8.4636  -13.1741   19.2961 C   0  0  2  0  0  0  0  0  0  0  0  0
    7.7128  -13.1353   18.0424 N   0  0  0  0  0  0  0  0  0  0  0  0
    8.3305  -14.5047   19.9436 C   0  0  0  0  0  0  0  0  0  0  0  0
    7.2998  -15.1626   19.6907 O   0  0  0  0  0  0  0  0  0  0  0  0
   10.5474  -17.0347   19.1670 C   0  0  0  0  0  0  0  0  0  0  0  0
   10.5886  -17.0246   20.6917 C   0  0  1  0  0  0  0  0  0  0  0  0
   11.8414  -16.5764   21.0358 O   0  0  0  0  0  0  0  0  0  0  0  0
    9.4385  -16.3383   21.3179 C   0  0  2  0  0  0  0  0  0  0  0  0
    9.3175  -15.0115   20.8064 N   0  0  0  0  0  0  0  0  0  0  0  0
    9.3569  -16.3822   22.7866 C   0  0  0  0  0  0  0  0  0  0  0  0
    9.8477  -15.4576   23.4638 O   0  0  0  0  0  0  0  0  0  0  0  0
    8.7435  -17.4263   23.5298 N   0  0  0  0  0  0  0  0  0  0  0  0
    8.7650  -17.4728   24.9818 C   0  0  1  0  0  0  0  0  0  0  0  0
    7.9387  -18.6378   25.4336 C   0  0  0  0  0  0  0  0  0  0  0  0
    7.8744  -18.8272   26.9034 C   0  0  0  0  0  0  0  0  0  0  0  0
    7.0685  -20.0161   27.3427 C   0  0  0  0  0  0  0  0  0  0  0  0
    6.8609  -20.0364   28.8494 C   0  0  0  0  0  0  0  0  0  0  0  0
    5.9141  -21.0864   29.1773 N   0  0  0  0  0  0  0  0  0  0  0  0
   10.1530  -17.5296   25.5021 C   0  0  0  0  0  0  0  0  0  0  0  0
   10.4986  -16.8770   26.6781 O   0  0  0  0  0  0  0  0  0  0  0  0
   11.0662  -18.1598   24.9139 O   0  0  0  0  0  0  0  0  0  0  0  0
  2  1  1  1
  2  3  1  0
  4  2  1  0
  4  5  2  0
  7  9  1  0
  7  6  1  6
  8  7  1  0
  9 10  1  1
  9 11  1  0
 10  4  1  0
 11 13  1  0
 12 11  2  0
 13 14  1  0
 14 15  1  6
 15 16  1  0
 17 16  1  0
 18 19  1  0
 18 17  1  0
 20 14  1  0
 20 21  1  0
 22 20  2  0
M  END
$$$$
