ATK.pdb
     RDKit          3D

 22 21  0  0  1  0  0  0  0  0999 V2000
   11.1085  -18.1522   19.2190 C   0  0  0  0  0  0  0  0  0  0  0  0
   10.6287  -16.8467   18.6215 C   0  0  2  0  0  0  0  0  0  0  0  0
   11.7005  -16.3610   17.7542 N   0  0  0  0  0  0  0  0  0  0  0  0
   10.3358  -15.8595   19.6925 C   0  0  0  0  0  0  0  0  0  0  0  0
   11.2804  -15.1416   20.0818 O   0  0  0  0  0  0  0  0  0  0  0  0
    7.0351  -13.5953   20.0420 C   0  0  0  0  0  0  0  0  0  0  0  0
    7.2664  -14.5042   21.2449 C   0  0  1  0  0  0  0  0  0  0  0  0
    6.2980  -15.4771   21.1788 O   0  0  0  0  0  0  0  0  0  0  0  0
    8.6646  -14.9625   21.3898 C   0  0  2  0  0  0  0  0  0  0  0  0
    9.0526  -15.7304   20.2513 N   0  0  0  0  0  0  0  0  0  0  0  0
    9.0210  -15.6201   22.6571 C   0  0  0  0  0  0  0  0  0  0  0  0
    9.2831  -16.8388   22.6722 O   0  0  0  0  0  0  0  0  0  0  0  0
    9.0962  -14.9622   23.9144 N   0  0  0  0  0  0  0  0  0  0  0  0
    9.4205  -15.6602   25.1467 C   0  0  1  0  0  0  0  0  0  0  0  0
    9.6144  -14.6459   26.2320 C   0  0  0  0  0  0  0  0  0  0  0  0
   10.0081  -15.2050   27.5483 C   0  0  0  0  0  0  0  0  0  0  0  0
   10.1211  -14.1878   28.6476 C   0  0  0  0  0  0  0  0  0  0  0  0
   10.5831  -14.8129   29.9549 C   0  0  0  0  0  0  0  0  0  0  0  0
   10.5612  -13.7983   30.9924 N   0  0  0  0  0  0  0  0  0  0  0  0
    8.3836  -16.6637   25.4906 C   0  0  0  0  0  0  0  0  0  0  0  0
    8.7255  -17.8497   26.1270 O   0  0  0  0  0  0  0  0  0  0  0  0
    7.1678  -16.4916   25.2270 O   0  0  0  0  0  0  0  0  0  0  0  0
  2  1  1  1
  2  3  1  0
  4  2  1  0
  4  5  2  0
  7  9  1  0
  7  6  1  6
  8  7  1  0
  9 10  1  6
  9 11  1  0
 10  4  1  0
 11 13  1  0
 12 11  2  0
 13 14  1  0
 14 15  1  1
 15 16  1  0
 17 16  1  0
 18 19  1  0
 18 17  1  0
 20 14  1  0
 20 21  1  0
 22 20  2  0
M  END
$$$$
