EQD.pdb
     RDKit          3D

 27 26  0  0  1  0  0  0  0  0999 V2000
   20.3164  -11.5567  -19.0460 N   0  0  0  0  0  0  0  0  0  0  0  0
   19.1244  -11.2421  -18.2849 C   0  0  1  0  0  0  0  0  0  0  0  0
   18.3786  -12.4205  -17.8137 C   0  0  0  0  0  0  0  0  0  0  0  0
   19.0382  -13.3658  -16.8925 C   0  0  0  0  0  0  0  0  0  0  0  0
   18.3344  -13.7844  -15.7002 C   0  0  0  0  0  0  0  0  0  0  0  0
   18.7720  -13.5148  -14.5591 O   0  0  0  0  0  0  0  0  0  0  0  0
   19.3949  -10.2129  -17.2735 C   0  0  0  0  0  0  0  0  0  0  0  0
   18.4552   -9.8229  -16.5275 O   0  0  0  0  0  0  0  0  0  0  0  0
   17.1514  -14.4996  -15.7743 O   0  0  0  0  0  0  0  0  0  0  0  0
   24.5278   -9.5847  -14.0622 N   0  0  0  0  0  0  0  0  0  0  0  0
   24.5716   -9.1182  -15.3957 C   0  0  0  0  0  0  0  0  0  0  0  0
   25.6643   -8.8831  -15.9436 O   0  0  0  0  0  0  0  0  0  0  0  0
   23.3223   -8.8919  -16.1909 C   0  0  0  0  0  0  0  0  0  0  0  0
   22.1427   -8.9986  -15.2771 C   0  0  0  0  0  0  0  0  0  0  0  0
   20.8701   -8.6643  -16.0271 C   0  0  2  0  0  0  0  0  0  0  0  0
   20.6621   -9.6386  -17.0899 N   0  0  0  0  0  0  0  0  0  0  0  0
   20.8597   -7.3093  -16.5808 C   0  0  0  0  0  0  0  0  0  0  0  0
   21.0441   -7.0907  -17.8275 O   0  0  0  0  0  0  0  0  0  0  0  0
   20.6476   -6.1080  -15.8181 N   0  0  0  0  0  0  0  0  0  0  0  0
   20.5055   -4.8148  -16.4577 C   0  0  1  0  0  0  0  0  0  0  0  0
   19.9786   -4.8990  -17.8577 C   0  0  0  0  0  0  0  0  0  0  0  0
   19.6923   -3.6014  -18.4814 C   0  0  0  0  0  0  0  0  0  0  0  0
   20.6121   -2.7622  -18.6138 O   0  0  0  0  0  0  0  0  0  0  0  0
   19.7614   -3.8615  -15.5907 C   0  0  0  0  0  0  0  0  0  0  0  0
   19.6357   -2.6398  -15.8757 O   0  0  0  0  0  0  0  0  0  0  0  0
   18.4277   -3.2700  -18.9327 O   0  0  0  0  0  0  0  0  0  0  0  0
   19.1556   -4.2588  -14.4087 O   0  0  0  0  0  0  0  0  0  0  0  0
  2  1  1  1
  2  7  1  0
  3  2  1  0
  3  4  1  0
  4  5  1  0
  5  6  2  0
  7  8  2  0
  9  5  1  0
 11 10  1  0
 11 13  1  0
 12 11  2  0
 14 13  1  0
 15 14  1  6
 16 15  1  0
 16  7  1  0
 17 15  1  0
 17 19  1  0
 18 17  2  0
 20 19  1  0
 20 21  1  6
 22 21  1  0
 22 26  1  0
 23 22  2  0
 24 20  1  0
 24 27  1  0
 25 24  2  0
M  END
$$$$
