EQD.pdb
     RDKit          3D

 27 26  0  0  1  0  0  0  0  0999 V2000
   21.6773  -13.6087  -18.1345 N   0  0  0  0  0  0  0  0  0  0  0  0
   21.0211  -12.3841  -17.7234 C   0  0  1  0  0  0  0  0  0  0  0  0
   19.5539  -12.4156  -17.8388 C   0  0  0  0  0  0  0  0  0  0  0  0
   18.7826  -13.2997  -16.9439 C   0  0  0  0  0  0  0  0  0  0  0  0
   17.3415  -13.3292  -17.0643 C   0  0  0  0  0  0  0  0  0  0  0  0
   16.6028  -13.1420  -16.0716 O   0  0  0  0  0  0  0  0  0  0  0  0
   21.5493  -11.9018  -16.4413 C   0  0  0  0  0  0  0  0  0  0  0  0
   21.4526  -12.6380  -15.4213 O   0  0  0  0  0  0  0  0  0  0  0  0
   16.7238  -13.5663  -18.2802 O   0  0  0  0  0  0  0  0  0  0  0  0
   26.8763  -10.8894  -14.9219 N   0  0  0  0  0  0  0  0  0  0  0  0
   26.3425  -10.0449  -15.9217 C   0  0  0  0  0  0  0  0  0  0  0  0
   27.0976   -9.4663  -16.7247 O   0  0  0  0  0  0  0  0  0  0  0  0
   24.8677   -9.8164  -16.0529 C   0  0  0  0  0  0  0  0  0  0  0  0
   24.1695  -10.5144  -14.9290 C   0  0  0  0  0  0  0  0  0  0  0  0
   22.6806  -10.2443  -14.9921 C   0  0  2  0  0  0  0  0  0  0  0  0
   22.1675  -10.6508  -16.2935 N   0  0  0  0  0  0  0  0  0  0  0  0
   22.3309   -8.8472  -14.7300 C   0  0  0  0  0  0  0  0  0  0  0  0
   22.7426   -8.2356  -13.6848 O   0  0  0  0  0  0  0  0  0  0  0  0
   21.5150   -8.0266  -15.5847 N   0  0  0  0  0  0  0  0  0  0  0  0
   21.1826   -6.6592  -15.2366 C   0  0  1  0  0  0  0  0  0  0  0  0
   22.2943   -5.6910  -15.5042 C   0  0  0  0  0  0  0  0  0  0  0  0
   22.4734   -4.6659  -14.4689 C   0  0  0  0  0  0  0  0  0  0  0  0
   21.7386   -4.6754  -13.4550 O   0  0  0  0  0  0  0  0  0  0  0  0
   19.8768   -6.2538  -15.8239 C   0  0  0  0  0  0  0  0  0  0  0  0
   19.2076   -7.0097  -16.5792 O   0  0  0  0  0  0  0  0  0  0  0  0
   23.4363   -3.6789  -14.5758 O   0  0  0  0  0  0  0  0  0  0  0  0
   19.3103   -5.0132  -15.5756 O   0  0  0  0  0  0  0  0  0  0  0  0
  2  1  1  1
  2  7  1  0
  3  2  1  0
  3  4  1  0
  4  5  1  0
  5  6  2  0
  7  8  2  0
  9  5  1  0
 11 10  1  0
 11 13  1  0
 12 11  2  0
 14 13  1  0
 15 14  1  6
 16 15  1  0
 16  7  1  0
 17 15  1  0
 17 19  1  0
 18 17  2  0
 20 19  1  0
 20 21  1  6
 22 21  1  0
 22 26  1  0
 23 22  2  0
 24 20  1  0
 24 27  1  0
 25 24  2  0
M  END
$$$$
