EQD.pdb
     RDKit          3D

 27 26  0  0  1  0  0  0  0  0999 V2000
   18.5499  -10.7876  -13.3803 N   0  0  0  0  0  0  0  0  0  0  0  0
   17.7047  -10.2450  -14.4245 C   0  0  1  0  0  0  0  0  0  0  0  0
   16.9107  -11.2533  -15.1455 C   0  0  0  0  0  0  0  0  0  0  0  0
   16.6604  -12.5600  -14.5074 C   0  0  0  0  0  0  0  0  0  0  0  0
   15.8339  -13.5264  -15.1967 C   0  0  0  0  0  0  0  0  0  0  0  0
   16.3026  -14.2558  -16.0993 O   0  0  0  0  0  0  0  0  0  0  0  0
   16.9635   -9.0690  -13.9520 C   0  0  0  0  0  0  0  0  0  0  0  0
   16.2095   -8.4547  -14.7555 O   0  0  0  0  0  0  0  0  0  0  0  0
   14.4938  -13.6817  -14.8863 O   0  0  0  0  0  0  0  0  0  0  0  0
   15.6817   -7.3908   -8.0127 N   0  0  0  0  0  0  0  0  0  0  0  0
   14.9704   -6.4538   -8.7962 C   0  0  0  0  0  0  0  0  0  0  0  0
   14.2135   -5.6272   -8.2543 O   0  0  0  0  0  0  0  0  0  0  0  0
   15.0979   -6.4188  -10.2885 C   0  0  0  0  0  0  0  0  0  0  0  0
   16.0026   -7.5286  -10.7216 C   0  0  0  0  0  0  0  0  0  0  0  0
   16.2298   -7.4625  -12.2175 C   0  0  2  0  0  0  0  0  0  0  0  0
   17.0495   -8.5921  -12.6350 N   0  0  0  0  0  0  0  0  0  0  0  0
   16.8432   -6.2086  -12.6582 C   0  0  0  0  0  0  0  0  0  0  0  0
   18.0976   -5.9927  -12.5318 O   0  0  0  0  0  0  0  0  0  0  0  0
   16.1357   -5.1122  -13.2642 N   0  0  0  0  0  0  0  0  0  0  0  0
   16.8271   -3.9322  -13.7448 C   0  0  1  0  0  0  0  0  0  0  0  0
   16.9141   -3.8617  -15.2389 C   0  0  0  0  0  0  0  0  0  0  0  0
   17.5147   -2.6270  -15.7578 C   0  0  0  0  0  0  0  0  0  0  0  0
   16.9070   -1.9610  -16.6267 O   0  0  0  0  0  0  0  0  0  0  0  0
   16.2897   -2.6962  -13.1140 C   0  0  0  0  0  0  0  0  0  0  0  0
   15.2133   -2.6811  -12.4576 O   0  0  0  0  0  0  0  0  0  0  0  0
   18.7423   -2.1688  -15.3154 O   0  0  0  0  0  0  0  0  0  0  0  0
   16.9426   -1.4769  -13.2081 O   0  0  0  0  0  0  0  0  0  0  0  0
  2  1  1  1
  2  7  1  0
  3  2  1  0
  3  4  1  0
  4  5  1  0
  5  6  2  0
  7  8  2  0
  9  5  1  0
 11 10  1  0
 11 13  1  0
 12 11  2  0
 14 13  1  0
 15 14  1  1
 16 15  1  0
 16  7  1  0
 17 15  1  0
 17 19  1  0
 18 17  2  0
 20 19  1  0
 20 21  1  6
 22 21  1  0
 22 26  1  0
 23 22  2  0
 24 20  1  0
 24 27  1  0
 25 24  2  0
M  END
$$$$
