EQD.pdb
     RDKit          3D

 27 26  0  0  1  0  0  0  0  0999 V2000
   17.4645  -17.2158  -16.9165 N   0  0  0  0  0  0  0  0  0  0  0  0
   17.6411  -16.8056  -15.5382 C   0  0  1  0  0  0  0  0  0  0  0  0
   18.4521  -17.7312  -14.7305 C   0  0  0  0  0  0  0  0  0  0  0  0
   18.2909  -19.1848  -14.9267 C   0  0  0  0  0  0  0  0  0  0  0  0
   19.0632  -20.0900  -14.1044 C   0  0  0  0  0  0  0  0  0  0  0  0
   18.9259  -21.3304  -14.1982 O   0  0  0  0  0  0  0  0  0  0  0  0
   18.0128  -15.3882  -15.4482 C   0  0  0  0  0  0  0  0  0  0  0  0
   18.1380  -14.8571  -14.3107 O   0  0  0  0  0  0  0  0  0  0  0  0
   19.9826  -19.6206  -13.1820 O   0  0  0  0  0  0  0  0  0  0  0  0
   20.8210  -11.7768  -19.7650 N   0  0  0  0  0  0  0  0  0  0  0  0
   20.7535  -10.9577  -18.6150 C   0  0  0  0  0  0  0  0  0  0  0  0
   21.3214   -9.8500  -18.5983 O   0  0  0  0  0  0  0  0  0  0  0  0
   20.0061  -11.3842  -17.3887 C   0  0  0  0  0  0  0  0  0  0  0  0
   19.4683  -12.7630  -17.6065 C   0  0  0  0  0  0  0  0  0  0  0  0
   18.6470  -13.1974  -16.4105 C   0  0  2  0  0  0  0  0  0  0  0  0
   18.2430  -14.5871  -16.5771 N   0  0  0  0  0  0  0  0  0  0  0  0
   17.4704  -12.3584  -16.1768 C   0  0  0  0  0  0  0  0  0  0  0  0
   16.3604  -12.5753  -16.7742 O   0  0  0  0  0  0  0  0  0  0  0  0
   17.4237  -11.2340  -15.2806 N   0  0  0  0  0  0  0  0  0  0  0  0
   16.2076  -10.4714  -15.0781 C   0  0  1  0  0  0  0  0  0  0  0  0
   15.2290  -11.1447  -14.1650 C   0  0  0  0  0  0  0  0  0  0  0  0
   14.0569  -10.3313  -13.8197 C   0  0  0  0  0  0  0  0  0  0  0  0
   13.5660   -9.5591  -14.6746 O   0  0  0  0  0  0  0  0  0  0  0  0
   16.5086   -9.0627  -14.7047 C   0  0  0  0  0  0  0  0  0  0  0  0
   17.5662   -8.7301  -14.1045 O   0  0  0  0  0  0  0  0  0  0  0  0
   13.4693  -10.3890  -12.5691 O   0  0  0  0  0  0  0  0  0  0  0  0
   15.6407   -8.0215  -14.9955 O   0  0  0  0  0  0  0  0  0  0  0  0
  2  1  1  6
  2  7  1  0
  3  2  1  0
  3  4  1  0
  4  5  1  0
  5  6  2  0
  7  8  2  0
  9  5  1  0
 11 10  1  0
 11 13  1  0
 12 11  2  0
 14 13  1  0
 15 14  1  6
 16 15  1  0
 16  7  1  0
 17 15  1  0
 17 19  1  0
 18 17  2  0
 20 19  1  0
 20 21  1  1
 22 21  1  0
 22 26  1  0
 23 22  2  0
 24 20  1  0
 24 27  1  0
 25 24  2  0
M  END
$$$$
