EQD.pdb
     RDKit          3D

 27 26  0  0  1  0  0  0  0  0999 V2000
   21.2525  -10.1886  -15.4837 N   0  0  0  0  0  0  0  0  0  0  0  0
   19.8083  -10.0992  -15.5560 C   0  0  1  0  0  0  0  0  0  0  0  0
   19.1048  -11.3261  -15.1477 C   0  0  0  0  0  0  0  0  0  0  0  0
   19.5693  -12.6265  -15.6679 C   0  0  0  0  0  0  0  0  0  0  0  0
   18.8527  -13.8251  -15.2912 C   0  0  0  0  0  0  0  0  0  0  0  0
   17.6443  -13.9772  -15.5793 O   0  0  0  0  0  0  0  0  0  0  0  0
   19.3211   -8.8538  -14.9502 C   0  0  0  0  0  0  0  0  0  0  0  0
   18.0818   -8.6175  -14.9442 O   0  0  0  0  0  0  0  0  0  0  0  0
   19.4742  -14.8493  -14.5975 O   0  0  0  0  0  0  0  0  0  0  0  0
   21.4218   -6.0129   -9.9275 N   0  0  0  0  0  0  0  0  0  0  0  0
   20.1724   -6.6730   -9.9556 C   0  0  0  0  0  0  0  0  0  0  0  0
   19.5977   -6.9762   -8.8937 O   0  0  0  0  0  0  0  0  0  0  0  0
   19.4997   -7.0284  -11.2462 C   0  0  0  0  0  0  0  0  0  0  0  0
   20.3326   -6.5204  -12.3802 C   0  0  0  0  0  0  0  0  0  0  0  0
   19.6135   -6.7405  -13.6949 C   0  0  2  0  0  0  0  0  0  0  0  0
   20.1746   -7.9049  -14.3668 N   0  0  0  0  0  0  0  0  0  0  0  0
   19.6587   -5.5789  -14.5845 C   0  0  0  0  0  0  0  0  0  0  0  0
   20.6915   -5.3122  -15.2905 O   0  0  0  0  0  0  0  0  0  0  0  0
   18.5875   -4.6356  -14.7650 N   0  0  0  0  0  0  0  0  0  0  0  0
   18.7021   -3.5193  -15.6826 C   0  0  1  0  0  0  0  0  0  0  0  0
   18.1657   -3.8163  -17.0496 C   0  0  0  0  0  0  0  0  0  0  0  0
   18.1618   -2.6698  -17.9663 C   0  0  0  0  0  0  0  0  0  0  0  0
   18.9690   -1.7298  -17.7849 O   0  0  0  0  0  0  0  0  0  0  0  0
   18.1627   -2.2688  -15.0828 C   0  0  0  0  0  0  0  0  0  0  0  0
   17.0997   -2.2437  -14.4053 O   0  0  0  0  0  0  0  0  0  0  0  0
   17.2878   -2.5910  -19.0352 O   0  0  0  0  0  0  0  0  0  0  0  0
   18.7987   -1.0460  -15.2314 O   0  0  0  0  0  0  0  0  0  0  0  0
  2  1  1  1
  2  7  1  0
  3  2  1  0
  3  4  1  0
  4  5  1  0
  5  6  2  0
  7  8  2  0
  9  5  1  0
 11 10  1  0
 11 13  1  0
 12 11  2  0
 14 13  1  0
 15 14  1  1
 16 15  1  0
 16  7  1  0
 17 15  1  0
 17 19  1  0
 18 17  2  0
 20 19  1  0
 20 21  1  6
 22 21  1  0
 22 26  1  0
 23 22  2  0
 24 20  1  0
 24 27  1  0
 25 24  2  0
M  END
$$$$
