EQD.pdb
     RDKit          3D

 27 26  0  0  1  0  0  0  0  0999 V2000
   18.9747  -10.6486  -17.1016 N   0  0  0  0  0  0  0  0  0  0  0  0
   17.9596   -9.8826  -16.4073 C   0  0  1  0  0  0  0  0  0  0  0  0
   17.0413  -10.6941  -15.5917 C   0  0  0  0  0  0  0  0  0  0  0  0
   17.5774  -11.8416  -14.8347 C   0  0  0  0  0  0  0  0  0  0  0  0
   16.8140  -13.0695  -14.7948 C   0  0  0  0  0  0  0  0  0  0  0  0
   16.0384  -13.3216  -13.8455 O   0  0  0  0  0  0  0  0  0  0  0  0
   18.5409   -8.7121  -15.7383 C   0  0  0  0  0  0  0  0  0  0  0  0
   17.7934   -7.9634  -15.0510 O   0  0  0  0  0  0  0  0  0  0  0  0
   16.9118  -14.0130  -15.8030 O   0  0  0  0  0  0  0  0  0  0  0  0
   21.5387   -7.0511  -12.0711 N   0  0  0  0  0  0  0  0  0  0  0  0
   22.1726   -5.9981  -12.7691 C   0  0  0  0  0  0  0  0  0  0  0  0
   22.5815   -4.9946  -12.1564 O   0  0  0  0  0  0  0  0  0  0  0  0
   22.3747   -6.0478  -14.2527 C   0  0  0  0  0  0  0  0  0  0  0  0
   21.8238   -7.3381  -14.7718 C   0  0  0  0  0  0  0  0  0  0  0  0
   20.3899   -7.1496  -15.2214 C   0  0  2  0  0  0  0  0  0  0  0  0
   19.9026   -8.3839  -15.8223 N   0  0  0  0  0  0  0  0  0  0  0  0
   20.2141   -6.0351  -16.1541 C   0  0  0  0  0  0  0  0  0  0  0  0
   20.7032   -6.0634  -17.3356 O   0  0  0  0  0  0  0  0  0  0  0  0
   19.4967   -4.8222  -15.8645 N   0  0  0  0  0  0  0  0  0  0  0  0
   19.3796   -3.7554  -16.8390 C   0  0  1  0  0  0  0  0  0  0  0  0
   18.1240   -2.9513  -16.6919 C   0  0  0  0  0  0  0  0  0  0  0  0
   16.8855   -3.7373  -16.7492 C   0  0  0  0  0  0  0  0  0  0  0  0
   16.7788   -4.6638  -17.5848 O   0  0  0  0  0  0  0  0  0  0  0  0
   20.6185   -2.9328  -16.8917 C   0  0  0  0  0  0  0  0  0  0  0  0
   20.8807   -2.1600  -17.8528 O   0  0  0  0  0  0  0  0  0  0  0  0
   15.8207   -3.4871  -15.9030 O   0  0  0  0  0  0  0  0  0  0  0  0
   21.5675   -2.9638  -15.8816 O   0  0  0  0  0  0  0  0  0  0  0  0
  2  1  1  1
  2  7  1  0
  3  2  1  0
  3  4  1  0
  4  5  1  0
  5  6  2  0
  7  8  2  0
  9  5  1  0
 11 10  1  0
 11 13  1  0
 12 11  2  0
 14 13  1  0
 15 14  1  6
 16 15  1  0
 16  7  1  0
 17 15  1  0
 17 19  1  0
 18 17  2  0
 20 19  1  0
 20 21  1  1
 22 21  1  0
 22 26  1  0
 23 22  2  0
 24 20  1  0
 24 27  1  0
 25 24  2  0
M  END
$$$$
