EQD.pdb
     RDKit          3D

 27 26  0  0  1  0  0  0  0  0999 V2000
   15.9785  -13.3881  -13.0559 N   0  0  0  0  0  0  0  0  0  0  0  0
   16.4629  -12.5018  -14.0946 C   0  0  1  0  0  0  0  0  0  0  0  0
   16.1655  -12.9541  -15.4634 C   0  0  0  0  0  0  0  0  0  0  0  0
   15.9437  -14.3916  -15.7119 C   0  0  0  0  0  0  0  0  0  0  0  0
   15.5489  -14.8182  -17.0363 C   0  0  0  0  0  0  0  0  0  0  0  0
   15.3312  -16.0237  -17.2926 O   0  0  0  0  0  0  0  0  0  0  0  0
   16.1290  -11.1030  -13.7990 C   0  0  0  0  0  0  0  0  0  0  0  0
   15.8128  -10.3335  -14.7475 O   0  0  0  0  0  0  0  0  0  0  0  0
   15.3974  -13.9114  -18.0712 O   0  0  0  0  0  0  0  0  0  0  0  0
   14.5396   -8.7949   -8.1940 N   0  0  0  0  0  0  0  0  0  0  0  0
   13.6718   -9.4979   -9.0603 C   0  0  0  0  0  0  0  0  0  0  0  0
   12.6091   -9.9816   -8.6287 O   0  0  0  0  0  0  0  0  0  0  0  0
   13.9922   -9.6855  -10.5118 C   0  0  0  0  0  0  0  0  0  0  0  0
   15.3159   -9.0509  -10.7996 C   0  0  0  0  0  0  0  0  0  0  0  0
   15.6666   -9.2172  -12.2636 C   0  0  2  0  0  0  0  0  0  0  0  0
   16.1394  -10.5749  -12.4990 N   0  0  0  0  0  0  0  0  0  0  0  0
   16.6598   -8.2518  -12.7374 C   0  0  0  0  0  0  0  0  0  0  0  0
   17.9152   -8.4618  -12.6113 O   0  0  0  0  0  0  0  0  0  0  0  0
   16.3540   -7.0005  -13.3779 N   0  0  0  0  0  0  0  0  0  0  0  0
   17.3935   -6.1496  -13.9228 C   0  0  1  0  0  0  0  0  0  0  0  0
   18.3358   -6.8732  -14.8357 C   0  0  0  0  0  0  0  0  0  0  0  0
   19.2551   -6.0027  -15.5786 C   0  0  0  0  0  0  0  0  0  0  0  0
   19.7982   -5.0361  -14.9966 O   0  0  0  0  0  0  0  0  0  0  0  0
   16.8229   -4.9066  -14.5089 C   0  0  0  0  0  0  0  0  0  0  0  0
   15.6080   -4.8020  -14.8295 O   0  0  0  0  0  0  0  0  0  0  0  0
   19.5454   -6.2156  -16.9139 O   0  0  0  0  0  0  0  0  0  0  0  0
   17.5951   -3.7787  -14.7399 O   0  0  0  0  0  0  0  0  0  0  0  0
  2  1  1  1
  2  7  1  0
  3  2  1  0
  3  4  1  0
  4  5  1  0
  5  6  2  0
  7  8  2  0
  9  5  1  0
 11 10  1  0
 11 13  1  0
 12 11  2  0
 14 13  1  0
 15 14  1  1
 16 15  1  0
 16  7  1  0
 17 15  1  0
 17 19  1  0
 18 17  2  0
 20 19  1  0
 20 21  1  6
 22 21  1  0
 22 26  1  0
 23 22  2  0
 24 20  1  0
 24 27  1  0
 25 24  2  0
M  END
$$$$
