EQD.pdb
     RDKit          3D

 27 26  0  0  1  0  0  0  0  0999 V2000
   18.1165  -10.6255  -16.9484 N   0  0  0  0  0  0  0  0  0  0  0  0
   18.5268  -10.3471  -15.5871 C   0  0  1  0  0  0  0  0  0  0  0  0
   18.5687  -11.5311  -14.7135 C   0  0  0  0  0  0  0  0  0  0  0  0
   17.3726  -12.3888  -14.6094 C   0  0  0  0  0  0  0  0  0  0  0  0
   17.0623  -13.2889  -15.6982 C   0  0  0  0  0  0  0  0  0  0  0  0
   17.9088  -14.1040  -16.1286 O   0  0  0  0  0  0  0  0  0  0  0  0
   19.7177   -9.4891  -15.5551 C   0  0  0  0  0  0  0  0  0  0  0  0
   20.0831   -8.9864  -14.4572 O   0  0  0  0  0  0  0  0  0  0  0  0
   15.8189  -13.2835  -16.3068 O   0  0  0  0  0  0  0  0  0  0  0  0
   24.1239   -8.7836  -20.0483 N   0  0  0  0  0  0  0  0  0  0  0  0
   24.6271   -8.0432  -18.9545 C   0  0  0  0  0  0  0  0  0  0  0  0
   25.7369   -7.4846  -19.0311 O   0  0  0  0  0  0  0  0  0  0  0  0
   23.8553   -7.9033  -17.6781 C   0  0  0  0  0  0  0  0  0  0  0  0
   22.5381   -8.5955  -17.8324 C   0  0  0  0  0  0  0  0  0  0  0  0
   21.7147   -8.4370  -16.5712 C   0  0  2  0  0  0  0  0  0  0  0  0
   20.4809   -9.2011  -16.6969 N   0  0  0  0  0  0  0  0  0  0  0  0
   21.4094   -7.0426  -16.2469 C   0  0  0  0  0  0  0  0  0  0  0  0
   20.7267   -6.3026  -17.0358 O   0  0  0  0  0  0  0  0  0  0  0  0
   21.8238   -6.3646  -15.0475 N   0  0  0  0  0  0  0  0  0  0  0  0
   21.4335   -4.9958  -14.7728 C   0  0  1  0  0  0  0  0  0  0  0  0
   19.9530   -4.7755  -14.8380 C   0  0  0  0  0  0  0  0  0  0  0  0
   19.5142   -3.4436  -14.4041 C   0  0  0  0  0  0  0  0  0  0  0  0
   20.1368   -2.4295  -14.7940 O   0  0  0  0  0  0  0  0  0  0  0  0
   22.0621   -4.4953  -13.5203 C   0  0  0  0  0  0  0  0  0  0  0  0
   22.7251   -5.2397  -12.7484 O   0  0  0  0  0  0  0  0  0  0  0  0
   18.4249   -3.2681  -13.5702 O   0  0  0  0  0  0  0  0  0  0  0  0
   21.9584   -3.1717  -13.1214 O   0  0  0  0  0  0  0  0  0  0  0  0
  2  1  1  6
  2  7  1  0
  3  2  1  0
  3  4  1  0
  4  5  1  0
  5  6  2  0
  7  8  2  0
  9  5  1  0
 11 10  1  0
 11 13  1  0
 12 11  2  0
 14 13  1  0
 15 14  1  6
 16 15  1  0
 16  7  1  0
 17 15  1  0
 17 19  1  0
 18 17  2  0
 20 19  1  0
 20 21  1  1
 22 21  1  0
 22 26  1  0
 23 22  2  0
 24 20  1  0
 24 27  1  0
 25 24  2  0
M  END
$$$$
