EQD.pdb
     RDKit          3D

 27 26  0  0  1  0  0  0  0  0999 V2000
   17.9294  -10.2445  -17.8777 N   0  0  0  0  0  0  0  0  0  0  0  0
   17.6176   -9.7442  -16.5542 C   0  0  1  0  0  0  0  0  0  0  0  0
   17.0204  -10.7444  -15.6543 C   0  0  0  0  0  0  0  0  0  0  0  0
   17.6588  -12.0688  -15.5290 C   0  0  0  0  0  0  0  0  0  0  0  0
   17.0146  -13.0805  -14.7205 C   0  0  0  0  0  0  0  0  0  0  0  0
   17.4914  -14.2333  -14.6209 O   0  0  0  0  0  0  0  0  0  0  0  0
   18.7379   -8.9753  -15.9983 C   0  0  0  0  0  0  0  0  0  0  0  0
   18.5550   -8.2909  -14.9544 O   0  0  0  0  0  0  0  0  0  0  0  0
   15.8466  -12.8140  -14.0269 O   0  0  0  0  0  0  0  0  0  0  0  0
   24.8693   -9.3547  -17.5605 N   0  0  0  0  0  0  0  0  0  0  0  0
   24.8532   -8.5053  -16.4309 C   0  0  0  0  0  0  0  0  0  0  0  0
   25.9204   -8.1042  -15.9310 O   0  0  0  0  0  0  0  0  0  0  0  0
   23.5694   -8.0602  -15.8000 C   0  0  0  0  0  0  0  0  0  0  0  0
   22.4276   -8.6867  -16.5359 C   0  0  0  0  0  0  0  0  0  0  0  0
   21.1136   -8.2870  -15.8975 C   0  0  2  0  0  0  0  0  0  0  0  0
   20.0176   -8.9675  -16.5741 N   0  0  0  0  0  0  0  0  0  0  0  0
   20.8821   -6.8416  -15.8982 C   0  0  0  0  0  0  0  0  0  0  0  0
   20.7580   -6.1809  -16.9864 O   0  0  0  0  0  0  0  0  0  0  0  0
   20.7697   -6.0234  -14.7202 N   0  0  0  0  0  0  0  0  0  0  0  0
   20.6015   -4.5861  -14.8043 C   0  0  1  0  0  0  0  0  0  0  0  0
   19.2148   -4.1293  -14.4676 C   0  0  0  0  0  0  0  0  0  0  0  0
   19.0460   -2.6719  -14.4232 C   0  0  0  0  0  0  0  0  0  0  0  0
   19.5972   -1.9583  -15.2922 O   0  0  0  0  0  0  0  0  0  0  0  0
   21.6695   -3.8719  -14.0535 C   0  0  0  0  0  0  0  0  0  0  0  0
   22.3609   -4.4302  -13.1592 O   0  0  0  0  0  0  0  0  0  0  0  0
   18.2910   -2.0526  -13.4438 O   0  0  0  0  0  0  0  0  0  0  0  0
   21.9738   -2.5405  -14.2919 O   0  0  0  0  0  0  0  0  0  0  0  0
  2  1  1  6
  2  7  1  0
  3  2  1  0
  3  4  1  0
  4  5  1  0
  5  6  2  0
  7  8  2  0
  9  5  1  0
 11 10  1  0
 11 13  1  0
 12 11  2  0
 14 13  1  0
 15 14  1  6
 16 15  1  0
 16  7  1  0
 17 15  1  0
 17 19  1  0
 18 17  2  0
 20 19  1  0
 20 21  1  1
 22 21  1  0
 22 26  1  0
 23 22  2  0
 24 20  1  0
 24 27  1  0
 25 24  2  0
M  END
$$$$
