EQD.pdb
     RDKit          3D

 27 26  0  0  1  0  0  0  0  0999 V2000
   16.0517  -11.9230  -12.2563 N   0  0  0  0  0  0  0  0  0  0  0  0
   15.8842  -11.3979  -13.5961 C   0  0  1  0  0  0  0  0  0  0  0  0
   14.6683  -11.8654  -14.2817 C   0  0  0  0  0  0  0  0  0  0  0  0
   13.7956  -12.8452  -13.6065 C   0  0  0  0  0  0  0  0  0  0  0  0
   12.5496  -13.2213  -14.2374 C   0  0  0  0  0  0  0  0  0  0  0  0
   12.5282  -13.7345  -15.3786 O   0  0  0  0  0  0  0  0  0  0  0  0
   16.1195   -9.9492  -13.6333 C   0  0  0  0  0  0  0  0  0  0  0  0
   16.0076   -9.3368  -14.7306 O   0  0  0  0  0  0  0  0  0  0  0  0
   11.3334  -13.0277  -13.6050 O   0  0  0  0  0  0  0  0  0  0  0  0
   14.8296   -5.7586   -9.3079 N   0  0  0  0  0  0  0  0  0  0  0  0
   16.0735   -6.4002   -9.1109 C   0  0  0  0  0  0  0  0  0  0  0  0
   16.6682   -6.2973   -8.0221 O   0  0  0  0  0  0  0  0  0  0  0  0
   16.7160   -7.2179  -10.1893 C   0  0  0  0  0  0  0  0  0  0  0  0
   15.9049   -7.0900  -11.4397 C   0  0  0  0  0  0  0  0  0  0  0  0
   16.6198   -7.7582  -12.5957 C   0  0  2  0  0  0  0  0  0  0  0  0
   16.4617   -9.2028  -12.4953 N   0  0  0  0  0  0  0  0  0  0  0  0
   18.0403   -7.4144  -12.6784 C   0  0  0  0  0  0  0  0  0  0  0  0
   18.9262   -8.0505  -12.0100 O   0  0  0  0  0  0  0  0  0  0  0  0
   18.5885   -6.3614  -13.4911 N   0  0  0  0  0  0  0  0  0  0  0  0
   20.0178   -6.1405  -13.5891 C   0  0  1  0  0  0  0  0  0  0  0  0
   20.6989   -7.0725  -14.5443 C   0  0  0  0  0  0  0  0  0  0  0  0
   22.1389   -6.8369  -14.7049 C   0  0  0  0  0  0  0  0  0  0  0  0
   22.7649   -6.2063  -13.8226 O   0  0  0  0  0  0  0  0  0  0  0  0
   20.3281   -4.7044  -13.8248 C   0  0  0  0  0  0  0  0  0  0  0  0
   19.4562   -3.8730  -14.1967 O   0  0  0  0  0  0  0  0  0  0  0  0
   22.8357   -7.2923  -15.8093 O   0  0  0  0  0  0  0  0  0  0  0  0
   21.6021   -4.1869  -13.6486 O   0  0  0  0  0  0  0  0  0  0  0  0
  2  1  1  1
  2  7  1  0
  3  2  1  0
  3  4  1  0
  4  5  1  0
  5  6  2  0
  7  8  2  0
  9  5  1  0
 11 10  1  0
 11 13  1  0
 12 11  2  0
 14 13  1  0
 15 14  1  1
 16 15  1  0
 16  7  1  0
 17 15  1  0
 17 19  1  0
 18 17  2  0
 20 19  1  0
 20 21  1  6
 22 21  1  0
 22 26  1  0
 23 22  2  0
 24 20  1  0
 24 27  1  0
 25 24  2  0
M  END
$$$$
