EQD.pdb
     RDKit          3D

 27 26  0  0  1  0  0  0  0  0999 V2000
   17.6260  -14.0996  -15.7655 N   0  0  0  0  0  0  0  0  0  0  0  0
   17.1434  -12.7397  -15.8952 C   0  0  1  0  0  0  0  0  0  0  0  0
   16.3172  -12.2805  -14.7668 C   0  0  0  0  0  0  0  0  0  0  0  0
   15.1491  -13.0846  -14.3588 C   0  0  0  0  0  0  0  0  0  0  0  0
   15.3603  -14.2530  -13.5328 C   0  0  0  0  0  0  0  0  0  0  0  0
   16.1028  -14.2114  -12.5262 O   0  0  0  0  0  0  0  0  0  0  0  0
   18.2193  -11.8303  -16.3086 C   0  0  0  0  0  0  0  0  0  0  0  0
   19.4104  -12.1066  -15.9978 O   0  0  0  0  0  0  0  0  0  0  0  0
   14.7511  -15.4617  -13.8233 O   0  0  0  0  0  0  0  0  0  0  0  0
   18.7412   -8.5048  -21.4566 N   0  0  0  0  0  0  0  0  0  0  0  0
   19.8329   -8.0308  -20.6941 C   0  0  0  0  0  0  0  0  0  0  0  0
   20.6619   -7.2522  -21.2001 O   0  0  0  0  0  0  0  0  0  0  0  0
   20.0321   -8.4407  -19.2669 C   0  0  0  0  0  0  0  0  0  0  0  0
   18.9195   -9.3580  -18.8686 C   0  0  0  0  0  0  0  0  0  0  0  0
   19.1063   -9.8130  -17.4362 C   0  0  2  0  0  0  0  0  0  0  0  0
   17.9865  -10.6586  -17.0448 N   0  0  0  0  0  0  0  0  0  0  0  0
   19.2538   -8.7070  -16.4887 C   0  0  0  0  0  0  0  0  0  0  0  0
   18.2549   -8.2373  -15.8425 O   0  0  0  0  0  0  0  0  0  0  0  0
   20.4926   -8.0427  -16.1822 N   0  0  0  0  0  0  0  0  0  0  0  0
   20.5436   -6.8977  -15.2947 C   0  0  1  0  0  0  0  0  0  0  0  0
   21.6087   -7.0053  -14.2464 C   0  0  0  0  0  0  0  0  0  0  0  0
   21.6680   -5.8703  -13.3176 C   0  0  0  0  0  0  0  0  0  0  0  0
   20.6053   -5.3667  -12.8872 O   0  0  0  0  0  0  0  0  0  0  0  0
   20.5785   -5.6218  -16.0597 C   0  0  0  0  0  0  0  0  0  0  0  0
   21.1402   -5.5187  -17.1837 O   0  0  0  0  0  0  0  0  0  0  0  0
   22.8703   -5.3318  -12.8966 O   0  0  0  0  0  0  0  0  0  0  0  0
   19.9919   -4.4599  -15.5824 O   0  0  0  0  0  0  0  0  0  0  0  0
  2  1  1  1
  2  7  1  0
  3  2  1  0
  3  4  1  0
  4  5  1  0
  5  6  2  0
  7  8  2  0
  9  5  1  0
 11 10  1  0
 11 13  1  0
 12 11  2  0
 14 13  1  0
 15 14  1  6
 16 15  1  0
 16  7  1  0
 17 15  1  0
 17 19  1  0
 18 17  2  0
 20 19  1  0
 20 21  1  6
 22 21  1  0
 22 26  1  0
 23 22  2  0
 24 20  1  0
 24 27  1  0
 25 24  2  0
M  END
$$$$
