EQD.pdb
     RDKit          3D

 27 26  0  0  1  0  0  0  0  0999 V2000
   28.5136  -21.1701  -15.9828 N   0  0  0  0  0  0  0  0  0  0  0  0
   27.9118  -20.2587  -15.0308 C   0  0  1  0  0  0  0  0  0  0  0  0
   27.7102  -18.8938  -15.5439 C   0  0  0  0  0  0  0  0  0  0  0  0
   27.4214  -18.7018  -16.9782 C   0  0  0  0  0  0  0  0  0  0  0  0
   27.8585  -17.4820  -17.6210 C   0  0  0  0  0  0  0  0  0  0  0  0
   28.5179  -16.6198  -16.9982 O   0  0  0  0  0  0  0  0  0  0  0  0
   26.7514  -20.8690  -14.3702 C   0  0  0  0  0  0  0  0  0  0  0  0
   26.1997  -21.8718  -14.9009 O   0  0  0  0  0  0  0  0  0  0  0  0
   27.5641  -17.2204  -18.9482 O   0  0  0  0  0  0  0  0  0  0  0  0
   24.9877  -20.6583   -8.3268 N   0  0  0  0  0  0  0  0  0  0  0  0
   26.1693  -21.1261   -8.9455 C   0  0  0  0  0  0  0  0  0  0  0  0
   27.1971  -21.3213   -8.2708 O   0  0  0  0  0  0  0  0  0  0  0  0
   26.2303  -21.4017  -10.4169 C   0  0  0  0  0  0  0  0  0  0  0  0
   25.0441  -20.7715  -11.0754 C   0  0  0  0  0  0  0  0  0  0  0  0
   25.0673  -21.0462  -12.5646 C   0  0  2  0  0  0  0  0  0  0  0  0
   26.2226  -20.3898  -13.1620 N   0  0  0  0  0  0  0  0  0  0  0  0
   23.8439  -20.6302  -13.2523 C   0  0  0  0  0  0  0  0  0  0  0  0
   23.7417  -19.4826  -13.8078 O   0  0  0  0  0  0  0  0  0  0  0  0
   22.6565  -21.4323  -13.3814 N   0  0  0  0  0  0  0  0  0  0  0  0
   21.4515  -20.9152  -13.9994 C   0  0  1  0  0  0  0  0  0  0  0  0
   20.8837  -21.8240  -15.0464 C   0  0  0  0  0  0  0  0  0  0  0  0
   19.6267  -21.3571  -15.6437 C   0  0  0  0  0  0  0  0  0  0  0  0
   19.5709  -20.2151  -16.1542 O   0  0  0  0  0  0  0  0  0  0  0  0
   20.4615  -20.4832  -12.9759 C   0  0  0  0  0  0  0  0  0  0  0  0
   20.4916  -20.8957  -11.7849 O   0  0  0  0  0  0  0  0  0  0  0  0
   18.4893  -22.1436  -15.6622 O   0  0  0  0  0  0  0  0  0  0  0  0
   19.4385  -19.5946  -13.2688 O   0  0  0  0  0  0  0  0  0  0  0  0
  2  1  1  6
  2  7  1  0
  3  2  1  0
  3  4  1  0
  4  5  1  0
  5  6  2  0
  7  8  2  0
  9  5  1  0
 11 10  1  0
 11 13  1  0
 12 11  2  0
 14 13  1  0
 15 14  1  1
 16 15  1  0
 16  7  1  0
 17 15  1  0
 17 19  1  0
 18 17  2  0
 20 19  1  0
 20 21  1  1
 22 21  1  0
 22 26  1  0
 23 22  2  0
 24 20  1  0
 24 27  1  0
 25 24  2  0
M  END
$$$$
