EQD.pdb
     RDKit          3D

 27 26  0  0  1  0  0  0  0  0999 V2000
   12.5743  -11.6629  -10.8143 N   0  0  0  0  0  0  0  0  0  0  0  0
   14.0211  -11.6010  -10.8609 C   0  0  1  0  0  0  0  0  0  0  0  0
   14.6446  -12.6389  -11.6982 C   0  0  0  0  0  0  0  0  0  0  0  0
   14.3948  -14.0591  -11.3852 C   0  0  0  0  0  0  0  0  0  0  0  0
   15.0926  -15.0741  -12.1434 C   0  0  0  0  0  0  0  0  0  0  0  0
   14.6349  -15.5067  -13.2249 O   0  0  0  0  0  0  0  0  0  0  0  0
   14.4878  -10.2287  -11.0942 C   0  0  0  0  0  0  0  0  0  0  0  0
   14.0605   -9.5972  -12.0993 O   0  0  0  0  0  0  0  0  0  0  0  0
   16.2919  -15.6069  -11.7027 O   0  0  0  0  0  0  0  0  0  0  0  0
   15.3769   -5.5497   -7.2899 N   0  0  0  0  0  0  0  0  0  0  0  0
   14.2102   -6.0743   -7.8912 C   0  0  0  0  0  0  0  0  0  0  0  0
   13.0853   -5.7547   -7.4644 O   0  0  0  0  0  0  0  0  0  0  0  0
   14.2805   -7.0218   -9.0495 C   0  0  0  0  0  0  0  0  0  0  0  0
   15.7144   -7.3583   -9.3111 C   0  0  0  0  0  0  0  0  0  0  0  0
   15.8298   -8.2209  -10.5507 C   0  0  2  0  0  0  0  0  0  0  0  0
   15.3919   -9.5757  -10.2425 N   0  0  0  0  0  0  0  0  0  0  0  0
   17.1791   -8.2474  -11.1177 C   0  0  0  0  0  0  0  0  0  0  0  0
   18.1165   -8.9399  -10.5907 O   0  0  0  0  0  0  0  0  0  0  0  0
   17.5952   -7.5266  -12.2911 N   0  0  0  0  0  0  0  0  0  0  0  0
   18.9504   -7.6144  -12.7982 C   0  0  1  0  0  0  0  0  0  0  0  0
   19.1229   -8.6632  -13.8542 C   0  0  0  0  0  0  0  0  0  0  0  0
   20.4561   -8.6986  -14.4675 C   0  0  0  0  0  0  0  0  0  0  0  0
   20.9416   -7.6517  -14.9536 O   0  0  0  0  0  0  0  0  0  0  0  0
   19.4694   -6.2756  -13.1889 C   0  0  0  0  0  0  0  0  0  0  0  0
   18.7125   -5.3258  -13.5274 O   0  0  0  0  0  0  0  0  0  0  0  0
   21.2028   -9.8611  -14.5277 O   0  0  0  0  0  0  0  0  0  0  0  0
   20.8251   -5.9864  -13.2048 O   0  0  0  0  0  0  0  0  0  0  0  0
  2  1  1  6
  2  7  1  0
  3  2  1  0
  3  4  1  0
  4  5  1  0
  5  6  2  0
  7  8  2  0
  9  5  1  0
 11 10  1  0
 11 13  1  0
 12 11  2  0
 14 13  1  0
 15 14  1  1
 16 15  1  0
 16  7  1  0
 17 15  1  0
 17 19  1  0
 18 17  2  0
 20 19  1  0
 20 21  1  6
 22 21  1  0
 22 26  1  0
 23 22  2  0
 24 20  1  0
 24 27  1  0
 25 24  2  0
M  END
$$$$
