GFM.pdb
     RDKit          3D

 24 24  0  0  1  0  0  0  0  0999 V2000
   10.6524  -17.1583   18.7204 N   0  0  0  0  0  0  0  0  0  0  0  0
    9.5235  -17.2317   19.6001 C   0  0  0  0  0  0  0  0  0  0  0  0
    9.6713  -16.3786   20.8039 C   0  0  0  0  0  0  0  0  0  0  0  0
   10.7646  -15.9483   21.2306 O   0  0  0  0  0  0  0  0  0  0  0  0
    8.4962  -16.0267   21.5197 N   0  0  0  0  0  0  0  0  0  0  0  0
    8.5290  -15.2111   22.7214 C   0  0  1  0  0  0  0  0  0  0  0  0
    7.1196  -14.7154   22.9155 C   0  0  0  0  0  0  0  0  0  0  0  0
    6.9188  -13.8523   24.0870 C   0  0  0  0  0  0  0  0  0  0  0  0
    7.2576  -12.5180   24.1022 C   0  0  0  0  0  0  0  0  0  0  0  0
    7.0513  -11.7156   25.2156 C   0  0  0  0  0  0  0  0  0  0  0  0
    6.4912  -12.2324   26.3651 C   0  0  0  0  0  0  0  0  0  0  0  0
    6.1487  -13.5688   26.3593 C   0  0  0  0  0  0  0  0  0  0  0  0
    6.3543  -14.3650   25.2520 C   0  0  0  0  0  0  0  0  0  0  0  0
    8.8705  -16.0838   23.8608 C   0  0  0  0  0  0  0  0  0  0  0  0
    8.6152  -17.3191   23.8836 O   0  0  0  0  0  0  0  0  0  0  0  0
   10.0481  -13.3791   29.3389 C   0  0  0  0  0  0  0  0  0  0  0  0
   10.9063  -14.9047   29.8181 S   0  0  0  0  0  0  0  0  0  0  0  0
   10.7935  -16.1368   28.4632 C   0  0  0  0  0  0  0  0  0  0  0  0
   10.2292  -15.4398   27.2675 C   0  0  0  0  0  0  0  0  0  0  0  0
   10.0718  -16.3356   26.0584 C   0  0  2  0  0  0  0  0  0  0  0  0
    9.5140  -15.5233   24.9875 N   0  0  0  0  0  0  0  0  0  0  0  0
    9.0769  -17.3926   26.3669 C   0  0  0  0  0  0  0  0  0  0  0  0
    9.5314  -18.6637   26.7638 O   0  0  0  0  0  0  0  0  0  0  0  0
    7.8342  -17.1912   26.2856 O   0  0  0  0  0  0  0  0  0  0  0  0
  1  2  1  0
  3  2  1  0
  3  4  2  0
  5  3  1  0
  6  5  1  0
  6 14  1  0
  6  7  1  1
  8 13  2  0
  8  7  1  0
  9  8  1  0
 10  9  2  0
 10 11  1  0
 11 12  2  0
 12 13  1  0
 14 21  1  0
 14 15  2  0
 17 16  1  0
 18 17  1  0
 18 19  1  0
 20 19  1  1
 20 22  1  0
 21 20  1  0
 22 24  2  0
 22 23  1  0
M  END
$$$$
