GFM.pdb
     RDKit          3D

 24 24  0  0  1  0  0  0  0  0999 V2000
    8.8039  -18.9079   19.5145 N   0  0  0  0  0  0  0  0  0  0  0  0
    8.1208  -18.6522   20.7480 C   0  0  0  0  0  0  0  0  0  0  0  0
    8.4489  -17.3275   21.3276 C   0  0  0  0  0  0  0  0  0  0  0  0
    9.3253  -16.5597   20.8749 O   0  0  0  0  0  0  0  0  0  0  0  0
    7.7218  -16.9015   22.4708 N   0  0  0  0  0  0  0  0  0  0  0  0
    7.9528  -15.6172   23.1091 C   0  0  1  0  0  0  0  0  0  0  0  0
    6.8860  -15.4896   24.1651 C   0  0  0  0  0  0  0  0  0  0  0  0
    6.8358  -14.1890   24.8459 C   0  0  0  0  0  0  0  0  0  0  0  0
    6.1261  -13.9769   26.0063 C   0  0  0  0  0  0  0  0  0  0  0  0
    6.0984  -12.7429   26.6409 C   0  0  0  0  0  0  0  0  0  0  0  0
    6.7908  -11.6674   26.1252 C   0  0  0  0  0  0  0  0  0  0  0  0
    7.5048  -11.8704   24.9622 C   0  0  0  0  0  0  0  0  0  0  0  0
    7.5314  -13.0973   24.3327 C   0  0  0  0  0  0  0  0  0  0  0  0
    9.2638  -15.6677   23.7837 C   0  0  0  0  0  0  0  0  0  0  0  0
   10.2063  -14.8719   23.5192 O   0  0  0  0  0  0  0  0  0  0  0  0
   10.8796  -13.9871   30.7121 C   0  0  0  0  0  0  0  0  0  0  0  0
    9.8842  -14.2464   29.2169 S   0  0  0  0  0  0  0  0  0  0  0  0
   10.7459  -15.4064   28.0862 C   0  0  0  0  0  0  0  0  0  0  0  0
    9.8736  -15.5971   26.8875 C   0  0  0  0  0  0  0  0  0  0  0  0
   10.4817  -16.4894   25.8277 C   0  0  2  0  0  0  0  0  0  0  0  0
    9.4894  -16.6495   24.7752 N   0  0  0  0  0  0  0  0  0  0  0  0
   10.7219  -17.8339   26.4081 C   0  0  0  0  0  0  0  0  0  0  0  0
   11.9298  -18.0792   27.0867 O   0  0  0  0  0  0  0  0  0  0  0  0
    9.8787  -18.7676   26.3145 O   0  0  0  0  0  0  0  0  0  0  0  0
  1  2  1  0
  3  2  1  0
  3  4  2  0
  5  3  1  0
  6  5  1  0
  6 14  1  0
  6  7  1  1
  8 13  2  0
  8  7  1  0
  9  8  1  0
 10  9  2  0
 10 11  1  0
 11 12  2  0
 12 13  1  0
 14 21  1  0
 14 15  2  0
 17 16  1  0
 18 17  1  0
 18 19  1  0
 20 19  1  1
 20 22  1  0
 21 20  1  0
 22 24  2  0
 22 23  1  0
M  END
$$$$
