GFM.pdb
     RDKit          3D

 24 24  0  0  1  0  0  0  0  0999 V2000
   10.7755  -17.4917   18.6106 N   0  0  0  0  0  0  0  0  0  0  0  0
    9.8443  -17.7598   19.6663 C   0  0  0  0  0  0  0  0  0  0  0  0
    9.9503  -16.7981   20.7899 C   0  0  0  0  0  0  0  0  0  0  0  0
   10.9871  -16.1600   21.0735 O   0  0  0  0  0  0  0  0  0  0  0  0
    8.8011  -16.5870   21.5972 N   0  0  0  0  0  0  0  0  0  0  0  0
    8.7924  -15.6601   22.7157 C   0  0  1  0  0  0  0  0  0  0  0  0
    7.3476  -15.2882   22.9251 C   0  0  0  0  0  0  0  0  0  0  0  0
    7.1039  -14.3168   23.9996 C   0  0  0  0  0  0  0  0  0  0  0  0
    7.4576  -12.9896   23.9050 C   0  0  0  0  0  0  0  0  0  0  0  0
    7.2103  -12.0840   24.9271 C   0  0  0  0  0  0  0  0  0  0  0  0
    6.5922  -12.4856   26.0928 C   0  0  0  0  0  0  0  0  0  0  0  0
    6.2344  -13.8140   26.1968 C   0  0  0  0  0  0  0  0  0  0  0  0
    6.4807  -14.7128   25.1802 C   0  0  0  0  0  0  0  0  0  0  0  0
    9.2599  -16.3814   23.9148 C   0  0  0  0  0  0  0  0  0  0  0  0
    9.2075  -17.6367   24.0282 O   0  0  0  0  0  0  0  0  0  0  0  0
    9.4956  -13.3809   29.3460 C   0  0  0  0  0  0  0  0  0  0  0  0
   10.8267  -14.5179   29.8245 S   0  0  0  0  0  0  0  0  0  0  0  0
   11.0480  -15.8003   28.5311 C   0  0  0  0  0  0  0  0  0  0  0  0
   10.4098  -15.2910   27.2792 C   0  0  0  0  0  0  0  0  0  0  0  0
   10.4464  -16.2772   26.1324 C   0  0  2  0  0  0  0  0  0  0  0  0
    9.7939  -15.6441   24.9960 N   0  0  0  0  0  0  0  0  0  0  0  0
    9.6359  -17.4670   26.4927 C   0  0  0  0  0  0  0  0  0  0  0  0
   10.2759  -18.5815   27.0654 O   0  0  0  0  0  0  0  0  0  0  0  0
    8.3896  -17.5147   26.3031 O   0  0  0  0  0  0  0  0  0  0  0  0
  1  2  1  0
  3  2  1  0
  3  4  2  0
  5  3  1  0
  6  5  1  0
  6 14  1  0
  6  7  1  1
  8 13  2  0
  8  7  1  0
  9  8  1  0
 10  9  2  0
 10 11  1  0
 11 12  2  0
 12 13  1  0
 14 21  1  0
 14 15  2  0
 17 16  1  0
 18 17  1  0
 18 19  1  0
 20 19  1  1
 20 22  1  0
 21 20  1  0
 22 24  2  0
 22 23  1  0
M  END
$$$$
