GFM.pdb
     RDKit          3D

 24 24  0  0  1  0  0  0  0  0999 V2000
    6.7960  -21.3667   22.5618 N   0  0  0  0  0  0  0  0  0  0  0  0
    6.5851  -20.4964   23.6806 C   0  0  0  0  0  0  0  0  0  0  0  0
    7.1630  -19.1457   23.4802 C   0  0  0  0  0  0  0  0  0  0  0  0
    7.9673  -18.8533   22.5691 O   0  0  0  0  0  0  0  0  0  0  0  0
    6.7793  -18.1163   24.3804 N   0  0  0  0  0  0  0  0  0  0  0  0
    7.2430  -16.7465   24.2433 C   0  0  1  0  0  0  0  0  0  0  0  0
    6.1136  -15.8826   24.7411 C   0  0  0  0  0  0  0  0  0  0  0  0
    6.4053  -14.4438   24.7910 C   0  0  0  0  0  0  0  0  0  0  0  0
    6.8786  -13.7367   23.7087 C   0  0  0  0  0  0  0  0  0  0  0  0
    7.1392  -12.3751   23.7720 C   0  0  0  0  0  0  0  0  0  0  0  0
    6.9310  -11.6692   24.9384 C   0  0  0  0  0  0  0  0  0  0  0  0
    6.4572  -12.3696   26.0285 C   0  0  0  0  0  0  0  0  0  0  0  0
    6.1985  -13.7228   25.9641 C   0  0  0  0  0  0  0  0  0  0  0  0
    8.3967  -16.5588   25.1434 C   0  0  0  0  0  0  0  0  0  0  0  0
    8.3378  -16.7516   26.3888 O   0  0  0  0  0  0  0  0  0  0  0  0
   10.3456  -13.3270   28.6966 C   0  0  0  0  0  0  0  0  0  0  0  0
   10.8780  -14.9859   29.2047 S   0  0  0  0  0  0  0  0  0  0  0  0
   11.6128  -15.8713   27.7754 C   0  0  0  0  0  0  0  0  0  0  0  0
   10.5038  -16.1897   26.8253 C   0  0  0  0  0  0  0  0  0  0  0  0
   10.7348  -15.6694   25.4235 C   0  0  2  0  0  0  0  0  0  0  0  0
    9.6330  -16.1430   24.5990 N   0  0  0  0  0  0  0  0  0  0  0  0
   11.9762  -16.2758   24.8818 C   0  0  0  0  0  0  0  0  0  0  0  0
   13.2075  -15.6365   25.1164 O   0  0  0  0  0  0  0  0  0  0  0  0
   11.9666  -17.3476   24.2164 O   0  0  0  0  0  0  0  0  0  0  0  0
  1  2  1  0
  3  2  1  0
  3  4  2  0
  5  3  1  0
  6  5  1  0
  6 14  1  0
  6  7  1  1
  8 13  2  0
  8  7  1  0
  9  8  1  0
 10  9  2  0
 10 11  1  0
 11 12  2  0
 12 13  1  0
 14 21  1  0
 14 15  2  0
 17 16  1  0
 18 17  1  0
 18 19  1  0
 20 19  1  1
 20 22  1  0
 21 20  1  0
 22 24  2  0
 22 23  1  0
M  END
$$$$
