GFM.pdb
     RDKit          3D

 24 24  0  0  1  0  0  0  0  0999 V2000
   10.2636  -17.1042   19.5157 N   0  0  0  0  0  0  0  0  0  0  0  0
    9.1669  -16.9984   20.4321 C   0  0  0  0  0  0  0  0  0  0  0  0
    9.4879  -16.1815   21.6272 C   0  0  0  0  0  0  0  0  0  0  0  0
   10.6393  -16.0386   22.0924 O   0  0  0  0  0  0  0  0  0  0  0  0
    8.4198  -15.5179   22.2874 N   0  0  0  0  0  0  0  0  0  0  0  0
    8.5932  -14.8282   23.5541 C   0  0  1  0  0  0  0  0  0  0  0  0
    7.3042  -14.0862   23.7935 C   0  0  0  0  0  0  0  0  0  0  0  0
    7.2308  -13.3605   25.0685 C   0  0  0  0  0  0  0  0  0  0  0  0
    6.0467  -13.1250   25.7302 C   0  0  0  0  0  0  0  0  0  0  0  0
    5.9980  -12.4457   26.9394 C   0  0  0  0  0  0  0  0  0  0  0  0
    7.1508  -11.9743   27.5319 C   0  0  0  0  0  0  0  0  0  0  0  0
    8.3422  -12.2054   26.8760 C   0  0  0  0  0  0  0  0  0  0  0  0
    8.3891  -12.8806   25.6743 C   0  0  0  0  0  0  0  0  0  0  0  0
    8.7430  -15.8435   24.6140 C   0  0  0  0  0  0  0  0  0  0  0  0
    7.9039  -16.7649   24.8095 O   0  0  0  0  0  0  0  0  0  0  0  0
   14.4402  -16.9193   24.4484 C   0  0  0  0  0  0  0  0  0  0  0  0
   14.3738  -16.5657   26.2272 S   0  0  0  0  0  0  0  0  0  0  0  0
   12.6509  -16.1745   26.7225 C   0  0  0  0  0  0  0  0  0  0  0  0
   11.7531  -17.1550   26.0395 C   0  0  0  0  0  0  0  0  0  0  0  0
   10.2815  -16.9134   26.2947 C   0  0  2  0  0  0  0  0  0  0  0  0
    9.8753  -15.7936   25.4587 N   0  0  0  0  0  0  0  0  0  0  0  0
   10.0989  -16.4922   27.7059 C   0  0  0  0  0  0  0  0  0  0  0  0
   10.1324  -17.4674   28.7196 O   0  0  0  0  0  0  0  0  0  0  0  0
    9.9143  -15.2870   28.0298 O   0  0  0  0  0  0  0  0  0  0  0  0
  1  2  1  0
  3  2  1  0
  3  4  2  0
  5  3  1  0
  6  5  1  0
  6 14  1  0
  6  7  1  1
  8 13  2  0
  8  7  1  0
  9  8  1  0
 10  9  2  0
 10 11  1  0
 11 12  2  0
 12 13  1  0
 14 21  1  0
 14 15  2  0
 17 16  1  0
 18 17  1  0
 18 19  1  0
 20 19  1  1
 20 22  1  0
 21 20  1  0
 22 24  2  0
 22 23  1  0
M  END
$$$$
