GFM.pdb
     RDKit          3D

 24 24  0  0  1  0  0  0  0  0999 V2000
    9.4632  -18.6689   19.0554 N   0  0  0  0  0  0  0  0  0  0  0  0
    8.6619  -18.5517   20.2377 C   0  0  0  0  0  0  0  0  0  0  0  0
    9.0143  -17.3699   21.0609 C   0  0  0  0  0  0  0  0  0  0  0  0
   10.0026  -16.6346   20.8485 O   0  0  0  0  0  0  0  0  0  0  0  0
    8.1761  -17.0509   22.1622 N   0  0  0  0  0  0  0  0  0  0  0  0
    8.3743  -15.8639   22.9760 C   0  0  1  0  0  0  0  0  0  0  0  0
    6.9979  -15.4370   23.4152 C   0  0  0  0  0  0  0  0  0  0  0  0
    6.9623  -14.2673   24.3029 C   0  0  0  0  0  0  0  0  0  0  0  0
    7.4714  -13.0390   23.9457 C   0  0  0  0  0  0  0  0  0  0  0  0
    7.4198  -11.9422   24.7944 C   0  0  0  0  0  0  0  0  0  0  0  0
    6.8487  -12.0432   26.0457 C   0  0  0  0  0  0  0  0  0  0  0  0
    6.3362  -13.2704   26.4126 C   0  0  0  0  0  0  0  0  0  0  0  0
    6.3880  -14.3595   25.5681 C   0  0  0  0  0  0  0  0  0  0  0  0
    9.1402  -16.2513   24.1759 C   0  0  0  0  0  0  0  0  0  0  0  0
    8.7138  -17.0770   25.0291 O   0  0  0  0  0  0  0  0  0  0  0  0
   10.3783  -12.7256   28.7354 C   0  0  0  0  0  0  0  0  0  0  0  0
   10.2792  -14.4456   29.3060 S   0  0  0  0  0  0  0  0  0  0  0  0
   11.0775  -15.5564   28.0831 C   0  0  0  0  0  0  0  0  0  0  0  0
   10.4812  -15.2555   26.7459 C   0  0  0  0  0  0  0  0  0  0  0  0
   11.1943  -15.9313   25.5953 C   0  0  2  0  0  0  0  0  0  0  0  0
   10.4136  -15.6778   24.3935 N   0  0  0  0  0  0  0  0  0  0  0  0
   11.1876  -17.3984   25.8178 C   0  0  0  0  0  0  0  0  0  0  0  0
   12.4132  -18.0879   25.8645 O   0  0  0  0  0  0  0  0  0  0  0  0
   10.1185  -18.0514   25.9672 O   0  0  0  0  0  0  0  0  0  0  0  0
  1  2  1  0
  3  2  1  0
  3  4  2  0
  5  3  1  0
  6  5  1  0
  6 14  1  0
  6  7  1  1
  8 13  2  0
  8  7  1  0
  9  8  1  0
 10  9  2  0
 10 11  1  0
 11 12  2  0
 12 13  1  0
 14 21  1  0
 14 15  2  0
 17 16  1  0
 18 17  1  0
 18 19  1  0
 20 19  1  1
 20 22  1  0
 21 20  1  0
 22 24  2  0
 22 23  1  0
M  END
$$$$
