GFM.pdb
     RDKit          3D

 24 24  0  0  1  0  0  0  0  0999 V2000
    7.3876  -20.6423   21.3058 N   0  0  0  0  0  0  0  0  0  0  0  0
    7.1034  -20.0511   22.5799 C   0  0  0  0  0  0  0  0  0  0  0  0
    7.5917  -18.6555   22.6922 C   0  0  0  0  0  0  0  0  0  0  0  0
    8.4619  -18.1532   21.9486 O   0  0  0  0  0  0  0  0  0  0  0  0
    7.0362  -17.8349   23.7096 N   0  0  0  0  0  0  0  0  0  0  0  0
    7.4697  -16.4664   23.9324 C   0  0  1  0  0  0  0  0  0  0  0  0
    6.3680  -15.8144   24.7264 C   0  0  0  0  0  0  0  0  0  0  0  0
    6.6094  -14.4123   25.0917 C   0  0  0  0  0  0  0  0  0  0  0  0
    7.2610  -13.5239   24.2662 C   0  0  0  0  0  0  0  0  0  0  0  0
    7.4713  -12.1997   24.6245 C   0  0  0  0  0  0  0  0  0  0  0  0
    7.0292  -11.7174   25.8386 C   0  0  0  0  0  0  0  0  0  0  0  0
    6.3754  -12.6006   26.6727 C   0  0  0  0  0  0  0  0  0  0  0  0
    6.1670  -13.9163   26.3153 C   0  0  0  0  0  0  0  0  0  0  0  0
    8.6834  -16.4989   24.7706 C   0  0  0  0  0  0  0  0  0  0  0  0
    8.7688  -17.1723   25.8339 O   0  0  0  0  0  0  0  0  0  0  0  0
   11.4050  -14.2348   29.5593 C   0  0  0  0  0  0  0  0  0  0  0  0
    9.7711  -14.0203   28.7992 S   0  0  0  0  0  0  0  0  0  0  0  0
    9.9119  -14.1326   26.9732 C   0  0  0  0  0  0  0  0  0  0  0  0
   10.5011  -15.4674   26.6490 C   0  0  0  0  0  0  0  0  0  0  0  0
   10.9864  -15.5882   25.2210 C   0  0  2  0  0  0  0  0  0  0  0  0
    9.8116  -15.7442   24.3764 N   0  0  0  0  0  0  0  0  0  0  0  0
   11.7876  -16.8300   25.0866 C   0  0  0  0  0  0  0  0  0  0  0  0
   13.1701  -16.7822   25.3435 O   0  0  0  0  0  0  0  0  0  0  0  0
   11.2713  -17.9306   24.7492 O   0  0  0  0  0  0  0  0  0  0  0  0
  1  2  1  0
  3  2  1  0
  3  4  2  0
  5  3  1  0
  6  5  1  0
  6 14  1  0
  6  7  1  1
  8 13  2  0
  8  7  1  0
  9  8  1  0
 10  9  2  0
 10 11  1  0
 11 12  2  0
 12 13  1  0
 14 21  1  0
 14 15  2  0
 17 16  1  0
 18 17  1  0
 18 19  1  0
 20 19  1  1
 20 22  1  0
 21 20  1  0
 22 24  2  0
 22 23  1  0
M  END
$$$$
