GFM.pdb
     RDKit          3D

 24 24  0  0  1  0  0  0  0  0999 V2000
    9.7989  -16.9751   18.8137 N   0  0  0  0  0  0  0  0  0  0  0  0
    8.6872  -16.6955   19.6736 C   0  0  0  0  0  0  0  0  0  0  0  0
    9.0936  -16.1055   20.9718 C   0  0  0  0  0  0  0  0  0  0  0  0
   10.2636  -16.1127   21.4117 O   0  0  0  0  0  0  0  0  0  0  0  0
    8.0904  -15.4922   21.7684 N   0  0  0  0  0  0  0  0  0  0  0  0
    8.3832  -14.8632   23.0447 C   0  0  1  0  0  0  0  0  0  0  0  0
    7.1611  -14.0523   23.3888 C   0  0  0  0  0  0  0  0  0  0  0  0
    7.1882  -13.4160   24.7125 C   0  0  0  0  0  0  0  0  0  0  0  0
    6.4541  -13.8779   25.7816 C   0  0  0  0  0  0  0  0  0  0  0  0
    6.5001  -13.2693   27.0281 C   0  0  0  0  0  0  0  0  0  0  0  0
    7.2943  -12.1629   27.2452 C   0  0  0  0  0  0  0  0  0  0  0  0
    8.0334  -11.6926   26.1795 C   0  0  0  0  0  0  0  0  0  0  0  0
    7.9867  -12.2985   24.9414 C   0  0  0  0  0  0  0  0  0  0  0  0
    8.5306  -15.9253   24.0580 C   0  0  0  0  0  0  0  0  0  0  0  0
    7.6788  -16.8406   24.2261 O   0  0  0  0  0  0  0  0  0  0  0  0
   14.0536  -18.3616   24.3554 C   0  0  0  0  0  0  0  0  0  0  0  0
   13.6976  -18.7629   26.0892 S   0  0  0  0  0  0  0  0  0  0  0  0
   11.9122  -18.5174   26.4333 C   0  0  0  0  0  0  0  0  0  0  0  0
   11.4527  -17.3532   25.6162 C   0  0  0  0  0  0  0  0  0  0  0  0
    9.9856  -17.0277   25.7912 C   0  0  2  0  0  0  0  0  0  0  0  0
    9.6750  -15.9300   24.8875 N   0  0  0  0  0  0  0  0  0  0  0  0
    9.7624  -16.5317   27.1720 C   0  0  0  0  0  0  0  0  0  0  0  0
    9.5358  -17.4614   28.2035 O   0  0  0  0  0  0  0  0  0  0  0  0
    9.7686  -15.3022   27.4544 O   0  0  0  0  0  0  0  0  0  0  0  0
  1  2  1  0
  3  2  1  0
  3  4  2  0
  5  3  1  0
  6  5  1  0
  6 14  1  0
  6  7  1  1
  8 13  2  0
  8  7  1  0
  9  8  1  0
 10  9  2  0
 10 11  1  0
 11 12  2  0
 12 13  1  0
 14 21  1  0
 14 15  2  0
 17 16  1  0
 18 17  1  0
 18 19  1  0
 20 19  1  1
 20 22  1  0
 21 20  1  0
 22 24  2  0
 22 23  1  0
M  END
$$$$
