DSE.pdb
     RDKit          3D

 24 23  0  0  1  0  0  0  0  0999 V2000
   11.7301  -14.8428   18.0966 N   0  0  0  0  0  0  0  0  0  0  0  0
   12.5931  -15.1342   19.1965 C   0  0  1  0  0  0  0  0  0  0  0  0
   13.8545  -14.2738   19.1760 C   0  0  0  0  0  0  0  0  0  0  0  0
   14.6603  -14.5397   17.9777 C   0  0  0  0  0  0  0  0  0  0  0  0
   14.9408  -13.5778   17.2025 O   0  0  0  0  0  0  0  0  0  0  0  0
   11.8454  -14.9434   20.4656 C   0  0  0  0  0  0  0  0  0  0  0  0
   12.4693  -14.9677   21.5612 O   0  0  0  0  0  0  0  0  0  0  0  0
   15.0837  -15.8296   17.7386 O   0  0  0  0  0  0  0  0  0  0  0  0
    7.5973  -14.9090   20.6191 O   0  0  0  0  0  0  0  0  0  0  0  0
    8.3234  -14.0563   21.4224 C   0  0  0  0  0  0  0  0  0  0  0  0
    9.7075  -14.5366   21.7105 C   0  0  2  0  0  0  0  0  0  0  0  0
   10.4391  -14.7329   20.4826 N   0  0  0  0  0  0  0  0  0  0  0  0
    9.6573  -15.8071   22.4690 C   0  0  0  0  0  0  0  0  0  0  0  0
    9.6934  -16.9210   21.9181 O   0  0  0  0  0  0  0  0  0  0  0  0
    9.5643  -15.7483   23.8804 N   0  0  0  0  0  0  0  0  0  0  0  0
    9.6384  -16.9672   24.6996 C   0  0  1  0  0  0  0  0  0  0  0  0
    9.9494  -16.5021   26.0998 C   0  0  0  0  0  0  0  0  0  0  0  0
   10.1229  -17.6076   27.0856 C   0  0  0  0  0  0  0  0  0  0  0  0
   10.4520  -17.1489   28.4472 C   0  0  0  0  0  0  0  0  0  0  0  0
   11.0266  -16.0850   28.7444 O   0  0  0  0  0  0  0  0  0  0  0  0
    8.3198  -17.6262   24.6135 C   0  0  0  0  0  0  0  0  0  0  0  0
    8.1507  -18.8353   24.9368 O   0  0  0  0  0  0  0  0  0  0  0  0
   10.0818  -17.9916   29.5006 O   0  0  0  0  0  0  0  0  0  0  0  0
    7.1890  -16.9506   24.1707 O   0  0  0  0  0  0  0  0  0  0  0  0
  2  1  1  6
  2  3  1  0
  3  4  1  0
  4  8  1  0
  5  4  2  0
  6 12  1  0
  6  2  1  0
  7  6  2  0
  9 10  1  0
 11 10  1  6
 11 13  1  0
 11 12  1  0
 13 14  2  0
 15 13  1  0
 15 16  1  0
 16 17  1  1
 16 21  1  0
 18 17  1  0
 19 18  1  0
 20 19  2  0
 21 22  2  0
 21 24  1  0
 23 19  1  0
M  END
$$$$
