DSE.pdb
     RDKit          3D

 24 23  0  0  1  0  0  0  0  0999 V2000
   15.0052  -13.6088   17.7774 N   0  0  0  0  0  0  0  0  0  0  0  0
   13.9754  -14.5957   17.7051 C   0  0  1  0  0  0  0  0  0  0  0  0
   14.5440  -16.0027   17.5356 C   0  0  0  0  0  0  0  0  0  0  0  0
   15.1645  -16.1702   16.2154 C   0  0  0  0  0  0  0  0  0  0  0  0
   16.4274  -16.1323   16.1231 O   0  0  0  0  0  0  0  0  0  0  0  0
   13.1336  -14.5108   18.9258 C   0  0  0  0  0  0  0  0  0  0  0  0
   13.6879  -14.4326   20.0557 O   0  0  0  0  0  0  0  0  0  0  0  0
   14.3486  -16.3630   15.1212 O   0  0  0  0  0  0  0  0  0  0  0  0
    8.5960  -14.7036   20.7443 O   0  0  0  0  0  0  0  0  0  0  0  0
    9.4425  -14.5223   19.6718 C   0  0  0  0  0  0  0  0  0  0  0  0
   10.8889  -14.5219   20.0425 C   0  0  2  0  0  0  0  0  0  0  0  0
   11.7131  -14.5152   18.8585 N   0  0  0  0  0  0  0  0  0  0  0  0
   11.2042  -15.7138   20.8622 C   0  0  0  0  0  0  0  0  0  0  0  0
   11.4291  -16.8310   20.3655 O   0  0  0  0  0  0  0  0  0  0  0  0
   11.2508  -15.5727   22.2701 N   0  0  0  0  0  0  0  0  0  0  0  0
   11.4813  -16.7325   23.1442 C   0  0  1  0  0  0  0  0  0  0  0  0
   12.9544  -17.0373   23.0415 C   0  0  0  0  0  0  0  0  0  0  0  0
   13.8396  -15.8662   23.3036 C   0  0  0  0  0  0  0  0  0  0  0  0
   15.2788  -16.1728   23.2175 C   0  0  0  0  0  0  0  0  0  0  0  0
   15.9590  -16.7517   24.0851 O   0  0  0  0  0  0  0  0  0  0  0  0
   11.0918  -16.3282   24.5099 C   0  0  0  0  0  0  0  0  0  0  0  0
   11.1957  -17.1091   25.4970 O   0  0  0  0  0  0  0  0  0  0  0  0
   15.9373  -15.7739   22.0496 O   0  0  0  0  0  0  0  0  0  0  0  0
   10.5880  -15.0626   24.7852 O   0  0  0  0  0  0  0  0  0  0  0  0
  2  1  1  1
  2  3  1  0
  3  4  1  0
  4  8  1  0
  5  4  2  0
  6 12  1  0
  6  2  1  0
  7  6  2  0
  9 10  1  0
 11 10  1  6
 11 13  1  0
 11 12  1  0
 13 14  2  0
 15 13  1  0
 15 16  1  0
 16 17  1  1
 16 21  1  0
 18 17  1  0
 19 18  1  0
 20 19  2  0
 21 22  2  0
 21 24  1  0
 23 19  1  0
M  END
$$$$
