DSE.pdb
     RDKit          3D

 24 23  0  0  1  0  0  0  0  0999 V2000
    8.0980  -18.3370   15.5770 N   0  0  0  0  0  0  0  0  0  0  0  0
    9.3902  -18.6523   16.0971 C   0  0  1  0  0  0  0  0  0  0  0  0
   10.5044  -17.9567   15.3184 C   0  0  0  0  0  0  0  0  0  0  0  0
   10.3773  -18.2003   13.8760 C   0  0  0  0  0  0  0  0  0  0  0  0
    9.8247  -17.3193   13.1525 O   0  0  0  0  0  0  0  0  0  0  0  0
    9.4402  -18.2807   17.5343 C   0  0  0  0  0  0  0  0  0  0  0  0
   10.5497  -17.9967   18.0619 O   0  0  0  0  0  0  0  0  0  0  0  0
   10.8648  -19.3817   13.3596 O   0  0  0  0  0  0  0  0  0  0  0  0
    5.9681  -18.4410   19.9402 O   0  0  0  0  0  0  0  0  0  0  0  0
    6.9755  -17.5556   20.2576 C   0  0  0  0  0  0  0  0  0  0  0  0
    8.3190  -17.9702   19.7552 C   0  0  2  0  0  0  0  0  0  0  0  0
    8.2679  -18.2351   18.3379 N   0  0  0  0  0  0  0  0  0  0  0  0
    8.7785  -19.1813   20.4721 C   0  0  0  0  0  0  0  0  0  0  0  0
    8.5933  -20.3311   20.0370 O   0  0  0  0  0  0  0  0  0  0  0  0
    9.4568  -19.0207   21.7043 N   0  0  0  0  0  0  0  0  0  0  0  0
    9.9651  -20.1814   22.4504 C   0  0  1  0  0  0  0  0  0  0  0  0
   11.3847  -19.8385   22.8255 C   0  0  0  0  0  0  0  0  0  0  0  0
   12.0713  -20.8846   23.6367 C   0  0  0  0  0  0  0  0  0  0  0  0
   13.4182  -20.4987   24.0943 C   0  0  0  0  0  0  0  0  0  0  0  0
   14.1779  -19.6852   23.5361 O   0  0  0  0  0  0  0  0  0  0  0  0
    9.1012  -20.3442   23.6368 C   0  0  0  0  0  0  0  0  0  0  0  0
    9.0345  -21.4319   24.2751 O   0  0  0  0  0  0  0  0  0  0  0  0
   13.8817  -21.1064   25.2659 O   0  0  0  0  0  0  0  0  0  0  0  0
    8.3116  -19.3067   24.1178 O   0  0  0  0  0  0  0  0  0  0  0  0
  2  1  1  6
  2  3  1  0
  3  4  1  0
  4  8  1  0
  5  4  2  0
  6 12  1  0
  6  2  1  0
  7  6  2  0
  9 10  1  0
 11 10  1  1
 11 13  1  0
 11 12  1  0
 13 14  2  0
 15 13  1  0
 15 16  1  0
 16 17  1  1
 16 21  1  0
 18 17  1  0
 19 18  1  0
 20 19  2  0
 21 22  2  0
 21 24  1  0
 23 19  1  0
M  END
$$$$
