DSE.pdb
     RDKit          3D

 24 23  0  0  1  0  0  0  0  0999 V2000
   11.5932  -17.6155   16.2569 N   0  0  0  0  0  0  0  0  0  0  0  0
   11.9208  -18.4296   17.3836 C   0  0  1  0  0  0  0  0  0  0  0  0
   13.1485  -19.2991   17.1220 C   0  0  0  0  0  0  0  0  0  0  0  0
   12.9658  -20.1313   15.9261 C   0  0  0  0  0  0  0  0  0  0  0  0
   13.8346  -20.0795   15.0055 O   0  0  0  0  0  0  0  0  0  0  0  0
   12.1343  -17.5586   18.5676 C   0  0  0  0  0  0  0  0  0  0  0  0
   13.2037  -16.8975   18.6648 O   0  0  0  0  0  0  0  0  0  0  0  0
   11.8529  -20.9408   15.8477 O   0  0  0  0  0  0  0  0  0  0  0  0
    9.1686  -17.1846   21.5513 O   0  0  0  0  0  0  0  0  0  0  0  0
   10.0200  -16.1373   21.2724 C   0  0  0  0  0  0  0  0  0  0  0  0
   11.3431  -16.5678   20.7305 C   0  0  2  0  0  0  0  0  0  0  0  0
   11.1637  -17.4471   19.6009 N   0  0  0  0  0  0  0  0  0  0  0  0
   12.1224  -17.2600   21.7819 C   0  0  0  0  0  0  0  0  0  0  0  0
   12.1323  -18.4969   21.9069 O   0  0  0  0  0  0  0  0  0  0  0  0
   12.8872  -16.4787   22.6811 N   0  0  0  0  0  0  0  0  0  0  0  0
   13.6434  -17.1016   23.7777 C   0  0  1  0  0  0  0  0  0  0  0  0
   14.8338  -16.2070   24.0151 C   0  0  0  0  0  0  0  0  0  0  0  0
   15.8607  -16.2581   22.9348 C   0  0  0  0  0  0  0  0  0  0  0  0
   17.0475  -15.4245   23.1976 C   0  0  0  0  0  0  0  0  0  0  0  0
   17.3149  -14.3363   22.6547 O   0  0  0  0  0  0  0  0  0  0  0  0
   12.7445  -17.1520   24.9480 C   0  0  0  0  0  0  0  0  0  0  0  0
   11.6717  -16.4877   25.0002 O   0  0  0  0  0  0  0  0  0  0  0  0
   17.9555  -15.9057   24.1468 O   0  0  0  0  0  0  0  0  0  0  0  0
   13.0302  -17.9353   26.0598 O   0  0  0  0  0  0  0  0  0  0  0  0
  2  1  1  6
  2  3  1  0
  3  4  1  0
  4  8  1  0
  5  4  2  0
  6 12  1  0
  6  2  1  0
  7  6  2  0
  9 10  1  0
 11 10  1  1
 11 13  1  0
 11 12  1  0
 13 14  2  0
 15 13  1  0
 15 16  1  0
 16 17  1  1
 16 21  1  0
 18 17  1  0
 19 18  1  0
 20 19  2  0
 21 22  2  0
 21 24  1  0
 23 19  1  0
M  END
$$$$
