DSE.pdb
     RDKit          3D

 24 23  0  0  1  0  0  0  0  0999 V2000
    9.8942  -17.1226   16.4542 N   0  0  0  0  0  0  0  0  0  0  0  0
    9.0372  -17.3140   17.5805 C   0  0  1  0  0  0  0  0  0  0  0  0
    8.8581  -18.7927   17.9167 C   0  0  0  0  0  0  0  0  0  0  0  0
    8.0879  -19.4853   16.8759 C   0  0  0  0  0  0  0  0  0  0  0  0
    8.6833  -20.3093   16.1199 O   0  0  0  0  0  0  0  0  0  0  0  0
    9.5886  -16.5721   18.7431 C   0  0  0  0  0  0  0  0  0  0  0  0
   10.8270  -16.3414   18.7993 O   0  0  0  0  0  0  0  0  0  0  0  0
    6.7417  -19.2134   16.7585 O   0  0  0  0  0  0  0  0  0  0  0  0
    7.1716  -15.5685   22.0697 O   0  0  0  0  0  0  0  0  0  0  0  0
    8.1876  -14.7197   21.6866 C   0  0  0  0  0  0  0  0  0  0  0  0
    9.2867  -15.3988   20.9381 C   0  0  2  0  0  0  0  0  0  0  0  0
    8.7572  -16.1114   19.8009 N   0  0  0  0  0  0  0  0  0  0  0  0
   10.0011  -16.3417   21.8283 C   0  0  0  0  0  0  0  0  0  0  0  0
    9.6410  -17.5210   21.9863 O   0  0  0  0  0  0  0  0  0  0  0  0
   11.1415  -15.8785   22.5276 N   0  0  0  0  0  0  0  0  0  0  0  0
   11.8916  -16.7632   23.4314 C   0  0  1  0  0  0  0  0  0  0  0  0
   13.2983  -16.2210   23.4623 C   0  0  0  0  0  0  0  0  0  0  0  0
   14.0537  -16.4114   22.1906 C   0  0  0  0  0  0  0  0  0  0  0  0
   15.3973  -15.8054   22.1964 C   0  0  0  0  0  0  0  0  0  0  0  0
   15.9200  -15.1882   23.1431 O   0  0  0  0  0  0  0  0  0  0  0  0
   11.2375  -16.6856   24.7530 C   0  0  0  0  0  0  0  0  0  0  0  0
   11.5871  -17.4193   25.7197 O   0  0  0  0  0  0  0  0  0  0  0  0
   16.1517  -15.9390   21.0260 O   0  0  0  0  0  0  0  0  0  0  0  0
   10.1984  -15.7984   25.0067 O   0  0  0  0  0  0  0  0  0  0  0  0
  2  1  1  6
  2  3  1  0
  3  4  1  0
  4  8  1  0
  5  4  2  0
  6 12  1  0
  6  2  1  0
  7  6  2  0
  9 10  1  0
 11 10  1  1
 11 13  1  0
 11 12  1  0
 13 14  2  0
 15 13  1  0
 15 16  1  0
 16 17  1  1
 16 21  1  0
 18 17  1  0
 19 18  1  0
 20 19  2  0
 21 22  2  0
 21 24  1  0
 23 19  1  0
M  END
$$$$
