DSE.pdb
     RDKit          3D

 24 23  0  0  1  0  0  0  0  0999 V2000
    8.5639  -17.0333   16.3738 N   0  0  0  0  0  0  0  0  0  0  0  0
    8.2510  -17.6782   17.6091 C   0  0  1  0  0  0  0  0  0  0  0  0
    8.8062  -19.0995   17.6677 C   0  0  0  0  0  0  0  0  0  0  0  0
    8.4090  -19.8748   16.4856 C   0  0  0  0  0  0  0  0  0  0  0  0
    8.6501  -21.1182   16.4595 O   0  0  0  0  0  0  0  0  0  0  0  0
    8.7768  -16.8602   18.7319 C   0  0  0  0  0  0  0  0  0  0  0  0
   10.0174  -16.6517   18.8178 O   0  0  0  0  0  0  0  0  0  0  0  0
    7.7866  -19.2203   15.4443 O   0  0  0  0  0  0  0  0  0  0  0  0
    6.3829  -15.7933   22.0486 O   0  0  0  0  0  0  0  0  0  0  0  0
    7.2914  -14.8783   21.5619 C   0  0  0  0  0  0  0  0  0  0  0  0
    8.4204  -15.4977   20.8061 C   0  0  2  0  0  0  0  0  0  0  0  0
    7.9183  -16.3019   19.7186 N   0  0  0  0  0  0  0  0  0  0  0  0
    9.2378  -16.3376   21.7107 C   0  0  0  0  0  0  0  0  0  0  0  0
    9.0752  -17.5654   21.8181 O   0  0  0  0  0  0  0  0  0  0  0  0
   10.2460  -15.7141   22.4846 N   0  0  0  0  0  0  0  0  0  0  0  0
   11.1560  -16.5035   23.3278 C   0  0  1  0  0  0  0  0  0  0  0  0
   12.5422  -15.9940   23.0243 C   0  0  0  0  0  0  0  0  0  0  0  0
   13.6160  -16.6175   23.8502 C   0  0  0  0  0  0  0  0  0  0  0  0
   14.9703  -16.1236   23.5428 C   0  0  0  0  0  0  0  0  0  0  0  0
   15.2656  -15.2868   22.6692 O   0  0  0  0  0  0  0  0  0  0  0  0
   10.7683  -16.2561   24.7310 C   0  0  0  0  0  0  0  0  0  0  0  0
   10.1389  -15.2187   25.0811 O   0  0  0  0  0  0  0  0  0  0  0  0
   16.0185  -16.6472   24.3069 O   0  0  0  0  0  0  0  0  0  0  0  0
   11.0756  -17.1536   25.7466 O   0  0  0  0  0  0  0  0  0  0  0  0
  2  1  1  6
  2  3  1  0
  3  4  1  0
  4  8  1  0
  5  4  2  0
  6 12  1  0
  6  2  1  0
  7  6  2  0
  9 10  1  0
 11 10  1  1
 11 13  1  0
 11 12  1  0
 13 14  2  0
 15 13  1  0
 15 16  1  0
 16 17  1  1
 16 21  1  0
 18 17  1  0
 19 18  1  0
 20 19  2  0
 21 22  2  0
 21 24  1  0
 23 19  1  0
M  END
$$$$
