DSE.pdb
     RDKit          3D

 24 23  0  0  1  0  0  0  0  0999 V2000
    6.1321  -19.7728   17.7140 N   0  0  0  0  0  0  0  0  0  0  0  0
    6.8631  -18.6113   18.1094 C   0  0  1  0  0  0  0  0  0  0  0  0
    6.5026  -17.3937   17.2612 C   0  0  0  0  0  0  0  0  0  0  0  0
    6.8703  -17.5979   15.8544 C   0  0  0  0  0  0  0  0  0  0  0  0
    6.0525  -18.1874   15.0871 O   0  0  0  0  0  0  0  0  0  0  0  0
    6.6112  -18.3444   19.5486 C   0  0  0  0  0  0  0  0  0  0  0  0
    7.1211  -17.3247   20.0875 O   0  0  0  0  0  0  0  0  0  0  0  0
    8.0949  -17.1398   15.4179 O   0  0  0  0  0  0  0  0  0  0  0  0
    4.0607  -20.8170   21.9694 O   0  0  0  0  0  0  0  0  0  0  0  0
    4.2643  -19.4698   22.1768 C   0  0  0  0  0  0  0  0  0  0  0  0
    5.6161  -18.9955   21.7557 C   0  0  2  0  0  0  0  0  0  0  0  0
    5.8078  -19.2090   20.3419 N   0  0  0  0  0  0  0  0  0  0  0  0
    6.6657  -19.7127   22.5147 C   0  0  0  0  0  0  0  0  0  0  0  0
    7.3201  -20.6532   22.0324 O   0  0  0  0  0  0  0  0  0  0  0  0
    6.9333  -19.3085   23.8448 N   0  0  0  0  0  0  0  0  0  0  0  0
    7.9857  -19.9577   24.6406 C   0  0  1  0  0  0  0  0  0  0  0  0
    8.2062  -19.0649   25.8355 C   0  0  0  0  0  0  0  0  0  0  0  0
    9.2457  -19.5596   26.7834 C   0  0  0  0  0  0  0  0  0  0  0  0
    9.4874  -18.6627   27.9277 C   0  0  0  0  0  0  0  0  0  0  0  0
    9.1000  -17.4838   28.0309 O   0  0  0  0  0  0  0  0  0  0  0  0
    7.4754  -21.2880   25.0281 C   0  0  0  0  0  0  0  0  0  0  0  0
    6.2501  -21.4991   25.2499 O   0  0  0  0  0  0  0  0  0  0  0  0
   10.2214  -19.1902   28.9954 O   0  0  0  0  0  0  0  0  0  0  0  0
    8.3175  -22.3843   25.1705 O   0  0  0  0  0  0  0  0  0  0  0  0
  2  1  1  6
  2  3  1  0
  3  4  1  0
  4  8  1  0
  5  4  2  0
  6 12  1  0
  6  2  1  0
  7  6  2  0
  9 10  1  0
 11 10  1  1
 11 13  1  0
 11 12  1  0
 13 14  2  0
 15 13  1  0
 15 16  1  0
 16 17  1  1
 16 21  1  0
 18 17  1  0
 19 18  1  0
 20 19  2  0
 21 22  2  0
 21 24  1  0
 23 19  1  0
M  END
$$$$
