DSE.pdb
     RDKit          3D

 24 23  0  0  1  0  0  0  0  0999 V2000
    8.0000  -17.3195   16.6720 N   0  0  0  0  0  0  0  0  0  0  0  0
    7.5090  -17.6080   17.9817 C   0  0  1  0  0  0  0  0  0  0  0  0
    7.5232  -19.1056   18.2796 C   0  0  0  0  0  0  0  0  0  0  0  0
    6.5614  -19.8250   17.4350 C   0  0  0  0  0  0  0  0  0  0  0  0
    6.9678  -20.3533   16.3576 O   0  0  0  0  0  0  0  0  0  0  0  0
    8.3192  -16.8643   18.9799 C   0  0  0  0  0  0  0  0  0  0  0  0
    9.5752  -16.8479   18.8693 O   0  0  0  0  0  0  0  0  0  0  0  0
    5.2476  -19.9000   17.8456 O   0  0  0  0  0  0  0  0  0  0  0  0
    6.6224  -15.2235   22.4944 O   0  0  0  0  0  0  0  0  0  0  0  0
    7.5914  -14.5152   21.8169 C   0  0  0  0  0  0  0  0  0  0  0  0
    8.4901  -15.3712   20.9868 C   0  0  2  0  0  0  0  0  0  0  0  0
    7.7178  -16.1660   20.0630 N   0  0  0  0  0  0  0  0  0  0  0  0
    9.2933  -16.2593   21.8574 C   0  0  0  0  0  0  0  0  0  0  0  0
    8.9677  -17.4336   22.1033 O   0  0  0  0  0  0  0  0  0  0  0  0
   10.4812  -15.7475   22.4327 N   0  0  0  0  0  0  0  0  0  0  0  0
   11.3784  -16.6075   23.2187 C   0  0  1  0  0  0  0  0  0  0  0  0
   12.7675  -16.0662   22.9931 C   0  0  0  0  0  0  0  0  0  0  0  0
   13.8252  -16.7466   23.7945 C   0  0  0  0  0  0  0  0  0  0  0  0
   15.1901  -16.2655   23.5150 C   0  0  0  0  0  0  0  0  0  0  0  0
   15.6866  -15.1949   23.9122 O   0  0  0  0  0  0  0  0  0  0  0  0
   10.9600  -16.4925   24.6301 C   0  0  0  0  0  0  0  0  0  0  0  0
   10.2944  -15.5070   25.0552 O   0  0  0  0  0  0  0  0  0  0  0  0
   15.9993  -17.0930   22.7294 O   0  0  0  0  0  0  0  0  0  0  0  0
   11.2765  -17.4648   25.5712 O   0  0  0  0  0  0  0  0  0  0  0  0
  2  1  1  6
  2  3  1  0
  3  4  1  0
  4  8  1  0
  5  4  2  0
  6 12  1  0
  6  2  1  0
  7  6  2  0
  9 10  1  0
 11 10  1  1
 11 13  1  0
 11 12  1  0
 13 14  2  0
 15 13  1  0
 15 16  1  0
 16 17  1  1
 16 21  1  0
 18 17  1  0
 19 18  1  0
 20 19  2  0
 21 22  2  0
 21 24  1  0
 23 19  1  0
M  END
$$$$
