DSE.pdb
     RDKit          3D

 24 23  0  0  1  0  0  0  0  0999 V2000
    8.0915  -19.4835   19.2923 N   0  0  0  0  0  0  0  0  0  0  0  0
    7.1878  -19.4540   20.3978 C   0  0  1  0  0  0  0  0  0  0  0  0
    6.5334  -20.8129   20.6365 C   0  0  0  0  0  0  0  0  0  0  0  0
    5.7751  -21.2524   19.4585 C   0  0  0  0  0  0  0  0  0  0  0  0
    6.2609  -22.1612   18.7216 O   0  0  0  0  0  0  0  0  0  0  0  0
    7.9162  -18.9995   21.6097 C   0  0  0  0  0  0  0  0  0  0  0  0
    9.1557  -19.2119   21.7030 O   0  0  0  0  0  0  0  0  0  0  0  0
    4.5589  -20.6589   19.1958 O   0  0  0  0  0  0  0  0  0  0  0  0
    5.8537  -17.2600   24.8649 O   0  0  0  0  0  0  0  0  0  0  0  0
    7.1630  -16.9058   24.6201 C   0  0  0  0  0  0  0  0  0  0  0  0
    7.9394  -17.9487   23.8859 C   0  0  2  0  0  0  0  0  0  0  0  0
    7.2542  -18.3281   22.6743 N   0  0  0  0  0  0  0  0  0  0  0  0
    8.1294  -19.1397   24.7446 C   0  0  0  0  0  0  0  0  0  0  0  0
    7.3007  -20.0645   24.8044 O   0  0  0  0  0  0  0  0  0  0  0  0
    9.3045  -19.2266   25.5292 N   0  0  0  0  0  0  0  0  0  0  0  0
    9.5607  -20.3909   26.3901 C   0  0  1  0  0  0  0  0  0  0  0  0
   10.8323  -21.0130   25.8712 C   0  0  0  0  0  0  0  0  0  0  0  0
   12.0693  -20.2592   26.2256 C   0  0  0  0  0  0  0  0  0  0  0  0
   13.3047  -20.8426   25.6724 C   0  0  0  0  0  0  0  0  0  0  0  0
   13.9479  -20.4106   24.6977 O   0  0  0  0  0  0  0  0  0  0  0  0
    9.7129  -19.8837   27.7685 C   0  0  0  0  0  0  0  0  0  0  0  0
    9.8172  -18.6511   28.0230 O   0  0  0  0  0  0  0  0  0  0  0  0
   13.7963  -21.9890   26.3055 O   0  0  0  0  0  0  0  0  0  0  0  0
    9.7500  -20.7369   28.8648 O   0  0  0  0  0  0  0  0  0  0  0  0
  2  1  1  6
  2  3  1  0
  3  4  1  0
  4  8  1  0
  5  4  2  0
  6 12  1  0
  6  2  1  0
  7  6  2  0
  9 10  1  0
 11 10  1  1
 11 13  1  0
 11 12  1  0
 13 14  2  0
 15 13  1  0
 15 16  1  0
 16 17  1  6
 16 21  1  0
 18 17  1  0
 19 18  1  0
 20 19  2  0
 21 22  2  0
 21 24  1  0
 23 19  1  0
M  END
$$$$
