DSE.pdb
     RDKit          3D

 24 23  0  0  1  0  0  0  0  0999 V2000
   -2.7182  -25.4132   26.7927 N   0  0  0  0  0  0  0  0  0  0  0  0
   -2.7892  -25.8697   28.1440 C   0  0  1  0  0  0  0  0  0  0  0  0
   -1.4156  -25.8959   28.8107 C   0  0  0  0  0  0  0  0  0  0  0  0
   -0.6174  -27.0348   28.3396 C   0  0  0  0  0  0  0  0  0  0  0  0
   -1.1357  -27.8473   27.5172 O   0  0  0  0  0  0  0  0  0  0  0  0
   -3.7265  -25.0022   28.9022 C   0  0  0  0  0  0  0  0  0  0  0  0
   -3.9115  -25.2163   30.1310 O   0  0  0  0  0  0  0  0  0  0  0  0
    0.6701  -27.1794   28.8100 O   0  0  0  0  0  0  0  0  0  0  0  0
   -4.4610  -20.8548   28.6232 O   0  0  0  0  0  0  0  0  0  0  0  0
   -5.4615  -21.7534   28.3217 C   0  0  0  0  0  0  0  0  0  0  0  0
   -5.3170  -23.0674   29.0160 C   0  0  2  0  0  0  0  0  0  0  0  0
   -4.4257  -23.9312   28.2805 N   0  0  0  0  0  0  0  0  0  0  0  0
   -6.6398  -23.7178   29.1540 C   0  0  0  0  0  0  0  0  0  0  0  0
   -7.1759  -24.3541   28.2303 O   0  0  0  0  0  0  0  0  0  0  0  0
   -7.3206  -23.6091   30.3905 N   0  0  0  0  0  0  0  0  0  0  0  0
   -8.6272  -24.2505   30.5991 C   0  0  1  0  0  0  0  0  0  0  0  0
   -8.4923  -25.0533   31.8683 C   0  0  0  0  0  0  0  0  0  0  0  0
   -9.7506  -25.7263   32.3015 C   0  0  0  0  0  0  0  0  0  0  0  0
   -9.6140  -26.5083   33.5433 C   0  0  0  0  0  0  0  0  0  0  0  0
  -10.5026  -27.1971   34.0785 O   0  0  0  0  0  0  0  0  0  0  0  0
   -9.6236  -23.1686   30.7297 C   0  0  0  0  0  0  0  0  0  0  0  0
  -10.7798  -23.2562   30.2293 O   0  0  0  0  0  0  0  0  0  0  0  0
   -8.3670  -26.4697   34.1760 O   0  0  0  0  0  0  0  0  0  0  0  0
   -9.3432  -21.9910   31.4123 O   0  0  0  0  0  0  0  0  0  0  0  0
  2  1  1  6
  2  3  1  0
  3  4  1  0
  4  8  1  0
  5  4  2  0
  6 12  1  0
  6  2  1  0
  7  6  2  0
  9 10  1  0
 11 10  1  6
 11 13  1  0
 11 12  1  0
 13 14  2  0
 15 13  1  0
 15 16  1  0
 16 17  1  1
 16 21  1  0
 18 17  1  0
 19 18  1  0
 20 19  2  0
 21 22  2  0
 21 24  1  0
 23 19  1  0
M  END
$$$$
