DSE.pdb
     RDKit          3D

 24 23  0  0  1  0  0  0  0  0999 V2000
   14.1579  -13.6390   16.8982 N   0  0  0  0  0  0  0  0  0  0  0  0
   13.9755  -14.8749   17.5902 C   0  0  1  0  0  0  0  0  0  0  0  0
   15.2838  -15.6502   17.7288 C   0  0  0  0  0  0  0  0  0  0  0  0
   15.8250  -16.0193   16.4147 C   0  0  0  0  0  0  0  0  0  0  0  0
   15.0208  -16.2337   15.4595 O   0  0  0  0  0  0  0  0  0  0  0  0
   13.3802  -14.6029   18.9235 C   0  0  0  0  0  0  0  0  0  0  0  0
   14.1088  -14.1436   19.8445 O   0  0  0  0  0  0  0  0  0  0  0  0
   17.1918  -16.1195   16.2670 O   0  0  0  0  0  0  0  0  0  0  0  0
    9.3416  -15.5849   19.7771 O   0  0  0  0  0  0  0  0  0  0  0  0
    9.9523  -14.5296   20.4197 C   0  0  0  0  0  0  0  0  0  0  0  0
   11.4373  -14.6586   20.5071 C   0  0  2  0  0  0  0  0  0  0  0  0
   12.0055  -14.8462   19.1944 N   0  0  0  0  0  0  0  0  0  0  0  0
   11.7981  -15.8030   21.3743 C   0  0  0  0  0  0  0  0  0  0  0  0
   12.0840  -16.9253   20.9222 O   0  0  0  0  0  0  0  0  0  0  0  0
   11.8177  -15.6086   22.7765 N   0  0  0  0  0  0  0  0  0  0  0  0
   12.1963  -16.6965   23.6906 C   0  0  1  0  0  0  0  0  0  0  0  0
   13.5764  -16.3510   24.1901 C   0  0  0  0  0  0  0  0  0  0  0  0
   14.6526  -17.2481   23.6791 C   0  0  0  0  0  0  0  0  0  0  0  0
   15.9957  -16.9238   24.1924 C   0  0  0  0  0  0  0  0  0  0  0  0
   17.0496  -16.9036   23.5296 O   0  0  0  0  0  0  0  0  0  0  0  0
   11.1993  -16.7120   24.7797 C   0  0  0  0  0  0  0  0  0  0  0  0
   10.3554  -15.7847   24.9312 O   0  0  0  0  0  0  0  0  0  0  0  0
   16.0896  -16.6099   25.5524 O   0  0  0  0  0  0  0  0  0  0  0  0
   11.1344  -17.7507   25.7007 O   0  0  0  0  0  0  0  0  0  0  0  0
  2  1  1  1
  2  3  1  0
  3  4  1  0
  4  8  1  0
  5  4  2  0
  6 12  1  0
  6  2  1  0
  7  6  2  0
  9 10  1  0
 11 10  1  6
 11 13  1  0
 11 12  1  0
 13 14  2  0
 15 13  1  0
 15 16  1  0
 16 17  1  1
 16 21  1  0
 18 17  1  0
 19 18  1  0
 20 19  2  0
 21 22  2  0
 21 24  1  0
 23 19  1  0
M  END
$$$$
