DSE.pdb
     RDKit          3D

 24 23  0  0  1  0  0  0  0  0999 V2000
    9.2487  -16.3243   19.7184 N   0  0  0  0  0  0  0  0  0  0  0  0
    8.8287  -16.9436   20.9348 C   0  0  1  0  0  0  0  0  0  0  0  0
    9.2268  -18.4167   20.9925 C   0  0  0  0  0  0  0  0  0  0  0  0
    8.5551  -19.1908   19.9410 C   0  0  0  0  0  0  0  0  0  0  0  0
    7.3920  -19.6420   20.1611 O   0  0  0  0  0  0  0  0  0  0  0  0
    9.4017  -16.1973   22.0840 C   0  0  0  0  0  0  0  0  0  0  0  0
   10.6458  -15.9976   22.1338 O   0  0  0  0  0  0  0  0  0  0  0  0
    9.2158  -19.3992   18.7493 O   0  0  0  0  0  0  0  0  0  0  0  0
    6.9777  -14.9753   25.3227 O   0  0  0  0  0  0  0  0  0  0  0  0
    8.0680  -14.2124   24.9640 C   0  0  0  0  0  0  0  0  0  0  0  0
    9.1360  -14.9848   24.2623 C   0  0  2  0  0  0  0  0  0  0  0  0
    8.5851  -15.6983   23.1359 N   0  0  0  0  0  0  0  0  0  0  0  0
    9.7688  -15.9424   25.1974 C   0  0  0  0  0  0  0  0  0  0  0  0
    9.3480  -17.1007   25.3605 O   0  0  0  0  0  0  0  0  0  0  0  0
   10.9001  -15.5187   25.9355 N   0  0  0  0  0  0  0  0  0  0  0  0
   11.5617  -16.4146   26.8957 C   0  0  1  0  0  0  0  0  0  0  0  0
   13.0420  -16.2337   26.6729 C   0  0  0  0  0  0  0  0  0  0  0  0
   13.5454  -16.8312   25.4026 C   0  0  0  0  0  0  0  0  0  0  0  0
   15.0041  -16.7170   25.2246 C   0  0  0  0  0  0  0  0  0  0  0  0
   15.8334  -17.6370   25.3521 O   0  0  0  0  0  0  0  0  0  0  0  0
   11.1466  -15.9833   28.2455 C   0  0  0  0  0  0  0  0  0  0  0  0
   10.5018  -14.9150   28.4407 O   0  0  0  0  0  0  0  0  0  0  0  0
   15.4979  -15.4543   24.8799 O   0  0  0  0  0  0  0  0  0  0  0  0
   11.4433  -16.7310   29.3787 O   0  0  0  0  0  0  0  0  0  0  0  0
  2  1  1  6
  2  3  1  0
  3  4  1  0
  4  8  1  0
  5  4  2  0
  6 12  1  0
  6  2  1  0
  7  6  2  0
  9 10  1  0
 11 10  1  1
 11 13  1  0
 11 12  1  0
 13 14  2  0
 15 13  1  0
 15 16  1  0
 16 17  1  1
 16 21  1  0
 18 17  1  0
 19 18  1  0
 20 19  2  0
 21 22  2  0
 21 24  1  0
 23 19  1  0
M  END
$$$$
