DSE.pdb
     RDKit          3D

 24 23  0  0  1  0  0  0  0  0999 V2000
    7.3830  -17.6231   17.8735 N   0  0  0  0  0  0  0  0  0  0  0  0
    8.7649  -17.3088   17.6966 C   0  0  1  0  0  0  0  0  0  0  0  0
    9.0171  -16.5582   16.3910 C   0  0  0  0  0  0  0  0  0  0  0  0
    8.5976  -17.3540   15.2304 C   0  0  0  0  0  0  0  0  0  0  0  0
    9.2015  -18.4395   14.9817 O   0  0  0  0  0  0  0  0  0  0  0  0
    9.2364  -16.5154   18.8603 C   0  0  0  0  0  0  0  0  0  0  0  0
   10.4433  -16.1542   18.9150 O   0  0  0  0  0  0  0  0  0  0  0  0
    7.5591  -16.8903   14.4514 O   0  0  0  0  0  0  0  0  0  0  0  0
    6.8186  -15.8966   22.3298 O   0  0  0  0  0  0  0  0  0  0  0  0
    7.6755  -14.9166   21.8771 C   0  0  0  0  0  0  0  0  0  0  0  0
    8.8295  -15.4452   21.0907 C   0  0  2  0  0  0  0  0  0  0  0  0
    8.3628  -16.1485   19.9208 N   0  0  0  0  0  0  0  0  0  0  0  0
    9.6413  -16.3563   21.9290 C   0  0  0  0  0  0  0  0  0  0  0  0
    9.3998  -17.5717   22.0294 O   0  0  0  0  0  0  0  0  0  0  0  0
   10.7377  -15.8187   22.6452 N   0  0  0  0  0  0  0  0  0  0  0  0
   11.7039  -16.6927   23.3270 C   0  0  1  0  0  0  0  0  0  0  0  0
   13.0668  -16.1595   22.9638 C   0  0  0  0  0  0  0  0  0  0  0  0
   14.1951  -16.8458   23.6567 C   0  0  0  0  0  0  0  0  0  0  0  0
   15.5284  -16.3860   23.2287 C   0  0  0  0  0  0  0  0  0  0  0  0
   16.4375  -17.1002   22.7661 O   0  0  0  0  0  0  0  0  0  0  0  0
   11.4344  -16.5878   24.7750 C   0  0  0  0  0  0  0  0  0  0  0  0
   10.7815  -15.6261   25.2688 O   0  0  0  0  0  0  0  0  0  0  0  0
   15.7921  -15.0182   23.3563 O   0  0  0  0  0  0  0  0  0  0  0  0
   11.8855  -17.5441   25.6768 O   0  0  0  0  0  0  0  0  0  0  0  0
  2  1  1  1
  2  3  1  0
  3  4  1  0
  4  8  1  0
  5  4  2  0
  6 12  1  0
  6  2  1  0
  7  6  2  0
  9 10  1  0
 11 10  1  1
 11 13  1  0
 11 12  1  0
 13 14  2  0
 15 13  1  0
 15 16  1  0
 16 17  1  1
 16 21  1  0
 18 17  1  0
 19 18  1  0
 20 19  2  0
 21 22  2  0
 21 24  1  0
 23 19  1  0
M  END
$$$$
