KME.pdb
     RDKit          3D

 27 26  0  0  1  0  0  0  0  0999 V2000
   27.4481  -21.5449  -17.0144 N   0  0  0  0  0  0  0  0  0  0  0  0
   27.2009  -20.5642  -15.9976 C   0  0  1  0  0  0  0  0  0  0  0  0
   26.7633  -19.2776  -16.6149 C   0  0  0  0  0  0  0  0  0  0  0  0
   28.0259  -18.4830  -16.9082 C   0  0  0  0  0  0  0  0  0  0  0  0
   28.8773  -19.0930  -17.9889 C   0  0  0  0  0  0  0  0  0  0  0  0
   30.1036  -18.1917  -18.1699 C   0  0  0  0  0  0  0  0  0  0  0  0
   30.9238  -18.6297  -19.2624 N   0  0  0  0  0  0  0  0  0  0  0  0
   26.4083  -21.0436  -14.8732 C   0  0  0  0  0  0  0  0  0  0  0  0
   25.4237  -21.8327  -14.9781 O   0  0  0  0  0  0  0  0  0  0  0  0
   25.2785  -21.1025   -7.0245 C   0  0  0  0  0  0  0  0  0  0  0  0
   26.3276  -20.6072   -8.4217 S   0  0  0  0  0  0  0  0  0  0  0  0
   25.4140  -20.8753   -9.9763 C   0  0  0  0  0  0  0  0  0  0  0  0
   26.3743  -20.6103  -11.0985 C   0  0  0  0  0  0  0  0  0  0  0  0
   25.8026  -20.8164  -12.4524 C   0  0  2  0  0  0  0  0  0  0  0  0
   26.7093  -20.6289  -13.5544 N   0  0  0  0  0  0  0  0  0  0  0  0
   24.4981  -20.1144  -12.6852 C   0  0  0  0  0  0  0  0  0  0  0  0
   24.3917  -18.8648  -12.7886 O   0  0  0  0  0  0  0  0  0  0  0  0
   23.3522  -20.9242  -12.7931 N   0  0  0  0  0  0  0  0  0  0  0  0
   21.9888  -20.4005  -13.0208 C   0  0  1  0  0  0  0  0  0  0  0  0
   21.7175  -20.3668  -14.4705 C   0  0  0  0  0  0  0  0  0  0  0  0
   20.3638  -19.9076  -14.8533 C   0  0  0  0  0  0  0  0  0  0  0  0
   20.1223  -19.9143  -16.2925 C   0  0  0  0  0  0  0  0  0  0  0  0
   18.9761  -19.5758  -16.7405 O   0  0  0  0  0  0  0  0  0  0  0  0
   21.0611  -21.1518  -12.2244 C   0  0  0  0  0  0  0  0  0  0  0  0
   21.0128  -22.5510  -12.1266 O   0  0  0  0  0  0  0  0  0  0  0  0
   21.0837  -20.2753  -17.2230 O   0  0  0  0  0  0  0  0  0  0  0  0
   20.1817  -20.5245  -11.5436 O   0  0  0  0  0  0  0  0  0  0  0  0
  2  1  1  6
  2  8  1  0
  3  2  1  0
  3  4  1  0
  4  5  1  0
  5  6  1  0
  7  6  1  0
  8 15  1  0
  8  9  2  0
 10 11  1  0
 12 13  1  0
 12 11  1  0
 14 13  1  1
 14 16  1  0
 15 14  1  0
 16 17  2  0
 18 19  1  0
 18 16  1  0
 19 24  1  0
 19 20  1  6
 21 20  1  0
 22 21  1  0
 23 22  2  0
 24 25  1  0
 26 22  1  0
 27 24  2  0
M  END
$$$$
