KME.pdb
     RDKit          3D

 27 26  0  0  1  0  0  0  0  0999 V2000
   22.4985  -12.1990  -19.1777 N   0  0  0  0  0  0  0  0  0  0  0  0
   21.6647  -12.0598  -18.0191 C   0  0  1  0  0  0  0  0  0  0  0  0
   21.1721  -13.3961  -17.5724 C   0  0  0  0  0  0  0  0  0  0  0  0
   19.9946  -13.7484  -18.4674 C   0  0  0  0  0  0  0  0  0  0  0  0
   19.3728  -15.0790  -18.1391 C   0  0  0  0  0  0  0  0  0  0  0  0
   18.2526  -15.3248  -19.1558 C   0  0  0  0  0  0  0  0  0  0  0  0
   17.1086  -14.5012  -18.8899 N   0  0  0  0  0  0  0  0  0  0  0  0
   22.2076  -11.1920  -16.9825 C   0  0  0  0  0  0  0  0  0  0  0  0
   21.5934  -10.8761  -15.9213 O   0  0  0  0  0  0  0  0  0  0  0  0
   28.5083  -12.7708  -15.2488 C   0  0  0  0  0  0  0  0  0  0  0  0
   27.8469  -11.1204  -15.6190 S   0  0  0  0  0  0  0  0  0  0  0  0
   26.0318  -11.2229  -15.7530 C   0  0  0  0  0  0  0  0  0  0  0  0
   25.5284   -9.8228  -15.9476 C   0  0  0  0  0  0  0  0  0  0  0  0
   24.0621   -9.7246  -16.1539 C   0  0  2  0  0  0  0  0  0  0  0  0
   23.4996  -10.6319  -17.1195 N   0  0  0  0  0  0  0  0  0  0  0  0
   23.5588   -8.3260  -16.3518 C   0  0  0  0  0  0  0  0  0  0  0  0
   23.6540   -7.7022  -17.4405 O   0  0  0  0  0  0  0  0  0  0  0  0
   22.9494   -7.7082  -15.2438 N   0  0  0  0  0  0  0  0  0  0  0  0
   22.4112   -6.3316  -15.2578 C   0  0  1  0  0  0  0  0  0  0  0  0
   21.3610   -6.2314  -16.2889 C   0  0  0  0  0  0  0  0  0  0  0  0
   20.0542   -6.8229  -15.9247 C   0  0  0  0  0  0  0  0  0  0  0  0
   19.0044   -6.5902  -16.9114 C   0  0  0  0  0  0  0  0  0  0  0  0
   18.5230   -7.5762  -17.5633 O   0  0  0  0  0  0  0  0  0  0  0  0
   22.0213   -5.9692  -13.9252 C   0  0  0  0  0  0  0  0  0  0  0  0
   21.7186   -4.6711  -13.4859 O   0  0  0  0  0  0  0  0  0  0  0  0
   18.4880   -5.3348  -17.1902 O   0  0  0  0  0  0  0  0  0  0  0  0
   21.9461   -6.8805  -13.0341 O   0  0  0  0  0  0  0  0  0  0  0  0
  2  1  1  6
  2  8  1  0
  3  2  1  0
  3  4  1  0
  4  5  1  0
  5  6  1  0
  7  6  1  0
  8 15  1  0
  8  9  2  0
 10 11  1  0
 12 13  1  0
 12 11  1  0
 14 13  1  6
 14 16  1  0
 15 14  1  0
 16 17  2  0
 18 19  1  0
 18 16  1  0
 19 24  1  0
 19 20  1  6
 21 20  1  0
 22 21  1  0
 23 22  2  0
 24 25  1  0
 26 22  1  0
 27 24  2  0
M  END
$$$$
