KME.pdb
     RDKit          3D

 27 26  0  0  1  0  0  0  0  0999 V2000
   28.1660  -20.9004  -16.2397 N   0  0  0  0  0  0  0  0  0  0  0  0
   26.9937  -21.6948  -16.4670 C   0  0  1  0  0  0  0  0  0  0  0  0
   27.3505  -22.9468  -17.1971 C   0  0  0  0  0  0  0  0  0  0  0  0
   28.6511  -22.6670  -17.9330 C   0  0  0  0  0  0  0  0  0  0  0  0
   28.4464  -22.0951  -19.3100 C   0  0  0  0  0  0  0  0  0  0  0  0
   29.7536  -22.2895  -20.0861 C   0  0  0  0  0  0  0  0  0  0  0  0
   29.6397  -21.8213  -21.4373 N   0  0  0  0  0  0  0  0  0  0  0  0
   26.1312  -21.8492  -15.3031 C   0  0  0  0  0  0  0  0  0  0  0  0
   25.0784  -22.5522  -15.2824 O   0  0  0  0  0  0  0  0  0  0  0  0
   25.1041  -20.6705   -7.5346 C   0  0  0  0  0  0  0  0  0  0  0  0
   26.1917  -20.5704   -8.9856 S   0  0  0  0  0  0  0  0  0  0  0  0
   25.2284  -20.9719  -10.4802 C   0  0  0  0  0  0  0  0  0  0  0  0
   26.1740  -20.8956  -11.6428 C   0  0  0  0  0  0  0  0  0  0  0  0
   25.5499  -21.1877  -12.9572 C   0  0  2  0  0  0  0  0  0  0  0  0
   26.4381  -21.1891  -14.0900 N   0  0  0  0  0  0  0  0  0  0  0  0
   24.3015  -20.4049  -13.2354 C   0  0  0  0  0  0  0  0  0  0  0  0
   24.2967  -19.1702  -13.4785 O   0  0  0  0  0  0  0  0  0  0  0  0
   23.0886  -21.1186  -13.2207 N   0  0  0  0  0  0  0  0  0  0  0  0
   21.7730  -20.5184  -13.5270 C   0  0  1  0  0  0  0  0  0  0  0  0
   21.0972  -21.3299  -14.5571 C   0  0  0  0  0  0  0  0  0  0  0  0
   20.5144  -22.6042  -14.0812 C   0  0  0  0  0  0  0  0  0  0  0  0
   19.7949  -23.3464  -15.1113 C   0  0  0  0  0  0  0  0  0  0  0  0
   19.7112  -22.8665  -16.2910 O   0  0  0  0  0  0  0  0  0  0  0  0
   21.0503  -20.3276  -12.3021 C   0  0  0  0  0  0  0  0  0  0  0  0
   21.4067  -20.8554  -11.0514 O   0  0  0  0  0  0  0  0  0  0  0  0
   19.1824  -24.5679  -14.8803 O   0  0  0  0  0  0  0  0  0  0  0  0
   19.9786  -19.6338  -12.3186 O   0  0  0  0  0  0  0  0  0  0  0  0
  2  1  1  1
  2  8  1  0
  3  2  1  0
  3  4  1  0
  4  5  1  0
  5  6  1  0
  7  6  1  0
  8 15  1  0
  8  9  2  0
 10 11  1  0
 12 13  1  0
 12 11  1  0
 14 13  1  1
 14 16  1  0
 15 14  1  0
 16 17  2  0
 18 19  1  0
 18 16  1  0
 19 24  1  0
 19 20  1  6
 21 20  1  0
 22 21  1  0
 23 22  2  0
 24 25  1  0
 26 22  1  0
 27 24  2  0
M  END
$$$$
