KME.pdb
     RDKit          3D

 27 26  0  0  1  0  0  0  0  0999 V2000
   26.9720  -24.5536  -16.4400 N   0  0  0  0  0  0  0  0  0  0  0  0
   26.8030  -23.1943  -16.0151 C   0  0  1  0  0  0  0  0  0  0  0  0
   26.8384  -22.2762  -17.1914 C   0  0  0  0  0  0  0  0  0  0  0  0
   27.1468  -23.1361  -18.4067 C   0  0  0  0  0  0  0  0  0  0  0  0
   26.1076  -23.0323  -19.4903 C   0  0  0  0  0  0  0  0  0  0  0  0
   26.6203  -23.8289  -20.6950 C   0  0  0  0  0  0  0  0  0  0  0  0
   27.8144  -23.2505  -21.2407 N   0  0  0  0  0  0  0  0  0  0  0  0
   25.7173  -22.9865  -15.0661 C   0  0  0  0  0  0  0  0  0  0  0  0
   24.6208  -23.6193  -15.0854 O   0  0  0  0  0  0  0  0  0  0  0  0
   23.5103  -20.1476   -8.0317 C   0  0  0  0  0  0  0  0  0  0  0  0
   24.8301  -20.4704   -9.2367 S   0  0  0  0  0  0  0  0  0  0  0  0
   24.0797  -20.9587  -10.8247 C   0  0  0  0  0  0  0  0  0  0  0  0
   25.2078  -21.2120  -11.7812 C   0  0  0  0  0  0  0  0  0  0  0  0
   24.7827  -21.7499  -13.0974 C   0  0  2  0  0  0  0  0  0  0  0  0
   25.8383  -22.0233  -14.0369 N   0  0  0  0  0  0  0  0  0  0  0  0
   23.6554  -20.9960  -13.7375 C   0  0  0  0  0  0  0  0  0  0  0  0
   23.8033  -19.8913  -14.3215 O   0  0  0  0  0  0  0  0  0  0  0  0
   22.3786  -21.5838  -13.6675 N   0  0  0  0  0  0  0  0  0  0  0  0
   21.1491  -20.9540  -14.1935 C   0  0  1  0  0  0  0  0  0  0  0  0
   20.2600  -22.0004  -14.7326 C   0  0  0  0  0  0  0  0  0  0  0  0
   20.7107  -22.6296  -15.9940 C   0  0  0  0  0  0  0  0  0  0  0  0
   19.8381  -23.7000  -16.4654 C   0  0  0  0  0  0  0  0  0  0  0  0
   18.8178  -24.0316  -15.7739 O   0  0  0  0  0  0  0  0  0  0  0  0
   20.5854  -20.1110  -13.1781 C   0  0  0  0  0  0  0  0  0  0  0  0
   21.0037  -20.0509  -11.8397 O   0  0  0  0  0  0  0  0  0  0  0  0
   20.0559  -24.3946  -17.6446 O   0  0  0  0  0  0  0  0  0  0  0  0
   19.6088  -19.3467  -13.4816 O   0  0  0  0  0  0  0  0  0  0  0  0
  2  1  1  6
  2  8  1  0
  3  2  1  0
  3  4  1  0
  4  5  1  0
  5  6  1  0
  7  6  1  0
  8 15  1  0
  8  9  2  0
 10 11  1  0
 12 13  1  0
 12 11  1  0
 14 13  1  1
 14 16  1  0
 15 14  1  0
 16 17  2  0
 18 19  1  0
 18 16  1  0
 19 24  1  0
 19 20  1  1
 21 20  1  0
 22 21  1  0
 23 22  2  0
 24 25  1  0
 26 22  1  0
 27 24  2  0
M  END
$$$$
