KME.pdb
     RDKit          3D

 27 26  0  0  1  0  0  0  0  0999 V2000
   22.3393  -12.5069  -18.7815 N   0  0  0  0  0  0  0  0  0  0  0  0
   21.4465  -12.2497  -17.6889 C   0  0  1  0  0  0  0  0  0  0  0  0
   20.8381  -13.5246  -17.2068 C   0  0  0  0  0  0  0  0  0  0  0  0
   20.4325  -14.3096  -18.4440 C   0  0  0  0  0  0  0  0  0  0  0  0
   19.8305  -15.6523  -18.1279 C   0  0  0  0  0  0  0  0  0  0  0  0
   19.3423  -16.2581  -19.4484 C   0  0  0  0  0  0  0  0  0  0  0  0
   18.8014  -17.5730  -19.2577 N   0  0  0  0  0  0  0  0  0  0  0  0
   21.9813  -11.3616  -16.6654 C   0  0  0  0  0  0  0  0  0  0  0  0
   21.3805  -11.0667  -15.5907 O   0  0  0  0  0  0  0  0  0  0  0  0
   28.4825  -12.4568  -15.1476 C   0  0  0  0  0  0  0  0  0  0  0  0
   27.6701  -10.8514  -15.3946 S   0  0  0  0  0  0  0  0  0  0  0  0
   25.8724  -11.1116  -15.5486 C   0  0  0  0  0  0  0  0  0  0  0  0
   25.2527   -9.7620  -15.7637 C   0  0  0  0  0  0  0  0  0  0  0  0
   23.7760   -9.7848  -15.9094 C   0  0  2  0  0  0  0  0  0  0  0  0
   23.2489  -10.7557  -16.8321 N   0  0  0  0  0  0  0  0  0  0  0  0
   23.1548   -8.4353  -16.1133 C   0  0  0  0  0  0  0  0  0  0  0  0
   22.7853   -8.0044  -17.2363 O   0  0  0  0  0  0  0  0  0  0  0  0
   22.9863   -7.6348  -14.9681 N   0  0  0  0  0  0  0  0  0  0  0  0
   22.2364   -6.3611  -14.9533 C   0  0  1  0  0  0  0  0  0  0  0  0
   20.8875   -6.5855  -15.5070 C   0  0  0  0  0  0  0  0  0  0  0  0
   19.9637   -5.4328  -15.4170 C   0  0  0  0  0  0  0  0  0  0  0  0
   18.6163   -5.7159  -15.9009 C   0  0  0  0  0  0  0  0  0  0  0  0
   18.4604   -6.4136  -16.9583 O   0  0  0  0  0  0  0  0  0  0  0  0
   22.2895   -5.8034  -13.6322 C   0  0  0  0  0  0  0  0  0  0  0  0
   22.2252   -4.4371  -13.3179 O   0  0  0  0  0  0  0  0  0  0  0  0
   17.4702   -5.2618  -15.2680 O   0  0  0  0  0  0  0  0  0  0  0  0
   22.4193   -6.5895  -12.6345 O   0  0  0  0  0  0  0  0  0  0  0  0
  2  1  1  6
  2  8  1  0
  3  2  1  0
  3  4  1  0
  4  5  1  0
  5  6  1  0
  7  6  1  0
  8 15  1  0
  8  9  2  0
 10 11  1  0
 12 13  1  0
 12 11  1  0
 14 13  1  6
 14 16  1  0
 15 14  1  0
 16 17  2  0
 18 19  1  0
 18 16  1  0
 19 24  1  0
 19 20  1  1
 21 20  1  0
 22 21  1  0
 23 22  2  0
 24 25  1  0
 26 22  1  0
 27 24  2  0
M  END
$$$$
