KME.pdb
     RDKit          3D

 27 26  0  0  1  0  0  0  0  0999 V2000
   19.7056  -13.0370  -16.0495 N   0  0  0  0  0  0  0  0  0  0  0  0
   20.0450  -11.8680  -16.8079 C   0  0  1  0  0  0  0  0  0  0  0  0
   18.8090  -11.2067  -17.3204 C   0  0  0  0  0  0  0  0  0  0  0  0
   17.8259  -12.3177  -17.6533 C   0  0  0  0  0  0  0  0  0  0  0  0
   16.6276  -12.3465  -16.7432 C   0  0  0  0  0  0  0  0  0  0  0  0
   15.6495  -13.3837  -17.3059 C   0  0  0  0  0  0  0  0  0  0  0  0
   14.5845  -13.6587  -16.3850 N   0  0  0  0  0  0  0  0  0  0  0  0
   21.0274  -10.9986  -16.1742 C   0  0  0  0  0  0  0  0  0  0  0  0
   20.9075  -10.5144  -15.0104 O   0  0  0  0  0  0  0  0  0  0  0  0
   27.0786  -11.9687  -14.6676 C   0  0  0  0  0  0  0  0  0  0  0  0
   27.2166  -10.4635  -15.6743 S   0  0  0  0  0  0  0  0  0  0  0  0
   25.6415   -9.5490  -15.5964 C   0  0  0  0  0  0  0  0  0  0  0  0
   24.6038  -10.4096  -16.2553 C   0  0  0  0  0  0  0  0  0  0  0  0
   23.2397   -9.8251  -16.2601 C   0  0  2  0  0  0  0  0  0  0  0  0
   22.2102  -10.6333  -16.8592 N   0  0  0  0  0  0  0  0  0  0  0  0
   23.1777   -8.4062  -16.7411 C   0  0  0  0  0  0  0  0  0  0  0  0
   23.1751   -8.0858  -17.9580 O   0  0  0  0  0  0  0  0  0  0  0  0
   23.1159   -7.4041  -15.7549 N   0  0  0  0  0  0  0  0  0  0  0  0
   22.9257   -5.9676  -16.0472 C   0  0  1  0  0  0  0  0  0  0  0  0
   22.0775   -5.3673  -15.0001 C   0  0  0  0  0  0  0  0  0  0  0  0
   21.8303   -3.9146  -15.1377 C   0  0  0  0  0  0  0  0  0  0  0  0
   20.9582   -3.3631  -14.1059 C   0  0  0  0  0  0  0  0  0  0  0  0
   19.6969   -3.5417  -14.1857 O   0  0  0  0  0  0  0  0  0  0  0  0
   24.2094   -5.3573  -16.2439 C   0  0  0  0  0  0  0  0  0  0  0  0
   24.4837   -4.2918  -17.1152 O   0  0  0  0  0  0  0  0  0  0  0  0
   21.4272   -2.6398  -13.0209 O   0  0  0  0  0  0  0  0  0  0  0  0
   25.2132   -5.8069  -15.5954 O   0  0  0  0  0  0  0  0  0  0  0  0
  2  1  1  1
  2  8  1  0
  3  2  1  0
  3  4  1  0
  4  5  1  0
  5  6  1  0
  7  6  1  0
  8 15  1  0
  8  9  2  0
 10 11  1  0
 12 13  1  0
 12 11  1  0
 14 13  1  6
 14 16  1  0
 15 14  1  0
 16 17  2  0
 18 19  1  0
 18 16  1  0
 19 24  1  0
 19 20  1  1
 21 20  1  0
 22 21  1  0
 23 22  2  0
 24 25  1  0
 26 22  1  0
 27 24  2  0
M  END
$$$$
