KME.pdb
     RDKit          3D

 27 26  0  0  1  0  0  0  0  0999 V2000
   18.5190  -12.0617  -18.3550 N   0  0  0  0  0  0  0  0  0  0  0  0
   18.9629  -10.6980  -18.3624 C   0  0  1  0  0  0  0  0  0  0  0  0
   17.9731   -9.8354  -19.0722 C   0  0  0  0  0  0  0  0  0  0  0  0
   16.8176  -10.7378  -19.4747 C   0  0  0  0  0  0  0  0  0  0  0  0
   15.5690  -10.5044  -18.6675 C   0  0  0  0  0  0  0  0  0  0  0  0
   14.4615  -11.3724  -19.2749 C   0  0  0  0  0  0  0  0  0  0  0  0
   13.2486  -11.2894  -18.5134 N   0  0  0  0  0  0  0  0  0  0  0  0
   19.4402  -10.2091  -17.0757 C   0  0  0  0  0  0  0  0  0  0  0  0
   18.7955  -10.3071  -15.9905 O   0  0  0  0  0  0  0  0  0  0  0  0
   22.5395   -9.3374  -10.8875 C   0  0  0  0  0  0  0  0  0  0  0  0
   22.0716  -10.1391  -12.4485 S   0  0  0  0  0  0  0  0  0  0  0  0
   22.8382   -9.2362  -13.8343 C   0  0  0  0  0  0  0  0  0  0  0  0
   22.2980   -9.8369  -15.0989 C   0  0  0  0  0  0  0  0  0  0  0  0
   21.2095   -9.0511  -15.7312 C   0  0  2  0  0  0  0  0  0  0  0  0
   20.6979   -9.5692  -16.9729 N   0  0  0  0  0  0  0  0  0  0  0  0
   21.4807   -7.5788  -15.8173 C   0  0  0  0  0  0  0  0  0  0  0  0
   22.2261   -7.0606  -16.6887 O   0  0  0  0  0  0  0  0  0  0  0  0
   20.8502   -6.7605  -14.8615 N   0  0  0  0  0  0  0  0  0  0  0  0
   21.0236   -5.2945  -14.7855 C   0  0  1  0  0  0  0  0  0  0  0  0
   19.7029   -4.6572  -14.6242 C   0  0  0  0  0  0  0  0  0  0  0  0
   19.7216   -3.1850  -14.4748 C   0  0  0  0  0  0  0  0  0  0  0  0
   18.3953   -2.5835  -14.3809 C   0  0  0  0  0  0  0  0  0  0  0  0
   17.3629   -3.3338  -14.3672 O   0  0  0  0  0  0  0  0  0  0  0  0
   21.9963   -4.9913  -13.7750 C   0  0  0  0  0  0  0  0  0  0  0  0
   23.0080   -4.0240  -13.8776 O   0  0  0  0  0  0  0  0  0  0  0  0
   18.1845   -1.2159  -14.3052 O   0  0  0  0  0  0  0  0  0  0  0  0
   21.9760   -5.6487  -12.6807 O   0  0  0  0  0  0  0  0  0  0  0  0
  2  1  1  1
  2  8  1  0
  3  2  1  0
  3  4  1  0
  4  5  1  0
  5  6  1  0
  7  6  1  0
  8 15  1  0
  8  9  2  0
 10 11  1  0
 12 13  1  0
 12 11  1  0
 14 13  1  6
 14 16  1  0
 15 14  1  0
 16 17  2  0
 18 19  1  0
 18 16  1  0
 19 24  1  0
 19 20  1  1
 21 20  1  0
 22 21  1  0
 23 22  2  0
 24 25  1  0
 26 22  1  0
 27 24  2  0
M  END
$$$$
