KME.pdb
     RDKit          3D

 27 26  0  0  1  0  0  0  0  0999 V2000
   25.9529  -21.4793  -12.7186 N   0  0  0  0  0  0  0  0  0  0  0  0
   24.7614  -20.6905  -12.5955 C   0  0  1  0  0  0  0  0  0  0  0  0
   24.7249  -20.0121  -11.2665 C   0  0  0  0  0  0  0  0  0  0  0  0
   26.1697  -19.8360  -10.8269 C   0  0  0  0  0  0  0  0  0  0  0  0
   26.5289  -20.6546   -9.6161 C   0  0  0  0  0  0  0  0  0  0  0  0
   26.2108  -19.8074   -8.3792 C   0  0  0  0  0  0  0  0  0  0  0  0
   26.6250  -20.4609   -7.1712 N   0  0  0  0  0  0  0  0  0  0  0  0
   24.4630  -19.8587  -13.7537 C   0  0  0  0  0  0  0  0  0  0  0  0
   23.5125  -19.0239  -13.8077 O   0  0  0  0  0  0  0  0  0  0  0  0
   27.1173  -15.1391  -14.9530 C   0  0  0  0  0  0  0  0  0  0  0  0
   26.1394  -16.2605  -15.9942 S   0  0  0  0  0  0  0  0  0  0  0  0
   27.0521  -17.8244  -16.2051 C   0  0  0  0  0  0  0  0  0  0  0  0
   26.1344  -18.7728  -16.9191 C   0  0  0  0  0  0  0  0  0  0  0  0
   24.9599  -19.2030  -16.1205 C   0  0  2  0  0  0  0  0  0  0  0  0
   25.2503  -19.9510  -14.9255 N   0  0  0  0  0  0  0  0  0  0  0  0
   23.8696  -19.8470  -16.9237 C   0  0  0  0  0  0  0  0  0  0  0  0
   23.8938  -21.0521  -17.2852 O   0  0  0  0  0  0  0  0  0  0  0  0
   22.7738  -19.0354  -17.2717 N   0  0  0  0  0  0  0  0  0  0  0  0
   21.3734  -19.5074  -17.3050 C   0  0  1  0  0  0  0  0  0  0  0  0
   21.0533  -20.1682  -16.0254 C   0  0  0  0  0  0  0  0  0  0  0  0
   19.6619  -20.6542  -15.8917 C   0  0  0  0  0  0  0  0  0  0  0  0
   19.3856  -21.3129  -14.6191 C   0  0  0  0  0  0  0  0  0  0  0  0
   19.4121  -20.6331  -13.5391 O   0  0  0  0  0  0  0  0  0  0  0  0
   20.5214  -18.4152  -17.6796 C   0  0  0  0  0  0  0  0  0  0  0  0
   20.9293  -17.0848  -17.8617 O   0  0  0  0  0  0  0  0  0  0  0  0
   19.0906  -22.6625  -14.5100 O   0  0  0  0  0  0  0  0  0  0  0  0
   19.2765  -18.6357  -17.8577 O   0  0  0  0  0  0  0  0  0  0  0  0
  2  1  1  6
  2  8  1  0
  3  2  1  0
  3  4  1  0
  4  5  1  0
  5  6  1  0
  7  6  1  0
  8 15  1  0
  8  9  2  0
 10 11  1  0
 12 13  1  0
 12 11  1  0
 14 13  1  6
 14 16  1  0
 15 14  1  0
 16 17  2  0
 18 19  1  0
 18 16  1  0
 19 24  1  0
 19 20  1  1
 21 20  1  0
 22 21  1  0
 23 22  2  0
 24 25  1  0
 26 22  1  0
 27 24  2  0
M  END
$$$$
