KME.pdb
     RDKit          3D

 27 26  0  0  1  0  0  0  0  0999 V2000
   28.2320  -19.8546  -14.1215 N   0  0  0  0  0  0  0  0  0  0  0  0
   27.2574  -20.6803  -14.7736 C   0  0  1  0  0  0  0  0  0  0  0  0
   27.9318  -21.7629  -15.5488 C   0  0  0  0  0  0  0  0  0  0  0  0
   28.8066  -21.0767  -16.5859 C   0  0  0  0  0  0  0  0  0  0  0  0
   28.0939  -19.9870  -17.3407 C   0  0  0  0  0  0  0  0  0  0  0  0
   29.0590  -19.4635  -18.4100 C   0  0  0  0  0  0  0  0  0  0  0  0
   28.4952  -18.3619  -19.1358 N   0  0  0  0  0  0  0  0  0  0  0  0
   26.1452  -21.0894  -13.9262 C   0  0  0  0  0  0  0  0  0  0  0  0
   25.1766  -21.8059  -14.3153 O   0  0  0  0  0  0  0  0  0  0  0  0
   27.4473  -19.5219   -7.7216 C   0  0  0  0  0  0  0  0  0  0  0  0
   26.0586  -20.6875   -7.8278 S   0  0  0  0  0  0  0  0  0  0  0  0
   25.9981  -21.3894   -9.5091 C   0  0  0  0  0  0  0  0  0  0  0  0
   25.0796  -20.5173  -10.3137 C   0  0  0  0  0  0  0  0  0  0  0  0
   24.9420  -20.9231  -11.7345 C   0  0  2  0  0  0  0  0  0  0  0  0
   26.0883  -20.6844  -12.5718 N   0  0  0  0  0  0  0  0  0  0  0  0
   23.6745  -20.4604  -12.3887 C   0  0  0  0  0  0  0  0  0  0  0  0
   23.5145  -19.2996  -12.8474 O   0  0  0  0  0  0  0  0  0  0  0  0
   22.6298  -21.3987  -12.4827 N   0  0  0  0  0  0  0  0  0  0  0  0
   21.3124  -21.1106  -13.0880 C   0  0  1  0  0  0  0  0  0  0  0  0
   20.7179  -22.3686  -13.5783 C   0  0  0  0  0  0  0  0  0  0  0  0
   19.3413  -22.2562  -14.1100 C   0  0  0  0  0  0  0  0  0  0  0  0
   18.8649  -23.4635  -14.7771 C   0  0  0  0  0  0  0  0  0  0  0  0
   19.5795  -24.5207  -14.7521 O   0  0  0  0  0  0  0  0  0  0  0  0
   20.5218  -20.3641  -12.1516 C   0  0  0  0  0  0  0  0  0  0  0  0
   19.5017  -19.4583  -12.4816 O   0  0  0  0  0  0  0  0  0  0  0  0
   17.6567  -23.5324  -15.4524 O   0  0  0  0  0  0  0  0  0  0  0  0
   20.7488  -20.5023  -10.9028 O   0  0  0  0  0  0  0  0  0  0  0  0
  2  1  1  1
  2  8  1  0
  3  2  1  0
  3  4  1  0
  4  5  1  0
  5  6  1  0
  7  6  1  0
  8 15  1  0
  8  9  2  0
 10 11  1  0
 12 13  1  0
 12 11  1  0
 14 13  1  1
 14 16  1  0
 15 14  1  0
 16 17  2  0
 18 19  1  0
 18 16  1  0
 19 24  1  0
 19 20  1  1
 21 20  1  0
 22 21  1  0
 23 22  2  0
 24 25  1  0
 26 22  1  0
 27 24  2  0
M  END
$$$$
