KME.pdb
     RDKit          3D

 27 26  0  0  1  0  0  0  0  0999 V2000
   21.4413  -22.4886  -13.8419 N   0  0  0  0  0  0  0  0  0  0  0  0
   21.0606  -21.1456  -14.1713 C   0  0  1  0  0  0  0  0  0  0  0  0
   19.8763  -20.7305  -13.3633 C   0  0  0  0  0  0  0  0  0  0  0  0
   19.4553  -21.9448  -12.5509 C   0  0  0  0  0  0  0  0  0  0  0  0
   17.9827  -22.2419  -12.6414 C   0  0  0  0  0  0  0  0  0  0  0  0
   17.3491  -21.8299  -11.3081 C   0  0  0  0  0  0  0  0  0  0  0  0
   15.9271  -22.0190  -11.3188 N   0  0  0  0  0  0  0  0  0  0  0  0
   22.1666  -20.1992  -14.2295 C   0  0  0  0  0  0  0  0  0  0  0  0
   22.0384  -18.9655  -14.4837 O   0  0  0  0  0  0  0  0  0  0  0  0
   28.3983  -21.3469  -13.1339 C   0  0  0  0  0  0  0  0  0  0  0  0
   28.2142  -19.8131  -14.0888 S   0  0  0  0  0  0  0  0  0  0  0  0
   26.8165  -18.8564  -13.4144 C   0  0  0  0  0  0  0  0  0  0  0  0
   25.6928  -19.8249  -13.1889 C   0  0  0  0  0  0  0  0  0  0  0  0
   24.6388  -19.7906  -14.2331 C   0  0  2  0  0  0  0  0  0  0  0  0
   23.4941  -20.6317  -14.0007 N   0  0  0  0  0  0  0  0  0  0  0  0
   25.1532  -19.9331  -15.6344 C   0  0  0  0  0  0  0  0  0  0  0  0
   25.4908  -21.0345  -16.1408 O   0  0  0  0  0  0  0  0  0  0  0  0
   25.2475  -18.7550  -16.3985 N   0  0  0  0  0  0  0  0  0  0  0  0
   25.6850  -18.7184  -17.8100 C   0  0  1  0  0  0  0  0  0  0  0  0
   24.5070  -18.8565  -18.6871 C   0  0  0  0  0  0  0  0  0  0  0  0
   23.2066  -18.5289  -18.0612 C   0  0  0  0  0  0  0  0  0  0  0  0
   22.0735  -18.6051  -18.9777 C   0  0  0  0  0  0  0  0  0  0  0  0
   21.7684  -17.5896  -19.6881 O   0  0  0  0  0  0  0  0  0  0  0  0
   26.4914  -17.5499  -18.0186 C   0  0  0  0  0  0  0  0  0  0  0  0
   27.0817  -17.1697  -19.2339 O   0  0  0  0  0  0  0  0  0  0  0  0
   21.2904  -19.7389  -19.1257 O   0  0  0  0  0  0  0  0  0  0  0  0
   26.7224  -16.7742  -17.0311 O   0  0  0  0  0  0  0  0  0  0  0  0
  2  1  1  1
  2  8  1  0
  3  2  1  0
  3  4  1  0
  4  5  1  0
  5  6  1  0
  7  6  1  0
  8 15  1  0
  8  9  2  0
 10 11  1  0
 12 13  1  0
 12 11  1  0
 14 13  1  1
 14 16  1  0
 15 14  1  0
 16 17  2  0
 18 19  1  0
 18 16  1  0
 19 24  1  0
 19 20  1  6
 21 20  1  0
 22 21  1  0
 23 22  2  0
 24 25  1  0
 26 22  1  0
 27 24  2  0
M  END
$$$$
