KME.pdb
     RDKit          3D

 27 26  0  0  1  0  0  0  0  0999 V2000
   20.9903  -23.3109  -12.3486 N   0  0  0  0  0  0  0  0  0  0  0  0
   20.8200  -21.9658  -11.8810 C   0  0  1  0  0  0  0  0  0  0  0  0
   20.3660  -21.9658  -10.4591 C   0  0  0  0  0  0  0  0  0  0  0  0
   19.4855  -23.1927  -10.2825 C   0  0  0  0  0  0  0  0  0  0  0  0
   19.0776  -23.4336   -8.8540 C   0  0  0  0  0  0  0  0  0  0  0  0
   18.3677  -24.7910   -8.8027 C   0  0  0  0  0  0  0  0  0  0  0  0
   17.9757  -25.1313   -7.4653 N   0  0  0  0  0  0  0  0  0  0  0  0
   21.9186  -21.0667  -12.2082 C   0  0  0  0  0  0  0  0  0  0  0  0
   21.8579  -19.8048  -12.1250 O   0  0  0  0  0  0  0  0  0  0  0  0
   28.1543  -21.7716  -11.2375 C   0  0  0  0  0  0  0  0  0  0  0  0
   27.0361  -21.1846   -9.9324 S   0  0  0  0  0  0  0  0  0  0  0  0
   25.4333  -20.7392  -10.6779 C   0  0  0  0  0  0  0  0  0  0  0  0
   25.5254  -21.0664  -12.1395 C   0  0  0  0  0  0  0  0  0  0  0  0
   24.3013  -20.7463  -12.9148 C   0  0  2  0  0  0  0  0  0  0  0  0
   23.1571  -21.5813  -12.6589 N   0  0  0  0  0  0  0  0  0  0  0  0
   24.5322  -20.5616  -14.3849 C   0  0  0  0  0  0  0  0  0  0  0  0
   24.6149  -21.5173  -15.1995 O   0  0  0  0  0  0  0  0  0  0  0  0
   24.6545  -19.2378  -14.8467 N   0  0  0  0  0  0  0  0  0  0  0  0
   24.7714  -18.8676  -16.2729 C   0  0  1  0  0  0  0  0  0  0  0  0
   24.0133  -17.6257  -16.5159 C   0  0  0  0  0  0  0  0  0  0  0  0
   22.9381  -17.7250  -17.5278 C   0  0  0  0  0  0  0  0  0  0  0  0
   21.7272  -16.9894  -17.1779 C   0  0  0  0  0  0  0  0  0  0  0  0
   20.7017  -17.0682  -17.9337 O   0  0  0  0  0  0  0  0  0  0  0  0
   26.1596  -18.8386  -16.6354 C   0  0  0  0  0  0  0  0  0  0  0  0
   26.6865  -19.2003  -17.8849 O   0  0  0  0  0  0  0  0  0  0  0  0
   21.6217  -16.1917  -16.0497 O   0  0  0  0  0  0  0  0  0  0  0  0
   27.0178  -18.4692  -15.7652 O   0  0  0  0  0  0  0  0  0  0  0  0
  2  1  1  1
  2  8  1  0
  3  2  1  0
  3  4  1  0
  4  5  1  0
  5  6  1  0
  7  6  1  0
  8 15  1  0
  8  9  2  0
 10 11  1  0
 12 13  1  0
 12 11  1  0
 14 13  1  6
 14 16  1  0
 15 14  1  0
 16 17  2  0
 18 19  1  0
 18 16  1  0
 19 24  1  0
 19 20  1  1
 21 20  1  0
 22 21  1  0
 23 22  2  0
 24 25  1  0
 26 22  1  0
 27 24  2  0
M  END
$$$$
