KME.pdb
     RDKit          3D

 27 26  0  0  1  0  0  0  0  0999 V2000
   26.6677  -19.5531  -17.6028 N   0  0  0  0  0  0  0  0  0  0  0  0
   26.6306  -19.9141  -16.2153 C   0  0  1  0  0  0  0  0  0  0  0  0
   28.0023  -19.8592  -15.6294 C   0  0  0  0  0  0  0  0  0  0  0  0
   28.8973  -20.6890  -16.5361 C   0  0  0  0  0  0  0  0  0  0  0  0
   28.6646  -22.1706  -16.4103 C   0  0  0  0  0  0  0  0  0  0  0  0
   29.7113  -22.8745  -17.2809 C   0  0  0  0  0  0  0  0  0  0  0  0
   29.5875  -24.3017  -17.2047 N   0  0  0  0  0  0  0  0  0  0  0  0
   25.5744  -19.2666  -15.4487 C   0  0  0  0  0  0  0  0  0  0  0  0
   25.4209  -19.3905  -14.1980 O   0  0  0  0  0  0  0  0  0  0  0  0
   22.1937  -13.6780  -15.1595 C   0  0  0  0  0  0  0  0  0  0  0  0
   23.9819  -13.8351  -15.4350 S   0  0  0  0  0  0  0  0  0  0  0  0
   24.4693  -15.5762  -15.2018 C   0  0  0  0  0  0  0  0  0  0  0  0
   23.2853  -16.4158  -15.5822 C   0  0  0  0  0  0  0  0  0  0  0  0
   23.4909  -17.8751  -15.4083 C   0  0  2  0  0  0  0  0  0  0  0  0
   24.6258  -18.4375  -16.0923 N   0  0  0  0  0  0  0  0  0  0  0  0
   22.2567  -18.7015  -15.6148 C   0  0  0  0  0  0  0  0  0  0  0  0
   22.0091  -19.3241  -16.6799 O   0  0  0  0  0  0  0  0  0  0  0  0
   21.3499  -18.7670  -14.5405 N   0  0  0  0  0  0  0  0  0  0  0  0
   20.1088  -19.5697  -14.5547 C   0  0  1  0  0  0  0  0  0  0  0  0
   20.0828  -20.4445  -13.3671 C   0  0  0  0  0  0  0  0  0  0  0  0
   18.8526  -21.2494  -13.1974 C   0  0  0  0  0  0  0  0  0  0  0  0
   18.9307  -22.2278  -12.1174 C   0  0  0  0  0  0  0  0  0  0  0  0
   20.0134  -22.3466  -11.4521 O   0  0  0  0  0  0  0  0  0  0  0  0
   18.9859  -18.6903  -14.7131 C   0  0  0  0  0  0  0  0  0  0  0  0
   17.7787  -19.0122  -15.3525 O   0  0  0  0  0  0  0  0  0  0  0  0
   17.8767  -23.0551  -11.7634 O   0  0  0  0  0  0  0  0  0  0  0  0
   19.0635  -17.5007  -14.2560 O   0  0  0  0  0  0  0  0  0  0  0  0
  2  1  1  6
  2  8  1  0
  3  2  1  0
  3  4  1  0
  4  5  1  0
  5  6  1  0
  7  6  1  0
  8 15  1  0
  8  9  2  0
 10 11  1  0
 12 13  1  0
 12 11  1  0
 14 13  1  6
 14 16  1  0
 15 14  1  0
 16 17  2  0
 18 19  1  0
 18 16  1  0
 19 24  1  0
 19 20  1  1
 21 20  1  0
 22 21  1  0
 23 22  2  0
 24 25  1  0
 26 22  1  0
 27 24  2  0
M  END
$$$$
