KME.pdb
     RDKit          3D

 27 26  0  0  1  0  0  0  0  0999 V2000
   26.9720  -17.7040  -14.7086 N   0  0  0  0  0  0  0  0  0  0  0  0
   26.8497  -18.9520  -15.4046 C   0  0  1  0  0  0  0  0  0  0  0  0
   28.1867  -19.4100  -15.8847 C   0  0  0  0  0  0  0  0  0  0  0  0
   28.7590  -18.2797  -16.7252 C   0  0  0  0  0  0  0  0  0  0  0  0
   29.0859  -18.6914  -18.1354 C   0  0  0  0  0  0  0  0  0  0  0  0
   29.7583  -17.4951  -18.8179 C   0  0  0  0  0  0  0  0  0  0  0  0
   30.1443  -17.8043  -20.1646 N   0  0  0  0  0  0  0  0  0  0  0  0
   26.0318  -19.9475  -14.7246 C   0  0  0  0  0  0  0  0  0  0  0  0
   25.7833  -21.1014  -15.1825 O   0  0  0  0  0  0  0  0  0  0  0  0
   27.0561  -20.6195   -7.9159 C   0  0  0  0  0  0  0  0  0  0  0  0
   25.5078  -20.3631   -8.8298 S   0  0  0  0  0  0  0  0  0  0  0  0
   25.8079  -20.6581  -10.6035 C   0  0  0  0  0  0  0  0  0  0  0  0
   24.5040  -20.4314  -11.3107 C   0  0  0  0  0  0  0  0  0  0  0  0
   24.5758  -20.5793  -12.7855 C   0  0  2  0  0  0  0  0  0  0  0  0
   25.4462  -19.6591  -13.4693 N   0  0  0  0  0  0  0  0  0  0  0  0
   23.2412  -20.6828  -13.4614 C   0  0  0  0  0  0  0  0  0  0  0  0
   23.0094  -20.2290  -14.6119 O   0  0  0  0  0  0  0  0  0  0  0  0
   22.2166  -21.3308  -12.7466 N   0  0  0  0  0  0  0  0  0  0  0  0
   20.8539  -21.5528  -13.2744 C   0  0  1  0  0  0  0  0  0  0  0  0
   20.2119  -22.6443  -12.5176 C   0  0  0  0  0  0  0  0  0  0  0  0
   18.8143  -22.9461  -12.8993 C   0  0  0  0  0  0  0  0  0  0  0  0
   18.2371  -24.0786  -12.1824 C   0  0  0  0  0  0  0  0  0  0  0  0
   18.9191  -24.6644  -11.2765 O   0  0  0  0  0  0  0  0  0  0  0  0
   20.1510  -20.3018  -13.2929 C   0  0  0  0  0  0  0  0  0  0  0  0
   20.2307  -19.3041  -12.3090 O   0  0  0  0  0  0  0  0  0  0  0  0
   16.9649  -24.5680  -12.4324 O   0  0  0  0  0  0  0  0  0  0  0  0
   19.3667  -20.0481  -14.2680 O   0  0  0  0  0  0  0  0  0  0  0  0
  2  1  1  1
  2  8  1  0
  3  2  1  0
  3  4  1  0
  4  5  1  0
  5  6  1  0
  7  6  1  0
  8 15  1  0
  8  9  2  0
 10 11  1  0
 12 13  1  0
 12 11  1  0
 14 13  1  1
 14 16  1  0
 15 14  1  0
 16 17  2  0
 18 19  1  0
 18 16  1  0
 19 24  1  0
 19 20  1  1
 21 20  1  0
 22 21  1  0
 23 22  2  0
 24 25  1  0
 26 22  1  0
 27 24  2  0
M  END
$$$$
