PPR.pdb
     RDKit          3D

 26 27  0  0  1  0  0  0  0  0999 V2000
    9.0011  -14.0000   20.9047 N   0  0  0  0  0  0  0  0  0  0  0  0
    8.1784  -13.9007   19.7300 C   0  0  0  0  0  0  0  0  0  0  0  0
    6.7754  -14.2303   20.1211 C   0  0  0  0  0  0  0  0  0  0  0  0
    6.9166  -14.5969   21.6005 C   0  0  0  0  0  0  0  0  0  0  0  0
    8.0688  -13.6527   21.9750 C   0  0  1  0  0  0  0  0  0  0  0  0
    8.6177  -13.9602   23.3055 C   0  0  0  0  0  0  0  0  0  0  0  0
    9.8469  -14.2175   23.3775 O   0  0  0  0  0  0  0  0  0  0  0  0
    7.7601  -13.9546   24.4294 N   0  0  0  0  0  0  0  0  0  0  0  0
    6.3517  -13.6472   24.4331 C   0  0  0  0  0  0  0  0  0  0  0  0
    6.1500  -12.9689   25.7696 C   0  0  0  0  0  0  0  0  0  0  0  0
    7.4345  -13.1201   26.5408 C   0  0  0  0  0  0  0  0  0  0  0  0
    8.1341  -14.2552   25.7861 C   0  0  1  0  0  0  0  0  0  0  0  0
    7.5619  -15.5391   26.2589 C   0  0  0  0  0  0  0  0  0  0  0  0
    6.4110  -15.8469   25.8640 O   0  0  0  0  0  0  0  0  0  0  0  0
   13.1886  -16.5050   22.2223 N   0  0  0  0  0  0  0  0  0  0  0  0
   13.2659  -16.4357   23.6458 C   0  0  0  0  0  0  0  0  0  0  0  0
   14.2039  -15.7111   24.1747 N   0  0  0  0  0  0  0  0  0  0  0  0
   12.3686  -17.1198   24.4992 N   0  0  0  0  0  0  0  0  0  0  0  0
   10.8943  -17.0566   24.2630 C   0  0  0  0  0  0  0  0  0  0  0  0
   10.2887  -17.8817   25.3365 C   0  0  0  0  0  0  0  0  0  0  0  0
    8.8462  -18.0518   25.4814 C   0  0  0  0  0  0  0  0  0  0  0  0
    8.2207  -17.9241   26.8102 C   0  0  2  0  0  0  0  0  0  0  0  0
    8.2361  -16.4223   27.1195 N   0  0  0  0  0  0  0  0  0  0  0  0
    9.0053  -18.5248   27.9109 C   0  0  0  0  0  0  0  0  0  0  0  0
    9.8344  -17.9890   28.6408 O   0  0  0  0  0  0  0  0  0  0  0  0
    8.7952  -19.9008   28.1862 O   0  0  0  0  0  0  0  0  0  0  0  0
  2  1  1  0
  3  2  1  0
  4  3  1  0
  4  5  1  0
  5  6  1  1
  5  1  1  0
  6  7  2  0
  8  6  1  0
  8  9  1  0
  9 10  1  0
 11 10  1  0
 12  8  1  0
 12 11  1  0
 13 14  2  0
 12 13  1  1
 16 15  1  0
 17 16  2  0
 18 16  1  0
 19 20  1  0
 19 18  1  0
 20 21  1  0
 22 21  1  6
 22 23  1  0
 22 24  1  0
 23 13  1  0
 24 26  1  0
 25 24  2  0
M  END
$$$$
