PPR.pdb
     RDKit          3D

 26 27  0  0  1  0  0  0  0  0999 V2000
    9.2309  -13.6319   21.0296 N   0  0  0  0  0  0  0  0  0  0  0  0
    8.5840  -13.2045   19.8190 C   0  0  0  0  0  0  0  0  0  0  0  0
    7.1082  -13.2661   20.0390 C   0  0  0  0  0  0  0  0  0  0  0  0
    7.0034  -13.8419   21.4534 C   0  0  0  0  0  0  0  0  0  0  0  0
    8.2751  -13.2294   22.0590 C   0  0  1  0  0  0  0  0  0  0  0  0
    8.5956  -13.8182   23.3692 C   0  0  0  0  0  0  0  0  0  0  0  0
    9.7483  -14.2989   23.5198 O   0  0  0  0  0  0  0  0  0  0  0  0
    7.6157  -13.8211   24.3883 N   0  0  0  0  0  0  0  0  0  0  0  0
    6.2725  -13.3071   24.2893 C   0  0  0  0  0  0  0  0  0  0  0  0
    6.0031  -12.7755   25.6792 C   0  0  0  0  0  0  0  0  0  0  0  0
    7.1509  -13.2130   26.5503 C   0  0  0  0  0  0  0  0  0  0  0  0
    7.7764  -14.3393   25.7212 C   0  0  1  0  0  0  0  0  0  0  0  0
    6.9810  -15.5702   25.9488 C   0  0  0  0  0  0  0  0  0  0  0  0
    5.9281  -15.7176   25.2816 O   0  0  0  0  0  0  0  0  0  0  0  0
    9.7685  -17.2645   20.3575 N   0  0  0  0  0  0  0  0  0  0  0  0
    8.9380  -18.4099   20.5459 C   0  0  0  0  0  0  0  0  0  0  0  0
    8.2043  -18.8060   19.5511 N   0  0  0  0  0  0  0  0  0  0  0  0
    8.8812  -19.1270   21.7641 N   0  0  0  0  0  0  0  0  0  0  0  0
    9.5674  -18.6086   22.9862 C   0  0  0  0  0  0  0  0  0  0  0  0
    8.4784  -18.1588   23.8873 C   0  0  0  0  0  0  0  0  0  0  0  0
    8.7325  -17.5751   25.2007 C   0  0  0  0  0  0  0  0  0  0  0  0
    7.8589  -17.9162   26.3382 C   0  0  2  0  0  0  0  0  0  0  0  0
    7.3419  -16.5723   26.8656 N   0  0  0  0  0  0  0  0  0  0  0  0
    8.5693  -18.5055   27.4941 C   0  0  0  0  0  0  0  0  0  0  0  0
    9.3286  -17.9559   28.2870 O   0  0  0  0  0  0  0  0  0  0  0  0
    8.3677  -19.8868   27.7484 O   0  0  0  0  0  0  0  0  0  0  0  0
  2  1  1  0
  3  2  1  0
  4  3  1  0
  4  5  1  0
  5  6  1  1
  5  1  1  0
  6  7  2  0
  8  6  1  0
  8  9  1  0
  9 10  1  0
 11 10  1  0
 12  8  1  0
 12 11  1  0
 13 14  2  0
 12 13  1  6
 16 15  1  0
 17 16  2  0
 18 16  1  0
 19 20  1  0
 19 18  1  0
 20 21  1  0
 22 21  1  6
 22 23  1  0
 22 24  1  0
 23 13  1  0
 24 26  1  0
 25 24  2  0
M  END
$$$$
