PPR.pdb
     RDKit          3D

 26 27  0  0  1  0  0  0  0  0999 V2000
    8.0219  -13.5287   20.6514 N   0  0  0  0  0  0  0  0  0  0  0  0
    7.0659  -13.0574   19.6866 C   0  0  0  0  0  0  0  0  0  0  0  0
    5.7259  -13.0233   20.3448 C   0  0  0  0  0  0  0  0  0  0  0  0
    6.0198  -13.5942   21.7344 C   0  0  0  0  0  0  0  0  0  0  0  0
    7.4511  -13.0671   21.9149 C   0  0  1  0  0  0  0  0  0  0  0  0
    8.1168  -13.6784   23.0765 C   0  0  0  0  0  0  0  0  0  0  0  0
    9.2585  -14.1737   22.8930 O   0  0  0  0  0  0  0  0  0  0  0  0
    7.4613  -13.6855   24.3290 N   0  0  0  0  0  0  0  0  0  0  0  0
    6.1219  -13.2262   24.5997 C   0  0  0  0  0  0  0  0  0  0  0  0
    6.2271  -12.6606   25.9983 C   0  0  0  0  0  0  0  0  0  0  0  0
    7.5910  -13.0258   26.5218 C   0  0  0  0  0  0  0  0  0  0  0  0
    8.0108  -14.1538   25.5739 C   0  0  1  0  0  0  0  0  0  0  0  0
    7.3673  -15.4060   26.0403 C   0  0  0  0  0  0  0  0  0  0  0  0
    6.1355  -15.5399   25.8401 O   0  0  0  0  0  0  0  0  0  0  0  0
   11.0004  -18.1103   20.8926 N   0  0  0  0  0  0  0  0  0  0  0  0
   11.6145  -18.7247   22.0251 C   0  0  0  0  0  0  0  0  0  0  0  0
   12.8970  -18.9225   21.9955 N   0  0  0  0  0  0  0  0  0  0  0  0
   10.8883  -19.1249   23.1714 N   0  0  0  0  0  0  0  0  0  0  0  0
    9.4073  -18.9376   23.2390 C   0  0  0  0  0  0  0  0  0  0  0  0
    9.1305  -18.4921   24.6264 C   0  0  0  0  0  0  0  0  0  0  0  0
    7.7820  -18.2148   25.1113 C   0  0  0  0  0  0  0  0  0  0  0  0
    7.5648  -17.8850   26.5317 C   0  0  2  0  0  0  0  0  0  0  0  0
    8.0596  -16.4422   26.6898 N   0  0  0  0  0  0  0  0  0  0  0  0
    8.4073  -18.6578   27.4702 C   0  0  0  0  0  0  0  0  0  0  0  0
    9.5155  -18.3735   27.9156 O   0  0  0  0  0  0  0  0  0  0  0  0
    7.8961  -19.8962   27.9374 O   0  0  0  0  0  0  0  0  0  0  0  0
  2  1  1  0
  3  2  1  0
  4  3  1  0
  4  5  1  0
  5  6  1  1
  5  1  1  0
  6  7  2  0
  8  6  1  0
  8  9  1  0
  9 10  1  0
 11 10  1  0
 12  8  1  0
 12 11  1  0
 13 14  2  0
 12 13  1  1
 16 15  1  0
 17 16  2  0
 18 16  1  0
 19 20  1  0
 19 18  1  0
 20 21  1  0
 22 21  1  6
 22 23  1  0
 22 24  1  0
 23 13  1  0
 24 26  1  0
 25 24  2  0
M  END
$$$$
