PPR.pdb
     RDKit          3D

 26 27  0  0  1  0  0  0  0  0999 V2000
    8.6353  -13.8068   20.7109 N   0  0  0  0  0  0  0  0  0  0  0  0
    7.6824  -13.8254   19.6346 C   0  0  0  0  0  0  0  0  0  0  0  0
    6.3991  -14.3745   20.1651 C   0  0  0  0  0  0  0  0  0  0  0  0
    6.7578  -14.7297   21.6102 C   0  0  0  0  0  0  0  0  0  0  0  0
    7.7846  -13.6209   21.8844 C   0  0  1  0  0  0  0  0  0  0  0  0
    8.5180  -13.8524   23.1392 C   0  0  0  0  0  0  0  0  0  0  0  0
    9.7273  -14.1866   23.0479 O   0  0  0  0  0  0  0  0  0  0  0  0
    7.8492  -13.6936   24.3745 N   0  0  0  0  0  0  0  0  0  0  0  0
    6.4690  -13.3221   24.5621 C   0  0  0  0  0  0  0  0  0  0  0  0
    6.5015  -12.5039   25.8335 C   0  0  0  0  0  0  0  0  0  0  0  0
    7.8865  -12.6364   26.4095 C   0  0  0  0  0  0  0  0  0  0  0  0
    8.4235  -13.8731   25.6818 C   0  0  1  0  0  0  0  0  0  0  0  0
    7.8944  -15.0748   26.3714 C   0  0  0  0  0  0  0  0  0  0  0  0
    6.6996  -15.3935   26.1568 O   0  0  0  0  0  0  0  0  0  0  0  0
   14.1555  -15.4345   23.7146 N   0  0  0  0  0  0  0  0  0  0  0  0
   14.3874  -16.7997   24.0603 C   0  0  0  0  0  0  0  0  0  0  0  0
   15.6153  -17.1982   24.1955 N   0  0  0  0  0  0  0  0  0  0  0  0
   13.3414  -17.7310   24.2603 N   0  0  0  0  0  0  0  0  0  0  0  0
   11.9398  -17.4000   23.8614 C   0  0  0  0  0  0  0  0  0  0  0  0
   11.1096  -17.7076   25.0514 C   0  0  0  0  0  0  0  0  0  0  0  0
   10.1416  -16.7644   25.6027 C   0  0  0  0  0  0  0  0  0  0  0  0
    9.2758  -17.1709   26.7245 C   0  0  2  0  0  0  0  0  0  0  0  0
    8.6555  -15.8691   27.2461 N   0  0  0  0  0  0  0  0  0  0  0  0
   10.0070  -17.7120   27.8908 C   0  0  0  0  0  0  0  0  0  0  0  0
   10.6283  -17.1008   28.7555 O   0  0  0  0  0  0  0  0  0  0  0  0
   10.0099  -19.1205   28.0627 O   0  0  0  0  0  0  0  0  0  0  0  0
  2  1  1  0
  3  2  1  0
  4  3  1  0
  4  5  1  0
  5  6  1  1
  5  1  1  0
  6  7  2  0
  8  6  1  0
  8  9  1  0
  9 10  1  0
 11 10  1  0
 12  8  1  0
 12 11  1  0
 13 14  2  0
 12 13  1  1
 16 15  1  0
 17 16  2  0
 18 16  1  0
 19 20  1  0
 19 18  1  0
 20 21  1  0
 22 21  1  6
 22 23  1  0
 22 24  1  0
 23 13  1  0
 24 26  1  0
 25 24  2  0
M  END
$$$$
