PPR.pdb
     RDKit          3D

 26 27  0  0  1  0  0  0  0  0999 V2000
    5.4584  -18.0835   18.9864 N   0  0  0  0  0  0  0  0  0  0  0  0
    4.0724  -18.3553   19.2547 C   0  0  0  0  0  0  0  0  0  0  0  0
    3.7118  -17.6844   20.5392 C   0  0  0  0  0  0  0  0  0  0  0  0
    5.0461  -17.0861   20.9916 C   0  0  0  0  0  0  0  0  0  0  0  0
    5.6529  -16.7785   19.6146 C   0  0  1  0  0  0  0  0  0  0  0  0
    7.0772  -16.4205   19.7119 C   0  0  0  0  0  0  0  0  0  0  0  0
    7.9042  -17.1843   19.1505 O   0  0  0  0  0  0  0  0  0  0  0  0
    7.4542  -15.2553   20.4182 N   0  0  0  0  0  0  0  0  0  0  0  0
    6.5836  -14.3905   21.1748 C   0  0  0  0  0  0  0  0  0  0  0  0
    7.1926  -13.0217   20.9685 C   0  0  0  0  0  0  0  0  0  0  0  0
    8.5092  -13.2245   20.2665 C   0  0  0  0  0  0  0  0  0  0  0  0
    8.7831  -14.7115   20.5141 C   0  0  1  0  0  0  0  0  0  0  0  0
    9.3539  -14.8506   21.8758 C   0  0  0  0  0  0  0  0  0  0  0  0
    9.8499  -13.8283   22.4090 O   0  0  0  0  0  0  0  0  0  0  0  0
    5.9377  -21.5942   24.7326 N   0  0  0  0  0  0  0  0  0  0  0  0
    5.5268  -20.4924   23.9237 C   0  0  0  0  0  0  0  0  0  0  0  0
    4.4158  -20.5986   23.2610 N   0  0  0  0  0  0  0  0  0  0  0  0
    6.2753  -19.2968   23.8144 N   0  0  0  0  0  0  0  0  0  0  0  0
    7.5288  -19.1075   24.6057 C   0  0  0  0  0  0  0  0  0  0  0  0
    8.0547  -17.7821   24.1976 C   0  0  0  0  0  0  0  0  0  0  0  0
    9.3435  -17.2707   24.6538 C   0  0  0  0  0  0  0  0  0  0  0  0
    9.9223  -16.0698   24.0245 C   0  0  2  0  0  0  0  0  0  0  0  0
    9.3681  -16.0581   22.5947 N   0  0  0  0  0  0  0  0  0  0  0  0
   11.3887  -16.1277   23.8400 C   0  0  0  0  0  0  0  0  0  0  0  0
   12.0222  -16.3966   22.8233 O   0  0  0  0  0  0  0  0  0  0  0  0
   12.1999  -15.8389   24.9679 O   0  0  0  0  0  0  0  0  0  0  0  0
  2  1  1  0
  3  2  1  0
  4  3  1  0
  4  5  1  0
  5  6  1  1
  5  1  1  0
  6  7  2  0
  8  6  1  0
  8  9  1  0
  9 10  1  0
 11 10  1  0
 12  8  1  0
 12 11  1  0
 13 14  2  0
 12 13  1  1
 16 15  1  0
 17 16  2  0
 18 16  1  0
 19 20  1  0
 19 18  1  0
 20 21  1  0
 22 21  1  1
 22 23  1  0
 22 24  1  0
 23 13  1  0
 24 26  1  0
 25 24  2  0
M  END
$$$$
