PPR.pdb
     RDKit          3D

 26 27  0  0  1  0  0  0  0  0999 V2000
    8.6097  -13.6307   20.8230 N   0  0  0  0  0  0  0  0  0  0  0  0
    7.7588  -13.2081   19.7440 C   0  0  0  0  0  0  0  0  0  0  0  0
    6.3428  -13.3108   20.2069 C   0  0  0  0  0  0  0  0  0  0  0  0
    6.4905  -13.9035   21.6105 C   0  0  0  0  0  0  0  0  0  0  0  0
    7.8305  -13.2640   22.0036 C   0  0  1  0  0  0  0  0  0  0  0  0
    8.3803  -13.8575   23.2330 C   0  0  0  0  0  0  0  0  0  0  0  0
    9.4911  -14.4414   23.1456 O   0  0  0  0  0  0  0  0  0  0  0  0
    7.6540  -13.7509   24.4412 N   0  0  0  0  0  0  0  0  0  0  0  0
    6.3580  -13.1434   24.6132 C   0  0  0  0  0  0  0  0  0  0  0  0
    6.4395  -12.5428   25.9987 C   0  0  0  0  0  0  0  0  0  0  0  0
    7.7223  -13.0313   26.6178 C   0  0  0  0  0  0  0  0  0  0  0  0
    8.0743  -14.2303   25.7313 C   0  0  1  0  0  0  0  0  0  0  0  0
    7.2730  -15.3901   26.1920 C   0  0  0  0  0  0  0  0  0  0  0  0
    6.0762  -15.4585   25.8200 O   0  0  0  0  0  0  0  0  0  0  0  0
   12.7702  -18.4945   21.3273 N   0  0  0  0  0  0  0  0  0  0  0  0
   12.3235  -19.6146   22.0908 C   0  0  0  0  0  0  0  0  0  0  0  0
   12.7738  -20.7906   21.7760 N   0  0  0  0  0  0  0  0  0  0  0  0
   11.4158  -19.4976   23.1697 N   0  0  0  0  0  0  0  0  0  0  0  0
   10.8255  -18.1724   23.5285 C   0  0  0  0  0  0  0  0  0  0  0  0
    9.8995  -18.4467   24.6542 C   0  0  0  0  0  0  0  0  0  0  0  0
    9.1072  -17.4020   25.2958 C   0  0  0  0  0  0  0  0  0  0  0  0
    8.1806  -17.7488   26.3887 C   0  0  2  0  0  0  0  0  0  0  0  0
    7.7800  -16.4086   27.0170 N   0  0  0  0  0  0  0  0  0  0  0  0
    8.8069  -18.4938   27.5025 C   0  0  0  0  0  0  0  0  0  0  0  0
    9.6426  -18.1011   28.3116 O   0  0  0  0  0  0  0  0  0  0  0  0
    8.4111  -19.8437   27.6884 O   0  0  0  0  0  0  0  0  0  0  0  0
  2  1  1  0
  3  2  1  0
  4  3  1  0
  4  5  1  0
  5  6  1  1
  5  1  1  0
  6  7  2  0
  8  6  1  0
  8  9  1  0
  9 10  1  0
 11 10  1  0
 12  8  1  0
 12 11  1  0
 13 14  2  0
 12 13  1  1
 16 15  1  0
 17 16  2  0
 18 16  1  0
 19 20  1  0
 19 18  1  0
 20 21  1  0
 22 21  1  6
 22 23  1  0
 22 24  1  0
 23 13  1  0
 24 26  1  0
 25 24  2  0
M  END
$$$$
