PPR.pdb
     RDKit          3D

 26 27  0  0  1  0  0  0  0  0999 V2000
    9.0300  -14.0016   20.9187 N   0  0  0  0  0  0  0  0  0  0  0  0
    8.2546  -13.8851   19.7137 C   0  0  0  0  0  0  0  0  0  0  0  0
    6.8148  -14.0475   20.0751 C   0  0  0  0  0  0  0  0  0  0  0  0
    6.8766  -14.3429   21.5758 C   0  0  0  0  0  0  0  0  0  0  0  0
    8.1097  -13.5017   21.9376 C   0  0  1  0  0  0  0  0  0  0  0  0
    8.5871  -13.7883   23.3000 C   0  0  0  0  0  0  0  0  0  0  0  0
    9.8153  -14.0183   23.4449 O   0  0  0  0  0  0  0  0  0  0  0  0
    7.6659  -13.7942   24.3723 N   0  0  0  0  0  0  0  0  0  0  0  0
    6.2493  -13.5406   24.2887 C   0  0  0  0  0  0  0  0  0  0  0  0
    5.9453  -12.8453   25.5968 C   0  0  0  0  0  0  0  0  0  0  0  0
    7.1874  -12.9330   26.4435 C   0  0  0  0  0  0  0  0  0  0  0  0
    7.9712  -14.0547   25.7543 C   0  0  1  0  0  0  0  0  0  0  0  0
    7.4201  -15.3503   26.2204 C   0  0  0  0  0  0  0  0  0  0  0  0
    6.1719  -15.4682   26.2771 O   0  0  0  0  0  0  0  0  0  0  0  0
    9.7105  -17.5410   20.9769 N   0  0  0  0  0  0  0  0  0  0  0  0
   10.5441  -18.3996   21.7548 C   0  0  0  0  0  0  0  0  0  0  0  0
   11.8081  -18.4547   21.4650 N   0  0  0  0  0  0  0  0  0  0  0  0
   10.0533  -19.1884   22.8218 N   0  0  0  0  0  0  0  0  0  0  0  0
    8.6238  -19.0914   23.2464 C   0  0  0  0  0  0  0  0  0  0  0  0
    8.6621  -18.6046   24.6469 C   0  0  0  0  0  0  0  0  0  0  0  0
    7.4559  -18.3912   25.4407 C   0  0  0  0  0  0  0  0  0  0  0  0
    7.5587  -17.8157   26.7940 C   0  0  2  0  0  0  0  0  0  0  0  0
    8.2168  -16.4444   26.5990 N   0  0  0  0  0  0  0  0  0  0  0  0
    8.4890  -18.5353   27.6909 C   0  0  0  0  0  0  0  0  0  0  0  0
    8.3729  -19.6590   28.1719 O   0  0  0  0  0  0  0  0  0  0  0  0
    9.6838  -17.8669   28.0637 O   0  0  0  0  0  0  0  0  0  0  0  0
  2  1  1  0
  3  2  1  0
  4  3  1  0
  4  5  1  0
  5  6  1  1
  5  1  1  0
  6  7  2  0
  8  6  1  0
  8  9  1  0
  9 10  1  0
 11 10  1  0
 12  8  1  0
 12 11  1  0
 13 14  2  0
 12 13  1  1
 16 15  1  0
 17 16  2  0
 18 16  1  0
 19 20  1  0
 19 18  1  0
 20 21  1  0
 22 21  1  6
 22 23  1  0
 22 24  1  0
 23 13  1  0
 24 26  1  0
 25 24  2  0
M  END
$$$$
