PPR.pdb
     RDKit          3D

 26 27  0  0  1  0  0  0  0  0999 V2000
    5.2574  -18.4069   19.4561 N   0  0  0  0  0  0  0  0  0  0  0  0
    3.8578  -18.6713   19.6506 C   0  0  0  0  0  0  0  0  0  0  0  0
    3.3714  -17.7894   20.7532 C   0  0  0  0  0  0  0  0  0  0  0  0
    4.6491  -17.0743   21.1996 C   0  0  0  0  0  0  0  0  0  0  0  0
    5.3722  -17.0034   19.8464 C   0  0  1  0  0  0  0  0  0  0  0  0
    6.7756  -16.5862   19.9971 C   0  0  0  0  0  0  0  0  0  0  0  0
    7.6583  -17.3485   19.5259 O   0  0  0  0  0  0  0  0  0  0  0  0
    7.0722  -15.3692   20.6523 N   0  0  0  0  0  0  0  0  0  0  0  0
    6.1205  -14.4030   21.1412 C   0  0  0  0  0  0  0  0  0  0  0  0
    6.8294  -13.0837   20.9318 C   0  0  0  0  0  0  0  0  0  0  0  0
    8.2432  -13.4014   20.5219 C   0  0  0  0  0  0  0  0  0  0  0  0
    8.3854  -14.8642   20.9547 C   0  0  1  0  0  0  0  0  0  0  0  0
    8.6777  -14.8842   22.4086 C   0  0  0  0  0  0  0  0  0  0  0  0
    7.7857  -14.4731   23.1900 O   0  0  0  0  0  0  0  0  0  0  0  0
    4.6180  -20.8467   23.2042 N   0  0  0  0  0  0  0  0  0  0  0  0
    6.0304  -20.7225   23.3679 C   0  0  0  0  0  0  0  0  0  0  0  0
    6.7947  -21.5935   22.7831 N   0  0  0  0  0  0  0  0  0  0  0  0
    6.6286  -19.6962   24.1363 N   0  0  0  0  0  0  0  0  0  0  0  0
    8.1140  -19.5356   24.1684 C   0  0  0  0  0  0  0  0  0  0  0  0
    8.3586  -18.0930   23.9254 C   0  0  0  0  0  0  0  0  0  0  0  0
    9.6962  -17.5087   23.9285 C   0  0  0  0  0  0  0  0  0  0  0  0
    9.8779  -16.0905   24.2876 C   0  0  2  0  0  0  0  0  0  0  0  0
    9.8922  -15.3361   22.9526 N   0  0  0  0  0  0  0  0  0  0  0  0
   11.1932  -15.7800   24.8888 C   0  0  0  0  0  0  0  0  0  0  0  0
   12.2413  -15.4803   24.3240 O   0  0  0  0  0  0  0  0  0  0  0  0
   11.2907  -15.8250   26.3037 O   0  0  0  0  0  0  0  0  0  0  0  0
  2  1  1  0
  3  2  1  0
  4  3  1  0
  4  5  1  0
  5  6  1  1
  5  1  1  0
  6  7  2  0
  8  6  1  0
  8  9  1  0
  9 10  1  0
 11 10  1  0
 12  8  1  0
 12 11  1  0
 13 14  2  0
 12 13  1  1
 16 15  1  0
 17 16  2  0
 18 16  1  0
 19 20  1  0
 19 18  1  0
 20 21  1  0
 22 21  1  6
 22 23  1  0
 22 24  1  0
 23 13  1  0
 24 26  1  0
 25 24  2  0
M  END
$$$$
