PPR.pdb
     RDKit          3D

 26 27  0  0  1  0  0  0  0  0999 V2000
    6.7297  -14.3519   21.4465 N   0  0  0  0  0  0  0  0  0  0  0  0
    6.2489  -13.8899   20.1728 C   0  0  0  0  0  0  0  0  0  0  0  0
    7.0122  -12.6581   19.8118 C   0  0  0  0  0  0  0  0  0  0  0  0
    7.8999  -12.4412   21.0398 C   0  0  0  0  0  0  0  0  0  0  0  0
    8.1217  -13.9073   21.4403 C   0  0  1  0  0  0  0  0  0  0  0  0
    8.7433  -14.0235   22.7692 C   0  0  0  0  0  0  0  0  0  0  0  0
    9.9877  -14.2028   22.8108 O   0  0  0  0  0  0  0  0  0  0  0  0
    7.9348  -13.9309   23.9252 N   0  0  0  0  0  0  0  0  0  0  0  0
    6.5421  -13.5615   23.9715 C   0  0  0  0  0  0  0  0  0  0  0  0
    6.4258  -12.8173   25.2828 C   0  0  0  0  0  0  0  0  0  0  0  0
    7.7340  -12.9917   26.0079 C   0  0  0  0  0  0  0  0  0  0  0  0
    8.3524  -14.1884   25.2780 C   0  0  1  0  0  0  0  0  0  0  0  0
    7.7465  -15.4239   25.8311 C   0  0  0  0  0  0  0  0  0  0  0  0
    6.5279  -15.6272   25.6097 O   0  0  0  0  0  0  0  0  0  0  0  0
   12.9437  -20.0069   22.2866 N   0  0  0  0  0  0  0  0  0  0  0  0
   11.8398  -20.8678   22.5644 C   0  0  0  0  0  0  0  0  0  0  0  0
   12.0557  -22.1469   22.6105 N   0  0  0  0  0  0  0  0  0  0  0  0
   10.5280  -20.3884   22.7900 N   0  0  0  0  0  0  0  0  0  0  0  0
   10.2383  -18.9224   22.7690 C   0  0  0  0  0  0  0  0  0  0  0  0
   10.4362  -18.4628   24.1653 C   0  0  0  0  0  0  0  0  0  0  0  0
    9.6175  -17.4198   24.7754 C   0  0  0  0  0  0  0  0  0  0  0  0
    8.7906  -17.7305   25.9557 C   0  0  2  0  0  0  0  0  0  0  0  0
    8.4602  -16.3715   26.5846 N   0  0  0  0  0  0  0  0  0  0  0  0
    9.5086  -18.4558   27.0263 C   0  0  0  0  0  0  0  0  0  0  0  0
    9.3928  -19.6299   27.3660 O   0  0  0  0  0  0  0  0  0  0  0  0
   10.4655  -17.7272   27.7793 O   0  0  0  0  0  0  0  0  0  0  0  0
  2  1  1  0
  3  2  1  0
  4  3  1  0
  4  5  1  0
  5  6  1  1
  5  1  1  0
  6  7  2  0
  8  6  1  0
  8  9  1  0
  9 10  1  0
 11 10  1  0
 12  8  1  0
 12 11  1  0
 13 14  2  0
 12 13  1  1
 16 15  1  0
 17 16  2  0
 18 16  1  0
 19 20  1  0
 19 18  1  0
 20 21  1  0
 22 21  1  6
 22 23  1  0
 22 24  1  0
 23 13  1  0
 24 26  1  0
 25 24  2  0
M  END
$$$$
