PPR.pdb
     RDKit          3D

 26 27  0  0  1  0  0  0  0  0999 V2000
    6.1655  -18.2544   18.9593 N   0  0  0  0  0  0  0  0  0  0  0  0
    4.8181  -18.7228   19.1380 C   0  0  0  0  0  0  0  0  0  0  0  0
    4.2836  -18.1188   20.3948 C   0  0  0  0  0  0  0  0  0  0  0  0
    5.4870  -17.3395   20.9311 C   0  0  0  0  0  0  0  0  0  0  0  0
    6.1311  -16.9393   19.5954 C   0  0  1  0  0  0  0  0  0  0  0  0
    7.4804  -16.3825   19.7837 C   0  0  0  0  0  0  0  0  0  0  0  0
    8.4386  -16.9976   19.2489 O   0  0  0  0  0  0  0  0  0  0  0  0
    7.6452  -15.2015   20.5430 N   0  0  0  0  0  0  0  0  0  0  0  0
    6.5953  -14.3578   21.0571 C   0  0  0  0  0  0  0  0  0  0  0  0
    7.1981  -12.9729   20.9830 C   0  0  0  0  0  0  0  0  0  0  0  0
    8.6496  -13.1410   20.6192 C   0  0  0  0  0  0  0  0  0  0  0  0
    8.8970  -14.6173   20.9461 C   0  0  1  0  0  0  0  0  0  0  0  0
    9.1287  -14.7292   22.4067 C   0  0  0  0  0  0  0  0  0  0  0  0
    8.1275  -14.6867   23.1624 O   0  0  0  0  0  0  0  0  0  0  0  0
   12.4947  -21.8222   21.3349 N   0  0  0  0  0  0  0  0  0  0  0  0
   12.9715  -20.4780   21.3858 C   0  0  0  0  0  0  0  0  0  0  0  0
   14.2444  -20.2843   21.5508 N   0  0  0  0  0  0  0  0  0  0  0  0
   12.1202  -19.3546   21.2648 N   0  0  0  0  0  0  0  0  0  0  0  0
   11.0040  -19.1364   22.2343 C   0  0  0  0  0  0  0  0  0  0  0  0
   11.2257  -17.7791   22.7898 C   0  0  0  0  0  0  0  0  0  0  0  0
   10.2991  -17.1490   23.7250 C   0  0  0  0  0  0  0  0  0  0  0  0
   10.5622  -15.7828   24.2126 C   0  0  2  0  0  0  0  0  0  0  0  0
   10.4012  -14.8793   22.9841 N   0  0  0  0  0  0  0  0  0  0  0  0
   11.9569  -15.5514   24.6474 C   0  0  0  0  0  0  0  0  0  0  0  0
   12.8765  -15.0296   24.0234 O   0  0  0  0  0  0  0  0  0  0  0  0
   12.3119  -15.9764   25.9538 O   0  0  0  0  0  0  0  0  0  0  0  0
  2  1  1  0
  3  2  1  0
  4  3  1  0
  4  5  1  0
  5  6  1  1
  5  1  1  0
  6  7  2  0
  8  6  1  0
  8  9  1  0
  9 10  1  0
 11 10  1  0
 12  8  1  0
 12 11  1  0
 13 14  2  0
 12 13  1  1
 16 15  1  0
 17 16  2  0
 18 16  1  0
 19 20  1  0
 19 18  1  0
 20 21  1  0
 22 21  1  6
 22 23  1  0
 22 24  1  0
 23 13  1  0
 24 26  1  0
 25 24  2  0
M  END
$$$$
