PPR.pdb
     RDKit          3D

 26 27  0  0  1  0  0  0  0  0999 V2000
    6.6558  -14.2512   21.7036 N   0  0  0  0  0  0  0  0  0  0  0  0
    6.1538  -13.8787   20.4090 C   0  0  0  0  0  0  0  0  0  0  0  0
    6.9358  -12.6985   19.9340 C   0  0  0  0  0  0  0  0  0  0  0  0
    7.8590  -12.4081   21.1199 C   0  0  0  0  0  0  0  0  0  0  0  0
    8.0570  -13.8433   21.6298 C   0  0  1  0  0  0  0  0  0  0  0  0
    8.7092  -13.8703   22.9489 C   0  0  0  0  0  0  0  0  0  0  0  0
    9.9605  -13.9971   22.9718 O   0  0  0  0  0  0  0  0  0  0  0  0
    7.9206  -13.7548   24.1165 N   0  0  0  0  0  0  0  0  0  0  0  0
    6.5116  -13.4559   24.1748 C   0  0  0  0  0  0  0  0  0  0  0  0
    6.3828  -12.6463   25.4456 C   0  0  0  0  0  0  0  0  0  0  0  0
    7.7130  -12.7117   26.1485 C   0  0  0  0  0  0  0  0  0  0  0  0
    8.3788  -13.9140   25.4714 C   0  0  1  0  0  0  0  0  0  0  0  0
    7.8505  -15.1462   26.1056 C   0  0  0  0  0  0  0  0  0  0  0  0
    6.6417  -15.4278   25.9186 O   0  0  0  0  0  0  0  0  0  0  0  0
   13.1213  -17.7884   21.6673 N   0  0  0  0  0  0  0  0  0  0  0  0
   12.3916  -19.0120   21.7522 C   0  0  0  0  0  0  0  0  0  0  0  0
   12.9619  -20.0973   21.3259 N   0  0  0  0  0  0  0  0  0  0  0  0
   11.0806  -19.0911   22.2782 N   0  0  0  0  0  0  0  0  0  0  0  0
   10.3924  -17.8699   22.7961 C   0  0  0  0  0  0  0  0  0  0  0  0
   10.5551  -17.9222   24.2694 C   0  0  0  0  0  0  0  0  0  0  0  0
    9.9961  -16.9106   25.1608 C   0  0  0  0  0  0  0  0  0  0  0  0
    9.1442  -17.3181   26.2928 C   0  0  2  0  0  0  0  0  0  0  0  0
    8.6268  -16.0080   26.8990 N   0  0  0  0  0  0  0  0  0  0  0  0
    9.8779  -17.9621   27.4040 C   0  0  0  0  0  0  0  0  0  0  0  0
   10.7574  -17.4874   28.1171 O   0  0  0  0  0  0  0  0  0  0  0  0
    9.5449  -19.3063   27.7131 O   0  0  0  0  0  0  0  0  0  0  0  0
  2  1  1  0
  3  2  1  0
  4  3  1  0
  4  5  1  0
  5  6  1  1
  5  1  1  0
  6  7  2  0
  8  6  1  0
  8  9  1  0
  9 10  1  0
 11 10  1  0
 12  8  1  0
 12 11  1  0
 13 14  2  0
 12 13  1  1
 16 15  1  0
 17 16  2  0
 18 16  1  0
 19 20  1  0
 19 18  1  0
 20 21  1  0
 22 21  1  6
 22 23  1  0
 22 24  1  0
 23 13  1  0
 24 26  1  0
 25 24  2  0
M  END
$$$$
