PPR.pdb
     RDKit          3D

 26 27  0  0  1  0  0  0  0  0999 V2000
    9.3041  -17.5552   18.0597 N   0  0  0  0  0  0  0  0  0  0  0  0
    8.4868  -18.1301   17.0261 C   0  0  0  0  0  0  0  0  0  0  0  0
    7.0563  -17.9277   17.4042 C   0  0  0  0  0  0  0  0  0  0  0  0
    7.1632  -17.2601   18.7775 C   0  0  0  0  0  0  0  0  0  0  0  0
    8.4632  -16.4710   18.5626 C   0  0  1  0  0  0  0  0  0  0  0  0
    8.9791  -15.9126   19.8228 C   0  0  0  0  0  0  0  0  0  0  0  0
   10.0739  -16.3627   20.2484 O   0  0  0  0  0  0  0  0  0  0  0  0
    8.2396  -14.9117   20.4936 N   0  0  0  0  0  0  0  0  0  0  0  0
    7.0138  -14.3020   20.0421 C   0  0  0  0  0  0  0  0  0  0  0  0
    7.1266  -12.8824   20.5509 C   0  0  0  0  0  0  0  0  0  0  0  0
    8.3331  -12.8293   21.4504 C   0  0  0  0  0  0  0  0  0  0  0  0
    8.5737  -14.3109   21.7579 C   0  0  1  0  0  0  0  0  0  0  0  0
    7.6398  -14.7109   22.8382 C   0  0  0  0  0  0  0  0  0  0  0  0
    6.4098  -14.5766   22.6273 O   0  0  0  0  0  0  0  0  0  0  0  0
    4.8889  -21.6868   22.0480 N   0  0  0  0  0  0  0  0  0  0  0  0
    5.5286  -21.9205   23.3023 C   0  0  0  0  0  0  0  0  0  0  0  0
    5.0507  -22.8512   24.0706 N   0  0  0  0  0  0  0  0  0  0  0  0
    6.6546  -21.1848   23.7406 N   0  0  0  0  0  0  0  0  0  0  0  0
    7.1088  -19.9711   22.9963 C   0  0  0  0  0  0  0  0  0  0  0  0
    6.9943  -18.8517   23.9626 C   0  0  0  0  0  0  0  0  0  0  0  0
    7.4200  -17.4916   23.6476 C   0  0  0  0  0  0  0  0  0  0  0  0
    7.3177  -16.4340   24.6695 C   0  0  2  0  0  0  0  0  0  0  0  0
    8.0570  -15.2286   24.0764 N   0  0  0  0  0  0  0  0  0  0  0  0
    8.0519  -16.7249   25.9201 C   0  0  0  0  0  0  0  0  0  0  0  0
    9.2471  -16.5764   26.1582 O   0  0  0  0  0  0  0  0  0  0  0  0
    7.3053  -17.2452   27.0089 O   0  0  0  0  0  0  0  0  0  0  0  0
  2  1  1  0
  3  2  1  0
  4  3  1  0
  4  5  1  0
  5  6  1  1
  5  1  1  0
  6  7  2  0
  8  6  1  0
  8  9  1  0
  9 10  1  0
 11 10  1  0
 12  8  1  0
 12 11  1  0
 13 14  2  0
 12 13  1  1
 16 15  1  0
 17 16  2  0
 18 16  1  0
 19 20  1  0
 19 18  1  0
 20 21  1  0
 22 21  1  6
 22 23  1  0
 22 24  1  0
 23 13  1  0
 24 26  1  0
 25 24  2  0
M  END
$$$$
