PPR.pdb
     RDKit          3D

 26 27  0  0  1  0  0  0  0  0999 V2000
    9.3183  -15.8084   15.5324 N   0  0  0  0  0  0  0  0  0  0  0  0
    8.3351  -16.4108   14.6738 C   0  0  0  0  0  0  0  0  0  0  0  0
    7.1691  -16.8091   15.5174 C   0  0  0  0  0  0  0  0  0  0  0  0
    7.6350  -16.4427   16.9287 C   0  0  0  0  0  0  0  0  0  0  0  0
    8.4984  -15.2188   16.5886 C   0  0  1  0  0  0  0  0  0  0  0  0
    9.3087  -14.7843   17.7378 C   0  0  0  0  0  0  0  0  0  0  0  0
   10.5593  -14.8071   17.6040 O   0  0  0  0  0  0  0  0  0  0  0  0
    8.6639  -14.3662   18.9244 N   0  0  0  0  0  0  0  0  0  0  0  0
    7.2481  -14.1659   19.1074 C   0  0  0  0  0  0  0  0  0  0  0  0
    7.1860  -13.0108   20.0814 C   0  0  0  0  0  0  0  0  0  0  0  0
    8.5920  -12.7575   20.5575 C   0  0  0  0  0  0  0  0  0  0  0  0
    9.3028  -14.0604   20.1771 C   0  0  1  0  0  0  0  0  0  0  0  0
    9.0040  -15.0668   21.2246 C   0  0  0  0  0  0  0  0  0  0  0  0
    7.7997  -15.3489   21.4377 O   0  0  0  0  0  0  0  0  0  0  0  0
   14.3263  -18.7333   23.0486 N   0  0  0  0  0  0  0  0  0  0  0  0
   14.5257  -18.8841   21.6435 C   0  0  0  0  0  0  0  0  0  0  0  0
   15.7399  -19.0293   21.2082 N   0  0  0  0  0  0  0  0  0  0  0  0
   13.4619  -18.8817   20.7108 N   0  0  0  0  0  0  0  0  0  0  0  0
   12.0883  -19.3042   21.1206 C   0  0  0  0  0  0  0  0  0  0  0  0
   11.4961  -18.1200   21.7891 C   0  0  0  0  0  0  0  0  0  0  0  0
   10.1134  -18.0872   22.2555 C   0  0  0  0  0  0  0  0  0  0  0  0
    9.5851  -16.8737   22.9049 C   0  0  2  0  0  0  0  0  0  0  0  0
    9.9915  -15.7159   21.9851 N   0  0  0  0  0  0  0  0  0  0  0  0
   10.2275  -16.5477   24.1967 C   0  0  0  0  0  0  0  0  0  0  0  0
   10.9934  -15.6248   24.4592 O   0  0  0  0  0  0  0  0  0  0  0  0
    9.9410  -17.3935   25.2995 O   0  0  0  0  0  0  0  0  0  0  0  0
  2  1  1  0
  3  2  1  0
  4  3  1  0
  4  5  1  0
  5  6  1  1
  5  1  1  0
  6  7  2  0
  8  6  1  0
  8  9  1  0
  9 10  1  0
 11 10  1  0
 12  8  1  0
 12 11  1  0
 13 14  2  0
 12 13  1  1
 16 15  1  0
 17 16  2  0
 18 16  1  0
 19 20  1  0
 19 18  1  0
 20 21  1  0
 22 21  1  6
 22 23  1  0
 22 24  1  0
 23 13  1  0
 24 26  1  0
 25 24  2  0
M  END
$$$$
