PPR.pdb
     RDKit          3D

 26 27  0  0  1  0  0  0  0  0999 V2000
    8.9540  -13.8610   20.8640 N   0  0  0  0  0  0  0  0  0  0  0  0
    8.2068  -13.3861   19.7314 C   0  0  0  0  0  0  0  0  0  0  0  0
    6.7771  -13.2590   20.1434 C   0  0  0  0  0  0  0  0  0  0  0  0
    6.7943  -13.7829   21.5816 C   0  0  0  0  0  0  0  0  0  0  0  0
    8.1996  -13.3183   21.9917 C   0  0  1  0  0  0  0  0  0  0  0  0
    8.6198  -13.9103   23.2720 C   0  0  0  0  0  0  0  0  0  0  0  0
    9.7327  -14.4960   23.2996 O   0  0  0  0  0  0  0  0  0  0  0  0
    7.7739  -13.8005   24.3993 N   0  0  0  0  0  0  0  0  0  0  0  0
    6.4983  -13.1309   24.4536 C   0  0  0  0  0  0  0  0  0  0  0  0
    6.4597  -12.5755   25.8597 C   0  0  0  0  0  0  0  0  0  0  0  0
    7.6429  -13.1483   26.5942 C   0  0  0  0  0  0  0  0  0  0  0  0
    8.0289  -14.3381   25.7096 C   0  0  1  0  0  0  0  0  0  0  0  0
    7.1266  -15.4670   26.0428 C   0  0  0  0  0  0  0  0  0  0  0  0
    5.9573  -15.4347   25.5878 O   0  0  0  0  0  0  0  0  0  0  0  0
   13.1341  -20.0329   23.1638 N   0  0  0  0  0  0  0  0  0  0  0  0
   11.9078  -20.3747   22.5187 C   0  0  0  0  0  0  0  0  0  0  0  0
   11.9636  -20.8933   21.3301 N   0  0  0  0  0  0  0  0  0  0  0  0
   10.6416  -20.1729   23.1166 N   0  0  0  0  0  0  0  0  0  0  0  0
   10.4809  -19.2224   24.2585 C   0  0  0  0  0  0  0  0  0  0  0  0
    9.0853  -18.7287   24.1654 C   0  0  0  0  0  0  0  0  0  0  0  0
    8.5804  -17.6325   24.9863 C   0  0  0  0  0  0  0  0  0  0  0  0
    7.7461  -17.9220   26.1668 C   0  0  2  0  0  0  0  0  0  0  0  0
    7.5097  -16.5624   26.8355 N   0  0  0  0  0  0  0  0  0  0  0  0
    8.4258  -18.7209   27.2096 C   0  0  0  0  0  0  0  0  0  0  0  0
    8.1320  -19.8353   27.6328 O   0  0  0  0  0  0  0  0  0  0  0  0
    9.5733  -18.1534   27.8217 O   0  0  0  0  0  0  0  0  0  0  0  0
  2  1  1  0
  3  2  1  0
  4  3  1  0
  4  5  1  0
  5  6  1  1
  5  1  1  0
  6  7  2  0
  8  6  1  0
  8  9  1  0
  9 10  1  0
 11 10  1  0
 12  8  1  0
 12 11  1  0
 13 14  2  0
 12 13  1  1
 16 15  1  0
 17 16  2  0
 18 16  1  0
 19 20  1  0
 19 18  1  0
 20 21  1  0
 22 21  1  6
 22 23  1  0
 22 24  1  0
 23 13  1  0
 24 26  1  0
 25 24  2  0
M  END
$$$$
