LGC.pdb
     RDKit          3D

 19 18  0  0  1  0  0  0  0  0999 V2000
   29.2041  -18.4119   -5.3719 C   0  0  0  0  0  0  0  0  0  0  0  0
   28.3081  -19.5901   -5.1549 C   0  0  2  0  0  0  0  0  0  0  0  0
   28.6847  -20.3242   -3.8876 C   0  0  0  0  0  0  0  0  0  0  0  0
   28.2863  -20.5082   -6.3609 C   0  0  0  0  0  0  0  0  0  0  0  0
   27.9421  -19.6534   -7.5597 C   0  0  2  0  0  0  0  0  0  0  0  0
   26.6429  -19.0555   -7.3132 N   0  0  0  0  0  0  0  0  0  0  0  0
   27.8195  -20.5263   -8.7688 C   0  0  0  0  0  0  0  0  0  0  0  0
   28.5399  -21.5695   -8.8770 O   0  0  0  0  0  0  0  0  0  0  0  0
   26.9197  -20.2287   -9.8082 N   0  0  0  0  0  0  0  0  0  0  0  0
   26.8329  -21.0935  -10.9417 C   0  0  0  0  0  0  0  0  0  0  0  0
   25.4294  -21.4834  -11.2479 C   0  0  0  0  0  0  0  0  0  0  0  0
   25.2124  -22.2098  -12.2352 O   0  0  0  0  0  0  0  0  0  0  0  0
   24.3291  -21.0587  -10.4571 N   0  0  0  0  0  0  0  0  0  0  0  0
   22.9559  -21.2907  -10.8586 C   0  0  1  0  0  0  0  0  0  0  0  0
   21.9973  -21.2045   -9.6935 C   0  0  0  0  0  0  0  0  0  0  0  0
   22.6227  -22.1675   -8.3056 S   0  0  0  0  0  0  0  0  0  0  0  0
   22.5868  -20.2154  -11.8154 C   0  0  0  0  0  0  0  0  0  0  0  0
   21.4522  -20.3199  -12.6159 O   0  0  0  0  0  0  0  0  0  0  0  0
   23.2718  -19.1687  -11.9494 O   0  0  0  0  0  0  0  0  0  0  0  0
  2  1  1  6
  3  2  1  0
  4  2  1  0
  5  4  1  0
  5  6  1  1
  7  8  2  0
  7  5  1  0
  9  7  1  0
 10  9  1  0
 11 10  1  0
 11 13  1  0
 12 11  2  0
 14 13  1  0
 14 15  1  1
 15 16  1  0
 17 18  1  0
 17 14  1  0
 19 17  2  0
M  END
$$$$
