LGC.pdb
     RDKit          3D

 19 18  0  0  1  0  0  0  0  0999 V2000
   24.0898  -15.5122  -18.3147 C   0  0  0  0  0  0  0  0  0  0  0  0
   24.8608  -15.3915  -17.0383 C   0  0  2  0  0  0  0  0  0  0  0  0
   25.5432  -14.0451  -16.9493 C   0  0  0  0  0  0  0  0  0  0  0  0
   25.8363  -16.5382  -16.8615 C   0  0  0  0  0  0  0  0  0  0  0  0
   25.6687  -17.0457  -15.4471 C   0  0  2  0  0  0  0  0  0  0  0  0
   26.2870  -16.0791  -14.5585 N   0  0  0  0  0  0  0  0  0  0  0  0
   26.4061  -18.3390  -15.2966 C   0  0  0  0  0  0  0  0  0  0  0  0
   25.9983  -19.3793  -15.9053 O   0  0  0  0  0  0  0  0  0  0  0  0
   27.5545  -18.4468  -14.4917 N   0  0  0  0  0  0  0  0  0  0  0  0
   28.2224  -19.7037  -14.3719 C   0  0  0  0  0  0  0  0  0  0  0  0
   27.7309  -20.4957  -13.2113 C   0  0  0  0  0  0  0  0  0  0  0  0
   28.1556  -21.6554  -13.0559 O   0  0  0  0  0  0  0  0  0  0  0  0
   26.7965  -19.9791  -12.2752 N   0  0  0  0  0  0  0  0  0  0  0  0
   26.1878  -20.8093  -11.2551 C   0  0  1  0  0  0  0  0  0  0  0  0
   26.2130  -20.1533   -9.8939 C   0  0  0  0  0  0  0  0  0  0  0  0
   25.2759  -21.1406   -8.7142 S   0  0  0  0  0  0  0  0  0  0  0  0
   24.7620  -20.9965  -11.6294 C   0  0  0  0  0  0  0  0  0  0  0  0
   24.1602  -20.1999  -12.6002 O   0  0  0  0  0  0  0  0  0  0  0  0
   24.0348  -21.8731  -11.0951 O   0  0  0  0  0  0  0  0  0  0  0  0
  2  1  1  6
  3  2  1  0
  4  2  1  0
  5  4  1  0
  5  6  1  1
  7  8  2  0
  7  5  1  0
  9  7  1  0
 10  9  1  0
 11 10  1  0
 11 13  1  0
 12 11  2  0
 14 13  1  0
 14 15  1  1
 15 16  1  0
 17 18  1  0
 17 14  1  0
 19 17  2  0
M  END
$$$$
