LGC.pdb
     RDKit          3D

 19 18  0  0  1  0  0  0  0  0999 V2000
   17.3938  -15.0487  -19.1530 C   0  0  0  0  0  0  0  0  0  0  0  0
   16.2418  -14.7378  -18.2505 C   0  0  2  0  0  0  0  0  0  0  0  0
   14.9617  -14.5989  -19.0433 C   0  0  0  0  0  0  0  0  0  0  0  0
   16.5154  -13.5195  -17.3909 C   0  0  0  0  0  0  0  0  0  0  0  0
   17.7158  -13.8466  -16.5316 C   0  0  2  0  0  0  0  0  0  0  0  0
   17.3286  -14.9115  -15.6249 N   0  0  0  0  0  0  0  0  0  0  0  0
   18.0705  -12.6512  -15.7046 C   0  0  0  0  0  0  0  0  0  0  0  0
   17.6180  -12.5385  -14.5208 O   0  0  0  0  0  0  0  0  0  0  0  0
   18.9015  -11.6295  -16.1989 N   0  0  0  0  0  0  0  0  0  0  0  0
   19.1920  -10.4935  -15.3833 C   0  0  0  0  0  0  0  0  0  0  0  0
   18.4977   -9.2654  -15.8580 C   0  0  0  0  0  0  0  0  0  0  0  0
   18.3414   -9.1022  -17.0822 O   0  0  0  0  0  0  0  0  0  0  0  0
   18.0070   -8.2734  -14.9684 N   0  0  0  0  0  0  0  0  0  0  0  0
   17.4356   -7.0283  -15.4413 C   0  0  1  0  0  0  0  0  0  0  0  0
   16.3960   -6.4793  -14.4917 C   0  0  0  0  0  0  0  0  0  0  0  0
   15.1885   -7.7547  -14.0921 S   0  0  0  0  0  0  0  0  0  0  0  0
   18.5379   -6.0344  -15.5128 C   0  0  0  0  0  0  0  0  0  0  0  0
   18.3192   -4.7479  -15.9987 O   0  0  0  0  0  0  0  0  0  0  0  0
   19.7104   -6.3011  -15.1428 O   0  0  0  0  0  0  0  0  0  0  0  0
  2  1  1  6
  3  2  1  0
  4  2  1  0
  5  4  1  0
  5  6  1  1
  7  8  2  0
  7  5  1  0
  9  7  1  0
 10  9  1  0
 11 10  1  0
 11 13  1  0
 12 11  2  0
 14 13  1  0
 14 15  1  1
 15 16  1  0
 17 18  1  0
 17 14  1  0
 19 17  2  0
M  END
$$$$
