LGC.pdb
     RDKit          3D

 19 18  0  0  1  0  0  0  0  0999 V2000
   28.4857  -17.9588  -15.9437 C   0  0  0  0  0  0  0  0  0  0  0  0
   27.1639  -17.2728  -16.0868 C   0  0  2  0  0  0  0  0  0  0  0  0
   27.3520  -15.8140  -16.4374 C   0  0  0  0  0  0  0  0  0  0  0  0
   26.3000  -17.4566  -14.8549 C   0  0  0  0  0  0  0  0  0  0  0  0
   26.2593  -18.9394  -14.5620 C   0  0  2  0  0  0  0  0  0  0  0  0
   25.3671  -19.5527  -15.5285 N   0  0  0  0  0  0  0  0  0  0  0  0
   25.6757  -19.1574  -13.2016 C   0  0  0  0  0  0  0  0  0  0  0  0
   24.5133  -18.7175  -12.9290 O   0  0  0  0  0  0  0  0  0  0  0  0
   26.3796  -19.8438  -12.1956 N   0  0  0  0  0  0  0  0  0  0  0  0
   25.8728  -19.8620  -10.8603 C   0  0  0  0  0  0  0  0  0  0  0  0
   24.6293  -20.6711  -10.7396 C   0  0  0  0  0  0  0  0  0  0  0  0
   24.5525  -21.7461  -11.3624 O   0  0  0  0  0  0  0  0  0  0  0  0
   23.5278  -20.2637   -9.9415 N   0  0  0  0  0  0  0  0  0  0  0  0
   22.3894  -21.1276   -9.6997 C   0  0  1  0  0  0  0  0  0  0  0  0
   21.9979  -21.1625   -8.2405 C   0  0  0  0  0  0  0  0  0  0  0  0
   20.5313  -22.1843   -8.0180 S   0  0  0  0  0  0  0  0  0  0  0  0
   21.2388  -20.5648  -10.4529 C   0  0  0  0  0  0  0  0  0  0  0  0
   20.3283  -21.3927  -11.1045 O   0  0  0  0  0  0  0  0  0  0  0  0
   21.0309  -19.3270  -10.5393 O   0  0  0  0  0  0  0  0  0  0  0  0
  2  1  1  1
  3  2  1  0
  4  2  1  0
  5  4  1  0
  5  6  1  6
  7  8  2  0
  7  5  1  0
  9  7  1  0
 10  9  1  0
 11 10  1  0
 11 13  1  0
 12 11  2  0
 14 13  1  0
 14 15  1  1
 15 16  1  0
 17 18  1  0
 17 14  1  0
 19 17  2  0
M  END
$$$$
