LGC.pdb
     RDKit          3D

 19 18  0  0  1  0  0  0  0  0999 V2000
   17.6283  -13.0281  -17.7653 C   0  0  0  0  0  0  0  0  0  0  0  0
   17.8132  -12.3513  -16.4439 C   0  0  2  0  0  0  0  0  0  0  0  0
   16.8368  -12.8916  -15.4234 C   0  0  0  0  0  0  0  0  0  0  0  0
   17.7306  -10.8430  -16.5695 C   0  0  0  0  0  0  0  0  0  0  0  0
   18.9700  -10.3936  -17.3100 C   0  0  2  0  0  0  0  0  0  0  0  0
   20.1124  -10.6634  -16.4566 N   0  0  0  0  0  0  0  0  0  0  0  0
   18.9046   -8.9149  -17.5290 C   0  0  0  0  0  0  0  0  0  0  0  0
   17.9471   -8.4119  -18.1992 O   0  0  0  0  0  0  0  0  0  0  0  0
   19.8818   -8.0461  -17.0107 N   0  0  0  0  0  0  0  0  0  0  0  0
   19.7612   -6.6378  -17.2166 C   0  0  0  0  0  0  0  0  0  0  0  0
   19.9039   -5.8680  -15.9506 C   0  0  0  0  0  0  0  0  0  0  0  0
   18.8746   -5.4967  -15.3572 O   0  0  0  0  0  0  0  0  0  0  0  0
   21.1688   -5.5412  -15.3942 N   0  0  0  0  0  0  0  0  0  0  0  0
   21.3012   -4.9279  -14.0877 C   0  0  1  0  0  0  0  0  0  0  0  0
   22.2424   -5.6956  -13.1885 C   0  0  0  0  0  0  0  0  0  0  0  0
   21.6619   -7.3888  -12.9873 S   0  0  0  0  0  0  0  0  0  0  0  0
   21.8864   -3.5771  -14.2902 C   0  0  0  0  0  0  0  0  0  0  0  0
   21.9157   -2.6414  -13.2593 O   0  0  0  0  0  0  0  0  0  0  0  0
   22.3792   -3.2144  -15.3894 O   0  0  0  0  0  0  0  0  0  0  0  0
  2  1  1  6
  3  2  1  0
  4  2  1  0
  5  4  1  0
  5  6  1  1
  7  8  2  0
  7  5  1  0
  9  7  1  0
 10  9  1  0
 11 10  1  0
 11 13  1  0
 12 11  2  0
 14 13  1  0
 14 15  1  1
 15 16  1  0
 17 18  1  0
 17 14  1  0
 19 17  2  0
M  END
$$$$
