LGC.pdb
     RDKit          3D

 19 18  0  0  1  0  0  0  0  0999 V2000
   22.9225  -18.3001  -18.3761 C   0  0  0  0  0  0  0  0  0  0  0  0
   22.4750  -18.5168  -16.9651 C   0  0  2  0  0  0  0  0  0  0  0  0
   21.3413  -17.5805  -16.6122 C   0  0  0  0  0  0  0  0  0  0  0  0
   23.6287  -18.4094  -15.9878 C   0  0  0  0  0  0  0  0  0  0  0  0
   24.7499  -19.2648  -16.5332 C   0  0  2  0  0  0  0  0  0  0  0  0
   24.2615  -20.6291  -16.6123 N   0  0  0  0  0  0  0  0  0  0  0  0
   25.8963  -19.2467  -15.5718 C   0  0  0  0  0  0  0  0  0  0  0  0
   26.5567  -18.1748  -15.3881 O   0  0  0  0  0  0  0  0  0  0  0  0
   26.2762  -20.3935  -14.8514 N   0  0  0  0  0  0  0  0  0  0  0  0
   27.2164  -20.2814  -13.7820 C   0  0  0  0  0  0  0  0  0  0  0  0
   26.7095  -20.8850  -12.5192 C   0  0  0  0  0  0  0  0  0  0  0  0
   26.2175  -22.0278  -12.5581 O   0  0  0  0  0  0  0  0  0  0  0  0
   26.7659  -20.2074  -11.2727 N   0  0  0  0  0  0  0  0  0  0  0  0
   26.2157  -20.7781  -10.0593 C   0  0  1  0  0  0  0  0  0  0  0  0
   26.5340  -19.9441   -8.8398 C   0  0  0  0  0  0  0  0  0  0  0  0
   25.7172  -20.6325   -7.3896 S   0  0  0  0  0  0  0  0  0  0  0  0
   24.7375  -20.7959  -10.2093 C   0  0  0  0  0  0  0  0  0  0  0  0
   24.0852  -19.8864  -11.0377 O   0  0  0  0  0  0  0  0  0  0  0  0
   24.0089  -21.6231   -9.6031 O   0  0  0  0  0  0  0  0  0  0  0  0
  2  1  1  6
  3  2  1  0
  4  2  1  0
  5  4  1  0
  5  6  1  1
  7  8  2  0
  7  5  1  0
  9  7  1  0
 10  9  1  0
 11 10  1  0
 11 13  1  0
 12 11  2  0
 14 13  1  0
 14 15  1  1
 15 16  1  0
 17 18  1  0
 17 14  1  0
 19 17  2  0
M  END
$$$$
