LGC.pdb
     RDKit          3D

 19 18  0  0  1  0  0  0  0  0999 V2000
   24.0784  -18.7677  -17.2319 C   0  0  0  0  0  0  0  0  0  0  0  0
   25.5549  -18.7002  -17.4635 C   0  0  2  0  0  0  0  0  0  0  0  0
   25.8738  -18.8375  -18.9352 C   0  0  0  0  0  0  0  0  0  0  0  0
   26.3020  -19.7148  -16.6208 C   0  0  0  0  0  0  0  0  0  0  0  0
   25.8523  -19.5172  -15.1908 C   0  0  2  0  0  0  0  0  0  0  0  0
   26.3537  -18.2294  -14.7477 N   0  0  0  0  0  0  0  0  0  0  0  0
   26.4750  -20.5694  -14.3282 C   0  0  0  0  0  0  0  0  0  0  0  0
   26.1599  -21.7919  -14.4870 O   0  0  0  0  0  0  0  0  0  0  0  0
   27.4131  -20.2486  -13.3304 N   0  0  0  0  0  0  0  0  0  0  0  0
   27.9361  -21.2784  -12.4900 C   0  0  0  0  0  0  0  0  0  0  0  0
   27.1353  -21.4541  -11.2476 C   0  0  0  0  0  0  0  0  0  0  0  0
   27.4004  -22.4098  -10.4954 O   0  0  0  0  0  0  0  0  0  0  0  0
   26.0811  -20.5734  -10.8877 N   0  0  0  0  0  0  0  0  0  0  0  0
   25.2531  -20.7987   -9.7198 C   0  0  1  0  0  0  0  0  0  0  0  0
   25.5077  -19.7796   -8.6333 C   0  0  0  0  0  0  0  0  0  0  0  0
   27.0557  -20.1488   -7.7897 S   0  0  0  0  0  0  0  0  0  0  0  0
   23.8373  -20.6472  -10.1451 C   0  0  0  0  0  0  0  0  0  0  0  0
   22.7881  -20.9246   -9.2726 O   0  0  0  0  0  0  0  0  0  0  0  0
   23.5183  -20.2655  -11.3006 O   0  0  0  0  0  0  0  0  0  0  0  0
  2  1  1  6
  3  2  1  0
  4  2  1  0
  5  4  1  0
  5  6  1  1
  7  8  2  0
  7  5  1  0
  9  7  1  0
 10  9  1  0
 11 10  1  0
 11 13  1  0
 12 11  2  0
 14 13  1  0
 14 15  1  1
 15 16  1  0
 17 18  1  0
 17 14  1  0
 19 17  2  0
M  END
$$$$
