LGC.pdb
     RDKit          3D

 19 18  0  0  1  0  0  0  0  0999 V2000
   23.1364  -18.6195  -18.6267 C   0  0  0  0  0  0  0  0  0  0  0  0
   22.0921  -17.9144  -17.8201 C   0  0  2  0  0  0  0  0  0  0  0  0
   22.0437  -16.4448  -18.1727 C   0  0  0  0  0  0  0  0  0  0  0  0
   22.2854  -18.1383  -16.3334 C   0  0  0  0  0  0  0  0  0  0  0  0
   22.2675  -19.6332  -16.1065 C   0  0  2  0  0  0  0  0  0  0  0  0
   20.9558  -20.1193  -16.4931 N   0  0  0  0  0  0  0  0  0  0  0  0
   22.4446  -19.9126  -14.6473 C   0  0  0  0  0  0  0  0  0  0  0  0
   23.4257  -19.4047  -14.0160 O   0  0  0  0  0  0  0  0  0  0  0  0
   21.5486  -20.7314  -13.9365 N   0  0  0  0  0  0  0  0  0  0  0  0
   21.6389  -20.8148  -12.5134 C   0  0  0  0  0  0  0  0  0  0  0  0
   20.5377  -21.6250  -11.9245 C   0  0  0  0  0  0  0  0  0  0  0  0
   20.5238  -21.8102  -10.6937 O   0  0  0  0  0  0  0  0  0  0  0  0
   19.5030  -22.1944  -12.7128 N   0  0  0  0  0  0  0  0  0  0  0  0
   18.4589  -23.0178  -12.1364 C   0  0  1  0  0  0  0  0  0  0  0  0
   17.5392  -22.2269  -11.2349 C   0  0  0  0  0  0  0  0  0  0  0  0
   17.3227  -23.0851   -9.6661 S   0  0  0  0  0  0  0  0  0  0  0  0
   17.6365  -23.5398  -13.2586 C   0  0  0  0  0  0  0  0  0  0  0  0
   16.8217  -24.6574  -13.0973 O   0  0  0  0  0  0  0  0  0  0  0  0
   17.6344  -23.0053  -14.3975 O   0  0  0  0  0  0  0  0  0  0  0  0
  2  1  1  6
  3  2  1  0
  4  2  1  0
  5  4  1  0
  5  6  1  1
  7  8  2  0
  7  5  1  0
  9  7  1  0
 10  9  1  0
 11 10  1  0
 11 13  1  0
 12 11  2  0
 14 13  1  0
 14 15  1  1
 15 16  1  0
 17 18  1  0
 17 14  1  0
 19 17  2  0
M  END
$$$$
