LGC.pdb
     RDKit          3D

 19 18  0  0  1  0  0  0  0  0999 V2000
   21.0435  -23.1347  -15.7316 C   0  0  0  0  0  0  0  0  0  0  0  0
   20.6456  -24.5711  -15.8612 C   0  0  2  0  0  0  0  0  0  0  0  0
   20.1372  -24.8630  -17.2551 C   0  0  0  0  0  0  0  0  0  0  0  0
   19.6481  -24.9755  -14.7939 C   0  0  0  0  0  0  0  0  0  0  0  0
   20.3481  -24.8367  -13.4608 C   0  0  2  0  0  0  0  0  0  0  0  0
   21.4122  -25.8227  -13.4198 N   0  0  0  0  0  0  0  0  0  0  0  0
   19.3852  -25.1603  -12.3622 C   0  0  0  0  0  0  0  0  0  0  0  0
   18.3882  -24.4002  -12.1446 O   0  0  0  0  0  0  0  0  0  0  0  0
   19.5463  -26.2954  -11.5473 N   0  0  0  0  0  0  0  0  0  0  0  0
   18.5921  -26.5748  -10.5218 C   0  0  0  0  0  0  0  0  0  0  0  0
   18.8522  -25.7945   -9.2812 C   0  0  0  0  0  0  0  0  0  0  0  0
   20.0182  -25.4356   -9.0339 O   0  0  0  0  0  0  0  0  0  0  0  0
   17.8215  -25.4441   -8.3695 N   0  0  0  0  0  0  0  0  0  0  0  0
   18.0915  -24.7280   -7.1386 C   0  0  1  0  0  0  0  0  0  0  0  0
   16.8731  -23.9975   -6.6231 C   0  0  0  0  0  0  0  0  0  0  0  0
   16.2681  -22.8471   -7.8702 S   0  0  0  0  0  0  0  0  0  0  0  0
   18.4693  -25.7357   -6.1140 C   0  0  0  0  0  0  0  0  0  0  0  0
   19.1927  -25.3756   -4.9800 O   0  0  0  0  0  0  0  0  0  0  0  0
   18.1588  -26.9504   -6.2174 O   0  0  0  0  0  0  0  0  0  0  0  0
  2  1  1  6
  3  2  1  0
  4  2  1  0
  5  4  1  0
  5  6  1  6
  7  8  2  0
  7  5  1  0
  9  7  1  0
 10  9  1  0
 11 10  1  0
 11 13  1  0
 12 11  2  0
 14 13  1  0
 14 15  1  1
 15 16  1  0
 17 18  1  0
 17 14  1  0
 19 17  2  0
M  END
$$$$
