LGC.pdb
     RDKit          3D

 19 18  0  0  1  0  0  0  0  0999 V2000
   19.4442   -9.1948  -17.9943 C   0  0  0  0  0  0  0  0  0  0  0  0
   20.5179   -9.9915  -17.3231 C   0  0  2  0  0  0  0  0  0  0  0  0
   19.9217  -11.1266  -16.5214 C   0  0  0  0  0  0  0  0  0  0  0  0
   21.4251   -9.1147  -16.4828 C   0  0  0  0  0  0  0  0  0  0  0  0
   20.7936   -9.0118  -15.1128 C   0  0  2  0  0  0  0  0  0  0  0  0
   19.4543   -8.4805  -15.2864 N   0  0  0  0  0  0  0  0  0  0  0  0
   21.5673   -8.0343  -14.2854 C   0  0  0  0  0  0  0  0  0  0  0  0
   22.7797   -8.2747  -13.9832 O   0  0  0  0  0  0  0  0  0  0  0  0
   20.9912   -6.8378  -13.8218 N   0  0  0  0  0  0  0  0  0  0  0  0
   21.7775   -5.9185  -13.0623 C   0  0  0  0  0  0  0  0  0  0  0  0
   22.0305   -4.6497  -13.7985 C   0  0  0  0  0  0  0  0  0  0  0  0
   22.6292   -3.7282  -13.2137 O   0  0  0  0  0  0  0  0  0  0  0  0
   21.6151   -4.4505  -15.1416 N   0  0  0  0  0  0  0  0  0  0  0  0
   21.7954   -3.1851  -15.8248 C   0  0  1  0  0  0  0  0  0  0  0  0
   22.0911   -3.3665  -17.2957 C   0  0  0  0  0  0  0  0  0  0  0  0
   22.1694   -1.7633  -18.1131 S   0  0  0  0  0  0  0  0  0  0  0  0
   20.5146   -2.4390  -15.7200 C   0  0  0  0  0  0  0  0  0  0  0  0
   19.2890   -3.0893  -15.8376 O   0  0  0  0  0  0  0  0  0  0  0  0
   20.4726   -1.1973  -15.5221 O   0  0  0  0  0  0  0  0  0  0  0  0
  2  1  1  1
  3  2  1  0
  4  2  1  0
  5  4  1  0
  5  6  1  6
  7  8  2  0
  7  5  1  0
  9  7  1  0
 10  9  1  0
 11 10  1  0
 11 13  1  0
 12 11  2  0
 14 13  1  0
 14 15  1  6
 15 16  1  0
 17 18  1  0
 17 14  1  0
 19 17  2  0
M  END
$$$$
