LGC.pdb
     RDKit          3D

 19 18  0  0  1  0  0  0  0  0999 V2000
   24.4766  -13.6755  -16.1444 C   0  0  0  0  0  0  0  0  0  0  0  0
   24.0795  -13.3688  -17.5539 C   0  0  2  0  0  0  0  0  0  0  0  0
   25.0722  -13.9576  -18.5309 C   0  0  0  0  0  0  0  0  0  0  0  0
   23.8802  -11.8817  -17.7697 C   0  0  0  0  0  0  0  0  0  0  0  0
   22.8345  -11.4281  -16.7762 C   0  0  2  0  0  0  0  0  0  0  0  0
   21.5472  -11.9060  -17.2461 N   0  0  0  0  0  0  0  0  0  0  0  0
   22.7863   -9.9327  -16.7592 C   0  0  0  0  0  0  0  0  0  0  0  0
   23.7594   -9.2695  -16.2774 O   0  0  0  0  0  0  0  0  0  0  0  0
   21.6835   -9.2220  -17.2663 N   0  0  0  0  0  0  0  0  0  0  0  0
   21.6835   -7.7939  -17.2346 C   0  0  0  0  0  0  0  0  0  0  0  0
   20.9519   -7.2556  -16.0553 C   0  0  0  0  0  0  0  0  0  0  0  0
   20.0641   -7.9540  -15.5324 O   0  0  0  0  0  0  0  0  0  0  0  0
   21.2281   -5.9763  -15.5043 N   0  0  0  0  0  0  0  0  0  0  0  0
   20.5139   -5.4624  -14.3526 C   0  0  1  0  0  0  0  0  0  0  0  0
   21.4253   -5.2376  -13.1683 C   0  0  0  0  0  0  0  0  0  0  0  0
   22.8500   -4.2526  -13.6627 S   0  0  0  0  0  0  0  0  0  0  0  0
   19.9509   -4.1412  -14.7343 C   0  0  0  0  0  0  0  0  0  0  0  0
   19.0686   -3.4636  -13.8969 O   0  0  0  0  0  0  0  0  0  0  0  0
   20.2390   -3.5745  -15.8199 O   0  0  0  0  0  0  0  0  0  0  0  0
  2  1  1  1
  3  2  1  0
  4  2  1  0
  5  4  1  0
  5  6  1  6
  7  8  2  0
  7  5  1  0
  9  7  1  0
 10  9  1  0
 11 10  1  0
 11 13  1  0
 12 11  2  0
 14 13  1  0
 14 15  1  1
 15 16  1  0
 17 18  1  0
 17 14  1  0
 19 17  2  0
M  END
$$$$
