YGP.pdb
     RDKit          3D

 24 25  0  0  1  0  0  0  0  0999 V2000
   11.2234  -17.6084   31.6572 O   0  0  0  0  0  0  0  0  0  0  0  0
   11.0920  -16.8212   30.5227 C   0  0  0  0  0  0  0  0  0  0  0  0
   10.2778  -15.6949   30.5719 C   0  0  0  0  0  0  0  0  0  0  0  0
   10.1269  -14.8916   29.4593 C   0  0  0  0  0  0  0  0  0  0  0  0
   10.7848  -15.1996   28.2837 C   0  0  0  0  0  0  0  0  0  0  0  0
   10.6771  -14.3937   27.0510 C   0  0  0  0  0  0  0  0  0  0  0  0
    9.4856  -14.8467   26.2731 C   0  0  2  0  0  0  0  0  0  0  0  0
    9.4245  -16.2743   26.1139 N   0  0  0  0  0  0  0  0  0  0  0  0
    9.4205  -14.1592   24.9494 C   0  0  0  0  0  0  0  0  0  0  0  0
    9.3515  -12.9141   24.8858 O   0  0  0  0  0  0  0  0  0  0  0  0
   11.5890  -16.3200   28.2500 C   0  0  0  0  0  0  0  0  0  0  0  0
   11.7451  -17.1221   29.3465 C   0  0  0  0  0  0  0  0  0  0  0  0
    9.4371  -14.9279   23.7541 N   0  0  0  0  0  0  0  0  0  0  0  0
    9.4872  -14.2267   22.4894 C   0  0  0  0  0  0  0  0  0  0  0  0
    8.6621  -14.9078   21.4571 C   0  0  0  0  0  0  0  0  0  0  0  0
    8.2426  -16.0576   21.6852 O   0  0  0  0  0  0  0  0  0  0  0  0
    8.3562  -14.2699   20.2397 N   0  0  0  0  0  0  0  0  0  0  0  0
    8.7055  -12.9303   19.8591 C   0  0  0  0  0  0  0  0  0  0  0  0
    7.6503  -12.5203   18.8242 C   0  0  0  0  0  0  0  0  0  0  0  0
    6.7362  -13.7146   18.7102 C   0  0  0  0  0  0  0  0  0  0  0  0
    7.6286  -14.8561   19.1453 C   0  0  1  0  0  0  0  0  0  0  0  0
    8.5656  -15.2754   18.0630 C   0  0  0  0  0  0  0  0  0  0  0  0
    9.8966  -14.8858   18.0488 O   0  0  0  0  0  0  0  0  0  0  0  0
    8.1794  -16.0055   17.1129 O   0  0  0  0  0  0  0  0  0  0  0  0
  2  3  2  0
  2  1  1  0
  4  3  1  0
  5  4  2  0
  6  7  1  0
  6  5  1  0
  7  9  1  0
  7  8  1  6
  9 10  2  0
  9 13  1  0
 11  5  1  0
 11 12  2  0
 12  2  1  0
 13 14  1  0
 14 15  1  0
 15 17  1  0
 15 16  2  0
 17 18  1  0
 18 19  1  0
 20 19  1  0
 21 17  1  0
 21 20  1  0
 21 22  1  6
 23 22  1  0
 24 22  2  0
M  END
$$$$
