YGP.pdb
     RDKit          3D

 24 25  0  0  1  0  0  0  0  0999 V2000
   11.3916  -14.8802   30.4948 O   0  0  0  0  0  0  0  0  0  0  0  0
   10.4470  -15.0036   29.4866 C   0  0  0  0  0  0  0  0  0  0  0  0
    9.9664  -13.8555   28.8662 C   0  0  0  0  0  0  0  0  0  0  0  0
    9.0260  -13.9458   27.8595 C   0  0  0  0  0  0  0  0  0  0  0  0
    8.5522  -15.1803   27.4578 C   0  0  0  0  0  0  0  0  0  0  0  0
    7.5481  -15.3631   26.3907 C   0  0  0  0  0  0  0  0  0  0  0  0
    8.2473  -15.6864   25.1114 C   0  0  2  0  0  0  0  0  0  0  0  0
    9.3735  -14.8311   24.8516 N   0  0  0  0  0  0  0  0  0  0  0  0
    7.2922  -15.6738   23.9640 C   0  0  0  0  0  0  0  0  0  0  0  0
    6.4012  -16.5438   23.8729 O   0  0  0  0  0  0  0  0  0  0  0  0
    9.0382  -16.3103   28.0825 C   0  0  0  0  0  0  0  0  0  0  0  0
    9.9697  -16.2316   29.0806 C   0  0  0  0  0  0  0  0  0  0  0  0
    7.3985  -14.6645   22.9691 N   0  0  0  0  0  0  0  0  0  0  0  0
    6.5175  -14.7363   21.8235 C   0  0  0  0  0  0  0  0  0  0  0  0
    7.2286  -15.2474   20.6221 C   0  0  0  0  0  0  0  0  0  0  0  0
    7.1200  -16.4518   20.3262 O   0  0  0  0  0  0  0  0  0  0  0  0
    8.0134  -14.3899   19.8274 N   0  0  0  0  0  0  0  0  0  0  0  0
    8.3184  -13.0120   20.0914 C   0  0  0  0  0  0  0  0  0  0  0  0
    8.6009  -12.3941   18.7163 C   0  0  0  0  0  0  0  0  0  0  0  0
    8.4076  -13.5251   17.7373 C   0  0  0  0  0  0  0  0  0  0  0  0
    8.6583  -14.7480   18.5919 C   0  0  1  0  0  0  0  0  0  0  0  0
   10.1143  -14.9840   18.8145 C   0  0  0  0  0  0  0  0  0  0  0  0
   10.7275  -14.7132   20.0286 O   0  0  0  0  0  0  0  0  0  0  0  0
   10.8479  -15.4423   17.8997 O   0  0  0  0  0  0  0  0  0  0  0  0
  2  3  2  0
  2  1  1  0
  4  3  1  0
  5  4  2  0
  6  7  1  0
  6  5  1  0
  7  9  1  0
  7  8  1  6
  9 10  2  0
  9 13  1  0
 11  5  1  0
 11 12  2  0
 12  2  1  0
 13 14  1  0
 14 15  1  0
 15 17  1  0
 15 16  2  0
 17 18  1  0
 18 19  1  0
 20 19  1  0
 21 17  1  0
 21 20  1  0
 21 22  1  1
 23 22  1  0
 24 22  2  0
M  END
$$$$
