YGP.pdb
     RDKit          3D

 24 25  0  0  1  0  0  0  0  0999 V2000
    6.2897  -11.1168   28.7886 O   0  0  0  0  0  0  0  0  0  0  0  0
    6.6266  -11.9143   27.7048 C   0  0  0  0  0  0  0  0  0  0  0  0
    7.9052  -12.4567   27.6361 C   0  0  0  0  0  0  0  0  0  0  0  0
    8.2704  -13.2543   26.5701 C   0  0  0  0  0  0  0  0  0  0  0  0
    7.3671  -13.5219   25.5590 C   0  0  0  0  0  0  0  0  0  0  0  0
    7.6779  -14.3638   24.3864 C   0  0  0  0  0  0  0  0  0  0  0  0
    7.2369  -15.7642   24.6590 C   0  0  2  0  0  0  0  0  0  0  0  0
    7.9237  -16.3665   25.7693 N   0  0  0  0  0  0  0  0  0  0  0  0
    7.3590  -16.6094   23.4343 C   0  0  0  0  0  0  0  0  0  0  0  0
    8.4648  -17.0834   23.1004 O   0  0  0  0  0  0  0  0  0  0  0  0
    6.1024  -12.9768   25.6409 C   0  0  0  0  0  0  0  0  0  0  0  0
    5.7309  -12.1855   26.6925 C   0  0  0  0  0  0  0  0  0  0  0  0
    6.2083  -16.8757   22.6438 N   0  0  0  0  0  0  0  0  0  0  0  0
    5.9890  -16.0720   21.4607 C   0  0  0  0  0  0  0  0  0  0  0  0
    7.1464  -16.1468   20.5305 C   0  0  0  0  0  0  0  0  0  0  0  0
    7.3933  -17.2273   19.9635 O   0  0  0  0  0  0  0  0  0  0  0  0
    7.9542  -15.0189   20.2899 N   0  0  0  0  0  0  0  0  0  0  0  0
    7.9600  -13.7906   21.0333 C   0  0  0  0  0  0  0  0  0  0  0  0
    8.4685  -12.7296   20.0493 C   0  0  0  0  0  0  0  0  0  0  0  0
    8.7054  -13.4786   18.7617 C   0  0  0  0  0  0  0  0  0  0  0  0
    8.9314  -14.8957   19.2408 C   0  0  1  0  0  0  0  0  0  0  0  0
   10.3067  -15.0874   19.7859 C   0  0  0  0  0  0  0  0  0  0  0  0
   10.5431  -15.2768   21.1392 O   0  0  0  0  0  0  0  0  0  0  0  0
   11.3137  -15.0845   19.0303 O   0  0  0  0  0  0  0  0  0  0  0  0
  2  3  2  0
  2  1  1  0
  4  3  1  0
  5  4  2  0
  6  7  1  0
  6  5  1  0
  7  9  1  0
  7  8  1  1
  9 10  2  0
  9 13  1  0
 11  5  1  0
 11 12  2  0
 12  2  1  0
 13 14  1  0
 14 15  1  0
 15 17  1  0
 15 16  2  0
 17 18  1  0
 18 19  1  0
 20 19  1  0
 21 17  1  0
 21 20  1  0
 21 22  1  1
 23 22  1  0
 24 22  2  0
M  END
$$$$
