YGP.pdb
     RDKit          3D

 24 25  0  0  1  0  0  0  0  0999 V2000
    6.6519  -10.8061   27.1607 O   0  0  0  0  0  0  0  0  0  0  0  0
    6.6584  -12.1400   26.7801 C   0  0  0  0  0  0  0  0  0  0  0  0
    6.3180  -13.1115   27.7151 C   0  0  0  0  0  0  0  0  0  0  0  0
    6.3152  -14.4473   27.3665 C   0  0  0  0  0  0  0  0  0  0  0  0
    6.6513  -14.8327   26.0826 C   0  0  0  0  0  0  0  0  0  0  0  0
    6.6728  -16.2381   25.6299 C   0  0  0  0  0  0  0  0  0  0  0  0
    8.0816  -16.6350   25.3338 C   0  0  2  0  0  0  0  0  0  0  0  0
    8.9438  -16.5554   26.4816 N   0  0  0  0  0  0  0  0  0  0  0  0
    8.6320  -15.8388   24.1971 C   0  0  0  0  0  0  0  0  0  0  0  0
    9.8274  -15.4781   24.1975 O   0  0  0  0  0  0  0  0  0  0  0  0
    6.9867  -13.8577   25.1661 C   0  0  0  0  0  0  0  0  0  0  0  0
    6.9925  -12.5320   25.5013 C   0  0  0  0  0  0  0  0  0  0  0  0
    7.7889  -15.4894   23.1076 N   0  0  0  0  0  0  0  0  0  0  0  0
    8.2435  -14.4670   22.1901 C   0  0  0  0  0  0  0  0  0  0  0  0
    8.1880  -14.9375   20.7810 C   0  0  0  0  0  0  0  0  0  0  0  0
    7.7460  -16.0771   20.5445 O   0  0  0  0  0  0  0  0  0  0  0  0
    8.6262  -14.1140   19.7262 N   0  0  0  0  0  0  0  0  0  0  0  0
    9.2824  -12.8423   19.8434 C   0  0  0  0  0  0  0  0  0  0  0  0
    8.9614  -12.1045   18.5376 C   0  0  0  0  0  0  0  0  0  0  0  0
    8.0940  -13.0600   17.7569 C   0  0  0  0  0  0  0  0  0  0  0  0
    8.4919  -14.4052   18.3234 C   0  0  1  0  0  0  0  0  0  0  0  0
    9.7898  -14.8838   17.7650 C   0  0  0  0  0  0  0  0  0  0  0  0
    9.8667  -15.5648   16.5593 O   0  0  0  0  0  0  0  0  0  0  0  0
   10.8740  -14.6855   18.3733 O   0  0  0  0  0  0  0  0  0  0  0  0
  2  3  2  0
  2  1  1  0
  4  3  1  0
  5  4  2  0
  6  7  1  0
  6  5  1  0
  7  9  1  0
  7  8  1  1
  9 10  2  0
  9 13  1  0
 11  5  1  0
 11 12  2  0
 12  2  1  0
 13 14  1  0
 14 15  1  0
 15 17  1  0
 15 16  2  0
 17 18  1  0
 18 19  1  0
 20 19  1  0
 21 17  1  0
 21 20  1  0
 21 22  1  6
 23 22  1  0
 24 22  2  0
M  END
$$$$
