YGP.pdb
     RDKit          3D

 24 25  0  0  1  0  0  0  0  0999 V2000
   11.8864  -15.1445   30.2908 O   0  0  0  0  0  0  0  0  0  0  0  0
   10.8459  -15.1235   29.3738 C   0  0  0  0  0  0  0  0  0  0  0  0
   10.5710  -13.9442   28.6902 C   0  0  0  0  0  0  0  0  0  0  0  0
    9.5419  -13.8918   27.7714 C   0  0  0  0  0  0  0  0  0  0  0  0
    8.7735  -15.0131   27.5217 C   0  0  0  0  0  0  0  0  0  0  0  0
    7.6567  -15.0406   26.5562 C   0  0  0  0  0  0  0  0  0  0  0  0
    7.9075  -16.1138   25.5486 C   0  0  2  0  0  0  0  0  0  0  0  0
    9.2559  -16.1160   25.0497 N   0  0  0  0  0  0  0  0  0  0  0  0
    6.9243  -16.0331   24.4280 C   0  0  0  0  0  0  0  0  0  0  0  0
    5.6980  -16.0145   24.6622 O   0  0  0  0  0  0  0  0  0  0  0  0
    9.0581  -16.1758   28.2075 C   0  0  0  0  0  0  0  0  0  0  0  0
   10.0752  -16.2380   29.1195 C   0  0  0  0  0  0  0  0  0  0  0  0
    7.3881  -15.9770   23.0857 N   0  0  0  0  0  0  0  0  0  0  0  0
    6.4125  -15.8102   22.0302 C   0  0  0  0  0  0  0  0  0  0  0  0
    7.0631  -15.7346   20.6956 C   0  0  0  0  0  0  0  0  0  0  0  0
    7.0185  -16.7289   19.9477 O   0  0  0  0  0  0  0  0  0  0  0  0
    7.7204  -14.5617   20.2773 N   0  0  0  0  0  0  0  0  0  0  0  0
    7.7413  -13.2979   20.9584 C   0  0  0  0  0  0  0  0  0  0  0  0
    7.9890  -12.2557   19.8607 C   0  0  0  0  0  0  0  0  0  0  0  0
    8.0765  -13.0531   18.5834 C   0  0  0  0  0  0  0  0  0  0  0  0
    8.4992  -14.4198   19.0756 C   0  0  1  0  0  0  0  0  0  0  0  0
    9.9563  -14.4731   19.3907 C   0  0  0  0  0  0  0  0  0  0  0  0
   10.4245  -14.6421   20.6851 O   0  0  0  0  0  0  0  0  0  0  0  0
   10.8236  -14.3657   18.4845 O   0  0  0  0  0  0  0  0  0  0  0  0
  2  3  2  0
  2  1  1  0
  4  3  1  0
  5  4  2  0
  6  7  1  0
  6  5  1  0
  7  9  1  0
  7  8  1  6
  9 10  2  0
  9 13  1  0
 11  5  1  0
 11 12  2  0
 12  2  1  0
 13 14  1  0
 14 15  1  0
 15 17  1  0
 15 16  2  0
 17 18  1  0
 18 19  1  0
 20 19  1  0
 21 17  1  0
 21 20  1  0
 21 22  1  1
 23 22  1  0
 24 22  2  0
M  END
$$$$
