YGP.pdb
     RDKit          3D

 24 25  0  0  1  0  0  0  0  0999 V2000
   10.2479  -20.0035   30.0268 O   0  0  0  0  0  0  0  0  0  0  0  0
    9.7049  -19.1553   29.0729 C   0  0  0  0  0  0  0  0  0  0  0  0
   10.3084  -17.9242   28.8409 C   0  0  0  0  0  0  0  0  0  0  0  0
    9.7915  -17.0583   27.8981 C   0  0  0  0  0  0  0  0  0  0  0  0
    8.6672  -17.4073   27.1742 C   0  0  0  0  0  0  0  0  0  0  0  0
    8.0525  -16.5399   26.1494 C   0  0  0  0  0  0  0  0  0  0  0  0
    7.1225  -17.3551   25.3125 C   0  0  2  0  0  0  0  0  0  0  0  0
    7.7414  -18.5303   24.7620 N   0  0  0  0  0  0  0  0  0  0  0  0
    6.5058  -16.5235   24.2369 C   0  0  0  0  0  0  0  0  0  0  0  0
    6.1229  -15.3597   24.4779 O   0  0  0  0  0  0  0  0  0  0  0  0
    8.0794  -18.6319   27.4153 C   0  0  0  0  0  0  0  0  0  0  0  0
    8.5836  -19.4967   28.3470 C   0  0  0  0  0  0  0  0  0  0  0  0
    6.3538  -17.0608   22.9299 N   0  0  0  0  0  0  0  0  0  0  0  0
    6.0333  -16.1536   21.8492 C   0  0  0  0  0  0  0  0  0  0  0  0
    7.1975  -15.9493   20.9476 C   0  0  0  0  0  0  0  0  0  0  0  0
    7.6374  -16.9201   20.3041 O   0  0  0  0  0  0  0  0  0  0  0  0
    7.7979  -14.6822   20.8182 N   0  0  0  0  0  0  0  0  0  0  0  0
    7.4682  -13.4949   21.5551 C   0  0  0  0  0  0  0  0  0  0  0  0
    7.8894  -12.3315   20.6487 C   0  0  0  0  0  0  0  0  0  0  0  0
    8.4352  -12.9881   19.4054 C   0  0  0  0  0  0  0  0  0  0  0  0
    8.8639  -14.3479   19.9112 C   0  0  1  0  0  0  0  0  0  0  0  0
   10.1654  -14.2879   20.6378 C   0  0  0  0  0  0  0  0  0  0  0  0
   10.2542  -14.4845   22.0077 O   0  0  0  0  0  0  0  0  0  0  0  0
   11.2420  -14.0542   20.0285 O   0  0  0  0  0  0  0  0  0  0  0  0
  2  3  2  0
  2  1  1  0
  4  3  1  0
  5  4  2  0
  6  7  1  0
  6  5  1  0
  7  9  1  0
  7  8  1  6
  9 10  2  0
  9 13  1  0
 11  5  1  0
 11 12  2  0
 12  2  1  0
 13 14  1  0
 14 15  1  0
 15 17  1  0
 15 16  2  0
 17 18  1  0
 18 19  1  0
 20 19  1  0
 21 17  1  0
 21 20  1  0
 21 22  1  1
 23 22  1  0
 24 22  2  0
M  END
$$$$
