YGP.pdb
     RDKit          3D

 24 25  0  0  1  0  0  0  0  0999 V2000
    5.3230  -10.9333   28.4625 O   0  0  0  0  0  0  0  0  0  0  0  0
    6.0253  -11.5953   27.4661 C   0  0  0  0  0  0  0  0  0  0  0  0
    7.3464  -11.9614   27.6993 C   0  0  0  0  0  0  0  0  0  0  0  0
    8.0715  -12.6212   26.7273 C   0  0  0  0  0  0  0  0  0  0  0  0
    7.4903  -12.9249   25.5108 C   0  0  0  0  0  0  0  0  0  0  0  0
    8.1956  -13.6273   24.4202 C   0  0  0  0  0  0  0  0  0  0  0  0
    7.9406  -15.0940   24.5377 C   0  0  2  0  0  0  0  0  0  0  0  0
    7.8032  -15.5359   25.8990 N   0  0  0  0  0  0  0  0  0  0  0  0
    8.9945  -15.8768   23.8267 C   0  0  0  0  0  0  0  0  0  0  0  0
   10.1927  -15.7762   24.1633 O   0  0  0  0  0  0  0  0  0  0  0  0
    6.1789  -12.5554   25.2940 C   0  0  0  0  0  0  0  0  0  0  0  0
    5.4521  -11.9015   26.2502 C   0  0  0  0  0  0  0  0  0  0  0  0
    8.6306  -16.7423   22.7596 N   0  0  0  0  0  0  0  0  0  0  0  0
    9.3187  -16.5973   21.4950 C   0  0  0  0  0  0  0  0  0  0  0  0
    8.3757  -16.2482   20.4000 C   0  0  0  0  0  0  0  0  0  0  0  0
    7.3950  -16.9865   20.1928 O   0  0  0  0  0  0  0  0  0  0  0  0
    8.5817  -15.1034   19.6064 N   0  0  0  0  0  0  0  0  0  0  0  0
    9.5296  -14.0514   19.8437 C   0  0  0  0  0  0  0  0  0  0  0  0
    8.9421  -12.8184   19.1460 C   0  0  0  0  0  0  0  0  0  0  0  0
    7.6379  -13.2932   18.5555 C   0  0  0  0  0  0  0  0  0  0  0  0
    7.8682  -14.7803   18.3993 C   0  0  1  0  0  0  0  0  0  0  0  0
    8.7021  -15.0929   17.2026 C   0  0  0  0  0  0  0  0  0  0  0  0
    8.1637  -15.1587   15.9262 O   0  0  0  0  0  0  0  0  0  0  0  0
    9.9375  -15.3109   17.3078 O   0  0  0  0  0  0  0  0  0  0  0  0
  2  3  2  0
  2  1  1  0
  4  3  1  0
  5  4  2  0
  6  7  1  0
  6  5  1  0
  7  9  1  0
  7  8  1  1
  9 10  2  0
  9 13  1  0
 11  5  1  0
 11 12  2  0
 12  2  1  0
 13 14  1  0
 14 15  1  0
 15 17  1  0
 15 16  2  0
 17 18  1  0
 18 19  1  0
 20 19  1  0
 21 17  1  0
 21 20  1  0
 21 22  1  6
 23 22  1  0
 24 22  2  0
M  END
$$$$
