YGP.pdb
     RDKit          3D

 24 25  0  0  1  0  0  0  0  0999 V2000
    5.5258  -10.4878   27.6389 O   0  0  0  0  0  0  0  0  0  0  0  0
    6.1109  -11.6895   27.2679 C   0  0  0  0  0  0  0  0  0  0  0  0
    5.4087  -12.8732   27.4671 C   0  0  0  0  0  0  0  0  0  0  0  0
    5.9643  -14.0850   27.1083 C   0  0  0  0  0  0  0  0  0  0  0  0
    7.2260  -14.1336   26.5466 C   0  0  0  0  0  0  0  0  0  0  0  0
    7.8906  -15.3866   26.1357 C   0  0  0  0  0  0  0  0  0  0  0  0
    7.3424  -15.8211   24.8163 C   0  0  2  0  0  0  0  0  0  0  0  0
    7.0656  -17.2306   24.7564 N   0  0  0  0  0  0  0  0  0  0  0  0
    8.2453  -15.4071   23.7017 C   0  0  0  0  0  0  0  0  0  0  0  0
    8.5856  -14.2126   23.5735 O   0  0  0  0  0  0  0  0  0  0  0  0
    7.9105  -12.9512   26.3551 C   0  0  0  0  0  0  0  0  0  0  0  0
    7.3691  -11.7458   26.7071 C   0  0  0  0  0  0  0  0  0  0  0  0
    8.7202  -16.3797   22.7806 N   0  0  0  0  0  0  0  0  0  0  0  0
    9.5670  -15.9380   21.6937 C   0  0  0  0  0  0  0  0  0  0  0  0
    8.8460  -15.9729   20.3940 C   0  0  0  0  0  0  0  0  0  0  0  0
    8.2908  -17.0303   20.0427 O   0  0  0  0  0  0  0  0  0  0  0  0
    8.7877  -14.8333   19.5690 N   0  0  0  0  0  0  0  0  0  0  0  0
    9.3574  -13.5439   19.8418 C   0  0  0  0  0  0  0  0  0  0  0  0
    8.5090  -12.5529   19.0351 C   0  0  0  0  0  0  0  0  0  0  0  0
    7.4678  -13.4029   18.3508 C   0  0  0  0  0  0  0  0  0  0  0  0
    8.1375  -14.7580   18.2875 C   0  0  1  0  0  0  0  0  0  0  0  0
    9.1435  -14.8322   17.1886 C   0  0  0  0  0  0  0  0  0  0  0  0
   10.5062  -14.7417   17.4298 O   0  0  0  0  0  0  0  0  0  0  0  0
    8.7896  -14.9812   15.9897 O   0  0  0  0  0  0  0  0  0  0  0  0
  2  3  2  0
  2  1  1  0
  4  3  1  0
  5  4  2  0
  6  7  1  0
  6  5  1  0
  7  9  1  0
  7  8  1  1
  9 10  2  0
  9 13  1  0
 11  5  1  0
 11 12  2  0
 12  2  1  0
 13 14  1  0
 14 15  1  0
 15 17  1  0
 15 16  2  0
 17 18  1  0
 18 19  1  0
 20 19  1  0
 21 17  1  0
 21 20  1  0
 21 22  1  6
 23 22  1  0
 24 22  2  0
M  END
$$$$
