YGP.pdb
     RDKit          3D

 24 25  0  0  1  0  0  0  0  0999 V2000
   10.8230  -14.3670   30.3067 O   0  0  0  0  0  0  0  0  0  0  0  0
   10.3288  -14.6009   29.0319 C   0  0  0  0  0  0  0  0  0  0  0  0
    9.4221  -13.7009   28.4827 C   0  0  0  0  0  0  0  0  0  0  0  0
    8.9125  -13.9064   27.2162 C   0  0  0  0  0  0  0  0  0  0  0  0
    9.2992  -15.0106   26.4806 C   0  0  0  0  0  0  0  0  0  0  0  0
    8.8019  -15.3027   25.1213 C   0  0  0  0  0  0  0  0  0  0  0  0
    7.5520  -16.1137   25.2215 C   0  0  2  0  0  0  0  0  0  0  0  0
    7.7259  -17.3287   25.9703 N   0  0  0  0  0  0  0  0  0  0  0  0
    6.9907  -16.3974   23.8675 C   0  0  0  0  0  0  0  0  0  0  0  0
    7.0355  -17.5515   23.3930 O   0  0  0  0  0  0  0  0  0  0  0  0
   10.1994  -15.8946   27.0387 C   0  0  0  0  0  0  0  0  0  0  0  0
   10.7100  -15.7001   28.2922 C   0  0  0  0  0  0  0  0  0  0  0  0
    6.4015  -15.3461   23.1140 N   0  0  0  0  0  0  0  0  0  0  0  0
    5.9074  -15.6474   21.7878 C   0  0  0  0  0  0  0  0  0  0  0  0
    7.0174  -15.7484   20.8041 C   0  0  0  0  0  0  0  0  0  0  0  0
    7.2586  -16.8520   20.2808 O   0  0  0  0  0  0  0  0  0  0  0  0
    7.7874  -14.6194   20.4648 N   0  0  0  0  0  0  0  0  0  0  0  0
    7.7531  -13.3322   21.1002 C   0  0  0  0  0  0  0  0  0  0  0  0
    8.2257  -12.3435   20.0271 C   0  0  0  0  0  0  0  0  0  0  0  0
    8.4864  -13.1920   18.8076 C   0  0  0  0  0  0  0  0  0  0  0  0
    8.7594  -14.5546   19.4057 C   0  0  1  0  0  0  0  0  0  0  0  0
   10.1406  -14.6536   19.9604 C   0  0  0  0  0  0  0  0  0  0  0  0
   11.2594  -14.7224   19.1438 O   0  0  0  0  0  0  0  0  0  0  0  0
   10.3440  -14.6787   21.2026 O   0  0  0  0  0  0  0  0  0  0  0  0
  2  3  2  0
  2  1  1  0
  4  3  1  0
  5  4  2  0
  6  7  1  0
  6  5  1  0
  7  9  1  0
  7  8  1  6
  9 10  2  0
  9 13  1  0
 11  5  1  0
 11 12  2  0
 12  2  1  0
 13 14  1  0
 14 15  1  0
 15 17  1  0
 15 16  2  0
 17 18  1  0
 18 19  1  0
 20 19  1  0
 21 17  1  0
 21 20  1  0
 21 22  1  1
 23 22  1  0
 24 22  2  0
M  END
$$$$
