YGP.pdb
     RDKit          3D

 24 25  0  0  1  0  0  0  0  0999 V2000
    6.3369  -11.2932   28.7362 O   0  0  0  0  0  0  0  0  0  0  0  0
    6.5990  -12.1364   27.6665 C   0  0  0  0  0  0  0  0  0  0  0  0
    7.9044  -12.5611   27.4445 C   0  0  0  0  0  0  0  0  0  0  0  0
    8.1970  -13.4005   26.3881 C   0  0  0  0  0  0  0  0  0  0  0  0
    7.1933  -13.8276   25.5395 C   0  0  0  0  0  0  0  0  0  0  0  0
    7.4220  -14.7242   24.3887 C   0  0  0  0  0  0  0  0  0  0  0  0
    6.9177  -16.0891   24.7243 C   0  0  2  0  0  0  0  0  0  0  0  0
    7.5666  -16.6647   25.8709 N   0  0  0  0  0  0  0  0  0  0  0  0
    7.0150  -16.9983   23.5441 C   0  0  0  0  0  0  0  0  0  0  0  0
    6.4790  -18.1258   23.5680 O   0  0  0  0  0  0  0  0  0  0  0  0
    5.9032  -13.3980   25.7723 C   0  0  0  0  0  0  0  0  0  0  0  0
    5.6030  -12.5666   26.8157 C   0  0  0  0  0  0  0  0  0  0  0  0
    7.7227  -16.5769   22.3858 N   0  0  0  0  0  0  0  0  0  0  0  0
    7.0093  -16.5255   21.1280 C   0  0  0  0  0  0  0  0  0  0  0  0
    7.8889  -16.0622   20.0227 C   0  0  0  0  0  0  0  0  0  0  0  0
    8.1550  -16.8495   19.0957 O   0  0  0  0  0  0  0  0  0  0  0  0
    8.4158  -14.7564   20.0173 N   0  0  0  0  0  0  0  0  0  0  0  0
    8.1414  -13.7142   20.9659 C   0  0  0  0  0  0  0  0  0  0  0  0
    8.3906  -12.4055   20.2059 C   0  0  0  0  0  0  0  0  0  0  0  0
    8.7900  -12.8355   18.8164 C   0  0  0  0  0  0  0  0  0  0  0  0
    9.3363  -14.2275   19.0458 C   0  0  1  0  0  0  0  0  0  0  0  0
   10.7201  -14.1990   19.6020 C   0  0  0  0  0  0  0  0  0  0  0  0
   11.8258  -13.9193   18.8129 O   0  0  0  0  0  0  0  0  0  0  0  0
   10.9380  -14.4299   20.8203 O   0  0  0  0  0  0  0  0  0  0  0  0
  2  3  2  0
  2  1  1  0
  4  3  1  0
  5  4  2  0
  6  7  1  0
  6  5  1  0
  7  9  1  0
  7  8  1  1
  9 10  2  0
  9 13  1  0
 11  5  1  0
 11 12  2  0
 12  2  1  0
 13 14  1  0
 14 15  1  0
 15 17  1  0
 15 16  2  0
 17 18  1  0
 18 19  1  0
 20 19  1  0
 21 17  1  0
 21 20  1  0
 21 22  1  1
 23 22  1  0
 24 22  2  0
M  END
$$$$
