YGP.pdb
     RDKit          3D

 24 25  0  0  1  0  0  0  0  0999 V2000
   11.2737  -16.1037   30.7738 O   0  0  0  0  0  0  0  0  0  0  0  0
   10.7252  -15.6357   29.5887 C   0  0  0  0  0  0  0  0  0  0  0  0
    9.9822  -14.4604   29.6054 C   0  0  0  0  0  0  0  0  0  0  0  0
    9.4237  -13.9693   28.4422 C   0  0  0  0  0  0  0  0  0  0  0  0
    9.5980  -14.6423   27.2479 C   0  0  0  0  0  0  0  0  0  0  0  0
    9.0349  -14.1849   25.9617 C   0  0  0  0  0  0  0  0  0  0  0  0
    7.7930  -14.9604   25.6681 C   0  0  2  0  0  0  0  0  0  0  0  0
    8.0211  -16.3768   25.5727 N   0  0  0  0  0  0  0  0  0  0  0  0
    7.1206  -14.4445   24.4390 C   0  0  0  0  0  0  0  0  0  0  0  0
    6.8534  -13.2300   24.3264 O   0  0  0  0  0  0  0  0  0  0  0  0
   10.3376  -15.8069   27.2470 C   0  0  0  0  0  0  0  0  0  0  0  0
   10.8949  -16.3017   28.3935 C   0  0  0  0  0  0  0  0  0  0  0  0
    6.7826  -15.3425   23.3905 N   0  0  0  0  0  0  0  0  0  0  0  0
    6.3507  -14.7876   22.1259 C   0  0  0  0  0  0  0  0  0  0  0  0
    7.1200  -15.3603   20.9899 C   0  0  0  0  0  0  0  0  0  0  0  0
    7.0164  -16.5768   20.7462 O   0  0  0  0  0  0  0  0  0  0  0  0
    7.9537  -14.5471   20.1986 N   0  0  0  0  0  0  0  0  0  0  0  0
    8.2966  -13.1740   20.4405 C   0  0  0  0  0  0  0  0  0  0  0  0
    8.6363  -12.5972   19.0605 C   0  0  0  0  0  0  0  0  0  0  0  0
    8.4323  -13.7435   18.1016 C   0  0  0  0  0  0  0  0  0  0  0  0
    8.6196  -14.9540   18.9896 C   0  0  1  0  0  0  0  0  0  0  0  0
   10.0605  -15.2317   19.2575 C   0  0  0  0  0  0  0  0  0  0  0  0
   10.8794  -15.8443   18.3207 O   0  0  0  0  0  0  0  0  0  0  0  0
   10.5921  -14.9173   20.3545 O   0  0  0  0  0  0  0  0  0  0  0  0
  2  3  2  0
  2  1  1  0
  4  3  1  0
  5  4  2  0
  6  7  1  0
  6  5  1  0
  7  9  1  0
  7  8  1  6
  9 10  2  0
  9 13  1  0
 11  5  1  0
 11 12  2  0
 12  2  1  0
 13 14  1  0
 14 15  1  0
 15 17  1  0
 15 16  2  0
 17 18  1  0
 18 19  1  0
 20 19  1  0
 21 17  1  0
 21 20  1  0
 21 22  1  1
 23 22  1  0
 24 22  2  0
M  END
$$$$
