YGP.pdb
     RDKit          3D

 24 25  0  0  1  0  0  0  0  0999 V2000
   10.6260  -14.4704   30.6037 O   0  0  0  0  0  0  0  0  0  0  0  0
   10.1943  -14.7314   29.3116 C   0  0  0  0  0  0  0  0  0  0  0  0
   10.5351  -15.9411   28.7164 C   0  0  0  0  0  0  0  0  0  0  0  0
   10.1204  -16.2300   27.4316 C   0  0  0  0  0  0  0  0  0  0  0  0
    9.3612  -15.3179   26.7233 C   0  0  0  0  0  0  0  0  0  0  0  0
    8.8784  -15.5495   25.3472 C   0  0  0  0  0  0  0  0  0  0  0  0
    7.5174  -16.1615   25.4028 C   0  0  2  0  0  0  0  0  0  0  0  0
    7.4987  -17.4375   26.0650 N   0  0  0  0  0  0  0  0  0  0  0  0
    6.9213  -16.2604   24.0376 C   0  0  0  0  0  0  0  0  0  0  0  0
    6.7696  -17.3734   23.4925 O   0  0  0  0  0  0  0  0  0  0  0  0
    9.0310  -14.1221   27.3269 C   0  0  0  0  0  0  0  0  0  0  0  0
    9.4367  -13.8265   28.5989 C   0  0  0  0  0  0  0  0  0  0  0  0
    6.5239  -15.0791   23.3544 N   0  0  0  0  0  0  0  0  0  0  0  0
    5.9712  -15.2104   22.0236 C   0  0  0  0  0  0  0  0  0  0  0  0
    7.0197  -15.5686   21.0324 C   0  0  0  0  0  0  0  0  0  0  0  0
    7.1444  -16.7599   20.6930 O   0  0  0  0  0  0  0  0  0  0  0  0
    7.8613  -14.5828   20.4824 N   0  0  0  0  0  0  0  0  0  0  0  0
    7.9829  -13.2182   20.9122 C   0  0  0  0  0  0  0  0  0  0  0  0
    8.4672  -12.4508   19.6757 C   0  0  0  0  0  0  0  0  0  0  0  0
    8.5698  -13.4926   18.5898 C   0  0  0  0  0  0  0  0  0  0  0  0
    8.7618  -14.7710   19.3759 C   0  0  1  0  0  0  0  0  0  0  0  0
   10.1631  -14.9198   19.8651 C   0  0  0  0  0  0  0  0  0  0  0  0
   11.2075  -15.2575   19.0174 O   0  0  0  0  0  0  0  0  0  0  0  0
   10.4527  -14.7427   21.0774 O   0  0  0  0  0  0  0  0  0  0  0  0
  2  3  2  0
  2  1  1  0
  4  3  1  0
  5  4  2  0
  6  7  1  0
  6  5  1  0
  7  9  1  0
  7  8  1  6
  9 10  2  0
  9 13  1  0
 11  5  1  0
 11 12  2  0
 12  2  1  0
 13 14  1  0
 14 15  1  0
 15 17  1  0
 15 16  2  0
 17 18  1  0
 18 19  1  0
 20 19  1  0
 21 17  1  0
 21 20  1  0
 21 22  1  1
 23 22  1  0
 24 22  2  0
M  END
$$$$
