YGP.pdb
     RDKit          3D

 24 25  0  0  1  0  0  0  0  0999 V2000
   11.4101  -15.5264   30.7939 O   0  0  0  0  0  0  0  0  0  0  0  0
   10.5115  -15.3562   29.7510 C   0  0  0  0  0  0  0  0  0  0  0  0
   10.3831  -14.1007   29.1672 C   0  0  0  0  0  0  0  0  0  0  0  0
    9.4973  -13.8998   28.1275 C   0  0  0  0  0  0  0  0  0  0  0  0
    8.7282  -14.9467   27.6559 C   0  0  0  0  0  0  0  0  0  0  0  0
    7.7590  -14.8157   26.5496 C   0  0  0  0  0  0  0  0  0  0  0  0
    8.3253  -15.4556   25.3249 C   0  0  2  0  0  0  0  0  0  0  0  0
    9.7263  -15.1878   25.1444 N   0  0  0  0  0  0  0  0  0  0  0  0
    7.5471  -15.0661   24.1118 C   0  0  0  0  0  0  0  0  0  0  0  0
    6.3484  -15.3959   23.9961 O   0  0  0  0  0  0  0  0  0  0  0  0
    8.8664  -16.1865   28.2450 C   0  0  0  0  0  0  0  0  0  0  0  0
    9.7409  -16.3958   29.2753 C   0  0  0  0  0  0  0  0  0  0  0  0
    8.1757  -14.3148   23.0820 N   0  0  0  0  0  0  0  0  0  0  0  0
    7.4237  -14.0421   21.8763 C   0  0  0  0  0  0  0  0  0  0  0  0
    7.8797  -14.8944   20.7468 C   0  0  0  0  0  0  0  0  0  0  0  0
    7.8265  -16.1323   20.8680 O   0  0  0  0  0  0  0  0  0  0  0  0
    8.3648  -14.3186   19.5569 N   0  0  0  0  0  0  0  0  0  0  0  0
    8.5240  -12.9185   19.2815 C   0  0  0  0  0  0  0  0  0  0  0  0
    8.4390  -12.7988   17.7548 C   0  0  0  0  0  0  0  0  0  0  0  0
    8.2116  -14.2083   17.2686 C   0  0  0  0  0  0  0  0  0  0  0  0
    8.7934  -15.0419   18.3891 C   0  0  1  0  0  0  0  0  0  0  0  0
   10.2829  -15.0963   18.3285 C   0  0  0  0  0  0  0  0  0  0  0  0
   11.0827  -14.3080   19.1422 O   0  0  0  0  0  0  0  0  0  0  0  0
   10.8751  -15.8672   17.5285 O   0  0  0  0  0  0  0  0  0  0  0  0
  2  3  2  0
  2  1  1  0
  4  3  1  0
  5  4  2  0
  6  7  1  0
  6  5  1  0
  7  9  1  0
  7  8  1  6
  9 10  2  0
  9 13  1  0
 11  5  1  0
 11 12  2  0
 12  2  1  0
 13 14  1  0
 14 15  1  0
 15 17  1  0
 15 16  2  0
 17 18  1  0
 18 19  1  0
 20 19  1  0
 21 17  1  0
 21 20  1  0
 21 22  1  6
 23 22  1  0
 24 22  2  0
M  END
$$$$
