YGP.pdb
     RDKit          3D

 24 25  0  0  1  0  0  0  0  0999 V2000
    4.8343  -11.1795   27.3749 O   0  0  0  0  0  0  0  0  0  0  0  0
    5.8702  -12.0427   27.0494 C   0  0  0  0  0  0  0  0  0  0  0  0
    6.9160  -12.2136   27.9499 C   0  0  0  0  0  0  0  0  0  0  0  0
    7.9613  -13.0658   27.6546 C   0  0  0  0  0  0  0  0  0  0  0  0
    7.9785  -13.7585   26.4589 C   0  0  0  0  0  0  0  0  0  0  0  0
    9.0575  -14.6875   26.0675 C   0  0  0  0  0  0  0  0  0  0  0  0
    8.4520  -15.9300   25.5022 C   0  0  2  0  0  0  0  0  0  0  0  0
    8.2902  -16.9736   26.4778 N   0  0  0  0  0  0  0  0  0  0  0  0
    9.2326  -16.4158   24.3260 C   0  0  0  0  0  0  0  0  0  0  0  0
   10.3856  -16.8710   24.4761 O   0  0  0  0  0  0  0  0  0  0  0  0
    6.9342  -13.5787   25.5755 C   0  0  0  0  0  0  0  0  0  0  0  0
    5.8942  -12.7371   25.8586 C   0  0  0  0  0  0  0  0  0  0  0  0
    8.6589  -16.3596   23.0269 N   0  0  0  0  0  0  0  0  0  0  0  0
    9.1141  -15.3271   22.1211 C   0  0  0  0  0  0  0  0  0  0  0  0
    8.3683  -15.3643   20.8356 C   0  0  0  0  0  0  0  0  0  0  0  0
    7.4158  -16.1570   20.7158 O   0  0  0  0  0  0  0  0  0  0  0  0
    8.7272  -14.5205   19.7671 N   0  0  0  0  0  0  0  0  0  0  0  0
    9.7888  -13.5539   19.7536 C   0  0  0  0  0  0  0  0  0  0  0  0
    9.3686  -12.5125   18.7089 C   0  0  0  0  0  0  0  0  0  0  0  0
    8.0302  -12.9903   18.2034 C   0  0  0  0  0  0  0  0  0  0  0  0
    8.0842  -14.4766   18.4805 C   0  0  1  0  0  0  0  0  0  0  0  0
    8.9007  -15.2039   17.4658 C   0  0  0  0  0  0  0  0  0  0  0  0
   10.2181  -15.5667   17.7028 O   0  0  0  0  0  0  0  0  0  0  0  0
    8.4196  -15.5185   16.3458 O   0  0  0  0  0  0  0  0  0  0  0  0
  2  3  2  0
  2  1  1  0
  4  3  1  0
  5  4  2  0
  6  7  1  0
  6  5  1  0
  7  9  1  0
  7  8  1  1
  9 10  2  0
  9 13  1  0
 11  5  1  0
 11 12  2  0
 12  2  1  0
 13 14  1  0
 14 15  1  0
 15 17  1  0
 15 16  2  0
 17 18  1  0
 18 19  1  0
 20 19  1  0
 21 17  1  0
 21 20  1  0
 21 22  1  6
 23 22  1  0
 24 22  2  0
M  END
$$$$
