YGP.pdb
     RDKit          3D

 24 25  0  0  1  0  0  0  0  0999 V2000
   11.4247  -15.2167   30.7443 O   0  0  0  0  0  0  0  0  0  0  0  0
   10.4772  -15.1803   29.7319 C   0  0  0  0  0  0  0  0  0  0  0  0
    9.8215  -16.3542   29.3771 C   0  0  0  0  0  0  0  0  0  0  0  0
    8.8735  -16.3500   28.3735 C   0  0  0  0  0  0  0  0  0  0  0  0
    8.5664  -15.1769   27.7105 C   0  0  0  0  0  0  0  0  0  0  0  0
    7.5666  -15.0873   26.6275 C   0  0  0  0  0  0  0  0  0  0  0  0
    8.1255  -15.7143   25.3928 C   0  0  2  0  0  0  0  0  0  0  0  0
    9.4795  -15.3152   25.1201 N   0  0  0  0  0  0  0  0  0  0  0  0
    7.2448  -15.4517   24.2162 C   0  0  0  0  0  0  0  0  0  0  0  0
    6.0633  -15.8558   24.2076 O   0  0  0  0  0  0  0  0  0  0  0  0
    9.2251  -14.0204   28.0735 C   0  0  0  0  0  0  0  0  0  0  0  0
   10.1657  -14.0139   29.0661 C   0  0  0  0  0  0  0  0  0  0  0  0
    7.7553  -14.7370   23.0989 N   0  0  0  0  0  0  0  0  0  0  0  0
    6.8580  -14.4517   22.0001 C   0  0  0  0  0  0  0  0  0  0  0  0
    7.3579  -15.0312   20.7256 C   0  0  0  0  0  0  0  0  0  0  0  0
    7.1278  -16.2295   20.4788 O   0  0  0  0  0  0  0  0  0  0  0  0
    8.0801  -14.2443   19.8080 N   0  0  0  0  0  0  0  0  0  0  0  0
    8.5269  -12.8931   19.9984 C   0  0  0  0  0  0  0  0  0  0  0  0
    8.6492  -12.3092   18.5854 C   0  0  0  0  0  0  0  0  0  0  0  0
    8.2255  -13.4280   17.6668 C   0  0  0  0  0  0  0  0  0  0  0  0
    8.5047  -14.6610   18.4978 C   0  0  1  0  0  0  0  0  0  0  0  0
    9.9549  -15.0105   18.5075 C   0  0  0  0  0  0  0  0  0  0  0  0
   10.5680  -15.6413   17.4353 O   0  0  0  0  0  0  0  0  0  0  0  0
   10.6833  -14.7432   19.4989 O   0  0  0  0  0  0  0  0  0  0  0  0
  2  3  2  0
  2  1  1  0
  4  3  1  0
  5  4  2  0
  6  7  1  0
  6  5  1  0
  7  9  1  0
  7  8  1  6
  9 10  2  0
  9 13  1  0
 11  5  1  0
 11 12  2  0
 12  2  1  0
 13 14  1  0
 14 15  1  0
 15 17  1  0
 15 16  2  0
 17 18  1  0
 18 19  1  0
 20 19  1  0
 21 17  1  0
 21 20  1  0
 21 22  1  1
 23 22  1  0
 24 22  2  0
M  END
$$$$
