YGP.pdb
     RDKit          3D

 24 25  0  0  1  0  0  0  0  0999 V2000
   11.2820  -15.5202   30.8339 O   0  0  0  0  0  0  0  0  0  0  0  0
   10.7083  -15.2398   29.6025 C   0  0  0  0  0  0  0  0  0  0  0  0
   10.9073  -16.1230   28.5470 C   0  0  0  0  0  0  0  0  0  0  0  0
   10.3494  -15.8714   27.3095 C   0  0  0  0  0  0  0  0  0  0  0  0
    9.5862  -14.7372   27.1074 C   0  0  0  0  0  0  0  0  0  0  0  0
    8.9553  -14.3953   25.8168 C   0  0  0  0  0  0  0  0  0  0  0  0
    7.8221  -15.3340   25.5624 C   0  0  2  0  0  0  0  0  0  0  0  0
    8.2342  -16.7094   25.4873 N   0  0  0  0  0  0  0  0  0  0  0  0
    7.0652  -14.9364   24.3386 C   0  0  0  0  0  0  0  0  0  0  0  0
    6.6458  -13.7678   24.2057 O   0  0  0  0  0  0  0  0  0  0  0  0
    9.3975  -13.8702   28.1638 C   0  0  0  0  0  0  0  0  0  0  0  0
    9.9458  -14.1103   29.3934 C   0  0  0  0  0  0  0  0  0  0  0  0
    6.8207  -15.8950   23.3182 N   0  0  0  0  0  0  0  0  0  0  0  0
    6.1630  -15.4539   22.1072 C   0  0  0  0  0  0  0  0  0  0  0  0
    7.0002  -15.7171   20.9072 C   0  0  0  0  0  0  0  0  0  0  0  0
    7.0181  -16.8655   20.4266 O   0  0  0  0  0  0  0  0  0  0  0  0
    7.7627  -14.6902   20.3185 N   0  0  0  0  0  0  0  0  0  0  0  0
    7.9155  -13.3470   20.8022 C   0  0  0  0  0  0  0  0  0  0  0  0
    8.2485  -12.5100   19.5608 C   0  0  0  0  0  0  0  0  0  0  0  0
    8.2409  -13.4940   18.4177 C   0  0  0  0  0  0  0  0  0  0  0  0
    8.5354  -14.8066   19.1101 C   0  0  1  0  0  0  0  0  0  0  0  0
    9.9845  -14.9549   19.4315 C   0  0  0  0  0  0  0  0  0  0  0  0
   10.9175  -15.3241   18.4741 O   0  0  0  0  0  0  0  0  0  0  0  0
   10.4187  -14.7484   20.5950 O   0  0  0  0  0  0  0  0  0  0  0  0
  2  3  2  0
  2  1  1  0
  4  3  1  0
  5  4  2  0
  6  7  1  0
  6  5  1  0
  7  9  1  0
  7  8  1  6
  9 10  2  0
  9 13  1  0
 11  5  1  0
 11 12  2  0
 12  2  1  0
 13 14  1  0
 14 15  1  0
 15 17  1  0
 15 16  2  0
 17 18  1  0
 18 19  1  0
 20 19  1  0
 21 17  1  0
 21 20  1  0
 21 22  1  1
 23 22  1  0
 24 22  2  0
M  END
$$$$
