YGP.pdb
     RDKit          3D

 24 25  0  0  1  0  0  0  0  0999 V2000
   10.2883  -14.0920   30.5355 O   0  0  0  0  0  0  0  0  0  0  0  0
    9.9514  -14.4920   29.2507 C   0  0  0  0  0  0  0  0  0  0  0  0
   10.5674  -15.6149   28.7089 C   0  0  0  0  0  0  0  0  0  0  0  0
   10.2532  -16.0379   27.4329 C   0  0  0  0  0  0  0  0  0  0  0  0
    9.3216  -15.3483   26.6803 C   0  0  0  0  0  0  0  0  0  0  0  0
    8.9298  -15.7344   25.3099 C   0  0  0  0  0  0  0  0  0  0  0  0
    7.6628  -16.5226   25.3672 C   0  0  2  0  0  0  0  0  0  0  0  0
    7.8220  -17.8022   26.0031 N   0  0  0  0  0  0  0  0  0  0  0  0
    7.0672  -16.6737   24.0065 C   0  0  0  0  0  0  0  0  0  0  0  0
    7.2091  -17.7375   23.3683 O   0  0  0  0  0  0  0  0  0  0  0  0
    8.7188  -14.2363   27.2311 C   0  0  0  0  0  0  0  0  0  0  0  0
    9.0231  -13.8091   28.4940 C   0  0  0  0  0  0  0  0  0  0  0  0
    6.3338  -15.5990   23.4345 N   0  0  0  0  0  0  0  0  0  0  0  0
    5.7821  -15.7754   22.1085 C   0  0  0  0  0  0  0  0  0  0  0  0
    6.8539  -15.8931   21.0850 C   0  0  0  0  0  0  0  0  0  0  0  0
    7.0491  -16.9968   20.5430 O   0  0  0  0  0  0  0  0  0  0  0  0
    7.6391  -14.7797   20.7293 N   0  0  0  0  0  0  0  0  0  0  0  0
    7.6795  -13.5080   21.3945 C   0  0  0  0  0  0  0  0  0  0  0  0
    8.1236  -12.5081   20.3196 C   0  0  0  0  0  0  0  0  0  0  0  0
    8.2908  -13.3341   19.0687 C   0  0  0  0  0  0  0  0  0  0  0  0
    8.5534  -14.7184   19.6199 C   0  0  1  0  0  0  0  0  0  0  0  0
    9.9590  -14.8721   20.0952 C   0  0  0  0  0  0  0  0  0  0  0  0
   11.0299  -14.9451   19.2170 O   0  0  0  0  0  0  0  0  0  0  0  0
   10.2281  -14.9419   21.3230 O   0  0  0  0  0  0  0  0  0  0  0  0
  2  3  2  0
  2  1  1  0
  4  3  1  0
  5  4  2  0
  6  7  1  0
  6  5  1  0
  7  9  1  0
  7  8  1  6
  9 10  2  0
  9 13  1  0
 11  5  1  0
 11 12  2  0
 12  2  1  0
 13 14  1  0
 14 15  1  0
 15 17  1  0
 15 16  2  0
 17 18  1  0
 18 19  1  0
 20 19  1  0
 21 17  1  0
 21 20  1  0
 21 22  1  1
 23 22  1  0
 24 22  2  0
M  END
$$$$
