HMQ.pdb
     RDKit          3D

 28 28  0  0  1  0  0  0  0  0999 V2000
   28.1150  -21.0502  -15.9654 N   0  0  0  0  0  0  0  0  0  0  0  0
   27.2374  -20.1570  -15.2777 C   0  0  1  0  0  0  0  0  0  0  0  0
   26.5611  -19.2419  -16.2822 C   0  0  0  0  0  0  0  0  0  0  0  0
   27.5796  -18.4242  -16.9865 C   0  0  0  0  0  0  0  0  0  0  0  0
   27.9125  -18.4422  -18.3384 C   0  0  0  0  0  0  0  0  0  0  0  0
   28.8892  -17.5376  -18.5403 N   0  0  0  0  0  0  0  0  0  0  0  0
   29.1828  -16.9541  -17.3754 C   0  0  0  0  0  0  0  0  0  0  0  0
   28.3836  -17.4953  -16.4281 N   0  0  0  0  0  0  0  0  0  0  0  0
   26.2437  -20.8545  -14.4236 C   0  0  0  0  0  0  0  0  0  0  0  0
   25.8407  -21.9838  -14.8363 O   0  0  0  0  0  0  0  0  0  0  0  0
   25.3590  -20.7361   -7.8236 C   0  0  0  0  0  0  0  0  0  0  0  0
   26.8481  -20.9824   -8.8073 S   0  0  0  0  0  0  0  0  0  0  0  0
   26.3912  -21.4883  -10.5077 C   0  0  0  0  0  0  0  0  0  0  0  0
   25.1075  -20.8267  -10.9046 C   0  0  0  0  0  0  0  0  0  0  0  0
   24.8050  -21.0577  -12.3402 C   0  0  2  0  0  0  0  0  0  0  0  0
   25.7385  -20.3394  -13.2097 N   0  0  0  0  0  0  0  0  0  0  0  0
   23.4512  -20.6224  -12.7171 C   0  0  0  0  0  0  0  0  0  0  0  0
   23.0615  -19.4296  -12.7959 O   0  0  0  0  0  0  0  0  0  0  0  0
   19.1063  -24.2671  -15.5621 N   0  0  0  0  0  0  0  0  0  0  0  0
   20.3106  -23.7325  -16.1202 C   0  0  0  0  0  0  0  0  0  0  0  0
   20.7116  -24.1372  -17.2404 O   0  0  0  0  0  0  0  0  0  0  0  0
   21.1079  -22.7037  -15.4077 C   0  0  0  0  0  0  0  0  0  0  0  0
   20.4042  -22.3137  -14.1616 C   0  0  0  0  0  0  0  0  0  0  0  0
   21.0766  -21.1968  -13.3992 C   0  0  2  0  0  0  0  0  0  0  0  0
   22.4126  -21.5734  -13.0422 N   0  0  0  0  0  0  0  0  0  0  0  0
   20.2781  -20.6964  -12.2823 C   0  0  0  0  0  0  0  0  0  0  0  0
   20.3323  -21.2340  -11.1475 O   0  0  0  0  0  0  0  0  0  0  0  0
   19.4235  -19.6127  -12.4044 O   0  0  0  0  0  0  0  0  0  0  0  0
  2  1  1  6
  2  3  1  0
  3  4  1  0
  4  8  1  0
  5  6  1  0
  5  4  2  0
  6  7  1  0
  7  8  2  0
  9  2  1  0
  9 10  2  0
 12 11  1  0
 13 14  1  0
 13 12  1  0
 15 14  1  1
 15 16  1  0
 16  9  1  0
 17 25  1  0
 17 15  1  0
 18 17  2  0
 19 20  1  0
 20 21  2  0
 20 22  1  0
 22 23  1  0
 24 23  1  1
 24 25  1  0
 24 26  1  0
 26 27  2  0
 26 28  1  0
M  END
$$$$
