HMQ.pdb
     RDKit          3D

 28 28  0  0  1  0  0  0  0  0999 V2000
   18.7517  -14.9692  -17.8141 N   0  0  0  0  0  0  0  0  0  0  0  0
   19.0897  -13.6931  -18.3602 C   0  0  1  0  0  0  0  0  0  0  0  0
   17.8228  -12.9799  -18.7962 C   0  0  0  0  0  0  0  0  0  0  0  0
   17.1638  -13.7413  -19.8860 C   0  0  0  0  0  0  0  0  0  0  0  0
   16.1797  -14.7205  -19.7780 C   0  0  0  0  0  0  0  0  0  0  0  0
   15.8723  -15.1425  -21.0192 N   0  0  0  0  0  0  0  0  0  0  0  0
   16.6197  -14.4715  -21.8994 C   0  0  0  0  0  0  0  0  0  0  0  0
   17.4072  -13.6171  -21.2075 N   0  0  0  0  0  0  0  0  0  0  0  0
   19.8939  -12.8551  -17.4358 C   0  0  0  0  0  0  0  0  0  0  0  0
   19.4521  -12.7389  -16.2528 O   0  0  0  0  0  0  0  0  0  0  0  0
   26.9377  -10.5841  -14.9716 C   0  0  0  0  0  0  0  0  0  0  0  0
   25.9212  -11.5827  -16.0739 S   0  0  0  0  0  0  0  0  0  0  0  0
   24.1778  -11.0277  -15.9824 C   0  0  0  0  0  0  0  0  0  0  0  0
   23.3463  -11.8100  -16.9518 C   0  0  0  0  0  0  0  0  0  0  0  0
   21.9144  -11.4259  -16.8644 C   0  0  2  0  0  0  0  0  0  0  0  0
   21.0915  -12.1995  -17.7961 N   0  0  0  0  0  0  0  0  0  0  0  0
   21.6830  -10.0057  -17.1703 C   0  0  0  0  0  0  0  0  0  0  0  0
   21.3566   -9.5425  -18.2928 O   0  0  0  0  0  0  0  0  0  0  0  0
   19.5055   -6.8847  -19.4481 N   0  0  0  0  0  0  0  0  0  0  0  0
   18.9900   -6.0637  -18.3956 C   0  0  0  0  0  0  0  0  0  0  0  0
   18.3260   -5.0343  -18.6766 O   0  0  0  0  0  0  0  0  0  0  0  0
   19.2188   -6.3956  -16.9676 C   0  0  0  0  0  0  0  0  0  0  0  0
   19.8876   -7.7161  -16.8718 C   0  0  0  0  0  0  0  0  0  0  0  0
   21.2822   -7.6589  -16.2950 C   0  0  2  0  0  0  0  0  0  0  0  0
   21.8183   -8.9812  -16.1599 N   0  0  0  0  0  0  0  0  0  0  0  0
   21.3734   -6.8502  -15.0813 C   0  0  0  0  0  0  0  0  0  0  0  0
   21.2620   -7.3675  -13.9413 O   0  0  0  0  0  0  0  0  0  0  0  0
   21.5854   -5.4813  -15.1126 O   0  0  0  0  0  0  0  0  0  0  0  0
  2  1  1  1
  2  3  1  0
  3  4  1  0
  4  8  1  0
  5  6  1  0
  5  4  2  0
  6  7  1  0
  7  8  2  0
  9  2  1  0
  9 10  2  0
 12 11  1  0
 13 14  1  0
 13 12  1  0
 15 14  1  6
 15 16  1  0
 16  9  1  0
 17 25  1  0
 17 15  1  0
 18 17  2  0
 19 20  1  0
 20 21  2  0
 20 22  1  0
 22 23  1  0
 24 23  1  1
 24 25  1  0
 24 26  1  0
 26 27  2  0
 26 28  1  0
M  END
$$$$
