HMQ.pdb
     RDKit          3D

 28 28  0  0  1  0  0  0  0  0999 V2000
   19.9421  -13.0858  -16.9714 N   0  0  0  0  0  0  0  0  0  0  0  0
   19.2414  -11.8471  -16.8474 C   0  0  1  0  0  0  0  0  0  0  0  0
   17.7473  -12.1033  -16.9243 C   0  0  0  0  0  0  0  0  0  0  0  0
   17.3917  -12.6190  -18.2694 C   0  0  0  0  0  0  0  0  0  0  0  0
   17.2033  -11.8974  -19.4453 C   0  0  0  0  0  0  0  0  0  0  0  0
   16.8926  -12.7679  -20.4245 N   0  0  0  0  0  0  0  0  0  0  0  0
   16.8781  -14.0021  -19.9146 C   0  0  0  0  0  0  0  0  0  0  0  0
   17.1826  -13.9106  -18.6000 N   0  0  0  0  0  0  0  0  0  0  0  0
   19.6003  -11.0917  -15.6209 C   0  0  0  0  0  0  0  0  0  0  0  0
   19.5602  -11.7373  -14.5302 O   0  0  0  0  0  0  0  0  0  0  0  0
   25.6924  -10.0571  -14.4708 C   0  0  0  0  0  0  0  0  0  0  0  0
   24.4413   -8.7620  -14.5291 S   0  0  0  0  0  0  0  0  0  0  0  0
   22.7709   -9.5094  -14.4464 C   0  0  0  0  0  0  0  0  0  0  0  0
   21.7312   -8.4340  -14.5211 C   0  0  0  0  0  0  0  0  0  0  0  0
   20.3631   -8.9992  -14.3998 C   0  0  2  0  0  0  0  0  0  0  0  0
   19.9733   -9.7298  -15.6072 N   0  0  0  0  0  0  0  0  0  0  0  0
   19.3364   -7.9699  -14.1749 C   0  0  0  0  0  0  0  0  0  0  0  0
   18.7148   -7.3477  -15.0735 O   0  0  0  0  0  0  0  0  0  0  0  0
   15.9028   -7.5839   -8.9828 N   0  0  0  0  0  0  0  0  0  0  0  0
   15.4924   -6.3959   -9.6667 C   0  0  0  0  0  0  0  0  0  0  0  0
   14.5437   -5.7098   -9.2096 O   0  0  0  0  0  0  0  0  0  0  0  0
   16.1610   -5.9456  -10.9125 C   0  0  0  0  0  0  0  0  0  0  0  0
   17.2173   -6.9192  -11.2818 C   0  0  0  0  0  0  0  0  0  0  0  0
   17.9267   -6.5960  -12.5753 C   0  0  2  0  0  0  0  0  0  0  0  0
   18.9411   -7.5725  -12.8429 N   0  0  0  0  0  0  0  0  0  0  0  0
   18.3940   -5.2133  -12.6488 C   0  0  0  0  0  0  0  0  0  0  0  0
   19.5470   -4.8918  -12.2653 O   0  0  0  0  0  0  0  0  0  0  0  0
   17.6049   -4.1855  -13.1392 O   0  0  0  0  0  0  0  0  0  0  0  0
  2  1  1  1
  2  3  1  0
  3  4  1  0
  4  8  1  0
  5  6  1  0
  5  4  2  0
  6  7  1  0
  7  8  2  0
  9  2  1  0
  9 10  2  0
 12 11  1  0
 13 14  1  0
 13 12  1  0
 15 14  1  6
 15 16  1  0
 16  9  1  0
 17 25  1  0
 17 15  1  0
 18 17  2  0
 19 20  1  0
 20 21  2  0
 20 22  1  0
 22 23  1  0
 24 23  1  1
 24 25  1  0
 24 26  1  0
 26 27  2  0
 26 28  1  0
M  END
$$$$
