HMQ.pdb
     RDKit          3D

 28 28  0  0  1  0  0  0  0  0999 V2000
   20.9592  -16.3597  -17.6414 N   0  0  0  0  0  0  0  0  0  0  0  0
   20.9956  -15.0129  -18.1167 C   0  0  1  0  0  0  0  0  0  0  0  0
   19.5815  -14.5402  -18.4003 C   0  0  0  0  0  0  0  0  0  0  0  0
   18.9791  -15.3655  -19.4764 C   0  0  0  0  0  0  0  0  0  0  0  0
   17.9085  -16.2511  -19.3842 C   0  0  0  0  0  0  0  0  0  0  0  0
   17.6997  -16.7826  -20.6037 N   0  0  0  0  0  0  0  0  0  0  0  0
   18.5915  -16.2695  -21.4552 C   0  0  0  0  0  0  0  0  0  0  0  0
   19.3715  -15.4053  -20.7670 N   0  0  0  0  0  0  0  0  0  0  0  0
   21.7036  -14.0867  -17.1978 C   0  0  0  0  0  0  0  0  0  0  0  0
   21.3452  -14.1169  -15.9818 O   0  0  0  0  0  0  0  0  0  0  0  0
   26.3946  -15.5393  -14.6954 C   0  0  0  0  0  0  0  0  0  0  0  0
   25.5649  -13.9629  -14.9646 S   0  0  0  0  0  0  0  0  0  0  0  0
   25.5235  -13.5820  -16.7560 C   0  0  0  0  0  0  0  0  0  0  0  0
   24.8835  -12.2457  -16.9744 C   0  0  0  0  0  0  0  0  0  0  0  0
   23.4275  -12.2931  -16.6853 C   0  0  2  0  0  0  0  0  0  0  0  0
   22.7267  -13.1991  -17.5972 N   0  0  0  0  0  0  0  0  0  0  0  0
   22.7767  -10.9794  -16.8070 C   0  0  0  0  0  0  0  0  0  0  0  0
   22.6147  -10.3392  -17.8770 O   0  0  0  0  0  0  0  0  0  0  0  0
   17.4011   -9.5204  -15.8960 N   0  0  0  0  0  0  0  0  0  0  0  0
   17.9046   -8.1815  -15.9340 C   0  0  0  0  0  0  0  0  0  0  0  0
   17.1036   -7.2167  -16.0189 O   0  0  0  0  0  0  0  0  0  0  0  0
   19.3595   -7.8959  -15.8757 C   0  0  0  0  0  0  0  0  0  0  0  0
   20.1079   -9.1746  -15.8055 C   0  0  0  0  0  0  0  0  0  0  0  0
   21.6066   -9.0064  -15.7243 C   0  0  2  0  0  0  0  0  0  0  0  0
   22.2470  -10.2867  -15.6545 N   0  0  0  0  0  0  0  0  0  0  0  0
   22.0280   -8.0699  -14.6846 C   0  0  0  0  0  0  0  0  0  0  0  0
   22.5415   -8.4733  -13.6107 O   0  0  0  0  0  0  0  0  0  0  0  0
   21.8891   -6.6978  -14.8174 O   0  0  0  0  0  0  0  0  0  0  0  0
  2  1  1  1
  2  3  1  0
  3  4  1  0
  4  8  1  0
  5  6  1  0
  5  4  2  0
  6  7  1  0
  7  8  2  0
  9  2  1  0
  9 10  2  0
 12 11  1  0
 13 14  1  0
 13 12  1  0
 15 14  1  6
 15 16  1  0
 16  9  1  0
 17 25  1  0
 17 15  1  0
 18 17  2  0
 19 20  1  0
 20 21  2  0
 20 22  1  0
 22 23  1  0
 24 23  1  1
 24 25  1  0
 24 26  1  0
 26 27  2  0
 26 28  1  0
M  END
$$$$
