HMQ.pdb
     RDKit          3D

 28 28  0  0  1  0  0  0  0  0999 V2000
   20.3610  -16.7049  -16.7771 N   0  0  0  0  0  0  0  0  0  0  0  0
   20.6707  -15.5292  -17.5273 C   0  0  1  0  0  0  0  0  0  0  0  0
   19.4131  -15.0194  -18.2073 C   0  0  0  0  0  0  0  0  0  0  0  0
   18.8918  -16.0474  -19.1418 C   0  0  0  0  0  0  0  0  0  0  0  0
   17.7597  -16.8454  -18.9985 C   0  0  0  0  0  0  0  0  0  0  0  0
   17.6659  -17.6363  -20.0842 N   0  0  0  0  0  0  0  0  0  0  0  0
   18.6883  -17.3694  -20.9008 C   0  0  0  0  0  0  0  0  0  0  0  0
   19.4357  -16.4002  -20.3254 N   0  0  0  0  0  0  0  0  0  0  0  0
   21.3160  -14.4685  -16.7136 C   0  0  0  0  0  0  0  0  0  0  0  0
   20.7233  -14.1431  -15.6408 O   0  0  0  0  0  0  0  0  0  0  0  0
   27.9228  -10.7625  -14.5660 C   0  0  0  0  0  0  0  0  0  0  0  0
   27.1286  -11.9776  -15.6330 S   0  0  0  0  0  0  0  0  0  0  0  0
   25.3096  -11.8767  -15.4409 C   0  0  0  0  0  0  0  0  0  0  0  0
   24.6522  -12.9167  -16.2950 C   0  0  0  0  0  0  0  0  0  0  0  0
   23.1725  -12.8012  -16.2398 C   0  0  2  0  0  0  0  0  0  0  0  0
   22.5217  -13.8219  -17.0632 N   0  0  0  0  0  0  0  0  0  0  0  0
   22.6822  -11.4970  -16.7120 C   0  0  0  0  0  0  0  0  0  0  0  0
   22.5642  -11.1515  -17.9152 O   0  0  0  0  0  0  0  0  0  0  0  0
   17.5687   -9.2564  -16.4876 N   0  0  0  0  0  0  0  0  0  0  0  0
   18.2298   -8.0356  -16.8344 C   0  0  0  0  0  0  0  0  0  0  0  0
   17.5528   -7.0443  -17.2068 O   0  0  0  0  0  0  0  0  0  0  0  0
   19.7062   -7.9044  -16.7666 C   0  0  0  0  0  0  0  0  0  0  0  0
   20.2962   -9.2043  -16.3638 C   0  0  0  0  0  0  0  0  0  0  0  0
   21.7976   -9.1749  -16.2028 C   0  0  2  0  0  0  0  0  0  0  0  0
   22.2781  -10.4604  -15.7896 N   0  0  0  0  0  0  0  0  0  0  0  0
   22.2689   -8.0664  -15.3754 C   0  0  0  0  0  0  0  0  0  0  0  0
   22.6240   -8.2458  -14.1831 O   0  0  0  0  0  0  0  0  0  0  0  0
   22.3521   -6.7668  -15.8484 O   0  0  0  0  0  0  0  0  0  0  0  0
  2  1  1  1
  2  3  1  0
  3  4  1  0
  4  8  1  0
  5  6  1  0
  5  4  2  0
  6  7  1  0
  7  8  2  0
  9  2  1  0
  9 10  2  0
 12 11  1  0
 13 14  1  0
 13 12  1  0
 15 14  1  6
 15 16  1  0
 16  9  1  0
 17 25  1  0
 17 15  1  0
 18 17  2  0
 19 20  1  0
 20 21  2  0
 20 22  1  0
 22 23  1  0
 24 23  1  1
 24 25  1  0
 24 26  1  0
 26 27  2  0
 26 28  1  0
M  END
$$$$
