HMQ.pdb
     RDKit          3D

 28 28  0  0  1  0  0  0  0  0999 V2000
   18.2465  -11.7824  -17.3836 N   0  0  0  0  0  0  0  0  0  0  0  0
   19.1684  -10.8614  -17.9690 C   0  0  1  0  0  0  0  0  0  0  0  0
   18.4088   -9.6656  -18.5138 C   0  0  0  0  0  0  0  0  0  0  0  0
   17.4540  -10.1076  -19.5601 C   0  0  0  0  0  0  0  0  0  0  0  0
   16.0626  -10.1190  -19.5055 C   0  0  0  0  0  0  0  0  0  0  0  0
   15.6025  -10.5992  -20.6764 N   0  0  0  0  0  0  0  0  0  0  0  0
   16.6432  -10.8888  -21.4616 C   0  0  0  0  0  0  0  0  0  0  0  0
   17.7722  -10.5887  -20.7801 N   0  0  0  0  0  0  0  0  0  0  0  0
   20.2469  -10.4418  -17.0391 C   0  0  0  0  0  0  0  0  0  0  0  0
   19.8795  -10.0571  -15.8880 O   0  0  0  0  0  0  0  0  0  0  0  0
   27.9061  -10.4991  -15.0676 C   0  0  0  0  0  0  0  0  0  0  0  0
   26.6076  -11.0770  -16.1747 S   0  0  0  0  0  0  0  0  0  0  0  0
   25.0378  -10.2133  -15.7933 C   0  0  0  0  0  0  0  0  0  0  0  0
   23.9512  -10.7185  -16.6918 C   0  0  0  0  0  0  0  0  0  0  0  0
   22.6779   -9.9908  -16.4574 C   0  0  2  0  0  0  0  0  0  0  0  0
   21.6215  -10.4490  -17.3618 N   0  0  0  0  0  0  0  0  0  0  0  0
   22.8046   -8.5382  -16.6521 C   0  0  0  0  0  0  0  0  0  0  0  0
   23.3690   -7.9767  -17.6253 O   0  0  0  0  0  0  0  0  0  0  0  0
   18.8646   -4.7636  -17.8275 N   0  0  0  0  0  0  0  0  0  0  0  0
   19.8346   -3.7919  -17.4241 C   0  0  0  0  0  0  0  0  0  0  0  0
   19.6357   -2.5749  -17.6670 O   0  0  0  0  0  0  0  0  0  0  0  0
   21.0809   -4.1830  -16.7204 C   0  0  0  0  0  0  0  0  0  0  0  0
   21.1065   -5.6562  -16.5500 C   0  0  0  0  0  0  0  0  0  0  0  0
   22.3444   -6.1739  -15.8569 C   0  0  2  0  0  0  0  0  0  0  0  0
   22.2662   -7.5961  -15.6974 N   0  0  0  0  0  0  0  0  0  0  0  0
   22.6637   -5.4514  -14.6275 C   0  0  0  0  0  0  0  0  0  0  0  0
   23.1175   -4.2796  -14.6571 O   0  0  0  0  0  0  0  0  0  0  0  0
   22.4881   -6.0065  -13.3702 O   0  0  0  0  0  0  0  0  0  0  0  0
  2  1  1  1
  2  3  1  0
  3  4  1  0
  4  8  1  0
  5  6  1  0
  5  4  2  0
  6  7  1  0
  7  8  2  0
  9  2  1  0
  9 10  2  0
 12 11  1  0
 13 14  1  0
 13 12  1  0
 15 14  1  6
 15 16  1  0
 16  9  1  0
 17 25  1  0
 17 15  1  0
 18 17  2  0
 19 20  1  0
 20 21  2  0
 20 22  1  0
 22 23  1  0
 24 23  1  1
 24 25  1  0
 24 26  1  0
 26 27  2  0
 26 28  1  0
M  END
$$$$
