HMQ.pdb
     RDKit          3D

 28 28  0  0  1  0  0  0  0  0999 V2000
   27.1589  -21.0687  -16.5377 N   0  0  0  0  0  0  0  0  0  0  0  0
   26.8020  -20.1901  -15.4692 C   0  0  1  0  0  0  0  0  0  0  0  0
   26.1508  -18.9428  -16.0384 C   0  0  0  0  0  0  0  0  0  0  0  0
   27.1784  -18.0815  -16.6740 C   0  0  0  0  0  0  0  0  0  0  0  0
   28.5595  -18.2583  -16.6890 C   0  0  0  0  0  0  0  0  0  0  0  0
   29.1038  -17.2387  -17.3800 N   0  0  0  0  0  0  0  0  0  0  0  0
   28.1255  -16.4316  -17.7982 C   0  0  0  0  0  0  0  0  0  0  0  0
   26.9514  -16.9462  -17.3673 N   0  0  0  0  0  0  0  0  0  0  0  0
   25.9408  -20.8332  -14.4454 C   0  0  0  0  0  0  0  0  0  0  0  0
   25.1654  -21.7486  -14.8564 O   0  0  0  0  0  0  0  0  0  0  0  0
   26.1478  -20.2904   -7.8110 C   0  0  0  0  0  0  0  0  0  0  0  0
   27.5014  -20.8586   -8.8553 S   0  0  0  0  0  0  0  0  0  0  0  0
   26.8465  -21.4052  -10.4764 C   0  0  0  0  0  0  0  0  0  0  0  0
   25.4905  -20.8101  -10.7009 C   0  0  0  0  0  0  0  0  0  0  0  0
   25.0197  -21.0528  -12.0885 C   0  0  2  0  0  0  0  0  0  0  0  0
   25.9408  -20.4876  -13.0762 N   0  0  0  0  0  0  0  0  0  0  0  0
   23.6973  -20.4662  -12.3550 C   0  0  0  0  0  0  0  0  0  0  0  0
   23.3796  -19.2635  -12.1714 O   0  0  0  0  0  0  0  0  0  0  0  0
   20.5829  -20.4281  -17.1925 N   0  0  0  0  0  0  0  0  0  0  0  0
   19.6454  -19.7735  -16.3321 C   0  0  0  0  0  0  0  0  0  0  0  0
   18.5597  -19.3489  -16.8017 O   0  0  0  0  0  0  0  0  0  0  0  0
   19.9204  -19.5795  -14.8870 C   0  0  0  0  0  0  0  0  0  0  0  0
   21.2218  -20.2045  -14.5469 C   0  0  0  0  0  0  0  0  0  0  0  0
   21.2989  -20.7359  -13.1354 C   0  0  2  0  0  0  0  0  0  0  0  0
   22.6066  -21.2605  -12.8729 N   0  0  0  0  0  0  0  0  0  0  0  0
   20.2097  -21.6514  -12.8018 C   0  0  0  0  0  0  0  0  0  0  0  0
   20.3516  -22.8968  -12.8932 O   0  0  0  0  0  0  0  0  0  0  0  0
   18.9700  -21.2081  -12.3701 O   0  0  0  0  0  0  0  0  0  0  0  0
  2  1  1  6
  2  3  1  0
  3  4  1  0
  4  8  1  0
  5  6  1  0
  5  4  2  0
  6  7  1  0
  7  8  2  0
  9  2  1  0
  9 10  2  0
 12 11  1  0
 13 14  1  0
 13 12  1  0
 15 14  1  1
 15 16  1  0
 16  9  1  0
 17 25  1  0
 17 15  1  0
 18 17  2  0
 19 20  1  0
 20 21  2  0
 20 22  1  0
 22 23  1  0
 24 23  1  6
 24 25  1  0
 24 26  1  0
 26 27  2  0
 26 28  1  0
M  END
$$$$
