HMQ.pdb
     RDKit          3D

 28 28  0  0  1  0  0  0  0  0999 V2000
   27.7243  -20.1289  -16.4314 N   0  0  0  0  0  0  0  0  0  0  0  0
   26.7116  -19.4776  -15.6625 C   0  0  1  0  0  0  0  0  0  0  0  0
   25.7047  -18.8335  -16.5980 C   0  0  0  0  0  0  0  0  0  0  0  0
   26.2837  -17.6045  -17.1947 C   0  0  0  0  0  0  0  0  0  0  0  0
   27.4871  -16.9793  -16.8786 C   0  0  0  0  0  0  0  0  0  0  0  0
   27.6141  -15.8949  -17.6667 N   0  0  0  0  0  0  0  0  0  0  0  0
   26.5444  -15.8131  -18.4620 C   0  0  0  0  0  0  0  0  0  0  0  0
   25.7333  -16.8561  -18.1736 N   0  0  0  0  0  0  0  0  0  0  0  0
   26.0476  -20.3779  -14.6867 C   0  0  0  0  0  0  0  0  0  0  0  0
   26.0932  -21.6188  -14.9441 O   0  0  0  0  0  0  0  0  0  0  0  0
   25.5209  -21.3995   -6.9937 C   0  0  0  0  0  0  0  0  0  0  0  0
   25.7877  -20.2825   -8.3819 S   0  0  0  0  0  0  0  0  0  0  0  0
   25.2253  -21.0770   -9.9338 C   0  0  0  0  0  0  0  0  0  0  0  0
   25.5395  -20.1899  -11.0989 C   0  0  0  0  0  0  0  0  0  0  0  0
   25.0815  -20.7960  -12.3751 C   0  0  2  0  0  0  0  0  0  0  0  0
   25.3866  -19.9357  -13.5198 N   0  0  0  0  0  0  0  0  0  0  0  0
   23.6317  -21.0438  -12.4033 C   0  0  0  0  0  0  0  0  0  0  0  0
   22.9678  -21.6075  -11.4964 O   0  0  0  0  0  0  0  0  0  0  0  0
   20.1461  -23.3115  -10.3939 N   0  0  0  0  0  0  0  0  0  0  0  0
   19.1398  -22.8391  -11.2949 C   0  0  0  0  0  0  0  0  0  0  0  0
   17.9473  -23.2069  -11.1456 O   0  0  0  0  0  0  0  0  0  0  0  0
   19.4663  -21.9182  -12.4116 C   0  0  0  0  0  0  0  0  0  0  0  0
   20.9213  -21.6301  -12.4005 C   0  0  0  0  0  0  0  0  0  0  0  0
   21.3912  -20.7914  -13.5653 C   0  0  2  0  0  0  0  0  0  0  0  0
   22.8160  -20.6413  -13.5264 N   0  0  0  0  0  0  0  0  0  0  0  0
   20.6612  -19.5329  -13.7035 C   0  0  0  0  0  0  0  0  0  0  0  0
   20.9988  -18.5075  -13.0598 O   0  0  0  0  0  0  0  0  0  0  0  0
   19.5666  -19.3950  -14.5415 O   0  0  0  0  0  0  0  0  0  0  0  0
  2  1  1  6
  2  3  1  0
  3  4  1  0
  4  8  1  0
  5  6  1  0
  5  4  2  0
  6  7  1  0
  7  8  2  0
  9  2  1  0
  9 10  2  0
 12 11  1  0
 13 14  1  0
 13 12  1  0
 15 14  1  1
 15 16  1  0
 16  9  1  0
 17 25  1  0
 17 15  1  0
 18 17  2  0
 19 20  1  0
 20 21  2  0
 20 22  1  0
 22 23  1  0
 24 23  1  1
 24 25  1  0
 24 26  1  0
 26 27  2  0
 26 28  1  0
M  END
$$$$
