HMQ.pdb
     RDKit          3D

 28 28  0  0  1  0  0  0  0  0999 V2000
   27.5530  -21.9761  -15.5796 N   0  0  0  0  0  0  0  0  0  0  0  0
   27.1182  -20.8553  -14.8078 C   0  0  1  0  0  0  0  0  0  0  0  0
   26.4633  -19.8368  -15.7230 C   0  0  0  0  0  0  0  0  0  0  0  0
   27.5012  -19.1117  -16.4968 C   0  0  0  0  0  0  0  0  0  0  0  0
   28.8839  -19.2629  -16.4334 C   0  0  0  0  0  0  0  0  0  0  0  0
   29.4387  -18.4034  -17.3091 N   0  0  0  0  0  0  0  0  0  0  0  0
   28.4655  -17.7210  -17.9178 C   0  0  0  0  0  0  0  0  0  0  0  0
   27.2839  -18.1535  -17.4219 N   0  0  0  0  0  0  0  0  0  0  0  0
   26.2237  -21.2298  -13.6840 C   0  0  0  0  0  0  0  0  0  0  0  0
   25.4014  -22.1689  -13.9079 O   0  0  0  0  0  0  0  0  0  0  0  0
   27.2000  -19.4415   -7.1516 C   0  0  0  0  0  0  0  0  0  0  0  0
   25.9520  -20.7165   -7.4021 S   0  0  0  0  0  0  0  0  0  0  0  0
   26.0430  -21.3439   -9.1208 C   0  0  0  0  0  0  0  0  0  0  0  0
   25.6426  -20.2621  -10.0761 C   0  0  0  0  0  0  0  0  0  0  0  0
   25.2237  -20.8275  -11.3840 C   0  0  2  0  0  0  0  0  0  0  0  0
   26.2411  -20.6116  -12.4146 N   0  0  0  0  0  0  0  0  0  0  0  0
   23.9743  -20.2375  -11.8890 C   0  0  0  0  0  0  0  0  0  0  0  0
   23.8855  -19.1859  -12.5725 O   0  0  0  0  0  0  0  0  0  0  0  0
   22.1522  -20.9865  -16.5092 N   0  0  0  0  0  0  0  0  0  0  0  0
   20.8627  -20.5268  -16.0926 C   0  0  0  0  0  0  0  0  0  0  0  0
   19.9787  -20.2869  -16.9531 O   0  0  0  0  0  0  0  0  0  0  0  0
   20.5354  -20.3232  -14.6597 C   0  0  0  0  0  0  0  0  0  0  0  0
   21.7203  -20.6593  -13.8332 C   0  0  0  0  0  0  0  0  0  0  0  0
   21.4949  -20.5138  -12.3470 C   0  0  2  0  0  0  0  0  0  0  0  0
   22.6896  -20.8462  -11.6286 N   0  0  0  0  0  0  0  0  0  0  0  0
   20.2996  -21.2081  -11.8727 C   0  0  0  0  0  0  0  0  0  0  0  0
   20.3690  -22.3548  -11.3628 O   0  0  0  0  0  0  0  0  0  0  0  0
   19.0333  -20.6519  -11.9549 O   0  0  0  0  0  0  0  0  0  0  0  0
  2  1  1  6
  2  3  1  0
  3  4  1  0
  4  8  1  0
  5  6  1  0
  5  4  2  0
  6  7  1  0
  7  8  2  0
  9  2  1  0
  9 10  2  0
 12 11  1  0
 13 14  1  0
 13 12  1  0
 15 14  1  1
 15 16  1  0
 16  9  1  0
 17 25  1  0
 17 15  1  0
 18 17  2  0
 19 20  1  0
 20 21  2  0
 20 22  1  0
 22 23  1  0
 24 23  1  6
 24 25  1  0
 24 26  1  0
 26 27  2  0
 26 28  1  0
M  END
$$$$
