HMQ.pdb
     RDKit          3D

 28 28  0  0  1  0  0  0  0  0999 V2000
   20.2689  -10.8234  -17.6412 N   0  0  0  0  0  0  0  0  0  0  0  0
   18.8469  -10.8402  -17.5052 C   0  0  1  0  0  0  0  0  0  0  0  0
   18.2080  -10.6837  -18.8730 C   0  0  0  0  0  0  0  0  0  0  0  0
   18.5791   -9.3709  -19.4568 C   0  0  0  0  0  0  0  0  0  0  0  0
   19.3234   -9.1203  -20.6067 C   0  0  0  0  0  0  0  0  0  0  0  0
   19.4163   -7.7860  -20.7616 N   0  0  0  0  0  0  0  0  0  0  0  0
   18.7636   -7.1899  -19.7605 C   0  0  0  0  0  0  0  0  0  0  0  0
   18.2532   -8.1572  -18.9650 N   0  0  0  0  0  0  0  0  0  0  0  0
   18.3401  -12.0464  -16.8040 C   0  0  0  0  0  0  0  0  0  0  0  0
   18.8896  -13.1477  -17.1095 O   0  0  0  0  0  0  0  0  0  0  0  0
   17.2606  -10.2378  -10.5517 C   0  0  0  0  0  0  0  0  0  0  0  0
   17.6549  -11.8179  -11.3220 S   0  0  0  0  0  0  0  0  0  0  0  0
   17.0332  -11.8401  -13.0450 C   0  0  0  0  0  0  0  0  0  0  0  0
   17.3491  -13.1593  -13.6799 C   0  0  0  0  0  0  0  0  0  0  0  0
   16.8730  -13.2072  -15.0859 C   0  0  2  0  0  0  0  0  0  0  0  0
   17.3068  -12.0307  -15.8417 N   0  0  0  0  0  0  0  0  0  0  0  0
   15.4069  -13.2646  -15.1921 C   0  0  0  0  0  0  0  0  0  0  0  0
   14.6463  -12.2780  -15.3625 O   0  0  0  0  0  0  0  0  0  0  0  0
   12.1296  -18.6722  -15.7076 N   0  0  0  0  0  0  0  0  0  0  0  0
   11.1237  -17.6734  -15.9032 C   0  0  0  0  0  0  0  0  0  0  0  0
    9.9676  -18.0145  -16.2589 O   0  0  0  0  0  0  0  0  0  0  0  0
   11.4087  -16.2320  -15.6961 C   0  0  0  0  0  0  0  0  0  0  0  0
   12.8503  -16.0552  -15.3950 C   0  0  0  0  0  0  0  0  0  0  0  0
   13.2618  -14.6182  -15.1790 C   0  0  2  0  0  0  0  0  0  0  0  0
   14.6895  -14.5162  -15.1053 N   0  0  0  0  0  0  0  0  0  0  0  0
   12.5587  -13.9757  -14.0706 C   0  0  0  0  0  0  0  0  0  0  0  0
   13.0282  -13.9867  -12.9047 O   0  0  0  0  0  0  0  0  0  0  0  0
   11.3474  -13.3235  -14.2351 O   0  0  0  0  0  0  0  0  0  0  0  0
  2  1  1  6
  2  3  1  0
  3  4  1  0
  4  8  1  0
  5  6  1  0
  5  4  2  0
  6  7  1  0
  7  8  2  0
  9  2  1  0
  9 10  2  0
 12 11  1  0
 13 14  1  0
 13 12  1  0
 15 14  1  1
 15 16  1  0
 16  9  1  0
 17 25  1  0
 17 15  1  0
 18 17  2  0
 19 20  1  0
 20 21  2  0
 20 22  1  0
 22 23  1  0
 24 23  1  1
 24 25  1  0
 24 26  1  0
 26 27  2  0
 26 28  1  0
M  END
$$$$
