HMQ.pdb
     RDKit          3D

 28 28  0  0  1  0  0  0  0  0999 V2000
   23.6564  -16.3012  -17.8111 N   0  0  0  0  0  0  0  0  0  0  0  0
   23.7635  -15.0030  -18.3977 C   0  0  1  0  0  0  0  0  0  0  0  0
   22.4698  -14.6664  -19.1166 C   0  0  0  0  0  0  0  0  0  0  0  0
   22.2676  -15.5965  -20.2550 C   0  0  0  0  0  0  0  0  0  0  0  0
   21.3988  -16.6817  -20.3353 C   0  0  0  0  0  0  0  0  0  0  0  0
   21.5438  -17.2439  -21.5503 N   0  0  0  0  0  0  0  0  0  0  0  0
   22.4644  -16.5595  -22.2341 C   0  0  0  0  0  0  0  0  0  0  0  0
   22.9055  -15.5549  -21.4434 N   0  0  0  0  0  0  0  0  0  0  0  0
   24.1323  -13.9478  -17.4209 C   0  0  0  0  0  0  0  0  0  0  0  0
   23.4893  -13.9429  -16.3279 O   0  0  0  0  0  0  0  0  0  0  0  0
   30.0199  -13.9919  -17.1007 C   0  0  0  0  0  0  0  0  0  0  0  0
   29.3744  -12.7267  -15.9924 S   0  0  0  0  0  0  0  0  0  0  0  0
   27.5513  -12.8694  -15.8834 C   0  0  0  0  0  0  0  0  0  0  0  0
   26.9107  -11.6991  -16.5639 C   0  0  0  0  0  0  0  0  0  0  0  0
   25.4452  -11.8948  -16.7045 C   0  0  2  0  0  0  0  0  0  0  0  0
   25.1338  -12.9768  -17.6404 N   0  0  0  0  0  0  0  0  0  0  0  0
   24.7519  -10.6941  -17.1960 C   0  0  0  0  0  0  0  0  0  0  0  0
   24.6036  -10.3775  -18.4038 O   0  0  0  0  0  0  0  0  0  0  0  0
   20.0406   -8.0538  -14.2015 N   0  0  0  0  0  0  0  0  0  0  0  0
   20.2841   -7.0596  -15.2015 C   0  0  0  0  0  0  0  0  0  0  0  0
   19.5223   -6.0638  -15.2886 O   0  0  0  0  0  0  0  0  0  0  0  0
   21.4212   -7.1711  -16.1482 C   0  0  0  0  0  0  0  0  0  0  0  0
   22.2217   -8.3742  -15.8138 C   0  0  0  0  0  0  0  0  0  0  0  0
   23.4078   -8.5958  -16.7222 C   0  0  2  0  0  0  0  0  0  0  0  0
   24.1581   -9.7377  -16.2896 N   0  0  0  0  0  0  0  0  0  0  0  0
   24.2132   -7.3935  -16.9254 C   0  0  0  0  0  0  0  0  0  0  0  0
   25.3042   -7.2282  -16.3236 O   0  0  0  0  0  0  0  0  0  0  0  0
   23.8285   -6.3754  -17.7828 O   0  0  0  0  0  0  0  0  0  0  0  0
  2  1  1  1
  2  3  1  0
  3  4  1  0
  4  8  1  0
  5  6  1  0
  5  4  2  0
  6  7  1  0
  7  8  2  0
  9  2  1  0
  9 10  2  0
 12 11  1  0
 13 14  1  0
 13 12  1  0
 15 14  1  6
 15 16  1  0
 16  9  1  0
 17 25  1  0
 17 15  1  0
 18 17  2  0
 19 20  1  0
 20 21  2  0
 20 22  1  0
 22 23  1  0
 24 23  1  1
 24 25  1  0
 24 26  1  0
 26 27  2  0
 26 28  1  0
M  END
$$$$
