HMQ.pdb
     RDKit          3D

 28 28  0  0  1  0  0  0  0  0999 V2000
   18.8701  -24.7969   -6.2497 N   0  0  0  0  0  0  0  0  0  0  0  0
   17.5017  -25.0351   -5.9154 C   0  0  1  0  0  0  0  0  0  0  0  0
   17.0348  -26.3148   -6.5847 C   0  0  0  0  0  0  0  0  0  0  0  0
   17.1354  -26.1798   -8.0590 C   0  0  0  0  0  0  0  0  0  0  0  0
   18.0083  -26.8333   -8.9250 C   0  0  0  0  0  0  0  0  0  0  0  0
   17.7503  -26.4092  -10.1767 N   0  0  0  0  0  0  0  0  0  0  0  0
   16.7551  -25.5197  -10.1332 C   0  0  0  0  0  0  0  0  0  0  0  0
   16.3806  -25.3802   -8.8412 N   0  0  0  0  0  0  0  0  0  0  0  0
   17.2533  -25.0657   -4.4522 C   0  0  0  0  0  0  0  0  0  0  0  0
   18.1472  -25.6162   -3.7409 O   0  0  0  0  0  0  0  0  0  0  0  0
   15.6715  -21.7668    1.9274 C   0  0  0  0  0  0  0  0  0  0  0  0
   15.6966  -21.7344    0.1262 S   0  0  0  0  0  0  0  0  0  0  0  0
   14.8435  -23.2156   -0.5326 C   0  0  0  0  0  0  0  0  0  0  0  0
   15.0400  -23.2950   -2.0152 C   0  0  0  0  0  0  0  0  0  0  0  0
   15.9322  -24.4251   -2.3796 C   0  0  2  0  0  0  0  0  0  0  0  0
   16.1053  -24.5285   -3.8297 N   0  0  0  0  0  0  0  0  0  0  0  0
   15.4253  -25.7265   -1.9175 C   0  0  0  0  0  0  0  0  0  0  0  0
   14.5147  -26.3951   -2.4696 O   0  0  0  0  0  0  0  0  0  0  0  0
   18.6869  -29.8768    1.2868 N   0  0  0  0  0  0  0  0  0  0  0  0
   18.3716  -30.0074   -0.1029 C   0  0  0  0  0  0  0  0  0  0  0  0
   19.0530  -30.7762   -0.8269 O   0  0  0  0  0  0  0  0  0  0  0  0
   17.2523  -29.2540   -0.7204 C   0  0  0  0  0  0  0  0  0  0  0  0
   16.5647  -28.4545    0.3227 C   0  0  0  0  0  0  0  0  0  0  0  0
   15.4390  -27.5957   -0.2029 C   0  0  2  0  0  0  0  0  0  0  0  0
   15.9568  -26.3712   -0.7383 N   0  0  0  0  0  0  0  0  0  0  0  0
   14.3520  -27.4158    0.7571 C   0  0  0  0  0  0  0  0  0  0  0  0
   14.3695  -26.4803    1.5964 O   0  0  0  0  0  0  0  0  0  0  0  0
   13.2501  -28.2545    0.8004 O   0  0  0  0  0  0  0  0  0  0  0  0
  2  1  1  1
  2  3  1  0
  3  4  1  0
  4  8  1  0
  5  6  1  0
  5  4  2  0
  6  7  1  0
  7  8  2  0
  9  2  1  0
  9 10  2  0
 12 11  1  0
 13 14  1  0
 13 12  1  0
 15 14  1  6
 15 16  1  0
 16  9  1  0
 17 25  1  0
 17 15  1  0
 18 17  2  0
 19 20  1  0
 20 21  2  0
 20 22  1  0
 22 23  1  0
 24 23  1  1
 24 25  1  0
 24 26  1  0
 26 27  2  0
 26 28  1  0
M  END
$$$$
