KGS.pdb
     RDKit          3D

 20 19  0  0  1  0  0  0  0  0999 V2000
   18.5573  -10.1844  -18.8362 N   0  0  0  0  0  0  0  0  0  0  0  0
   19.4900  -10.6847  -17.8565 C   0  0  1  0  0  0  0  0  0  0  0  0
   20.2881  -11.8633  -18.4226 C   0  0  0  0  0  0  0  0  0  0  0  0
   19.4693  -12.4146  -19.5672 C   0  0  0  0  0  0  0  0  0  0  0  0
   20.1070  -13.6211  -20.1920 C   0  0  0  0  0  0  0  0  0  0  0  0
   19.2586  -14.0228  -21.3829 C   0  0  0  0  0  0  0  0  0  0  0  0
   19.8384  -15.0961  -22.1324 N   0  0  0  0  0  0  0  0  0  0  0  0
   20.4706   -9.6777  -17.4263 C   0  0  0  0  0  0  0  0  0  0  0  0
   21.2647   -9.9384  -16.5091 O   0  0  0  0  0  0  0  0  0  0  0  0
   20.5003   -8.4235  -18.0600 N   0  0  0  0  0  0  0  0  0  0  0  0
   21.4783   -7.4487  -17.6510 C   0  0  0  0  0  0  0  0  0  0  0  0
   20.9551   -6.7214  -16.4777 C   0  0  0  0  0  0  0  0  0  0  0  0
   19.7612   -6.3704  -16.3450 O   0  0  0  0  0  0  0  0  0  0  0  0
   20.9492   -7.6241  -13.0101 O   0  0  0  0  0  0  0  0  0  0  0  0
   21.7504   -6.5021  -13.0315 C   0  0  0  0  0  0  0  0  0  0  0  0
   21.3986   -5.6644  -14.2453 C   0  0  2  0  0  0  0  0  0  0  0  0
   21.8472   -6.3882  -15.4189 N   0  0  0  0  0  0  0  0  0  0  0  0
   22.1164   -4.3645  -14.2250 C   0  0  0  0  0  0  0  0  0  0  0  0
   21.7207   -3.3110  -13.3915 O   0  0  0  0  0  0  0  0  0  0  0  0
   23.1160   -4.1422  -14.9546 O   0  0  0  0  0  0  0  0  0  0  0  0
  2  1  1  6
  3  2  1  0
  4  3  1  0
  5  4  1  0
  6  5  1  0
  7  6  1  0
  8  2  1  0
  9  8  2  0
 10  8  1  0
 11 10  1  0
 11 12  1  0
 12 17  1  0
 13 12  2  0
 15 14  1  0
 16 15  1  1
 16 18  1  0
 17 16  1  0
 18 20  2  0
 18 19  1  0
M  END
$$$$
