KGS.pdb
     RDKit          3D

 20 19  0  0  1  0  0  0  0  0999 V2000
   24.1774  -18.8748  -16.8158 N   0  0  0  0  0  0  0  0  0  0  0  0
   23.6035  -19.9043  -15.9847 C   0  0  1  0  0  0  0  0  0  0  0  0
   24.4523  -20.1201  -14.7280 C   0  0  0  0  0  0  0  0  0  0  0  0
   25.8600  -19.7112  -15.0961 C   0  0  0  0  0  0  0  0  0  0  0  0
   26.6714  -20.8661  -15.6067 C   0  0  0  0  0  0  0  0  0  0  0  0
   28.0951  -20.3787  -15.7937 C   0  0  0  0  0  0  0  0  0  0  0  0
   28.9841  -21.4245  -16.2007 N   0  0  0  0  0  0  0  0  0  0  0  0
   22.2437  -19.5849  -15.5269 C   0  0  0  0  0  0  0  0  0  0  0  0
   21.7009  -20.2874  -14.6598 O   0  0  0  0  0  0  0  0  0  0  0  0
   21.5675  -18.4826  -16.0773 N   0  0  0  0  0  0  0  0  0  0  0  0
   20.2591  -18.1383  -15.5836 C   0  0  0  0  0  0  0  0  0  0  0  0
   19.7865  -16.9381  -16.3015 C   0  0  0  0  0  0  0  0  0  0  0  0
   20.5391  -16.0318  -16.7245 O   0  0  0  0  0  0  0  0  0  0  0  0
   15.7221  -16.2155  -16.5583 O   0  0  0  0  0  0  0  0  0  0  0  0
   16.4415  -16.0647  -17.7249 C   0  0  0  0  0  0  0  0  0  0  0  0
   17.8772  -15.7189  -17.3811 C   0  0  2  0  0  0  0  0  0  0  0  0
   18.3911  -16.7810  -16.5384 N   0  0  0  0  0  0  0  0  0  0  0  0
   17.9519  -14.4580  -16.6000 C   0  0  0  0  0  0  0  0  0  0  0  0
   18.2692  -14.4474  -15.2361 O   0  0  0  0  0  0  0  0  0  0  0  0
   17.7344  -13.3352  -17.1222 O   0  0  0  0  0  0  0  0  0  0  0  0
  2  1  1  1
  3  2  1  0
  4  3  1  0
  5  4  1  0
  6  5  1  0
  7  6  1  0
  8  2  1  0
  9  8  2  0
 10  8  1  0
 11 10  1  0
 11 12  1  0
 12 17  1  0
 13 12  2  0
 15 14  1  0
 16 15  1  1
 16 18  1  0
 17 16  1  0
 18 20  2  0
 18 19  1  0
M  END
$$$$
