KGS.pdb
     RDKit          3D

 20 19  0  0  1  0  0  0  0  0999 V2000
   25.6320  -21.5909  -16.2178 N   0  0  0  0  0  0  0  0  0  0  0  0
   24.7138  -22.6795  -15.9901 C   0  0  1  0  0  0  0  0  0  0  0  0
   25.4547  -23.9083  -15.4539 C   0  0  0  0  0  0  0  0  0  0  0  0
   26.4154  -24.3282  -16.5424 C   0  0  0  0  0  0  0  0  0  0  0  0
   27.2249  -25.5305  -16.1524 C   0  0  0  0  0  0  0  0  0  0  0  0
   28.1729  -25.8354  -17.2960 C   0  0  0  0  0  0  0  0  0  0  0  0
   29.0775  -26.9018  -16.9893 N   0  0  0  0  0  0  0  0  0  0  0  0
   23.6668  -22.3560  -15.0104 C   0  0  0  0  0  0  0  0  0  0  0  0
   22.9432  -23.2563  -14.5568 O   0  0  0  0  0  0  0  0  0  0  0  0
   23.4937  -21.0247  -14.5943 N   0  0  0  0  0  0  0  0  0  0  0  0
   22.5172  -20.7233  -13.5796 C   0  0  0  0  0  0  0  0  0  0  0  0
   21.1719  -20.9789  -14.1311 C   0  0  0  0  0  0  0  0  0  0  0  0
   20.8634  -20.8147  -15.3329 O   0  0  0  0  0  0  0  0  0  0  0  0
   18.7674  -23.6808  -12.4368 O   0  0  0  0  0  0  0  0  0  0  0  0
   18.0868  -22.5029  -12.6616 C   0  0  0  0  0  0  0  0  0  0  0  0
   18.8045  -21.7130  -13.7386 C   0  0  2  0  0  0  0  0  0  0  0  0
   20.1456  -21.4416  -13.2589 N   0  0  0  0  0  0  0  0  0  0  0  0
   18.1439  -20.4037  -13.9723 C   0  0  0  0  0  0  0  0  0  0  0  0
   17.0162  -20.2772  -14.7929 O   0  0  0  0  0  0  0  0  0  0  0  0
   18.5623  -19.3413  -13.4459 O   0  0  0  0  0  0  0  0  0  0  0  0
  2  1  1  1
  3  2  1  0
  4  3  1  0
  5  4  1  0
  6  5  1  0
  7  6  1  0
  8  2  1  0
  9  8  2  0
 10  8  1  0
 11 10  1  0
 11 12  1  0
 12 17  1  0
 13 12  2  0
 15 14  1  0
 16 15  1  1
 16 18  1  0
 17 16  1  0
 18 20  2  0
 18 19  1  0
M  END
$$$$
