KGS.pdb
     RDKit          3D

 20 19  0  0  1  0  0  0  0  0999 V2000
   25.9548  -22.8019  -13.8424 N   0  0  0  0  0  0  0  0  0  0  0  0
   26.2793  -21.4683  -13.3994 C   0  0  1  0  0  0  0  0  0  0  0  0
   26.8989  -20.6556  -14.5403 C   0  0  0  0  0  0  0  0  0  0  0  0
   27.0330  -21.6052  -15.7085 C   0  0  0  0  0  0  0  0  0  0  0  0
   27.6445  -20.9449  -16.9097 C   0  0  0  0  0  0  0  0  0  0  0  0
   27.6588  -21.9621  -18.0342 C   0  0  0  0  0  0  0  0  0  0  0  0
   28.1895  -21.4268  -19.2514 N   0  0  0  0  0  0  0  0  0  0  0  0
   25.1073  -20.7147  -12.9313 C   0  0  0  0  0  0  0  0  0  0  0  0
   25.2172  -19.5117  -12.6474 O   0  0  0  0  0  0  0  0  0  0  0  0
   23.8676  -21.3656  -12.8087 N   0  0  0  0  0  0  0  0  0  0  0  0
   22.7169  -20.6170  -12.3735 C   0  0  0  0  0  0  0  0  0  0  0  0
   21.5003  -21.3158  -12.8326 C   0  0  0  0  0  0  0  0  0  0  0  0
   21.3741  -22.5607  -12.8594 O   0  0  0  0  0  0  0  0  0  0  0  0
   18.7525  -18.8599  -13.9836 O   0  0  0  0  0  0  0  0  0  0  0  0
   18.1198  -20.0804  -13.8764 C   0  0  0  0  0  0  0  0  0  0  0  0
   19.1648  -21.1704  -13.7391 C   0  0  2  0  0  0  0  0  0  0  0  0
   20.3885  -20.5448  -13.2772 N   0  0  0  0  0  0  0  0  0  0  0  0
   19.4571  -21.8003  -15.0518 C   0  0  0  0  0  0  0  0  0  0  0  0
   18.6356  -22.7947  -15.5973 O   0  0  0  0  0  0  0  0  0  0  0  0
   20.4565  -21.4739  -15.7413 O   0  0  0  0  0  0  0  0  0  0  0  0
  2  1  1  6
  3  2  1  0
  4  3  1  0
  5  4  1  0
  6  5  1  0
  7  6  1  0
  8  2  1  0
  9  8  2  0
 10  8  1  0
 11 10  1  0
 11 12  1  0
 12 17  1  0
 13 12  2  0
 15 14  1  0
 16 15  1  6
 16 18  1  0
 17 16  1  0
 18 20  2  0
 18 19  1  0
M  END
$$$$
