KGS.pdb
     RDKit          3D

 20 19  0  0  1  0  0  0  0  0999 V2000
   17.2990  -11.8168  -16.5266 N   0  0  0  0  0  0  0  0  0  0  0  0
   18.6989  -11.5349  -16.3241 C   0  0  1  0  0  0  0  0  0  0  0  0
   19.5683  -12.5775  -17.0338 C   0  0  0  0  0  0  0  0  0  0  0  0
   19.1490  -13.9206  -16.4817 C   0  0  0  0  0  0  0  0  0  0  0  0
   19.9599  -15.0472  -17.0528 C   0  0  0  0  0  0  0  0  0  0  0  0
   19.5149  -16.3250  -16.3681 C   0  0  0  0  0  0  0  0  0  0  0  0
   20.3284  -17.4488  -16.7216 N   0  0  0  0  0  0  0  0  0  0  0  0
   19.1042  -10.2213  -16.8446 C   0  0  0  0  0  0  0  0  0  0  0  0
   18.6535   -9.8184  -17.9283 O   0  0  0  0  0  0  0  0  0  0  0  0
   20.0020   -9.4301  -16.1076 N   0  0  0  0  0  0  0  0  0  0  0  0
   20.3916   -8.1414  -16.6190 C   0  0  0  0  0  0  0  0  0  0  0  0
   21.2223   -7.4643  -15.6038 C   0  0  0  0  0  0  0  0  0  0  0  0
   21.4163   -7.9047  -14.4485 O   0  0  0  0  0  0  0  0  0  0  0  0
   22.3666   -3.6174  -16.2748 O   0  0  0  0  0  0  0  0  0  0  0  0
   23.3832   -4.4015  -15.7718 C   0  0  0  0  0  0  0  0  0  0  0  0
   22.7810   -5.5817  -15.0347 C   0  0  2  0  0  0  0  0  0  0  0  0
   21.8520   -6.2316  -15.9385 N   0  0  0  0  0  0  0  0  0  0  0  0
   22.0063   -5.1340  -13.8494 C   0  0  0  0  0  0  0  0  0  0  0  0
   22.6306   -4.7537  -12.6550 O   0  0  0  0  0  0  0  0  0  0  0  0
   20.7505   -5.0730  -13.8566 O   0  0  0  0  0  0  0  0  0  0  0  0
  2  1  1  6
  3  2  1  0
  4  3  1  0
  5  4  1  0
  6  5  1  0
  7  6  1  0
  8  2  1  0
  9  8  2  0
 10  8  1  0
 11 10  1  0
 11 12  1  0
 12 17  1  0
 13 12  2  0
 15 14  1  0
 16 15  1  6
 16 18  1  0
 17 16  1  0
 18 20  2  0
 18 19  1  0
M  END
$$$$
