KGS.pdb
     RDKit          3D

 20 19  0  0  1  0  0  0  0  0999 V2000
   23.2996  -18.0539  -15.6428 N   0  0  0  0  0  0  0  0  0  0  0  0
   24.2288  -18.6426  -16.5755 C   0  0  1  0  0  0  0  0  0  0  0  0
   24.3990  -17.7473  -17.8067 C   0  0  0  0  0  0  0  0  0  0  0  0
   23.2184  -18.0381  -18.7045 C   0  0  0  0  0  0  0  0  0  0  0  0
   21.9816  -17.3067  -18.2706 C   0  0  0  0  0  0  0  0  0  0  0  0
   20.8587  -17.7101  -19.2064 C   0  0  0  0  0  0  0  0  0  0  0  0
   19.6058  -17.1173  -18.8476 N   0  0  0  0  0  0  0  0  0  0  0  0
   25.5700  -18.8396  -16.0072 C   0  0  0  0  0  0  0  0  0  0  0  0
   26.4083  -19.5201  -16.6189 O   0  0  0  0  0  0  0  0  0  0  0  0
   25.8926  -18.2533  -14.7712 N   0  0  0  0  0  0  0  0  0  0  0  0
   27.2245  -18.4037  -14.2445 C   0  0  0  0  0  0  0  0  0  0  0  0
   27.2410  -19.5642  -13.3321 C   0  0  0  0  0  0  0  0  0  0  0  0
   27.8727  -20.6217  -13.5534 O   0  0  0  0  0  0  0  0  0  0  0  0
   25.7751  -21.1722   -9.0105 O   0  0  0  0  0  0  0  0  0  0  0  0
   25.8888  -20.1162   -9.8898 C   0  0  0  0  0  0  0  0  0  0  0  0
   26.4118  -20.6300  -11.2170 C   0  0  2  0  0  0  0  0  0  0  0  0
   26.4987  -19.4979  -12.1186 N   0  0  0  0  0  0  0  0  0  0  0  0
   25.4706  -21.6068  -11.8215 C   0  0  0  0  0  0  0  0  0  0  0  0
   25.6238  -22.9884  -11.6513 O   0  0  0  0  0  0  0  0  0  0  0  0
   24.4877  -21.2446  -12.5169 O   0  0  0  0  0  0  0  0  0  0  0  0
  2  1  1  1
  3  2  1  0
  4  3  1  0
  5  4  1  0
  6  5  1  0
  7  6  1  0
  8  2  1  0
  9  8  2  0
 10  8  1  0
 11 10  1  0
 11 12  1  0
 12 17  1  0
 13 12  2  0
 15 14  1  0
 16 15  1  1
 16 18  1  0
 17 16  1  0
 18 20  2  0
 18 19  1  0
M  END
$$$$
