KGS.pdb
     RDKit          3D

 20 19  0  0  1  0  0  0  0  0999 V2000
   18.7329  -12.1743  -18.7943 N   0  0  0  0  0  0  0  0  0  0  0  0
   18.8959  -11.6950  -17.4438 C   0  0  1  0  0  0  0  0  0  0  0  0
   19.1249  -12.8631  -16.4797 C   0  0  0  0  0  0  0  0  0  0  0  0
   17.7650  -13.4720  -16.2262 C   0  0  0  0  0  0  0  0  0  0  0  0
   17.7841  -14.4499  -15.0877 C   0  0  0  0  0  0  0  0  0  0  0  0
   16.3556  -14.8956  -14.8425 C   0  0  0  0  0  0  0  0  0  0  0  0
   16.2359  -15.7496  -13.6996 N   0  0  0  0  0  0  0  0  0  0  0  0
   20.0414  -10.7872  -17.2880 C   0  0  0  0  0  0  0  0  0  0  0  0
   21.0863  -10.9932  -17.9249 O   0  0  0  0  0  0  0  0  0  0  0  0
   19.9430   -9.6896  -16.4156 N   0  0  0  0  0  0  0  0  0  0  0  0
   21.0837   -8.8303  -16.2302 C   0  0  0  0  0  0  0  0  0  0  0  0
   20.6813   -7.6910  -15.3822 C   0  0  0  0  0  0  0  0  0  0  0  0
   19.5005   -7.4508  -15.0439 O   0  0  0  0  0  0  0  0  0  0  0  0
   22.4209   -4.0529  -12.6914 O   0  0  0  0  0  0  0  0  0  0  0  0
   22.6768   -5.0579  -13.6001 C   0  0  0  0  0  0  0  0  0  0  0  0
   21.3703   -5.7261  -13.9816 C   0  0  2  0  0  0  0  0  0  0  0  0
   21.6830   -6.7967  -14.9080 N   0  0  0  0  0  0  0  0  0  0  0  0
   20.4701   -4.7785  -14.6867 C   0  0  0  0  0  0  0  0  0  0  0  0
   19.4491   -4.0893  -14.0206 O   0  0  0  0  0  0  0  0  0  0  0  0
   20.5778   -4.5457  -15.9176 O   0  0  0  0  0  0  0  0  0  0  0  0
  2  1  1  6
  3  2  1  0
  4  3  1  0
  5  4  1  0
  6  5  1  0
  7  6  1  0
  8  2  1  0
  9  8  2  0
 10  8  1  0
 11 10  1  0
 11 12  1  0
 12 17  1  0
 13 12  2  0
 15 14  1  0
 16 15  1  6
 16 18  1  0
 17 16  1  0
 18 20  2  0
 18 19  1  0
M  END
$$$$
