KGS.pdb
     RDKit          3D

 20 19  0  0  1  0  0  0  0  0999 V2000
   23.9695  -21.8156  -14.2377 N   0  0  0  0  0  0  0  0  0  0  0  0
   24.6515  -20.5865  -14.5609 C   0  0  1  0  0  0  0  0  0  0  0  0
   23.7209  -19.3852  -14.3677 C   0  0  0  0  0  0  0  0  0  0  0  0
   22.3930  -19.7806  -14.9715 C   0  0  0  0  0  0  0  0  0  0  0  0
   21.6588  -20.7787  -14.1244 C   0  0  0  0  0  0  0  0  0  0  0  0
   20.3418  -21.0825  -14.8118 C   0  0  0  0  0  0  0  0  0  0  0  0
   19.5283  -21.9912  -14.0619 N   0  0  0  0  0  0  0  0  0  0  0  0
   25.8339  -20.3448  -13.7217 C   0  0  0  0  0  0  0  0  0  0  0  0
   26.4163  -19.2502  -13.7724 O   0  0  0  0  0  0  0  0  0  0  0  0
   26.2963  -21.3594  -12.8660 N   0  0  0  0  0  0  0  0  0  0  0  0
   27.2843  -21.0445  -11.8667 C   0  0  0  0  0  0  0  0  0  0  0  0
   26.7388  -21.3929  -10.5400 C   0  0  0  0  0  0  0  0  0  0  0  0
   25.7997  -22.1999  -10.3574 O   0  0  0  0  0  0  0  0  0  0  0  0
   27.6904  -19.0439   -7.3396 O   0  0  0  0  0  0  0  0  0  0  0  0
   27.7421  -20.3938   -7.0633 C   0  0  0  0  0  0  0  0  0  0  0  0
   26.8578  -21.1356   -8.0466 C   0  0  2  0  0  0  0  0  0  0  0  0
   27.3013  -20.7847   -9.3817 N   0  0  0  0  0  0  0  0  0  0  0  0
   25.4416  -20.7058   -7.9228 C   0  0  0  0  0  0  0  0  0  0  0  0
   24.5912  -21.2264   -6.9395 O   0  0  0  0  0  0  0  0  0  0  0  0
   24.9328  -19.8528   -8.6937 O   0  0  0  0  0  0  0  0  0  0  0  0
  2  1  1  1
  3  2  1  0
  4  3  1  0
  5  4  1  0
  6  5  1  0
  7  6  1  0
  8  2  1  0
  9  8  2  0
 10  8  1  0
 11 10  1  0
 11 12  1  0
 12 17  1  0
 13 12  2  0
 15 14  1  0
 16 15  1  1
 16 18  1  0
 17 16  1  0
 18 20  2  0
 18 19  1  0
M  END
$$$$
