KGS.pdb
     RDKit          3D

 20 19  0  0  1  0  0  0  0  0999 V2000
   22.9217  -21.3954  -13.7213 N   0  0  0  0  0  0  0  0  0  0  0  0
   24.1525  -20.8940  -14.2815 C   0  0  1  0  0  0  0  0  0  0  0  0
   23.8809  -19.6981  -15.1994 C   0  0  0  0  0  0  0  0  0  0  0  0
   22.6527  -20.0562  -16.0042 C   0  0  0  0  0  0  0  0  0  0  0  0
   21.3830  -19.6587  -15.3095 C   0  0  0  0  0  0  0  0  0  0  0  0
   20.2345  -19.9353  -16.2602 C   0  0  0  0  0  0  0  0  0  0  0  0
   18.9644  -19.5767  -15.7053 N   0  0  0  0  0  0  0  0  0  0  0  0
   25.1064  -20.4360  -13.2612 C   0  0  0  0  0  0  0  0  0  0  0  0
   24.8020  -19.5016  -12.5035 O   0  0  0  0  0  0  0  0  0  0  0  0
   26.3597  -21.0626  -13.1523 N   0  0  0  0  0  0  0  0  0  0  0  0
   27.2722  -20.6422  -12.1205 C   0  0  0  0  0  0  0  0  0  0  0  0
   26.7772  -21.1422  -10.8228 C   0  0  0  0  0  0  0  0  0  0  0  0
   26.1231  -22.1999  -10.6817 O   0  0  0  0  0  0  0  0  0  0  0  0
   27.2007  -18.6861   -7.5876 O   0  0  0  0  0  0  0  0  0  0  0  0
   27.3776  -20.0238   -7.3037 C   0  0  0  0  0  0  0  0  0  0  0  0
   26.6353  -20.8520   -8.3342 C   0  0  2  0  0  0  0  0  0  0  0  0
   27.0495  -20.3900   -9.6446 N   0  0  0  0  0  0  0  0  0  0  0  0
   25.1684  -20.6426   -8.2336 C   0  0  0  0  0  0  0  0  0  0  0  0
   24.4803  -19.7828   -9.0986 O   0  0  0  0  0  0  0  0  0  0  0  0
   24.4686  -21.2258   -7.3671 O   0  0  0  0  0  0  0  0  0  0  0  0
  2  1  1  1
  3  2  1  0
  4  3  1  0
  5  4  1  0
  6  5  1  0
  7  6  1  0
  8  2  1  0
  9  8  2  0
 10  8  1  0
 11 10  1  0
 11 12  1  0
 12 17  1  0
 13 12  2  0
 15 14  1  0
 16 15  1  1
 16 18  1  0
 17 16  1  0
 18 20  2  0
 18 19  1  0
M  END
$$$$
