KGS.pdb
     RDKit          3D

 20 19  0  0  1  0  0  0  0  0999 V2000
   25.9614  -19.9413  -17.5675 N   0  0  0  0  0  0  0  0  0  0  0  0
   26.7207  -18.7434  -17.3057 C   0  0  1  0  0  0  0  0  0  0  0  0
   26.0581  -17.5289  -17.9631 C   0  0  0  0  0  0  0  0  0  0  0  0
   25.7678  -17.9300  -19.3912 C   0  0  0  0  0  0  0  0  0  0  0  0
   26.8789  -17.5479  -20.3252 C   0  0  0  0  0  0  0  0  0  0  0  0
   26.4531  -17.9376  -21.7274 C   0  0  0  0  0  0  0  0  0  0  0  0
   26.6275  -19.3350  -21.9853 N   0  0  0  0  0  0  0  0  0  0  0  0
   26.8389  -18.4367  -15.8730 C   0  0  0  0  0  0  0  0  0  0  0  0
   27.3560  -17.3692  -15.5085 O   0  0  0  0  0  0  0  0  0  0  0  0
   26.3635  -19.3588  -14.9247 N   0  0  0  0  0  0  0  0  0  0  0  0
   26.4805  -19.0532  -13.5222 C   0  0  0  0  0  0  0  0  0  0  0  0
   25.7758  -20.0977  -12.7531 C   0  0  0  0  0  0  0  0  0  0  0  0
   25.0748  -20.9967  -13.2696 O   0  0  0  0  0  0  0  0  0  0  0  0
   27.0458  -20.9160   -9.0483 O   0  0  0  0  0  0  0  0  0  0  0  0
   25.6676  -20.8966   -9.0879 C   0  0  0  0  0  0  0  0  0  0  0  0
   25.2098  -21.0929  -10.5200 C   0  0  2  0  0  0  0  0  0  0  0  0
   25.8868  -20.1017  -11.3333 N   0  0  0  0  0  0  0  0  0  0  0  0
   23.7502  -20.8534  -10.6530 C   0  0  0  0  0  0  0  0  0  0  0  0
   22.8038  -21.8259  -10.3067 O   0  0  0  0  0  0  0  0  0  0  0  0
   23.2883  -19.7660  -11.0830 O   0  0  0  0  0  0  0  0  0  0  0  0
  2  1  1  1
  3  2  1  0
  4  3  1  0
  5  4  1  0
  6  5  1  0
  7  6  1  0
  8  2  1  0
  9  8  2  0
 10  8  1  0
 11 10  1  0
 11 12  1  0
 12 17  1  0
 13 12  2  0
 15 14  1  0
 16 15  1  1
 16 18  1  0
 17 16  1  0
 18 20  2  0
 18 19  1  0
M  END
$$$$
