KGS.pdb
     RDKit          3D

 20 19  0  0  1  0  0  0  0  0999 V2000
   20.5054  -21.7465  -10.4063 N   0  0  0  0  0  0  0  0  0  0  0  0
   20.1029  -22.4380  -11.6063 C   0  0  1  0  0  0  0  0  0  0  0  0
   18.6658  -22.9523  -11.4774 C   0  0  0  0  0  0  0  0  0  0  0  0
   18.6716  -23.9326  -10.3271 C   0  0  0  0  0  0  0  0  0  0  0  0
   17.3538  -24.6340  -10.1723 C   0  0  0  0  0  0  0  0  0  0  0  0
   17.4822  -25.5996   -9.0101 C   0  0  0  0  0  0  0  0  0  0  0  0
   16.2381  -26.2240   -8.6754 N   0  0  0  0  0  0  0  0  0  0  0  0
   20.1415  -21.5861  -12.8036 C   0  0  0  0  0  0  0  0  0  0  0  0
   19.7758  -22.0401  -13.8991 O   0  0  0  0  0  0  0  0  0  0  0  0
   20.5938  -20.2597  -12.6969 N   0  0  0  0  0  0  0  0  0  0  0  0
   20.5707  -19.4100  -13.8594 C   0  0  0  0  0  0  0  0  0  0  0  0
   19.6008  -18.3216  -13.6270 C   0  0  0  0  0  0  0  0  0  0  0  0
   18.7514  -18.3232  -12.7078 O   0  0  0  0  0  0  0  0  0  0  0  0
   19.5819  -15.4160  -16.4019 O   0  0  0  0  0  0  0  0  0  0  0  0
   19.1591  -14.9439  -15.1774 C   0  0  0  0  0  0  0  0  0  0  0  0
   18.6612  -16.1073  -14.3422 C   0  0  2  0  0  0  0  0  0  0  0  0
   19.6146  -17.1895  -14.4908 N   0  0  0  0  0  0  0  0  0  0  0  0
   17.3507  -16.5999  -14.8376 C   0  0  0  0  0  0  0  0  0  0  0  0
   17.2317  -17.7922  -15.5626 O   0  0  0  0  0  0  0  0  0  0  0  0
   16.2806  -15.9728  -14.6321 O   0  0  0  0  0  0  0  0  0  0  0  0
  2  1  1  1
  3  2  1  0
  4  3  1  0
  5  4  1  0
  6  5  1  0
  7  6  1  0
  8  2  1  0
  9  8  2  0
 10  8  1  0
 11 10  1  0
 11 12  1  0
 12 17  1  0
 13 12  2  0
 15 14  1  0
 16 15  1  6
 16 18  1  0
 17 16  1  0
 18 20  2  0
 18 19  1  0
M  END
$$$$
