KGS.pdb
     RDKit          3D

 20 19  0  0  1  0  0  0  0  0999 V2000
   24.4642  -21.4964  -12.4699 N   0  0  0  0  0  0  0  0  0  0  0  0
   25.4976  -20.5899  -12.0336 C   0  0  1  0  0  0  0  0  0  0  0  0
   26.1086  -21.0631  -10.7111 C   0  0  0  0  0  0  0  0  0  0  0  0
   25.2074  -20.5351   -9.6187 C   0  0  0  0  0  0  0  0  0  0  0  0
   24.0583  -21.4580   -9.3351 C   0  0  0  0  0  0  0  0  0  0  0  0
   23.2405  -20.8415   -8.2168 C   0  0  0  0  0  0  0  0  0  0  0  0
   22.1030  -21.6370   -7.8662 N   0  0  0  0  0  0  0  0  0  0  0  0
   26.6050  -20.4725  -12.9931 C   0  0  0  0  0  0  0  0  0  0  0  0
   27.0105  -21.4777  -13.5973 O   0  0  0  0  0  0  0  0  0  0  0  0
   27.1973  -19.2180  -13.2187 N   0  0  0  0  0  0  0  0  0  0  0  0
   28.3033  -19.1138  -14.1351 C   0  0  0  0  0  0  0  0  0  0  0  0
   27.7694  -18.8863  -15.4924 C   0  0  0  0  0  0  0  0  0  0  0  0
   28.4788  -18.6356  -16.4926 O   0  0  0  0  0  0  0  0  0  0  0  0
   24.1601  -20.3516  -16.2125 O   0  0  0  0  0  0  0  0  0  0  0  0
   24.9953  -20.1121  -17.2831 C   0  0  0  0  0  0  0  0  0  0  0  0
   25.7820  -18.8421  -17.0241 C   0  0  2  0  0  0  0  0  0  0  0  0
   26.3620  -18.9515  -15.6997 N   0  0  0  0  0  0  0  0  0  0  0  0
   24.8928  -17.6526  -17.0217 C   0  0  0  0  0  0  0  0  0  0  0  0
   24.2810  -17.1809  -18.1897 O   0  0  0  0  0  0  0  0  0  0  0  0
   24.6433  -17.0076  -15.9717 O   0  0  0  0  0  0  0  0  0  0  0  0
  2  1  1  6
  3  2  1  0
  4  3  1  0
  5  4  1  0
  6  5  1  0
  7  6  1  0
  8  2  1  0
  9  8  2  0
 10  8  1  0
 11 10  1  0
 11 12  1  0
 12 17  1  0
 13 12  2  0
 15 14  1  0
 16 15  1  1
 16 18  1  0
 17 16  1  0
 18 20  2  0
 18 19  1  0
M  END
$$$$
