KGS.pdb
     RDKit          3D

 20 19  0  0  1  0  0  0  0  0999 V2000
   19.5475  -20.4740  -13.3396 N   0  0  0  0  0  0  0  0  0  0  0  0
   20.2162  -21.6623  -12.8694 C   0  0  1  0  0  0  0  0  0  0  0  0
   19.3159  -22.8904  -13.0351 C   0  0  0  0  0  0  0  0  0  0  0  0
   18.3343  -22.8502  -11.8865 C   0  0  0  0  0  0  0  0  0  0  0  0
   18.7809  -23.6939  -10.7283 C   0  0  0  0  0  0  0  0  0  0  0  0
   17.7008  -23.6230   -9.6663 C   0  0  0  0  0  0  0  0  0  0  0  0
   18.0614  -24.3212   -8.4696 N   0  0  0  0  0  0  0  0  0  0  0  0
   21.4612  -21.9495  -13.5961 C   0  0  0  0  0  0  0  0  0  0  0  0
   21.4192  -22.2739  -14.7932 O   0  0  0  0  0  0  0  0  0  0  0  0
   22.6931  -21.8539  -12.9263 N   0  0  0  0  0  0  0  0  0  0  0  0
   23.8761  -22.3965  -13.5429 C   0  0  0  0  0  0  0  0  0  0  0  0
   24.7038  -21.2784  -14.0368 C   0  0  0  0  0  0  0  0  0  0  0  0
   24.5433  -20.0840  -13.6991 O   0  0  0  0  0  0  0  0  0  0  0  0
   28.3420  -22.0037  -14.5389 O   0  0  0  0  0  0  0  0  0  0  0  0
   28.0283  -21.2063  -15.6192 C   0  0  0  0  0  0  0  0  0  0  0  0
   26.6964  -20.5278  -15.3648 C   0  0  2  0  0  0  0  0  0  0  0  0
   25.7565  -21.5532  -14.9558 N   0  0  0  0  0  0  0  0  0  0  0  0
   26.1651  -19.9091  -16.6059 C   0  0  0  0  0  0  0  0  0  0  0  0
   26.6935  -18.7223  -17.1287 O   0  0  0  0  0  0  0  0  0  0  0  0
   25.2139  -20.4182  -17.2515 O   0  0  0  0  0  0  0  0  0  0  0  0
  2  1  1  6
  3  2  1  0
  4  3  1  0
  5  4  1  0
  6  5  1  0
  7  6  1  0
  8  2  1  0
  9  8  2  0
 10  8  1  0
 11 10  1  0
 11 12  1  0
 12 17  1  0
 13 12  2  0
 15 14  1  0
 16 15  1  6
 16 18  1  0
 17 16  1  0
 18 20  2  0
 18 19  1  0
M  END
$$$$
