KGS.pdb
     RDKit          3D

 20 19  0  0  1  0  0  0  0  0999 V2000
   22.0991  -12.5207  -15.0269 N   0  0  0  0  0  0  0  0  0  0  0  0
   23.4825  -12.2714  -15.3493 C   0  0  1  0  0  0  0  0  0  0  0  0
   23.7248  -12.4338  -16.8531 C   0  0  0  0  0  0  0  0  0  0  0  0
   22.3688  -12.3240  -17.5117 C   0  0  0  0  0  0  0  0  0  0  0  0
   22.4538  -12.4270  -19.0067 C   0  0  0  0  0  0  0  0  0  0  0  0
   21.0414  -12.3475  -19.5526 C   0  0  0  0  0  0  0  0  0  0  0  0
   20.9964  -12.4708  -20.9782 N   0  0  0  0  0  0  0  0  0  0  0  0
   23.9223  -10.9145  -14.9942 C   0  0  0  0  0  0  0  0  0  0  0  0
   25.1171  -10.6002  -15.1103 O   0  0  0  0  0  0  0  0  0  0  0  0
   22.9821   -9.9813  -14.5246 N   0  0  0  0  0  0  0  0  0  0  0  0
   23.3696   -8.6023  -14.3756 C   0  0  0  0  0  0  0  0  0  0  0  0
   22.3291   -7.7528  -14.9879 C   0  0  0  0  0  0  0  0  0  0  0  0
   22.3041   -6.5042  -14.9047 O   0  0  0  0  0  0  0  0  0  0  0  0
   20.0741   -8.7701  -18.4039 O   0  0  0  0  0  0  0  0  0  0  0  0
   19.4154   -8.5425  -17.2141 C   0  0  0  0  0  0  0  0  0  0  0  0
   20.2378   -7.5925  -16.3657 C   0  0  2  0  0  0  0  0  0  0  0  0
   21.2785   -8.3716  -15.7237 N   0  0  0  0  0  0  0  0  0  0  0  0
   19.4131   -6.9839  -15.2910 C   0  0  0  0  0  0  0  0  0  0  0  0
   18.9418   -5.6676  -15.3722 O   0  0  0  0  0  0  0  0  0  0  0  0
   19.0952   -7.6181  -14.2530 O   0  0  0  0  0  0  0  0  0  0  0  0
  2  1  1  6
  3  2  1  0
  4  3  1  0
  5  4  1  0
  6  5  1  0
  7  6  1  0
  8  2  1  0
  9  8  2  0
 10  8  1  0
 11 10  1  0
 11 12  1  0
 12 17  1  0
 13 12  2  0
 15 14  1  0
 16 15  1  6
 16 18  1  0
 17 16  1  0
 18 20  2  0
 18 19  1  0
M  END
$$$$
