VVP.pdb
     RDKit          3D

 22 22  0  0  1  0  0  0  0  0999 V2000
   10.2600  -17.4723   21.6908 C   0  0  0  0  0  0  0  0  0  0  0  0
    8.8244  -17.1418   21.5176 C   0  0  2  0  0  0  0  0  0  0  0  0
    8.2811  -17.7999   20.2641 C   0  0  0  0  0  0  0  0  0  0  0  0
    8.5198  -15.6743   21.4496 C   0  0  2  0  0  0  0  0  0  0  0  0
    9.2366  -15.0843   20.3355 N   0  0  0  0  0  0  0  0  0  0  0  0
    8.8292  -14.9367   22.6730 C   0  0  0  0  0  0  0  0  0  0  0  0
    9.9251  -14.3627   22.7957 O   0  0  0  0  0  0  0  0  0  0  0  0
    6.7991  -13.3568   26.9971 C   0  0  0  0  0  0  0  0  0  0  0  0
    6.8525  -13.7211   25.5575 C   0  0  1  0  0  0  0  0  0  0  0  0
    6.4289  -12.5112   24.7515 C   0  0  0  0  0  0  0  0  0  0  0  0
    8.1820  -14.2472   25.0406 C   0  0  2  0  0  0  0  0  0  0  0  0
    7.9020  -14.8633   23.7240 N   0  0  0  0  0  0  0  0  0  0  0  0
    8.7931  -15.2259   25.9413 C   0  0  0  0  0  0  0  0  0  0  0  0
    8.7087  -16.4476   25.5509 O   0  0  0  0  0  0  0  0  0  0  0  0
    9.4577  -15.0249   27.1585 N   0  0  0  0  0  0  0  0  0  0  0  0
    9.1415  -13.9808   28.1629 C   0  0  0  0  0  0  0  0  0  0  0  0
   10.4133  -13.6067   28.8309 C   0  0  0  0  0  0  0  0  0  0  0  0
   11.4277  -14.5894   28.3042 C   0  0  0  0  0  0  0  0  0  0  0  0
   10.5808  -15.7137   27.7488 C   0  0  1  0  0  0  0  0  0  0  0  0
   10.1019  -16.4829   28.9643 C   0  0  0  0  0  0  0  0  0  0  0  0
   10.9351  -17.1576   29.6201 O   0  0  0  0  0  0  0  0  0  0  0  0
    8.7820  -16.4342   29.3286 O   0  0  0  0  0  0  0  0  0  0  0  0
  2  1  1  6
  2  3  1  0
  4  6  1  0
  4  2  1  0
  4  5  1  6
  6 12  1  0
  6  7  2  0
  9  8  1  1
  9 11  1  0
 10  9  1  0
 11 13  1  0
 11 12  1  6
 13 14  2  0
 13 15  1  0
 15 19  1  0
 15 16  1  0
 16 17  1  0
 18 17  1  0
 19 18  1  0
 19 20  1  1
 21 20  2  0
 22 20  1  0
M  END
$$$$
