VVP.pdb
     RDKit          3D

 22 22  0  0  1  0  0  0  0  0999 V2000
   11.5598  -20.1537   24.6642 C   0  0  0  0  0  0  0  0  0  0  0  0
   11.1405  -18.7331   24.7432 C   0  0  2  0  0  0  0  0  0  0  0  0
    9.9317  -18.5915   25.6478 C   0  0  0  0  0  0  0  0  0  0  0  0
   10.8185  -18.0973   23.4229 C   0  0  2  0  0  0  0  0  0  0  0  0
   11.9544  -18.2345   22.5319 N   0  0  0  0  0  0  0  0  0  0  0  0
   10.4344  -16.6897   23.5090 C   0  0  0  0  0  0  0  0  0  0  0  0
   11.2421  -15.8472   23.9372 O   0  0  0  0  0  0  0  0  0  0  0  0
    7.1322  -13.2978   21.9385 C   0  0  0  0  0  0  0  0  0  0  0  0
    7.8793  -14.5817   21.9727 C   0  0  1  0  0  0  0  0  0  0  0  0
    8.8068  -14.6168   20.7762 C   0  0  0  0  0  0  0  0  0  0  0  0
    8.6619  -14.8767   23.2424 C   0  0  2  0  0  0  0  0  0  0  0  0
    9.1564  -16.2660   23.1129 N   0  0  0  0  0  0  0  0  0  0  0  0
    7.8518  -14.7351   24.4533 C   0  0  0  0  0  0  0  0  0  0  0  0
    7.2558  -15.8082   24.8345 O   0  0  0  0  0  0  0  0  0  0  0  0
    7.6369  -13.6066   25.2559 N   0  0  0  0  0  0  0  0  0  0  0  0
    7.9865  -12.2085   24.9067 C   0  0  0  0  0  0  0  0  0  0  0  0
    8.3253  -11.5061   26.1698 C   0  0  0  0  0  0  0  0  0  0  0  0
    7.9885  -12.4913   27.2597 C   0  0  0  0  0  0  0  0  0  0  0  0
    7.0677  -13.4789   26.5765 C   0  0  1  0  0  0  0  0  0  0  0  0
    5.7345  -12.7650   26.4700 C   0  0  0  0  0  0  0  0  0  0  0  0
    5.4398  -12.1918   25.3910 O   0  0  0  0  0  0  0  0  0  0  0  0
    4.8775  -12.7528   27.5389 O   0  0  0  0  0  0  0  0  0  0  0  0
  2  1  1  6
  2  3  1  0
  4  6  1  0
  4  2  1  0
  4  5  1  6
  6 12  1  0
  6  7  2  0
  9  8  1  1
  9 11  1  0
 10  9  1  0
 11 13  1  0
 11 12  1  6
 13 14  2  0
 13 15  1  0
 15 19  1  0
 15 16  1  0
 16 17  1  0
 18 17  1  0
 19 18  1  0
 19 20  1  6
 21 20  2  0
 22 20  1  0
M  END
$$$$
