VVP.pdb
     RDKit          3D

 22 22  0  0  1  0  0  0  0  0999 V2000
    8.4381  -19.4392   25.0282 C   0  0  0  0  0  0  0  0  0  0  0  0
    8.3018  -18.9340   26.4161 C   0  0  2  0  0  0  0  0  0  0  0  0
    8.6040  -20.0390   27.4096 C   0  0  0  0  0  0  0  0  0  0  0  0
    6.9568  -18.3573   26.7470 C   0  0  2  0  0  0  0  0  0  0  0  0
    5.9444  -19.3869   26.6125 N   0  0  0  0  0  0  0  0  0  0  0  0
    6.5824  -17.1979   25.9395 C   0  0  0  0  0  0  0  0  0  0  0  0
    5.8590  -17.3415   24.9387 O   0  0  0  0  0  0  0  0  0  0  0  0
    7.6547  -12.2836   25.4241 C   0  0  0  0  0  0  0  0  0  0  0  0
    7.3591  -13.5343   26.1699 C   0  0  1  0  0  0  0  0  0  0  0  0
    6.1953  -13.2621   27.0997 C   0  0  0  0  0  0  0  0  0  0  0  0
    7.0738  -14.7710   25.3327 C   0  0  2  0  0  0  0  0  0  0  0  0
    7.0291  -15.9108   26.2762 N   0  0  0  0  0  0  0  0  0  0  0  0
    8.0860  -15.0030   24.3011 C   0  0  0  0  0  0  0  0  0  0  0  0
    9.0523  -15.7736   24.6543 O   0  0  0  0  0  0  0  0  0  0  0  0
    8.1517  -14.5136   22.9896 N   0  0  0  0  0  0  0  0  0  0  0  0
    7.4650  -13.3044   22.4745 C   0  0  0  0  0  0  0  0  0  0  0  0
    7.1464  -13.5490   21.0454 C   0  0  0  0  0  0  0  0  0  0  0  0
    7.8259  -14.8540   20.7179 C   0  0  0  0  0  0  0  0  0  0  0  0
    8.8439  -15.0146   21.8259 C   0  0  1  0  0  0  0  0  0  0  0  0
    9.9653  -14.0579   21.4715 C   0  0  0  0  0  0  0  0  0  0  0  0
   10.0237  -12.9493   22.0608 O   0  0  0  0  0  0  0  0  0  0  0  0
   10.8903  -14.4089   20.5238 O   0  0  0  0  0  0  0  0  0  0  0  0
  2  1  1  6
  2  3  1  0
  4  6  1  0
  4  2  1  0
  4  5  1  6
  6 12  1  0
  6  7  2  0
  9  8  1  6
  9 11  1  0
 10  9  1  0
 11 13  1  0
 11 12  1  1
 13 14  2  0
 13 15  1  0
 15 19  1  0
 15 16  1  0
 16 17  1  0
 18 17  1  0
 19 18  1  0
 19 20  1  6
 21 20  2  0
 22 20  1  0
M  END
$$$$
