VVP.pdb
     RDKit          3D

 22 22  0  0  1  0  0  0  0  0999 V2000
    8.6862  -17.9269   20.2323 C   0  0  0  0  0  0  0  0  0  0  0  0
    9.0917  -17.1724   21.4433 C   0  0  2  0  0  0  0  0  0  0  0  0
    8.5799  -17.8663   22.6907 C   0  0  0  0  0  0  0  0  0  0  0  0
    8.6346  -15.7437   21.4774 C   0  0  2  0  0  0  0  0  0  0  0  0
    9.1550  -15.0432   20.3191 N   0  0  0  0  0  0  0  0  0  0  0  0
    9.0068  -15.0203   22.6917 C   0  0  0  0  0  0  0  0  0  0  0  0
   10.1837  -14.6609   22.8684 O   0  0  0  0  0  0  0  0  0  0  0  0
    5.9082  -14.2360   25.6805 C   0  0  0  0  0  0  0  0  0  0  0  0
    7.1054  -13.3905   25.4364 C   0  0  1  0  0  0  0  0  0  0  0  0
    7.3873  -12.6012   26.6976 C   0  0  0  0  0  0  0  0  0  0  0  0
    8.3650  -14.1133   24.9864 C   0  0  2  0  0  0  0  0  0  0  0  0
    8.0498  -14.7201   23.6734 N   0  0  0  0  0  0  0  0  0  0  0  0
    8.7966  -15.1430   25.9330 C   0  0  0  0  0  0  0  0  0  0  0  0
    8.5142  -16.3484   25.5876 O   0  0  0  0  0  0  0  0  0  0  0  0
    9.4738  -15.0065   27.1522 N   0  0  0  0  0  0  0  0  0  0  0  0
    9.2429  -13.9476   28.1644 C   0  0  0  0  0  0  0  0  0  0  0  0
   10.5402  -13.6842   28.8362 C   0  0  0  0  0  0  0  0  0  0  0  0
   11.4713  -14.7427   28.3026 C   0  0  0  0  0  0  0  0  0  0  0  0
   10.5359  -15.7896   27.7379 C   0  0  1  0  0  0  0  0  0  0  0  0
    9.9938  -16.5261   28.9471 C   0  0  0  0  0  0  0  0  0  0  0  0
    8.8187  -16.2879   29.3239 O   0  0  0  0  0  0  0  0  0  0  0  0
   10.7825  -17.4313   29.6073 O   0  0  0  0  0  0  0  0  0  0  0  0
  2  1  1  6
  2  3  1  0
  4  6  1  0
  4  2  1  0
  4  5  1  6
  6 12  1  0
  6  7  2  0
  9  8  1  1
  9 11  1  0
 10  9  1  0
 11 13  1  0
 11 12  1  6
 13 14  2  0
 13 15  1  0
 15 19  1  0
 15 16  1  0
 16 17  1  0
 18 17  1  0
 19 18  1  0
 19 20  1  1
 21 20  2  0
 22 20  1  0
M  END
$$$$
