VVP.pdb
     RDKit          3D

 22 22  0  0  1  0  0  0  0  0999 V2000
    8.3729  -17.8180   20.1532 C   0  0  0  0  0  0  0  0  0  0  0  0
    8.8438  -17.0551   21.3349 C   0  0  2  0  0  0  0  0  0  0  0  0
    8.6289  -17.8617   22.6009 C   0  0  0  0  0  0  0  0  0  0  0  0
    8.1985  -15.7128   21.5158 C   0  0  2  0  0  0  0  0  0  0  0  0
    8.3672  -14.9298   20.3069 N   0  0  0  0  0  0  0  0  0  0  0  0
    8.6968  -14.9535   22.6611 C   0  0  0  0  0  0  0  0  0  0  0  0
    9.8315  -14.4466   22.6282 O   0  0  0  0  0  0  0  0  0  0  0  0
    6.6425  -12.3301   24.8657 C   0  0  0  0  0  0  0  0  0  0  0  0
    7.2119  -13.4391   25.6742 C   0  0  1  0  0  0  0  0  0  0  0  0
    6.0965  -14.4160   25.9819 C   0  0  0  0  0  0  0  0  0  0  0  0
    8.3955  -14.1788   25.0713 C   0  0  2  0  0  0  0  0  0  0  0  0
    7.9096  -14.7837   23.8105 N   0  0  0  0  0  0  0  0  0  0  0  0
    8.9301  -15.2124   25.9593 C   0  0  0  0  0  0  0  0  0  0  0  0
    8.7999  -16.4164   25.5286 O   0  0  0  0  0  0  0  0  0  0  0  0
    9.5644  -15.0802   27.2018 N   0  0  0  0  0  0  0  0  0  0  0  0
    9.2296  -14.0868   28.2507 C   0  0  0  0  0  0  0  0  0  0  0  0
   10.4863  -13.7584   28.9694 C   0  0  0  0  0  0  0  0  0  0  0  0
   11.5071  -14.7208   28.4183 C   0  0  0  0  0  0  0  0  0  0  0  0
   10.6671  -15.8079   27.7838 C   0  0  1  0  0  0  0  0  0  0  0  0
   10.1516  -16.6349   28.9452 C   0  0  0  0  0  0  0  0  0  0  0  0
   10.9639  -17.3453   29.5896 O   0  0  0  0  0  0  0  0  0  0  0  0
    8.8221  -16.5990   29.2739 O   0  0  0  0  0  0  0  0  0  0  0  0
  2  1  1  6
  2  3  1  0
  4  6  1  0
  4  2  1  0
  4  5  1  6
  6 12  1  0
  6  7  2  0
  9  8  1  6
  9 11  1  0
 10  9  1  0
 11 13  1  0
 11 12  1  6
 13 14  2  0
 13 15  1  0
 15 19  1  0
 15 16  1  0
 16 17  1  0
 18 17  1  0
 19 18  1  0
 19 20  1  1
 21 20  2  0
 22 20  1  0
M  END
$$$$
