VVP.pdb
     RDKit          3D

 22 22  0  0  1  0  0  0  0  0999 V2000
    8.5789  -17.3165   19.7503 C   0  0  0  0  0  0  0  0  0  0  0  0
    9.0259  -16.5844   20.9604 C   0  0  2  0  0  0  0  0  0  0  0  0
    9.1384  -17.5340   22.1374 C   0  0  0  0  0  0  0  0  0  0  0  0
    8.1468  -15.4370   21.3627 C   0  0  2  0  0  0  0  0  0  0  0  0
    8.0067  -14.5224   20.2460 N   0  0  0  0  0  0  0  0  0  0  0  0
    8.6131  -14.7031   22.5376 C   0  0  0  0  0  0  0  0  0  0  0  0
    9.6352  -13.9988   22.4687 O   0  0  0  0  0  0  0  0  0  0  0  0
    6.4909  -12.4669   24.9872 C   0  0  0  0  0  0  0  0  0  0  0  0
    7.1655  -13.5842   25.6976 C   0  0  1  0  0  0  0  0  0  0  0  0
    6.1403  -14.6713   25.9425 C   0  0  0  0  0  0  0  0  0  0  0  0
    8.3932  -14.1738   25.0218 C   0  0  2  0  0  0  0  0  0  0  0  0
    7.9209  -14.7791   23.7561 N   0  0  0  0  0  0  0  0  0  0  0  0
    9.0668  -15.1781   25.8465 C   0  0  0  0  0  0  0  0  0  0  0  0
    9.1943  -16.3330   25.2968 O   0  0  0  0  0  0  0  0  0  0  0  0
    9.5945  -15.0626   27.1395 N   0  0  0  0  0  0  0  0  0  0  0  0
    9.1155  -14.1409   28.1979 C   0  0  0  0  0  0  0  0  0  0  0  0
   10.2893  -13.7667   29.0262 C   0  0  0  0  0  0  0  0  0  0  0  0
   11.4107  -14.6368   28.5190 C   0  0  0  0  0  0  0  0  0  0  0  0
   10.6955  -15.7449   27.7770 C   0  0  1  0  0  0  0  0  0  0  0  0
   10.1492  -16.6546   28.8598 C   0  0  0  0  0  0  0  0  0  0  0  0
    8.9205  -16.6140   29.1210 O   0  0  0  0  0  0  0  0  0  0  0  0
   10.9917  -17.4996   29.5331 O   0  0  0  0  0  0  0  0  0  0  0  0
  2  1  1  6
  2  3  1  0
  4  6  1  0
  4  2  1  0
  4  5  1  6
  6 12  1  0
  6  7  2  0
  9  8  1  6
  9 11  1  0
 10  9  1  0
 11 13  1  0
 11 12  1  6
 13 14  2  0
 13 15  1  0
 15 19  1  0
 15 16  1  0
 16 17  1  0
 18 17  1  0
 19 18  1  0
 19 20  1  1
 21 20  2  0
 22 20  1  0
M  END
$$$$
