VVP.pdb
     RDKit          3D

 22 22  0  0  1  0  0  0  0  0999 V2000
    8.9452  -19.0530   25.8689 C   0  0  0  0  0  0  0  0  0  0  0  0
    8.5558  -18.3014   27.0869 C   0  0  2  0  0  0  0  0  0  0  0  0
    8.8845  -19.1069   28.3290 C   0  0  0  0  0  0  0  0  0  0  0  0
    7.1091  -17.9086   27.1488 C   0  0  2  0  0  0  0  0  0  0  0  0
    6.2831  -19.0987   27.0819 N   0  0  0  0  0  0  0  0  0  0  0  0
    6.6942  -16.9689   26.1089 C   0  0  0  0  0  0  0  0  0  0  0  0
    6.0714  -17.3753   25.1126 O   0  0  0  0  0  0  0  0  0  0  0  0
    5.9063  -12.8914   26.6405 C   0  0  0  0  0  0  0  0  0  0  0  0
    6.9961  -13.2554   25.6983 C   0  0  1  0  0  0  0  0  0  0  0  0
    8.3169  -13.0749   26.4165 C   0  0  0  0  0  0  0  0  0  0  0  0
    6.9262  -14.6453   25.0859 C   0  0  2  0  0  0  0  0  0  0  0  0
    6.9890  -15.6009   26.2147 N   0  0  0  0  0  0  0  0  0  0  0  0
    8.0126  -14.9029   24.1393 C   0  0  0  0  0  0  0  0  0  0  0  0
    8.9490  -15.6630   24.5837 O   0  0  0  0  0  0  0  0  0  0  0  0
    8.1766  -14.4477   22.8242 N   0  0  0  0  0  0  0  0  0  0  0  0
    7.5474  -13.2416   22.2337 C   0  0  0  0  0  0  0  0  0  0  0  0
    7.3239  -13.5173   20.7923 C   0  0  0  0  0  0  0  0  0  0  0  0
    8.0023  -14.8402   20.5442 C   0  0  0  0  0  0  0  0  0  0  0  0
    8.9387  -14.9882   21.7236 C   0  0  1  0  0  0  0  0  0  0  0  0
   10.0979  -14.0577   21.4247 C   0  0  0  0  0  0  0  0  0  0  0  0
   10.1356  -12.9369   21.9921 O   0  0  0  0  0  0  0  0  0  0  0  0
   11.0782  -14.4451   20.5496 O   0  0  0  0  0  0  0  0  0  0  0  0
  2  1  1  6
  2  3  1  0
  4  6  1  0
  4  2  1  0
  4  5  1  6
  6 12  1  0
  6  7  2  0
  9  8  1  1
  9 11  1  0
 10  9  1  0
 11 13  1  0
 11 12  1  1
 13 14  2  0
 13 15  1  0
 15 19  1  0
 15 16  1  0
 16 17  1  0
 18 17  1  0
 19 18  1  0
 19 20  1  6
 21 20  2  0
 22 20  1  0
M  END
$$$$
