VVP.pdb
     RDKit          3D

 22 22  0  0  1  0  0  0  0  0999 V2000
    8.4834  -19.4184   25.6224 C   0  0  0  0  0  0  0  0  0  0  0  0
    8.0533  -18.8468   26.9218 C   0  0  2  0  0  0  0  0  0  0  0  0
    8.1820  -19.8840   28.0206 C   0  0  0  0  0  0  0  0  0  0  0  0
    6.6519  -18.3110   26.9410 C   0  0  2  0  0  0  0  0  0  0  0  0
    5.7241  -19.3759   26.6119 N   0  0  0  0  0  0  0  0  0  0  0  0
    6.4277  -17.1763   26.0472 C   0  0  0  0  0  0  0  0  0  0  0  0
    5.8286  -17.3389   24.9701 O   0  0  0  0  0  0  0  0  0  0  0  0
    7.8119  -12.3483   25.5223 C   0  0  0  0  0  0  0  0  0  0  0  0
    7.2617  -13.5250   26.2438 C   0  0  1  0  0  0  0  0  0  0  0  0
    5.9652  -13.1060   26.9045 C   0  0  0  0  0  0  0  0  0  0  0  0
    7.0388  -14.7824   25.4186 C   0  0  2  0  0  0  0  0  0  0  0  0
    6.8811  -15.8920   26.3856 N   0  0  0  0  0  0  0  0  0  0  0  0
    8.1437  -15.0605   24.4997 C   0  0  0  0  0  0  0  0  0  0  0  0
    9.1072  -15.7462   25.0034 O   0  0  0  0  0  0  0  0  0  0  0  0
    8.3005  -14.6942   23.1562 N   0  0  0  0  0  0  0  0  0  0  0  0
    7.6647  -13.5323   22.4891 C   0  0  0  0  0  0  0  0  0  0  0  0
    7.4357  -13.9047   21.0704 C   0  0  0  0  0  0  0  0  0  0  0  0
    8.1174  -15.2393   20.9085 C   0  0  0  0  0  0  0  0  0  0  0  0
    9.0595  -15.3051   22.0909 C   0  0  1  0  0  0  0  0  0  0  0  0
   10.2142  -14.3934   21.7249 C   0  0  0  0  0  0  0  0  0  0  0  0
   10.2402  -13.2298   22.1995 O   0  0  0  0  0  0  0  0  0  0  0  0
   11.2035  -14.8433   20.8907 O   0  0  0  0  0  0  0  0  0  0  0  0
  2  1  1  6
  2  3  1  0
  4  6  1  0
  4  2  1  0
  4  5  1  6
  6 12  1  0
  6  7  2  0
  9  8  1  6
  9 11  1  0
 10  9  1  0
 11 13  1  0
 11 12  1  1
 13 14  2  0
 13 15  1  0
 15 19  1  0
 15 16  1  0
 16 17  1  0
 18 17  1  0
 19 18  1  0
 19 20  1  6
 21 20  2  0
 22 20  1  0
M  END
$$$$
