VVP.pdb
     RDKit          3D

 22 22  0  0  1  0  0  0  0  0999 V2000
   11.8887  -19.6971   21.8360 C   0  0  0  0  0  0  0  0  0  0  0  0
   11.4279  -18.4579   22.5084 C   0  0  2  0  0  0  0  0  0  0  0  0
   10.2840  -18.7676   23.4545 C   0  0  0  0  0  0  0  0  0  0  0  0
   10.9891  -17.3638   21.5803 C   0  0  2  0  0  0  0  0  0  0  0  0
   12.0601  -17.0620   20.6503 N   0  0  0  0  0  0  0  0  0  0  0  0
   10.5672  -16.1361   22.2520 C   0  0  0  0  0  0  0  0  0  0  0  0
   11.3732  -15.4986   22.9517 O   0  0  0  0  0  0  0  0  0  0  0  0
    8.0337  -13.3896   20.6302 C   0  0  0  0  0  0  0  0  0  0  0  0
    7.6201  -13.9050   21.9610 C   0  0  1  0  0  0  0  0  0  0  0  0
    6.5402  -14.9446   21.7465 C   0  0  0  0  0  0  0  0  0  0  0  0
    8.7220  -14.4774   22.8384 C   0  0  2  0  0  0  0  0  0  0  0  0
    9.2544  -15.6575   22.1206 N   0  0  0  0  0  0  0  0  0  0  0  0
    8.2458  -14.8618   24.1680 C   0  0  0  0  0  0  0  0  0  0  0  0
    8.2808  -16.1234   24.4117 O   0  0  0  0  0  0  0  0  0  0  0  0
    7.7645  -14.0580   25.2101 N   0  0  0  0  0  0  0  0  0  0  0  0
    7.2251  -12.6835   25.0737 C   0  0  0  0  0  0  0  0  0  0  0  0
    7.5513  -11.9517   26.3234 C   0  0  0  0  0  0  0  0  0  0  0  0
    8.1327  -12.9972   27.2404 C   0  0  0  0  0  0  0  0  0  0  0  0
    7.6730  -14.3033   26.6299 C   0  0  1  0  0  0  0  0  0  0  0  0
    6.2116  -14.4245   27.0144 C   0  0  0  0  0  0  0  0  0  0  0  0
    5.3362  -14.0767   26.1823 O   0  0  0  0  0  0  0  0  0  0  0  0
    5.8667  -14.9054   28.2501 O   0  0  0  0  0  0  0  0  0  0  0  0
  2  1  1  6
  2  3  1  0
  4  6  1  0
  4  2  1  0
  4  5  1  6
  6 12  1  0
  6  7  2  0
  9  8  1  6
  9 11  1  0
 10  9  1  0
 11 13  1  0
 11 12  1  6
 13 14  2  0
 13 15  1  0
 15 19  1  0
 15 16  1  0
 16 17  1  0
 18 17  1  0
 19 18  1  0
 19 20  1  6
 21 20  2  0
 22 20  1  0
M  END
$$$$
