VVP.pdb
     RDKit          3D

 22 22  0  0  1  0  0  0  0  0999 V2000
    8.7056  -20.2959   26.3183 C   0  0  0  0  0  0  0  0  0  0  0  0
    8.0311  -19.2726   25.4829 C   0  0  2  0  0  0  0  0  0  0  0  0
    9.0492  -18.5243   24.6444 C   0  0  0  0  0  0  0  0  0  0  0  0
    7.2215  -18.2682   26.2489 C   0  0  2  0  0  0  0  0  0  0  0  0
    6.0839  -18.9297   26.8583 N   0  0  0  0  0  0  0  0  0  0  0  0
    6.7561  -17.1346   25.4520 C   0  0  0  0  0  0  0  0  0  0  0  0
    5.8011  -17.2727   24.6681 O   0  0  0  0  0  0  0  0  0  0  0  0
    6.2948  -13.2660   26.4914 C   0  0  0  0  0  0  0  0  0  0  0  0
    7.2970  -13.4825   25.4158 C   0  0  1  0  0  0  0  0  0  0  0  0
    8.6756  -13.4136   26.0385 C   0  0  0  0  0  0  0  0  0  0  0  0
    7.1578  -14.7628   24.6078 C   0  0  2  0  0  0  0  0  0  0  0  0
    7.3738  -15.8788   25.5561 N   0  0  0  0  0  0  0  0  0  0  0  0
    8.1135  -14.8418   23.5019 C   0  0  0  0  0  0  0  0  0  0  0  0
    9.0577  -15.6991   23.6626 O   0  0  0  0  0  0  0  0  0  0  0  0
    8.1456  -14.1260   22.2976 N   0  0  0  0  0  0  0  0  0  0  0  0
    7.5781  -12.7749   22.0707 C   0  0  0  0  0  0  0  0  0  0  0  0
    7.1310  -12.7123   20.6565 C   0  0  0  0  0  0  0  0  0  0  0  0
    7.6198  -13.9987   20.0415 C   0  0  0  0  0  0  0  0  0  0  0  0
    8.6864  -14.4724   21.0047 C   0  0  1  0  0  0  0  0  0  0  0  0
    9.8890  -13.5932   20.7234 C   0  0  0  0  0  0  0  0  0  0  0  0
   10.1034  -12.6048   21.4696 O   0  0  0  0  0  0  0  0  0  0  0  0
   10.7173  -13.8828   19.6712 O   0  0  0  0  0  0  0  0  0  0  0  0
  2  1  1  1
  2  3  1  0
  4  6  1  0
  4  2  1  0
  4  5  1  6
  6 12  1  0
  6  7  2  0
  9  8  1  1
  9 11  1  0
 10  9  1  0
 11 13  1  0
 11 12  1  1
 13 14  2  0
 13 15  1  0
 15 19  1  0
 15 16  1  0
 16 17  1  0
 18 17  1  0
 19 18  1  0
 19 20  1  6
 21 20  2  0
 22 20  1  0
M  END
$$$$
