VVP.pdb
     RDKit          3D

 22 22  0  0  1  0  0  0  0  0999 V2000
    9.5239  -17.1186   21.5480 C   0  0  0  0  0  0  0  0  0  0  0  0
    8.1343  -16.6071   21.4606 C   0  0  2  0  0  0  0  0  0  0  0  0
    7.4763  -17.0891   20.1822 C   0  0  0  0  0  0  0  0  0  0  0  0
    8.0082  -15.1133   21.5216 C   0  0  2  0  0  0  0  0  0  0  0  0
    8.7539  -14.5215   20.4277 N   0  0  0  0  0  0  0  0  0  0  0  0
    8.4453  -14.5222   22.7849 C   0  0  0  0  0  0  0  0  0  0  0  0
    9.6073  -14.0972   22.9063 O   0  0  0  0  0  0  0  0  0  0  0  0
    6.7623  -13.1730   27.3377 C   0  0  0  0  0  0  0  0  0  0  0  0
    6.7109  -13.3946   25.8694 C   0  0  1  0  0  0  0  0  0  0  0  0
    6.3427  -12.0823   25.2096 C   0  0  0  0  0  0  0  0  0  0  0  0
    7.9655  -13.9630   25.2256 C   0  0  2  0  0  0  0  0  0  0  0  0
    7.5683  -14.4240   23.8761 N   0  0  0  0  0  0  0  0  0  0  0  0
    8.5448  -15.0678   25.9913 C   0  0  0  0  0  0  0  0  0  0  0  0
    8.2913  -16.2395   25.5275 O   0  0  0  0  0  0  0  0  0  0  0  0
    9.3357  -15.0336   27.1476 N   0  0  0  0  0  0  0  0  0  0  0  0
    9.2293  -14.0455   28.2483 C   0  0  0  0  0  0  0  0  0  0  0  0
   10.5902  -13.8587   28.8112 C   0  0  0  0  0  0  0  0  0  0  0  0
   11.4379  -14.8957   28.1197 C   0  0  0  0  0  0  0  0  0  0  0  0
   10.4253  -15.8791   27.5745 C   0  0  1  0  0  0  0  0  0  0  0  0
    9.9774  -16.6889   28.7754 C   0  0  0  0  0  0  0  0  0  0  0  0
    8.8420  -16.4659   29.2661 O   0  0  0  0  0  0  0  0  0  0  0  0
   10.8063  -17.6424   29.3055 O   0  0  0  0  0  0  0  0  0  0  0  0
  2  1  1  6
  2  3  1  0
  4  6  1  0
  4  2  1  0
  4  5  1  6
  6 12  1  0
  6  7  2  0
  9  8  1  1
  9 11  1  0
 10  9  1  0
 11 13  1  0
 11 12  1  6
 13 14  2  0
 13 15  1  0
 15 19  1  0
 15 16  1  0
 16 17  1  0
 18 17  1  0
 19 18  1  0
 19 20  1  1
 21 20  2  0
 22 20  1  0
M  END
$$$$
