VVP.pdb
     RDKit          3D

 22 22  0  0  1  0  0  0  0  0999 V2000
   12.4214  -21.0703   28.1322 C   0  0  0  0  0  0  0  0  0  0  0  0
   11.2950  -20.2154   27.6845 C   0  0  2  0  0  0  0  0  0  0  0  0
   11.5639  -19.6784   26.2921 C   0  0  0  0  0  0  0  0  0  0  0  0
   10.9876  -19.0560   28.5858 C   0  0  2  0  0  0  0  0  0  0  0  0
   10.6490  -19.5488   29.9069 N   0  0  0  0  0  0  0  0  0  0  0  0
    9.9190  -18.1834   28.1029 C   0  0  0  0  0  0  0  0  0  0  0  0
    8.7485  -18.5990   28.0523 O   0  0  0  0  0  0  0  0  0  0  0  0
    9.2733  -14.2570   28.7735 C   0  0  0  0  0  0  0  0  0  0  0  0
    9.5249  -14.5887   27.3471 C   0  0  1  0  0  0  0  0  0  0  0  0
   10.9595  -14.2251   27.0269 C   0  0  0  0  0  0  0  0  0  0  0  0
    9.2487  -16.0233   26.9262 C   0  0  2  0  0  0  0  0  0  0  0  0
   10.1923  -16.8701   27.6904 N   0  0  0  0  0  0  0  0  0  0  0  0
    9.4231  -16.2358   25.4885 C   0  0  0  0  0  0  0  0  0  0  0  0
   10.3199  -17.1013   25.1740 O   0  0  0  0  0  0  0  0  0  0  0  0
    8.7545  -15.6395   24.4109 N   0  0  0  0  0  0  0  0  0  0  0  0
    7.9669  -14.3841   24.4601 C   0  0  0  0  0  0  0  0  0  0  0  0
    6.8746  -14.5051   23.4621 C   0  0  0  0  0  0  0  0  0  0  0  0
    7.1689  -15.7857   22.7236 C   0  0  0  0  0  0  0  0  0  0  0  0
    8.6265  -16.0494   23.0326 C   0  0  1  0  0  0  0  0  0  0  0  0
    9.3959  -15.0791   22.1579 C   0  0  0  0  0  0  0  0  0  0  0  0
    9.4234  -15.2746   20.9167 O   0  0  0  0  0  0  0  0  0  0  0  0
   10.0448  -14.0137   22.7245 O   0  0  0  0  0  0  0  0  0  0  0  0
  2  1  1  1
  2  3  1  0
  4  6  1  0
  4  2  1  0
  4  5  1  1
  6 12  1  0
  6  7  2  0
  9  8  1  1
  9 11  1  0
 10  9  1  0
 11 13  1  0
 11 12  1  1
 13 14  2  0
 13 15  1  0
 15 19  1  0
 15 16  1  0
 16 17  1  0
 18 17  1  0
 19 18  1  0
 19 20  1  6
 21 20  2  0
 22 20  1  0
M  END
$$$$
