VVP.pdb
     RDKit          3D

 22 22  0  0  1  0  0  0  0  0999 V2000
    9.0884  -17.9260   20.2868 C   0  0  0  0  0  0  0  0  0  0  0  0
    9.3742  -17.1708   21.5310 C   0  0  2  0  0  0  0  0  0  0  0  0
    8.8779  -17.9413   22.7392 C   0  0  0  0  0  0  0  0  0  0  0  0
    8.7879  -15.7906   21.5786 C   0  0  2  0  0  0  0  0  0  0  0  0
    9.2974  -15.0117   20.4666 N   0  0  0  0  0  0  0  0  0  0  0  0
    9.0337  -15.0736   22.8284 C   0  0  0  0  0  0  0  0  0  0  0  0
   10.1681  -14.6329   23.0826 O   0  0  0  0  0  0  0  0  0  0  0  0
    6.7028  -13.3821   26.9677 C   0  0  0  0  0  0  0  0  0  0  0  0
    6.8557  -13.7248   25.5300 C   0  0  1  0  0  0  0  0  0  0  0  0
    6.5508  -12.4842   24.7171 C   0  0  0  0  0  0  0  0  0  0  0  0
    8.1983  -14.3014   25.1100 C   0  0  2  0  0  0  0  0  0  0  0  0
    8.0018  -14.8708   23.7577 N   0  0  0  0  0  0  0  0  0  0  0  0
    8.6863  -15.3300   26.0299 C   0  0  0  0  0  0  0  0  0  0  0  0
    8.3839  -16.5359   25.7034 O   0  0  0  0  0  0  0  0  0  0  0  0
    9.4357  -15.1922   27.2060 N   0  0  0  0  0  0  0  0  0  0  0  0
    9.3038  -14.1009   28.2014 C   0  0  0  0  0  0  0  0  0  0  0  0
   10.6461  -13.8747   28.7936 C   0  0  0  0  0  0  0  0  0  0  0  0
   11.5033  -14.9828   28.2374 C   0  0  0  0  0  0  0  0  0  0  0  0
   10.4971  -16.0038   27.7526 C   0  0  1  0  0  0  0  0  0  0  0  0
    9.9951  -16.6885   29.0087 C   0  0  0  0  0  0  0  0  0  0  0  0
    8.8436  -16.4117   29.4295 O   0  0  0  0  0  0  0  0  0  0  0  0
   10.7936  -17.5895   29.6627 O   0  0  0  0  0  0  0  0  0  0  0  0
  2  1  1  6
  2  3  1  0
  4  6  1  0
  4  2  1  0
  4  5  1  6
  6 12  1  0
  6  7  2  0
  9  8  1  1
  9 11  1  0
 10  9  1  0
 11 13  1  0
 11 12  1  6
 13 14  2  0
 13 15  1  0
 15 19  1  0
 15 16  1  0
 16 17  1  0
 18 17  1  0
 19 18  1  0
 19 20  1  1
 21 20  2  0
 22 20  1  0
M  END
$$$$
