VVP.pdb
     RDKit          3D

 22 22  0  0  1  0  0  0  0  0999 V2000
    7.3836  -17.2951   22.3921 C   0  0  0  0  0  0  0  0  0  0  0  0
    7.9464  -16.4022   21.3500 C   0  0  2  0  0  0  0  0  0  0  0  0
    9.4584  -16.5151   21.3219 C   0  0  0  0  0  0  0  0  0  0  0  0
    7.5845  -14.9538   21.4995 C   0  0  2  0  0  0  0  0  0  0  0  0
    7.9841  -14.2315   20.3072 N   0  0  0  0  0  0  0  0  0  0  0  0
    8.1603  -14.3066   22.6768 C   0  0  0  0  0  0  0  0  0  0  0  0
    9.3033  -13.8201   22.6254 O   0  0  0  0  0  0  0  0  0  0  0  0
    6.3001  -11.8834   25.3587 C   0  0  0  0  0  0  0  0  0  0  0  0
    6.8745  -13.1252   25.9381 C   0  0  1  0  0  0  0  0  0  0  0  0
    5.7489  -14.1212   26.1222 C   0  0  0  0  0  0  0  0  0  0  0  0
    8.0140  -13.7697   25.1647 C   0  0  2  0  0  0  0  0  0  0  0  0
    7.4394  -14.2228   23.8779 N   0  0  0  0  0  0  0  0  0  0  0  0
    8.6172  -14.8965   25.8782 C   0  0  0  0  0  0  0  0  0  0  0  0
    8.4896  -16.0359   25.2972 O   0  0  0  0  0  0  0  0  0  0  0  0
    9.3143  -14.9125   27.0937 N   0  0  0  0  0  0  0  0  0  0  0  0
    9.0838  -14.0048   28.2435 C   0  0  0  0  0  0  0  0  0  0  0  0
   10.3885  -13.8091   28.9240 C   0  0  0  0  0  0  0  0  0  0  0  0
   11.3278  -14.7673   28.2372 C   0  0  0  0  0  0  0  0  0  0  0  0
   10.4004  -15.7465   27.5511 C   0  0  1  0  0  0  0  0  0  0  0  0
    9.8936  -16.6501   28.6580 C   0  0  0  0  0  0  0  0  0  0  0  0
   10.6967  -17.4495   29.2016 O   0  0  0  0  0  0  0  0  0  0  0  0
    8.5816  -16.5856   29.0472 O   0  0  0  0  0  0  0  0  0  0  0  0
  2  1  1  1
  2  3  1  0
  4  6  1  0
  4  2  1  0
  4  5  1  6
  6 12  1  0
  6  7  2  0
  9  8  1  6
  9 11  1  0
 10  9  1  0
 11 13  1  0
 11 12  1  6
 13 14  2  0
 13 15  1  0
 15 19  1  0
 15 16  1  0
 16 17  1  0
 18 17  1  0
 19 18  1  0
 19 20  1  1
 21 20  2  0
 22 20  1  0
M  END
$$$$
