VVP.pdb
     RDKit          3D

 22 22  0  0  1  0  0  0  0  0999 V2000
    6.3565  -19.6368   22.4494 C   0  0  0  0  0  0  0  0  0  0  0  0
    7.2056  -18.6391   23.1450 C   0  0  2  0  0  0  0  0  0  0  0  0
    7.0155  -18.7425   24.6459 C   0  0  0  0  0  0  0  0  0  0  0  0
    6.9671  -17.2152   22.7365 C   0  0  2  0  0  0  0  0  0  0  0  0
    7.2288  -17.0704   21.3176 N   0  0  0  0  0  0  0  0  0  0  0  0
    7.7558  -16.2344   23.4797 C   0  0  0  0  0  0  0  0  0  0  0  0
    8.9815  -16.1470   23.2915 O   0  0  0  0  0  0  0  0  0  0  0  0
    5.7513  -13.7354   26.5024 C   0  0  0  0  0  0  0  0  0  0  0  0
    6.9165  -13.3447   25.6672 C   0  0  1  0  0  0  0  0  0  0  0  0
    7.6523  -12.2300   26.3806 C   0  0  0  0  0  0  0  0  0  0  0  0
    7.8891  -14.4541   25.2997 C   0  0  2  0  0  0  0  0  0  0  0  0
    7.1488  -15.3794   24.4125 N   0  0  0  0  0  0  0  0  0  0  0  0
    8.4007  -15.1699   26.4695 C   0  0  0  0  0  0  0  0  0  0  0  0
    7.7403  -16.2251   26.7900 O   0  0  0  0  0  0  0  0  0  0  0  0
    9.5029  -14.8763   27.2835 N   0  0  0  0  0  0  0  0  0  0  0  0
    9.9792  -13.5209   27.6512 C   0  0  0  0  0  0  0  0  0  0  0  0
   11.4530  -13.5961   27.8124 C   0  0  0  0  0  0  0  0  0  0  0  0
   11.7776  -15.0638   27.7001 C   0  0  0  0  0  0  0  0  0  0  0  0
   10.4481  -15.7434   27.9459 C   0  0  1  0  0  0  0  0  0  0  0  0
   10.2314  -15.6536   29.4438 C   0  0  0  0  0  0  0  0  0  0  0  0
    9.4383  -14.7862   29.8893 O   0  0  0  0  0  0  0  0  0  0  0  0
   10.8953  -16.5084   30.2838 O   0  0  0  0  0  0  0  0  0  0  0  0
  2  1  1  6
  2  3  1  0
  4  6  1  0
  4  2  1  0
  4  5  1  6
  6 12  1  0
  6  7  2  0
  9  8  1  1
  9 11  1  0
 10  9  1  0
 11 13  1  0
 11 12  1  6
 13 14  2  0
 13 15  1  0
 15 19  1  0
 15 16  1  0
 16 17  1  0
 18 17  1  0
 19 18  1  0
 19 20  1  1
 21 20  2  0
 22 20  1  0
M  END
$$$$
