SMM.pdb
     RDKit          3D

 23 22  0  0  1  0  0  0  0  0999 V2000
    8.4065  -18.7312   20.9269 O   0  0  0  0  0  0  0  0  0  0  0  0
    7.3373  -17.9567   20.5154 C   0  0  0  0  0  0  0  0  0  0  0  0
    7.7867  -16.5610   20.1316 C   0  0  2  0  0  0  0  0  0  0  0  0
    8.5725  -16.5668   18.9282 N   0  0  0  0  0  0  0  0  0  0  0  0
    8.4669  -15.8817   21.2639 C   0  0  0  0  0  0  0  0  0  0  0  0
    9.7057  -15.6950   21.1413 O   0  0  0  0  0  0  0  0  0  0  0  0
    5.3570  -12.8100   26.1387 C   0  0  0  0  0  0  0  0  0  0  0  0
    6.9802  -12.0013   26.1944 S   0  0  0  0  0  0  0  0  0  0  0  0
    8.1679  -13.0443   25.3231 C   0  0  0  0  0  0  0  0  0  0  0  0
    7.5492  -13.8673   24.2511 C   0  0  0  0  0  0  0  0  0  0  0  0
    8.4950  -14.7869   23.5306 C   0  0  2  0  0  0  0  0  0  0  0  0
    7.8047  -15.4453   22.4436 N   0  0  0  0  0  0  0  0  0  0  0  0
    9.1671  -15.7616   24.4275 C   0  0  0  0  0  0  0  0  0  0  0  0
    8.5509  -16.7978   24.7813 O   0  0  0  0  0  0  0  0  0  0  0  0
   10.1908  -13.2803   29.5047 C   0  0  0  0  0  0  0  0  0  0  0  0
   11.1189  -14.7719   29.9484 S   0  0  0  0  0  0  0  0  0  0  0  0
   11.2036  -15.9321   28.5906 C   0  0  0  0  0  0  0  0  0  0  0  0
   10.9791  -15.3885   27.2319 C   0  0  0  0  0  0  0  0  0  0  0  0
   10.9671  -16.2958   26.0638 C   0  0  2  0  0  0  0  0  0  0  0  0
   10.4685  -15.5505   24.8848 N   0  0  0  0  0  0  0  0  0  0  0  0
   10.2098  -17.5230   26.2400 C   0  0  0  0  0  0  0  0  0  0  0  0
   10.6511  -18.4832   26.8890 O   0  0  0  0  0  0  0  0  0  0  0  0
    8.9235  -17.6924   25.6800 O   0  0  0  0  0  0  0  0  0  0  0  0
  2  1  1  0
  3  4  1  6
  3  2  1  0
  5  6  2  0
  5  3  1  0
  7  8  1  0
  9  8  1  0
  9 10  1  0
 11 10  1  1
 11 13  1  0
 11 12  1  0
 12  5  1  0
 13 20  1  0
 14 13  2  0
 16 15  1  0
 17 16  1  0
 19 18  1  1
 18 17  1  0
 19 21  1  0
 20 19  1  0
 21 22  2  0
 21 23  1  0
M  END
$$$$
