SMM.pdb
     RDKit          3D

 23 22  0  0  1  0  0  0  0  0999 V2000
    8.7043  -19.1801   21.0329 O   0  0  0  0  0  0  0  0  0  0  0  0
    7.6779  -18.3709   20.5809 C   0  0  0  0  0  0  0  0  0  0  0  0
    8.1830  -16.9830   20.2406 C   0  0  2  0  0  0  0  0  0  0  0  0
    9.1613  -17.0156   19.1883 N   0  0  0  0  0  0  0  0  0  0  0  0
    8.6601  -16.2692   21.4528 C   0  0  0  0  0  0  0  0  0  0  0  0
    9.8837  -15.9754   21.4834 O   0  0  0  0  0  0  0  0  0  0  0  0
    6.2490  -11.3217   26.0782 C   0  0  0  0  0  0  0  0  0  0  0  0
    6.2413  -13.0738   26.5496 S   0  0  0  0  0  0  0  0  0  0  0  0
    7.6190  -13.8940   25.7210 C   0  0  0  0  0  0  0  0  0  0  0  0
    7.2104  -14.6348   24.4988 C   0  0  0  0  0  0  0  0  0  0  0  0
    8.3345  -15.2962   23.7516 C   0  0  2  0  0  0  0  0  0  0  0  0
    7.8252  -15.9127   22.5466 N   0  0  0  0  0  0  0  0  0  0  0  0
    9.1065  -16.2583   24.5790 C   0  0  0  0  0  0  0  0  0  0  0  0
    8.4910  -17.0537   25.3321 O   0  0  0  0  0  0  0  0  0  0  0  0
    9.3543  -14.7463   29.9358 C   0  0  0  0  0  0  0  0  0  0  0  0
   10.6674  -13.8835   29.0333 S   0  0  0  0  0  0  0  0  0  0  0  0
   11.5598  -14.9839   27.9426 C   0  0  0  0  0  0  0  0  0  0  0  0
   11.0506  -15.1108   26.5582 C   0  0  0  0  0  0  0  0  0  0  0  0
   11.2763  -16.3590   25.7974 C   0  0  2  0  0  0  0  0  0  0  0  0
   10.5008  -16.2973   24.5369 N   0  0  0  0  0  0  0  0  0  0  0  0
   10.9734  -17.5854   26.5147 C   0  0  0  0  0  0  0  0  0  0  0  0
   11.8610  -18.2996   27.0046 O   0  0  0  0  0  0  0  0  0  0  0  0
    9.6460  -18.0353   26.6951 O   0  0  0  0  0  0  0  0  0  0  0  0
  2  1  1  0
  3  4  1  6
  3  2  1  0
  5  6  2  0
  5  3  1  0
  7  8  1  0
  9  8  1  0
  9 10  1  0
 11 10  1  1
 11 13  1  0
 11 12  1  0
 12  5  1  0
 13 20  1  0
 14 13  2  0
 16 15  1  0
 17 16  1  0
 19 18  1  1
 18 17  1  0
 19 21  1  0
 20 19  1  0
 21 22  2  0
 21 23  1  0
M  END
$$$$
