SMM.pdb
     RDKit          3D

 23 22  0  0  1  0  0  0  0  0999 V2000
   10.2961  -18.7057   21.1913 O   0  0  0  0  0  0  0  0  0  0  0  0
    9.3352  -17.9764   20.5152 C   0  0  0  0  0  0  0  0  0  0  0  0
    9.6756  -16.4996   20.5027 C   0  0  2  0  0  0  0  0  0  0  0  0
   10.8871  -16.2385   19.7749 N   0  0  0  0  0  0  0  0  0  0  0  0
    9.6935  -15.9374   21.8775 C   0  0  0  0  0  0  0  0  0  0  0  0
   10.8259  -15.6684   22.3569 O   0  0  0  0  0  0  0  0  0  0  0  0
    6.9005  -11.5251   24.9586 C   0  0  0  0  0  0  0  0  0  0  0  0
    6.1491  -12.8055   26.0016 S   0  0  0  0  0  0  0  0  0  0  0  0
    7.1445  -14.3054   25.8707 C   0  0  0  0  0  0  0  0  0  0  0  0
    7.2096  -14.8467   24.4879 C   0  0  0  0  0  0  0  0  0  0  0  0
    8.5806  -15.2605   24.0317 C   0  0  2  0  0  0  0  0  0  0  0  0
    8.5274  -15.6957   22.6536 N   0  0  0  0  0  0  0  0  0  0  0  0
    9.2103  -16.2811   24.9081 C   0  0  0  0  0  0  0  0  0  0  0  0
    9.0929  -17.4978   24.6175 O   0  0  0  0  0  0  0  0  0  0  0  0
    9.2702  -13.9340   29.0496 C   0  0  0  0  0  0  0  0  0  0  0  0
   11.0620  -13.6934   28.9285 S   0  0  0  0  0  0  0  0  0  0  0  0
   11.8260  -14.9055   27.8591 C   0  0  0  0  0  0  0  0  0  0  0  0
   11.3323  -16.2972   27.9662 C   0  0  0  0  0  0  0  0  0  0  0  0
   10.6804  -16.9433   26.8063 C   0  0  2  0  0  0  0  0  0  0  0  0
    9.9296  -15.9167   26.0471 N   0  0  0  0  0  0  0  0  0  0  0  0
    9.8146  -18.0648   27.1272 C   0  0  0  0  0  0  0  0  0  0  0  0
    8.5806  -17.9958   27.0256 O   0  0  0  0  0  0  0  0  0  0  0  0
   10.3314  -19.3016   27.5748 O   0  0  0  0  0  0  0  0  0  0  0  0
  2  1  1  0
  3  4  1  1
  3  2  1  0
  5  6  2  0
  5  3  1  0
  7  8  1  0
  9  8  1  0
  9 10  1  0
 11 10  1  1
 11 13  1  0
 11 12  1  0
 12  5  1  0
 13 20  1  0
 14 13  2  0
 16 15  1  0
 17 16  1  0
 19 18  1  1
 18 17  1  0
 19 21  1  0
 20 19  1  0
 21 22  2  0
 21 23  1  0
M  END
$$$$
