SMM.pdb
     RDKit          3D

 23 22  0  0  1  0  0  0  0  0999 V2000
    9.7328  -18.4678   21.2427 O   0  0  0  0  0  0  0  0  0  0  0  0
    8.7762  -17.7660   20.5322 C   0  0  0  0  0  0  0  0  0  0  0  0
    9.0868  -16.2827   20.5118 C   0  0  2  0  0  0  0  0  0  0  0  0
   10.2020  -15.9839   19.6559 N   0  0  0  0  0  0  0  0  0  0  0  0
    9.2524  -15.7461   21.8870 C   0  0  0  0  0  0  0  0  0  0  0  0
   10.4326  -15.6642   22.3169 O   0  0  0  0  0  0  0  0  0  0  0  0
    6.8751  -11.7300   27.9695 C   0  0  0  0  0  0  0  0  0  0  0  0
    6.6831  -12.1941   26.2260 S   0  0  0  0  0  0  0  0  0  0  0  0
    7.1062  -13.9398   26.0500 C   0  0  0  0  0  0  0  0  0  0  0  0
    7.0487  -14.4177   24.6437 C   0  0  0  0  0  0  0  0  0  0  0  0
    8.3587  -14.8926   24.0802 C   0  0  2  0  0  0  0  0  0  0  0  0
    8.1735  -15.3329   22.7151 N   0  0  0  0  0  0  0  0  0  0  0  0
    9.0146  -15.9345   24.9111 C   0  0  0  0  0  0  0  0  0  0  0  0
    8.7148  -17.1416   24.7333 O   0  0  0  0  0  0  0  0  0  0  0  0
   14.8223  -18.6748   24.9156 C   0  0  0  0  0  0  0  0  0  0  0  0
   14.6091  -17.7862   26.4802 S   0  0  0  0  0  0  0  0  0  0  0  0
   12.8975  -17.7457   26.9954 C   0  0  0  0  0  0  0  0  0  0  0  0
   12.0235  -16.7509   26.3332 C   0  0  0  0  0  0  0  0  0  0  0  0
   10.5917  -16.6661   26.6945 C   0  0  2  0  0  0  0  0  0  0  0  0
    9.9569  -15.6005   25.8847 N   0  0  0  0  0  0  0  0  0  0  0  0
   10.3201  -16.4544   28.1058 C   0  0  0  0  0  0  0  0  0  0  0  0
    9.7833  -15.4186   28.5263 O   0  0  0  0  0  0  0  0  0  0  0  0
   10.6534  -17.4200   29.0823 O   0  0  0  0  0  0  0  0  0  0  0  0
  2  1  1  0
  3  4  1  6
  3  2  1  0
  5  6  2  0
  5  3  1  0
  7  8  1  0
  9  8  1  0
  9 10  1  0
 11 10  1  1
 11 13  1  0
 11 12  1  0
 12  5  1  0
 13 20  1  0
 14 13  2  0
 16 15  1  0
 17 16  1  0
 19 18  1  1
 18 17  1  0
 19 21  1  0
 20 19  1  0
 21 22  2  0
 21 23  1  0
M  END
$$$$
