SMM.pdb
     RDKit          3D

 23 22  0  0  1  0  0  0  0  0999 V2000
    9.3984  -19.3791   21.1517 O   0  0  0  0  0  0  0  0  0  0  0  0
    9.7904  -18.8178   19.9501 C   0  0  0  0  0  0  0  0  0  0  0  0
    9.1864  -17.4401   19.7653 C   0  0  2  0  0  0  0  0  0  0  0  0
    9.5888  -16.8449   18.5206 N   0  0  0  0  0  0  0  0  0  0  0  0
    9.4575  -16.5694   20.9378 C   0  0  0  0  0  0  0  0  0  0  0  0
   10.5590  -15.9602   20.9393 O   0  0  0  0  0  0  0  0  0  0  0  0
    6.5448  -11.7290   26.3395 C   0  0  0  0  0  0  0  0  0  0  0  0
    6.1832  -12.9951   25.0912 S   0  0  0  0  0  0  0  0  0  0  0  0
    7.7355  -13.7768   24.6046 C   0  0  0  0  0  0  0  0  0  0  0  0
    7.5691  -14.7925   23.5322 C   0  0  0  0  0  0  0  0  0  0  0  0
    8.8302  -15.5054   23.1314 C   0  0  2  0  0  0  0  0  0  0  0  0
    8.5584  -16.3964   22.0252 N   0  0  0  0  0  0  0  0  0  0  0  0
    9.4916  -16.2116   24.2584 C   0  0  0  0  0  0  0  0  0  0  0  0
    9.1913  -17.4085   24.4949 O   0  0  0  0  0  0  0  0  0  0  0  0
    9.1789  -13.7506   29.8696 C   0  0  0  0  0  0  0  0  0  0  0  0
   10.7397  -14.6329   30.1315 S   0  0  0  0  0  0  0  0  0  0  0  0
   11.0908  -15.7745   28.8010 C   0  0  0  0  0  0  0  0  0  0  0  0
   10.7899  -15.3125   27.4269 C   0  0  0  0  0  0  0  0  0  0  0  0
   10.9401  -16.2396   26.2842 C   0  0  2  0  0  0  0  0  0  0  0  0
   10.4395  -15.5736   25.0595 N   0  0  0  0  0  0  0  0  0  0  0  0
   10.3026  -17.5345   26.4488 C   0  0  0  0  0  0  0  0  0  0  0  0
    9.0699  -17.6626   26.4901 O   0  0  0  0  0  0  0  0  0  0  0  0
   11.0538  -18.7252   26.5715 O   0  0  0  0  0  0  0  0  0  0  0  0
  2  1  1  0
  3  4  1  6
  3  2  1  0
  5  6  2  0
  5  3  1  0
  7  8  1  0
  9  8  1  0
  9 10  1  0
 11 10  1  1
 11 13  1  0
 11 12  1  0
 12  5  1  0
 13 20  1  0
 14 13  2  0
 16 15  1  0
 17 16  1  0
 19 18  1  1
 18 17  1  0
 19 21  1  0
 20 19  1  0
 21 22  2  0
 21 23  1  0
M  END
$$$$
