SMM.pdb
     RDKit          3D

 23 22  0  0  1  0  0  0  0  0999 V2000
    9.3246  -19.4617   22.0463 O   0  0  0  0  0  0  0  0  0  0  0  0
    8.3513  -19.1653   21.1097 C   0  0  0  0  0  0  0  0  0  0  0  0
    8.6755  -17.8836   20.3686 C   0  0  2  0  0  0  0  0  0  0  0  0
    9.7043  -18.0830   19.3850 N   0  0  0  0  0  0  0  0  0  0  0  0
    8.9823  -16.7772   21.3110 C   0  0  0  0  0  0  0  0  0  0  0  0
   10.1888  -16.4269   21.3885 O   0  0  0  0  0  0  0  0  0  0  0  0
    6.3150  -11.5406   26.6374 C   0  0  0  0  0  0  0  0  0  0  0  0
    6.1198  -13.1801   25.8853 S   0  0  0  0  0  0  0  0  0  0  0  0
    7.2455  -13.3012   24.4797 C   0  0  0  0  0  0  0  0  0  0  0  0
    7.0936  -14.5665   23.7146 C   0  0  0  0  0  0  0  0  0  0  0  0
    8.3355  -15.0352   23.0093 C   0  0  2  0  0  0  0  0  0  0  0  0
    8.0068  -16.1149   22.1051 N   0  0  0  0  0  0  0  0  0  0  0  0
    9.4346  -15.4078   23.9363 C   0  0  0  0  0  0  0  0  0  0  0  0
   10.5287  -14.7936   23.8710 O   0  0  0  0  0  0  0  0  0  0  0  0
   10.1680  -12.9029   28.7303 C   0  0  0  0  0  0  0  0  0  0  0  0
   10.6795  -14.4792   29.4629 S   0  0  0  0  0  0  0  0  0  0  0  0
   10.9595  -15.7322   28.2186 C   0  0  0  0  0  0  0  0  0  0  0  0
   10.1217  -15.6632   26.9999 C   0  0  0  0  0  0  0  0  0  0  0  0
   10.3169  -16.6440   25.9102 C   0  0  2  0  0  0  0  0  0  0  0  0
    9.2770  -16.4253   24.8783 N   0  0  0  0  0  0  0  0  0  0  0  0
   10.3293  -18.0364   26.3244 C   0  0  0  0  0  0  0  0  0  0  0  0
    9.4154  -18.8208   26.0290 O   0  0  0  0  0  0  0  0  0  0  0  0
   11.3868  -18.5772   27.0900 O   0  0  0  0  0  0  0  0  0  0  0  0
  2  1  1  0
  3  4  1  6
  3  2  1  0
  5  6  2  0
  5  3  1  0
  7  8  1  0
  9  8  1  0
  9 10  1  0
 11 10  1  1
 11 13  1  0
 11 12  1  0
 12  5  1  0
 13 20  1  0
 14 13  2  0
 16 15  1  0
 17 16  1  0
 19 18  1  1
 18 17  1  0
 19 21  1  0
 20 19  1  0
 21 22  2  0
 21 23  1  0
M  END
$$$$
