SMM.pdb
     RDKit          3D

 23 22  0  0  1  0  0  0  0  0999 V2000
    9.5873  -15.4288   18.7294 O   0  0  0  0  0  0  0  0  0  0  0  0
    8.2098  -15.3567   18.8280 C   0  0  0  0  0  0  0  0  0  0  0  0
    7.7748  -14.0710   19.5023 C   0  0  2  0  0  0  0  0  0  0  0  0
    8.1530  -12.9143   18.7376 N   0  0  0  0  0  0  0  0  0  0  0  0
    8.2449  -14.0132   20.9102 C   0  0  0  0  0  0  0  0  0  0  0  0
    9.1502  -13.1762   21.1636 O   0  0  0  0  0  0  0  0  0  0  0  0
    5.8528  -11.1326   26.4742 C   0  0  0  0  0  0  0  0  0  0  0  0
    6.4776  -12.8193   26.2364 S   0  0  0  0  0  0  0  0  0  0  0  0
    6.2918  -13.2568   24.4952 C   0  0  0  0  0  0  0  0  0  0  0  0
    6.8138  -14.6105   24.1722 C   0  0  0  0  0  0  0  0  0  0  0  0
    8.0690  -14.6266   23.3454 C   0  0  2  0  0  0  0  0  0  0  0  0
    7.7355  -14.8335   21.9534 N   0  0  0  0  0  0  0  0  0  0  0  0
    9.0764  -15.6082   23.8226 C   0  0  0  0  0  0  0  0  0  0  0  0
    9.0461  -16.7842   23.3813 O   0  0  0  0  0  0  0  0  0  0  0  0
   10.4847  -14.7966   30.5085 C   0  0  0  0  0  0  0  0  0  0  0  0
   11.2033  -14.4458   28.8825 S   0  0  0  0  0  0  0  0  0  0  0  0
   11.1939  -15.8876   27.8252 C   0  0  0  0  0  0  0  0  0  0  0  0
   11.7022  -15.7086   26.4462 C   0  0  0  0  0  0  0  0  0  0  0  0
   10.9614  -16.2849   25.3030 C   0  0  2  0  0  0  0  0  0  0  0  0
   10.0559  -15.2512   24.7503 N   0  0  0  0  0  0  0  0  0  0  0  0
   10.2197  -17.4996   25.5942 C   0  0  0  0  0  0  0  0  0  0  0  0
   10.7543  -18.6184   25.5805 O   0  0  0  0  0  0  0  0  0  0  0  0
    8.8426  -17.4746   25.9104 O   0  0  0  0  0  0  0  0  0  0  0  0
  2  1  1  0
  3  4  1  6
  3  2  1  0
  5  6  2  0
  5  3  1  0
  7  8  1  0
  9  8  1  0
  9 10  1  0
 11 10  1  1
 11 13  1  0
 11 12  1  0
 12  5  1  0
 13 20  1  0
 14 13  2  0
 16 15  1  0
 17 16  1  0
 19 18  1  1
 18 17  1  0
 19 21  1  0
 20 19  1  0
 21 22  2  0
 21 23  1  0
M  END
$$$$
