SMM.pdb
     RDKit          3D

 23 22  0  0  1  0  0  0  0  0999 V2000
   10.2548  -19.2332   20.9229 O   0  0  0  0  0  0  0  0  0  0  0  0
    9.6046  -18.6270   19.8635 C   0  0  0  0  0  0  0  0  0  0  0  0
   10.0279  -17.1792   19.7162 C   0  0  2  0  0  0  0  0  0  0  0  0
   11.3289  -17.0632   19.1166 N   0  0  0  0  0  0  0  0  0  0  0  0
    9.9176  -16.4500   21.0056 C   0  0  0  0  0  0  0  0  0  0  0  0
   10.9989  -16.1891   21.5947 O   0  0  0  0  0  0  0  0  0  0  0  0
    5.9781  -12.5796   26.3969 C   0  0  0  0  0  0  0  0  0  0  0  0
    6.4844  -14.0333   25.4364 S   0  0  0  0  0  0  0  0  0  0  0  0
    7.1673  -13.4691   23.8639 C   0  0  0  0  0  0  0  0  0  0  0  0
    7.2727  -14.5501   22.8493 C   0  0  0  0  0  0  0  0  0  0  0  0
    8.6142  -15.2241   22.7763 C   0  0  2  0  0  0  0  0  0  0  0  0
    8.6857  -16.0447   21.5876 N   0  0  0  0  0  0  0  0  0  0  0  0
    8.9536  -15.9951   23.9996 C   0  0  0  0  0  0  0  0  0  0  0  0
    8.5454  -17.1779   24.1139 O   0  0  0  0  0  0  0  0  0  0  0  0
   10.4707  -13.1215   29.5156 C   0  0  0  0  0  0  0  0  0  0  0  0
   11.2052  -14.7296   29.9124 S   0  0  0  0  0  0  0  0  0  0  0  0
   11.0233  -15.8947   28.5685 C   0  0  0  0  0  0  0  0  0  0  0  0
   10.6105  -15.3441   27.2576 C   0  0  0  0  0  0  0  0  0  0  0  0
   10.0568  -16.2399   26.2190 C   0  0  2  0  0  0  0  0  0  0  0  0
    9.7167  -15.4334   25.0241 N   0  0  0  0  0  0  0  0  0  0  0  0
    8.9127  -17.0344   26.6317 C   0  0  0  0  0  0  0  0  0  0  0  0
    7.7542  -16.5941   26.5902 O   0  0  0  0  0  0  0  0  0  0  0  0
    9.0560  -18.3581   27.1053 O   0  0  0  0  0  0  0  0  0  0  0  0
  2  1  1  0
  3  4  1  1
  3  2  1  0
  5  6  2  0
  5  3  1  0
  7  8  1  0
  9  8  1  0
  9 10  1  0
 11 10  1  1
 11 13  1  0
 11 12  1  0
 12  5  1  0
 13 20  1  0
 14 13  2  0
 16 15  1  0
 17 16  1  0
 19 18  1  1
 18 17  1  0
 19 21  1  0
 20 19  1  0
 21 22  2  0
 21 23  1  0
M  END
$$$$
