SMM.pdb
     RDKit          3D

 23 22  0  0  1  0  0  0  0  0999 V2000
    9.7085  -19.1005   20.7278 O   0  0  0  0  0  0  0  0  0  0  0  0
    8.5148  -18.5350   20.3182 C   0  0  0  0  0  0  0  0  0  0  0  0
    8.6945  -17.0731   19.9610 C   0  0  2  0  0  0  0  0  0  0  0  0
    9.6070  -16.9013   18.8640 N   0  0  0  0  0  0  0  0  0  0  0  0
    9.0637  -16.2669   21.1528 C   0  0  0  0  0  0  0  0  0  0  0  0
   10.2207  -15.7712   21.1560 O   0  0  0  0  0  0  0  0  0  0  0  0
    6.8890  -11.3115   26.7019 C   0  0  0  0  0  0  0  0  0  0  0  0
    6.2777  -12.6547   25.6463 S   0  0  0  0  0  0  0  0  0  0  0  0
    7.6824  -13.6703   25.1436 C   0  0  0  0  0  0  0  0  0  0  0  0
    7.4189  -14.4700   23.9188 C   0  0  0  0  0  0  0  0  0  0  0  0
    8.5924  -15.2603   23.4115 C   0  0  2  0  0  0  0  0  0  0  0  0
    8.1979  -16.0356   22.2562 N   0  0  0  0  0  0  0  0  0  0  0  0
    9.2269  -16.1077   24.4534 C   0  0  0  0  0  0  0  0  0  0  0  0
    8.5223  -16.9305   25.0898 O   0  0  0  0  0  0  0  0  0  0  0  0
    9.3543  -13.2734   28.9045 C   0  0  0  0  0  0  0  0  0  0  0  0
   10.2795  -14.6079   29.7082 S   0  0  0  0  0  0  0  0  0  0  0  0
   10.9135  -15.7867   28.5228 C   0  0  0  0  0  0  0  0  0  0  0  0
   10.6440  -15.5084   27.0938 C   0  0  0  0  0  0  0  0  0  0  0  0
   11.1017  -16.4570   26.0553 C   0  0  2  0  0  0  0  0  0  0  0  0
   10.5892  -16.0091   24.7397 N   0  0  0  0  0  0  0  0  0  0  0  0
   10.7479  -17.8469   26.2862 C   0  0  0  0  0  0  0  0  0  0  0  0
    9.5849  -18.2604   26.1661 O   0  0  0  0  0  0  0  0  0  0  0  0
   11.7121  -18.8093   26.6620 O   0  0  0  0  0  0  0  0  0  0  0  0
  2  1  1  0
  3  4  1  6
  3  2  1  0
  5  6  2  0
  5  3  1  0
  7  8  1  0
  9  8  1  0
  9 10  1  0
 11 10  1  1
 11 13  1  0
 11 12  1  0
 12  5  1  0
 13 20  1  0
 14 13  2  0
 16 15  1  0
 17 16  1  0
 19 18  1  1
 18 17  1  0
 19 21  1  0
 20 19  1  0
 21 22  2  0
 21 23  1  0
M  END
$$$$
