SMM.pdb
     RDKit          3D

 23 22  0  0  1  0  0  0  0  0999 V2000
    8.0774  -18.3276   20.9162 O   0  0  0  0  0  0  0  0  0  0  0  0
    7.3238  -17.2323   20.5356 C   0  0  0  0  0  0  0  0  0  0  0  0
    8.1662  -15.9730   20.4988 C   0  0  2  0  0  0  0  0  0  0  0  0
    9.2522  -16.0859   19.5642 N   0  0  0  0  0  0  0  0  0  0  0  0
    8.6126  -15.5813   21.8604 C   0  0  0  0  0  0  0  0  0  0  0  0
    9.8166  -15.8157   22.1432 O   0  0  0  0  0  0  0  0  0  0  0  0
    6.2036  -10.9393   26.3082 C   0  0  0  0  0  0  0  0  0  0  0  0
    6.2199  -12.5628   27.1182 S   0  0  0  0  0  0  0  0  0  0  0  0
    7.4750  -13.5860   26.3212 C   0  0  0  0  0  0  0  0  0  0  0  0
    7.1436  -13.9295   24.9135 C   0  0  0  0  0  0  0  0  0  0  0  0
    8.1909  -14.7305   24.1918 C   0  0  2  0  0  0  0  0  0  0  0  0
    7.7698  -14.9722   22.8295 N   0  0  0  0  0  0  0  0  0  0  0  0
    8.5526  -15.9913   24.8888 C   0  0  0  0  0  0  0  0  0  0  0  0
    7.7863  -16.9832   24.8025 O   0  0  0  0  0  0  0  0  0  0  0  0
   12.9940  -19.6962   23.2985 C   0  0  0  0  0  0  0  0  0  0  0  0
   13.2144  -19.8773   25.0879 S   0  0  0  0  0  0  0  0  0  0  0  0
   11.8024  -19.2652   25.9982 C   0  0  0  0  0  0  0  0  0  0  0  0
   11.2125  -17.9879   25.5372 C   0  0  0  0  0  0  0  0  0  0  0  0
   10.0812  -17.3855   26.2754 C   0  0  2  0  0  0  0  0  0  0  0  0
    9.7259  -16.0970   25.6369 N   0  0  0  0  0  0  0  0  0  0  0  0
   10.2999  -17.1977   27.6993 C   0  0  0  0  0  0  0  0  0  0  0  0
   10.3491  -18.1513   28.4906 O   0  0  0  0  0  0  0  0  0  0  0  0
   10.4694  -15.9138   28.2647 O   0  0  0  0  0  0  0  0  0  0  0  0
  2  1  1  0
  3  4  1  6
  3  2  1  0
  5  6  2  0
  5  3  1  0
  7  8  1  0
  9  8  1  0
  9 10  1  0
 11 10  1  1
 11 13  1  0
 11 12  1  0
 12  5  1  0
 13 20  1  0
 14 13  2  0
 16 15  1  0
 17 16  1  0
 19 18  1  6
 18 17  1  0
 19 21  1  0
 20 19  1  0
 21 22  2  0
 21 23  1  0
M  END
$$$$
