SMM.pdb
     RDKit          3D

 23 22  0  0  1  0  0  0  0  0999 V2000
    5.8892  -17.5406   19.8608 O   0  0  0  0  0  0  0  0  0  0  0  0
    7.2324  -17.8685   19.8350 C   0  0  0  0  0  0  0  0  0  0  0  0
    7.7915  -18.0011   21.2375 C   0  0  2  0  0  0  0  0  0  0  0  0
    6.8466  -18.6115   22.1319 N   0  0  0  0  0  0  0  0  0  0  0  0
    8.3071  -16.7015   21.7390 C   0  0  0  0  0  0  0  0  0  0  0  0
    9.1493  -16.1151   21.0100 O   0  0  0  0  0  0  0  0  0  0  0  0
    5.2123  -12.7299   25.9263 C   0  0  0  0  0  0  0  0  0  0  0  0
    6.9357  -12.2813   26.2739 S   0  0  0  0  0  0  0  0  0  0  0  0
    7.9669  -12.8858   24.9215 C   0  0  0  0  0  0  0  0  0  0  0  0
    7.4982  -14.1800   24.3606 C   0  0  0  0  0  0  0  0  0  0  0  0
    8.4837  -14.8786   23.4662 C   0  0  2  0  0  0  0  0  0  0  0  0
    7.9060  -16.1065   22.9660 N   0  0  0  0  0  0  0  0  0  0  0  0
    9.8017  -15.1119   24.1103 C   0  0  0  0  0  0  0  0  0  0  0  0
   10.5026  -14.1264   24.4509 O   0  0  0  0  0  0  0  0  0  0  0  0
   10.6844  -13.4523   28.4436 C   0  0  0  0  0  0  0  0  0  0  0  0
   10.7859  -15.0660   29.2614 S   0  0  0  0  0  0  0  0  0  0  0  0
   10.9808  -16.3979   28.0848 C   0  0  0  0  0  0  0  0  0  0  0  0
   10.3946  -16.1936   26.7406 C   0  0  0  0  0  0  0  0  0  0  0  0
   11.1094  -16.6773   25.5395 C   0  0  2  0  0  0  0  0  0  0  0  0
   10.2772  -16.4027   24.3452 N   0  0  0  0  0  0  0  0  0  0  0  0
   11.4977  -18.0768   25.5709 C   0  0  0  0  0  0  0  0  0  0  0  0
   10.9319  -18.9342   24.8762 O   0  0  0  0  0  0  0  0  0  0  0  0
   12.5453  -18.5416   26.3976 O   0  0  0  0  0  0  0  0  0  0  0  0
  2  1  1  0
  3  4  1  1
  3  2  1  0
  5  6  2  0
  5  3  1  0
  7  8  1  0
  9  8  1  0
  9 10  1  0
 11 10  1  1
 11 13  1  0
 11 12  1  0
 12  5  1  0
 13 20  1  0
 14 13  2  0
 16 15  1  0
 17 16  1  0
 19 18  1  1
 18 17  1  0
 19 21  1  0
 20 19  1  0
 21 22  2  0
 21 23  1  0
M  END
$$$$
