SMM.pdb
     RDKit          3D

 23 22  0  0  1  0  0  0  0  0999 V2000
    9.3584  -19.1017   21.9293 O   0  0  0  0  0  0  0  0  0  0  0  0
    8.4862  -19.0705   20.8565 C   0  0  0  0  0  0  0  0  0  0  0  0
    8.4333  -17.6903   20.2326 C   0  0  2  0  0  0  0  0  0  0  0  0
    9.1520  -17.6402   18.9890 N   0  0  0  0  0  0  0  0  0  0  0  0
    8.8675  -16.6452   21.1947 C   0  0  0  0  0  0  0  0  0  0  0  0
   10.0796  -16.3093   21.1461 O   0  0  0  0  0  0  0  0  0  0  0  0
    6.6987  -11.3785   26.7319 C   0  0  0  0  0  0  0  0  0  0  0  0
    6.2262  -12.8698   25.8130 S   0  0  0  0  0  0  0  0  0  0  0  0
    7.5914  -13.3262   24.7242 C   0  0  0  0  0  0  0  0  0  0  0  0
    7.3026  -14.5240   23.8928 C   0  0  0  0  0  0  0  0  0  0  0  0
    8.4631  -15.0290   23.0819 C   0  0  2  0  0  0  0  0  0  0  0  0
    8.0047  -16.0251   22.1389 N   0  0  0  0  0  0  0  0  0  0  0  0
    9.5875  -15.5320   23.9119 C   0  0  0  0  0  0  0  0  0  0  0  0
   10.7645  -15.2101   23.6127 O   0  0  0  0  0  0  0  0  0  0  0  0
    9.8983  -13.1888   29.2323 C   0  0  0  0  0  0  0  0  0  0  0  0
   10.6504  -14.7491   29.7641 S   0  0  0  0  0  0  0  0  0  0  0  0
   11.0630  -15.7969   28.3753 C   0  0  0  0  0  0  0  0  0  0  0  0
   10.1776  -15.7172   27.1914 C   0  0  0  0  0  0  0  0  0  0  0  0
   10.4421  -16.5668   26.0100 C   0  0  2  0  0  0  0  0  0  0  0  0
    9.3636  -16.3541   25.0172 N   0  0  0  0  0  0  0  0  0  0  0  0
   10.5972  -17.9842   26.2881 C   0  0  0  0  0  0  0  0  0  0  0  0
   11.4993  -18.4180   27.0202 O   0  0  0  0  0  0  0  0  0  0  0  0
    9.7263  -18.9517   25.7382 O   0  0  0  0  0  0  0  0  0  0  0  0
  2  1  1  0
  3  4  1  6
  3  2  1  0
  5  6  2  0
  5  3  1  0
  7  8  1  0
  9  8  1  0
  9 10  1  0
 11 10  1  1
 11 13  1  0
 11 12  1  0
 12  5  1  0
 13 20  1  0
 14 13  2  0
 16 15  1  0
 17 16  1  0
 19 18  1  1
 18 17  1  0
 19 21  1  0
 20 19  1  0
 21 22  2  0
 21 23  1  0
M  END
$$$$
