SMM.pdb
     RDKit          3D

 23 22  0  0  1  0  0  0  0  0999 V2000
    8.8465  -19.2871   21.1647 O   0  0  0  0  0  0  0  0  0  0  0  0
    7.8858  -18.7196   20.3478 C   0  0  0  0  0  0  0  0  0  0  0  0
    8.3178  -17.3503   19.8625 C   0  0  2  0  0  0  0  0  0  0  0  0
    9.2680  -17.4416   18.7881 N   0  0  0  0  0  0  0  0  0  0  0  0
    8.7943  -16.5040   20.9864 C   0  0  0  0  0  0  0  0  0  0  0  0
    9.9786  -16.0849   20.9078 O   0  0  0  0  0  0  0  0  0  0  0  0
    7.0956  -12.0455   27.1548 C   0  0  0  0  0  0  0  0  0  0  0  0
    6.7056  -13.4899   26.1285 S   0  0  0  0  0  0  0  0  0  0  0  0
    7.5603  -13.3152   24.5484 C   0  0  0  0  0  0  0  0  0  0  0  0
    7.2407  -14.4019   23.5860 C   0  0  0  0  0  0  0  0  0  0  0  0
    8.4252  -15.1905   23.1020 C   0  0  2  0  0  0  0  0  0  0  0  0
    7.9997  -16.1553   22.1123 N   0  0  0  0  0  0  0  0  0  0  0  0
    9.1957  -15.8297   24.1992 C   0  0  0  0  0  0  0  0  0  0  0  0
    8.6962  -16.8047   24.8143 O   0  0  0  0  0  0  0  0  0  0  0  0
   10.1169  -12.7730   29.0678 C   0  0  0  0  0  0  0  0  0  0  0  0
   10.5597  -14.4312   29.6488 S   0  0  0  0  0  0  0  0  0  0  0  0
   11.1041  -15.4829   28.3093 C   0  0  0  0  0  0  0  0  0  0  0  0
   10.6613  -15.1122   26.9460 C   0  0  0  0  0  0  0  0  0  0  0  0
   11.1198  -15.8970   25.7791 C   0  0  2  0  0  0  0  0  0  0  0  0
   10.4628  -15.3700   24.5607 N   0  0  0  0  0  0  0  0  0  0  0  0
   10.9171  -17.3321   25.8791 C   0  0  0  0  0  0  0  0  0  0  0  0
   11.8646  -18.1315   25.9125 O   0  0  0  0  0  0  0  0  0  0  0  0
    9.6247  -17.8998   25.9441 O   0  0  0  0  0  0  0  0  0  0  0  0
  2  1  1  0
  3  4  1  6
  3  2  1  0
  5  6  2  0
  5  3  1  0
  7  8  1  0
  9  8  1  0
  9 10  1  0
 11 10  1  1
 11 13  1  0
 11 12  1  0
 12  5  1  0
 13 20  1  0
 14 13  2  0
 16 15  1  0
 17 16  1  0
 19 18  1  1
 18 17  1  0
 19 21  1  0
 20 19  1  0
 21 22  2  0
 21 23  1  0
M  END
$$$$
