SMM.pdb
     RDKit          3D

 23 22  0  0  1  0  0  0  0  0999 V2000
    8.7914  -18.9007   21.0018 O   0  0  0  0  0  0  0  0  0  0  0  0
    7.7805  -18.1671   20.4083 C   0  0  0  0  0  0  0  0  0  0  0  0
    8.2104  -16.7335   20.1699 C   0  0  2  0  0  0  0  0  0  0  0  0
    9.1322  -16.6295   19.0722 N   0  0  0  0  0  0  0  0  0  0  0  0
    8.7218  -16.1081   21.4165 C   0  0  0  0  0  0  0  0  0  0  0  0
    9.9691  -15.9598   21.4967 O   0  0  0  0  0  0  0  0  0  0  0  0
    6.0081  -11.3087   25.1293 C   0  0  0  0  0  0  0  0  0  0  0  0
    6.4840  -12.5661   26.3477 S   0  0  0  0  0  0  0  0  0  0  0  0
    7.7779  -13.5980   25.6275 C   0  0  0  0  0  0  0  0  0  0  0  0
    7.3428  -14.3100   24.3974 C   0  0  0  0  0  0  0  0  0  0  0  0
    8.4225  -15.0875   23.6982 C   0  0  2  0  0  0  0  0  0  0  0  0
    7.8938  -15.6818   22.4904 N   0  0  0  0  0  0  0  0  0  0  0  0
    9.0789  -16.0972   24.5676 C   0  0  0  0  0  0  0  0  0  0  0  0
    8.3779  -16.9809   25.1210 O   0  0  0  0  0  0  0  0  0  0  0  0
    9.3889  -13.2839   29.0495 C   0  0  0  0  0  0  0  0  0  0  0  0
   10.5634  -14.4963   29.7082 S   0  0  0  0  0  0  0  0  0  0  0  0
   10.8675  -15.8254   28.5516 C   0  0  0  0  0  0  0  0  0  0  0  0
   10.6113  -15.5390   27.1217 C   0  0  0  0  0  0  0  0  0  0  0  0
   11.0061  -16.5200   26.0875 C   0  0  2  0  0  0  0  0  0  0  0  0
   10.4578  -16.0849   24.7821 N   0  0  0  0  0  0  0  0  0  0  0  0
   10.6248  -17.8951   26.3600 C   0  0  0  0  0  0  0  0  0  0  0  0
   11.2958  -18.6318   27.0981 O   0  0  0  0  0  0  0  0  0  0  0  0
    9.4642  -18.4725   25.7974 O   0  0  0  0  0  0  0  0  0  0  0  0
  2  1  1  0
  3  4  1  6
  3  2  1  0
  5  6  2  0
  5  3  1  0
  7  8  1  0
  9  8  1  0
  9 10  1  0
 11 10  1  1
 11 13  1  0
 11 12  1  0
 12  5  1  0
 13 20  1  0
 14 13  2  0
 16 15  1  0
 17 16  1  0
 19 18  1  1
 18 17  1  0
 19 21  1  0
 20 19  1  0
 21 22  2  0
 21 23  1  0
M  END
$$$$
