LWA.pdb
     RDKit          3D

 28 29  0  0  1  0  0  0  0  0999 V2000
   35.3976  -34.1754  -19.4481 C   0  0  0  0  0  0  0  0  0  0  0  0
   35.2199  -32.6633  -19.4504 C   0  0  1  0  0  0  0  0  0  0  0  0
   34.8947  -32.2304  -20.8398 C   0  0  0  0  0  0  0  0  0  0  0  0
   34.2198  -32.2201  -18.4264 C   0  0  0  0  0  0  0  0  0  0  0  0
   34.0978  -30.7168  -18.4746 C   0  0  2  0  0  0  0  0  0  0  0  0
   35.2303  -30.1098  -17.8098 N   0  0  0  0  0  0  0  0  0  0  0  0
   32.8613  -30.2324  -17.8263 C   0  0  0  0  0  0  0  0  0  0  0  0
   32.8537  -30.0599  -16.5855 O   0  0  0  0  0  0  0  0  0  0  0  0
   31.6534  -29.9440  -18.5397 N   0  0  0  0  0  0  0  0  0  0  0  0
   30.4825  -29.4136  -17.9176 C   0  0  1  0  0  0  0  0  0  0  0  0
   29.8736  -28.3007  -18.7177 C   0  0  0  0  0  0  0  0  0  0  0  0
   29.2547  -27.2339  -17.9159 C   0  0  0  0  0  0  0  0  0  0  0  0
   29.9288  -26.3085  -17.1164 C   0  0  0  0  0  0  0  0  0  0  0  0
   29.0305  -25.5085  -16.5202 N   0  0  0  0  0  0  0  0  0  0  0  0
   27.7940  -25.8670  -16.8931 C   0  0  0  0  0  0  0  0  0  0  0  0
   26.5736  -25.3196  -16.5350 C   0  0  0  0  0  0  0  0  0  0  0  0
   25.4446  -25.8887  -17.0854 C   0  0  0  0  0  0  0  0  0  0  0  0
   25.5360  -26.9557  -17.9536 C   0  0  0  0  0  0  0  0  0  0  0  0
   26.7580  -27.4732  -18.2868 C   0  0  0  0  0  0  0  0  0  0  0  0
   27.9209  -26.9409  -17.7630 C   0  0  0  0  0  0  0  0  0  0  0  0
   29.5189  -30.5359  -17.6710 C   0  0  0  0  0  0  0  0  0  0  0  0
   29.2131  -31.3511  -18.5891 O   0  0  0  0  0  0  0  0  0  0  0  0
   27.4562  -31.6391  -14.7002 C   0  0  0  0  0  0  0  0  0  0  0  0
   28.0271  -31.8426  -16.1104 C   0  0  2  0  0  0  0  0  0  0  0  0
   28.9002  -30.7463  -16.4031 N   0  0  0  0  0  0  0  0  0  0  0  0
   26.8832  -31.9775  -17.0150 C   0  0  0  0  0  0  0  0  0  0  0  0
   26.4058  -33.2666  -17.2551 O   0  0  0  0  0  0  0  0  0  0  0  0
   26.2857  -31.0466  -17.5991 O   0  0  0  0  0  0  0  0  0  0  0  0
  2  1  1  6
  2  3  1  0
  4  5  1  0
  4  2  1  0
  5  6  1  1
  7  8  2  0
  7  5  1  0
  9  7  1  0
 10  9  1  0
 11 12  1  0
 10 11  1  6
 12 13  2  0
 12 20  1  0
 13 14  1  0
 14 15  1  0
 15 16  2  0
 17 16  1  0
 18 17  2  0
 19 20  2  0
 19 18  1  0
 20 15  1  0
 21 22  2  0
 21 10  1  0
 24 23  1  1
 24 25  1  0
 25 21  1  0
 26 24  1  0
 27 26  1  0
 28 26  2  0
M  END
$$$$
