LWA.pdb
     RDKit          3D

 28 29  0  0  1  0  0  0  0  0999 V2000
   29.6979  -19.0923  -16.2429 C   0  0  0  0  0  0  0  0  0  0  0  0
   28.3814  -19.7704  -16.5970 C   0  0  1  0  0  0  0  0  0  0  0  0
   28.4156  -20.1376  -18.0418 C   0  0  0  0  0  0  0  0  0  0  0  0
   28.0867  -20.9217  -15.6845 C   0  0  0  0  0  0  0  0  0  0  0  0
   26.7747  -21.5482  -16.0888 C   0  0  2  0  0  0  0  0  0  0  0  0
   26.1093  -20.7107  -17.0629 N   0  0  0  0  0  0  0  0  0  0  0  0
   25.8659  -21.7398  -14.9394 C   0  0  0  0  0  0  0  0  0  0  0  0
   26.1912  -22.5439  -14.0355 O   0  0  0  0  0  0  0  0  0  0  0  0
   24.6178  -21.0529  -14.7932 N   0  0  0  0  0  0  0  0  0  0  0  0
   23.7789  -21.1860  -13.6453 C   0  0  1  0  0  0  0  0  0  0  0  0
   23.7895  -19.9520  -12.7927 C   0  0  0  0  0  0  0  0  0  0  0  0
   24.9960  -19.7845  -11.9679 C   0  0  0  0  0  0  0  0  0  0  0  0
   26.2090  -19.2334  -12.3859 C   0  0  0  0  0  0  0  0  0  0  0  0
   27.0812  -19.2700  -11.3659 N   0  0  0  0  0  0  0  0  0  0  0  0
   26.4945  -19.8211  -10.2942 C   0  0  0  0  0  0  0  0  0  0  0  0
   27.0098  -20.0504   -9.0296 C   0  0  0  0  0  0  0  0  0  0  0  0
   26.1678  -20.6301   -8.1042 C   0  0  0  0  0  0  0  0  0  0  0  0
   24.8709  -20.9636   -8.4321 C   0  0  0  0  0  0  0  0  0  0  0  0
   24.3927  -20.7238   -9.6915 C   0  0  0  0  0  0  0  0  0  0  0  0
   25.1948  -20.1455  -10.6570 C   0  0  0  0  0  0  0  0  0  0  0  0
   22.3986  -21.5572  -14.0990 C   0  0  0  0  0  0  0  0  0  0  0  0
   21.8757  -21.0173  -15.1168 O   0  0  0  0  0  0  0  0  0  0  0  0
   19.9483  -24.2530  -13.1762 C   0  0  0  0  0  0  0  0  0  0  0  0
   20.2775  -22.8928  -13.8066 C   0  0  2  0  0  0  0  0  0  0  0  0
   21.6065  -22.5286  -13.4180 N   0  0  0  0  0  0  0  0  0  0  0  0
   19.2326  -21.9618  -13.3749 C   0  0  0  0  0  0  0  0  0  0  0  0
   17.9542  -22.1450  -13.9036 O   0  0  0  0  0  0  0  0  0  0  0  0
   19.3709  -21.0113  -12.5735 O   0  0  0  0  0  0  0  0  0  0  0  0
  2  1  1  1
  2  3  1  0
  4  5  1  0
  4  2  1  0
  5  6  1  6
  7  8  2  0
  7  5  1  0
  9  7  1  0
 10  9  1  0
 11 12  1  0
 10 11  1  6
 12 13  2  0
 12 20  1  0
 13 14  1  0
 14 15  1  0
 15 16  2  0
 17 16  1  0
 18 17  2  0
 19 20  2  0
 19 18  1  0
 20 15  1  0
 21 22  2  0
 21 10  1  0
 24 23  1  1
 24 25  1  0
 25 21  1  0
 26 24  1  0
 27 26  1  0
 28 26  2  0
M  END
$$$$
