LWA.pdb
     RDKit          3D

 28 29  0  0  1  0  0  0  0  0999 V2000
   30.5845  -16.9374  -18.4631 C   0  0  0  0  0  0  0  0  0  0  0  0
   29.1550  -17.4616  -18.4632 C   0  0  1  0  0  0  0  0  0  0  0  0
   28.3209  -16.5517  -19.2997 C   0  0  0  0  0  0  0  0  0  0  0  0
   29.0908  -18.8993  -18.8803 C   0  0  0  0  0  0  0  0  0  0  0  0
   27.6859  -19.4102  -18.6745 C   0  0  2  0  0  0  0  0  0  0  0  0
   26.7471  -18.3121  -18.7507 N   0  0  0  0  0  0  0  0  0  0  0  0
   27.5171  -20.0788  -17.3674 C   0  0  0  0  0  0  0  0  0  0  0  0
   28.2360  -21.0675  -17.0938 O   0  0  0  0  0  0  0  0  0  0  0  0
   26.5682  -19.6598  -16.3799 N   0  0  0  0  0  0  0  0  0  0  0  0
   26.3649  -20.3482  -15.1455 C   0  0  1  0  0  0  0  0  0  0  0  0
   26.4626  -19.4291  -13.9643 C   0  0  0  0  0  0  0  0  0  0  0  0
   26.4759  -20.1054  -12.6580 C   0  0  0  0  0  0  0  0  0  0  0  0
   27.5279  -20.8574  -12.1309 C   0  0  0  0  0  0  0  0  0  0  0  0
   27.1647  -21.3373  -10.9309 N   0  0  0  0  0  0  0  0  0  0  0  0
   25.9192  -20.9333  -10.6449 C   0  0  0  0  0  0  0  0  0  0  0  0
   25.1502  -21.1811   -9.5203 C   0  0  0  0  0  0  0  0  0  0  0  0
   23.8895  -20.6236   -9.4865 C   0  0  0  0  0  0  0  0  0  0  0  0
   23.4229  -19.8543  -10.5310 C   0  0  0  0  0  0  0  0  0  0  0  0
   24.2084  -19.6289  -11.6284 C   0  0  0  0  0  0  0  0  0  0  0  0
   25.4795  -20.1646  -11.7134 C   0  0  0  0  0  0  0  0  0  0  0  0
   25.0495  -21.0657  -15.2061 C   0  0  0  0  0  0  0  0  0  0  0  0
   24.0010  -20.4801  -15.6042 O   0  0  0  0  0  0  0  0  0  0  0  0
   23.9811  -24.6415  -14.6108 C   0  0  0  0  0  0  0  0  0  0  0  0
   23.6834  -23.1690  -14.9259 C   0  0  2  0  0  0  0  0  0  0  0  0
   24.9071  -22.4325  -14.8238 N   0  0  0  0  0  0  0  0  0  0  0  0
   22.6293  -22.7430  -14.0028 C   0  0  0  0  0  0  0  0  0  0  0  0
   21.3435  -23.2363  -14.2283 O   0  0  0  0  0  0  0  0  0  0  0  0
   22.7657  -21.9755  -13.0244 O   0  0  0  0  0  0  0  0  0  0  0  0
  2  1  1  6
  2  3  1  0
  4  5  1  0
  4  2  1  0
  5  6  1  1
  7  8  2  0
  7  5  1  0
  9  7  1  0
 10  9  1  0
 11 12  1  0
 10 11  1  1
 12 13  2  0
 12 20  1  0
 13 14  1  0
 14 15  1  0
 15 16  2  0
 17 16  1  0
 18 17  2  0
 19 20  2  0
 19 18  1  0
 20 15  1  0
 21 22  2  0
 21 10  1  0
 24 23  1  1
 24 25  1  0
 25 21  1  0
 26 24  1  0
 27 26  1  0
 28 26  2  0
M  END
$$$$
