LWA.pdb
     RDKit          3D

 28 29  0  0  1  0  0  0  0  0999 V2000
   29.9862  -18.7150  -14.2539 C   0  0  0  0  0  0  0  0  0  0  0  0
   28.5410  -18.6726  -13.7768 C   0  0  1  0  0  0  0  0  0  0  0  0
   27.6497  -18.7755  -14.9679 C   0  0  0  0  0  0  0  0  0  0  0  0
   28.2724  -19.7067  -12.7262 C   0  0  0  0  0  0  0  0  0  0  0  0
   26.8182  -19.6398  -12.3289 C   0  0  2  0  0  0  0  0  0  0  0  0
   26.4621  -18.2785  -11.9930 N   0  0  0  0  0  0  0  0  0  0  0  0
   26.5127  -20.5022  -11.1682 C   0  0  0  0  0  0  0  0  0  0  0  0
   26.9059  -21.6916  -11.1753 O   0  0  0  0  0  0  0  0  0  0  0  0
   25.7842  -20.0551  -10.0192 N   0  0  0  0  0  0  0  0  0  0  0  0
   25.3099  -20.9355   -8.9997 C   0  0  1  0  0  0  0  0  0  0  0  0
   25.2644  -20.2702   -7.6563 C   0  0  0  0  0  0  0  0  0  0  0  0
   26.5203  -19.6224   -7.2478 C   0  0  0  0  0  0  0  0  0  0  0  0
   27.1091  -18.5114   -7.8552 C   0  0  0  0  0  0  0  0  0  0  0  0
   28.2573  -18.2233   -7.2220 N   0  0  0  0  0  0  0  0  0  0  0  0
   28.4495  -19.0963   -6.2233 C   0  0  0  0  0  0  0  0  0  0  0  0
   29.4875  -19.1739   -5.3100 C   0  0  0  0  0  0  0  0  0  0  0  0
   29.4229  -20.1811   -4.3704 C   0  0  0  0  0  0  0  0  0  0  0  0
   28.3675  -21.0677   -4.3483 C   0  0  0  0  0  0  0  0  0  0  0  0
   27.3576  -20.9635   -5.2657 C   0  0  0  0  0  0  0  0  0  0  0  0
   27.3736  -19.9729   -6.2292 C   0  0  0  0  0  0  0  0  0  0  0  0
   23.9753  -21.4783   -9.4159 C   0  0  0  0  0  0  0  0  0  0  0  0
   23.7171  -22.7144   -9.3379 O   0  0  0  0  0  0  0  0  0  0  0  0
   20.6305  -19.9871  -10.1374 C   0  0  0  0  0  0  0  0  0  0  0  0
   21.6469  -21.1225  -10.3216 C   0  0  2  0  0  0  0  0  0  0  0  0
   22.9336  -20.6424   -9.9166 N   0  0  0  0  0  0  0  0  0  0  0  0
   21.5600  -21.5459  -11.7209 C   0  0  0  0  0  0  0  0  0  0  0  0
   20.3790  -22.1672  -12.1291 O   0  0  0  0  0  0  0  0  0  0  0  0
   22.4442  -21.4058  -12.5946 O   0  0  0  0  0  0  0  0  0  0  0  0
  2  1  1  6
  2  3  1  0
  4  5  1  0
  4  2  1  0
  5  6  1  1
  7  8  2  0
  7  5  1  0
  9  7  1  0
 10  9  1  0
 11 12  1  0
 10 11  1  1
 12 13  2  0
 12 20  1  0
 13 14  1  0
 14 15  1  0
 15 16  2  0
 17 16  1  0
 18 17  2  0
 19 20  2  0
 19 18  1  0
 20 15  1  0
 21 22  2  0
 21 10  1  0
 24 23  1  6
 24 25  1  0
 25 21  1  0
 26 24  1  0
 27 26  1  0
 28 26  2  0
M  END
$$$$
