LWA.pdb
     RDKit          3D

 28 29  0  0  1  0  0  0  0  0999 V2000
   15.1475  -24.1013    3.2668 C   0  0  0  0  0  0  0  0  0  0  0  0
   15.0287  -22.5963    3.0687 C   0  0  1  0  0  0  0  0  0  0  0  0
   13.7743  -22.1330    3.7285 C   0  0  0  0  0  0  0  0  0  0  0  0
   16.2592  -21.8766    3.5301 C   0  0  0  0  0  0  0  0  0  0  0  0
   16.1044  -20.4028    3.2456 C   0  0  2  0  0  0  0  0  0  0  0  0
   16.1785  -20.1665    1.8203 N   0  0  0  0  0  0  0  0  0  0  0  0
   17.1458  -19.5902    3.9083 C   0  0  0  0  0  0  0  0  0  0  0  0
   18.3260  -19.6608    3.4942 O   0  0  0  0  0  0  0  0  0  0  0  0
   16.8850  -18.7145    5.0110 N   0  0  0  0  0  0  0  0  0  0  0  0
   17.9012  -17.9559    5.6677 C   0  0  1  0  0  0  0  0  0  0  0  0
   17.5308  -16.5081    5.7949 C   0  0  0  0  0  0  0  0  0  0  0  0
   17.8686  -15.6816    4.6258 C   0  0  0  0  0  0  0  0  0  0  0  0
   17.7045  -16.0430    3.2870 C   0  0  0  0  0  0  0  0  0  0  0  0
   18.1458  -15.0438    2.5065 N   0  0  0  0  0  0  0  0  0  0  0  0
   18.5929  -14.0399    3.2737 C   0  0  0  0  0  0  0  0  0  0  0  0
   19.1253  -12.8172    2.9007 C   0  0  0  0  0  0  0  0  0  0  0  0
   19.4979  -11.9594    3.9139 C   0  0  0  0  0  0  0  0  0  0  0  0
   19.3435  -12.3115    5.2379 C   0  0  0  0  0  0  0  0  0  0  0  0
   18.8142  -13.5280    5.5726 C   0  0  0  0  0  0  0  0  0  0  0  0
   18.4251  -14.4255    4.5963 C   0  0  0  0  0  0  0  0  0  0  0  0
   18.1939  -18.5913    6.9941 C   0  0  0  0  0  0  0  0  0  0  0  0
   17.2624  -18.9031    7.7915 O   0  0  0  0  0  0  0  0  0  0  0  0
   21.3513  -19.7306    8.7347 C   0  0  0  0  0  0  0  0  0  0  0  0
   19.8454  -19.4345    8.7058 C   0  0  2  0  0  0  0  0  0  0  0  0
   19.5226  -18.8774    7.4269 N   0  0  0  0  0  0  0  0  0  0  0  0
   19.5636  -18.5609    9.8470 C   0  0  0  0  0  0  0  0  0  0  0  0
   19.7097  -19.1075   11.1226 O   0  0  0  0  0  0  0  0  0  0  0  0
   19.2023  -17.3645    9.7939 O   0  0  0  0  0  0  0  0  0  0  0  0
  2  1  1  1
  2  3  1  0
  4  5  1  0
  4  2  1  0
  5  6  1  6
  7  8  2  0
  7  5  1  0
  9  7  1  0
 10  9  1  0
 11 12  1  0
 10 11  1  1
 12 13  2  0
 12 20  1  0
 13 14  1  0
 14 15  1  0
 15 16  2  0
 17 16  1  0
 18 17  2  0
 19 20  2  0
 19 18  1  0
 20 15  1  0
 21 22  2  0
 21 10  1  0
 24 23  1  6
 24 25  1  0
 25 21  1  0
 26 24  1  0
 27 26  1  0
 28 26  2  0
M  END
$$$$
