LWA.pdb
     RDKit          3D

 28 29  0  0  1  0  0  0  0  0999 V2000
   26.9755  -39.0604  -15.2544 C   0  0  0  0  0  0  0  0  0  0  0  0
   25.9742  -37.9170  -15.3456 C   0  0  1  0  0  0  0  0  0  0  0  0
   24.7129  -38.3421  -14.6734 C   0  0  0  0  0  0  0  0  0  0  0  0
   26.5435  -36.6366  -14.8148 C   0  0  0  0  0  0  0  0  0  0  0  0
   25.4349  -35.6214  -14.6825 C   0  0  2  0  0  0  0  0  0  0  0  0
   25.3854  -34.7900  -15.8654 N   0  0  0  0  0  0  0  0  0  0  0  0
   25.6116  -34.7470  -13.5043 C   0  0  0  0  0  0  0  0  0  0  0  0
   26.3806  -33.7617  -13.5893 O   0  0  0  0  0  0  0  0  0  0  0  0
   24.9482  -34.9599  -12.2531 N   0  0  0  0  0  0  0  0  0  0  0  0
   25.1232  -34.1113  -11.1180 C   0  0  1  0  0  0  0  0  0  0  0  0
   23.8149  -33.6184  -10.5751 C   0  0  0  0  0  0  0  0  0  0  0  0
   23.9284  -32.7331   -9.4058 C   0  0  0  0  0  0  0  0  0  0  0  0
   24.5838  -31.5006   -9.3668 C   0  0  0  0  0  0  0  0  0  0  0  0
   24.4972  -30.9977   -8.1251 N   0  0  0  0  0  0  0  0  0  0  0  0
   23.8126  -31.8456   -7.3449 C   0  0  0  0  0  0  0  0  0  0  0  0
   23.4766  -31.7335   -6.0063 C   0  0  0  0  0  0  0  0  0  0  0  0
   22.7473  -32.7649   -5.4535 C   0  0  0  0  0  0  0  0  0  0  0  0
   22.3730  -33.8564   -6.2079 C   0  0  0  0  0  0  0  0  0  0  0  0
   22.7216  -33.9364   -7.5286 C   0  0  0  0  0  0  0  0  0  0  0  0
   23.4526  -32.9306   -8.1318 C   0  0  0  0  0  0  0  0  0  0  0  0
   25.9308  -34.8450  -10.0892 C   0  0  0  0  0  0  0  0  0  0  0  0
   25.7486  -36.0776   -9.8697 O   0  0  0  0  0  0  0  0  0  0  0  0
   28.7268  -33.8552   -7.7405 C   0  0  0  0  0  0  0  0  0  0  0  0
   27.7455  -34.8743   -8.3358 C   0  0  2  0  0  0  0  0  0  0  0  0
   26.9382  -34.2033   -9.3095 N   0  0  0  0  0  0  0  0  0  0  0  0
   27.0032  -35.4530   -7.2137 C   0  0  0  0  0  0  0  0  0  0  0  0
   27.7107  -36.2725   -6.3333 O   0  0  0  0  0  0  0  0  0  0  0  0
   25.7893  -35.2856   -6.9622 O   0  0  0  0  0  0  0  0  0  0  0  0
  2  1  1  1
  2  3  1  0
  4  5  1  0
  4  2  1  0
  5  6  1  6
  7  8  2  0
  7  5  1  0
  9  7  1  0
 10  9  1  0
 11 12  1  0
 10 11  1  1
 12 13  2  0
 12 20  1  0
 13 14  1  0
 14 15  1  0
 15 16  2  0
 17 16  1  0
 18 17  2  0
 19 20  2  0
 19 18  1  0
 20 15  1  0
 21 22  2  0
 21 10  1  0
 24 23  1  1
 24 25  1  0
 25 21  1  0
 26 24  1  0
 27 26  1  0
 28 26  2  0
M  END
$$$$
