LWA.pdb
     RDKit          3D

 28 29  0  0  1  0  0  0  0  0999 V2000
   27.8327  -18.8749  -18.4777 C   0  0  0  0  0  0  0  0  0  0  0  0
   28.4719  -19.8448  -17.4933 C   0  0  1  0  0  0  0  0  0  0  0  0
   29.6946  -19.2044  -16.9292 C   0  0  0  0  0  0  0  0  0  0  0  0
   27.4948  -20.3074  -16.4558 C   0  0  0  0  0  0  0  0  0  0  0  0
   28.1975  -21.2355  -15.4957 C   0  0  2  0  0  0  0  0  0  0  0  0
   28.4164  -22.5199  -16.1243 N   0  0  0  0  0  0  0  0  0  0  0  0
   27.4252  -21.4492  -14.2540 C   0  0  0  0  0  0  0  0  0  0  0  0
   26.4082  -22.1798  -14.2896 O   0  0  0  0  0  0  0  0  0  0  0  0
   27.7729  -20.8637  -12.9941 N   0  0  0  0  0  0  0  0  0  0  0  0
   27.0028  -21.0455  -11.8053 C   0  0  1  0  0  0  0  0  0  0  0  0
   27.7522  -20.6213  -10.5774 C   0  0  0  0  0  0  0  0  0  0  0  0
   26.9376  -20.5461   -9.3548 C   0  0  0  0  0  0  0  0  0  0  0  0
   25.5600  -20.7584   -9.2690 C   0  0  0  0  0  0  0  0  0  0  0  0
   25.1677  -20.5794   -7.9977 N   0  0  0  0  0  0  0  0  0  0  0  0
   26.2277  -20.2589   -7.2426 C   0  0  0  0  0  0  0  0  0  0  0  0
   26.2934  -19.9959   -5.8846 C   0  0  0  0  0  0  0  0  0  0  0  0
   27.5345  -19.6997   -5.3619 C   0  0  0  0  0  0  0  0  0  0  0  0
   28.6558  -19.6691   -6.1632 C   0  0  0  0  0  0  0  0  0  0  0  0
   28.5563  -19.9336   -7.5020 C   0  0  0  0  0  0  0  0  0  0  0  0
   27.3363  -20.2353   -8.0770 C   0  0  0  0  0  0  0  0  0  0  0  0
   25.6998  -20.3196  -11.9609 C   0  0  0  0  0  0  0  0  0  0  0  0
   25.6584  -19.0579  -12.0457 O   0  0  0  0  0  0  0  0  0  0  0  0
   22.6135  -20.8714  -13.5705 C   0  0  0  0  0  0  0  0  0  0  0  0
   23.1928  -20.3517  -12.2475 C   0  0  2  0  0  0  0  0  0  0  0  0
   24.4485  -21.0015  -12.0219 N   0  0  0  0  0  0  0  0  0  0  0  0
   22.1802  -20.5939  -11.2175 C   0  0  0  0  0  0  0  0  0  0  0  0
   21.1892  -19.6250  -11.0541 O   0  0  0  0  0  0  0  0  0  0  0  0
   22.1127  -21.5895  -10.4632 O   0  0  0  0  0  0  0  0  0  0  0  0
  2  1  1  6
  2  3  1  0
  4  5  1  0
  4  2  1  0
  5  6  1  6
  7  8  2  0
  7  5  1  0
  9  7  1  0
 10  9  1  0
 11 12  1  0
 10 11  1  1
 12 13  2  0
 12 20  1  0
 13 14  1  0
 14 15  1  0
 15 16  2  0
 17 16  1  0
 18 17  2  0
 19 20  2  0
 19 18  1  0
 20 15  1  0
 21 22  2  0
 21 10  1  0
 24 23  1  6
 24 25  1  0
 25 21  1  0
 26 24  1  0
 27 26  1  0
 28 26  2  0
M  END
$$$$
