LWA.pdb
     RDKit          3D

 28 29  0  0  1  0  0  0  0  0999 V2000
   19.6978  -20.5874  -15.8225 C   0  0  0  0  0  0  0  0  0  0  0  0
   21.1514  -20.1536  -15.6916 C   0  0  1  0  0  0  0  0  0  0  0  0
   21.1917  -18.6658  -15.6017 C   0  0  0  0  0  0  0  0  0  0  0  0
   21.8385  -20.8495  -14.5563 C   0  0  0  0  0  0  0  0  0  0  0  0
   23.2551  -20.3405  -14.4508 C   0  0  2  0  0  0  0  0  0  0  0  0
   24.0072  -20.7322  -15.6230 N   0  0  0  0  0  0  0  0  0  0  0  0
   23.9510  -20.8595  -13.2548 C   0  0  0  0  0  0  0  0  0  0  0  0
   24.1064  -22.0964  -13.1317 O   0  0  0  0  0  0  0  0  0  0  0  0
   24.4660  -20.0231  -12.2126 N   0  0  0  0  0  0  0  0  0  0  0  0
   25.1615  -20.5287  -11.0725 C   0  0  1  0  0  0  0  0  0  0  0  0
   26.2814  -19.6256  -10.6487 C   0  0  0  0  0  0  0  0  0  0  0  0
   27.2997  -20.2645   -9.8009 C   0  0  0  0  0  0  0  0  0  0  0  0
   28.0501  -21.3963  -10.1266 C   0  0  0  0  0  0  0  0  0  0  0  0
   28.8574  -21.6976   -9.0971 N   0  0  0  0  0  0  0  0  0  0  0  0
   28.6713  -20.8126   -8.1079 C   0  0  0  0  0  0  0  0  0  0  0  0
   29.2900  -20.7318   -6.8717 C   0  0  0  0  0  0  0  0  0  0  0  0
   28.9068  -19.6974   -6.0443 C   0  0  0  0  0  0  0  0  0  0  0  0
   27.9488  -18.7878   -6.4385 C   0  0  0  0  0  0  0  0  0  0  0  0
   27.3564  -18.8963   -7.6671 C   0  0  0  0  0  0  0  0  0  0  0  0
   27.7033  -19.9145   -8.5348 C   0  0  0  0  0  0  0  0  0  0  0  0
   24.1710  -20.7685   -9.9724 C   0  0  0  0  0  0  0  0  0  0  0  0
   23.2890  -19.9080   -9.6853 O   0  0  0  0  0  0  0  0  0  0  0  0
   23.5909  -23.5926   -7.5224 C   0  0  0  0  0  0  0  0  0  0  0  0
   23.3002  -22.1922   -8.0795 C   0  0  2  0  0  0  0  0  0  0  0  0
   24.1662  -21.9656   -9.1969 N   0  0  0  0  0  0  0  0  0  0  0  0
   23.4682  -21.2515   -6.9695 C   0  0  0  0  0  0  0  0  0  0  0  0
   22.5048  -21.2744   -5.9602 O   0  0  0  0  0  0  0  0  0  0  0  0
   24.3954  -20.4229   -6.8332 O   0  0  0  0  0  0  0  0  0  0  0  0
  2  1  1  1
  2  3  1  0
  4  5  1  0
  4  2  1  0
  5  6  1  6
  7  8  2  0
  7  5  1  0
  9  7  1  0
 10  9  1  0
 11 12  1  0
 10 11  1  1
 12 13  2  0
 12 20  1  0
 13 14  1  0
 14 15  1  0
 15 16  2  0
 17 16  1  0
 18 17  2  0
 19 20  2  0
 19 18  1  0
 20 15  1  0
 21 22  2  0
 21 10  1  0
 24 23  1  1
 24 25  1  0
 25 21  1  0
 26 24  1  0
 27 26  1  0
 28 26  2  0
M  END
$$$$
