LWA.pdb
     RDKit          3D

 28 29  0  0  1  0  0  0  0  0999 V2000
   30.5322  -23.8623  -16.0213 C   0  0  0  0  0  0  0  0  0  0  0  0
   29.9769  -23.0352  -17.1728 C   0  0  1  0  0  0  0  0  0  0  0  0
   30.0935  -23.8356  -18.4254 C   0  0  0  0  0  0  0  0  0  0  0  0
   28.5878  -22.5504  -16.8889 C   0  0  0  0  0  0  0  0  0  0  0  0
   28.1637  -21.6011  -17.9826 C   0  0  2  0  0  0  0  0  0  0  0  0
   29.0890  -20.4915  -18.0569 N   0  0  0  0  0  0  0  0  0  0  0  0
   26.8053  -21.0621  -17.7631 C   0  0  0  0  0  0  0  0  0  0  0  0
   26.6430  -20.1492  -16.9208 O   0  0  0  0  0  0  0  0  0  0  0  0
   25.6461  -21.5262  -18.4644 N   0  0  0  0  0  0  0  0  0  0  0  0
   24.3375  -20.9940  -18.2556 C   0  0  1  0  0  0  0  0  0  0  0  0
   23.4263  -21.2660  -19.4154 C   0  0  0  0  0  0  0  0  0  0  0  0
   22.0720  -20.7083  -19.2777 C   0  0  0  0  0  0  0  0  0  0  0  0
   21.7483  -19.3570  -19.1388 C   0  0  0  0  0  0  0  0  0  0  0  0
   20.4170  -19.2362  -19.0154 N   0  0  0  0  0  0  0  0  0  0  0  0
   19.8501  -20.4496  -19.0676 C   0  0  0  0  0  0  0  0  0  0  0  0
   18.5126  -20.7999  -18.9910 C   0  0  0  0  0  0  0  0  0  0  0  0
   18.2087  -22.1416  -19.0857 C   0  0  0  0  0  0  0  0  0  0  0  0
   19.1993  -23.0862  -19.2496 C   0  0  0  0  0  0  0  0  0  0  0  0
   20.5119  -22.7064  -19.3212 C   0  0  0  0  0  0  0  0  0  0  0  0
   20.8713  -21.3750  -19.2312 C   0  0  0  0  0  0  0  0  0  0  0  0
   23.7990  -21.5345  -16.9646 C   0  0  0  0  0  0  0  0  0  0  0  0
   24.1347  -22.6789  -16.5422 O   0  0  0  0  0  0  0  0  0  0  0  0
   23.5357  -21.2491  -13.8771 C   0  0  0  0  0  0  0  0  0  0  0  0
   22.3846  -21.2631  -14.8923 C   0  0  2  0  0  0  0  0  0  0  0  0
   22.8895  -20.7982  -16.1489 N   0  0  0  0  0  0  0  0  0  0  0  0
   21.3075  -20.4505  -14.3227 C   0  0  0  0  0  0  0  0  0  0  0  0
   21.0254  -19.2343  -14.9462 O   0  0  0  0  0  0  0  0  0  0  0  0
   20.6088  -20.7384  -13.3259 O   0  0  0  0  0  0  0  0  0  0  0  0
  2  1  1  1
  2  3  1  0
  4  5  1  0
  4  2  1  0
  5  6  1  1
  7  8  2  0
  7  5  1  0
  9  7  1  0
 10  9  1  0
 11 12  1  0
 10 11  1  6
 12 13  2  0
 12 20  1  0
 13 14  1  0
 14 15  1  0
 15 16  2  0
 17 16  1  0
 18 17  2  0
 19 20  2  0
 19 18  1  0
 20 15  1  0
 21 22  2  0
 21 10  1  0
 24 23  1  1
 24 25  1  0
 25 21  1  0
 26 24  1  0
 27 26  1  0
 28 26  2  0
M  END
$$$$
