LWA.pdb
     RDKit          3D

 28 29  0  0  1  0  0  0  0  0999 V2000
   42.4429  -25.7650    3.4406 C   0  0  0  0  0  0  0  0  0  0  0  0
   41.0536  -26.2796    3.7916 C   0  0  1  0  0  0  0  0  0  0  0  0
   41.1909  -27.6487    4.3663 C   0  0  0  0  0  0  0  0  0  0  0  0
   40.3132  -25.3218    4.6745 C   0  0  0  0  0  0  0  0  0  0  0  0
   38.9383  -25.8750    4.9586 C   0  0  2  0  0  0  0  0  0  0  0  0
   38.2357  -26.1089    3.7159 N   0  0  0  0  0  0  0  0  0  0  0  0
   38.1260  -24.9618    5.7894 C   0  0  0  0  0  0  0  0  0  0  0  0
   38.5541  -24.6243    6.9173 O   0  0  0  0  0  0  0  0  0  0  0  0
   36.8609  -24.4312    5.3783 N   0  0  0  0  0  0  0  0  0  0  0  0
   36.0971  -23.5212    6.1706 C   0  0  1  0  0  0  0  0  0  0  0  0
   35.0683  -22.7923    5.3583 C   0  0  0  0  0  0  0  0  0  0  0  0
   34.2123  -21.8766    6.1282 C   0  0  0  0  0  0  0  0  0  0  0  0
   34.4855  -21.3676    7.3995 C   0  0  0  0  0  0  0  0  0  0  0  0
   33.4642  -20.5874    7.7875 N   0  0  0  0  0  0  0  0  0  0  0  0
   32.5306  -20.5603    6.8262 C   0  0  0  0  0  0  0  0  0  0  0  0
   31.3226  -19.8842    6.7916 C   0  0  0  0  0  0  0  0  0  0  0  0
   30.5542  -20.0295    5.6559 C   0  0  0  0  0  0  0  0  0  0  0  0
   30.9777  -20.8154    4.6053 C   0  0  0  0  0  0  0  0  0  0  0  0
   32.1771  -21.4705    4.6716 C   0  0  0  0  0  0  0  0  0  0  0  0
   32.9856  -21.3596    5.7870 C   0  0  0  0  0  0  0  0  0  0  0  0
   35.4931  -24.2733    7.3189 C   0  0  0  0  0  0  0  0  0  0  0  0
   34.8257  -25.3316    7.1308 O   0  0  0  0  0  0  0  0  0  0  0  0
   35.5822  -23.8648   11.0757 C   0  0  0  0  0  0  0  0  0  0  0  0
   35.0603  -24.5254    9.7922 C   0  0  2  0  0  0  0  0  0  0  0  0
   35.6354  -23.8443    8.6717 N   0  0  0  0  0  0  0  0  0  0  0  0
   33.5979  -24.4795    9.8566 C   0  0  0  0  0  0  0  0  0  0  0  0
   32.9443  -25.6022   10.3661 O   0  0  0  0  0  0  0  0  0  0  0  0
   32.8691  -23.5279    9.4983 O   0  0  0  0  0  0  0  0  0  0  0  0
  2  1  1  1
  2  3  1  0
  4  5  1  0
  4  2  1  0
  5  6  1  6
  7  8  2  0
  7  5  1  0
  9  7  1  0
 10  9  1  0
 11 12  1  0
 10 11  1  6
 12 13  2  0
 12 20  1  0
 13 14  1  0
 14 15  1  0
 15 16  2  0
 17 16  1  0
 18 17  2  0
 19 20  2  0
 19 18  1  0
 20 15  1  0
 21 22  2  0
 21 10  1  0
 24 23  1  1
 24 25  1  0
 25 21  1  0
 26 24  1  0
 27 26  1  0
 28 26  2  0
M  END
$$$$
