LWA.pdb
     RDKit          3D

 28 29  0  0  1  0  0  0  0  0999 V2000
   27.7454  -15.4671  -16.4998 C   0  0  0  0  0  0  0  0  0  0  0  0
   26.2926  -15.2064  -16.1259 C   0  0  1  0  0  0  0  0  0  0  0  0
   26.2273  -14.9235  -14.6633 C   0  0  0  0  0  0  0  0  0  0  0  0
   25.6830  -14.1362  -16.9793 C   0  0  0  0  0  0  0  0  0  0  0  0
   24.2269  -13.9838  -16.6138 C   0  0  2  0  0  0  0  0  0  0  0  0
   23.6016  -15.2857  -16.5307 N   0  0  0  0  0  0  0  0  0  0  0  0
   23.4827  -13.1705  -17.5981 C   0  0  0  0  0  0  0  0  0  0  0  0
   23.7946  -11.9669  -17.7512 O   0  0  0  0  0  0  0  0  0  0  0  0
   22.4113  -13.6813  -18.3994 N   0  0  0  0  0  0  0  0  0  0  0  0
   21.6493  -12.8736  -19.2974 C   0  0  1  0  0  0  0  0  0  0  0  0
   21.1032  -13.6686  -20.4460 C   0  0  0  0  0  0  0  0  0  0  0  0
   20.3520  -12.8821  -21.4365 C   0  0  0  0  0  0  0  0  0  0  0  0
   20.8814  -11.9120  -22.2903 C   0  0  0  0  0  0  0  0  0  0  0  0
   19.8899  -11.3936  -23.0322 N   0  0  0  0  0  0  0  0  0  0  0  0
   18.7306  -11.9810  -22.7041 C   0  0  0  0  0  0  0  0  0  0  0  0
   17.4610  -11.7680  -23.2144 C   0  0  0  0  0  0  0  0  0  0  0  0
   16.4385  -12.5318  -22.6924 C   0  0  0  0  0  0  0  0  0  0  0  0
   16.6784  -13.4645  -21.7060 C   0  0  0  0  0  0  0  0  0  0  0  0
   17.9451  -13.6500  -21.2233 C   0  0  0  0  0  0  0  0  0  0  0  0
   19.0059  -12.9105  -21.7111 C   0  0  0  0  0  0  0  0  0  0  0  0
   20.5733  -12.1752  -18.5208 C   0  0  0  0  0  0  0  0  0  0  0  0
   19.8401  -11.2967  -19.0608 O   0  0  0  0  0  0  0  0  0  0  0  0
   18.8112  -12.7476  -15.2945 C   0  0  0  0  0  0  0  0  0  0  0  0
   19.3394  -11.7732  -16.3565 C   0  0  2  0  0  0  0  0  0  0  0  0
   20.3177  -12.4581  -17.1463 N   0  0  0  0  0  0  0  0  0  0  0  0
   19.8392  -10.5971  -15.6410 C   0  0  0  0  0  0  0  0  0  0  0  0
   21.2090  -10.3401  -15.7106 O   0  0  0  0  0  0  0  0  0  0  0  0
   19.1571   -9.7927  -14.9683 O   0  0  0  0  0  0  0  0  0  0  0  0
  2  1  1  6
  2  3  1  0
  4  5  1  0
  4  2  1  0
  5  6  1  6
  7  8  2  0
  7  5  1  0
  9  7  1  0
 10  9  1  0
 11 12  1  0
 10 11  1  6
 12 13  2  0
 12 20  1  0
 13 14  1  0
 14 15  1  0
 15 16  2  0
 17 16  1  0
 18 17  2  0
 19 20  2  0
 19 18  1  0
 20 15  1  0
 21 22  2  0
 21 10  1  0
 24 23  1  1
 24 25  1  0
 25 21  1  0
 26 24  1  0
 27 26  1  0
 28 26  2  0
M  END
$$$$
