LWA.pdb
     RDKit          3D

 28 29  0  0  1  0  0  0  0  0999 V2000
   26.9125  -17.4287  -16.7080 C   0  0  0  0  0  0  0  0  0  0  0  0
   27.7024  -18.5224  -16.0021 C   0  0  1  0  0  0  0  0  0  0  0  0
   28.9359  -17.9142  -15.4261 C   0  0  0  0  0  0  0  0  0  0  0  0
   26.8626  -19.2560  -15.0012 C   0  0  0  0  0  0  0  0  0  0  0  0
   27.7391  -20.2087  -14.2258 C   0  0  2  0  0  0  0  0  0  0  0  0
   28.0402  -21.3695  -15.0350 N   0  0  0  0  0  0  0  0  0  0  0  0
   27.1016  -20.6656  -12.9732 C   0  0  0  0  0  0  0  0  0  0  0  0
   26.0617  -21.3609  -13.0396 O   0  0  0  0  0  0  0  0  0  0  0  0
   27.6070  -20.3577  -11.6691 N   0  0  0  0  0  0  0  0  0  0  0  0
   26.9667  -20.7718  -10.4617 C   0  0  1  0  0  0  0  0  0  0  0  0
   27.7999  -20.4742   -9.2506 C   0  0  0  0  0  0  0  0  0  0  0  0
   27.0942  -20.6182   -7.9679 C   0  0  0  0  0  0  0  0  0  0  0  0
   25.8920  -21.2979   -7.7615 C   0  0  0  0  0  0  0  0  0  0  0  0
   25.5461  -21.1929   -6.4686 N   0  0  0  0  0  0  0  0  0  0  0  0
   26.4690  -20.4737   -5.8148 C   0  0  0  0  0  0  0  0  0  0  0  0
   26.5255  -20.1233   -4.4763 C   0  0  0  0  0  0  0  0  0  0  0  0
   27.6107  -19.3769   -4.0681 C   0  0  0  0  0  0  0  0  0  0  0  0
   28.5921  -19.0003   -4.9602 C   0  0  0  0  0  0  0  0  0  0  0  0
   28.5058  -19.3629   -6.2767 C   0  0  0  0  0  0  0  0  0  0  0  0
   27.4389  -20.1103   -6.7385 C   0  0  0  0  0  0  0  0  0  0  0  0
   25.6102  -20.1361  -10.3945 C   0  0  0  0  0  0  0  0  0  0  0  0
   25.4760  -18.9014  -10.1534 O   0  0  0  0  0  0  0  0  0  0  0  0
   22.4112  -20.7347  -11.9276 C   0  0  0  0  0  0  0  0  0  0  0  0
   23.1025  -20.2922  -10.6306 C   0  0  2  0  0  0  0  0  0  0  0  0
   24.4087  -20.8778  -10.5965 N   0  0  0  0  0  0  0  0  0  0  0  0
   22.2231  -20.6838   -9.5269 C   0  0  0  0  0  0  0  0  0  0  0  0
   20.9900  -20.0374   -9.4312 O   0  0  0  0  0  0  0  0  0  0  0  0
   22.4669  -21.5462   -8.6542 O   0  0  0  0  0  0  0  0  0  0  0  0
  2  1  1  1
  2  3  1  0
  4  5  1  0
  4  2  1  0
  5  6  1  6
  7  8  2  0
  7  5  1  0
  9  7  1  0
 10  9  1  0
 11 12  1  0
 10 11  1  1
 12 13  2  0
 12 20  1  0
 13 14  1  0
 14 15  1  0
 15 16  2  0
 17 16  1  0
 18 17  2  0
 19 20  2  0
 19 18  1  0
 20 15  1  0
 21 22  2  0
 21 10  1  0
 24 23  1  6
 24 25  1  0
 25 21  1  0
 26 24  1  0
 27 26  1  0
 28 26  2  0
M  END
$$$$
