LWA.pdb
     RDKit          3D

 28 29  0  0  1  0  0  0  0  0999 V2000
   29.0616  -20.4376   -5.6545 C   0  0  0  0  0  0  0  0  0  0  0  0
   27.6276  -20.2725   -6.1387 C   0  0  1  0  0  0  0  0  0  0  0  0
   27.0125  -19.1292   -5.4052 C   0  0  0  0  0  0  0  0  0  0  0  0
   27.5561  -20.1464   -7.6300 C   0  0  0  0  0  0  0  0  0  0  0  0
   26.1148  -19.9721   -8.0417 C   0  0  2  0  0  0  0  0  0  0  0  0
   25.3321  -21.0984   -7.5813 N   0  0  0  0  0  0  0  0  0  0  0  0
   25.9583  -19.8629   -9.5071 C   0  0  0  0  0  0  0  0  0  0  0  0
   26.5398  -18.9328  -10.1122 O   0  0  0  0  0  0  0  0  0  0  0  0
   25.1712  -20.7680  -10.2895 N   0  0  0  0  0  0  0  0  0  0  0  0
   25.0235  -20.6569  -11.7055 C   0  0  1  0  0  0  0  0  0  0  0  0
   25.8782  -21.6458  -12.4411 C   0  0  0  0  0  0  0  0  0  0  0  0
   27.1576  -21.1091  -12.9302 C   0  0  0  0  0  0  0  0  0  0  0  0
   28.4264  -21.4390  -12.4493 C   0  0  0  0  0  0  0  0  0  0  0  0
   29.3475  -20.7319  -13.1230 N   0  0  0  0  0  0  0  0  0  0  0  0
   28.7399  -19.9511  -14.0272 C   0  0  0  0  0  0  0  0  0  0  0  0
   29.2918  -19.0680  -14.9399 C   0  0  0  0  0  0  0  0  0  0  0  0
   28.4193  -18.3944  -15.7682 C   0  0  0  0  0  0  0  0  0  0  0  0
   27.0582  -18.5973  -15.6849 C   0  0  0  0  0  0  0  0  0  0  0  0
   26.5450  -19.4771  -14.7713 C   0  0  0  0  0  0  0  0  0  0  0  0
   27.3752  -20.1776  -13.9167 C   0  0  0  0  0  0  0  0  0  0  0  0
   23.5697  -20.7887  -12.0490 C   0  0  0  0  0  0  0  0  0  0  0  0
   22.8370  -21.6491  -11.4801 O   0  0  0  0  0  0  0  0  0  0  0  0
   21.5131  -21.2013  -14.5126 C   0  0  0  0  0  0  0  0  0  0  0  0
   21.5744  -20.1087  -13.4363 C   0  0  2  0  0  0  0  0  0  0  0  0
   22.9376  -19.9615  -13.0241 N   0  0  0  0  0  0  0  0  0  0  0  0
   20.6494  -20.5086  -12.3736 C   0  0  0  0  0  0  0  0  0  0  0  0
   19.8514  -19.5114  -11.8112 O   0  0  0  0  0  0  0  0  0  0  0  0
   20.5007  -21.6629  -11.9151 O   0  0  0  0  0  0  0  0  0  0  0  0
  2  1  1  6
  2  3  1  0
  4  5  1  0
  4  2  1  0
  5  6  1  6
  7  8  2  0
  7  5  1  0
  9  7  1  0
 10  9  1  0
 11 12  1  0
 10 11  1  6
 12 13  2  0
 12 20  1  0
 13 14  1  0
 14 15  1  0
 15 16  2  0
 17 16  1  0
 18 17  2  0
 19 20  2  0
 19 18  1  0
 20 15  1  0
 21 22  2  0
 21 10  1  0
 24 23  1  6
 24 25  1  0
 25 21  1  0
 26 24  1  0
 27 26  1  0
 28 26  2  0
M  END
$$$$
