LWA.pdb
     RDKit          3D

 28 29  0  0  1  0  0  0  0  0999 V2000
   27.0812  -17.0531  -16.0142 C   0  0  0  0  0  0  0  0  0  0  0  0
   27.9154  -17.8672  -15.0346 C   0  0  1  0  0  0  0  0  0  0  0  0
   28.7677  -16.9284  -14.2498 C   0  0  0  0  0  0  0  0  0  0  0  0
   27.0622  -18.7635  -14.1898 C   0  0  0  0  0  0  0  0  0  0  0  0
   27.9484  -19.5537  -13.2585 C   0  0  2  0  0  0  0  0  0  0  0  0
   28.8214  -20.4165  -14.0243 N   0  0  0  0  0  0  0  0  0  0  0  0
   27.1724  -20.3900  -12.3192 C   0  0  0  0  0  0  0  0  0  0  0  0
   26.8769  -21.5614  -12.6508 O   0  0  0  0  0  0  0  0  0  0  0  0
   26.7307  -19.9369  -11.0344 N   0  0  0  0  0  0  0  0  0  0  0  0
   25.8393  -20.6817  -10.2038 C   0  0  1  0  0  0  0  0  0  0  0  0
   25.9806  -20.3174   -8.7557 C   0  0  0  0  0  0  0  0  0  0  0  0
   27.3109  -20.5758   -8.1834 C   0  0  0  0  0  0  0  0  0  0  0  0
   28.3393  -21.3034   -8.7860 C   0  0  0  0  0  0  0  0  0  0  0  0
   29.3915  -21.3461   -7.9535 N   0  0  0  0  0  0  0  0  0  0  0  0
   29.1006  -20.6775   -6.8289 C   0  0  0  0  0  0  0  0  0  0  0  0
   29.8841  -20.4568   -5.7086 C   0  0  0  0  0  0  0  0  0  0  0  0
   29.3266  -19.7148   -4.6889 C   0  0  0  0  0  0  0  0  0  0  0  0
   28.0445  -19.2179   -4.7885 C   0  0  0  0  0  0  0  0  0  0  0  0
   27.2965  -19.4544   -5.9095 C   0  0  0  0  0  0  0  0  0  0  0  0
   27.8069  -20.1927   -6.9604 C   0  0  0  0  0  0  0  0  0  0  0  0
   24.4400  -20.4918  -10.7086 C   0  0  0  0  0  0  0  0  0  0  0  0
   23.8669  -19.3657  -10.6436 O   0  0  0  0  0  0  0  0  0  0  0  0
   22.0581  -22.6184  -12.7009 C   0  0  0  0  0  0  0  0  0  0  0  0
   22.3616  -21.4062  -11.8096 C   0  0  2  0  0  0  0  0  0  0  0  0
   23.6850  -21.5563  -11.2842 N   0  0  0  0  0  0  0  0  0  0  0  0
   21.3016  -21.3463  -10.8007 C   0  0  0  0  0  0  0  0  0  0  0  0
   20.0106  -21.0584  -11.2454 O   0  0  0  0  0  0  0  0  0  0  0  0
   21.4371  -21.5287   -9.5706 O   0  0  0  0  0  0  0  0  0  0  0  0
  2  1  1  6
  2  3  1  0
  4  5  1  0
  4  2  1  0
  5  6  1  6
  7  8  2  0
  7  5  1  0
  9  7  1  0
 10  9  1  0
 11 12  1  0
 10 11  1  1
 12 13  2  0
 12 20  1  0
 13 14  1  0
 14 15  1  0
 15 16  2  0
 17 16  1  0
 18 17  2  0
 19 20  2  0
 19 18  1  0
 20 15  1  0
 21 22  2  0
 21 10  1  0
 24 23  1  6
 24 25  1  0
 25 21  1  0
 26 24  1  0
 27 26  1  0
 28 26  2  0
M  END
$$$$
