LWA.pdb
     RDKit          3D

 28 29  0  0  1  0  0  0  0  0999 V2000
   31.4058  -21.8570  -19.0035 C   0  0  0  0  0  0  0  0  0  0  0  0
   29.9700  -21.4280  -18.7338 C   0  0  1  0  0  0  0  0  0  0  0  0
   29.1573  -21.7151  -19.9506 C   0  0  0  0  0  0  0  0  0  0  0  0
   29.4303  -22.0503  -17.4822 C   0  0  0  0  0  0  0  0  0  0  0  0
   28.0117  -21.5812  -17.2703 C   0  0  2  0  0  0  0  0  0  0  0  0
   27.9154  -20.1646  -17.5478 N   0  0  0  0  0  0  0  0  0  0  0  0
   27.5415  -21.8195  -15.8897 C   0  0  0  0  0  0  0  0  0  0  0  0
   27.6107  -22.9771  -15.4159 O   0  0  0  0  0  0  0  0  0  0  0  0
   27.0036  -20.7934  -15.0479 N   0  0  0  0  0  0  0  0  0  0  0  0
   26.5787  -21.0237  -13.7041 C   0  0  1  0  0  0  0  0  0  0  0  0
   27.1089  -19.9866  -12.7592 C   0  0  0  0  0  0  0  0  0  0  0  0
   27.7433  -20.5261  -11.5466 C   0  0  0  0  0  0  0  0  0  0  0  0
   28.9182  -21.2793  -11.4977 C   0  0  0  0  0  0  0  0  0  0  0  0
   29.1715  -21.6131  -10.2223 N   0  0  0  0  0  0  0  0  0  0  0  0
   28.2143  -21.1117   -9.4293 C   0  0  0  0  0  0  0  0  0  0  0  0
   28.0753  -21.1996   -8.0544 C   0  0  0  0  0  0  0  0  0  0  0  0
   26.9845  -20.5707   -7.4922 C   0  0  0  0  0  0  0  0  0  0  0  0
   26.0770  -19.8863   -8.2723 C   0  0  0  0  0  0  0  0  0  0  0  0
   26.2435  -19.8188   -9.6287 C   0  0  0  0  0  0  0  0  0  0  0  0
   27.3189  -20.4320  -10.2430 C   0  0  0  0  0  0  0  0  0  0  0  0
   25.0816  -21.1081  -13.6811 C   0  0  0  0  0  0  0  0  0  0  0  0
   24.3647  -20.1543  -14.1018 O   0  0  0  0  0  0  0  0  0  0  0  0
   22.5783  -23.8044  -12.8728 C   0  0  0  0  0  0  0  0  0  0  0  0
   22.9665  -22.3296  -13.0467 C   0  0  2  0  0  0  0  0  0  0  0  0
   24.3891  -22.2545  -13.1904 N   0  0  0  0  0  0  0  0  0  0  0  0
   22.4254  -21.6102  -11.8914 C   0  0  0  0  0  0  0  0  0  0  0  0
   21.0382  -21.4820  -11.8099 O   0  0  0  0  0  0  0  0  0  0  0  0
   23.0859  -21.0947  -10.9626 O   0  0  0  0  0  0  0  0  0  0  0  0
  2  1  1  6
  2  3  1  0
  4  5  1  0
  4  2  1  0
  5  6  1  1
  7  8  2  0
  7  5  1  0
  9  7  1  0
 10  9  1  0
 11 12  1  0
 10 11  1  1
 12 13  2  0
 12 20  1  0
 13 14  1  0
 14 15  1  0
 15 16  2  0
 17 16  1  0
 18 17  2  0
 19 20  2  0
 19 18  1  0
 20 15  1  0
 21 22  2  0
 21 10  1  0
 24 23  1  1
 24 25  1  0
 25 21  1  0
 26 24  1  0
 27 26  1  0
 28 26  2  0
M  END
$$$$
