AHK.pdb
     RDKit          3D

 25 25  0  0  1  0  0  0  0  0999 V2000
   18.2608  -14.8604  -16.2922 C   0  0  0  0  0  0  0  0  0  0  0  0
   18.6596  -13.8800  -17.3493 C   0  0  2  0  0  0  0  0  0  0  0  0
   19.5366  -14.5514  -18.2886 N   0  0  0  0  0  0  0  0  0  0  0  0
   19.4329  -12.7709  -16.7198 C   0  0  0  0  0  0  0  0  0  0  0  0
   19.7318  -12.8196  -15.4848 O   0  0  0  0  0  0  0  0  0  0  0  0
   19.8050  -11.6974  -17.5427 N   0  0  0  0  0  0  0  0  0  0  0  0
   20.6637  -10.6196  -17.0099 C   0  0  1  0  0  0  0  0  0  0  0  0
   21.3195   -9.8971  -18.1384 C   0  0  0  0  0  0  0  0  0  0  0  0
   22.0861   -8.7050  -17.8097 C   0  0  0  0  0  0  0  0  0  0  0  0
   21.8990   -7.3641  -17.9569 C   0  0  0  0  0  0  0  0  0  0  0  0
   22.9426   -6.6916  -17.4039 N   0  0  0  0  0  0  0  0  0  0  0  0
   23.7736   -7.5934  -16.9147 C   0  0  0  0  0  0  0  0  0  0  0  0
   23.2846   -8.8152  -17.1438 N   0  0  0  0  0  0  0  0  0  0  0  0
   19.6993   -9.7268  -16.2765 C   0  0  0  0  0  0  0  0  0  0  0  0
   18.5294   -9.5738  -16.6984 O   0  0  0  0  0  0  0  0  0  0  0  0
   20.1120   -9.0546  -15.1049 N   0  0  0  0  0  0  0  0  0  0  0  0
   19.1937   -8.1571  -14.3699 C   0  0  1  0  0  0  0  0  0  0  0  0
   18.6576   -8.8596  -13.1552 C   0  0  0  0  0  0  0  0  0  0  0  0
   17.6591   -8.0084  -12.4308 C   0  0  0  0  0  0  0  0  0  0  0  0
   17.1085   -8.6939  -11.2257 C   0  0  0  0  0  0  0  0  0  0  0  0
   16.0290   -7.8694  -10.5421 C   0  0  0  0  0  0  0  0  0  0  0  0
   15.5232   -8.6502   -9.4244 N   0  0  0  0  0  0  0  0  0  0  0  0
   19.8625   -6.8717  -14.0845 C   0  0  0  0  0  0  0  0  0  0  0  0
   19.0796   -5.7282  -13.9963 O   0  0  0  0  0  0  0  0  0  0  0  0
   21.0920   -6.7100  -13.9108 O   0  0  0  0  0  0  0  0  0  0  0  0
  2  4  1  0
  2  1  1  1
  3  2  1  0
  4  5  2  0
  6  7  1  0
  6  4  1  0
  7  8  1  6
  9  8  1  0
 10  9  2  0
 11 12  1  0
 11 10  1  0
 12 13  2  0
 13  9  1  0
 14 15  2  0
 14  7  1  0
 16 14  1  0
 17 16  1  0
 17 23  1  0
 17 18  1  1
 19 20  1  0
 19 18  1  0
 21 20  1  0
 22 21  1  0
 23 25  2  0
 23 24  1  0
M  END
$$$$
