AHK.pdb
     RDKit          3D

 25 25  0  0  1  0  0  0  0  0999 V2000
   25.1227  -22.8556  -17.6012 C   0  0  0  0  0  0  0  0  0  0  0  0
   25.8101  -22.7403  -16.2776 C   0  0  2  0  0  0  0  0  0  0  0  0
   26.5267  -23.9753  -16.0252 N   0  0  0  0  0  0  0  0  0  0  0  0
   24.7841  -22.5843  -15.2066 C   0  0  0  0  0  0  0  0  0  0  0  0
   24.2951  -23.6093  -14.6345 O   0  0  0  0  0  0  0  0  0  0  0  0
   24.3968  -21.2783  -14.8712 N   0  0  0  0  0  0  0  0  0  0  0  0
   23.4473  -21.0497  -13.7626 C   0  0  1  0  0  0  0  0  0  0  0  0
   23.9996  -20.0215  -12.8335 C   0  0  0  0  0  0  0  0  0  0  0  0
   24.5051  -20.4862  -11.5508 C   0  0  0  0  0  0  0  0  0  0  0  0
   25.6619  -21.0601  -11.1180 C   0  0  0  0  0  0  0  0  0  0  0  0
   25.6111  -21.2361   -9.7713 N   0  0  0  0  0  0  0  0  0  0  0  0
   24.4421  -20.7796   -9.3612 C   0  0  0  0  0  0  0  0  0  0  0  0
   23.7540  -20.3212  -10.4104 N   0  0  0  0  0  0  0  0  0  0  0  0
   22.2072  -20.5510  -14.4544 C   0  0  0  0  0  0  0  0  0  0  0  0
   22.2906  -19.9427  -15.5467 O   0  0  0  0  0  0  0  0  0  0  0  0
   20.9391  -20.7674  -13.8714 N   0  0  0  0  0  0  0  0  0  0  0  0
   19.7338  -20.9686  -14.7056 C   0  0  1  0  0  0  0  0  0  0  0  0
   19.8957  -22.2028  -15.5465 C   0  0  0  0  0  0  0  0  0  0  0  0
   20.3188  -21.8583  -16.9424 C   0  0  0  0  0  0  0  0  0  0  0  0
   20.5029  -23.0737  -17.7877 C   0  0  0  0  0  0  0  0  0  0  0  0
   20.9361  -22.7255  -19.2031 C   0  0  0  0  0  0  0  0  0  0  0  0
   21.1102  -23.9742  -19.9277 N   0  0  0  0  0  0  0  0  0  0  0  0
   18.5245  -20.9635  -13.8579 C   0  0  0  0  0  0  0  0  0  0  0  0
   17.3366  -20.5022  -14.4096 O   0  0  0  0  0  0  0  0  0  0  0  0
   18.4656  -21.3424  -12.6660 O   0  0  0  0  0  0  0  0  0  0  0  0
  2  4  1  0
  2  1  1  6
  3  2  1  0
  4  5  2  0
  6  7  1  0
  6  4  1  0
  7  8  1  1
  9  8  1  0
 10  9  2  0
 11 12  1  0
 11 10  1  0
 12 13  2  0
 13  9  1  0
 14 15  2  0
 14  7  1  0
 16 14  1  0
 17 16  1  0
 17 23  1  0
 17 18  1  1
 19 20  1  0
 19 18  1  0
 21 20  1  0
 22 21  1  0
 23 25  2  0
 23 24  1  0
M  END
$$$$
