AHK.pdb
     RDKit          3D

 25 25  0  0  1  0  0  0  0  0999 V2000
   16.0477  -13.8052  -18.4426 C   0  0  0  0  0  0  0  0  0  0  0  0
   17.3842  -13.1940  -18.1636 C   0  0  2  0  0  0  0  0  0  0  0  0
   18.0653  -14.0128  -17.1798 N   0  0  0  0  0  0  0  0  0  0  0  0
   17.1874  -11.8404  -17.5693 C   0  0  0  0  0  0  0  0  0  0  0  0
   16.6444  -10.9147  -18.2512 O   0  0  0  0  0  0  0  0  0  0  0  0
   17.6219  -11.6473  -16.2494 N   0  0  0  0  0  0  0  0  0  0  0  0
   17.5015  -10.3172  -15.6178 C   0  0  1  0  0  0  0  0  0  0  0  0
   16.6611  -10.4198  -14.3895 C   0  0  0  0  0  0  0  0  0  0  0  0
   15.2646  -10.0279  -14.5036 C   0  0  0  0  0  0  0  0  0  0  0  0
   14.4496   -9.6395  -15.5233 C   0  0  0  0  0  0  0  0  0  0  0  0
   13.1890   -9.4443  -15.0545 N   0  0  0  0  0  0  0  0  0  0  0  0
   13.2080   -9.7067  -13.7608 C   0  0  0  0  0  0  0  0  0  0  0  0
   14.4444  -10.0611  -13.3999 N   0  0  0  0  0  0  0  0  0  0  0  0
   18.9224   -9.9549  -15.2788 C   0  0  0  0  0  0  0  0  0  0  0  0
   19.7499  -10.8459  -14.9763 O   0  0  0  0  0  0  0  0  0  0  0  0
   19.3296   -8.6027  -15.2999 N   0  0  0  0  0  0  0  0  0  0  0  0
   20.7552   -8.2273  -15.1737 C   0  0  1  0  0  0  0  0  0  0  0  0
   21.4893   -8.5808  -16.4356 C   0  0  0  0  0  0  0  0  0  0  0  0
   22.9442   -8.2354  -16.3335 C   0  0  0  0  0  0  0  0  0  0  0  0
   23.6805   -8.5339  -17.5962 C   0  0  0  0  0  0  0  0  0  0  0  0
   25.1516   -8.1606  -17.5021 C   0  0  0  0  0  0  0  0  0  0  0  0
   25.7750   -8.5137  -18.7676 N   0  0  0  0  0  0  0  0  0  0  0  0
   20.8723   -6.8093  -14.7778 C   0  0  0  0  0  0  0  0  0  0  0  0
   21.8610   -6.4602  -13.8674 O   0  0  0  0  0  0  0  0  0  0  0  0
   20.1519   -5.8727  -15.1920 O   0  0  0  0  0  0  0  0  0  0  0  0
  2  4  1  0
  2  1  1  1
  3  2  1  0
  4  5  2  0
  6  7  1  0
  6  4  1  0
  7  8  1  1
  9  8  1  0
 10  9  2  0
 11 12  1  0
 11 10  1  0
 12 13  2  0
 13  9  1  0
 14 15  2  0
 14  7  1  0
 16 14  1  0
 17 16  1  0
 17 23  1  0
 17 18  1  6
 19 20  1  0
 19 18  1  0
 21 20  1  0
 22 21  1  0
 23 25  2  0
 23 24  1  0
M  END
$$$$
