AHK.pdb
     RDKit          3D

 25 25  0  0  1  0  0  0  0  0999 V2000
   24.7466  -13.5856  -15.8714 C   0  0  0  0  0  0  0  0  0  0  0  0
   25.9977  -14.3729  -15.6420 C   0  0  2  0  0  0  0  0  0  0  0  0
   27.0910  -13.7016  -16.3176 N   0  0  0  0  0  0  0  0  0  0  0  0
   25.8448  -15.7228  -16.2574 C   0  0  0  0  0  0  0  0  0  0  0  0
   24.8696  -15.9641  -17.0369 O   0  0  0  0  0  0  0  0  0  0  0  0
   26.8110  -16.6888  -15.9390 N   0  0  0  0  0  0  0  0  0  0  0  0
   26.7683  -18.0182  -16.5821 C   0  0  1  0  0  0  0  0  0  0  0  0
   27.9267  -18.1632  -17.5108 C   0  0  0  0  0  0  0  0  0  0  0  0
   27.8166  -17.5309  -18.8165 C   0  0  0  0  0  0  0  0  0  0  0  0
   26.8577  -16.8139  -19.4657 C   0  0  0  0  0  0  0  0  0  0  0  0
   27.3266  -16.4112  -20.6761 N   0  0  0  0  0  0  0  0  0  0  0  0
   28.5611  -16.8654  -20.7881 C   0  0  0  0  0  0  0  0  0  0  0  0
   28.8843  -17.5435  -19.6835 N   0  0  0  0  0  0  0  0  0  0  0  0
   26.8720  -18.9758  -15.4256 C   0  0  0  0  0  0  0  0  0  0  0  0
   27.8575  -18.9335  -14.6528 O   0  0  0  0  0  0  0  0  0  0  0  0
   25.8543  -19.9303  -15.2070 N   0  0  0  0  0  0  0  0  0  0  0  0
   25.8691  -20.8110  -14.0181 C   0  0  1  0  0  0  0  0  0  0  0  0
   25.8822  -19.9792  -12.7674 C   0  0  0  0  0  0  0  0  0  0  0  0
   25.7424  -20.8340  -11.5442 C   0  0  0  0  0  0  0  0  0  0  0  0
   25.6740  -20.0191  -10.2965 C   0  0  0  0  0  0  0  0  0  0  0  0
   25.6260  -20.8869   -9.0487 C   0  0  0  0  0  0  0  0  0  0  0  0
   25.6349  -19.9991   -7.8970 N   0  0  0  0  0  0  0  0  0  0  0  0
   24.7581  -21.7812  -14.0928 C   0  0  0  0  0  0  0  0  0  0  0  0
   23.5973  -21.4024  -14.7541 O   0  0  0  0  0  0  0  0  0  0  0  0
   24.7618  -22.9356  -13.6077 O   0  0  0  0  0  0  0  0  0  0  0  0
  2  4  1  0
  2  1  1  6
  3  2  1  0
  4  5  2  0
  6  7  1  0
  6  4  1  0
  7  8  1  6
  9  8  1  0
 10  9  2  0
 11 12  1  0
 11 10  1  0
 12 13  2  0
 13  9  1  0
 14 15  2  0
 14  7  1  0
 16 14  1  0
 17 16  1  0
 17 23  1  0
 17 18  1  1
 19 20  1  0
 19 18  1  0
 21 20  1  0
 22 21  1  0
 23 25  2  0
 23 24  1  0
M  END
$$$$
