AHK.pdb
     RDKit          3D

 25 25  0  0  1  0  0  0  0  0999 V2000
   28.7490  -20.7622  -16.1672 C   0  0  0  0  0  0  0  0  0  0  0  0
   27.3340  -20.3085  -15.9959 C   0  0  2  0  0  0  0  0  0  0  0  0
   27.3377  -18.8780  -15.7592 N   0  0  0  0  0  0  0  0  0  0  0  0
   26.7529  -20.9662  -14.7901 C   0  0  0  0  0  0  0  0  0  0  0  0
   26.5992  -22.2281  -14.7608 O   0  0  0  0  0  0  0  0  0  0  0  0
   26.3943  -20.1390  -13.7152 N   0  0  0  0  0  0  0  0  0  0  0  0
   25.6832  -20.7054  -12.5507 C   0  0  1  0  0  0  0  0  0  0  0  0
   26.4260  -20.3741  -11.3000 C   0  0  0  0  0  0  0  0  0  0  0  0
   27.8160  -20.7960  -11.2197 C   0  0  0  0  0  0  0  0  0  0  0  0
   28.6900  -21.4113  -12.0637 C   0  0  0  0  0  0  0  0  0  0  0  0
   29.9089  -21.5097  -11.4705 N   0  0  0  0  0  0  0  0  0  0  0  0
   29.8059  -20.9642  -10.2726 C   0  0  0  0  0  0  0  0  0  0  0  0
   28.5571  -20.5252  -10.0930 N   0  0  0  0  0  0  0  0  0  0  0  0
   24.3424  -20.0229  -12.5868 C   0  0  0  0  0  0  0  0  0  0  0  0
   24.2640  -18.7872  -12.7793 O   0  0  0  0  0  0  0  0  0  0  0  0
   23.1622  -20.7765  -12.4023 N   0  0  0  0  0  0  0  0  0  0  0  0
   21.8731  -20.3404  -12.9828 C   0  0  1  0  0  0  0  0  0  0  0  0
   22.0313  -20.1064  -14.4582 C   0  0  0  0  0  0  0  0  0  0  0  0
   20.7686  -19.5710  -15.0625 C   0  0  0  0  0  0  0  0  0  0  0  0
   20.8935  -19.3721  -16.5357 C   0  0  0  0  0  0  0  0  0  0  0  0
   19.6334  -18.7732  -17.1407 C   0  0  0  0  0  0  0  0  0  0  0  0
   19.8790  -18.5780  -18.5606 N   0  0  0  0  0  0  0  0  0  0  0  0
   20.8079  -21.3002  -12.6292 C   0  0  0  0  0  0  0  0  0  0  0  0
   21.0146  -22.6446  -12.9085 O   0  0  0  0  0  0  0  0  0  0  0  0
   19.7144  -21.0131  -12.0909 O   0  0  0  0  0  0  0  0  0  0  0  0
  2  4  1  0
  2  1  1  1
  3  2  1  0
  4  5  2  0
  6  7  1  0
  6  4  1  0
  7  8  1  1
  9  8  1  0
 10  9  2  0
 11 12  1  0
 11 10  1  0
 12 13  2  0
 13  9  1  0
 14 15  2  0
 14  7  1  0
 16 14  1  0
 17 16  1  0
 17 23  1  0
 17 18  1  6
 19 20  1  0
 19 18  1  0
 21 20  1  0
 22 21  1  0
 23 25  2  0
 23 24  1  0
M  END
$$$$
