AHK.pdb
     RDKit          3D

 25 25  0  0  1  0  0  0  0  0999 V2000
   24.7566  -13.8539  -20.8762 C   0  0  0  0  0  0  0  0  0  0  0  0
   24.2688  -12.4612  -20.6311 C   0  0  2  0  0  0  0  0  0  0  0  0
   25.2379  -11.5336  -21.1814 N   0  0  0  0  0  0  0  0  0  0  0  0
   24.1954  -12.2213  -19.1610 C   0  0  0  0  0  0  0  0  0  0  0  0
   23.4818  -12.9734  -18.4246 O   0  0  0  0  0  0  0  0  0  0  0  0
   24.9379  -11.1484  -18.6458 N   0  0  0  0  0  0  0  0  0  0  0  0
   24.8127  -10.7784  -17.2209 C   0  0  1  0  0  0  0  0  0  0  0  0
   26.1698  -10.5882  -16.6313 C   0  0  0  0  0  0  0  0  0  0  0  0
   26.9480  -11.7853  -16.3519 C   0  0  0  0  0  0  0  0  0  0  0  0
   26.7617  -13.1228  -16.5287 C   0  0  0  0  0  0  0  0  0  0  0  0
   27.8707  -13.7978  -16.1269 N   0  0  0  0  0  0  0  0  0  0  0  0
   28.7428  -12.9009  -15.7048 C   0  0  0  0  0  0  0  0  0  0  0  0
   28.2156  -11.6798  -15.8283 N   0  0  0  0  0  0  0  0  0  0  0  0
   24.0460   -9.4837  -17.2561 C   0  0  0  0  0  0  0  0  0  0  0  0
   24.2849   -8.6283  -18.1400 O   0  0  0  0  0  0  0  0  0  0  0  0
   23.0504   -9.2272  -16.2878 N   0  0  0  0  0  0  0  0  0  0  0  0
   22.2567   -7.9788  -16.3136 C   0  0  1  0  0  0  0  0  0  0  0  0
   21.1655   -8.0894  -17.3400 C   0  0  0  0  0  0  0  0  0  0  0  0
   20.3284   -6.8468  -17.3800 C   0  0  0  0  0  0  0  0  0  0  0  0
   19.2681   -6.9194  -18.4269 C   0  0  0  0  0  0  0  0  0  0  0  0
   18.4345   -5.6490  -18.4855 C   0  0  0  0  0  0  0  0  0  0  0  0
   17.5075   -5.7842  -19.5977 N   0  0  0  0  0  0  0  0  0  0  0  0
   21.7828   -7.6518  -14.9537 C   0  0  0  0  0  0  0  0  0  0  0  0
   21.4261   -6.3380  -14.6796 O   0  0  0  0  0  0  0  0  0  0  0  0
   21.6692   -8.4608  -14.0048 O   0  0  0  0  0  0  0  0  0  0  0  0
  2  4  1  0
  2  1  1  1
  3  2  1  0
  4  5  2  0
  6  7  1  0
  6  4  1  0
  7  8  1  6
  9  8  1  0
 10  9  2  0
 11 12  1  0
 11 10  1  0
 12 13  2  0
 13  9  1  0
 14 15  2  0
 14  7  1  0
 16 14  1  0
 17 16  1  0
 17 23  1  0
 17 18  1  6
 19 20  1  0
 19 18  1  0
 21 20  1  0
 22 21  1  0
 23 25  2  0
 23 24  1  0
M  END
$$$$
