AHK.pdb
     RDKit          3D

 25 25  0  0  1  0  0  0  0  0999 V2000
   27.1909  -22.3439  -16.7047 C   0  0  0  0  0  0  0  0  0  0  0  0
   26.1579  -21.7422  -17.6038 C   0  0  2  0  0  0  0  0  0  0  0  0
   26.8293  -21.1771  -18.7581 N   0  0  0  0  0  0  0  0  0  0  0  0
   25.4750  -20.6277  -16.8857 C   0  0  0  0  0  0  0  0  0  0  0  0
   26.1586  -19.7382  -16.2869 O   0  0  0  0  0  0  0  0  0  0  0  0
   24.0724  -20.6124  -16.9059 N   0  0  0  0  0  0  0  0  0  0  0  0
   23.3336  -19.5498  -16.1932 C   0  0  1  0  0  0  0  0  0  0  0  0
   22.4956  -18.7855  -17.1623 C   0  0  0  0  0  0  0  0  0  0  0  0
   23.1400  -17.7036  -17.8910 C   0  0  0  0  0  0  0  0  0  0  0  0
   24.3944  -17.1745  -17.9265 C   0  0  0  0  0  0  0  0  0  0  0  0
   24.4493  -16.1856  -18.8572 N   0  0  0  0  0  0  0  0  0  0  0  0
   23.2497  -16.0933  -19.4008 C   0  0  0  0  0  0  0  0  0  0  0  0
   22.4397  -16.9950  -18.8394 N   0  0  0  0  0  0  0  0  0  0  0  0
   22.4801  -20.3075  -15.2120 C   0  0  0  0  0  0  0  0  0  0  0  0
   21.9000  -21.3630  -15.5577 O   0  0  0  0  0  0  0  0  0  0  0  0
   22.3291  -19.8285  -13.8919 N   0  0  0  0  0  0  0  0  0  0  0  0
   21.4897  -20.5443  -12.9059 C   0  0  1  0  0  0  0  0  0  0  0  0
   21.9838  -20.2628  -11.5156 C   0  0  0  0  0  0  0  0  0  0  0  0
   23.3064  -20.9217  -11.2645 C   0  0  0  0  0  0  0  0  0  0  0  0
   23.8110  -20.6571   -9.8858 C   0  0  0  0  0  0  0  0  0  0  0  0
   25.1799  -21.2757   -9.6494 C   0  0  0  0  0  0  0  0  0  0  0  0
   25.5693  -20.9686   -8.2824 N   0  0  0  0  0  0  0  0  0  0  0  0
   20.0654  -20.2204  -13.1233 C   0  0  0  0  0  0  0  0  0  0  0  0
   19.7503  -19.0047  -13.7159 O   0  0  0  0  0  0  0  0  0  0  0  0
   19.0948  -20.9506  -12.8190 O   0  0  0  0  0  0  0  0  0  0  0  0
  2  4  1  0
  2  1  1  1
  3  2  1  0
  4  5  2  0
  6  7  1  0
  6  4  1  0
  7  8  1  6
  9  8  1  0
 10  9  2  0
 11 12  1  0
 11 10  1  0
 12 13  2  0
 13  9  1  0
 14 15  2  0
 14  7  1  0
 16 14  1  0
 17 16  1  0
 17 23  1  0
 17 18  1  1
 19 20  1  0
 19 18  1  0
 21 20  1  0
 22 21  1  0
 23 25  2  0
 23 24  1  0
M  END
$$$$
