AHK.pdb
     RDKit          3D

 25 25  0  0  1  0  0  0  0  0999 V2000
   20.5174  -10.7892  -20.6612 C   0  0  0  0  0  0  0  0  0  0  0  0
   21.8170  -10.6523  -19.9332 C   0  0  2  0  0  0  0  0  0  0  0  0
   22.4496  -11.9557  -19.8774 N   0  0  0  0  0  0  0  0  0  0  0  0
   21.5482  -10.2182  -18.5319 C   0  0  0  0  0  0  0  0  0  0  0  0
   20.3614  -10.2268  -18.0757 O   0  0  0  0  0  0  0  0  0  0  0  0
   22.6478   -9.8104  -17.7620 N   0  0  0  0  0  0  0  0  0  0  0  0
   22.4767   -9.5183  -16.3239 C   0  0  1  0  0  0  0  0  0  0  0  0
   23.4583  -10.3136  -15.5306 C   0  0  0  0  0  0  0  0  0  0  0  0
   23.2427  -11.7504  -15.4522 C   0  0  0  0  0  0  0  0  0  0  0  0
   22.3113  -12.6162  -15.9396 C   0  0  0  0  0  0  0  0  0  0  0  0
   22.6423  -13.8884  -15.5945 N   0  0  0  0  0  0  0  0  0  0  0  0
   23.7647  -13.8263  -14.9022 C   0  0  0  0  0  0  0  0  0  0  0  0
   24.1508  -12.5516  -14.8001 N   0  0  0  0  0  0  0  0  0  0  0  0
   22.7610   -8.0437  -16.2247 C   0  0  0  0  0  0  0  0  0  0  0  0
   23.7347   -7.5425  -16.8337 O   0  0  0  0  0  0  0  0  0  0  0  0
   21.9277   -7.2160  -15.4404 N   0  0  0  0  0  0  0  0  0  0  0  0
   22.1472   -5.7548  -15.3650 C   0  0  1  0  0  0  0  0  0  0  0  0
   21.2341   -5.0515  -16.3283 C   0  0  0  0  0  0  0  0  0  0  0  0
   21.4162   -3.5652  -16.2641 C   0  0  0  0  0  0  0  0  0  0  0  0
   20.5098   -2.8488  -17.2078 C   0  0  0  0  0  0  0  0  0  0  0  0
   20.7690   -1.3504  -17.2231 C   0  0  0  0  0  0  0  0  0  0  0  0
   19.9212   -0.7696  -18.2519 N   0  0  0  0  0  0  0  0  0  0  0  0
   22.0271   -5.2961  -13.9664 C   0  0  0  0  0  0  0  0  0  0  0  0
   22.7272   -4.1592  -13.5847 O   0  0  0  0  0  0  0  0  0  0  0  0
   21.3413   -5.8441  -13.0736 O   0  0  0  0  0  0  0  0  0  0  0  0
  2  4  1  0
  2  1  1  6
  3  2  1  0
  4  5  2  0
  6  7  1  0
  6  4  1  0
  7  8  1  1
  9  8  1  0
 10  9  2  0
 11 12  1  0
 11 10  1  0
 12 13  2  0
 13  9  1  0
 14 15  2  0
 14  7  1  0
 16 14  1  0
 17 16  1  0
 17 23  1  0
 17 18  1  6
 19 20  1  0
 19 18  1  0
 21 20  1  0
 22 21  1  0
 23 25  2  0
 23 24  1  0
M  END
$$$$
