AHK.pdb
     RDKit          3D

 25 25  0  0  1  0  0  0  0  0999 V2000
   29.4532  -21.2158  -16.9286 C   0  0  0  0  0  0  0  0  0  0  0  0
   28.0419  -20.7231  -16.8738 C   0  0  2  0  0  0  0  0  0  0  0  0
   28.0659  -19.2773  -16.7659 N   0  0  0  0  0  0  0  0  0  0  0  0
   27.3852  -21.2586  -15.6464 C   0  0  0  0  0  0  0  0  0  0  0  0
   27.3047  -22.5137  -15.4594 O   0  0  0  0  0  0  0  0  0  0  0  0
   26.8741  -20.3266  -14.7308 N   0  0  0  0  0  0  0  0  0  0  0  0
   26.2764  -20.7881  -13.4610 C   0  0  1  0  0  0  0  0  0  0  0  0
   26.9574  -20.1196  -12.3143 C   0  0  0  0  0  0  0  0  0  0  0  0
   28.1366  -20.7731  -11.7674 C   0  0  0  0  0  0  0  0  0  0  0  0
   28.8433  -21.8989  -12.0644 C   0  0  0  0  0  0  0  0  0  0  0  0
   29.9184  -21.9970  -11.2388 N   0  0  0  0  0  0  0  0  0  0  0  0
   29.8912  -20.9499  -10.4352 C   0  0  0  0  0  0  0  0  0  0  0  0
   28.8296  -20.1944  -10.7298 N   0  0  0  0  0  0  0  0  0  0  0  0
   24.8382  -20.3579  -13.5684 C   0  0  0  0  0  0  0  0  0  0  0  0
   24.5496  -19.1820  -13.8912 O   0  0  0  0  0  0  0  0  0  0  0  0
   23.8039  -21.2825  -13.3036 N   0  0  0  0  0  0  0  0  0  0  0  0
   22.3801  -20.8971  -13.4195 C   0  0  1  0  0  0  0  0  0  0  0  0
   21.5900  -22.0332  -14.0037 C   0  0  0  0  0  0  0  0  0  0  0  0
   20.1337  -21.6916  -14.0974 C   0  0  0  0  0  0  0  0  0  0  0  0
   19.3158  -22.8493  -14.5624 C   0  0  0  0  0  0  0  0  0  0  0  0
   17.8577  -22.4719  -14.7715 C   0  0  0  0  0  0  0  0  0  0  0  0
   17.1471  -23.6750  -15.1743 N   0  0  0  0  0  0  0  0  0  0  0  0
   21.8790  -20.4128  -12.1174 C   0  0  0  0  0  0  0  0  0  0  0  0
   20.7434  -19.6137  -12.1056 O   0  0  0  0  0  0  0  0  0  0  0  0
   22.3892  -20.6582  -11.0005 O   0  0  0  0  0  0  0  0  0  0  0  0
  2  4  1  0
  2  1  1  1
  3  2  1  0
  4  5  2  0
  6  7  1  0
  6  4  1  0
  7  8  1  1
  9  8  1  0
 10  9  2  0
 11 12  1  0
 11 10  1  0
 12 13  2  0
 13  9  1  0
 14 15  2  0
 14  7  1  0
 16 14  1  0
 17 16  1  0
 17 23  1  0
 17 18  1  1
 19 20  1  0
 19 18  1  0
 21 20  1  0
 22 21  1  0
 23 25  2  0
 23 24  1  0
M  END
$$$$
