AHK.pdb
     RDKit          3D

 25 25  0  0  1  0  0  0  0  0999 V2000
   21.6188  -13.6362  -20.0832 C   0  0  0  0  0  0  0  0  0  0  0  0
   21.5113  -13.6878  -18.5921 C   0  0  2  0  0  0  0  0  0  0  0  0
   21.0205  -14.9986  -18.2138 N   0  0  0  0  0  0  0  0  0  0  0  0
   20.5091  -12.6803  -18.1397 C   0  0  0  0  0  0  0  0  0  0  0  0
   19.5273  -12.3738  -18.8874 O   0  0  0  0  0  0  0  0  0  0  0  0
   20.7016  -12.1031  -16.8757 N   0  0  0  0  0  0  0  0  0  0  0  0
   19.7312  -11.1174  -16.3567 C   0  0  1  0  0  0  0  0  0  0  0  0
   19.0605  -11.6657  -15.1422 C   0  0  0  0  0  0  0  0  0  0  0  0
   17.8860  -12.4990  -15.3492 C   0  0  0  0  0  0  0  0  0  0  0  0
   17.2179  -12.9752  -16.4362 C   0  0  0  0  0  0  0  0  0  0  0  0
   16.1945  -13.7733  -16.0326 N   0  0  0  0  0  0  0  0  0  0  0  0
   16.2175  -13.8012  -14.7129 C   0  0  0  0  0  0  0  0  0  0  0  0
   17.2255  -13.0433  -14.2724 N   0  0  0  0  0  0  0  0  0  0  0  0
   20.5836   -9.9240  -16.0182 C   0  0  0  0  0  0  0  0  0  0  0  0
   21.7203  -10.0783  -15.5139 O   0  0  0  0  0  0  0  0  0  0  0  0
   20.1024   -8.6199  -16.2684 N   0  0  0  0  0  0  0  0  0  0  0  0
   20.9374   -7.4281  -16.0010 C   0  0  1  0  0  0  0  0  0  0  0  0
   20.6789   -6.3796  -17.0451 C   0  0  0  0  0  0  0  0  0  0  0  0
   21.5259   -5.1643  -16.8171 C   0  0  0  0  0  0  0  0  0  0  0  0
   21.2611   -4.0996  -17.8278 C   0  0  0  0  0  0  0  0  0  0  0  0
   22.1633   -2.8908  -17.6347 C   0  0  0  0  0  0  0  0  0  0  0  0
   21.6563   -2.1433  -16.4951 N   0  0  0  0  0  0  0  0  0  0  0  0
   20.7337   -6.9682  -14.6125 C   0  0  0  0  0  0  0  0  0  0  0  0
   19.4849   -7.1546  -14.0344 O   0  0  0  0  0  0  0  0  0  0  0  0
   21.5954   -6.4154  -13.8916 O   0  0  0  0  0  0  0  0  0  0  0  0
  2  4  1  0
  2  1  1  6
  3  2  1  0
  4  5  2  0
  6  7  1  0
  6  4  1  0
  7  8  1  1
  9  8  1  0
 10  9  2  0
 11 12  1  0
 11 10  1  0
 12 13  2  0
 13  9  1  0
 14 15  2  0
 14  7  1  0
 16 14  1  0
 17 16  1  0
 17 23  1  0
 17 18  1  6
 19 20  1  0
 19 18  1  0
 21 20  1  0
 22 21  1  0
 23 25  2  0
 23 24  1  0
M  END
$$$$
