AHK.pdb
     RDKit          3D

 25 25  0  0  1  0  0  0  0  0999 V2000
   30.8332  -26.3994  -19.7933 C   0  0  0  0  0  0  0  0  0  0  0  0
   30.7463  -25.2860  -18.7982 C   0  0  2  0  0  0  0  0  0  0  0  0
   31.0971  -25.8106  -17.4928 N   0  0  0  0  0  0  0  0  0  0  0  0
   29.3373  -24.8021  -18.7288 C   0  0  0  0  0  0  0  0  0  0  0  0
   28.5759  -25.1820  -17.7839 O   0  0  0  0  0  0  0  0  0  0  0  0
   28.9070  -23.9259  -19.7364 N   0  0  0  0  0  0  0  0  0  0  0  0
   27.5401  -23.3665  -19.6966 C   0  0  1  0  0  0  0  0  0  0  0  0
   27.5996  -21.9240  -19.3212 C   0  0  0  0  0  0  0  0  0  0  0  0
   27.6779  -21.6077  -17.9033 C   0  0  0  0  0  0  0  0  0  0  0  0
   27.6926  -22.3325  -16.7504 C   0  0  0  0  0  0  0  0  0  0  0  0
   27.8409  -21.4998  -15.6866 N   0  0  0  0  0  0  0  0  0  0  0  0
   27.9197  -20.2701  -16.1606 C   0  0  0  0  0  0  0  0  0  0  0  0
   27.8249  -20.3031  -17.4926 N   0  0  0  0  0  0  0  0  0  0  0  0
   27.0424  -23.5443  -21.1058 C   0  0  0  0  0  0  0  0  0  0  0  0
   27.7990  -23.3207  -22.0793 O   0  0  0  0  0  0  0  0  0  0  0  0
   25.7141  -23.9651  -21.3367 N   0  0  0  0  0  0  0  0  0  0  0  0
   25.1755  -24.0916  -22.7090 C   0  0  1  0  0  0  0  0  0  0  0  0
   23.9303  -24.9315  -22.6927 C   0  0  0  0  0  0  0  0  0  0  0  0
   23.4345  -25.1963  -24.0821 C   0  0  0  0  0  0  0  0  0  0  0  0
   22.2028  -26.0379  -24.0862 C   0  0  0  0  0  0  0  0  0  0  0  0
   21.7460  -26.3761  -25.4966 C   0  0  0  0  0  0  0  0  0  0  0  0
   20.5463  -27.1903  -25.3852 N   0  0  0  0  0  0  0  0  0  0  0  0
   25.0001  -22.7538  -23.3095 C   0  0  0  0  0  0  0  0  0  0  0  0
   24.6487  -21.6998  -22.4764 O   0  0  0  0  0  0  0  0  0  0  0  0
   25.1404  -22.4724  -24.5215 O   0  0  0  0  0  0  0  0  0  0  0  0
  2  4  1  0
  2  1  1  6
  3  2  1  0
  4  5  2  0
  6  7  1  0
  6  4  1  0
  7  8  1  6
  9  8  1  0
 10  9  2  0
 11 12  1  0
 11 10  1  0
 12 13  2  0
 13  9  1  0
 14 15  2  0
 14  7  1  0
 16 14  1  0
 17 16  1  0
 17 23  1  0
 17 18  1  1
 19 20  1  0
 19 18  1  0
 21 20  1  0
 22 21  1  0
 23 25  2  0
 23 24  1  0
M  END
$$$$
