AHK.pdb
     RDKit          3D

 25 25  0  0  1  0  0  0  0  0999 V2000
   15.5438  -11.6382  -14.5186 C   0  0  0  0  0  0  0  0  0  0  0  0
   16.5021  -10.6024  -15.0148 C   0  0  2  0  0  0  0  0  0  0  0  0
   17.5061  -11.2601  -15.8282 N   0  0  0  0  0  0  0  0  0  0  0  0
   17.1970   -9.9823  -13.8500 C   0  0  0  0  0  0  0  0  0  0  0  0
   17.6855  -10.7144  -12.9322 O   0  0  0  0  0  0  0  0  0  0  0  0
   17.2820   -8.5823  -13.8215 N   0  0  0  0  0  0  0  0  0  0  0  0
   18.0553   -7.9094  -12.7575 C   0  0  1  0  0  0  0  0  0  0  0  0
   19.0511   -6.9833  -13.3708 C   0  0  0  0  0  0  0  0  0  0  0  0
   20.2159   -7.5827  -14.0038 C   0  0  0  0  0  0  0  0  0  0  0  0
   20.6564   -8.8547  -14.2111 C   0  0  0  0  0  0  0  0  0  0  0  0
   21.8117   -8.8295  -14.9265 N   0  0  0  0  0  0  0  0  0  0  0  0
   22.0946   -7.5627  -15.1678 C   0  0  0  0  0  0  0  0  0  0  0  0
   21.1514   -6.7881  -14.6247 N   0  0  0  0  0  0  0  0  0  0  0  0
   17.0099   -7.1524  -11.9833 C   0  0  0  0  0  0  0  0  0  0  0  0
   15.9123   -6.8631  -12.5140 O   0  0  0  0  0  0  0  0  0  0  0  0
   17.2641   -6.7632  -10.6496 N   0  0  0  0  0  0  0  0  0  0  0  0
   16.2625   -6.0080   -9.8651 C   0  0  1  0  0  0  0  0  0  0  0  0
   15.0040   -6.8170   -9.7312 C   0  0  0  0  0  0  0  0  0  0  0  0
   14.0257   -6.1528   -8.8102 C   0  0  0  0  0  0  0  0  0  0  0  0
   12.7634   -6.9361   -8.6750 C   0  0  0  0  0  0  0  0  0  0  0  0
   11.7432   -6.2293   -7.7963 C   0  0  0  0  0  0  0  0  0  0  0  0
   10.5332   -7.0359   -7.7941 N   0  0  0  0  0  0  0  0  0  0  0  0
   16.8476   -5.5745   -8.5803 C   0  0  0  0  0  0  0  0  0  0  0  0
   17.9933   -6.2166   -8.1294 O   0  0  0  0  0  0  0  0  0  0  0  0
   16.4016   -4.6657   -7.8434 O   0  0  0  0  0  0  0  0  0  0  0  0
  2  4  1  0
  2  1  1  1
  3  2  1  0
  4  5  2  0
  6  7  1  0
  6  4  1  0
  7  8  1  6
  9  8  1  0
 10  9  2  0
 11 12  1  0
 11 10  1  0
 12 13  2  0
 13  9  1  0
 14 15  2  0
 14  7  1  0
 16 14  1  0
 17 16  1  0
 17 23  1  0
 17 18  1  1
 19 20  1  0
 19 18  1  0
 21 20  1  0
 22 21  1  0
 23 25  2  0
 23 24  1  0
M  END
$$$$
