AHK.pdb
     RDKit          3D

 25 25  0  0  1  0  0  0  0  0999 V2000
   25.0634   -9.3842  -21.4242 C   0  0  0  0  0  0  0  0  0  0  0  0
   23.6065   -9.6882  -21.2738 C   0  0  2  0  0  0  0  0  0  0  0  0
   23.0742   -8.8609  -20.2087 N   0  0  0  0  0  0  0  0  0  0  0  0
   23.4448  -11.1133  -20.8651 C   0  0  0  0  0  0  0  0  0  0  0  0
   23.8715  -12.0468  -21.6157 O   0  0  0  0  0  0  0  0  0  0  0  0
   22.8129  -11.3635  -19.6378 N   0  0  0  0  0  0  0  0  0  0  0  0
   22.6307  -12.7527  -19.1689 C   0  0  1  0  0  0  0  0  0  0  0  0
   23.2797  -12.9212  -17.8363 C   0  0  0  0  0  0  0  0  0  0  0  0
   24.7053  -13.2114  -17.8220 C   0  0  0  0  0  0  0  0  0  0  0  0
   25.6772  -13.3309  -18.7685 C   0  0  0  0  0  0  0  0  0  0  0  0
   26.8752  -13.5617  -18.1697 N   0  0  0  0  0  0  0  0  0  0  0  0
   26.6628  -13.5860  -16.8669 C   0  0  0  0  0  0  0  0  0  0  0  0
   25.3654  -13.3778  -16.6267 N   0  0  0  0  0  0  0  0  0  0  0  0
   21.1362  -12.9014  -19.0715 C   0  0  0  0  0  0  0  0  0  0  0  0
   20.4354  -11.9758  -18.5999 O   0  0  0  0  0  0  0  0  0  0  0  0
   20.5157  -14.0910  -19.5127 N   0  0  0  0  0  0  0  0  0  0  0  0
   19.0549  -14.2888  -19.3854 C   0  0  1  0  0  0  0  0  0  0  0  0
   18.6373  -15.5121  -20.1506 C   0  0  0  0  0  0  0  0  0  0  0  0
   18.7525  -16.7463  -19.3082 C   0  0  0  0  0  0  0  0  0  0  0  0
   18.2871  -17.9644  -20.0330 C   0  0  0  0  0  0  0  0  0  0  0  0
   18.3038  -19.1991  -19.1455 C   0  0  0  0  0  0  0  0  0  0  0  0
   17.8903  -20.3301  -19.9607 N   0  0  0  0  0  0  0  0  0  0  0  0
   18.6676  -14.3001  -17.9603 C   0  0  0  0  0  0  0  0  0  0  0  0
   17.3405  -14.0494  -17.6374 O   0  0  0  0  0  0  0  0  0  0  0  0
   19.4356  -14.5182  -16.9957 O   0  0  0  0  0  0  0  0  0  0  0  0
  2  4  1  0
  2  1  1  1
  3  2  1  0
  4  5  2  0
  6  7  1  0
  6  4  1  0
  7  8  1  1
  9  8  1  0
 10  9  2  0
 11 12  1  0
 11 10  1  0
 12 13  2  0
 13  9  1  0
 14 15  2  0
 14  7  1  0
 16 14  1  0
 17 16  1  0
 17 23  1  0
 17 18  1  1
 19 20  1  0
 19 18  1  0
 21 20  1  0
 22 21  1  0
 23 25  2  0
 23 24  1  0
M  END
$$$$
