NPF.pdb
     RDKit          3D

 27 28  0  0  1  0  0  0  0  0999 V2000
    9.9216  -15.5458   16.1622 N   0  0  0  0  0  0  0  0  0  0  0  0
   10.4935  -15.3236   17.4445 C   0  0  0  0  0  0  0  0  0  0  0  0
   11.5257  -15.9856   17.7700 O   0  0  0  0  0  0  0  0  0  0  0  0
    9.9650  -14.3669   18.4389 C   0  0  0  0  0  0  0  0  0  0  0  0
    8.4516  -14.3035   18.4395 C   0  0  2  0  0  0  0  0  0  0  0  0
    7.9546  -13.1266   17.7858 N   0  0  0  0  0  0  0  0  0  0  0  0
    7.9146  -14.4367   19.8191 C   0  0  0  0  0  0  0  0  0  0  0  0
    7.7008  -13.3707   20.5069 O   0  0  0  0  0  0  0  0  0  0  0  0
    7.6088  -15.6625   20.4618 N   0  0  0  0  0  0  0  0  0  0  0  0
    7.8481  -17.0322   20.0615 C   0  0  0  0  0  0  0  0  0  0  0  0
    6.6152  -17.7931   20.5847 C   0  0  0  0  0  0  0  0  0  0  0  0
    6.0208  -16.9068   21.6106 C   0  0  0  0  0  0  0  0  0  0  0  0
    6.9717  -15.7650   21.7602 C   0  0  1  0  0  0  0  0  0  0  0  0
    8.0160  -15.9658   22.7962 C   0  0  0  0  0  0  0  0  0  0  0  0
    8.9947  -16.7426   22.5232 O   0  0  0  0  0  0  0  0  0  0  0  0
    8.0260  -15.3735   24.0617 N   0  0  0  0  0  0  0  0  0  0  0  0
    9.1419  -15.4776   25.0178 C   0  0  1  0  0  0  0  0  0  0  0  0
    9.5872  -14.0881   25.3984 C   0  0  0  0  0  0  0  0  0  0  0  0
    8.4335  -13.3167   25.9053 C   0  0  0  0  0  0  0  0  0  0  0  0
    7.5717  -12.7200   24.9771 C   0  0  0  0  0  0  0  0  0  0  0  0
    6.4578  -11.9998   25.3406 C   0  0  0  0  0  0  0  0  0  0  0  0
    6.2137  -11.8837   26.6850 C   0  0  0  0  0  0  0  0  0  0  0  0
    7.0486  -12.4635   27.6371 C   0  0  0  0  0  0  0  0  0  0  0  0
    8.1560  -13.1790   27.2699 C   0  0  0  0  0  0  0  0  0  0  0  0
    8.7880  -16.3153   26.1559 C   0  0  0  0  0  0  0  0  0  0  0  0
    7.6248  -16.7336   26.3220 O   0  0  0  0  0  0  0  0  0  0  0  0
    9.7538  -16.6647   27.0841 O   0  0  0  0  0  0  0  0  0  0  0  0
  2  1  1  0
  3  2  2  0
  4  2  1  0
  5  4  1  0
  5  6  1  1
  7  5  1  0
  7  8  2  0
  9  7  1  0
 10  9  1  0
 11 10  1  0
 12 11  1  0
 12 13  1  0
 13  9  1  0
 13 14  1  1
 15 14  2  0
 16 14  1  0
 17 16  1  0
 17 25  1  0
 17 18  1  1
 19 18  1  0
 20 19  2  0
 21 20  1  0
 22 21  2  0
 22 23  1  0
 23 24  2  0
 24 19  1  0
 25 27  1  0
 26 25  2  0
M  END
$$$$
