NPF.pdb
     RDKit          3D

 27 28  0  0  1  0  0  0  0  0999 V2000
    6.1385  -20.0570   18.9504 N   0  0  0  0  0  0  0  0  0  0  0  0
    6.0488  -19.3088   20.1558 C   0  0  0  0  0  0  0  0  0  0  0  0
    4.9439  -19.2956   20.7793 O   0  0  0  0  0  0  0  0  0  0  0  0
    7.1625  -18.5340   20.7411 C   0  0  0  0  0  0  0  0  0  0  0  0
    7.7799  -17.5646   19.7546 C   0  0  2  0  0  0  0  0  0  0  0  0
    8.4942  -18.2345   18.7056 N   0  0  0  0  0  0  0  0  0  0  0  0
    8.6323  -16.5668   20.4526 C   0  0  0  0  0  0  0  0  0  0  0  0
    9.9068  -16.7418   20.4669 O   0  0  0  0  0  0  0  0  0  0  0  0
    8.1564  -15.4107   21.1205 N   0  0  0  0  0  0  0  0  0  0  0  0
    6.8141  -14.9979   21.4686 C   0  0  0  0  0  0  0  0  0  0  0  0
    6.8411  -13.4667   21.3020 C   0  0  0  0  0  0  0  0  0  0  0  0
    8.2755  -13.1010   21.3236 C   0  0  0  0  0  0  0  0  0  0  0  0
    9.0105  -14.3614   21.6420 C   0  0  1  0  0  0  0  0  0  0  0  0
    9.2323  -14.5948   23.0914 C   0  0  0  0  0  0  0  0  0  0  0  0
   10.1317  -13.9040   23.6826 O   0  0  0  0  0  0  0  0  0  0  0  0
    8.5363  -15.5150   23.8794 N   0  0  0  0  0  0  0  0  0  0  0  0
    8.7970  -15.7462   25.3108 C   0  0  1  0  0  0  0  0  0  0  0  0
    7.5034  -15.5957   26.0710 C   0  0  0  0  0  0  0  0  0  0  0  0
    7.2303  -14.1635   26.3108 C   0  0  0  0  0  0  0  0  0  0  0  0
    8.2679  -13.3604   26.7993 C   0  0  0  0  0  0  0  0  0  0  0  0
    8.1275  -12.0129   27.0361 C   0  0  0  0  0  0  0  0  0  0  0  0
    6.8981  -11.4674   26.7682 C   0  0  0  0  0  0  0  0  0  0  0  0
    5.8429  -12.2350   26.2816 C   0  0  0  0  0  0  0  0  0  0  0  0
    5.9879  -13.5758   26.0480 C   0  0  0  0  0  0  0  0  0  0  0  0
    9.4631  -17.0234   25.5284 C   0  0  0  0  0  0  0  0  0  0  0  0
    9.8566  -17.3702   26.6600 O   0  0  0  0  0  0  0  0  0  0  0  0
    9.6719  -17.8843   24.4646 O   0  0  0  0  0  0  0  0  0  0  0  0
  2  1  1  0
  3  2  2  0
  4  2  1  0
  5  4  1  0
  5  6  1  6
  7  5  1  0
  7  8  2  0
  9  7  1  0
 10  9  1  0
 11 10  1  0
 12 11  1  0
 12 13  1  0
 13  9  1  0
 13 14  1  1
 15 14  2  0
 16 14  1  0
 17 16  1  0
 17 25  1  0
 17 18  1  1
 19 18  1  0
 20 19  2  0
 21 20  1  0
 22 21  2  0
 22 23  1  0
 23 24  2  0
 24 19  1  0
 25 27  1  0
 26 25  2  0
M  END
$$$$
