NPF.pdb
     RDKit          3D

 27 28  0  0  1  0  0  0  0  0999 V2000
   11.2248  -13.3068   20.1071 N   0  0  0  0  0  0  0  0  0  0  0  0
   11.2333  -14.4842   19.3107 C   0  0  0  0  0  0  0  0  0  0  0  0
   12.2549  -15.2354   19.3515 O   0  0  0  0  0  0  0  0  0  0  0  0
   10.1253  -14.9006   18.4262 C   0  0  0  0  0  0  0  0  0  0  0  0
    8.8794  -14.0608   18.6179 C   0  0  2  0  0  0  0  0  0  0  0  0
    9.0748  -12.6960   18.2198 N   0  0  0  0  0  0  0  0  0  0  0  0
    8.3799  -14.1621   20.0142 C   0  0  0  0  0  0  0  0  0  0  0  0
    8.4793  -13.1363   20.7843 O   0  0  0  0  0  0  0  0  0  0  0  0
    7.7888  -15.3153   20.5886 N   0  0  0  0  0  0  0  0  0  0  0  0
    7.7510  -16.6897   20.1380 C   0  0  0  0  0  0  0  0  0  0  0  0
    6.3599  -17.1862   20.5756 C   0  0  0  0  0  0  0  0  0  0  0  0
    5.9174  -16.2290   21.6147 C   0  0  0  0  0  0  0  0  0  0  0  0
    7.0807  -15.3237   21.8539 C   0  0  1  0  0  0  0  0  0  0  0  0
    8.0056  -15.7796   22.9220 C   0  0  0  0  0  0  0  0  0  0  0  0
    9.0254  -16.4723   22.5815 O   0  0  0  0  0  0  0  0  0  0  0  0
    7.8600  -15.5159   24.2864 N   0  0  0  0  0  0  0  0  0  0  0  0
    8.8078  -15.9600   25.3232 C   0  0  1  0  0  0  0  0  0  0  0  0
    9.2397  -14.7628   26.1320 C   0  0  0  0  0  0  0  0  0  0  0  0
    8.0802  -13.8787   26.3710 C   0  0  0  0  0  0  0  0  0  0  0  0
    8.2154  -12.5133   26.0925 C   0  0  0  0  0  0  0  0  0  0  0  0
    7.1935  -11.6077   26.2581 C   0  0  0  0  0  0  0  0  0  0  0  0
    6.0016  -12.1048   26.7193 C   0  0  0  0  0  0  0  0  0  0  0  0
    5.8302  -13.4567   27.0069 C   0  0  0  0  0  0  0  0  0  0  0  0
    6.8505  -14.3536   26.8406 C   0  0  0  0  0  0  0  0  0  0  0  0
    8.2490  -17.0413   26.1236 C   0  0  0  0  0  0  0  0  0  0  0  0
    7.0339  -17.3202   26.0867 O   0  0  0  0  0  0  0  0  0  0  0  0
    9.0723  -17.7867   26.9499 O   0  0  0  0  0  0  0  0  0  0  0  0
  2  1  1  0
  3  2  2  0
  4  2  1  0
  5  4  1  0
  5  6  1  1
  7  5  1  0
  7  8  2  0
  9  7  1  0
 10  9  1  0
 11 10  1  0
 12 11  1  0
 12 13  1  0
 13  9  1  0
 13 14  1  1
 15 14  2  0
 16 14  1  0
 17 16  1  0
 17 25  1  0
 17 18  1  1
 19 18  1  0
 20 19  2  0
 21 20  1  0
 22 21  2  0
 22 23  1  0
 23 24  2  0
 24 19  1  0
 25 27  1  0
 26 25  2  0
M  END
$$$$
