NPF.pdb
     RDKit          3D

 27 28  0  0  1  0  0  0  0  0999 V2000
    9.0842  -12.2302   19.2603 N   0  0  0  0  0  0  0  0  0  0  0  0
    9.5670  -13.4974   18.8339 C   0  0  0  0  0  0  0  0  0  0  0  0
   10.8180  -13.6513   18.6893 O   0  0  0  0  0  0  0  0  0  0  0  0
    8.7063  -14.6623   18.5412 C   0  0  0  0  0  0  0  0  0  0  0  0
    7.2634  -14.4363   18.9429 C   0  0  2  0  0  0  0  0  0  0  0  0
    6.8157  -13.1059   18.6440 N   0  0  0  0  0  0  0  0  0  0  0  0
    7.0492  -14.7822   20.3725 C   0  0  0  0  0  0  0  0  0  0  0  0
    6.7933  -13.8375   21.2076 O   0  0  0  0  0  0  0  0  0  0  0  0
    7.1026  -16.0915   20.9129 N   0  0  0  0  0  0  0  0  0  0  0  0
    7.5046  -17.3493   20.3214 C   0  0  0  0  0  0  0  0  0  0  0  0
    6.5565  -18.3809   20.9613 C   0  0  0  0  0  0  0  0  0  0  0  0
    6.0218  -17.7160   22.1711 C   0  0  0  0  0  0  0  0  0  0  0  0
    6.7597  -16.4224   22.2823 C   0  0  1  0  0  0  0  0  0  0  0  0
    8.0044  -16.4915   23.0888 C   0  0  0  0  0  0  0  0  0  0  0  0
    9.1218  -16.5502   22.4693 O   0  0  0  0  0  0  0  0  0  0  0  0
    8.0658  -16.4982   24.4846 N   0  0  0  0  0  0  0  0  0  0  0  0
    9.1972  -15.9724   25.2680 C   0  0  1  0  0  0  0  0  0  0  0  0
    9.3212  -14.4920   25.0094 C   0  0  0  0  0  0  0  0  0  0  0  0
    8.2360  -13.7719   25.7071 C   0  0  0  0  0  0  0  0  0  0  0  0
    7.0838  -13.4411   24.9838 C   0  0  0  0  0  0  0  0  0  0  0  0
    6.0070  -12.7917   25.5411 C   0  0  0  0  0  0  0  0  0  0  0  0
    6.1050  -12.4704   26.8707 C   0  0  0  0  0  0  0  0  0  0  0  0
    7.2352  -12.7834   27.6219 C   0  0  0  0  0  0  0  0  0  0  0  0
    8.3041  -13.4295   27.0622 C   0  0  0  0  0  0  0  0  0  0  0  0
    9.0702  -16.3155   26.6781 C   0  0  0  0  0  0  0  0  0  0  0  0
    9.9940  -16.1010   27.4881 O   0  0  0  0  0  0  0  0  0  0  0  0
    7.9031  -16.8941   27.1464 O   0  0  0  0  0  0  0  0  0  0  0  0
  2  1  1  0
  3  2  2  0
  4  2  1  0
  5  4  1  0
  5  6  1  1
  7  5  1  0
  7  8  2  0
  9  7  1  0
 10  9  1  0
 11 10  1  0
 12 11  1  0
 12 13  1  0
 13  9  1  0
 13 14  1  1
 15 14  2  0
 16 14  1  0
 17 16  1  0
 17 25  1  0
 17 18  1  1
 19 18  1  0
 20 19  2  0
 21 20  1  0
 22 21  2  0
 22 23  1  0
 23 24  2  0
 24 19  1  0
 25 27  1  0
 26 25  2  0
M  END
$$$$
