NPF.pdb
     RDKit          3D

 27 28  0  0  1  0  0  0  0  0999 V2000
   11.2356  -21.1027   19.6045 N   0  0  0  0  0  0  0  0  0  0  0  0
   10.1811  -20.1934   19.3179 C   0  0  0  0  0  0  0  0  0  0  0  0
    9.5307  -20.3414   18.2386 O   0  0  0  0  0  0  0  0  0  0  0  0
    9.7842  -19.0733   20.1960 C   0  0  0  0  0  0  0  0  0  0  0  0
    9.9678  -17.7222   19.5362 C   0  0  2  0  0  0  0  0  0  0  0  0
   11.2589  -17.5845   18.9248 N   0  0  0  0  0  0  0  0  0  0  0  0
    9.6911  -16.6206   20.4949 C   0  0  0  0  0  0  0  0  0  0  0  0
   10.6828  -15.9824   21.0093 O   0  0  0  0  0  0  0  0  0  0  0  0
    8.4013  -16.1987   20.9042 N   0  0  0  0  0  0  0  0  0  0  0  0
    7.0843  -16.6720   20.5367 C   0  0  0  0  0  0  0  0  0  0  0  0
    6.2212  -15.3962   20.5230 C   0  0  0  0  0  0  0  0  0  0  0  0
    6.9862  -14.4037   21.3113 C   0  0  0  0  0  0  0  0  0  0  0  0
    8.1569  -15.1444   21.8691 C   0  0  1  0  0  0  0  0  0  0  0  0
    7.9205  -15.7546   23.2018 C   0  0  0  0  0  0  0  0  0  0  0  0
    7.4604  -16.9471   23.2460 O   0  0  0  0  0  0  0  0  0  0  0  0
    8.1594  -15.1340   24.4307 N   0  0  0  0  0  0  0  0  0  0  0  0
    8.3333  -15.8541   25.7040 C   0  0  1  0  0  0  0  0  0  0  0  0
    8.8022  -14.8786   26.7541 C   0  0  0  0  0  0  0  0  0  0  0  0
    7.9745  -13.6557   26.7029 C   0  0  0  0  0  0  0  0  0  0  0  0
    8.4598  -12.5525   25.9905 C   0  0  0  0  0  0  0  0  0  0  0  0
    7.7612  -11.3748   25.8613 C   0  0  0  0  0  0  0  0  0  0  0  0
    6.5353  -11.3180   26.4735 C   0  0  0  0  0  0  0  0  0  0  0  0
    6.0204  -12.3953   27.1904 C   0  0  0  0  0  0  0  0  0  0  0  0
    6.7200  -13.5649   27.3160 C   0  0  0  0  0  0  0  0  0  0  0  0
    7.1248  -16.5797   26.0717 C   0  0  0  0  0  0  0  0  0  0  0  0
    6.0286  -16.3410   25.5266 O   0  0  0  0  0  0  0  0  0  0  0  0
    7.1769  -17.5604   27.0472 O   0  0  0  0  0  0  0  0  0  0  0  0
  2  1  1  0
  3  2  2  0
  4  2  1  0
  5  4  1  0
  5  6  1  1
  7  5  1  0
  7  8  2  0
  9  7  1  0
 10  9  1  0
 11 10  1  0
 12 11  1  0
 12 13  1  0
 13  9  1  0
 13 14  1  1
 15 14  2  0
 16 14  1  0
 17 16  1  0
 17 25  1  0
 17 18  1  1
 19 18  1  0
 20 19  2  0
 21 20  1  0
 22 21  2  0
 22 23  1  0
 23 24  2  0
 24 19  1  0
 25 27  1  0
 26 25  2  0
M  END
$$$$
