NPF.pdb
     RDKit          3D

 27 28  0  0  1  0  0  0  0  0999 V2000
    9.6087  -20.2052   21.2644 N   0  0  0  0  0  0  0  0  0  0  0  0
    9.6753  -19.6832   19.9438 C   0  0  0  0  0  0  0  0  0  0  0  0
   10.6788  -19.9787   19.2259 O   0  0  0  0  0  0  0  0  0  0  0  0
    8.6485  -18.8089   19.3399 C   0  0  0  0  0  0  0  0  0  0  0  0
    9.1963  -17.4529   18.9458 C   0  0  2  0  0  0  0  0  0  0  0  0
   10.2989  -17.5542   18.0329 N   0  0  0  0  0  0  0  0  0  0  0  0
    9.5469  -16.6516   20.1476 C   0  0  0  0  0  0  0  0  0  0  0  0
   10.7764  -16.3236   20.3373 O   0  0  0  0  0  0  0  0  0  0  0  0
    8.6263  -16.2045   21.1283 N   0  0  0  0  0  0  0  0  0  0  0  0
    7.2176  -16.4816   21.3073 C   0  0  0  0  0  0  0  0  0  0  0  0
    6.6430  -15.1562   21.8422 C   0  0  0  0  0  0  0  0  0  0  0  0
    7.8134  -14.4038   22.3477 C   0  0  0  0  0  0  0  0  0  0  0  0
    8.9740  -15.3371   22.2370 C   0  0  1  0  0  0  0  0  0  0  0  0
    9.2126  -16.1680   23.4440 C   0  0  0  0  0  0  0  0  0  0  0  0
    8.8241  -17.3863   23.4238 O   0  0  0  0  0  0  0  0  0  0  0  0
    9.8328  -15.7321   24.6177 N   0  0  0  0  0  0  0  0  0  0  0  0
   10.7412  -16.5579   25.4322 C   0  0  1  0  0  0  0  0  0  0  0  0
   11.6653  -15.6488   26.2026 C   0  0  0  0  0  0  0  0  0  0  0  0
   10.8904  -14.8763   27.1955 C   0  0  0  0  0  0  0  0  0  0  0  0
   10.0080  -13.8928   26.7327 C   0  0  0  0  0  0  0  0  0  0  0  0
    9.2241  -13.1327   27.5690 C   0  0  0  0  0  0  0  0  0  0  0  0
    9.3407  -13.3802   28.9127 C   0  0  0  0  0  0  0  0  0  0  0  0
   10.2076  -14.3504   29.4096 C   0  0  0  0  0  0  0  0  0  0  0  0
   10.9857  -15.1038   28.5729 C   0  0  0  0  0  0  0  0  0  0  0  0
   10.0004  -17.4918   26.2696 C   0  0  0  0  0  0  0  0  0  0  0  0
   10.5832  -18.3314   26.9846 O   0  0  0  0  0  0  0  0  0  0  0  0
    8.6166  -17.4600   26.2838 O   0  0  0  0  0  0  0  0  0  0  0  0
  2  1  1  0
  3  2  2  0
  4  2  1  0
  5  4  1  0
  5  6  1  6
  7  5  1  0
  7  8  2  0
  9  7  1  0
 10  9  1  0
 11 10  1  0
 12 11  1  0
 12 13  1  0
 13  9  1  0
 13 14  1  1
 15 14  2  0
 16 14  1  0
 17 16  1  0
 17 25  1  0
 17 18  1  1
 19 18  1  0
 20 19  2  0
 21 20  1  0
 22 21  2  0
 22 23  1  0
 23 24  2  0
 24 19  1  0
 25 27  1  0
 26 25  2  0
M  END
$$$$
