NPF.pdb
     RDKit          3D

 27 28  0  0  1  0  0  0  0  0999 V2000
   12.0712  -12.7655   18.6667 N   0  0  0  0  0  0  0  0  0  0  0  0
   11.5276  -14.0182   19.0619 C   0  0  0  0  0  0  0  0  0  0  0  0
   11.8609  -15.0551   18.4112 O   0  0  0  0  0  0  0  0  0  0  0  0
   10.5892  -14.2019   20.1884 C   0  0  0  0  0  0  0  0  0  0  0  0
    9.1393  -14.1517   19.7531 C   0  0  2  0  0  0  0  0  0  0  0  0
    8.7747  -12.8717   19.2163 N   0  0  0  0  0  0  0  0  0  0  0  0
    8.2374  -14.5625   20.8609 C   0  0  0  0  0  0  0  0  0  0  0  0
    7.6183  -13.6521   21.5266 O   0  0  0  0  0  0  0  0  0  0  0  0
    7.9911  -15.9000   21.2604 N   0  0  0  0  0  0  0  0  0  0  0  0
    8.5930  -17.1456   20.8367 C   0  0  0  0  0  0  0  0  0  0  0  0
    7.4271  -18.1519   20.8693 C   0  0  0  0  0  0  0  0  0  0  0  0
    6.3976  -17.5227   21.7271 C   0  0  0  0  0  0  0  0  0  0  0  0
    7.0271  -16.2834   22.2733 C   0  0  1  0  0  0  0  0  0  0  0  0
    7.7332  -16.4705   23.5659 C   0  0  0  0  0  0  0  0  0  0  0  0
    8.9750  -16.7749   23.5362 O   0  0  0  0  0  0  0  0  0  0  0  0
    7.1542  -16.3419   24.8311 N   0  0  0  0  0  0  0  0  0  0  0  0
    7.9070  -16.3877   26.0966 C   0  0  1  0  0  0  0  0  0  0  0  0
    7.1334  -15.6354   27.1499 C   0  0  0  0  0  0  0  0  0  0  0  0
    7.0357  -14.2100   26.7731 C   0  0  0  0  0  0  0  0  0  0  0  0
    8.2056  -13.4410   26.7672 C   0  0  0  0  0  0  0  0  0  0  0  0
    8.2301  -12.1126   26.4117 C   0  0  0  0  0  0  0  0  0  0  0  0
    7.0317  -11.5513   26.0520 C   0  0  0  0  0  0  0  0  0  0  0  0
    5.8480  -12.2850   26.0460 C   0  0  0  0  0  0  0  0  0  0  0  0
    5.8292  -13.6067   26.4009 C   0  0  0  0  0  0  0  0  0  0  0  0
    8.2319  -17.7578   26.4704 C   0  0  0  0  0  0  0  0  0  0  0  0
    7.6452  -18.7313   25.9569 O   0  0  0  0  0  0  0  0  0  0  0  0
    9.2126  -18.0023   27.4163 O   0  0  0  0  0  0  0  0  0  0  0  0
  2  1  1  0
  3  2  2  0
  4  2  1  0
  5  4  1  0
  5  6  1  1
  7  5  1  0
  7  8  2  0
  9  7  1  0
 10  9  1  0
 11 10  1  0
 12 11  1  0
 12 13  1  0
 13  9  1  0
 13 14  1  1
 15 14  2  0
 16 14  1  0
 17 16  1  0
 17 25  1  0
 17 18  1  1
 19 18  1  0
 20 19  2  0
 21 20  1  0
 22 21  2  0
 22 23  1  0
 23 24  2  0
 24 19  1  0
 25 27  1  0
 26 25  2  0
M  END
$$$$
