NPF.pdb
     RDKit          3D

 27 28  0  0  1  0  0  0  0  0999 V2000
    7.2718  -20.4305   18.1314 N   0  0  0  0  0  0  0  0  0  0  0  0
    8.3069  -19.7424   17.4415 C   0  0  0  0  0  0  0  0  0  0  0  0
    8.7682  -20.2539   16.3761 O   0  0  0  0  0  0  0  0  0  0  0  0
    8.8930  -18.4595   17.8822 C   0  0  0  0  0  0  0  0  0  0  0  0
    8.3520  -18.0008   19.2205 C   0  0  2  0  0  0  0  0  0  0  0  0
    6.9464  -17.7156   19.1721 N   0  0  0  0  0  0  0  0  0  0  0  0
    9.1313  -16.8473   19.7416 C   0  0  0  0  0  0  0  0  0  0  0  0
   10.4137  -16.9374   19.7921 O   0  0  0  0  0  0  0  0  0  0  0  0
    8.5758  -15.6262   20.1993 N   0  0  0  0  0  0  0  0  0  0  0  0
    7.2006  -15.2191   20.3904 C   0  0  0  0  0  0  0  0  0  0  0  0
    7.1973  -13.7278   20.0042 C   0  0  0  0  0  0  0  0  0  0  0  0
    8.6155  -13.3084   20.0704 C   0  0  0  0  0  0  0  0  0  0  0  0
    9.3599  -14.4811   20.6192 C   0  0  1  0  0  0  0  0  0  0  0  0
    9.4812  -14.4951   22.0989 C   0  0  0  0  0  0  0  0  0  0  0  0
   10.2819  -13.6613   22.6462 O   0  0  0  0  0  0  0  0  0  0  0  0
    8.7888  -15.3500   22.9602 N   0  0  0  0  0  0  0  0  0  0  0  0
    8.3410  -14.9795   24.3140 C   0  0  1  0  0  0  0  0  0  0  0  0
    7.4983  -13.7323   24.2230 C   0  0  0  0  0  0  0  0  0  0  0  0
    7.0907  -13.3067   25.5779 C   0  0  0  0  0  0  0  0  0  0  0  0
    5.7233  -13.2019   25.8598 C   0  0  0  0  0  0  0  0  0  0  0  0
    5.2361  -12.8361   27.0929 C   0  0  0  0  0  0  0  0  0  0  0  0
    6.1652  -12.5699   28.0658 C   0  0  0  0  0  0  0  0  0  0  0  0
    7.5332  -12.6636   27.8219 C   0  0  0  0  0  0  0  0  0  0  0  0
    8.0128  -13.0279   26.5929 C   0  0  0  0  0  0  0  0  0  0  0  0
    7.6750  -16.0937   24.9751 C   0  0  0  0  0  0  0  0  0  0  0  0
    7.7310  -16.2472   26.2116 O   0  0  0  0  0  0  0  0  0  0  0  0
    6.9586  -17.0128   24.2279 O   0  0  0  0  0  0  0  0  0  0  0  0
  2  1  1  0
  3  2  2  0
  4  2  1  0
  5  4  1  0
  5  6  1  6
  7  5  1  0
  7  8  2  0
  9  7  1  0
 10  9  1  0
 11 10  1  0
 12 11  1  0
 12 13  1  0
 13  9  1  0
 13 14  1  1
 15 14  2  0
 16 14  1  0
 17 16  1  0
 17 25  1  0
 17 18  1  6
 19 18  1  0
 20 19  2  0
 21 20  1  0
 22 21  2  0
 22 23  1  0
 23 24  2  0
 24 19  1  0
 25 27  1  0
 26 25  2  0
M  END
$$$$
