NPF.pdb
     RDKit          3D

 27 28  0  0  1  0  0  0  0  0999 V2000
    8.6582  -20.3282   20.1188 N   0  0  0  0  0  0  0  0  0  0  0  0
    7.7584  -19.6053   19.2890 C   0  0  0  0  0  0  0  0  0  0  0  0
    8.0148  -19.5185   18.0495 O   0  0  0  0  0  0  0  0  0  0  0  0
    6.5319  -18.9376   19.7720 C   0  0  0  0  0  0  0  0  0  0  0  0
    6.7019  -18.3325   21.1502 C   0  0  2  0  0  0  0  0  0  0  0  0
    5.4911  -17.7355   21.6371 N   0  0  0  0  0  0  0  0  0  0  0  0
    7.8377  -17.3740   21.1733 C   0  0  0  0  0  0  0  0  0  0  0  0
    9.0125  -17.7969   20.8632 O   0  0  0  0  0  0  0  0  0  0  0  0
    7.7415  -16.0015   21.5143 N   0  0  0  0  0  0  0  0  0  0  0  0
    6.6165  -15.2088   21.9611 C   0  0  0  0  0  0  0  0  0  0  0  0
    6.8509  -13.8317   21.3118 C   0  0  0  0  0  0  0  0  0  0  0  0
    8.2842  -13.8180   20.9417 C   0  0  0  0  0  0  0  0  0  0  0  0
    8.8593  -15.0781   21.5001 C   0  0  1  0  0  0  0  0  0  0  0  0
    9.3981  -14.9507   22.8777 C   0  0  0  0  0  0  0  0  0  0  0  0
   10.3956  -14.1727   23.0654 O   0  0  0  0  0  0  0  0  0  0  0  0
    8.9059  -15.6143   24.0045 N   0  0  0  0  0  0  0  0  0  0  0  0
    9.6951  -15.8851   25.2187 C   0  0  1  0  0  0  0  0  0  0  0  0
    9.9987  -14.5762   25.9031 C   0  0  0  0  0  0  0  0  0  0  0  0
    8.7487  -13.8117   26.0930 C   0  0  0  0  0  0  0  0  0  0  0  0
    7.6644  -14.0887   25.2517 C   0  0  0  0  0  0  0  0  0  0  0  0
    6.4498  -13.4520   25.3567 C   0  0  0  0  0  0  0  0  0  0  0  0
    6.3351  -12.5078   26.3447 C   0  0  0  0  0  0  0  0  0  0  0  0
    7.3920  -12.2058   27.2000 C   0  0  0  0  0  0  0  0  0  0  0  0
    8.5987  -12.8423   27.0909 C   0  0  0  0  0  0  0  0  0  0  0  0
    9.0312  -16.8582   26.0758 C   0  0  0  0  0  0  0  0  0  0  0  0
    9.4721  -17.1389   27.2083 O   0  0  0  0  0  0  0  0  0  0  0  0
    7.8828  -17.4953   25.6383 O   0  0  0  0  0  0  0  0  0  0  0  0
  2  1  1  0
  3  2  2  0
  4  2  1  0
  5  4  1  0
  5  6  1  6
  7  5  1  0
  7  8  2  0
  9  7  1  0
 10  9  1  0
 11 10  1  0
 12 11  1  0
 12 13  1  0
 13  9  1  0
 13 14  1  1
 15 14  2  0
 16 14  1  0
 17 16  1  0
 17 25  1  0
 17 18  1  1
 19 18  1  0
 20 19  2  0
 21 20  1  0
 22 21  2  0
 22 23  1  0
 23 24  2  0
 24 19  1  0
 25 27  1  0
 26 25  2  0
M  END
$$$$
