NPF.pdb
     RDKit          3D

 27 28  0  0  1  0  0  0  0  0999 V2000
   10.5902  -20.8133   18.6017 N   0  0  0  0  0  0  0  0  0  0  0  0
    9.5630  -19.8412   18.7454 C   0  0  0  0  0  0  0  0  0  0  0  0
    8.6129  -19.8356   17.9046 O   0  0  0  0  0  0  0  0  0  0  0  0
    9.5223  -18.8228   19.8153 C   0  0  0  0  0  0  0  0  0  0  0  0
    9.7526  -17.4196   19.2933 C   0  0  2  0  0  0  0  0  0  0  0  0
   11.0052  -17.2924   18.6046 N   0  0  0  0  0  0  0  0  0  0  0  0
    9.6183  -16.4184   20.3836 C   0  0  0  0  0  0  0  0  0  0  0  0
   10.6837  -15.9706   20.9491 O   0  0  0  0  0  0  0  0  0  0  0  0
    8.3921  -15.8988   20.8690 N   0  0  0  0  0  0  0  0  0  0  0  0
    7.0224  -16.2214   20.5323 C   0  0  0  0  0  0  0  0  0  0  0  0
    6.2889  -14.8700   20.6238 C   0  0  0  0  0  0  0  0  0  0  0  0
    7.1761  -14.0028   21.4316 C   0  0  0  0  0  0  0  0  0  0  0  0
    8.2880  -14.8835   21.8988 C   0  0  1  0  0  0  0  0  0  0  0  0
    8.0419  -15.5442   23.2055 C   0  0  0  0  0  0  0  0  0  0  0  0
    7.3735  -16.6345   23.2134 O   0  0  0  0  0  0  0  0  0  0  0  0
    8.4816  -15.0749   24.4459 N   0  0  0  0  0  0  0  0  0  0  0  0
    8.3701  -15.8302   25.7058 C   0  0  1  0  0  0  0  0  0  0  0  0
    8.6541  -14.8992   26.8575 C   0  0  0  0  0  0  0  0  0  0  0  0
    7.8642  -13.6601   26.7027 C   0  0  0  0  0  0  0  0  0  0  0  0
    6.5687  -13.6256   27.2323 C   0  0  0  0  0  0  0  0  0  0  0  0
    5.7576  -12.5170   27.1629 C   0  0  0  0  0  0  0  0  0  0  0  0
    6.2788  -11.4133   26.5379 C   0  0  0  0  0  0  0  0  0  0  0  0
    7.5632  -11.4107   25.9993 C   0  0  0  0  0  0  0  0  0  0  0  0
    8.3661  -12.5168   26.0709 C   0  0  0  0  0  0  0  0  0  0  0  0
    7.0867  -16.5127   25.8025 C   0  0  0  0  0  0  0  0  0  0  0  0
    6.8830  -17.4030   26.6519 O   0  0  0  0  0  0  0  0  0  0  0  0
    6.0584  -16.1771   24.9388 O   0  0  0  0  0  0  0  0  0  0  0  0
  2  1  1  0
  3  2  2  0
  4  2  1  0
  5  4  1  0
  5  6  1  1
  7  5  1  0
  7  8  2  0
  9  7  1  0
 10  9  1  0
 11 10  1  0
 12 11  1  0
 12 13  1  0
 13  9  1  0
 13 14  1  1
 15 14  2  0
 16 14  1  0
 17 16  1  0
 17 25  1  0
 17 18  1  1
 19 18  1  0
 20 19  2  0
 21 20  1  0
 22 21  2  0
 22 23  1  0
 23 24  2  0
 24 19  1  0
 25 27  1  0
 26 25  2  0
M  END
$$$$
