NPF.pdb
     RDKit          3D

 27 28  0  0  1  0  0  0  0  0999 V2000
    2.7582  -17.9264   19.8712 N   0  0  0  0  0  0  0  0  0  0  0  0
    3.8418  -18.4258   20.6440 C   0  0  0  0  0  0  0  0  0  0  0  0
    3.8094  -19.6370   21.0204 O   0  0  0  0  0  0  0  0  0  0  0  0
    5.0168  -17.6258   21.0474 C   0  0  0  0  0  0  0  0  0  0  0  0
    6.0333  -17.4809   19.9338 C   0  0  2  0  0  0  0  0  0  0  0  0
    6.3312  -18.7337   19.3005 N   0  0  0  0  0  0  0  0  0  0  0  0
    7.2630  -16.8032   20.4217 C   0  0  0  0  0  0  0  0  0  0  0  0
    8.3391  -17.4948   20.5595 O   0  0  0  0  0  0  0  0  0  0  0  0
    7.3603  -15.4294   20.7571 N   0  0  0  0  0  0  0  0  0  0  0  0
    6.3723  -14.3726   20.7352 C   0  0  0  0  0  0  0  0  0  0  0  0
    7.1706  -13.1264   20.3076 C   0  0  0  0  0  0  0  0  0  0  0  0
    8.5877  -13.4682   20.5652 C   0  0  0  0  0  0  0  0  0  0  0  0
    8.5667  -14.7947   21.2510 C   0  0  1  0  0  0  0  0  0  0  0  0
    8.5017  -14.7203   22.7324 C   0  0  0  0  0  0  0  0  0  0  0  0
    7.3722  -14.4627   23.2743 O   0  0  0  0  0  0  0  0  0  0  0  0
    9.5797  -14.9096   23.6009 N   0  0  0  0  0  0  0  0  0  0  0  0
    9.4481  -15.1254   25.0523 C   0  0  1  0  0  0  0  0  0  0  0  0
    7.9829  -15.1655   25.4069 C   0  0  0  0  0  0  0  0  0  0  0  0
    7.5744  -13.8680   25.9836 C   0  0  0  0  0  0  0  0  0  0  0  0
    6.2163  -13.5282   25.9634 C   0  0  0  0  0  0  0  0  0  0  0  0
    5.7266  -12.3568   26.4922 C   0  0  0  0  0  0  0  0  0  0  0  0
    6.6435  -11.5079   27.0573 C   0  0  0  0  0  0  0  0  0  0  0  0
    8.0020  -11.8123   27.0956 C   0  0  0  0  0  0  0  0  0  0  0  0
    8.4841  -12.9794   26.5676 C   0  0  0  0  0  0  0  0  0  0  0  0
   10.1908  -16.3025   25.4824 C   0  0  0  0  0  0  0  0  0  0  0  0
   10.3339  -16.5790   26.6901 O   0  0  0  0  0  0  0  0  0  0  0  0
   10.7573  -17.1447   24.5410 O   0  0  0  0  0  0  0  0  0  0  0  0
  2  1  1  0
  3  2  2  0
  4  2  1  0
  5  4  1  0
  5  6  1  1
  7  5  1  0
  7  8  2  0
  9  7  1  0
 10  9  1  0
 11 10  1  0
 12 11  1  0
 12 13  1  0
 13  9  1  0
 13 14  1  1
 15 14  2  0
 16 14  1  0
 17 16  1  0
 17 25  1  0
 17 18  1  6
 19 18  1  0
 20 19  2  0
 21 20  1  0
 22 21  2  0
 22 23  1  0
 23 24  2  0
 24 19  1  0
 25 27  1  0
 26 25  2  0
M  END
$$$$
