NPF.pdb
     RDKit          3D

 27 28  0  0  1  0  0  0  0  0999 V2000
    4.3101  -20.2034   22.7877 N   0  0  0  0  0  0  0  0  0  0  0  0
    4.4475  -18.9578   22.1164 C   0  0  0  0  0  0  0  0  0  0  0  0
    3.4760  -18.5362   21.4177 O   0  0  0  0  0  0  0  0  0  0  0  0
    5.6557  -18.1091   22.1726 C   0  0  0  0  0  0  0  0  0  0  0  0
    6.3274  -17.9612   20.8230 C   0  0  2  0  0  0  0  0  0  0  0  0
    6.4818  -19.2191   20.1497 N   0  0  0  0  0  0  0  0  0  0  0  0
    7.6213  -17.2407   20.9495 C   0  0  0  0  0  0  0  0  0  0  0  0
    8.7111  -17.8727   20.6885 O   0  0  0  0  0  0  0  0  0  0  0  0
    7.7671  -15.8862   21.3412 N   0  0  0  0  0  0  0  0  0  0  0  0
    6.7993  -14.9272   21.8280 C   0  0  0  0  0  0  0  0  0  0  0  0
    7.2679  -13.5885   21.2269 C   0  0  0  0  0  0  0  0  0  0  0  0
    8.6803  -13.8107   20.8430 C   0  0  0  0  0  0  0  0  0  0  0  0
    9.0288  -15.1717   21.3494 C   0  0  1  0  0  0  0  0  0  0  0  0
    9.5865  -15.1921   22.7252 C   0  0  0  0  0  0  0  0  0  0  0  0
   10.7162  -14.6271   22.9262 O   0  0  0  0  0  0  0  0  0  0  0  0
    8.9791  -15.7816   23.8368 N   0  0  0  0  0  0  0  0  0  0  0  0
    9.4762  -15.6563   25.2179 C   0  0  1  0  0  0  0  0  0  0  0  0
    9.4523  -14.2013   25.6130 C   0  0  0  0  0  0  0  0  0  0  0  0
    8.0693  -13.7966   25.9400 C   0  0  0  0  0  0  0  0  0  0  0  0
    7.1184  -13.7846   24.9124 C   0  0  0  0  0  0  0  0  0  0  0  0
    5.8004  -13.4459   25.1120 C   0  0  0  0  0  0  0  0  0  0  0  0
    5.4399  -13.1106   26.3919 C   0  0  0  0  0  0  0  0  0  0  0  0
    6.3581  -13.1113   27.4390 C   0  0  0  0  0  0  0  0  0  0  0  0
    7.6686  -13.4490   27.2348 C   0  0  0  0  0  0  0  0  0  0  0  0
    8.7409  -16.5258   26.1265 C   0  0  0  0  0  0  0  0  0  0  0  0
    7.7439  -17.1723   25.7478 O   0  0  0  0  0  0  0  0  0  0  0  0
    9.1453  -16.6486   27.4447 O   0  0  0  0  0  0  0  0  0  0  0  0
  2  1  1  0
  3  2  2  0
  4  2  1  0
  5  4  1  0
  5  6  1  1
  7  5  1  0
  7  8  2  0
  9  7  1  0
 10  9  1  0
 11 10  1  0
 12 11  1  0
 12 13  1  0
 13  9  1  0
 13 14  1  1
 15 14  2  0
 16 14  1  0
 17 16  1  0
 17 25  1  0
 17 18  1  1
 19 18  1  0
 20 19  2  0
 21 20  1  0
 22 21  2  0
 22 23  1  0
 23 24  2  0
 24 19  1  0
 25 27  1  0
 26 25  2  0
M  END
$$$$
