EGG.pdb
     RDKit          3D

 18 17  0  0  1  0  0  0  0  0999 V2000
    7.6308  -19.0498   24.6206 N   0  0  0  0  0  0  0  0  0  0  0  0
    6.9419  -17.7491   24.6670 C   0  0  1  0  0  0  0  0  0  0  0  0
    7.4256  -17.0636   25.8996 C   0  0  0  0  0  0  0  0  0  0  0  0
    8.1656  -17.9349   26.8672 C   0  0  0  0  0  0  0  0  0  0  0  0
    9.3412  -17.2673   27.4751 C   0  0  0  0  0  0  0  0  0  0  0  0
    9.7189  -16.1056   27.2347 O   0  0  0  0  0  0  0  0  0  0  0  0
    7.2618  -17.0213   23.4219 C   0  0  0  0  0  0  0  0  0  0  0  0
    8.3424  -17.2648   22.8251 O   0  0  0  0  0  0  0  0  0  0  0  0
   10.0809  -18.0045   28.3899 O   0  0  0  0  0  0  0  0  0  0  0  0
    6.4051  -16.0451   22.8488 N   0  0  0  0  0  0  0  0  0  0  0  0
    6.6311  -15.4085   21.5903 C   0  0  0  0  0  0  0  0  0  0  0  0
    7.7408  -14.4307   21.6178 C   0  0  0  0  0  0  0  0  0  0  0  0
    7.6933  -13.3453   22.2196 O   0  0  0  0  0  0  0  0  0  0  0  0
    8.9279  -14.7663   20.9083 N   0  0  0  0  0  0  0  0  0  0  0  0
   10.0525  -13.8579   20.8689 C   0  0  0  0  0  0  0  0  0  0  0  0
   11.1761  -14.4765   20.1398 C   0  0  0  0  0  0  0  0  0  0  0  0
   11.7366  -13.8543   19.0327 O   0  0  0  0  0  0  0  0  0  0  0  0
   11.6484  -15.5806   20.5075 O   0  0  0  0  0  0  0  0  0  0  0  0
  2  1  1  6
  3  2  1  0
  4  3  1  0
  5  4  1  0
  5  6  2  0
  7  8  2  0
  7  2  1  0
  9  5  1  0
 10  7  1  0
 11 10  1  0
 12 11  1  0
 13 12  2  0
 14 12  1  0
 15 14  1  0
 16 15  1  0
 17 16  1  0
 18 16  2  0
M  END
$$$$
