EGG.pdb
     RDKit          3D

 18 17  0  0  1  0  0  0  0  0999 V2000
    6.2980  -16.9713   20.8079 N   0  0  0  0  0  0  0  0  0  0  0  0
    7.5462  -16.2345   21.0681 C   0  0  1  0  0  0  0  0  0  0  0  0
    7.5170  -15.0362   20.1813 C   0  0  0  0  0  0  0  0  0  0  0  0
    7.4871  -15.3283   18.7127 C   0  0  0  0  0  0  0  0  0  0  0  0
    7.6479  -14.1180   17.8719 C   0  0  0  0  0  0  0  0  0  0  0  0
    7.8138  -12.9591   18.2952 O   0  0  0  0  0  0  0  0  0  0  0  0
    7.5865  -15.9037   22.5072 C   0  0  0  0  0  0  0  0  0  0  0  0
    6.5485  -15.4684   23.0697 O   0  0  0  0  0  0  0  0  0  0  0  0
    7.6094  -14.2975   16.4958 O   0  0  0  0  0  0  0  0  0  0  0  0
    8.7497  -16.0511   23.3077 N   0  0  0  0  0  0  0  0  0  0  0  0
    8.8353  -15.6864   24.6860 C   0  0  0  0  0  0  0  0  0  0  0  0
   10.1754  -15.9108   25.2706 C   0  0  0  0  0  0  0  0  0  0  0  0
   11.2388  -15.6233   24.6970 O   0  0  0  0  0  0  0  0  0  0  0  0
   10.2355  -16.4915   26.5685 N   0  0  0  0  0  0  0  0  0  0  0  0
   11.4909  -16.5962   27.2787 C   0  0  0  0  0  0  0  0  0  0  0  0
   11.2639  -17.1520   28.6264 C   0  0  0  0  0  0  0  0  0  0  0  0
   12.3227  -17.3599   29.4998 O   0  0  0  0  0  0  0  0  0  0  0  0
   10.1055  -17.4485   29.0106 O   0  0  0  0  0  0  0  0  0  0  0  0
  2  1  1  1
  3  2  1  0
  4  3  1  0
  5  4  1  0
  5  6  2  0
  7  8  2  0
  7  2  1  0
  9  5  1  0
 10  7  1  0
 11 10  1  0
 12 11  1  0
 13 12  2  0
 14 12  1  0
 15 14  1  0
 16 15  1  0
 17 16  1  0
 18 16  2  0
M  END
$$$$
