EGG.pdb
     RDKit          3D

 18 17  0  0  1  0  0  0  0  0999 V2000
   -3.1258  -22.9704   28.2712 N   0  0  0  0  0  0  0  0  0  0  0  0
   -4.5895  -22.8725   28.3992 C   0  0  1  0  0  0  0  0  0  0  0  0
   -5.1449  -23.1020   27.0346 C   0  0  0  0  0  0  0  0  0  0  0  0
   -4.7968  -22.0578   26.0188 C   0  0  0  0  0  0  0  0  0  0  0  0
   -5.4937  -20.7687   26.2423 C   0  0  0  0  0  0  0  0  0  0  0  0
   -5.1483  -19.6682   25.7737 O   0  0  0  0  0  0  0  0  0  0  0  0
   -5.0266  -23.8758   29.3914 C   0  0  0  0  0  0  0  0  0  0  0  0
   -4.2729  -24.8469   29.6602 O   0  0  0  0  0  0  0  0  0  0  0  0
   -6.6274  -20.7961   27.0431 O   0  0  0  0  0  0  0  0  0  0  0  0
   -6.2706  -23.8070   30.0721 N   0  0  0  0  0  0  0  0  0  0  0  0
   -6.6240  -24.6146   31.1960 C   0  0  0  0  0  0  0  0  0  0  0  0
   -7.8902  -24.2025   31.8402 C   0  0  0  0  0  0  0  0  0  0  0  0
   -8.3678  -24.7537   32.8455 O   0  0  0  0  0  0  0  0  0  0  0  0
   -8.5930  -23.1076   31.2635 N   0  0  0  0  0  0  0  0  0  0  0  0
   -9.8515  -22.6580   31.8161 C   0  0  0  0  0  0  0  0  0  0  0  0
  -10.9197  -23.6217   31.4890 C   0  0  0  0  0  0  0  0  0  0  0  0
  -11.1881  -23.9689   30.1720 O   0  0  0  0  0  0  0  0  0  0  0  0
  -11.6086  -24.1479   32.3978 O   0  0  0  0  0  0  0  0  0  0  0  0
  2  1  1  6
  3  2  1  0
  4  3  1  0
  5  4  1  0
  5  6  2  0
  7  8  2  0
  7  2  1  0
  9  5  1  0
 10  7  1  0
 11 10  1  0
 12 11  1  0
 13 12  2  0
 14 12  1  0
 15 14  1  0
 16 15  1  0
 17 16  1  0
 18 16  2  0
M  END
$$$$
