EGG.pdb
     RDKit          3D

 18 17  0  0  1  0  0  0  0  0999 V2000
    5.6122  -20.5992   24.3608 N   0  0  0  0  0  0  0  0  0  0  0  0
    6.2059  -19.7127   23.3459 C   0  0  1  0  0  0  0  0  0  0  0  0
    5.0649  -19.0914   22.6143 C   0  0  0  0  0  0  0  0  0  0  0  0
    3.8429  -19.9483   22.4897 C   0  0  0  0  0  0  0  0  0  0  0  0
    2.7737  -19.3273   21.6720 C   0  0  0  0  0  0  0  0  0  0  0  0
    2.8542  -18.2320   21.0857 O   0  0  0  0  0  0  0  0  0  0  0  0
    7.0635  -18.7334   24.0443 C   0  0  0  0  0  0  0  0  0  0  0  0
    6.8972  -18.5352   25.2757 O   0  0  0  0  0  0  0  0  0  0  0  0
    1.5829  -20.0310   21.5528 O   0  0  0  0  0  0  0  0  0  0  0  0
    8.0833  -17.9890   23.3952 N   0  0  0  0  0  0  0  0  0  0  0  0
    8.9752  -17.0906   24.0565 C   0  0  0  0  0  0  0  0  0  0  0  0
    8.2977  -15.9085   24.6325 C   0  0  0  0  0  0  0  0  0  0  0  0
    7.3064  -15.3609   24.1225 O   0  0  0  0  0  0  0  0  0  0  0  0
    8.8235  -15.3769   25.8433 N   0  0  0  0  0  0  0  0  0  0  0  0
    8.2563  -14.1887   26.4418 C   0  0  0  0  0  0  0  0  0  0  0  0
    9.0472  -13.7909   27.6220 C   0  0  0  0  0  0  0  0  0  0  0  0
    8.7139  -12.6607   28.3559 O   0  0  0  0  0  0  0  0  0  0  0  0
   10.0397  -14.4687   27.9865 O   0  0  0  0  0  0  0  0  0  0  0  0
  2  1  1  1
  3  2  1  0
  4  3  1  0
  5  4  1  0
  5  6  2  0
  7  8  2  0
  7  2  1  0
  9  5  1  0
 10  7  1  0
 11 10  1  0
 12 11  1  0
 13 12  2  0
 14 12  1  0
 15 14  1  0
 16 15  1  0
 17 16  1  0
 18 16  2  0
M  END
$$$$
