EGG.pdb
     RDKit          3D

 18 17  0  0  1  0  0  0  0  0999 V2000
    1.7653  -18.9684   22.5270 N   0  0  0  0  0  0  0  0  0  0  0  0
    2.5385  -20.2156   22.4042 C   0  0  1  0  0  0  0  0  0  0  0  0
    2.2231  -20.7723   21.0574 C   0  0  0  0  0  0  0  0  0  0  0  0
    1.3109  -19.9333   20.2165 C   0  0  0  0  0  0  0  0  0  0  0  0
    0.2785  -20.7241   19.5050 C   0  0  0  0  0  0  0  0  0  0  0  0
    0.5010  -21.6413   18.6931 O   0  0  0  0  0  0  0  0  0  0  0  0
    3.9665  -19.8844   22.5870 C   0  0  0  0  0  0  0  0  0  0  0  0
    4.7913  -20.8091   22.8059 O   0  0  0  0  0  0  0  0  0  0  0  0
   -1.0480  -20.4115   19.7700 O   0  0  0  0  0  0  0  0  0  0  0  0
    4.4719  -18.5590   22.5289 N   0  0  0  0  0  0  0  0  0  0  0  0
    5.8505  -18.2118   22.6667 C   0  0  0  0  0  0  0  0  0  0  0  0
    6.2692  -18.0168   24.0720 C   0  0  0  0  0  0  0  0  0  0  0  0
    5.6637  -17.2955   24.8818 O   0  0  0  0  0  0  0  0  0  0  0  0
    7.4372  -18.7023   24.5090 N   0  0  0  0  0  0  0  0  0  0  0  0
    7.9334  -18.5402   25.8578 C   0  0  0  0  0  0  0  0  0  0  0  0
    7.9390  -19.8413   26.5535 C   0  0  0  0  0  0  0  0  0  0  0  0
    8.8597  -20.1092   27.5574 O   0  0  0  0  0  0  0  0  0  0  0  0
    7.1090  -20.7337   26.2504 O   0  0  0  0  0  0  0  0  0  0  0  0
  2  1  1  6
  3  2  1  0
  4  3  1  0
  5  4  1  0
  5  6  2  0
  7  8  2  0
  7  2  1  0
  9  5  1  0
 10  7  1  0
 11 10  1  0
 12 11  1  0
 13 12  2  0
 14 12  1  0
 15 14  1  0
 16 15  1  0
 17 16  1  0
 18 16  2  0
M  END
$$$$
