EGG.pdb
     RDKit          3D

 18 17  0  0  1  0  0  0  0  0999 V2000
   -0.8467  -26.3136   29.0315 N   0  0  0  0  0  0  0  0  0  0  0  0
   -2.2970  -26.1726   28.8195 C   0  0  1  0  0  0  0  0  0  0  0  0
   -2.7486  -27.4339   28.1650 C   0  0  0  0  0  0  0  0  0  0  0  0
   -2.7907  -27.3979   26.6683 C   0  0  0  0  0  0  0  0  0  0  0  0
   -3.9115  -26.5882   26.1338 C   0  0  0  0  0  0  0  0  0  0  0  0
   -4.7903  -26.0288   26.8155 O   0  0  0  0  0  0  0  0  0  0  0  0
   -2.9266  -25.9308   30.1338 C   0  0  0  0  0  0  0  0  0  0  0  0
   -2.6698  -26.7041   31.0926 O   0  0  0  0  0  0  0  0  0  0  0  0
   -3.9830  -26.4445   24.7547 O   0  0  0  0  0  0  0  0  0  0  0  0
   -3.8210  -24.8568   30.3829 N   0  0  0  0  0  0  0  0  0  0  0  0
   -4.4214  -24.5805   31.6491 C   0  0  0  0  0  0  0  0  0  0  0  0
   -5.2508  -23.3557   31.6510 C   0  0  0  0  0  0  0  0  0  0  0  0
   -5.8542  -22.9288   32.6491 O   0  0  0  0  0  0  0  0  0  0  0  0
   -5.3551  -22.6329   30.4296 N   0  0  0  0  0  0  0  0  0  0  0  0
   -6.1400  -21.4210   30.3476 C   0  0  0  0  0  0  0  0  0  0  0  0
   -7.5781  -21.7502   30.3404 C   0  0  0  0  0  0  0  0  0  0  0  0
   -8.0102  -23.0620   30.4808 O   0  0  0  0  0  0  0  0  0  0  0  0
   -8.4415  -20.8479   30.2067 O   0  0  0  0  0  0  0  0  0  0  0  0
  2  1  1  1
  3  2  1  0
  4  3  1  0
  5  4  1  0
  5  6  2  0
  7  8  2  0
  7  2  1  0
  9  5  1  0
 10  7  1  0
 11 10  1  0
 12 11  1  0
 13 12  2  0
 14 12  1  0
 15 14  1  0
 16 15  1  0
 17 16  1  0
 18 16  2  0
M  END
$$$$
