EGG.pdb
     RDKit          3D

 18 17  0  0  1  0  0  0  0  0999 V2000
    0.7492  -21.0631   21.1328 N   0  0  0  0  0  0  0  0  0  0  0  0
    1.4827  -20.7486   19.8953 C   0  0  1  0  0  0  0  0  0  0  0  0
    0.4506  -20.4388   18.8647 C   0  0  0  0  0  0  0  0  0  0  0  0
   -0.9439  -20.8631   19.2088 C   0  0  0  0  0  0  0  0  0  0  0  0
   -1.9254  -20.5725   18.1366 C   0  0  0  0  0  0  0  0  0  0  0  0
   -1.6574  -20.0882   17.0214 O   0  0  0  0  0  0  0  0  0  0  0  0
    2.3907  -19.6188   20.1804 C   0  0  0  0  0  0  0  0  0  0  0  0
    2.0105  -18.4446   19.9355 O   0  0  0  0  0  0  0  0  0  0  0  0
   -3.2556  -20.8672   18.4036 O   0  0  0  0  0  0  0  0  0  0  0  0
    3.6915  -19.7837   20.7248 N   0  0  0  0  0  0  0  0  0  0  0  0
    4.5879  -18.7111   21.0183 C   0  0  0  0  0  0  0  0  0  0  0  0
    4.7348  -18.4483   22.4665 C   0  0  0  0  0  0  0  0  0  0  0  0
    3.9547  -17.7410   23.1252 O   0  0  0  0  0  0  0  0  0  0  0  0
    5.8402  -19.0478   23.1327 N   0  0  0  0  0  0  0  0  0  0  0  0
    5.6531  -19.8029   24.3519 C   0  0  0  0  0  0  0  0  0  0  0  0
    6.3662  -21.0914   24.2623 C   0  0  0  0  0  0  0  0  0  0  0  0
    7.2790  -21.4706   25.2371 O   0  0  0  0  0  0  0  0  0  0  0  0
    6.1608  -21.8721   23.3002 O   0  0  0  0  0  0  0  0  0  0  0  0
  2  1  1  1
  3  2  1  0
  4  3  1  0
  5  4  1  0
  5  6  2  0
  7  8  2  0
  7  2  1  0
  9  5  1  0
 10  7  1  0
 11 10  1  0
 12 11  1  0
 13 12  2  0
 14 12  1  0
 15 14  1  0
 16 15  1  0
 17 16  1  0
 18 16  2  0
M  END
$$$$
