EGG.pdb
     RDKit          3D

 18 17  0  0  1  0  0  0  0  0999 V2000
    7.6417  -12.8165   17.8605 N   0  0  0  0  0  0  0  0  0  0  0  0
    7.7348  -14.2259   18.2767 C   0  0  1  0  0  0  0  0  0  0  0  0
    8.3843  -14.9531   17.1487 C   0  0  0  0  0  0  0  0  0  0  0  0
    7.5750  -15.0360   15.8912 C   0  0  0  0  0  0  0  0  0  0  0  0
    8.2704  -15.7497   14.7936 C   0  0  0  0  0  0  0  0  0  0  0  0
    7.8118  -16.7124   14.1510 O   0  0  0  0  0  0  0  0  0  0  0  0
    8.5065  -14.2776   19.5353 C   0  0  0  0  0  0  0  0  0  0  0  0
    9.4392  -13.4537   19.7214 O   0  0  0  0  0  0  0  0  0  0  0  0
    9.5410  -15.3026   14.4574 O   0  0  0  0  0  0  0  0  0  0  0  0
    8.2526  -15.2200   20.5662 N   0  0  0  0  0  0  0  0  0  0  0  0
    8.9083  -15.2279   21.8351 C   0  0  0  0  0  0  0  0  0  0  0  0
   10.3397  -15.5923   21.7540 C   0  0  0  0  0  0  0  0  0  0  0  0
   10.9906  -15.6135   20.6965 O   0  0  0  0  0  0  0  0  0  0  0  0
   10.9980  -15.9370   22.9677 N   0  0  0  0  0  0  0  0  0  0  0  0
   12.4086  -16.2559   22.9837 C   0  0  0  0  0  0  0  0  0  0  0  0
   12.8397  -16.5701   24.3592 C   0  0  0  0  0  0  0  0  0  0  0  0
   14.1600  -16.8981   24.6354 O   0  0  0  0  0  0  0  0  0  0  0  0
   12.0186  -16.5468   25.3093 O   0  0  0  0  0  0  0  0  0  0  0  0
  2  1  1  6
  3  2  1  0
  4  3  1  0
  5  4  1  0
  5  6  2  0
  7  8  2  0
  7  2  1  0
  9  5  1  0
 10  7  1  0
 11 10  1  0
 12 11  1  0
 13 12  2  0
 14 12  1  0
 15 14  1  0
 16 15  1  0
 17 16  1  0
 18 16  2  0
M  END
$$$$
