EGG.pdb
     RDKit          3D

 18 17  0  0  1  0  0  0  0  0999 V2000
   -0.9518  -27.0935   29.0665 N   0  0  0  0  0  0  0  0  0  0  0  0
   -1.4018  -27.4137   30.4315 C   0  0  1  0  0  0  0  0  0  0  0  0
   -0.4096  -26.7931   31.3554 C   0  0  0  0  0  0  0  0  0  0  0  0
    0.9825  -27.3367   31.2570 C   0  0  0  0  0  0  0  0  0  0  0  0
    1.9368  -26.6713   32.1757 C   0  0  0  0  0  0  0  0  0  0  0  0
    2.5116  -25.5878   31.9623 O   0  0  0  0  0  0  0  0  0  0  0  0
   -2.7716  -26.8847   30.5937 C   0  0  0  0  0  0  0  0  0  0  0  0
   -3.3660  -27.0375   31.6922 O   0  0  0  0  0  0  0  0  0  0  0  0
    2.2095  -27.3152   33.3751 O   0  0  0  0  0  0  0  0  0  0  0  0
   -3.4693  -26.2013   29.5634 N   0  0  0  0  0  0  0  0  0  0  0  0
   -4.7659  -25.6206   29.7114 C   0  0  0  0  0  0  0  0  0  0  0  0
   -4.7300  -24.1716   30.0064 C   0  0  0  0  0  0  0  0  0  0  0  0
   -3.6887  -23.5388   30.2470 O   0  0  0  0  0  0  0  0  0  0  0  0
   -5.9698  -23.4729   30.0117 N   0  0  0  0  0  0  0  0  0  0  0  0
   -6.0085  -22.0274   30.0372 C   0  0  0  0  0  0  0  0  0  0  0  0
   -7.3971  -21.5624   30.2168 C   0  0  0  0  0  0  0  0  0  0  0  0
   -7.6842  -20.2116   30.3581 O   0  0  0  0  0  0  0  0  0  0  0  0
   -8.3486  -22.3816   30.2453 O   0  0  0  0  0  0  0  0  0  0  0  0
  2  1  1  6
  3  2  1  0
  4  3  1  0
  5  4  1  0
  5  6  2  0
  7  8  2  0
  7  2  1  0
  9  5  1  0
 10  7  1  0
 11 10  1  0
 12 11  1  0
 13 12  2  0
 14 12  1  0
 15 14  1  0
 16 15  1  0
 17 16  1  0
 18 16  2  0
M  END
$$$$
