EGG.pdb
     RDKit          3D

 18 17  0  0  1  0  0  0  0  0999 V2000
   -7.3438  -25.9296   31.2521 N   0  0  0  0  0  0  0  0  0  0  0  0
   -8.5182  -25.1744   31.7199 C   0  0  1  0  0  0  0  0  0  0  0  0
   -8.4605  -25.1921   33.2097 C   0  0  0  0  0  0  0  0  0  0  0  0
   -8.8228  -26.4977   33.8480 C   0  0  0  0  0  0  0  0  0  0  0  0
  -10.2797  -26.6552   34.0719 C   0  0  0  0  0  0  0  0  0  0  0  0
  -11.1398  -25.7737   33.8898 O   0  0  0  0  0  0  0  0  0  0  0  0
   -8.4447  -23.8169   31.1419 C   0  0  0  0  0  0  0  0  0  0  0  0
   -9.4355  -23.0480   31.2447 O   0  0  0  0  0  0  0  0  0  0  0  0
  -10.7173  -27.8931   34.5231 O   0  0  0  0  0  0  0  0  0  0  0  0
   -7.3002  -23.3199   30.4647 N   0  0  0  0  0  0  0  0  0  0  0  0
   -7.1761  -21.9926   29.9518 C   0  0  0  0  0  0  0  0  0  0  0  0
   -6.5438  -21.9362   28.6157 C   0  0  0  0  0  0  0  0  0  0  0  0
   -5.3760  -22.2915   28.3861 O   0  0  0  0  0  0  0  0  0  0  0  0
   -7.3317  -21.4434   27.5380 N   0  0  0  0  0  0  0  0  0  0  0  0
   -6.8149  -21.4240   26.1874 C   0  0  0  0  0  0  0  0  0  0  0  0
   -7.0493  -22.7279   25.5381 C   0  0  0  0  0  0  0  0  0  0  0  0
   -7.6205  -23.7812   26.2391 O   0  0  0  0  0  0  0  0  0  0  0  0
   -6.7359  -22.9108   24.3358 O   0  0  0  0  0  0  0  0  0  0  0  0
  2  1  1  6
  3  2  1  0
  4  3  1  0
  5  4  1  0
  5  6  2  0
  7  8  2  0
  7  2  1  0
  9  5  1  0
 10  7  1  0
 11 10  1  0
 12 11  1  0
 13 12  2  0
 14 12  1  0
 15 14  1  0
 16 15  1  0
 17 16  1  0
 18 16  2  0
M  END
$$$$
