CFH.pdb
     RDKit          3D

 28 29  0  0  1  0  0  0  0  0999 V2000
   29.3455    3.2204  -10.7995 N   0  0  0  0  0  0  0  0  0  0  0  0
   28.2841    3.8582  -10.0765 C   0  0  1  0  0  0  0  0  0  0  0  0
   28.3155    5.3414  -10.3710 C   0  0  0  0  0  0  0  0  0  0  0  0
   29.6528    6.1422   -9.4554 S   0  0  0  0  0  0  0  0  0  0  0  0
   26.9646    3.3477  -10.5220 C   0  0  0  0  0  0  0  0  0  0  0  0
   26.8321    2.9970  -11.7070 O   0  0  0  0  0  0  0  0  0  0  0  0
   25.8653    3.2489   -9.6496 N   0  0  0  0  0  0  0  0  0  0  0  0
   24.5545    2.8102  -10.0505 C   0  0  1  0  0  0  0  0  0  0  0  0
   24.2251    1.4210   -9.5952 C   0  0  0  0  0  0  0  0  0  0  0  0
   24.5475    1.1672   -8.1728 C   0  0  0  0  0  0  0  0  0  0  0  0
   23.5261    1.2429   -7.2503 C   0  0  0  0  0  0  0  0  0  0  0  0
   23.7280    1.0241   -5.9014 C   0  0  0  0  0  0  0  0  0  0  0  0
   24.9847    0.7177   -5.4350 C   0  0  0  0  0  0  0  0  0  0  0  0
   26.0174    0.6376   -6.3406 C   0  0  0  0  0  0  0  0  0  0  0  0
   25.8082    0.8602   -7.7064 C   0  0  0  0  0  0  0  0  0  0  0  0
   23.5091    3.7175   -9.5487 C   0  0  0  0  0  0  0  0  0  0  0  0
   23.7047    4.2703   -8.4133 O   0  0  0  0  0  0  0  0  0  0  0  0
   22.3178    4.0307  -10.2033 N   0  0  0  0  0  0  0  0  0  0  0  0
   21.3351    4.9987   -9.6689 C   0  0  1  0  0  0  0  0  0  0  0  0
   21.1471    6.1129  -10.6674 C   0  0  0  0  0  0  0  0  0  0  0  0
   22.2184    7.1248  -10.5999 C   0  0  0  0  0  0  0  0  0  0  0  0
   23.4186    7.0530  -11.3199 C   0  0  0  0  0  0  0  0  0  0  0  0
   24.1525    8.1338  -11.0179 N   0  0  0  0  0  0  0  0  0  0  0  0
   23.4761    8.8932  -10.1376 C   0  0  0  0  0  0  0  0  0  0  0  0
   22.3124    8.2646   -9.9004 N   0  0  0  0  0  0  0  0  0  0  0  0
   20.0833    4.2319   -9.5728 C   0  0  0  0  0  0  0  0  0  0  0  0
   18.9545    4.7870   -9.0164 O   0  0  0  0  0  0  0  0  0  0  0  0
   20.0084    3.0659   -9.9891 O   0  0  0  0  0  0  0  0  0  0  0  0
  2  1  1  6
  2  5  1  0
  3  2  1  0
  4  3  1  0
  5  7  1  0
  5  6  2  0
  7  8  1  0
  8 16  1  0
  8  9  1  1
 10  9  1  0
 10 15  1  0
 11 10  2  0
 12 11  1  0
 12 13  2  0
 13 14  1  0
 15 14  2  0
 16 17  2  0
 18 19  1  0
 18 16  1  0
 19 20  1  6
 21 20  1  0
 22 21  2  0
 23 24  1  0
 23 22  1  0
 24 25  2  0
 25 21  1  0
 26 19  1  0
 26 27  1  0
 28 26  2  0
M  END
$$$$
