CFH.pdb
     RDKit          3D

 28 29  0  0  1  0  0  0  0  0999 V2000
   23.7367  -13.1244  -18.3326 N   0  0  0  0  0  0  0  0  0  0  0  0
   23.4914  -11.8608  -18.9645 C   0  0  1  0  0  0  0  0  0  0  0  0
   22.2194  -11.9601  -19.7767 C   0  0  0  0  0  0  0  0  0  0  0  0
   22.4933  -12.9451  -21.2675 S   0  0  0  0  0  0  0  0  0  0  0  0
   23.2858  -10.7979  -17.9505 C   0  0  0  0  0  0  0  0  0  0  0  0
   22.7318  -11.0977  -16.8790 O   0  0  0  0  0  0  0  0  0  0  0  0
   23.6961   -9.4692  -18.1632 N   0  0  0  0  0  0  0  0  0  0  0  0
   23.6350   -8.4364  -17.1627 C   0  0  1  0  0  0  0  0  0  0  0  0
   24.9699   -7.8349  -16.8437 C   0  0  0  0  0  0  0  0  0  0  0  0
   25.9802   -8.8240  -16.4046 C   0  0  0  0  0  0  0  0  0  0  0  0
   25.8326   -9.3963  -15.1594 C   0  0  0  0  0  0  0  0  0  0  0  0
   26.7235  -10.3271  -14.6612 C   0  0  0  0  0  0  0  0  0  0  0  0
   27.8063  -10.7145  -15.4149 C   0  0  0  0  0  0  0  0  0  0  0  0
   27.9708  -10.1544  -16.6607 C   0  0  0  0  0  0  0  0  0  0  0  0
   27.0656   -9.2116  -17.1614 C   0  0  0  0  0  0  0  0  0  0  0  0
   22.7276   -7.3502  -17.5687 C   0  0  0  0  0  0  0  0  0  0  0  0
   22.8382   -6.9058  -18.7617 O   0  0  0  0  0  0  0  0  0  0  0  0
   21.7526   -6.7586  -16.7655 N   0  0  0  0  0  0  0  0  0  0  0  0
   20.8174   -5.7256  -17.2620 C   0  0  1  0  0  0  0  0  0  0  0  0
   19.8274   -5.3925  -16.1744 C   0  0  0  0  0  0  0  0  0  0  0  0
   18.8069   -4.4211  -16.6113 C   0  0  0  0  0  0  0  0  0  0  0  0
   18.5978   -4.0414  -17.9440 C   0  0  0  0  0  0  0  0  0  0  0  0
   17.5982   -3.1480  -17.9722 N   0  0  0  0  0  0  0  0  0  0  0  0
   17.1589   -2.9394  -16.7182 C   0  0  0  0  0  0  0  0  0  0  0  0
   17.9027   -3.7180  -15.9145 N   0  0  0  0  0  0  0  0  0  0  0  0
   21.6681   -4.5502  -17.5050 C   0  0  0  0  0  0  0  0  0  0  0  0
   22.6690   -4.2074  -16.6260 O   0  0  0  0  0  0  0  0  0  0  0  0
   21.5089   -3.8355  -18.5062 O   0  0  0  0  0  0  0  0  0  0  0  0
  2  1  1  1
  2  5  1  0
  3  2  1  0
  4  3  1  0
  5  7  1  0
  5  6  2  0
  7  8  1  0
  8 16  1  0
  8  9  1  6
 10  9  1  0
 10 15  1  0
 11 10  2  0
 12 11  1  0
 12 13  2  0
 13 14  1  0
 15 14  2  0
 16 17  2  0
 18 19  1  0
 18 16  1  0
 19 20  1  1
 21 20  1  0
 22 21  2  0
 23 24  1  0
 23 22  1  0
 24 25  2  0
 25 21  1  0
 26 19  1  0
 26 27  1  0
 28 26  2  0
M  END
$$$$
