CFH.pdb
     RDKit          3D

 28 29  0  0  1  0  0  0  0  0999 V2000
   29.1454  -21.3917  -16.0842 N   0  0  0  0  0  0  0  0  0  0  0  0
   28.9303  -20.4006  -15.0705 C   0  0  1  0  0  0  0  0  0  0  0  0
   28.3080  -19.1781  -15.7076 C   0  0  0  0  0  0  0  0  0  0  0  0
   29.5647  -18.1966  -16.5590 S   0  0  0  0  0  0  0  0  0  0  0  0
   27.9799  -20.8961  -14.0451 C   0  0  0  0  0  0  0  0  0  0  0  0
   27.1031  -21.7069  -14.3896 O   0  0  0  0  0  0  0  0  0  0  0  0
   28.0402  -20.4789  -12.7029 N   0  0  0  0  0  0  0  0  0  0  0  0
   27.0895  -20.8668  -11.6944 C   0  0  1  0  0  0  0  0  0  0  0  0
   27.5182  -20.5130  -10.3028 C   0  0  0  0  0  0  0  0  0  0  0  0
   28.7826  -21.1603   -9.8854 C   0  0  0  0  0  0  0  0  0  0  0  0
   29.7471  -21.3834  -10.8444 C   0  0  0  0  0  0  0  0  0  0  0  0
   30.9576  -21.9818  -10.5530 C   0  0  0  0  0  0  0  0  0  0  0  0
   31.2360  -22.3793   -9.2664 C   0  0  0  0  0  0  0  0  0  0  0  0
   30.2856  -22.1652   -8.2950 C   0  0  0  0  0  0  0  0  0  0  0  0
   29.0605  -21.5585   -8.5949 C   0  0  0  0  0  0  0  0  0  0  0  0
   25.7717  -20.2568  -11.9375 C   0  0  0  0  0  0  0  0  0  0  0  0
   25.7496  -19.0985  -12.4769 O   0  0  0  0  0  0  0  0  0  0  0  0
   24.5379  -20.8310  -11.6311 N   0  0  0  0  0  0  0  0  0  0  0  0
   23.2992  -20.5270  -12.3804 C   0  0  1  0  0  0  0  0  0  0  0  0
   23.2820  -21.3348  -13.6536 C   0  0  0  0  0  0  0  0  0  0  0  0
   22.0331  -21.1637  -14.4197 C   0  0  0  0  0  0  0  0  0  0  0  0
   21.0396  -22.1449  -14.5392 C   0  0  0  0  0  0  0  0  0  0  0  0
   20.0534  -21.6507  -15.3016 N   0  0  0  0  0  0  0  0  0  0  0  0
   20.3712  -20.3982  -15.6748 C   0  0  0  0  0  0  0  0  0  0  0  0
   21.5695  -20.1262  -15.1311 N   0  0  0  0  0  0  0  0  0  0  0  0
   22.2172  -21.0009  -11.5036 C   0  0  0  0  0  0  0  0  0  0  0  0
   20.9314  -20.5355  -11.6517 O   0  0  0  0  0  0  0  0  0  0  0  0
   22.4311  -21.8315  -10.6075 O   0  0  0  0  0  0  0  0  0  0  0  0
  2  1  1  6
  2  5  1  0
  3  2  1  0
  4  3  1  0
  5  7  1  0
  5  6  2  0
  7  8  1  0
  8 16  1  0
  8  9  1  1
 10  9  1  0
 10 15  1  0
 11 10  2  0
 12 11  1  0
 12 13  2  0
 13 14  1  0
 15 14  2  0
 16 17  2  0
 18 19  1  0
 18 16  1  0
 19 20  1  6
 21 20  1  0
 22 21  2  0
 23 24  1  0
 23 22  1  0
 24 25  2  0
 25 21  1  0
 26 19  1  0
 26 27  1  0
 28 26  2  0
M  END
$$$$
