CFH.pdb
     RDKit          3D

 28 29  0  0  1  0  0  0  0  0999 V2000
   29.3607  -20.9565  -14.4627 N   0  0  0  0  0  0  0  0  0  0  0  0
   28.4981  -19.9814  -13.8617 C   0  0  1  0  0  0  0  0  0  0  0  0
   27.9191  -19.1052  -14.9502 C   0  0  0  0  0  0  0  0  0  0  0  0
   27.0394  -17.6987  -14.2322 S   0  0  0  0  0  0  0  0  0  0  0  0
   27.3609  -20.6396  -13.1734 C   0  0  0  0  0  0  0  0  0  0  0  0
   26.9410  -21.7209  -13.6200 O   0  0  0  0  0  0  0  0  0  0  0  0
   26.7468  -20.0808  -12.0377 N   0  0  0  0  0  0  0  0  0  0  0  0
   25.6667  -20.7018  -11.3173 C   0  0  1  0  0  0  0  0  0  0  0  0
   25.5092  -20.1879   -9.9184 C   0  0  0  0  0  0  0  0  0  0  0  0
   26.7212  -20.3493   -9.0837 C   0  0  0  0  0  0  0  0  0  0  0  0
   26.9681  -19.4095   -8.1061 C   0  0  0  0  0  0  0  0  0  0  0  0
   28.0724  -19.4733   -7.2786 C   0  0  0  0  0  0  0  0  0  0  0  0
   28.9746  -20.5021   -7.4142 C   0  0  0  0  0  0  0  0  0  0  0  0
   28.7455  -21.4501   -8.3845 C   0  0  0  0  0  0  0  0  0  0  0  0
   27.6251  -21.3814   -9.2206 C   0  0  0  0  0  0  0  0  0  0  0  0
   24.3838  -20.5252  -12.0180 C   0  0  0  0  0  0  0  0  0  0  0  0
   24.1047  -19.3549  -12.4490 O   0  0  0  0  0  0  0  0  0  0  0  0
   23.4399  -21.5243  -12.2559 N   0  0  0  0  0  0  0  0  0  0  0  0
   22.2434  -21.3177  -13.1009 C   0  0  1  0  0  0  0  0  0  0  0  0
   21.6697  -22.6597  -13.4803 C   0  0  0  0  0  0  0  0  0  0  0  0
   20.4665  -22.5460  -14.3262 C   0  0  0  0  0  0  0  0  0  0  0  0
   20.0057  -21.3469  -14.8863 C   0  0  0  0  0  0  0  0  0  0  0  0
   18.8961  -21.6137  -15.5904 N   0  0  0  0  0  0  0  0  0  0  0  0
   18.6267  -22.9287  -15.5059 C   0  0  0  0  0  0  0  0  0  0  0  0
   19.5874  -23.4705  -14.7383 N   0  0  0  0  0  0  0  0  0  0  0  0
   21.2897  -20.6264  -12.2196 C   0  0  0  0  0  0  0  0  0  0  0  0
   21.2974  -20.8421  -10.8612 O   0  0  0  0  0  0  0  0  0  0  0  0
   20.4530  -19.8310  -12.6733 O   0  0  0  0  0  0  0  0  0  0  0  0
  2  1  1  6
  2  5  1  0
  3  2  1  0
  4  3  1  0
  5  7  1  0
  5  6  2  0
  7  8  1  0
  8 16  1  0
  8  9  1  1
 10  9  1  0
 10 15  1  0
 11 10  2  0
 12 11  1  0
 12 13  2  0
 13 14  1  0
 15 14  2  0
 16 17  2  0
 18 19  1  0
 18 16  1  0
 19 20  1  1
 21 20  1  0
 22 21  2  0
 23 24  1  0
 23 22  1  0
 24 25  2  0
 25 21  1  0
 26 19  1  0
 26 27  1  0
 28 26  2  0
M  END
$$$$
