CFH.pdb
     RDKit          3D

 28 29  0  0  1  0  0  0  0  0999 V2000
   27.2964  -22.6577  -18.0053 N   0  0  0  0  0  0  0  0  0  0  0  0
   27.2979  -21.4500  -17.2323 C   0  0  1  0  0  0  0  0  0  0  0  0
   26.5301  -20.3872  -17.9862 C   0  0  0  0  0  0  0  0  0  0  0  0
   24.8111  -20.8936  -18.2231 S   0  0  0  0  0  0  0  0  0  0  0  0
   26.6084  -21.6560  -15.9352 C   0  0  0  0  0  0  0  0  0  0  0  0
   25.9062  -22.6713  -15.7899 O   0  0  0  0  0  0  0  0  0  0  0  0
   26.7244  -20.7432  -14.8711 N   0  0  0  0  0  0  0  0  0  0  0  0
   26.1034  -20.9209  -13.5849 C   0  0  1  0  0  0  0  0  0  0  0  0
   26.8628  -20.2816  -12.4624 C   0  0  0  0  0  0  0  0  0  0  0  0
   26.2727  -20.5270  -11.1270 C   0  0  0  0  0  0  0  0  0  0  0  0
   25.3468  -19.6249  -10.6488 C   0  0  0  0  0  0  0  0  0  0  0  0
   24.7424  -19.7669   -9.4147 C   0  0  0  0  0  0  0  0  0  0  0  0
   25.0582  -20.8391   -8.6138 C   0  0  0  0  0  0  0  0  0  0  0  0
   25.9804  -21.7506   -9.0738 C   0  0  0  0  0  0  0  0  0  0  0  0
   26.5903  -21.6025  -10.3248 C   0  0  0  0  0  0  0  0  0  0  0  0
   24.7316  -20.3863  -13.5738 C   0  0  0  0  0  0  0  0  0  0  0  0
   24.5551  -19.2082  -14.0365 O   0  0  0  0  0  0  0  0  0  0  0  0
   23.6004  -21.0521  -13.1016 N   0  0  0  0  0  0  0  0  0  0  0  0
   22.2434  -20.4646  -13.1434 C   0  0  1  0  0  0  0  0  0  0  0  0
   21.3994  -21.2414  -14.1222 C   0  0  0  0  0  0  0  0  0  0  0  0
   21.5541  -20.7661  -15.5101 C   0  0  0  0  0  0  0  0  0  0  0  0
   21.3500  -19.4409  -15.9180 C   0  0  0  0  0  0  0  0  0  0  0  0
   21.5772  -19.3700  -17.2377 N   0  0  0  0  0  0  0  0  0  0  0  0
   21.9173  -20.5895  -17.6918 C   0  0  0  0  0  0  0  0  0  0  0  0
   21.8966  -21.4153  -16.6320 N   0  0  0  0  0  0  0  0  0  0  0  0
   21.7128  -20.6759  -11.7877 C   0  0  0  0  0  0  0  0  0  0  0  0
   22.4074  -21.4224  -10.8645 O   0  0  0  0  0  0  0  0  0  0  0  0
   20.6270  -20.1891  -11.4376 O   0  0  0  0  0  0  0  0  0  0  0  0
  2  1  1  6
  2  5  1  0
  3  2  1  0
  4  3  1  0
  5  7  1  0
  5  6  2  0
  7  8  1  0
  8 16  1  0
  8  9  1  1
 10  9  1  0
 10 15  1  0
 11 10  2  0
 12 11  1  0
 12 13  2  0
 13 14  1  0
 15 14  2  0
 16 17  2  0
 18 19  1  0
 18 16  1  0
 19 20  1  6
 21 20  1  0
 22 21  2  0
 23 24  1  0
 23 22  1  0
 24 25  2  0
 25 21  1  0
 26 19  1  0
 26 27  1  0
 28 26  2  0
M  END
$$$$
