CFH.pdb
     RDKit          3D

 28 29  0  0  1  0  0  0  0  0999 V2000
   27.9063  -23.2539  -17.9302 N   0  0  0  0  0  0  0  0  0  0  0  0
   27.7571  -21.9504  -17.3517 C   0  0  1  0  0  0  0  0  0  0  0  0
   26.9761  -21.0781  -18.3091 C   0  0  0  0  0  0  0  0  0  0  0  0
   27.9315  -20.7725  -19.8129 S   0  0  0  0  0  0  0  0  0  0  0  0
   26.9830  -22.0221  -16.0884 C   0  0  0  0  0  0  0  0  0  0  0  0
   26.1026  -22.8927  -15.9793 O   0  0  0  0  0  0  0  0  0  0  0  0
   27.2134  -21.1404  -15.0167 N   0  0  0  0  0  0  0  0  0  0  0  0
   26.4757  -21.1627  -13.7811 C   0  0  1  0  0  0  0  0  0  0  0  0
   27.1593  -20.4334  -12.6648 C   0  0  0  0  0  0  0  0  0  0  0  0
   26.4183  -20.4740  -11.3837 C   0  0  0  0  0  0  0  0  0  0  0  0
   26.6915  -21.5011  -10.5061 C   0  0  0  0  0  0  0  0  0  0  0  0
   26.0517  -21.6252   -9.2881 C   0  0  0  0  0  0  0  0  0  0  0  0
   25.1029  -20.7035   -8.9128 C   0  0  0  0  0  0  0  0  0  0  0  0
   24.8162  -19.6708   -9.7755 C   0  0  0  0  0  0  0  0  0  0  0  0
   25.4671  -19.5491  -11.0086 C   0  0  0  0  0  0  0  0  0  0  0  0
   25.1309  -20.5872  -13.9495 C   0  0  0  0  0  0  0  0  0  0  0  0
   25.0494  -19.4262  -14.4772 O   0  0  0  0  0  0  0  0  0  0  0  0
   23.9309  -21.1970  -13.5836 N   0  0  0  0  0  0  0  0  0  0  0  0
   22.6137  -20.5423  -13.7404 C   0  0  1  0  0  0  0  0  0  0  0  0
   21.8196  -21.2770  -14.7909 C   0  0  0  0  0  0  0  0  0  0  0  0
   22.1245  -20.8185  -16.1595 C   0  0  0  0  0  0  0  0  0  0  0  0
   21.8989  -19.5158  -16.6243 C   0  0  0  0  0  0  0  0  0  0  0  0
   22.2903  -19.4554  -17.9054 N   0  0  0  0  0  0  0  0  0  0  0  0
   22.7557  -20.6602  -18.2807 C   0  0  0  0  0  0  0  0  0  0  0  0
   22.6459  -21.4662  -17.2112 N   0  0  0  0  0  0  0  0  0  0  0  0
   21.9581  -20.7253  -12.4363 C   0  0  0  0  0  0  0  0  0  0  0  0
   22.5316  -21.5055  -11.4594 O   0  0  0  0  0  0  0  0  0  0  0  0
   20.8724  -20.1834  -12.1792 O   0  0  0  0  0  0  0  0  0  0  0  0
  2  1  1  6
  2  5  1  0
  3  2  1  0
  4  3  1  0
  5  7  1  0
  5  6  2  0
  7  8  1  0
  8 16  1  0
  8  9  1  1
 10  9  1  0
 10 15  1  0
 11 10  2  0
 12 11  1  0
 12 13  2  0
 13 14  1  0
 15 14  2  0
 16 17  2  0
 18 19  1  0
 18 16  1  0
 19 20  1  6
 21 20  1  0
 22 21  2  0
 23 24  1  0
 23 22  1  0
 24 25  2  0
 25 21  1  0
 26 19  1  0
 26 27  1  0
 28 26  2  0
M  END
$$$$
