CFH.pdb
     RDKit          3D

 28 29  0  0  1  0  0  0  0  0999 V2000
   11.9085  -13.2637    9.7028 N   0  0  0  0  0  0  0  0  0  0  0  0
   13.1969  -13.1880   10.3276 C   0  0  1  0  0  0  0  0  0  0  0  0
   13.3076  -14.2942   11.3532 C   0  0  0  0  0  0  0  0  0  0  0  0
   12.8037  -13.7001   12.9845 S   0  0  0  0  0  0  0  0  0  0  0  0
   14.2762  -13.3994    9.3323 C   0  0  0  0  0  0  0  0  0  0  0  0
   14.0434  -14.1206    8.3471 O   0  0  0  0  0  0  0  0  0  0  0  0
   15.5473  -12.8123    9.4686 N   0  0  0  0  0  0  0  0  0  0  0  0
   16.6212  -12.9863    8.5262 C   0  0  1  0  0  0  0  0  0  0  0  0
   17.4919  -11.7751    8.3835 C   0  0  0  0  0  0  0  0  0  0  0  0
   18.5288  -11.9059    7.3349 C   0  0  0  0  0  0  0  0  0  0  0  0
   19.8234  -12.1677    7.7288 C   0  0  0  0  0  0  0  0  0  0  0  0
   20.8595  -12.3052    6.8255 C   0  0  0  0  0  0  0  0  0  0  0  0
   20.6176  -12.1810    5.4776 C   0  0  0  0  0  0  0  0  0  0  0  0
   19.3314  -11.9196    5.0647 C   0  0  0  0  0  0  0  0  0  0  0  0
   18.2849  -11.7810    5.9836 C   0  0  0  0  0  0  0  0  0  0  0  0
   17.4775  -14.1262    8.8942 C   0  0  0  0  0  0  0  0  0  0  0  0
   17.9326  -14.1593   10.0879 O   0  0  0  0  0  0  0  0  0  0  0  0
   17.8394  -15.1792    8.0541 N   0  0  0  0  0  0  0  0  0  0  0  0
   18.6397  -16.3363    8.5113 C   0  0  1  0  0  0  0  0  0  0  0  0
   17.9249  -17.6099    8.1355 C   0  0  0  0  0  0  0  0  0  0  0  0
   18.2013  -18.7156    9.0721 C   0  0  0  0  0  0  0  0  0  0  0  0
   19.0349  -18.6104   10.1937 C   0  0  0  0  0  0  0  0  0  0  0  0
   19.0558  -19.8000   10.8121 N   0  0  0  0  0  0  0  0  0  0  0  0
   18.2735  -20.6609   10.1368 C   0  0  0  0  0  0  0  0  0  0  0  0
   17.7688  -19.9844    9.0912 N   0  0  0  0  0  0  0  0  0  0  0  0
   19.8867  -16.2461    7.7361 C   0  0  0  0  0  0  0  0  0  0  0  0
   19.8985  -15.6931    6.4768 O   0  0  0  0  0  0  0  0  0  0  0  0
   20.9612  -16.6646    8.1931 O   0  0  0  0  0  0  0  0  0  0  0  0
  2  1  1  6
  2  5  1  0
  3  2  1  0
  4  3  1  0
  5  7  1  0
  5  6  2  0
  7  8  1  0
  8 16  1  0
  8  9  1  1
 10  9  1  0
 10 15  1  0
 11 10  2  0
 12 11  1  0
 12 13  2  0
 13 14  1  0
 15 14  2  0
 16 17  2  0
 18 19  1  0
 18 16  1  0
 19 20  1  6
 21 20  1  0
 22 21  2  0
 23 24  1  0
 23 22  1  0
 24 25  2  0
 25 21  1  0
 26 19  1  0
 26 27  1  0
 28 26  2  0
M  END
$$$$
