CFH.pdb
     RDKit          3D

 28 29  0  0  1  0  0  0  0  0999 V2000
   23.9423  -11.6152  -20.0837 N   0  0  0  0  0  0  0  0  0  0  0  0
   23.3239  -12.1187  -18.8919 C   0  0  1  0  0  0  0  0  0  0  0  0
   24.2309  -13.1595  -18.2740 C   0  0  0  0  0  0  0  0  0  0  0  0
   24.4334  -14.5677  -19.3892 S   0  0  0  0  0  0  0  0  0  0  0  0
   23.1499  -11.0360  -17.8931 C   0  0  0  0  0  0  0  0  0  0  0  0
   22.5696  -11.2993  -16.8259 O   0  0  0  0  0  0  0  0  0  0  0  0
   23.6187   -9.7284  -18.1154 N   0  0  0  0  0  0  0  0  0  0  0  0
   23.4554   -8.6438  -17.1834 C   0  0  1  0  0  0  0  0  0  0  0  0
   24.7451   -7.9782  -16.8106 C   0  0  0  0  0  0  0  0  0  0  0  0
   25.7492   -8.9023  -16.2365 C   0  0  0  0  0  0  0  0  0  0  0  0
   26.9028   -9.1369  -16.9533 C   0  0  0  0  0  0  0  0  0  0  0  0
   27.8968   -9.9834  -16.5019 C   0  0  0  0  0  0  0  0  0  0  0  0
   27.7552  -10.6284  -15.2958 C   0  0  0  0  0  0  0  0  0  0  0  0
   26.6104  -10.4071  -14.5655 C   0  0  0  0  0  0  0  0  0  0  0  0
   25.6060   -9.5485  -15.0270 C   0  0  0  0  0  0  0  0  0  0  0  0
   22.5444   -7.6152  -17.7126 C   0  0  0  0  0  0  0  0  0  0  0  0
   22.6577   -7.3078  -18.9479 O   0  0  0  0  0  0  0  0  0  0  0  0
   21.5634   -6.9418  -16.9848 N   0  0  0  0  0  0  0  0  0  0  0  0
   20.5688   -6.0439  -17.6116 C   0  0  1  0  0  0  0  0  0  0  0  0
   19.4818   -6.8763  -18.2435 C   0  0  0  0  0  0  0  0  0  0  0  0
   18.8331   -6.1973  -19.3811 C   0  0  0  0  0  0  0  0  0  0  0  0
   18.1999   -4.9497  -19.2990 C   0  0  0  0  0  0  0  0  0  0  0  0
   17.7254   -4.6410  -20.5146 N   0  0  0  0  0  0  0  0  0  0  0  0
   18.0265   -5.6344  -21.3700 C   0  0  0  0  0  0  0  0  0  0  0  0
   18.6946   -6.5620  -20.6637 N   0  0  0  0  0  0  0  0  0  0  0  0
   19.9956   -5.2917  -16.4848 C   0  0  0  0  0  0  0  0  0  0  0  0
   19.4789   -4.0300  -16.6663 O   0  0  0  0  0  0  0  0  0  0  0  0
   19.9612   -5.7708  -15.3412 O   0  0  0  0  0  0  0  0  0  0  0  0
  2  1  1  6
  2  5  1  0
  3  2  1  0
  4  3  1  0
  5  7  1  0
  5  6  2  0
  7  8  1  0
  8 16  1  0
  8  9  1  6
 10  9  1  0
 10 15  1  0
 11 10  2  0
 12 11  1  0
 12 13  2  0
 13 14  1  0
 15 14  2  0
 16 17  2  0
 18 19  1  0
 18 16  1  0
 19 20  1  1
 21 20  1  0
 22 21  2  0
 23 24  1  0
 23 22  1  0
 24 25  2  0
 25 21  1  0
 26 19  1  0
 26 27  1  0
 28 26  2  0
M  END
$$$$
