CFH.pdb
     RDKit          3D

 28 29  0  0  1  0  0  0  0  0999 V2000
   13.2639  -14.4540    4.8496 N   0  0  0  0  0  0  0  0  0  0  0  0
   13.8423  -13.4535    5.6985 C   0  0  1  0  0  0  0  0  0  0  0  0
   12.9011  -13.1891    6.8525 C   0  0  0  0  0  0  0  0  0  0  0  0
   11.3369  -12.5094    6.2531 S   0  0  0  0  0  0  0  0  0  0  0  0
   15.1235  -13.9302    6.2742 C   0  0  0  0  0  0  0  0  0  0  0  0
   15.2789  -15.1510    6.4490 O   0  0  0  0  0  0  0  0  0  0  0  0
   16.1615  -13.0484    6.6261 N   0  0  0  0  0  0  0  0  0  0  0  0
   17.4276  -13.4682    7.1668 C   0  0  1  0  0  0  0  0  0  0  0  0
   18.6062  -12.9027    6.4341 C   0  0  0  0  0  0  0  0  0  0  0  0
   18.7709  -13.4397    5.0643 C   0  0  0  0  0  0  0  0  0  0  0  0
   18.5572  -14.7864    4.8631 C   0  0  0  0  0  0  0  0  0  0  0  0
   18.6877  -15.3803    3.6228 C   0  0  0  0  0  0  0  0  0  0  0  0
   19.0429  -14.6227    2.5316 C   0  0  0  0  0  0  0  0  0  0  0  0
   19.2605  -13.2763    2.7124 C   0  0  0  0  0  0  0  0  0  0  0  0
   19.1271  -12.6789    3.9710 C   0  0  0  0  0  0  0  0  0  0  0  0
   17.5516  -13.1017    8.5874 C   0  0  0  0  0  0  0  0  0  0  0  0
   17.3757  -11.8742    8.8962 O   0  0  0  0  0  0  0  0  0  0  0  0
   17.8451  -13.9770    9.6331 N   0  0  0  0  0  0  0  0  0  0  0  0
   17.9900  -13.5351   11.0374 C   0  0  1  0  0  0  0  0  0  0  0  0
   17.0174  -14.3010   11.8984 C   0  0  0  0  0  0  0  0  0  0  0  0
   17.1495  -13.9784   13.3318 C   0  0  0  0  0  0  0  0  0  0  0  0
   16.6371  -12.8195   13.9306 C   0  0  0  0  0  0  0  0  0  0  0  0
   16.9398  -12.8549   15.2364 N   0  0  0  0  0  0  0  0  0  0  0  0
   17.6224  -13.9836   15.4996 C   0  0  0  0  0  0  0  0  0  0  0  0
   17.7367  -14.6453   14.3357 N   0  0  0  0  0  0  0  0  0  0  0  0
   19.3593  -13.9284   11.4038 C   0  0  0  0  0  0  0  0  0  0  0  0
   20.0021  -13.3433   12.4698 O   0  0  0  0  0  0  0  0  0  0  0  0
   19.9733  -14.7963   10.7649 O   0  0  0  0  0  0  0  0  0  0  0  0
  2  1  1  6
  2  5  1  0
  3  2  1  0
  4  3  1  0
  5  7  1  0
  5  6  2  0
  7  8  1  0
  8 16  1  0
  8  9  1  6
 10  9  1  0
 10 15  1  0
 11 10  2  0
 12 11  1  0
 12 13  2  0
 13 14  1  0
 15 14  2  0
 16 17  2  0
 18 19  1  0
 18 16  1  0
 19 20  1  1
 21 20  1  0
 22 21  2  0
 23 24  1  0
 23 22  1  0
 24 25  2  0
 25 21  1  0
 26 19  1  0
 26 27  1  0
 28 26  2  0
M  END
$$$$
