CFH.pdb
     RDKit          3D

 28 29  0  0  1  0  0  0  0  0999 V2000
   29.0854  -18.7935  -16.4902 N   0  0  0  0  0  0  0  0  0  0  0  0
   28.3972  -18.3199  -15.3248 C   0  0  1  0  0  0  0  0  0  0  0  0
   27.4168  -17.2455  -15.7399 C   0  0  0  0  0  0  0  0  0  0  0  0
   26.4370  -16.6984  -14.3228 S   0  0  0  0  0  0  0  0  0  0  0  0
   27.6148  -19.4125  -14.6968 C   0  0  0  0  0  0  0  0  0  0  0  0
   27.0262  -20.2218  -15.4341 O   0  0  0  0  0  0  0  0  0  0  0  0
   27.5191  -19.5598  -13.3011 N   0  0  0  0  0  0  0  0  0  0  0  0
   26.7606  -20.5950  -12.6495 C   0  0  1  0  0  0  0  0  0  0  0  0
   27.3250  -21.0028  -11.3225 C   0  0  0  0  0  0  0  0  0  0  0  0
   28.7066  -21.5294  -11.3982 C   0  0  0  0  0  0  0  0  0  0  0  0
   29.5605  -21.2696  -10.3479 C   0  0  0  0  0  0  0  0  0  0  0  0
   30.8674  -21.7167  -10.3273 C   0  0  0  0  0  0  0  0  0  0  0  0
   31.3599  -22.4502  -11.3810 C   0  0  0  0  0  0  0  0  0  0  0  0
   30.5226  -22.7199  -12.4389 C   0  0  0  0  0  0  0  0  0  0  0  0
   29.1992  -22.2647  -12.4554 C   0  0  0  0  0  0  0  0  0  0  0  0
   25.3607  -20.1866  -12.4467 C   0  0  0  0  0  0  0  0  0  0  0  0
   25.1211  -19.3501  -11.5108 O   0  0  0  0  0  0  0  0  0  0  0  0
   24.2655  -20.6318  -13.1872 N   0  0  0  0  0  0  0  0  0  0  0  0
   22.8912  -20.1267  -12.9765 C   0  0  1  0  0  0  0  0  0  0  0  0
   22.6799  -18.9011  -13.8292 C   0  0  0  0  0  0  0  0  0  0  0  0
   22.9262  -19.1545  -15.2614 C   0  0  0  0  0  0  0  0  0  0  0  0
   21.9572  -19.6252  -16.1578 C   0  0  0  0  0  0  0  0  0  0  0  0
   22.5262  -19.7388  -17.3668 N   0  0  0  0  0  0  0  0  0  0  0  0
   23.8147  -19.3622  -17.2839 C   0  0  0  0  0  0  0  0  0  0  0  0
   24.0331  -19.0140  -16.0046 N   0  0  0  0  0  0  0  0  0  0  0  0
   22.0255  -21.2064  -13.4753 C   0  0  0  0  0  0  0  0  0  0  0  0
   20.6682  -21.1844  -13.2540 O   0  0  0  0  0  0  0  0  0  0  0  0
   22.4919  -22.1658  -14.1082 O   0  0  0  0  0  0  0  0  0  0  0  0
  2  1  1  6
  2  5  1  0
  3  2  1  0
  4  3  1  0
  5  7  1  0
  5  6  2  0
  7  8  1  0
  8 16  1  0
  8  9  1  1
 10  9  1  0
 10 15  1  0
 11 10  2  0
 12 11  1  0
 12 13  2  0
 13 14  1  0
 15 14  2  0
 16 17  2  0
 18 19  1  0
 18 16  1  0
 19 20  1  6
 21 20  1  0
 22 21  2  0
 23 24  1  0
 23 22  1  0
 24 25  2  0
 25 21  1  0
 26 19  1  0
 26 27  1  0
 28 26  2  0
M  END
$$$$
