STN.pdb
     RDKit          3D

 22 21  0  0  1  0  0  0  0  0999 V2000
   16.7468  -13.4013  -14.6894 O   0  0  0  0  0  0  0  0  0  0  0  0
   17.4460  -12.2628  -15.0490 C   0  0  0  0  0  0  0  0  0  0  0  0
   17.9995  -12.3748  -16.4666 C   0  0  2  0  0  0  0  0  0  0  0  0
   18.7375  -13.6035  -16.5378 N   0  0  0  0  0  0  0  0  0  0  0  0
   18.8414  -11.2269  -16.8154 C   0  0  0  0  0  0  0  0  0  0  0  0
   20.0614  -11.3484  -17.0837 O   0  0  0  0  0  0  0  0  0  0  0  0
   18.4070   -8.9475  -19.7356 C   0  0  0  0  0  0  0  0  0  0  0  0
   18.4441   -8.0960  -18.5182 C   0  0  1  0  0  0  0  0  0  0  0  0
   17.1524   -7.6520  -18.2469 O   0  0  0  0  0  0  0  0  0  0  0  0
   19.0610   -8.7612  -17.3191 C   0  0  2  0  0  0  0  0  0  0  0  0
   18.2968   -9.8995  -16.8648 N   0  0  0  0  0  0  0  0  0  0  0  0
   19.3655   -7.8115  -16.2252 C   0  0  0  0  0  0  0  0  0  0  0  0
   18.5404   -7.7347  -15.2790 O   0  0  0  0  0  0  0  0  0  0  0  0
   22.5008   -5.2221  -12.3292 N   0  0  0  0  0  0  0  0  0  0  0  0
   22.4429   -4.8801  -13.7287 C   0  0  0  0  0  0  0  0  0  0  0  0
   22.6083   -3.6813  -14.0074 O   0  0  0  0  0  0  0  0  0  0  0  0
   22.2029   -5.8883  -14.7614 C   0  0  0  0  0  0  0  0  0  0  0  0
   20.7770   -6.0455  -15.0905 C   0  0  2  0  0  0  0  0  0  0  0  0
   20.5171   -6.9838  -16.1662 N   0  0  0  0  0  0  0  0  0  0  0  0
   20.1698   -4.7501  -15.4467 C   0  0  0  0  0  0  0  0  0  0  0  0
   19.5641   -3.9439  -14.4419 O   0  0  0  0  0  0  0  0  0  0  0  0
   20.1154   -4.2393  -16.5841 O   0  0  0  0  0  0  0  0  0  0  0  0
  1  2  1  0
  2  3  1  0
  3  5  1  0
  3  4  1  1
  5 11  1  0
  6  5  2  0
  8  9  1  0
  8  7  1  6
 10 11  1  1
 10 12  1  0
 10  8  1  0
 12 19  1  0
 12 13  2  0
 15 14  1  0
 15 16  2  0
 17 15  1  0
 18 17  1  6
 18 20  1  0
 19 18  1  0
 20 22  2  0
 20 21  1  0
M  END
$$$$
