STN.pdb
     RDKit          3D

 22 21  0  0  1  0  0  0  0  0999 V2000
   13.5072  -11.1398  -14.9036 O   0  0  0  0  0  0  0  0  0  0  0  0
   14.8496  -11.0774  -14.5745 C   0  0  0  0  0  0  0  0  0  0  0  0
   15.6777  -12.0284  -15.4338 C   0  0  2  0  0  0  0  0  0  0  0  0
   15.2965  -13.3647  -15.0752 N   0  0  0  0  0  0  0  0  0  0  0  0
   17.1163  -11.8173  -15.2494 C   0  0  0  0  0  0  0  0  0  0  0  0
   17.7790  -12.4409  -14.3852 O   0  0  0  0  0  0  0  0  0  0  0  0
   20.1193  -12.4880  -17.1939 C   0  0  0  0  0  0  0  0  0  0  0  0
   20.1005  -11.0167  -16.9848 C   0  0  1  0  0  0  0  0  0  0  0  0
   19.7346  -10.4027  -18.1800 O   0  0  0  0  0  0  0  0  0  0  0  0
   19.2289  -10.5670  -15.8452 C   0  0  2  0  0  0  0  0  0  0  0  0
   17.8346  -10.8758  -16.0610 N   0  0  0  0  0  0  0  0  0  0  0  0
   19.4439   -9.1489  -15.4790 C   0  0  0  0  0  0  0  0  0  0  0  0
   18.5399   -8.3290  -15.7836 O   0  0  0  0  0  0  0  0  0  0  0  0
   21.2505   -4.5360  -13.9507 N   0  0  0  0  0  0  0  0  0  0  0  0
   21.9194   -5.5464  -13.1692 C   0  0  0  0  0  0  0  0  0  0  0  0
   22.6514   -5.1361  -12.2539 O   0  0  0  0  0  0  0  0  0  0  0  0
   21.7453   -6.9737  -13.4395 C   0  0  0  0  0  0  0  0  0  0  0  0
   20.8194   -7.2389  -14.5526 C   0  0  2  0  0  0  0  0  0  0  0  0
   20.5919   -8.6483  -14.8111 N   0  0  0  0  0  0  0  0  0  0  0  0
   21.2942   -6.6085  -15.7979 C   0  0  0  0  0  0  0  0  0  0  0  0
   20.9194   -5.2712  -16.1104 O   0  0  0  0  0  0  0  0  0  0  0  0
   22.0261   -7.1280  -16.6651 O   0  0  0  0  0  0  0  0  0  0  0  0
  1  2  1  0
  2  3  1  0
  3  5  1  0
  3  4  1  1
  5 11  1  0
  6  5  2  0
  8  9  1  0
  8  7  1  6
 10 11  1  6
 10 12  1  0
 10  8  1  0
 12 19  1  0
 12 13  2  0
 15 14  1  0
 15 16  2  0
 17 15  1  0
 18 17  1  1
 18 20  1  0
 19 18  1  0
 20 22  2  0
 20 21  1  0
M  END
$$$$
