STN.pdb
     RDKit          3D

 22 21  0  0  1  0  0  0  0  0999 V2000
   18.4140  -14.4937  -14.8263 O   0  0  0  0  0  0  0  0  0  0  0  0
   18.8445  -13.3882  -15.5383 C   0  0  0  0  0  0  0  0  0  0  0  0
   17.6829  -12.4590  -15.8785 C   0  0  2  0  0  0  0  0  0  0  0  0
   16.8440  -13.1535  -16.8130 N   0  0  0  0  0  0  0  0  0  0  0  0
   18.1487  -11.1824  -16.4276 C   0  0  0  0  0  0  0  0  0  0  0  0
   18.6575  -11.0914  -17.5712 O   0  0  0  0  0  0  0  0  0  0  0  0
   16.0700   -8.4032  -17.3896 C   0  0  0  0  0  0  0  0  0  0  0  0
   17.0304   -7.8568  -16.3958 C   0  0  1  0  0  0  0  0  0  0  0  0
   16.3713   -7.7041  -15.1785 O   0  0  0  0  0  0  0  0  0  0  0  0
   18.2879   -8.6668  -16.2436 C   0  0  2  0  0  0  0  0  0  0  0  0
   18.0402   -9.9685  -15.6688 N   0  0  0  0  0  0  0  0  0  0  0  0
   19.3649   -7.9339  -15.5405 C   0  0  0  0  0  0  0  0  0  0  0  0
   19.5266   -8.1763  -14.3169 O   0  0  0  0  0  0  0  0  0  0  0  0
   23.2597   -4.7943  -14.1199 N   0  0  0  0  0  0  0  0  0  0  0  0
   23.6104   -5.6425  -15.2319 C   0  0  0  0  0  0  0  0  0  0  0  0
   24.8110   -5.6629  -15.5484 O   0  0  0  0  0  0  0  0  0  0  0  0
   22.6086   -6.4340  -15.9463 C   0  0  0  0  0  0  0  0  0  0  0  0
   21.2469   -6.2482  -15.4194 C   0  0  2  0  0  0  0  0  0  0  0  0
   20.2259   -6.9807  -16.1445 N   0  0  0  0  0  0  0  0  0  0  0  0
   20.8745   -4.8217  -15.4057 C   0  0  0  0  0  0  0  0  0  0  0  0
   21.2880   -3.9850  -14.3308 O   0  0  0  0  0  0  0  0  0  0  0  0
   20.2031   -4.2177  -16.2671 O   0  0  0  0  0  0  0  0  0  0  0  0
  1  2  1  0
  2  3  1  0
  3  5  1  0
  3  4  1  6
  5 11  1  0
  6  5  2  0
  8  9  1  0
  8  7  1  6
 10 11  1  1
 10 12  1  0
 10  8  1  0
 12 19  1  0
 12 13  2  0
 15 14  1  0
 15 16  2  0
 17 15  1  0
 18 17  1  6
 18 20  1  0
 19 18  1  0
 20 22  2  0
 20 21  1  0
M  END
$$$$
