STN.pdb
     RDKit          3D

 22 21  0  0  1  0  0  0  0  0999 V2000
   14.7517   -9.4116  -17.4907 O   0  0  0  0  0  0  0  0  0  0  0  0
   15.5854   -9.2476  -16.3987 C   0  0  0  0  0  0  0  0  0  0  0  0
   16.6554  -10.3343  -16.3478 C   0  0  2  0  0  0  0  0  0  0  0  0
   16.0199  -11.5335  -15.8811 N   0  0  0  0  0  0  0  0  0  0  0  0
   17.7770   -9.9552  -15.4838 C   0  0  0  0  0  0  0  0  0  0  0  0
   17.7468  -10.1140  -14.2393 O   0  0  0  0  0  0  0  0  0  0  0  0
   21.1106  -11.2673  -15.0728 C   0  0  0  0  0  0  0  0  0  0  0  0
   21.3032   -9.8391  -15.4358 C   0  0  1  0  0  0  0  0  0  0  0  0
   21.7431   -9.7715  -16.7554 O   0  0  0  0  0  0  0  0  0  0  0  0
   20.0908   -8.9778  -15.2145 C   0  0  2  0  0  0  0  0  0  0  0  0
   18.9712   -9.3790  -16.0341 N   0  0  0  0  0  0  0  0  0  0  0  0
   20.3828   -7.5308  -15.3254 C   0  0  0  0  0  0  0  0  0  0  0  0
   20.0315   -6.9488  -16.3836 O   0  0  0  0  0  0  0  0  0  0  0  0
   19.2453   -2.1027  -14.4275 N   0  0  0  0  0  0  0  0  0  0  0  0
   20.2772   -3.0904  -14.6238 C   0  0  0  0  0  0  0  0  0  0  0  0
   21.3927   -2.6588  -14.9577 O   0  0  0  0  0  0  0  0  0  0  0  0
   20.0241   -4.5196  -14.4401 C   0  0  0  0  0  0  0  0  0  0  0  0
   21.2553   -5.3263  -14.4438 C   0  0  2  0  0  0  0  0  0  0  0  0
   21.0283   -6.7545  -14.3277 N   0  0  0  0  0  0  0  0  0  0  0  0
   22.1642   -4.9103  -13.3600 C   0  0  0  0  0  0  0  0  0  0  0  0
   22.7852   -3.6300  -13.3995 O   0  0  0  0  0  0  0  0  0  0  0  0
   22.4777   -5.5766  -12.3524 O   0  0  0  0  0  0  0  0  0  0  0  0
  1  2  1  0
  2  3  1  0
  3  5  1  0
  3  4  1  1
  5 11  1  0
  6  5  2  0
  8  9  1  0
  8  7  1  6
 10 11  1  6
 10 12  1  0
 10  8  1  0
 12 19  1  0
 12 13  2  0
 15 14  1  0
 15 16  2  0
 17 15  1  0
 18 17  1  1
 18 20  1  0
 19 18  1  0
 20 22  2  0
 20 21  1  0
M  END
$$$$
