STN.pdb
     RDKit          3D

 22 21  0  0  1  0  0  0  0  0999 V2000
   17.0665  -14.1392  -14.0664 O   0  0  0  0  0  0  0  0  0  0  0  0
   17.6303  -12.9440  -14.4763 C   0  0  0  0  0  0  0  0  0  0  0  0
   17.9663  -12.9691  -15.9645 C   0  0  2  0  0  0  0  0  0  0  0  0
   18.5930  -14.2312  -16.2365 N   0  0  0  0  0  0  0  0  0  0  0  0
   18.8332  -11.8508  -16.3468 C   0  0  0  0  0  0  0  0  0  0  0  0
   20.0657  -11.9933  -16.5355 O   0  0  0  0  0  0  0  0  0  0  0  0
   18.4575   -9.8854  -19.4668 C   0  0  0  0  0  0  0  0  0  0  0  0
   18.4885   -8.9061  -18.3493 C   0  0  1  0  0  0  0  0  0  0  0  0
   17.1995   -8.4179  -18.1506 O   0  0  0  0  0  0  0  0  0  0  0  0
   19.0765   -9.4440  -17.0743 C   0  0  2  0  0  0  0  0  0  0  0  0
   18.2997  -10.5296  -16.5228 N   0  0  0  0  0  0  0  0  0  0  0  0
   19.3577   -8.3865  -16.0774 C   0  0  0  0  0  0  0  0  0  0  0  0
   18.6353   -8.3543  -15.0482 O   0  0  0  0  0  0  0  0  0  0  0  0
   21.0846   -4.1254  -13.5924 N   0  0  0  0  0  0  0  0  0  0  0  0
   22.0468   -5.1966  -13.6675 C   0  0  0  0  0  0  0  0  0  0  0  0
   23.0511   -5.0829  -12.9460 O   0  0  0  0  0  0  0  0  0  0  0  0
   21.8507   -6.3515  -14.5439 C   0  0  0  0  0  0  0  0  0  0  0  0
   20.5636   -6.3197  -15.2571 C   0  0  2  0  0  0  0  0  0  0  0  0
   20.3800   -7.4092  -16.1975 N   0  0  0  0  0  0  0  0  0  0  0  0
   20.3905   -5.0469  -15.9807 C   0  0  0  0  0  0  0  0  0  0  0  0
   19.9409   -3.8866  -15.2892 O   0  0  0  0  0  0  0  0  0  0  0  0
   20.6000   -4.8441  -17.1942 O   0  0  0  0  0  0  0  0  0  0  0  0
  1  2  1  0
  2  3  1  0
  3  5  1  0
  3  4  1  1
  5 11  1  0
  6  5  2  0
  8  9  1  0
  8  7  1  6
 10 11  1  1
 10 12  1  0
 10  8  1  0
 12 19  1  0
 12 13  2  0
 15 14  1  0
 15 16  2  0
 17 15  1  0
 18 17  1  6
 18 20  1  0
 19 18  1  0
 20 22  2  0
 20 21  1  0
M  END
$$$$
