STN.pdb
     RDKit          3D

 22 21  0  0  1  0  0  0  0  0999 V2000
   16.2922  -11.2007  -18.0376 O   0  0  0  0  0  0  0  0  0  0  0  0
   17.0134  -10.7280  -16.9556 C   0  0  0  0  0  0  0  0  0  0  0  0
   18.4026  -11.3563  -16.8959 C   0  0  2  0  0  0  0  0  0  0  0  0
   18.2265  -12.7458  -16.5835 N   0  0  0  0  0  0  0  0  0  0  0  0
   19.2592  -10.6929  -15.9087 C   0  0  0  0  0  0  0  0  0  0  0  0
   19.1010  -10.8480  -14.6735 O   0  0  0  0  0  0  0  0  0  0  0  0
   22.8735  -10.9906  -15.2314 C   0  0  0  0  0  0  0  0  0  0  0  0
   22.6227   -9.5517  -15.5056 C   0  0  1  0  0  0  0  0  0  0  0  0
   23.1319   -9.2440  -16.7647 O   0  0  0  0  0  0  0  0  0  0  0  0
   21.1815   -9.1420  -15.3791 C   0  0  2  0  0  0  0  0  0  0  0  0
   20.3277   -9.8273  -16.3211 N   0  0  0  0  0  0  0  0  0  0  0  0
   20.9941   -7.6739  -15.4103 C   0  0  0  0  0  0  0  0  0  0  0  0
   20.2488   -7.2045  -16.3082 O   0  0  0  0  0  0  0  0  0  0  0  0
   20.7870   -2.5842  -14.4982 N   0  0  0  0  0  0  0  0  0  0  0  0
   19.6974   -3.5229  -14.3943 C   0  0  0  0  0  0  0  0  0  0  0  0
   18.5607   -3.0339  -14.2895 O   0  0  0  0  0  0  0  0  0  0  0  0
   19.9188   -4.9690  -14.4115 C   0  0  0  0  0  0  0  0  0  0  0  0
   21.3412   -5.3312  -14.5218 C   0  0  2  0  0  0  0  0  0  0  0  0
   21.5919   -6.7601  -14.5036 N   0  0  0  0  0  0  0  0  0  0  0  0
   22.1316   -4.7067  -13.4452 C   0  0  0  0  0  0  0  0  0  0  0  0
   22.5951   -3.3678  -13.5830 O   0  0  0  0  0  0  0  0  0  0  0  0
   22.4666   -5.2329  -12.3642 O   0  0  0  0  0  0  0  0  0  0  0  0
  1  2  1  0
  2  3  1  0
  3  5  1  0
  3  4  1  1
  5 11  1  0
  6  5  2  0
  8  9  1  0
  8  7  1  6
 10 11  1  6
 10 12  1  0
 10  8  1  0
 12 19  1  0
 12 13  2  0
 15 14  1  0
 15 16  2  0
 17 15  1  0
 18 17  1  1
 18 20  1  0
 19 18  1  0
 20 22  2  0
 20 21  1  0
M  END
$$$$
