STN.pdb
     RDKit          3D

 22 21  0  0  1  0  0  0  0  0999 V2000
   14.2011  -11.2347  -14.1999 O   0  0  0  0  0  0  0  0  0  0  0  0
   15.5563  -10.9581  -14.2368 C   0  0  0  0  0  0  0  0  0  0  0  0
   16.2095  -11.5430  -15.4856 C   0  0  2  0  0  0  0  0  0  0  0  0
   16.2518  -12.9672  -15.3146 N   0  0  0  0  0  0  0  0  0  0  0  0
   17.5499  -10.9933  -15.7082 C   0  0  0  0  0  0  0  0  0  0  0  0
   18.5868  -11.5731  -15.3038 O   0  0  0  0  0  0  0  0  0  0  0  0
   19.5075  -10.3469  -18.8271 C   0  0  0  0  0  0  0  0  0  0  0  0
   19.3389   -9.0505  -18.1202 C   0  0  1  0  0  0  0  0  0  0  0  0
   18.3600   -8.3098  -18.7778 O   0  0  0  0  0  0  0  0  0  0  0  0
   19.0368   -9.1830  -16.6532 C   0  0  2  0  0  0  0  0  0  0  0  0
   17.7326   -9.7527  -16.4072 N   0  0  0  0  0  0  0  0  0  0  0  0
   19.2552   -7.9255  -15.9032 C   0  0  0  0  0  0  0  0  0  0  0  0
   18.2458   -7.2182  -15.6528 O   0  0  0  0  0  0  0  0  0  0  0  0
   21.1560   -3.7355  -13.4987 N   0  0  0  0  0  0  0  0  0  0  0  0
   22.0672   -4.8290  -13.2681 C   0  0  0  0  0  0  0  0  0  0  0  0
   23.0097   -4.6027  -12.4919 O   0  0  0  0  0  0  0  0  0  0  0  0
   21.8910   -6.1308  -13.9121 C   0  0  0  0  0  0  0  0  0  0  0  0
   20.7121   -6.1817  -14.7919 C   0  0  2  0  0  0  0  0  0  0  0  0
   20.5166   -7.4613  -15.4473 N   0  0  0  0  0  0  0  0  0  0  0  0
   20.7785   -5.1344  -15.8274 C   0  0  0  0  0  0  0  0  0  0  0  0
   20.1413   -3.8789  -15.6166 O   0  0  0  0  0  0  0  0  0  0  0  0
   21.3560   -5.2119  -16.9310 O   0  0  0  0  0  0  0  0  0  0  0  0
  1  2  1  0
  2  3  1  0
  3  5  1  0
  3  4  1  1
  5 11  1  0
  6  5  2  0
  8  9  1  0
  8  7  1  6
 10 11  1  6
 10 12  1  0
 10  8  1  0
 12 19  1  0
 12 13  2  0
 15 14  1  0
 15 16  2  0
 17 15  1  0
 18 17  1  6
 18 20  1  0
 19 18  1  0
 20 22  2  0
 20 21  1  0
M  END
$$$$
