STN.pdb
     RDKit          3D

 22 21  0  0  1  0  0  0  0  0999 V2000
   11.9608  -10.6328   -8.7667 O   0  0  0  0  0  0  0  0  0  0  0  0
   12.5119   -9.4652   -9.2640 C   0  0  0  0  0  0  0  0  0  0  0  0
   13.9679   -9.6677   -9.6733 C   0  0  2  0  0  0  0  0  0  0  0  0
   14.6860  -10.0734   -8.4988 N   0  0  0  0  0  0  0  0  0  0  0  0
   14.5443   -8.4530  -10.2568 C   0  0  0  0  0  0  0  0  0  0  0  0
   14.0214   -7.8676  -11.2360 O   0  0  0  0  0  0  0  0  0  0  0  0
   14.9904   -5.1392   -8.7547 C   0  0  0  0  0  0  0  0  0  0  0  0
   16.3376   -5.5501   -9.2289 C   0  0  1  0  0  0  0  0  0  0  0  0
   17.1157   -5.8828   -8.1229 O   0  0  0  0  0  0  0  0  0  0  0  0
   16.3221   -6.6585  -10.2448 C   0  0  2  0  0  0  0  0  0  0  0  0
   15.7465   -7.8767   -9.7244 N   0  0  0  0  0  0  0  0  0  0  0  0
   17.6425   -6.8815  -10.8758 C   0  0  0  0  0  0  0  0  0  0  0  0
   18.4339   -7.6705  -10.2986 O   0  0  0  0  0  0  0  0  0  0  0  0
   20.8811   -9.3103  -14.6487 N   0  0  0  0  0  0  0  0  0  0  0  0
   20.8241   -8.3479  -13.5766 C   0  0  0  0  0  0  0  0  0  0  0  0
   21.8943   -7.7910  -13.2824 O   0  0  0  0  0  0  0  0  0  0  0  0
   19.5763   -8.0450  -12.8754 C   0  0  0  0  0  0  0  0  0  0  0  0
   19.3298   -6.6003  -12.7392 C   0  0  2  0  0  0  0  0  0  0  0  0
   18.0792   -6.2720  -12.0810 N   0  0  0  0  0  0  0  0  0  0  0  0
   19.3524   -5.9331  -14.0537 C   0  0  0  0  0  0  0  0  0  0  0  0
   20.5627   -5.3712  -14.5497 O   0  0  0  0  0  0  0  0  0  0  0  0
   18.3890   -5.7891  -14.8340 O   0  0  0  0  0  0  0  0  0  0  0  0
  1  2  1  0
  2  3  1  0
  3  5  1  0
  3  4  1  1
  5 11  1  0
  6  5  2  0
  8  9  1  0
  8  7  1  1
 10 11  1  1
 10 12  1  0
 10  8  1  0
 12 19  1  0
 12 13  2  0
 15 14  1  0
 15 16  2  0
 17 15  1  0
 18 17  1  6
 18 20  1  0
 19 18  1  0
 20 22  2  0
 20 21  1  0
M  END
$$$$
