STN.pdb
     RDKit          3D

 22 21  0  0  1  0  0  0  0  0999 V2000
   17.0508  -14.0210  -14.1993 O   0  0  0  0  0  0  0  0  0  0  0  0
   17.7424  -12.9432  -14.7231 C   0  0  0  0  0  0  0  0  0  0  0  0
   17.1825  -12.5300  -16.0811 C   0  0  2  0  0  0  0  0  0  0  0  0
   17.3093  -13.6619  -16.9542 N   0  0  0  0  0  0  0  0  0  0  0  0
   17.8766  -11.3586  -16.6236 C   0  0  0  0  0  0  0  0  0  0  0  0
   18.7615  -11.4550  -17.5082 O   0  0  0  0  0  0  0  0  0  0  0  0
   16.6950   -8.7861  -18.7717 C   0  0  0  0  0  0  0  0  0  0  0  0
   17.1828   -8.0669  -17.5660 C   0  0  1  0  0  0  0  0  0  0  0  0
   16.0824   -7.6615  -16.8150 O   0  0  0  0  0  0  0  0  0  0  0  0
   18.1592   -8.8507  -16.7336 C   0  0  2  0  0  0  0  0  0  0  0  0
   17.5677  -10.0361  -16.1581 N   0  0  0  0  0  0  0  0  0  0  0  0
   18.8554   -8.0198  -15.7255 C   0  0  0  0  0  0  0  0  0  0  0  0
   18.4352   -8.0734  -14.5412 O   0  0  0  0  0  0  0  0  0  0  0  0
   21.7349   -4.5356  -13.1694 N   0  0  0  0  0  0  0  0  0  0  0  0
   22.4641   -4.9079  -14.3562 C   0  0  0  0  0  0  0  0  0  0  0  0
   23.6000   -4.4208  -14.4771 O   0  0  0  0  0  0  0  0  0  0  0  0
   21.8977   -5.8084  -15.3606 C   0  0  0  0  0  0  0  0  0  0  0  0
   20.5465   -6.2783  -15.0143 C   0  0  2  0  0  0  0  0  0  0  0  0
   19.9592   -7.1697  -15.9969 N   0  0  0  0  0  0  0  0  0  0  0  0
   19.6279   -5.1437  -14.8082 C   0  0  0  0  0  0  0  0  0  0  0  0
   19.4562   -4.5898  -13.5081 O   0  0  0  0  0  0  0  0  0  0  0  0
   18.9405   -4.5725  -15.6793 O   0  0  0  0  0  0  0  0  0  0  0  0
  1  2  1  0
  2  3  1  0
  3  5  1  0
  3  4  1  6
  5 11  1  0
  6  5  2  0
  8  9  1  0
  8  7  1  6
 10 11  1  1
 10 12  1  0
 10  8  1  0
 12 19  1  0
 12 13  2  0
 15 14  1  0
 15 16  2  0
 17 15  1  0
 18 17  1  6
 18 20  1  0
 19 18  1  0
 20 22  2  0
 20 21  1  0
M  END
$$$$
