STN.pdb
     RDKit          3D

 22 21  0  0  1  0  0  0  0  0999 V2000
   13.1055  -11.0829   -9.8048 O   0  0  0  0  0  0  0  0  0  0  0  0
   13.4537   -9.8957  -10.4241 C   0  0  0  0  0  0  0  0  0  0  0  0
   14.9154   -9.9049  -10.8622 C   0  0  2  0  0  0  0  0  0  0  0  0
   15.6731  -10.5001   -9.7986 N   0  0  0  0  0  0  0  0  0  0  0  0
   15.4003   -8.5569  -11.1718 C   0  0  0  0  0  0  0  0  0  0  0  0
   14.8814   -7.8483  -12.0683 O   0  0  0  0  0  0  0  0  0  0  0  0
   15.3662   -5.6007   -9.0544 C   0  0  0  0  0  0  0  0  0  0  0  0
   16.7806   -5.7503   -9.4853 C   0  0  1  0  0  0  0  0  0  0  0  0
   17.5315   -6.1930   -8.3993 O   0  0  0  0  0  0  0  0  0  0  0  0
   16.9693   -6.6382  -10.6840 C   0  0  2  0  0  0  0  0  0  0  0  0
   16.5034   -7.9855  -10.4522 N   0  0  0  0  0  0  0  0  0  0  0  0
   18.3495   -6.6012  -11.2179 C   0  0  0  0  0  0  0  0  0  0  0  0
   19.0485   -7.6388  -11.0878 O   0  0  0  0  0  0  0  0  0  0  0  0
   22.7307   -5.6468  -13.7900 N   0  0  0  0  0  0  0  0  0  0  0  0
   21.7177   -6.6197  -14.1160 C   0  0  0  0  0  0  0  0  0  0  0  0
   22.0077   -7.4357  -15.0061 O   0  0  0  0  0  0  0  0  0  0  0  0
   20.4222   -6.6439  -13.4368 C   0  0  0  0  0  0  0  0  0  0  0  0
   20.2425   -5.5213  -12.5019 C   0  0  2  0  0  0  0  0  0  0  0  0
   18.9399   -5.4839  -11.8643 N   0  0  0  0  0  0  0  0  0  0  0  0
   20.4673   -4.2296  -13.1762 C   0  0  0  0  0  0  0  0  0  0  0  0
   19.3867   -3.3212  -13.3599 O   0  0  0  0  0  0  0  0  0  0  0  0
   21.5480   -3.8051  -13.6339 O   0  0  0  0  0  0  0  0  0  0  0  0
  1  2  1  0
  2  3  1  0
  3  5  1  0
  3  4  1  1
  5 11  1  0
  6  5  2  0
  8  9  1  0
  8  7  1  1
 10 11  1  1
 10 12  1  0
 10  8  1  0
 12 19  1  0
 12 13  2  0
 15 14  1  0
 15 16  2  0
 17 15  1  0
 18 17  1  6
 18 20  1  0
 19 18  1  0
 20 22  2  0
 20 21  1  0
M  END
$$$$
