STN.pdb
     RDKit          3D

 22 21  0  0  1  0  0  0  0  0999 V2000
   17.0690  -12.1618  -18.3845 O   0  0  0  0  0  0  0  0  0  0  0  0
   17.6399  -11.3937  -17.3853 C   0  0  0  0  0  0  0  0  0  0  0  0
   18.9813  -11.9686  -16.9396 C   0  0  2  0  0  0  0  0  0  0  0  0
   18.7260  -13.2765  -16.4067 N   0  0  0  0  0  0  0  0  0  0  0  0
   19.6412  -11.1104  -15.9516 C   0  0  0  0  0  0  0  0  0  0  0  0
   19.3051  -11.1008  -14.7425 O   0  0  0  0  0  0  0  0  0  0  0  0
   23.1188  -11.1432  -14.7316 C   0  0  0  0  0  0  0  0  0  0  0  0
   22.8747   -9.7799  -15.2707 C   0  0  1  0  0  0  0  0  0  0  0  0
   23.5242   -9.6643  -16.4972 O   0  0  0  0  0  0  0  0  0  0  0  0
   21.4211   -9.4114  -15.3803 C   0  0  2  0  0  0  0  0  0  0  0  0
   20.7129  -10.2346  -16.3327 N   0  0  0  0  0  0  0  0  0  0  0  0
   21.2085   -7.9653  -15.6146 C   0  0  0  0  0  0  0  0  0  0  0  0
   21.0808   -7.5847  -16.8066 O   0  0  0  0  0  0  0  0  0  0  0  0
   18.6652   -2.9973  -15.3762 N   0  0  0  0  0  0  0  0  0  0  0  0
   19.5983   -3.5632  -14.4337 C   0  0  0  0  0  0  0  0  0  0  0  0
   20.2901   -2.7542  -13.7942 O   0  0  0  0  0  0  0  0  0  0  0  0
   19.7226   -5.0083  -14.2421 C   0  0  0  0  0  0  0  0  0  0  0  0
   20.9374   -5.5671  -14.8574 C   0  0  2  0  0  0  0  0  0  0  0  0
   21.1382   -6.9799  -14.5954 N   0  0  0  0  0  0  0  0  0  0  0  0
   22.1392   -4.8368  -14.4146 C   0  0  0  0  0  0  0  0  0  0  0  0
   22.5381   -3.6447  -15.0827 O   0  0  0  0  0  0  0  0  0  0  0  0
   22.8968   -5.1483  -13.4731 O   0  0  0  0  0  0  0  0  0  0  0  0
  1  2  1  0
  2  3  1  0
  3  5  1  0
  3  4  1  1
  5 11  1  0
  6  5  2  0
  8  9  1  0
  8  7  1  6
 10 11  1  6
 10 12  1  0
 10  8  1  0
 12 19  1  0
 12 13  2  0
 15 14  1  0
 15 16  2  0
 17 15  1  0
 18 17  1  1
 18 20  1  0
 19 18  1  0
 20 22  2  0
 20 21  1  0
M  END
$$$$
