STN.pdb
     RDKit          3D

 22 21  0  0  1  0  0  0  0  0999 V2000
   13.6906  -13.6146  -15.5255 O   0  0  0  0  0  0  0  0  0  0  0  0
   14.4084  -13.0019  -14.5137 C   0  0  0  0  0  0  0  0  0  0  0  0
   15.8048  -12.6053  -14.9840 C   0  0  2  0  0  0  0  0  0  0  0  0
   16.5281  -13.8190  -15.2356 N   0  0  0  0  0  0  0  0  0  0  0  0
   16.4950  -11.7686  -13.9981 C   0  0  0  0  0  0  0  0  0  0  0  0
   17.2435  -12.2537  -13.1152 O   0  0  0  0  0  0  0  0  0  0  0  0
   19.0829   -9.2820  -14.6091 C   0  0  0  0  0  0  0  0  0  0  0  0
   18.0259   -8.5689  -13.8456 C   0  0  1  0  0  0  0  0  0  0  0  0
   17.3484   -7.7169  -14.7144 O   0  0  0  0  0  0  0  0  0  0  0  0
   17.0770   -9.4757  -13.1121 C   0  0  2  0  0  0  0  0  0  0  0  0
   16.3403  -10.3414  -14.0031 N   0  0  0  0  0  0  0  0  0  0  0  0
   16.1944   -8.7486  -12.1721 C   0  0  0  0  0  0  0  0  0  0  0  0
   14.9953   -8.5836  -12.5142 O   0  0  0  0  0  0  0  0  0  0  0  0
   15.6485   -6.0482   -6.8464 N   0  0  0  0  0  0  0  0  0  0  0  0
   14.9519   -6.7705   -7.8818 C   0  0  0  0  0  0  0  0  0  0  0  0
   13.7493   -6.4970   -8.0269 O   0  0  0  0  0  0  0  0  0  0  0  0
   15.6240   -7.7687   -8.7139 C   0  0  0  0  0  0  0  0  0  0  0  0
   15.7811   -7.3389  -10.1129 C   0  0  2  0  0  0  0  0  0  0  0  0
   16.6010   -8.2258  -10.9167 N   0  0  0  0  0  0  0  0  0  0  0  0
   16.3519   -5.9817  -10.1890 C   0  0  0  0  0  0  0  0  0  0  0  0
   17.6926   -5.7935  -10.6290 O   0  0  0  0  0  0  0  0  0  0  0  0
   15.7760   -4.9129   -9.8998 O   0  0  0  0  0  0  0  0  0  0  0  0
  1  2  1  0
  2  3  1  0
  3  5  1  0
  3  4  1  1
  5 11  1  0
  6  5  2  0
  8  9  1  0
  8  7  1  6
 10 11  1  6
 10 12  1  0
 10  8  1  0
 12 19  1  0
 12 13  2  0
 15 14  1  0
 15 16  2  0
 17 15  1  0
 18 17  1  1
 18 20  1  0
 19 18  1  0
 20 22  2  0
 20 21  1  0
M  END
$$$$
