STN.pdb
     RDKit          3D

 22 21  0  0  1  0  0  0  0  0999 V2000
   18.7093  -15.0185  -15.5158 O   0  0  0  0  0  0  0  0  0  0  0  0
   18.3688  -13.9658  -16.3465 C   0  0  0  0  0  0  0  0  0  0  0  0
   17.6537  -12.8590  -15.5771 C   0  0  2  0  0  0  0  0  0  0  0  0
   16.2666  -13.2202  -15.5058 N   0  0  0  0  0  0  0  0  0  0  0  0
   17.8313  -11.5504  -16.2130 C   0  0  0  0  0  0  0  0  0  0  0  0
   17.6029  -11.3623  -17.4326 O   0  0  0  0  0  0  0  0  0  0  0  0
   16.3210   -9.4566  -17.5114 C   0  0  0  0  0  0  0  0  0  0  0  0
   16.9146   -8.6285  -16.4295 C   0  0  1  0  0  0  0  0  0  0  0  0
   16.0234   -8.5896  -15.3600 O   0  0  0  0  0  0  0  0  0  0  0  0
   18.2818   -9.0747  -15.9911 C   0  0  2  0  0  0  0  0  0  0  0  0
   18.2798  -10.4162  -15.4557 N   0  0  0  0  0  0  0  0  0  0  0  0
   18.9427   -8.1063  -15.0874 C   0  0  0  0  0  0  0  0  0  0  0  0
   18.8008   -8.2796  -13.8497 O   0  0  0  0  0  0  0  0  0  0  0  0
   22.7030   -3.2787  -14.5392 N   0  0  0  0  0  0  0  0  0  0  0  0
   22.2675   -4.5991  -14.1572 C   0  0  0  0  0  0  0  0  0  0  0  0
   22.4681   -4.9218  -12.9750 O   0  0  0  0  0  0  0  0  0  0  0  0
   21.6258   -5.5067  -15.1085 C   0  0  0  0  0  0  0  0  0  0  0  0
   20.3635   -6.0703  -14.6031 C   0  0  2  0  0  0  0  0  0  0  0  0
   19.7228   -6.9999  -15.5142 N   0  0  0  0  0  0  0  0  0  0  0  0
   19.4009   -5.0029  -14.2749 C   0  0  0  0  0  0  0  0  0  0  0  0
   19.3685   -4.4474  -12.9646 O   0  0  0  0  0  0  0  0  0  0  0  0
   18.5607   -4.4936  -15.0444 O   0  0  0  0  0  0  0  0  0  0  0  0
  1  2  1  0
  2  3  1  0
  3  5  1  0
  3  4  1  6
  5 11  1  0
  6  5  2  0
  8  9  1  0
  8  7  1  6
 10 11  1  1
 10 12  1  0
 10  8  1  0
 12 19  1  0
 12 13  2  0
 15 14  1  0
 15 16  2  0
 17 15  1  0
 18 17  1  6
 18 20  1  0
 19 18  1  0
 20 22  2  0
 20 21  1  0
M  END
$$$$
