STN.pdb
     RDKit          3D

 22 21  0  0  1  0  0  0  0  0999 V2000
   16.4301  -10.9561  -18.1085 O   0  0  0  0  0  0  0  0  0  0  0  0
   16.9599  -10.4757  -16.9240 C   0  0  0  0  0  0  0  0  0  0  0  0
   18.2532  -11.1989  -16.5596 C   0  0  2  0  0  0  0  0  0  0  0  0
   17.8868  -12.4796  -16.0257 N   0  0  0  0  0  0  0  0  0  0  0  0
   19.0553  -10.4324  -15.6017 C   0  0  0  0  0  0  0  0  0  0  0  0
   18.7828  -10.3975  -14.3772 O   0  0  0  0  0  0  0  0  0  0  0  0
   22.6906  -10.7830  -14.7394 C   0  0  0  0  0  0  0  0  0  0  0  0
   22.4696   -9.3743  -15.1584 C   0  0  1  0  0  0  0  0  0  0  0  0
   23.0193   -9.1962  -16.4255 O   0  0  0  0  0  0  0  0  0  0  0  0
   21.0318   -8.9365  -15.1151 C   0  0  2  0  0  0  0  0  0  0  0  0
   20.2001   -9.6806  -16.0320 N   0  0  0  0  0  0  0  0  0  0  0  0
   20.8695   -7.4728  -15.2650 C   0  0  0  0  0  0  0  0  0  0  0  0
   20.5252   -7.0414  -16.3952 O   0  0  0  0  0  0  0  0  0  0  0  0
   19.0176   -2.3348  -15.1756 N   0  0  0  0  0  0  0  0  0  0  0  0
   19.7628   -3.0095  -14.1419 C   0  0  0  0  0  0  0  0  0  0  0  0
   20.4107   -2.2835  -13.3704 O   0  0  0  0  0  0  0  0  0  0  0  0
   19.7557   -4.4665  -14.0097 C   0  0  0  0  0  0  0  0  0  0  0  0
   21.0203   -5.0882  -14.4347 C   0  0  2  0  0  0  0  0  0  0  0  0
   21.0733   -6.5235  -14.2297 N   0  0  0  0  0  0  0  0  0  0  0  0
   22.1697   -4.4770  -13.7427 C   0  0  0  0  0  0  0  0  0  0  0  0
   22.7554   -3.2818  -14.2477 O   0  0  0  0  0  0  0  0  0  0  0  0
   22.7284   -4.8981  -12.7093 O   0  0  0  0  0  0  0  0  0  0  0  0
  1  2  1  0
  2  3  1  0
  3  5  1  0
  3  4  1  1
  5 11  1  0
  6  5  2  0
  8  9  1  0
  8  7  1  6
 10 11  1  6
 10 12  1  0
 10  8  1  0
 12 19  1  0
 12 13  2  0
 15 14  1  0
 15 16  2  0
 17 15  1  0
 18 17  1  1
 18 20  1  0
 19 18  1  0
 20 22  2  0
 20 21  1  0
M  END
$$$$
