STN.pdb
     RDKit          3D

 22 21  0  0  1  0  0  0  0  0999 V2000
   22.7981  -21.5074   -9.2971 O   0  0  0  0  0  0  0  0  0  0  0  0
   23.5556  -21.0418  -10.3573 C   0  0  0  0  0  0  0  0  0  0  0  0
   25.0363  -20.9736   -9.9951 C   0  0  2  0  0  0  0  0  0  0  0  0
   25.1311  -20.3244   -8.7187 N   0  0  0  0  0  0  0  0  0  0  0  0
   25.8145  -20.2625  -11.0134 C   0  0  0  0  0  0  0  0  0  0  0  0
   26.8695  -19.6415  -10.7369 O   0  0  0  0  0  0  0  0  0  0  0  0
   28.2781  -20.5055  -12.1601 C   0  0  0  0  0  0  0  0  0  0  0  0
   27.5791  -20.4942  -13.4715 C   0  0  1  0  0  0  0  0  0  0  0  0
   27.4554  -21.8067  -13.9204 O   0  0  0  0  0  0  0  0  0  0  0  0
   26.2508  -19.7899  -13.4562 C   0  0  2  0  0  0  0  0  0  0  0  0
   25.3952  -20.2475  -12.3863 N   0  0  0  0  0  0  0  0  0  0  0  0
   25.5716  -19.8102  -14.7713 C   0  0  0  0  0  0  0  0  0  0  0  0
   24.8657  -20.8152  -15.0427 O   0  0  0  0  0  0  0  0  0  0  0  0
   21.3028  -16.9548  -16.5410 N   0  0  0  0  0  0  0  0  0  0  0  0
   22.6832  -16.8306  -16.9387 C   0  0  0  0  0  0  0  0  0  0  0  0
   22.8876  -16.3604  -18.0697 O   0  0  0  0  0  0  0  0  0  0  0  0
   23.7803  -17.2355  -16.0595 C   0  0  0  0  0  0  0  0  0  0  0  0
   24.5474  -18.3761  -16.5859 C   0  0  2  0  0  0  0  0  0  0  0  0
   25.6583  -18.7815  -15.7455 N   0  0  0  0  0  0  0  0  0  0  0  0
   25.0664  -18.0875  -17.9353 C   0  0  0  0  0  0  0  0  0  0  0  0
   24.5947  -18.8274  -19.0563 O   0  0  0  0  0  0  0  0  0  0  0  0
   25.9172  -17.2264  -18.2390 O   0  0  0  0  0  0  0  0  0  0  0  0
  1  2  1  0
  2  3  1  0
  3  5  1  0
  3  4  1  1
  5 11  1  0
  6  5  2  0
  8  9  1  0
  8  7  1  1
 10 11  1  1
 10 12  1  0
 10  8  1  0
 12 19  1  0
 12 13  2  0
 15 14  1  0
 15 16  2  0
 17 15  1  0
 18 17  1  1
 18 20  1  0
 19 18  1  0
 20 22  2  0
 20 21  1  0
M  END
$$$$
