MRG.pdb
     RDKit          3D

 24 23  0  0  1  0  0  0  0  0999 V2000
    6.8328  -11.8345   26.6389 C   0  0  0  0  0  0  0  0  0  0  0  0
    6.5568  -13.5677   27.0484 S   0  0  0  0  0  0  0  0  0  0  0  0
    8.0189  -14.5883   26.7145 C   0  0  0  0  0  0  0  0  0  0  0  0
    7.7440  -16.0379   27.0764 C   0  0  0  0  0  0  0  0  0  0  0  0
    6.8642  -16.5962   25.9921 C   0  0  2  0  0  0  0  0  0  0  0  0
    6.3902  -17.8916   26.4171 N   0  0  0  0  0  0  0  0  0  0  0  0
    7.6683  -16.6826   24.7444 C   0  0  0  0  0  0  0  0  0  0  0  0
    8.4408  -17.6486   24.5534 O   0  0  0  0  0  0  0  0  0  0  0  0
    7.4012  -15.2503   17.2858 N   0  0  0  0  0  0  0  0  0  0  0  0
    7.9672  -13.9279   17.2317 C   0  0  0  0  0  0  0  0  0  0  0  0
    8.6374  -13.6005   16.1875 N   0  0  0  0  0  0  0  0  0  0  0  0
    7.7894  -13.0168   18.2957 N   0  0  0  0  0  0  0  0  0  0  0  0
    7.0589  -13.4659   19.5019 C   0  0  0  0  0  0  0  0  0  0  0  0
    8.0098  -14.1136   20.4420 C   0  0  0  0  0  0  0  0  0  0  0  0
    7.4988  -14.7489   21.6549 C   0  0  0  0  0  0  0  0  0  0  0  0
    8.2210  -15.7695   22.4346 C   0  0  2  0  0  0  0  0  0  0  0  0
    7.5392  -15.6575   23.7908 N   0  0  0  0  0  0  0  0  0  0  0  0
    9.6296  -15.5962   22.7494 C   0  0  0  0  0  0  0  0  0  0  0  0
   10.0128  -14.5964   23.4734 O   0  0  0  0  0  0  0  0  0  0  0  0
    9.0693  -12.6714   16.0412 N   0  0  0  0  0  0  0  0  0  0  0  0
   10.7172  -16.4252   22.3593 C   0  0  0  0  0  0  0  0  0  0  0  0
   12.0905  -16.1352   22.7061 C   0  0  0  0  0  0  0  0  0  0  0  0
   12.8876  -15.7140   21.5418 O   0  0  0  0  0  0  0  0  0  0  0  0
   14.2496  -15.5036   21.6177 O   0  0  0  0  0  0  0  0  0  0  0  0
  2  1  1  0
  3  2  1  0
  4  3  1  0
  5  4  1  0
  5  6  1  1
  7  5  1  0
  7  8  2  0
 10  9  1  0
 11 10  2  0
 12 10  1  0
 13 14  1  0
 13 12  1  0
 14 15  1  0
 16 15  1  6
 16 17  1  0
 17  7  1  0
 18 16  1  0
 19 18  2  0
 20 18  1  0
 21 20  1  0
 22 21  1  0
 22 23  1  0
 24 22  2  0
M  END
$$$$
