MRG.pdb
     RDKit          3D

 24 23  0  0  1  0  0  0  0  0999 V2000
    6.0350  -11.0492   26.9059 C   0  0  0  0  0  0  0  0  0  0  0  0
    6.7633  -12.3318   27.9414 S   0  0  0  0  0  0  0  0  0  0  0  0
    6.4141  -13.9967   27.3113 C   0  0  0  0  0  0  0  0  0  0  0  0
    7.3939  -14.3595   26.2086 C   0  0  0  0  0  0  0  0  0  0  0  0
    6.9467  -15.6816   25.6486 C   0  0  2  0  0  0  0  0  0  0  0  0
    7.1548  -16.6931   26.6570 N   0  0  0  0  0  0  0  0  0  0  0  0
    7.7383  -15.9534   24.4197 C   0  0  0  0  0  0  0  0  0  0  0  0
    8.4910  -16.9515   24.3580 O   0  0  0  0  0  0  0  0  0  0  0  0
    7.5359  -15.4780   17.1190 N   0  0  0  0  0  0  0  0  0  0  0  0
    8.1692  -14.2182   16.8297 C   0  0  0  0  0  0  0  0  0  0  0  0
    8.8984  -14.1369   15.7769 N   0  0  0  0  0  0  0  0  0  0  0  0
    7.9928  -13.1036   17.6786 N   0  0  0  0  0  0  0  0  0  0  0  0
    7.1801  -13.2654   18.9049 C   0  0  0  0  0  0  0  0  0  0  0  0
    8.0540  -13.7109   20.0207 C   0  0  0  0  0  0  0  0  0  0  0  0
    7.4972  -14.5577   21.0738 C   0  0  0  0  0  0  0  0  0  0  0  0
    8.2975  -15.3701   22.0069 C   0  0  2  0  0  0  0  0  0  0  0  0
    7.6202  -15.0660   23.3356 N   0  0  0  0  0  0  0  0  0  0  0  0
    9.6924  -15.0457   22.2569 C   0  0  0  0  0  0  0  0  0  0  0  0
    9.9983  -14.0715   23.0492 O   0  0  0  0  0  0  0  0  0  0  0  0
    9.2960  -13.2540   15.4114 N   0  0  0  0  0  0  0  0  0  0  0  0
   10.8443  -15.6916   21.7296 C   0  0  0  0  0  0  0  0  0  0  0  0
   12.1922  -15.2616   22.0276 C   0  0  0  0  0  0  0  0  0  0  0  0
   13.2088  -16.1414   21.4269 O   0  0  0  0  0  0  0  0  0  0  0  0
   14.5614  -15.8932   21.5450 O   0  0  0  0  0  0  0  0  0  0  0  0
  2  1  1  0
  3  2  1  0
  4  3  1  0
  5  4  1  0
  5  6  1  1
  7  5  1  0
  7  8  2  0
 10  9  1  0
 11 10  2  0
 12 10  1  0
 13 14  1  0
 13 12  1  0
 14 15  1  0
 16 15  1  6
 16 17  1  0
 17  7  1  0
 18 16  1  0
 19 18  2  0
 20 18  1  0
 21 20  1  0
 22 21  1  0
 22 23  1  0
 24 22  2  0
M  END
$$$$
