MRG.pdb
     RDKit          3D

 24 23  0  0  1  0  0  0  0  0999 V2000
    6.9649  -11.5827   26.7362 C   0  0  0  0  0  0  0  0  0  0  0  0
    5.9979  -13.0233   27.2233 S   0  0  0  0  0  0  0  0  0  0  0  0
    7.0480  -14.3896   27.7900 C   0  0  0  0  0  0  0  0  0  0  0  0
    7.8930  -14.9162   26.6427 C   0  0  0  0  0  0  0  0  0  0  0  0
    7.0675  -15.9573   25.9384 C   0  0  2  0  0  0  0  0  0  0  0  0
    6.9433  -17.1011   26.8100 N   0  0  0  0  0  0  0  0  0  0  0  0
    7.7512  -16.3036   24.6642 C   0  0  0  0  0  0  0  0  0  0  0  0
    8.3137  -17.4133   24.5276 O   0  0  0  0  0  0  0  0  0  0  0  0
    8.7179  -12.4509   18.0233 N   0  0  0  0  0  0  0  0  0  0  0  0
    8.4371  -13.6015   17.2052 C   0  0  0  0  0  0  0  0  0  0  0  0
    9.0820  -13.7304   16.1034 N   0  0  0  0  0  0  0  0  0  0  0  0
    7.4810  -14.5612   17.6037 N   0  0  0  0  0  0  0  0  0  0  0  0
    6.9068  -14.4702   18.9647 C   0  0  0  0  0  0  0  0  0  0  0  0
    7.9973  -14.5755   19.9683 C   0  0  0  0  0  0  0  0  0  0  0  0
    7.6602  -14.7935   21.3736 C   0  0  0  0  0  0  0  0  0  0  0  0
    8.4087  -15.6734   22.2883 C   0  0  2  0  0  0  0  0  0  0  0  0
    7.7496  -15.3582   23.6236 N   0  0  0  0  0  0  0  0  0  0  0  0
    9.8204  -15.4398   22.5450 C   0  0  0  0  0  0  0  0  0  0  0  0
   10.1818  -14.6280   23.4835 O   0  0  0  0  0  0  0  0  0  0  0  0
    8.9811  -14.5358   15.4611 N   0  0  0  0  0  0  0  0  0  0  0  0
   10.9342  -16.0187   21.8768 C   0  0  0  0  0  0  0  0  0  0  0  0
   12.2899  -15.5498   22.0573 C   0  0  0  0  0  0  0  0  0  0  0  0
   13.0724  -16.4219   22.9492 O   0  0  0  0  0  0  0  0  0  0  0  0
   14.4455  -16.3285   23.0532 O   0  0  0  0  0  0  0  0  0  0  0  0
  2  1  1  0
  3  2  1  0
  4  3  1  0
  5  4  1  0
  5  6  1  1
  7  5  1  0
  7  8  2  0
 10  9  1  0
 11 10  2  0
 12 10  1  0
 13 14  1  0
 13 12  1  0
 14 15  1  0
 16 15  1  6
 16 17  1  0
 17  7  1  0
 18 16  1  0
 19 18  2  0
 20 18  1  0
 21 20  1  0
 22 21  1  0
 22 23  1  0
 24 22  2  0
M  END
$$$$
