MRG.pdb
     RDKit          3D

 24 23  0  0  1  0  0  0  0  0999 V2000
    5.7036  -11.5442   26.8809 C   0  0  0  0  0  0  0  0  0  0  0  0
    7.2093  -11.3005   25.9211 S   0  0  0  0  0  0  0  0  0  0  0  0
    7.1382  -12.1420   24.3157 C   0  0  0  0  0  0  0  0  0  0  0  0
    6.6267  -13.5621   24.4869 C   0  0  0  0  0  0  0  0  0  0  0  0
    7.8362  -14.4463   24.6160 C   0  0  2  0  0  0  0  0  0  0  0  0
    8.4595  -14.5516   23.3184 N   0  0  0  0  0  0  0  0  0  0  0  0
    7.3880  -15.7697   25.1243 C   0  0  0  0  0  0  0  0  0  0  0  0
    6.6252  -15.8439   26.1138 O   0  0  0  0  0  0  0  0  0  0  0  0
    3.3388  -17.8217   21.1847 N   0  0  0  0  0  0  0  0  0  0  0  0
    3.4823  -19.2432   21.3601 C   0  0  0  0  0  0  0  0  0  0  0  0
    2.4166  -19.9569   21.4007 N   0  0  0  0  0  0  0  0  0  0  0  0
    4.7581  -19.8356   21.4827 N   0  0  0  0  0  0  0  0  0  0  0  0
    5.8696  -19.0240   22.0271 C   0  0  0  0  0  0  0  0  0  0  0  0
    6.5150  -19.7585   23.1458 C   0  0  0  0  0  0  0  0  0  0  0  0
    7.6511  -19.1549   23.8393 C   0  0  0  0  0  0  0  0  0  0  0  0
    7.5461  -18.3079   25.0405 C   0  0  2  0  0  0  0  0  0  0  0  0
    7.8403  -16.9283   24.4687 N   0  0  0  0  0  0  0  0  0  0  0  0
    8.5101  -18.4384   26.1208 C   0  0  0  0  0  0  0  0  0  0  0  0
    9.7350  -18.0662   25.9436 O   0  0  0  0  0  0  0  0  0  0  0  0
    2.4105  -20.9897   21.4676 N   0  0  0  0  0  0  0  0  0  0  0  0
    8.2852  -18.9399   27.4323 C   0  0  0  0  0  0  0  0  0  0  0  0
    9.3041  -18.9432   28.4581 C   0  0  0  0  0  0  0  0  0  0  0  0
   10.2015  -20.1063   28.3555 O   0  0  0  0  0  0  0  0  0  0  0  0
   10.1936  -20.9495   27.2629 O   0  0  0  0  0  0  0  0  0  0  0  0
  2  1  1  0
  3  2  1  0
  4  3  1  0
  5  4  1  0
  5  6  1  6
  7  5  1  0
  7  8  2  0
 10  9  1  0
 11 10  2  0
 12 10  1  0
 13 14  1  0
 13 12  1  0
 14 15  1  0
 16 15  1  6
 16 17  1  0
 17  7  1  0
 18 16  1  0
 19 18  2  0
 20 18  1  0
 21 20  1  0
 22 21  1  0
 22 23  1  0
 24 22  2  0
M  END
$$$$
