MRG.pdb
     RDKit          3D

 24 23  0  0  1  0  0  0  0  0999 V2000
    7.1939  -12.3854   26.8498 C   0  0  0  0  0  0  0  0  0  0  0  0
    7.2319  -13.3914   28.3446 S   0  0  0  0  0  0  0  0  0  0  0  0
    7.2391  -15.1667   27.9715 C   0  0  0  0  0  0  0  0  0  0  0  0
    7.9018  -15.4207   26.6284 C   0  0  0  0  0  0  0  0  0  0  0  0
    6.9751  -16.3125   25.8492 C   0  0  2  0  0  0  0  0  0  0  0  0
    6.9333  -17.5999   26.5005 N   0  0  0  0  0  0  0  0  0  0  0  0
    7.4917  -16.4119   24.4585 C   0  0  0  0  0  0  0  0  0  0  0  0
    7.9250  -17.5008   24.0192 O   0  0  0  0  0  0  0  0  0  0  0  0
    7.0241  -15.3930   16.4361 N   0  0  0  0  0  0  0  0  0  0  0  0
    7.8811  -14.2542   16.6380 C   0  0  0  0  0  0  0  0  0  0  0  0
    8.5500  -13.8168   15.6341 N   0  0  0  0  0  0  0  0  0  0  0  0
    7.9822  -13.6354   17.9032 N   0  0  0  0  0  0  0  0  0  0  0  0
    7.6208  -14.4161   19.1075 C   0  0  0  0  0  0  0  0  0  0  0  0
    7.8525  -13.5889   20.3197 C   0  0  0  0  0  0  0  0  0  0  0  0
    7.4877  -14.1203   21.6313 C   0  0  0  0  0  0  0  0  0  0  0  0
    8.1543  -15.2575   22.2899 C   0  0  2  0  0  0  0  0  0  0  0  0
    7.4808  -15.2583   23.6548 N   0  0  0  0  0  0  0  0  0  0  0  0
    9.5705  -15.1957   22.6122 C   0  0  0  0  0  0  0  0  0  0  0  0
   10.0747  -14.1139   23.1083 O   0  0  0  0  0  0  0  0  0  0  0  0
    9.1165  -12.9506   15.6454 N   0  0  0  0  0  0  0  0  0  0  0  0
   10.5436  -16.2215   22.4599 C   0  0  0  0  0  0  0  0  0  0  0  0
   11.2607  -16.4476   21.2249 C   0  0  0  0  0  0  0  0  0  0  0  0
   12.5948  -15.8244   21.2272 O   0  0  0  0  0  0  0  0  0  0  0  0
   13.7375  -16.5271   20.9026 O   0  0  0  0  0  0  0  0  0  0  0  0
  2  1  1  0
  3  2  1  0
  4  3  1  0
  5  4  1  0
  5  6  1  1
  7  5  1  0
  7  8  2  0
 10  9  1  0
 11 10  2  0
 12 10  1  0
 13 14  1  0
 13 12  1  0
 14 15  1  0
 16 15  1  6
 16 17  1  0
 17  7  1  0
 18 16  1  0
 19 18  2  0
 20 18  1  0
 21 20  1  0
 22 21  1  0
 22 23  1  0
 24 22  2  0
M  END
$$$$
