MRG.pdb
     RDKit          3D

 24 23  0  0  1  0  0  0  0  0999 V2000
    9.0828  -11.0265   21.0960 C   0  0  0  0  0  0  0  0  0  0  0  0
    8.7663  -11.9243   19.5659 S   0  0  0  0  0  0  0  0  0  0  0  0
    8.6585  -13.7149   19.8358 C   0  0  0  0  0  0  0  0  0  0  0  0
    7.8061  -14.0137   21.0572 C   0  0  0  0  0  0  0  0  0  0  0  0
    7.8474  -15.5031   21.2610 C   0  0  2  0  0  0  0  0  0  0  0  0
    7.2307  -16.1328   20.1180 N   0  0  0  0  0  0  0  0  0  0  0  0
    7.1253  -15.8161   22.5226 C   0  0  0  0  0  0  0  0  0  0  0  0
    5.9199  -15.5072   22.6567 O   0  0  0  0  0  0  0  0  0  0  0  0
    3.5095  -22.4729   23.0879 N   0  0  0  0  0  0  0  0  0  0  0  0
    4.6536  -22.7538   23.9149 C   0  0  0  0  0  0  0  0  0  0  0  0
    4.7808  -23.9404   24.3864 N   0  0  0  0  0  0  0  0  0  0  0  0
    5.6092  -21.7536   24.1983 N   0  0  0  0  0  0  0  0  0  0  0  0
    5.3279  -20.3623   23.7792 C   0  0  0  0  0  0  0  0  0  0  0  0
    6.2921  -19.4440   24.4382 C   0  0  0  0  0  0  0  0  0  0  0  0
    6.2095  -18.0086   24.1760 C   0  0  0  0  0  0  0  0  0  0  0  0
    7.0932  -16.9944   24.7776 C   0  0  2  0  0  0  0  0  0  0  0  0
    7.8272  -16.4639   23.5543 N   0  0  0  0  0  0  0  0  0  0  0  0
    8.1689  -17.3911   25.6713 C   0  0  0  0  0  0  0  0  0  0  0  0
    9.2903  -17.8132   25.1868 O   0  0  0  0  0  0  0  0  0  0  0  0
    5.5745  -24.2512   24.9735 N   0  0  0  0  0  0  0  0  0  0  0  0
    8.1708  -17.3725   27.0932 C   0  0  0  0  0  0  0  0  0  0  0  0
    8.7000  -18.4547   27.8928 C   0  0  0  0  0  0  0  0  0  0  0  0
   10.1313  -18.2837   28.1937 O   0  0  0  0  0  0  0  0  0  0  0  0
   10.7767  -19.0319   29.1573 O   0  0  0  0  0  0  0  0  0  0  0  0
  2  1  1  0
  3  2  1  0
  4  3  1  0
  5  4  1  0
  5  6  1  6
  7  5  1  0
  7  8  2  0
 10  9  1  0
 11 10  2  0
 12 10  1  0
 13 14  1  0
 13 12  1  0
 14 15  1  0
 16 15  1  6
 16 17  1  0
 17  7  1  0
 18 16  1  0
 19 18  2  0
 20 18  1  0
 21 20  1  0
 22 21  1  0
 22 23  1  0
 24 22  2  0
M  END
$$$$
