MRG.pdb
     RDKit          3D

 24 23  0  0  1  0  0  0  0  0999 V2000
    8.5260  -12.3337   27.6281 C   0  0  0  0  0  0  0  0  0  0  0  0
    6.7892  -12.6990   27.9409 S   0  0  0  0  0  0  0  0  0  0  0  0
    6.0998  -13.8389   26.7095 C   0  0  0  0  0  0  0  0  0  0  0  0
    7.2065  -14.4024   25.8347 C   0  0  0  0  0  0  0  0  0  0  0  0
    6.5453  -15.2906   24.8171 C   0  0  2  0  0  0  0  0  0  0  0  0
    5.9479  -16.4062   25.5113 N   0  0  0  0  0  0  0  0  0  0  0  0
    7.5822  -15.7325   23.8475 C   0  0  0  0  0  0  0  0  0  0  0  0
    7.9855  -16.9174   23.8463 O   0  0  0  0  0  0  0  0  0  0  0  0
    8.9017  -14.2370   15.9351 N   0  0  0  0  0  0  0  0  0  0  0  0
    7.7941  -14.2463   16.8544 C   0  0  0  0  0  0  0  0  0  0  0  0
    6.9712  -13.2624   16.8179 N   0  0  0  0  0  0  0  0  0  0  0  0
    7.6172  -15.3074   17.7691 N   0  0  0  0  0  0  0  0  0  0  0  0
    8.5336  -15.4084   18.9269 C   0  0  0  0  0  0  0  0  0  0  0  0
    8.4123  -14.1845   19.7604 C   0  0  0  0  0  0  0  0  0  0  0  0
    9.1714  -14.0865   21.0054 C   0  0  0  0  0  0  0  0  0  0  0  0
    9.2559  -15.1502   22.0215 C   0  0  2  0  0  0  0  0  0  0  0  0
    8.0948  -14.7910   22.9378 N   0  0  0  0  0  0  0  0  0  0  0  0
   10.3919  -15.2166   22.9262 C   0  0  0  0  0  0  0  0  0  0  0  0
   10.4079  -14.4960   23.9990 O   0  0  0  0  0  0  0  0  0  0  0  0
    6.1723  -13.1478   17.4659 N   0  0  0  0  0  0  0  0  0  0  0  0
   11.5600  -16.0177   22.7994 C   0  0  0  0  0  0  0  0  0  0  0  0
   12.6908  -15.9058   23.6934 C   0  0  0  0  0  0  0  0  0  0  0  0
   13.7891  -16.8160   23.3276 O   0  0  0  0  0  0  0  0  0  0  0  0
   14.8793  -17.0232   24.1481 O   0  0  0  0  0  0  0  0  0  0  0  0
  2  1  1  0
  3  2  1  0
  4  3  1  0
  5  4  1  0
  5  6  1  1
  7  5  1  0
  7  8  2  0
 10  9  1  0
 11 10  2  0
 12 10  1  0
 13 14  1  0
 13 12  1  0
 14 15  1  0
 16 15  1  6
 16 17  1  0
 17  7  1  0
 18 16  1  0
 19 18  2  0
 20 18  1  0
 21 20  1  0
 22 21  1  0
 22 23  1  0
 24 22  2  0
M  END
$$$$
