MRG.pdb
     RDKit          3D

 24 23  0  0  1  0  0  0  0  0999 V2000
    7.8934  -11.9848   27.2575 C   0  0  0  0  0  0  0  0  0  0  0  0
    6.1339  -12.0600   26.8748 S   0  0  0  0  0  0  0  0  0  0  0  0
    5.7268  -13.4738   25.8136 C   0  0  0  0  0  0  0  0  0  0  0  0
    6.9858  -14.2455   25.4572 C   0  0  0  0  0  0  0  0  0  0  0  0
    6.5516  -15.4288   24.6370 C   0  0  2  0  0  0  0  0  0  0  0  0
    5.7648  -16.2980   25.4789 N   0  0  0  0  0  0  0  0  0  0  0  0
    7.7715  -16.1083   24.1260 C   0  0  0  0  0  0  0  0  0  0  0  0
    8.3344  -16.9962   24.8051 O   0  0  0  0  0  0  0  0  0  0  0  0
    8.8350  -18.6603   17.0475 N   0  0  0  0  0  0  0  0  0  0  0  0
    7.5491  -18.0145   17.0823 C   0  0  0  0  0  0  0  0  0  0  0  0
    6.5785  -18.5679   16.4511 N   0  0  0  0  0  0  0  0  0  0  0  0
    7.3603  -16.8079   17.7909 N   0  0  0  0  0  0  0  0  0  0  0  0
    8.5125  -16.2161   18.5071 C   0  0  0  0  0  0  0  0  0  0  0  0
    8.4317  -16.5688   19.9481 C   0  0  0  0  0  0  0  0  0  0  0  0
    9.4249  -16.0303   20.8751 C   0  0  0  0  0  0  0  0  0  0  0  0
    9.5221  -16.3893   22.3009 C   0  0  2  0  0  0  0  0  0  0  0  0
    8.2730  -15.7299   22.8682 N   0  0  0  0  0  0  0  0  0  0  0  0
   10.5920  -15.8513   23.1251 C   0  0  0  0  0  0  0  0  0  0  0  0
   10.7528  -14.5727   23.2232 O   0  0  0  0  0  0  0  0  0  0  0  0
    5.6363  -18.1511   16.3519 N   0  0  0  0  0  0  0  0  0  0  0  0
   11.5435  -16.5735   23.8967 C   0  0  0  0  0  0  0  0  0  0  0  0
   11.7144  -18.0055   23.7944 C   0  0  0  0  0  0  0  0  0  0  0  0
   12.6987  -18.5247   24.7589 O   0  0  0  0  0  0  0  0  0  0  0  0
   13.0023  -19.8678   24.8519 O   0  0  0  0  0  0  0  0  0  0  0  0
  2  1  1  0
  3  2  1  0
  4  3  1  0
  5  4  1  0
  5  6  1  1
  7  5  1  0
  7  8  2  0
 10  9  1  0
 11 10  2  0
 12 10  1  0
 13 14  1  0
 13 12  1  0
 14 15  1  0
 16 15  1  6
 16 17  1  0
 17  7  1  0
 18 16  1  0
 19 18  2  0
 20 18  1  0
 21 20  1  0
 22 21  1  0
 22 23  1  0
 24 22  2  0
M  END
$$$$
