MRG.pdb
     RDKit          3D

 24 23  0  0  1  0  0  0  0  0999 V2000
    5.5385  -11.4936   27.0977 C   0  0  0  0  0  0  0  0  0  0  0  0
    7.2240  -12.0340   27.4365 S   0  0  0  0  0  0  0  0  0  0  0  0
    7.7015  -13.4570   26.4177 C   0  0  0  0  0  0  0  0  0  0  0  0
    6.4881  -14.3188   26.1137 C   0  0  0  0  0  0  0  0  0  0  0  0
    6.9810  -15.7343   25.9915 C   0  0  2  0  0  0  0  0  0  0  0  0
    8.2498  -15.8312   26.6728 N   0  0  0  0  0  0  0  0  0  0  0  0
    7.1029  -16.0570   24.5452 C   0  0  0  0  0  0  0  0  0  0  0  0
    6.0796  -16.2295   23.8455 O   0  0  0  0  0  0  0  0  0  0  0  0
    9.5998  -13.3632   17.5356 N   0  0  0  0  0  0  0  0  0  0  0  0
    8.1934  -13.4854   17.8165 C   0  0  0  0  0  0  0  0  0  0  0  0
    7.3708  -13.3775   16.8376 N   0  0  0  0  0  0  0  0  0  0  0  0
    7.7318  -13.7186   19.1305 N   0  0  0  0  0  0  0  0  0  0  0  0
    8.7259  -13.9350   20.2054 C   0  0  0  0  0  0  0  0  0  0  0  0
    8.0193  -14.1614   21.4925 C   0  0  0  0  0  0  0  0  0  0  0  0
    7.6541  -15.5223   21.8806 C   0  0  0  0  0  0  0  0  0  0  0  0
    8.5704  -16.4884   22.5117 C   0  0  2  0  0  0  0  0  0  0  0  0
    8.3892  -16.1627   23.9875 N   0  0  0  0  0  0  0  0  0  0  0  0
   10.0066  -16.3785   22.3155 C   0  0  0  0  0  0  0  0  0  0  0  0
   10.6824  -15.4891   22.9656 O   0  0  0  0  0  0  0  0  0  0  0  0
    6.3440  -13.4711   16.9275 N   0  0  0  0  0  0  0  0  0  0  0  0
   10.8314  -17.1638   21.4640 C   0  0  0  0  0  0  0  0  0  0  0  0
   12.2751  -17.0867   21.4785 C   0  0  0  0  0  0  0  0  0  0  0  0
   12.8972  -18.0088   20.5136 O   0  0  0  0  0  0  0  0  0  0  0  0
   14.2068  -17.8704   20.1004 O   0  0  0  0  0  0  0  0  0  0  0  0
  2  1  1  0
  3  2  1  0
  4  3  1  0
  5  4  1  0
  5  6  1  1
  7  5  1  0
  7  8  2  0
 10  9  1  0
 11 10  2  0
 12 10  1  0
 13 14  1  0
 13 12  1  0
 14 15  1  0
 16 15  1  6
 16 17  1  0
 17  7  1  0
 18 16  1  0
 19 18  2  0
 20 18  1  0
 21 20  1  0
 22 21  1  0
 22 23  1  0
 24 22  2  0
M  END
$$$$
