MRG.pdb
     RDKit          3D

 24 23  0  0  1  0  0  0  0  0999 V2000
    5.3338  -12.7452   26.7853 C   0  0  0  0  0  0  0  0  0  0  0  0
    7.0263  -12.6774   27.4006 S   0  0  0  0  0  0  0  0  0  0  0  0
    7.6588  -14.3201   27.8388 C   0  0  0  0  0  0  0  0  0  0  0  0
    8.2336  -15.0082   26.6125 C   0  0  0  0  0  0  0  0  0  0  0  0
    7.1256  -15.0845   25.5986 C   0  0  2  0  0  0  0  0  0  0  0  0
    6.1847  -16.0896   26.0323 N   0  0  0  0  0  0  0  0  0  0  0  0
    7.7279  -15.4212   24.2816 C   0  0  0  0  0  0  0  0  0  0  0  0
    8.4148  -16.4585   24.1449 O   0  0  0  0  0  0  0  0  0  0  0  0
    9.8376  -15.7353   17.7529 N   0  0  0  0  0  0  0  0  0  0  0  0
   10.4345  -14.4477   17.9932 C   0  0  0  0  0  0  0  0  0  0  0  0
   11.6977  -14.3997   18.2137 N   0  0  0  0  0  0  0  0  0  0  0  0
    9.6535  -13.2713   17.9855 N   0  0  0  0  0  0  0  0  0  0  0  0
    8.3205  -13.2985   18.6279 C   0  0  0  0  0  0  0  0  0  0  0  0
    8.4586  -12.9506   20.0657 C   0  0  0  0  0  0  0  0  0  0  0  0
    7.6623  -13.6705   21.0576 C   0  0  0  0  0  0  0  0  0  0  0  0
    8.1430  -14.8200   21.8442 C   0  0  2  0  0  0  0  0  0  0  0  0
    7.5074  -14.5497   23.2006 N   0  0  0  0  0  0  0  0  0  0  0  0
    9.5560  -14.9608   22.1555 C   0  0  0  0  0  0  0  0  0  0  0  0
   10.0639  -14.3256   23.1600 O   0  0  0  0  0  0  0  0  0  0  0  0
   12.2227  -13.5277   18.4017 N   0  0  0  0  0  0  0  0  0  0  0  0
   10.5219  -15.7543   21.4774 C   0  0  0  0  0  0  0  0  0  0  0  0
   11.9188  -15.7803   21.8493 C   0  0  0  0  0  0  0  0  0  0  0  0
   12.7059  -16.7033   21.0143 O   0  0  0  0  0  0  0  0  0  0  0  0
   13.9192  -16.3456   20.4622 O   0  0  0  0  0  0  0  0  0  0  0  0
  2  1  1  0
  3  2  1  0
  4  3  1  0
  5  4  1  0
  5  6  1  1
  7  5  1  0
  7  8  2  0
 10  9  1  0
 11 10  2  0
 12 10  1  0
 13 14  1  0
 13 12  1  0
 14 15  1  0
 16 15  1  6
 16 17  1  0
 17  7  1  0
 18 16  1  0
 19 18  2  0
 20 18  1  0
 21 20  1  0
 22 21  1  0
 22 23  1  0
 24 22  2  0
M  END
$$$$
