MRG.pdb
     RDKit          3D

 24 23  0  0  1  0  0  0  0  0999 V2000
    6.0925  -11.2244   26.5981 C   0  0  0  0  0  0  0  0  0  0  0  0
    7.4275  -12.2260   27.2780 S   0  0  0  0  0  0  0  0  0  0  0  0
    6.9052  -13.9342   27.5942 C   0  0  0  0  0  0  0  0  0  0  0  0
    6.6028  -14.6440   26.2856 C   0  0  0  0  0  0  0  0  0  0  0  0
    7.7006  -15.6499   26.0741 C   0  0  2  0  0  0  0  0  0  0  0  0
    8.9429  -15.0623   26.5153 N   0  0  0  0  0  0  0  0  0  0  0  0
    7.7349  -15.9980   24.6289 C   0  0  0  0  0  0  0  0  0  0  0  0
    6.7909  -16.6327   24.1069 O   0  0  0  0  0  0  0  0  0  0  0  0
    8.3613  -11.9284   18.5333 N   0  0  0  0  0  0  0  0  0  0  0  0
    8.0442  -13.2180   17.9781 C   0  0  0  0  0  0  0  0  0  0  0  0
    8.4892  -13.4970   16.8073 N   0  0  0  0  0  0  0  0  0  0  0  0
    7.2673  -14.1497   18.7006 N   0  0  0  0  0  0  0  0  0  0  0  0
    6.8482  -13.8091   20.0787 C   0  0  0  0  0  0  0  0  0  0  0  0
    7.1870  -14.9331   20.9893 C   0  0  0  0  0  0  0  0  0  0  0  0
    8.4778  -14.9369   21.6747 C   0  0  0  0  0  0  0  0  0  0  0  0
    9.0201  -16.0771   22.4343 C   0  0  2  0  0  0  0  0  0  0  0  0
    8.8482  -15.5984   23.8689 N   0  0  0  0  0  0  0  0  0  0  0  0
   10.4332  -16.4094   22.3562 C   0  0  0  0  0  0  0  0  0  0  0  0
   11.0346  -16.4146   21.2122 O   0  0  0  0  0  0  0  0  0  0  0  0
    8.2937  -14.3812   16.3061 N   0  0  0  0  0  0  0  0  0  0  0  0
   11.3095  -16.7424   23.4256 C   0  0  0  0  0  0  0  0  0  0  0  0
   12.7057  -17.0612   23.2274 C   0  0  0  0  0  0  0  0  0  0  0  0
   13.3720  -17.4690   24.4757 O   0  0  0  0  0  0  0  0  0  0  0  0
   14.7224  -17.7484   24.5335 O   0  0  0  0  0  0  0  0  0  0  0  0
  2  1  1  0
  3  2  1  0
  4  3  1  0
  5  4  1  0
  5  6  1  6
  7  5  1  0
  7  8  2  0
 10  9  1  0
 11 10  2  0
 12 10  1  0
 13 14  1  0
 13 12  1  0
 14 15  1  0
 16 15  1  6
 16 17  1  0
 17  7  1  0
 18 16  1  0
 19 18  2  0
 20 18  1  0
 21 20  1  0
 22 21  1  0
 22 23  1  0
 24 22  2  0
M  END
$$$$
