MRG.pdb
     RDKit          3D

 24 23  0  0  1  0  0  0  0  0999 V2000
    6.1652  -10.8902   27.3751 C   0  0  0  0  0  0  0  0  0  0  0  0
    6.9970  -12.4237   27.8271 S   0  0  0  0  0  0  0  0  0  0  0  0
    6.3424  -13.8488   26.9154 C   0  0  0  0  0  0  0  0  0  0  0  0
    7.3932  -14.3935   25.9632 C   0  0  0  0  0  0  0  0  0  0  0  0
    6.7823  -15.5851   25.2787 C   0  0  2  0  0  0  0  0  0  0  0  0
    6.4495  -16.5635   26.2864 N   0  0  0  0  0  0  0  0  0  0  0  0
    7.7703  -16.1117   24.3003 C   0  0  0  0  0  0  0  0  0  0  0  0
    8.2594  -17.2546   24.4456 O   0  0  0  0  0  0  0  0  0  0  0  0
    8.6318  -14.8755   14.7366 N   0  0  0  0  0  0  0  0  0  0  0  0
    8.4483  -14.3025   16.0442 C   0  0  0  0  0  0  0  0  0  0  0  0
    7.9591  -13.1187   16.1211 N   0  0  0  0  0  0  0  0  0  0  0  0
    8.7950  -15.0220   17.2086 N   0  0  0  0  0  0  0  0  0  0  0  0
    8.5890  -14.3825   18.5274 C   0  0  0  0  0  0  0  0  0  0  0  0
    8.9749  -15.3329   19.6022 C   0  0  0  0  0  0  0  0  0  0  0  0
    8.7468  -14.9674   20.9988 C   0  0  0  0  0  0  0  0  0  0  0  0
    9.1037  -15.8089   22.1545 C   0  0  2  0  0  0  0  0  0  0  0  0
    8.1387  -15.2978   23.2147 N   0  0  0  0  0  0  0  0  0  0  0  0
   10.4046  -15.6756   22.7894 C   0  0  0  0  0  0  0  0  0  0  0  0
   10.8244  -14.5130   23.1671 O   0  0  0  0  0  0  0  0  0  0  0  0
    7.7649  -12.6262   17.0105 N   0  0  0  0  0  0  0  0  0  0  0  0
   11.3397  -16.7060   23.0831 C   0  0  0  0  0  0  0  0  0  0  0  0
   12.4158  -17.0692   22.1884 C   0  0  0  0  0  0  0  0  0  0  0  0
   13.4720  -16.0445   22.1341 O   0  0  0  0  0  0  0  0  0  0  0  0
   14.5274  -16.0257   23.0233 O   0  0  0  0  0  0  0  0  0  0  0  0
  2  1  1  0
  3  2  1  0
  4  3  1  0
  5  4  1  0
  5  6  1  1
  7  5  1  0
  7  8  2  0
 10  9  1  0
 11 10  2  0
 12 10  1  0
 13 14  1  0
 13 12  1  0
 14 15  1  0
 16 15  1  6
 16 17  1  0
 17  7  1  0
 18 16  1  0
 19 18  2  0
 20 18  1  0
 21 20  1  0
 22 21  1  0
 22 23  1  0
 24 22  2  0
M  END
$$$$
