MRG.pdb
     RDKit          3D

 24 23  0  0  1  0  0  0  0  0999 V2000
    8.3222  -11.1648   20.8698 C   0  0  0  0  0  0  0  0  0  0  0  0
    8.2698  -12.0135   19.2809 S   0  0  0  0  0  0  0  0  0  0  0  0
    8.4301  -13.8113   19.4626 C   0  0  0  0  0  0  0  0  0  0  0  0
    7.4826  -14.3194   20.5358 C   0  0  0  0  0  0  0  0  0  0  0  0
    7.6813  -15.8076   20.6206 C   0  0  2  0  0  0  0  0  0  0  0  0
    6.9569  -16.4228   19.5342 N   0  0  0  0  0  0  0  0  0  0  0  0
    7.1853  -16.2644   21.9458 C   0  0  0  0  0  0  0  0  0  0  0  0
    6.0058  -16.0339   22.2954 O   0  0  0  0  0  0  0  0  0  0  0  0
    7.6138  -23.1001   24.4279 N   0  0  0  0  0  0  0  0  0  0  0  0
    6.2366  -22.7253   24.6145 C   0  0  0  0  0  0  0  0  0  0  0  0
    5.5137  -23.4492   25.3891 N   0  0  0  0  0  0  0  0  0  0  0  0
    5.6967  -21.5936   23.9653 N   0  0  0  0  0  0  0  0  0  0  0  0
    6.4832  -20.9475   22.8908 C   0  0  0  0  0  0  0  0  0  0  0  0
    6.4731  -19.4751   23.0892 C   0  0  0  0  0  0  0  0  0  0  0  0
    7.4656  -18.8633   23.9705 C   0  0  0  0  0  0  0  0  0  0  0  0
    7.6254  -17.4126   24.1734 C   0  0  2  0  0  0  0  0  0  0  0  0
    8.0699  -16.9575   22.7906 N   0  0  0  0  0  0  0  0  0  0  0  0
    8.6676  -16.9013   25.0485 C   0  0  0  0  0  0  0  0  0  0  0  0
    9.8747  -16.7661   24.6070 O   0  0  0  0  0  0  0  0  0  0  0  0
    4.5040  -23.2941   25.5554 N   0  0  0  0  0  0  0  0  0  0  0  0
    8.5425  -16.4929   26.4049 C   0  0  0  0  0  0  0  0  0  0  0  0
    8.2274  -17.4111   27.4763 C   0  0  0  0  0  0  0  0  0  0  0  0
    9.4179  -18.1152   27.9819 O   0  0  0  0  0  0  0  0  0  0  0  0
    9.5068  -18.5746   29.2804 O   0  0  0  0  0  0  0  0  0  0  0  0
  2  1  1  0
  3  2  1  0
  4  3  1  0
  5  4  1  0
  5  6  1  6
  7  5  1  0
  7  8  2  0
 10  9  1  0
 11 10  2  0
 12 10  1  0
 13 14  1  0
 13 12  1  0
 14 15  1  0
 16 15  1  6
 16 17  1  0
 17  7  1  0
 18 16  1  0
 19 18  2  0
 20 18  1  0
 21 20  1  0
 22 21  1  0
 22 23  1  0
 24 22  2  0
M  END
$$$$
