MRG.pdb
     RDKit          3D

 24 23  0  0  1  0  0  0  0  0999 V2000
    9.8482  -12.6469   28.1746 C   0  0  0  0  0  0  0  0  0  0  0  0
    8.6979  -13.6257   29.1578 S   0  0  0  0  0  0  0  0  0  0  0  0
    7.5595  -14.5847   28.1210 C   0  0  0  0  0  0  0  0  0  0  0  0
    8.2948  -15.1592   26.9223 C   0  0  0  0  0  0  0  0  0  0  0  0
    7.2817  -15.9275   26.1194 C   0  0  2  0  0  0  0  0  0  0  0  0
    6.8723  -17.0773   26.8900 N   0  0  0  0  0  0  0  0  0  0  0  0
    7.9147  -16.3200   24.8325 C   0  0  0  0  0  0  0  0  0  0  0  0
    8.1754  -17.5207   24.5942 O   0  0  0  0  0  0  0  0  0  0  0  0
    8.1965  -12.6282   17.7577 N   0  0  0  0  0  0  0  0  0  0  0  0
    7.6321  -13.9446   17.6142 C   0  0  0  0  0  0  0  0  0  0  0  0
    8.0604  -14.6838   16.6567 N   0  0  0  0  0  0  0  0  0  0  0  0
    6.6371  -14.4098   18.5015 N   0  0  0  0  0  0  0  0  0  0  0  0
    6.8123  -14.1757   19.9524 C   0  0  0  0  0  0  0  0  0  0  0  0
    8.1923  -14.5560   20.3503 C   0  0  0  0  0  0  0  0  0  0  0  0
    8.5776  -14.4864   21.7584 C   0  0  0  0  0  0  0  0  0  0  0  0
    8.9197  -15.6520   22.5924 C   0  0  2  0  0  0  0  0  0  0  0  0
    8.2108  -15.3139   23.8962 N   0  0  0  0  0  0  0  0  0  0  0  0
   10.2939  -15.8848   23.0056 C   0  0  0  0  0  0  0  0  0  0  0  0
   10.9309  -14.9801   23.6736 O   0  0  0  0  0  0  0  0  0  0  0  0
    7.7745  -15.6674   16.5086 N   0  0  0  0  0  0  0  0  0  0  0  0
   11.0882  -17.0415   22.7750 C   0  0  0  0  0  0  0  0  0  0  0  0
   12.0980  -17.1086   21.7424 C   0  0  0  0  0  0  0  0  0  0  0  0
   13.3433  -16.4239   22.1283 O   0  0  0  0  0  0  0  0  0  0  0  0
   14.3946  -17.0878   22.7273 O   0  0  0  0  0  0  0  0  0  0  0  0
  2  1  1  0
  3  2  1  0
  4  3  1  0
  5  4  1  0
  5  6  1  1
  7  5  1  0
  7  8  2  0
 10  9  1  0
 11 10  2  0
 12 10  1  0
 13 14  1  0
 13 12  1  0
 14 15  1  0
 16 15  1  6
 16 17  1  0
 17  7  1  0
 18 16  1  0
 19 18  2  0
 20 18  1  0
 21 20  1  0
 22 21  1  0
 22 23  1  0
 24 22  2  0
M  END
$$$$
