FEF.pdb
     RDKit          3D

 32 33  0  0  1  0  0  0  0  0999 V2000
    6.1036  -17.0484   25.6978 N   0  0  0  0  0  0  0  0  0  0  0  0
    6.5673  -17.0380   24.3282 C   0  0  1  0  0  0  0  0  0  0  0  0
    6.1825  -15.7929   23.5919 C   0  0  0  0  0  0  0  0  0  0  0  0
    6.4377  -14.5506   24.3416 C   0  0  0  0  0  0  0  0  0  0  0  0
    7.3896  -13.6740   23.8449 C   0  0  0  0  0  0  0  0  0  0  0  0
    7.6972  -12.4867   24.4765 C   0  0  0  0  0  0  0  0  0  0  0  0
    7.0522  -12.1324   25.6441 C   0  0  0  0  0  0  0  0  0  0  0  0
    6.1072  -13.0222   26.1200 C   0  0  0  0  0  0  0  0  0  0  0  0
    5.7948  -14.2057   25.4980 C   0  0  0  0  0  0  0  0  0  0  0  0
    8.0653  -17.0854   24.3551 C   0  0  0  0  0  0  0  0  0  0  0  0
    8.6489  -17.2459   25.4423 O   0  0  0  0  0  0  0  0  0  0  0  0
    8.8015  -16.9502   23.1677 N   0  0  0  0  0  0  0  0  0  0  0  0
   10.1927  -17.1797   23.0327 C   0  0  1  0  0  0  0  0  0  0  0  0
   10.7248  -17.2198   21.6081 C   0  0  0  0  0  0  0  0  0  0  0  0
   12.2048  -17.4763   21.5293 C   0  0  0  0  0  0  0  0  0  0  0  0
   12.4412  -18.2311   20.2517 C   0  0  0  0  0  0  0  0  0  0  0  0
   11.7055  -17.9892   19.2749 O   0  0  0  0  0  0  0  0  0  0  0  0
   11.0786  -16.3411   23.8373 C   0  0  0  0  0  0  0  0  0  0  0  0
   11.3564  -15.1688   23.3927 O   0  0  0  0  0  0  0  0  0  0  0  0
   13.4417  -19.1756   20.1330 O   0  0  0  0  0  0  0  0  0  0  0  0
   11.6618  -16.6913   25.0605 N   0  0  0  0  0  0  0  0  0  0  0  0
   12.9237  -16.1150   25.5373 C   0  0  1  0  0  0  0  0  0  0  0  0
   12.5383  -14.8544   26.3055 C   0  0  0  0  0  0  0  0  0  0  0  0
   11.5529  -15.1514   27.3648 C   0  0  0  0  0  0  0  0  0  0  0  0
   11.8830  -15.7042   28.5690 C   0  0  0  0  0  0  0  0  0  0  0  0
   10.8798  -15.9428   29.4950 C   0  0  0  0  0  0  0  0  0  0  0  0
    9.5572  -15.6420   29.2454 C   0  0  0  0  0  0  0  0  0  0  0  0
    9.2198  -15.0839   28.0311 C   0  0  0  0  0  0  0  0  0  0  0  0
   10.2329  -14.8499   27.1124 C   0  0  0  0  0  0  0  0  0  0  0  0
   13.5793  -17.0188   26.5156 C   0  0  0  0  0  0  0  0  0  0  0  0
   12.9836  -18.0846   26.8167 O   0  0  0  0  0  0  0  0  0  0  0  0
   14.7829  -16.7694   27.1079 O   0  0  0  0  0  0  0  0  0  0  0  0
  2  1  1  1
  3  2  1  0
  4  5  2  0
  4  3  1  0
  6  5  1  0
  7  6  2  0
  8  7  1  0
  8  9  2  0
  9  4  1  0
 10 12  1  0
 10  2  1  0
 11 10  2  0
 13 12  1  0
 14 15  1  0
 13 14  1  6
 15 16  1  0
 16 17  2  0
 18 21  1  0
 18 13  1  0
 19 18  2  0
 20 16  1  0
 22 21  1  0
 22 30  1  0
 23 24  1  0
 22 23  1  1
 24 29  1  0
 25 24  2  0
 25 26  1  0
 26 27  2  0
 27 28  1  0
 29 28  2  0
 30 32  1  0
 31 30  2  0
M  END
$$$$
