FEF.pdb
     RDKit          3D

 32 33  0  0  1  0  0  0  0  0999 V2000
    7.2108  -18.3139   20.7546 N   0  0  0  0  0  0  0  0  0  0  0  0
    7.6096  -17.0643   21.3632 C   0  0  1  0  0  0  0  0  0  0  0  0
    6.4947  -16.3951   22.1046 C   0  0  0  0  0  0  0  0  0  0  0  0
    6.8830  -15.1336   22.7593 C   0  0  0  0  0  0  0  0  0  0  0  0
    7.1963  -14.0508   21.9529 C   0  0  0  0  0  0  0  0  0  0  0  0
    7.5706  -12.8294   22.4736 C   0  0  0  0  0  0  0  0  0  0  0  0
    7.6447  -12.6490   23.8399 C   0  0  0  0  0  0  0  0  0  0  0  0
    7.3277  -13.7428   24.6236 C   0  0  0  0  0  0  0  0  0  0  0  0
    6.9543  -14.9617   24.1139 C   0  0  0  0  0  0  0  0  0  0  0  0
    8.6813  -17.3689   22.3660 C   0  0  0  0  0  0  0  0  0  0  0  0
    8.4991  -18.2814   23.1921 O   0  0  0  0  0  0  0  0  0  0  0  0
    9.8767  -16.6332   22.3733 N   0  0  0  0  0  0  0  0  0  0  0  0
   11.0019  -16.9018   23.1907 C   0  0  1  0  0  0  0  0  0  0  0  0
   12.3549  -16.5327   22.6015 C   0  0  0  0  0  0  0  0  0  0  0  0
   13.5174  -17.0799   23.3838 C   0  0  0  0  0  0  0  0  0  0  0  0
   14.7618  -16.5536   22.7262 C   0  0  0  0  0  0  0  0  0  0  0  0
   14.9997  -16.8917   21.5502 O   0  0  0  0  0  0  0  0  0  0  0  0
   10.9453  -16.4157   24.5676 C   0  0  0  0  0  0  0  0  0  0  0  0
   10.2444  -15.3655   24.8011 O   0  0  0  0  0  0  0  0  0  0  0  0
   15.6391  -15.7142   23.3839 O   0  0  0  0  0  0  0  0  0  0  0  0
   11.5863  -16.9880   25.6726 N   0  0  0  0  0  0  0  0  0  0  0  0
   10.9002  -17.2617   26.9400 C   0  0  1  0  0  0  0  0  0  0  0  0
    9.4876  -16.7099   26.7730 C   0  0  0  0  0  0  0  0  0  0  0  0
    9.3897  -15.3244   27.2747 C   0  0  0  0  0  0  0  0  0  0  0  0
   10.1504  -14.8371   28.2988 C   0  0  0  0  0  0  0  0  0  0  0  0
    9.9797  -13.5194   28.6930 C   0  0  0  0  0  0  0  0  0  0  0  0
    9.0680  -12.6795   28.0883 C   0  0  0  0  0  0  0  0  0  0  0  0
    8.2983  -13.1675   27.0542 C   0  0  0  0  0  0  0  0  0  0  0  0
    8.4783  -14.4881   26.6687 C   0  0  0  0  0  0  0  0  0  0  0  0
   10.7571  -18.7233   27.1567 C   0  0  0  0  0  0  0  0  0  0  0  0
   10.2217  -19.1053   28.2286 O   0  0  0  0  0  0  0  0  0  0  0  0
   11.1676  -19.6769   26.2714 O   0  0  0  0  0  0  0  0  0  0  0  0
  2  1  1  1
  3  2  1  0
  4  5  2  0
  4  3  1  0
  6  5  1  0
  7  6  2  0
  8  7  1  0
  8  9  2  0
  9  4  1  0
 10 12  1  0
 10  2  1  0
 11 10  2  0
 13 12  1  0
 14 15  1  0
 13 14  1  6
 15 16  1  0
 16 17  2  0
 18 21  1  0
 18 13  1  0
 19 18  2  0
 20 16  1  0
 22 21  1  0
 22 30  1  0
 23 24  1  0
 22 23  1  6
 24 29  1  0
 25 24  2  0
 25 26  1  0
 26 27  2  0
 27 28  1  0
 29 28  2  0
 30 32  1  0
 31 30  2  0
M  END
$$$$
