FEF.pdb
     RDKit          3D

 32 33  0  0  1  0  0  0  0  0999 V2000
    5.9424  -18.3821   23.6148 N   0  0  0  0  0  0  0  0  0  0  0  0
    6.7731  -17.3704   23.0005 C   0  0  1  0  0  0  0  0  0  0  0  0
    6.4393  -15.9851   23.4587 C   0  0  0  0  0  0  0  0  0  0  0  0
    7.1305  -14.9228   22.7074 C   0  0  0  0  0  0  0  0  0  0  0  0
    7.9201  -14.0315   23.4166 C   0  0  0  0  0  0  0  0  0  0  0  0
    8.6055  -13.0046   22.8011 C   0  0  0  0  0  0  0  0  0  0  0  0
    8.5218  -12.8336   21.4342 C   0  0  0  0  0  0  0  0  0  0  0  0
    7.7285  -13.7344   20.7483 C   0  0  0  0  0  0  0  0  0  0  0  0
    7.0431  -14.7590   21.3527 C   0  0  0  0  0  0  0  0  0  0  0  0
    8.1906  -17.6368   23.4087 C   0  0  0  0  0  0  0  0  0  0  0  0
    8.4250  -18.0437   24.5610 O   0  0  0  0  0  0  0  0  0  0  0  0
    9.2416  -17.4298   22.5016 N   0  0  0  0  0  0  0  0  0  0  0  0
   10.6120  -17.6765   22.7615 C   0  0  1  0  0  0  0  0  0  0  0  0
   11.5447  -17.5737   21.5642 C   0  0  0  0  0  0  0  0  0  0  0  0
   12.9528  -18.0099   21.8637 C   0  0  0  0  0  0  0  0  0  0  0  0
   13.7027  -17.9594   20.5626 C   0  0  0  0  0  0  0  0  0  0  0  0
   13.5451  -18.8918   19.7504 O   0  0  0  0  0  0  0  0  0  0  0  0
   11.2097  -16.9522   23.8811 C   0  0  0  0  0  0  0  0  0  0  0  0
   12.0951  -16.0622   23.6111 O   0  0  0  0  0  0  0  0  0  0  0  0
   14.5527  -16.9179   20.2467 O   0  0  0  0  0  0  0  0  0  0  0  0
   10.9094  -17.1326   25.2363 N   0  0  0  0  0  0  0  0  0  0  0  0
   11.6438  -16.4596   26.3131 C   0  0  1  0  0  0  0  0  0  0  0  0
   11.3770  -14.9690   26.1266 C   0  0  0  0  0  0  0  0  0  0  0  0
    9.9975  -14.6173   26.5196 C   0  0  0  0  0  0  0  0  0  0  0  0
    8.9081  -14.8334   25.7251 C   0  0  0  0  0  0  0  0  0  0  0  0
    7.6553  -14.4659   26.1900 C   0  0  0  0  0  0  0  0  0  0  0  0
    7.4669  -13.8886   27.4283 C   0  0  0  0  0  0  0  0  0  0  0  0
    8.5640  -13.6687   28.2334 C   0  0  0  0  0  0  0  0  0  0  0  0
    9.8127  -14.0409   27.7569 C   0  0  0  0  0  0  0  0  0  0  0  0
   11.0850  -16.8234   27.6394 C   0  0  0  0  0  0  0  0  0  0  0  0
   11.5622  -16.2498   28.6517 O   0  0  0  0  0  0  0  0  0  0  0  0
   10.0901  -17.7371   27.8315 O   0  0  0  0  0  0  0  0  0  0  0  0
  2  1  1  1
  3  2  1  0
  4  5  2  0
  4  3  1  0
  6  5  1  0
  7  6  2  0
  8  7  1  0
  8  9  2  0
  9  4  1  0
 10 12  1  0
 10  2  1  0
 11 10  2  0
 13 12  1  0
 14 15  1  0
 13 14  1  6
 15 16  1  0
 16 17  2  0
 18 21  1  0
 18 13  1  0
 19 18  2  0
 20 16  1  0
 22 21  1  0
 22 30  1  0
 23 24  1  0
 22 23  1  6
 24 29  1  0
 25 24  2  0
 25 26  1  0
 26 27  2  0
 27 28  1  0
 29 28  2  0
 30 32  1  0
 31 30  2  0
M  END
$$$$
