FEF.pdb
     RDKit          3D

 32 33  0  0  1  0  0  0  0  0999 V2000
    5.6637  -18.0011   20.6694 N   0  0  0  0  0  0  0  0  0  0  0  0
    6.5731  -16.9617   21.0979 C   0  0  1  0  0  0  0  0  0  0  0  0
    5.9668  -15.5946   21.0355 C   0  0  0  0  0  0  0  0  0  0  0  0
    6.9528  -14.5071   20.9103 C   0  0  0  0  0  0  0  0  0  0  0  0
    7.4072  -14.1828   19.6417 C   0  0  0  0  0  0  0  0  0  0  0  0
    8.3295  -13.1801   19.4245 C   0  0  0  0  0  0  0  0  0  0  0  0
    8.8351  -12.4580   20.4865 C   0  0  0  0  0  0  0  0  0  0  0  0
    8.3671  -12.7994   21.7418 C   0  0  0  0  0  0  0  0  0  0  0  0
    7.4495  -13.7956   21.9670 C   0  0  0  0  0  0  0  0  0  0  0  0
    6.9177  -17.2226   22.5332 C   0  0  0  0  0  0  0  0  0  0  0  0
    6.0070  -17.2569   23.3804 O   0  0  0  0  0  0  0  0  0  0  0  0
    8.2524  -17.4260   22.9173 N   0  0  0  0  0  0  0  0  0  0  0  0
    8.6872  -17.7937   24.2142 C   0  0  1  0  0  0  0  0  0  0  0  0
    9.4327  -19.1159   24.3155 C   0  0  0  0  0  0  0  0  0  0  0  0
    9.6477  -19.5745   25.7319 C   0  0  0  0  0  0  0  0  0  0  0  0
   10.4763  -20.8257   25.6558 C   0  0  0  0  0  0  0  0  0  0  0  0
   10.9074  -21.1850   24.5428 O   0  0  0  0  0  0  0  0  0  0  0  0
    9.4244  -16.7843   24.9714 C   0  0  0  0  0  0  0  0  0  0  0  0
   10.3454  -16.1331   24.3577 O   0  0  0  0  0  0  0  0  0  0  0  0
   10.7694  -21.5796   26.7751 O   0  0  0  0  0  0  0  0  0  0  0  0
    9.2242  -16.4509   26.3160 N   0  0  0  0  0  0  0  0  0  0  0  0
   10.0616  -15.4820   27.0314 C   0  0  1  0  0  0  0  0  0  0  0  0
    9.1332  -14.7842   28.0208 C   0  0  0  0  0  0  0  0  0  0  0  0
    8.1154  -13.9738   27.3220 C   0  0  0  0  0  0  0  0  0  0  0  0
    6.9414  -14.4834   26.8461 C   0  0  0  0  0  0  0  0  0  0  0  0
    6.0532  -13.6349   26.2041 C   0  0  0  0  0  0  0  0  0  0  0  0
    6.3112  -12.2917   26.0274 C   0  0  0  0  0  0  0  0  0  0  0  0
    7.4952  -11.7733   26.5063 C   0  0  0  0  0  0  0  0  0  0  0  0
    8.3761  -12.6326   27.1471 C   0  0  0  0  0  0  0  0  0  0  0  0
   11.0943  -16.1752   27.8418 C   0  0  0  0  0  0  0  0  0  0  0  0
   11.0275  -17.4282   27.9252 O   0  0  0  0  0  0  0  0  0  0  0  0
   12.1085  -15.5434   28.5004 O   0  0  0  0  0  0  0  0  0  0  0  0
  2  1  1  1
  3  2  1  0
  4  5  2  0
  4  3  1  0
  6  5  1  0
  7  6  2  0
  8  7  1  0
  8  9  2  0
  9  4  1  0
 10 12  1  0
 10  2  1  0
 11 10  2  0
 13 12  1  0
 14 15  1  0
 13 14  1  6
 15 16  1  0
 16 17  2  0
 18 21  1  0
 18 13  1  0
 19 18  2  0
 20 16  1  0
 22 21  1  0
 22 30  1  0
 23 24  1  0
 22 23  1  1
 24 29  1  0
 25 24  2  0
 25 26  1  0
 26 27  2  0
 27 28  1  0
 29 28  2  0
 30 32  1  0
 31 30  2  0
M  END
$$$$
