FEF.pdb
     RDKit          3D

 32 33  0  0  1  0  0  0  0  0999 V2000
    5.9963  -16.8931   25.1936 N   0  0  0  0  0  0  0  0  0  0  0  0
    6.9968  -15.9952   24.6608 C   0  0  1  0  0  0  0  0  0  0  0  0
    7.6929  -15.2022   25.7224 C   0  0  0  0  0  0  0  0  0  0  0  0
    7.2002  -13.8203   25.8578 C   0  0  0  0  0  0  0  0  0  0  0  0
    7.8671  -12.8204   25.1676 C   0  0  0  0  0  0  0  0  0  0  0  0
    7.4802  -11.4978   25.2320 C   0  0  0  0  0  0  0  0  0  0  0  0
    6.3962  -11.1269   26.0014 C   0  0  0  0  0  0  0  0  0  0  0  0
    5.7471  -12.1412   26.6805 C   0  0  0  0  0  0  0  0  0  0  0  0
    6.1252  -13.4597   26.6220 C   0  0  0  0  0  0  0  0  0  0  0  0
    8.0409  -16.8294   23.9821 C   0  0  0  0  0  0  0  0  0  0  0  0
    8.2056  -18.0089   24.3429 O   0  0  0  0  0  0  0  0  0  0  0  0
    8.8241  -16.2866   22.9514 N   0  0  0  0  0  0  0  0  0  0  0  0
   10.1689  -16.6326   22.6720 C   0  0  1  0  0  0  0  0  0  0  0  0
   10.8250  -15.8780   21.5256 C   0  0  0  0  0  0  0  0  0  0  0  0
   12.1948  -16.3926   21.1770 C   0  0  0  0  0  0  0  0  0  0  0  0
   11.9977  -17.4782   20.1569 C   0  0  0  0  0  0  0  0  0  0  0  0
   12.7266  -18.4876   20.2163 O   0  0  0  0  0  0  0  0  0  0  0  0
   11.0917  -16.6526   23.8048 C   0  0  0  0  0  0  0  0  0  0  0  0
   11.9603  -15.7101   23.8834 O   0  0  0  0  0  0  0  0  0  0  0  0
   11.0401  -17.3873   19.1659 O   0  0  0  0  0  0  0  0  0  0  0  0
   11.1240  -17.6082   24.8271 N   0  0  0  0  0  0  0  0  0  0  0  0
   12.0860  -17.5613   25.9336 C   0  0  1  0  0  0  0  0  0  0  0  0
   11.2494  -17.5716   27.2095 C   0  0  0  0  0  0  0  0  0  0  0  0
   10.5393  -16.2902   27.3961 C   0  0  0  0  0  0  0  0  0  0  0  0
   11.1106  -15.1861   27.9610 C   0  0  0  0  0  0  0  0  0  0  0  0
   10.3551  -14.0313   28.0895 C   0  0  0  0  0  0  0  0  0  0  0  0
    9.0444  -13.9552   27.6672 C   0  0  0  0  0  0  0  0  0  0  0  0
    8.4639  -15.0675   27.0964 C   0  0  0  0  0  0  0  0  0  0  0  0
    9.2304  -16.2174   26.9732 C   0  0  0  0  0  0  0  0  0  0  0  0
   12.9139  -18.7931   25.9645 C   0  0  0  0  0  0  0  0  0  0  0  0
   12.6447  -19.6989   25.1347 O   0  0  0  0  0  0  0  0  0  0  0  0
   13.9452  -19.0062   26.8320 O   0  0  0  0  0  0  0  0  0  0  0  0
  2  1  1  1
  3  2  1  0
  4  5  2  0
  4  3  1  0
  6  5  1  0
  7  6  2  0
  8  7  1  0
  8  9  2  0
  9  4  1  0
 10 12  1  0
 10  2  1  0
 11 10  2  0
 13 12  1  0
 14 15  1  0
 13 14  1  6
 15 16  1  0
 16 17  2  0
 18 21  1  0
 18 13  1  0
 19 18  2  0
 20 16  1  0
 22 21  1  0
 22 30  1  0
 23 24  1  0
 22 23  1  1
 24 29  1  0
 25 24  2  0
 25 26  1  0
 26 27  2  0
 27 28  1  0
 29 28  2  0
 30 32  1  0
 31 30  2  0
M  END
$$$$
