FEF.pdb
     RDKit          3D

 32 33  0  0  1  0  0  0  0  0999 V2000
    8.3864  -18.1267   19.5382 N   0  0  0  0  0  0  0  0  0  0  0  0
    8.4597  -16.7773   20.0529 C   0  0  1  0  0  0  0  0  0  0  0  0
    7.5940  -15.8177   19.2979 C   0  0  0  0  0  0  0  0  0  0  0  0
    7.7354  -14.4161   19.7295 C   0  0  0  0  0  0  0  0  0  0  0  0
    6.9184  -13.9645   20.7540 C   0  0  0  0  0  0  0  0  0  0  0  0
    6.9777  -12.6696   21.2261 C   0  0  0  0  0  0  0  0  0  0  0  0
    7.8706  -11.7703   20.6796 C   0  0  0  0  0  0  0  0  0  0  0  0
    8.6748  -12.2434   19.6594 C   0  0  0  0  0  0  0  0  0  0  0  0
    8.6224  -13.5302   19.1836 C   0  0  0  0  0  0  0  0  0  0  0  0
    7.9578  -16.8017   21.4651 C   0  0  0  0  0  0  0  0  0  0  0  0
    7.2340  -15.8737   21.8691 O   0  0  0  0  0  0  0  0  0  0  0  0
    8.3004  -17.8592   22.3222 N   0  0  0  0  0  0  0  0  0  0  0  0
    7.8897  -17.9892   23.6716 C   0  0  1  0  0  0  0  0  0  0  0  0
    7.5446  -19.3985   24.1287 C   0  0  0  0  0  0  0  0  0  0  0  0
    6.8359  -19.4407   25.4548 C   0  0  0  0  0  0  0  0  0  0  0  0
    6.6590  -20.8923   25.7999 C   0  0  0  0  0  0  0  0  0  0  0  0
    6.0114  -21.1840   26.8243 O   0  0  0  0  0  0  0  0  0  0  0  0
    8.7439  -17.3682   24.6816 C   0  0  0  0  0  0  0  0  0  0  0  0
   10.0118  -17.3779   24.4783 O   0  0  0  0  0  0  0  0  0  0  0  0
    7.1895  -21.9009   25.0198 O   0  0  0  0  0  0  0  0  0  0  0  0
    8.3133  -16.7548   25.8638 N   0  0  0  0  0  0  0  0  0  0  0  0
    9.2386  -16.2188   26.8679 C   0  0  1  0  0  0  0  0  0  0  0  0
    8.4289  -15.2136   27.6814 C   0  0  0  0  0  0  0  0  0  0  0  0
    8.0065  -14.0674   26.8515 C   0  0  0  0  0  0  0  0  0  0  0  0
    8.8292  -13.0270   26.5267 C   0  0  0  0  0  0  0  0  0  0  0  0
    8.3326  -11.9994   25.7405 C   0  0  0  0  0  0  0  0  0  0  0  0
    7.0353  -11.9879   25.2725 C   0  0  0  0  0  0  0  0  0  0  0  0
    6.2016  -13.0362   25.5981 C   0  0  0  0  0  0  0  0  0  0  0  0
    6.7103  -14.0589   26.3857 C   0  0  0  0  0  0  0  0  0  0  0  0
    9.6620  -17.2811   27.8145 C   0  0  0  0  0  0  0  0  0  0  0  0
   10.4563  -16.9604   28.7353 O   0  0  0  0  0  0  0  0  0  0  0  0
    9.2469  -18.5792   27.7510 O   0  0  0  0  0  0  0  0  0  0  0  0
  2  1  1  6
  3  2  1  0
  4  5  2  0
  4  3  1  0
  6  5  1  0
  7  6  2  0
  8  7  1  0
  8  9  2  0
  9  4  1  0
 10 12  1  0
 10  2  1  0
 11 10  2  0
 13 12  1  0
 14 15  1  0
 13 14  1  1
 15 16  1  0
 16 17  2  0
 18 21  1  0
 18 13  1  0
 19 18  2  0
 20 16  1  0
 22 21  1  0
 22 30  1  0
 23 24  1  0
 22 23  1  1
 24 29  1  0
 25 24  2  0
 25 26  1  0
 26 27  2  0
 27 28  1  0
 29 28  2  0
 30 32  1  0
 31 30  2  0
M  END
$$$$
