FEF.pdb
     RDKit          3D

 32 33  0  0  1  0  0  0  0  0999 V2000
    6.6925  -16.9564   21.5810 N   0  0  0  0  0  0  0  0  0  0  0  0
    7.9707  -16.3428   21.8648 C   0  0  1  0  0  0  0  0  0  0  0  0
    7.8484  -14.9167   22.3026 C   0  0  0  0  0  0  0  0  0  0  0  0
    7.8317  -13.9484   21.1923 C   0  0  0  0  0  0  0  0  0  0  0  0
    7.9590  -14.4359   19.9011 C   0  0  0  0  0  0  0  0  0  0  0  0
    7.9546  -13.6074   18.7980 C   0  0  0  0  0  0  0  0  0  0  0  0
    7.8205  -12.2427   18.9536 C   0  0  0  0  0  0  0  0  0  0  0  0
    7.6951  -11.7800   20.2504 C   0  0  0  0  0  0  0  0  0  0  0  0
    7.6985  -12.5972   21.3536 C   0  0  0  0  0  0  0  0  0  0  0  0
    8.5949  -17.0971   22.9998 C   0  0  0  0  0  0  0  0  0  0  0  0
    8.1896  -16.8962   24.1589 O   0  0  0  0  0  0  0  0  0  0  0  0
    9.6249  -18.0196   22.7580 N   0  0  0  0  0  0  0  0  0  0  0  0
   10.4682  -18.5870   23.7446 C   0  0  1  0  0  0  0  0  0  0  0  0
   11.5075  -19.5773   23.2412 C   0  0  0  0  0  0  0  0  0  0  0  0
   12.4497  -18.9912   22.2257 C   0  0  0  0  0  0  0  0  0  0  0  0
   13.3509  -20.1089   21.7824 C   0  0  0  0  0  0  0  0  0  0  0  0
   14.2096  -19.8687   20.9114 O   0  0  0  0  0  0  0  0  0  0  0  0
   11.1181  -17.6585   24.6671 C   0  0  0  0  0  0  0  0  0  0  0  0
   12.0180  -16.8763   24.1906 O   0  0  0  0  0  0  0  0  0  0  0  0
   13.2533  -21.3816   22.3094 O   0  0  0  0  0  0  0  0  0  0  0  0
   10.8540  -17.5338   26.0360 N   0  0  0  0  0  0  0  0  0  0  0  0
   11.8712  -17.1261   27.0113 C   0  0  1  0  0  0  0  0  0  0  0  0
   12.0080  -15.6142   26.8584 C   0  0  0  0  0  0  0  0  0  0  0  0
   10.7106  -14.9356   27.0518 C   0  0  0  0  0  0  0  0  0  0  0  0
    9.7382  -14.8797   26.0948 C   0  0  0  0  0  0  0  0  0  0  0  0
    8.5548  -14.2166   26.3790 C   0  0  0  0  0  0  0  0  0  0  0  0
    8.3218  -13.6093   27.5951 C   0  0  0  0  0  0  0  0  0  0  0  0
    9.3010  -13.6634   28.5638 C   0  0  0  0  0  0  0  0  0  0  0  0
   10.4811  -14.3301   28.2675 C   0  0  0  0  0  0  0  0  0  0  0  0
   11.3983  -17.3668   28.3976 C   0  0  0  0  0  0  0  0  0  0  0  0
   12.1656  -17.0454   29.3408 O   0  0  0  0  0  0  0  0  0  0  0  0
   10.1887  -17.9127   28.7148 O   0  0  0  0  0  0  0  0  0  0  0  0
  2  1  1  1
  3  2  1  0
  4  5  2  0
  4  3  1  0
  6  5  1  0
  7  6  2  0
  8  7  1  0
  8  9  2  0
  9  4  1  0
 10 12  1  0
 10  2  1  0
 11 10  2  0
 13 12  1  0
 14 15  1  0
 13 14  1  6
 15 16  1  0
 16 17  2  0
 18 21  1  0
 18 13  1  0
 19 18  2  0
 20 16  1  0
 22 21  1  0
 22 30  1  0
 23 24  1  0
 22 23  1  1
 24 29  1  0
 25 24  2  0
 25 26  1  0
 26 27  2  0
 27 28  1  0
 29 28  2  0
 30 32  1  0
 31 30  2  0
M  END
$$$$
