FEF.pdb
     RDKit          3D

 32 33  0  0  1  0  0  0  0  0999 V2000
    8.0291  -16.9261   21.1411 N   0  0  0  0  0  0  0  0  0  0  0  0
    7.6511  -15.7596   21.9076 C   0  0  1  0  0  0  0  0  0  0  0  0
    6.5126  -15.0042   21.2964 C   0  0  0  0  0  0  0  0  0  0  0  0
    6.9013  -14.1508   20.1601 C   0  0  0  0  0  0  0  0  0  0  0  0
    7.5343  -12.9488   20.4348 C   0  0  0  0  0  0  0  0  0  0  0  0
    7.9354  -12.0837   19.4379 C   0  0  0  0  0  0  0  0  0  0  0  0
    7.7126  -12.3982   18.1127 C   0  0  0  0  0  0  0  0  0  0  0  0
    7.0799  -13.6019   17.8634 C   0  0  0  0  0  0  0  0  0  0  0  0
    6.6775  -14.4687   18.8492 C   0  0  0  0  0  0  0  0  0  0  0  0
    7.1913  -16.2303   23.2544 C   0  0  0  0  0  0  0  0  0  0  0  0
    6.6577  -15.4188   24.0323 O   0  0  0  0  0  0  0  0  0  0  0  0
    7.3606  -17.5710   23.6340 N   0  0  0  0  0  0  0  0  0  0  0  0
    7.6113  -18.0266   24.9515 C   0  0  1  0  0  0  0  0  0  0  0  0
    7.4511  -19.5222   25.1796 C   0  0  0  0  0  0  0  0  0  0  0  0
    7.6486  -19.9333   26.6130 C   0  0  0  0  0  0  0  0  0  0  0  0
    7.3809  -21.4105   26.6755 C   0  0  0  0  0  0  0  0  0  0  0  0
    6.2608  -21.7946   27.0650 O   0  0  0  0  0  0  0  0  0  0  0  0
    8.8617  -17.5925   25.5707 C   0  0  0  0  0  0  0  0  0  0  0  0
    9.9605  -17.9671   25.0219 O   0  0  0  0  0  0  0  0  0  0  0  0
    8.3336  -22.3436   26.3166 O   0  0  0  0  0  0  0  0  0  0  0  0
    8.9837  -16.7980   26.7166 N   0  0  0  0  0  0  0  0  0  0  0  0
   10.2792  -16.3882   27.2696 C   0  0  1  0  0  0  0  0  0  0  0  0
   10.4689  -14.9351   26.8451 C   0  0  0  0  0  0  0  0  0  0  0  0
    9.2287  -14.1552   27.0313 C   0  0  0  0  0  0  0  0  0  0  0  0
    8.1835  -14.1785   26.1528 C   0  0  0  0  0  0  0  0  0  0  0  0
    7.0635  -13.4078   26.4223 C   0  0  0  0  0  0  0  0  0  0  0  0
    6.9646  -12.6162   27.5473 C   0  0  0  0  0  0  0  0  0  0  0  0
    8.0175  -12.5899   28.4366 C   0  0  0  0  0  0  0  0  0  0  0  0
    9.1331  -13.3656   28.1559 C   0  0  0  0  0  0  0  0  0  0  0  0
   10.2432  -16.3909   28.7536 C   0  0  0  0  0  0  0  0  0  0  0  0
   11.2786  -16.0207   29.3638 O   0  0  0  0  0  0  0  0  0  0  0  0
    9.1630  -16.7678   29.4970 O   0  0  0  0  0  0  0  0  0  0  0  0
  2  1  1  6
  3  2  1  0
  4  5  2  0
  4  3  1  0
  6  5  1  0
  7  6  2  0
  8  7  1  0
  8  9  2  0
  9  4  1  0
 10 12  1  0
 10  2  1  0
 11 10  2  0
 13 12  1  0
 14 15  1  0
 13 14  1  6
 15 16  1  0
 16 17  2  0
 18 21  1  0
 18 13  1  0
 19 18  2  0
 20 16  1  0
 22 21  1  0
 22 30  1  0
 23 24  1  0
 22 23  1  6
 24 29  1  0
 25 24  2  0
 25 26  1  0
 26 27  2  0
 27 28  1  0
 29 28  2  0
 30 32  1  0
 31 30  2  0
M  END
$$$$
