FEF.pdb
     RDKit          3D

 32 33  0  0  1  0  0  0  0  0999 V2000
    5.3951  -17.3315   21.8651 N   0  0  0  0  0  0  0  0  0  0  0  0
    6.5425  -16.4749   21.6636 C   0  0  1  0  0  0  0  0  0  0  0  0
    6.1951  -15.0192   21.6906 C   0  0  0  0  0  0  0  0  0  0  0  0
    7.1647  -14.1588   20.9904 C   0  0  0  0  0  0  0  0  0  0  0  0
    7.3213  -14.3318   19.6243 C   0  0  0  0  0  0  0  0  0  0  0  0
    8.2043  -13.5741   18.8830 C   0  0  0  0  0  0  0  0  0  0  0  0
    8.9712  -12.6032   19.4945 C   0  0  0  0  0  0  0  0  0  0  0  0
    8.7977  -12.4489   20.8574 C   0  0  0  0  0  0  0  0  0  0  0  0
    7.9215  -13.1985   21.6026 C   0  0  0  0  0  0  0  0  0  0  0  0
    7.4958  -16.7185   22.7944 C   0  0  0  0  0  0  0  0  0  0  0  0
    7.0544  -16.7972   23.9552 O   0  0  0  0  0  0  0  0  0  0  0  0
    8.8706  -16.8563   22.5470 N   0  0  0  0  0  0  0  0  0  0  0  0
    9.8451  -17.2257   23.5063 C   0  0  1  0  0  0  0  0  0  0  0  0
   11.2306  -17.5370   22.9606 C   0  0  0  0  0  0  0  0  0  0  0  0
   12.1699  -18.0938   23.9952 C   0  0  0  0  0  0  0  0  0  0  0  0
   13.4745  -18.3505   23.2952 C   0  0  0  0  0  0  0  0  0  0  0  0
   13.8309  -19.5320   23.1193 O   0  0  0  0  0  0  0  0  0  0  0  0
    9.9881  -16.3517   24.6686 C   0  0  0  0  0  0  0  0  0  0  0  0
   10.3177  -15.1285   24.4583 O   0  0  0  0  0  0  0  0  0  0  0  0
   14.2801  -17.3225   22.8466 O   0  0  0  0  0  0  0  0  0  0  0  0
    9.7983  -16.7182   26.0061 N   0  0  0  0  0  0  0  0  0  0  0  0
   10.3556  -15.9568   27.1293 C   0  0  1  0  0  0  0  0  0  0  0  0
    9.1803  -15.6728   28.0599 C   0  0  0  0  0  0  0  0  0  0  0  0
    8.1831  -14.7965   27.4130 C   0  0  0  0  0  0  0  0  0  0  0  0
    7.1449  -15.2630   26.6585 C   0  0  0  0  0  0  0  0  0  0  0  0
    6.2636  -14.3538   26.0949 C   0  0  0  0  0  0  0  0  0  0  0  0
    6.3961  -12.9920   26.2679 C   0  0  0  0  0  0  0  0  0  0  0  0
    7.4427  -12.5169   27.0288 C   0  0  0  0  0  0  0  0  0  0  0  0
    8.3181  -13.4369   27.5877 C   0  0  0  0  0  0  0  0  0  0  0  0
   11.3136  -16.7852   27.9037 C   0  0  0  0  0  0  0  0  0  0  0  0
   11.8537  -16.2642   28.9129 O   0  0  0  0  0  0  0  0  0  0  0  0
   11.6458  -18.0715   27.5929 O   0  0  0  0  0  0  0  0  0  0  0  0
  2  1  1  1
  3  2  1  0
  4  5  2  0
  4  3  1  0
  6  5  1  0
  7  6  2  0
  8  7  1  0
  8  9  2  0
  9  4  1  0
 10 12  1  0
 10  2  1  0
 11 10  2  0
 13 12  1  0
 14 15  1  0
 13 14  1  6
 15 16  1  0
 16 17  2  0
 18 21  1  0
 18 13  1  0
 19 18  2  0
 20 16  1  0
 22 21  1  0
 22 30  1  0
 23 24  1  0
 22 23  1  1
 24 29  1  0
 25 24  2  0
 25 26  1  0
 26 27  2  0
 27 28  1  0
 29 28  2  0
 30 32  1  0
 31 30  2  0
M  END
$$$$
