FEF.pdb
     RDKit          3D

 32 33  0  0  1  0  0  0  0  0999 V2000
    5.7103  -17.8319   22.2497 N   0  0  0  0  0  0  0  0  0  0  0  0
    6.7106  -16.8115   22.0278 C   0  0  1  0  0  0  0  0  0  0  0  0
    6.1590  -15.4235   22.1256 C   0  0  0  0  0  0  0  0  0  0  0  0
    6.9548  -14.4108   21.4102 C   0  0  0  0  0  0  0  0  0  0  0  0
    7.5161  -13.3818   22.1499 C   0  0  0  0  0  0  0  0  0  0  0  0
    8.2766  -12.3880   21.5692 C   0  0  0  0  0  0  0  0  0  0  0  0
    8.5037  -12.3917   20.2079 C   0  0  0  0  0  0  0  0  0  0  0  0
    7.9339  -13.4276   19.4912 C   0  0  0  0  0  0  0  0  0  0  0  0
    7.1759  -14.4205   20.0609 C   0  0  0  0  0  0  0  0  0  0  0  0
    7.7455  -16.9480   23.1035 C   0  0  0  0  0  0  0  0  0  0  0  0
    7.4050  -17.3661   24.2249 O   0  0  0  0  0  0  0  0  0  0  0  0
    9.0834  -16.6082   22.8489 N   0  0  0  0  0  0  0  0  0  0  0  0
   10.1795  -16.8921   23.7000 C   0  0  1  0  0  0  0  0  0  0  0  0
   11.5455  -16.9379   23.0319 C   0  0  0  0  0  0  0  0  0  0  0  0
   12.6550  -17.3376   23.9656 C   0  0  0  0  0  0  0  0  0  0  0  0
   13.9060  -17.4129   23.1367 C   0  0  0  0  0  0  0  0  0  0  0  0
   14.1972  -18.4994   22.5995 O   0  0  0  0  0  0  0  0  0  0  0  0
   10.2855  -16.0987   24.9226 C   0  0  0  0  0  0  0  0  0  0  0  0
   10.6496  -14.8726   24.8083 O   0  0  0  0  0  0  0  0  0  0  0  0
   14.7325  -16.3214   22.9567 O   0  0  0  0  0  0  0  0  0  0  0  0
   10.0256  -16.5465   26.2230 N   0  0  0  0  0  0  0  0  0  0  0  0
   10.4501  -15.8123   27.4199 C   0  0  1  0  0  0  0  0  0  0  0  0
    9.1722  -15.5211   28.2011 C   0  0  0  0  0  0  0  0  0  0  0  0
    8.3028  -14.5740   27.4744 C   0  0  0  0  0  0  0  0  0  0  0  0
    7.2800  -14.9629   26.6576 C   0  0  0  0  0  0  0  0  0  0  0  0
    6.5232  -13.9916   26.0215 C   0  0  0  0  0  0  0  0  0  0  0  0
    6.7649  -12.6434   26.1828 C   0  0  0  0  0  0  0  0  0  0  0  0
    7.7965  -12.2466   27.0064 C   0  0  0  0  0  0  0  0  0  0  0  0
    8.5469  -13.2282   27.6376 C   0  0  0  0  0  0  0  0  0  0  0  0
   11.2902  -16.6693   28.2935 C   0  0  0  0  0  0  0  0  0  0  0  0
   11.4340  -17.8748   27.9654 O   0  0  0  0  0  0  0  0  0  0  0  0
   11.9149  -16.2359   29.4264 O   0  0  0  0  0  0  0  0  0  0  0  0
  2  1  1  1
  3  2  1  0
  4  5  2  0
  4  3  1  0
  6  5  1  0
  7  6  2  0
  8  7  1  0
  8  9  2  0
  9  4  1  0
 10 12  1  0
 10  2  1  0
 11 10  2  0
 13 12  1  0
 14 15  1  0
 13 14  1  6
 15 16  1  0
 16 17  2  0
 18 21  1  0
 18 13  1  0
 19 18  2  0
 20 16  1  0
 22 21  1  0
 22 30  1  0
 23 24  1  0
 22 23  1  1
 24 29  1  0
 25 24  2  0
 25 26  1  0
 26 27  2  0
 27 28  1  0
 29 28  2  0
 30 32  1  0
 31 30  2  0
M  END
$$$$
