FEF.pdb
     RDKit          3D

 32 33  0  0  1  0  0  0  0  0999 V2000
    5.9396  -18.2395   21.7525 N   0  0  0  0  0  0  0  0  0  0  0  0
    6.7165  -17.0220   21.6814 C   0  0  1  0  0  0  0  0  0  0  0  0
    5.8873  -15.7897   21.8664 C   0  0  0  0  0  0  0  0  0  0  0  0
    6.6342  -14.5325   21.6870 C   0  0  0  0  0  0  0  0  0  0  0  0
    6.8739  -14.0962   20.3935 C   0  0  0  0  0  0  0  0  0  0  0  0
    7.5639  -12.9320   20.1256 C   0  0  0  0  0  0  0  0  0  0  0  0
    8.0440  -12.1543   21.1597 C   0  0  0  0  0  0  0  0  0  0  0  0
    7.7928  -12.6095   22.4407 C   0  0  0  0  0  0  0  0  0  0  0  0
    7.1071  -13.7667   22.7164 C   0  0  0  0  0  0  0  0  0  0  0  0
    7.7119  -17.0520   22.8018 C   0  0  0  0  0  0  0  0  0  0  0  0
    7.3504  -17.4451   23.9257 O   0  0  0  0  0  0  0  0  0  0  0  0
    9.0367  -16.6415   22.5858 N   0  0  0  0  0  0  0  0  0  0  0  0
   10.1385  -16.9476   23.4217 C   0  0  1  0  0  0  0  0  0  0  0  0
   11.5010  -16.9664   22.7455 C   0  0  0  0  0  0  0  0  0  0  0  0
   12.6167  -17.3936   23.6596 C   0  0  0  0  0  0  0  0  0  0  0  0
   13.8797  -17.3413   22.8472 C   0  0  0  0  0  0  0  0  0  0  0  0
   13.7941  -17.0664   21.6344 O   0  0  0  0  0  0  0  0  0  0  0  0
   10.2476  -16.1930   24.6683 C   0  0  0  0  0  0  0  0  0  0  0  0
   10.8029  -15.0363   24.6187 O   0  0  0  0  0  0  0  0  0  0  0  0
   15.1195  -17.5872   23.4036 O   0  0  0  0  0  0  0  0  0  0  0  0
    9.8009  -16.6095   25.9278 N   0  0  0  0  0  0  0  0  0  0  0  0
   10.2321  -15.9745   27.1779 C   0  0  1  0  0  0  0  0  0  0  0  0
    8.9593  -15.4497   27.8355 C   0  0  0  0  0  0  0  0  0  0  0  0
    8.4321  -14.2705   27.1195 C   0  0  0  0  0  0  0  0  0  0  0  0
    8.9792  -13.0230   27.2147 C   0  0  0  0  0  0  0  0  0  0  0  0
    8.4063  -11.9830   26.4998 C   0  0  0  0  0  0  0  0  0  0  0  0
    7.3014  -12.1611   25.6938 C   0  0  0  0  0  0  0  0  0  0  0  0
    6.7461  -13.4189   25.5950 C   0  0  0  0  0  0  0  0  0  0  0  0
    7.3286  -14.4518   26.3153 C   0  0  0  0  0  0  0  0  0  0  0  0
   10.8026  -16.9792   28.1098 C   0  0  0  0  0  0  0  0  0  0  0  0
   11.2421  -16.5685   29.2142 O   0  0  0  0  0  0  0  0  0  0  0  0
   10.8812  -18.3158   27.8473 O   0  0  0  0  0  0  0  0  0  0  0  0
  2  1  1  1
  3  2  1  0
  4  5  2  0
  4  3  1  0
  6  5  1  0
  7  6  2  0
  8  7  1  0
  8  9  2  0
  9  4  1  0
 10 12  1  0
 10  2  1  0
 11 10  2  0
 13 12  1  0
 14 15  1  0
 13 14  1  6
 15 16  1  0
 16 17  2  0
 18 21  1  0
 18 13  1  0
 19 18  2  0
 20 16  1  0
 22 21  1  0
 22 30  1  0
 23 24  1  0
 22 23  1  1
 24 29  1  0
 25 24  2  0
 25 26  1  0
 26 27  2  0
 27 28  1  0
 29 28  2  0
 30 32  1  0
 31 30  2  0
M  END
$$$$
