FEF.pdb
     RDKit          3D

 32 33  0  0  1  0  0  0  0  0999 V2000
    5.6268  -18.1841   22.5283 N   0  0  0  0  0  0  0  0  0  0  0  0
    6.5314  -17.1553   22.0652 C   0  0  1  0  0  0  0  0  0  0  0  0
    6.0091  -15.7720   22.2979 C   0  0  0  0  0  0  0  0  0  0  0  0
    6.8247  -14.7119   21.6801 C   0  0  0  0  0  0  0  0  0  0  0  0
    7.4442  -13.7962   22.5159 C   0  0  0  0  0  0  0  0  0  0  0  0
    8.2272  -12.7693   22.0307 C   0  0  0  0  0  0  0  0  0  0  0  0
    8.4188  -12.6230   20.6718 C   0  0  0  0  0  0  0  0  0  0  0  0
    7.7911  -13.5479   19.8583 C   0  0  0  0  0  0  0  0  0  0  0  0
    7.0102  -14.5728   20.3326 C   0  0  0  0  0  0  0  0  0  0  0  0
    7.8025  -17.2810   22.8497 C   0  0  0  0  0  0  0  0  0  0  0  0
    7.7444  -17.5662   24.0595 O   0  0  0  0  0  0  0  0  0  0  0  0
    9.0441  -17.0792   22.2269 N   0  0  0  0  0  0  0  0  0  0  0  0
   10.3087  -17.3181   22.8188 C   0  0  1  0  0  0  0  0  0  0  0  0
   11.4723  -17.4904   21.8541 C   0  0  0  0  0  0  0  0  0  0  0  0
   12.7860  -17.7455   22.5410 C   0  0  0  0  0  0  0  0  0  0  0  0
   13.7973  -17.9846   21.4557 C   0  0  0  0  0  0  0  0  0  0  0  0
   14.7661  -18.7296   21.7012 O   0  0  0  0  0  0  0  0  0  0  0  0
   10.7185  -16.4063   23.8847 C   0  0  0  0  0  0  0  0  0  0  0  0
   11.4302  -15.3886   23.5582 O   0  0  0  0  0  0  0  0  0  0  0  0
   13.6824  -17.4066   20.2068 O   0  0  0  0  0  0  0  0  0  0  0  0
   10.4085  -16.5320   25.2438 N   0  0  0  0  0  0  0  0  0  0  0  0
   11.1027  -15.7788   26.2939 C   0  0  1  0  0  0  0  0  0  0  0  0
   10.7459  -14.3144   26.0570 C   0  0  0  0  0  0  0  0  0  0  0  0
    9.3592  -14.0254   26.4748 C   0  0  0  0  0  0  0  0  0  0  0  0
    9.0400  -13.3713   27.6302 C   0  0  0  0  0  0  0  0  0  0  0  0
    7.7047  -13.1503   27.9289 C   0  0  0  0  0  0  0  0  0  0  0  0
    6.6836  -13.5673   27.1009 C   0  0  0  0  0  0  0  0  0  0  0  0
    7.0016  -14.2279   25.9337 C   0  0  0  0  0  0  0  0  0  0  0  0
    8.3417  -14.4431   25.6457 C   0  0  0  0  0  0  0  0  0  0  0  0
   10.5691  -16.1294   27.6341 C   0  0  0  0  0  0  0  0  0  0  0  0
    9.6773  -17.0139   27.6948 O   0  0  0  0  0  0  0  0  0  0  0  0
   10.9820  -15.5561   28.8014 O   0  0  0  0  0  0  0  0  0  0  0  0
  2  1  1  1
  3  2  1  0
  4  5  2  0
  4  3  1  0
  6  5  1  0
  7  6  2  0
  8  7  1  0
  8  9  2  0
  9  4  1  0
 10 12  1  0
 10  2  1  0
 11 10  2  0
 13 12  1  0
 14 15  1  0
 13 14  1  6
 15 16  1  0
 16 17  2  0
 18 21  1  0
 18 13  1  0
 19 18  2  0
 20 16  1  0
 22 21  1  0
 22 30  1  0
 23 24  1  0
 22 23  1  6
 24 29  1  0
 25 24  2  0
 25 26  1  0
 26 27  2  0
 27 28  1  0
 29 28  2  0
 30 32  1  0
 31 30  2  0
M  END
$$$$
