FEF.pdb
     RDKit          3D

 32 33  0  0  1  0  0  0  0  0999 V2000
    7.6757  -17.5019   21.6919 N   0  0  0  0  0  0  0  0  0  0  0  0
    8.5265  -16.3787   22.0171 C   0  0  1  0  0  0  0  0  0  0  0  0
    7.7679  -15.2153   22.5750 C   0  0  0  0  0  0  0  0  0  0  0  0
    7.5332  -14.1320   21.6044 C   0  0  0  0  0  0  0  0  0  0  0  0
    6.4700  -14.2644   20.7252 C   0  0  0  0  0  0  0  0  0  0  0  0
    6.1714  -13.3034   19.7815 C   0  0  0  0  0  0  0  0  0  0  0  0
    6.9392  -12.1606   19.6855 C   0  0  0  0  0  0  0  0  0  0  0  0
    7.9939  -12.0509   20.5726 C   0  0  0  0  0  0  0  0  0  0  0  0
    8.2981  -13.0022   21.5147 C   0  0  0  0  0  0  0  0  0  0  0  0
    9.4845  -16.8267   23.0793 C   0  0  0  0  0  0  0  0  0  0  0  0
    9.1099  -17.6613   23.9228 O   0  0  0  0  0  0  0  0  0  0  0  0
   10.7892  -16.3109   23.1221 N   0  0  0  0  0  0  0  0  0  0  0  0
   11.7818  -16.6642   24.0689 C   0  0  1  0  0  0  0  0  0  0  0  0
   13.2192  -16.3712   23.6659 C   0  0  0  0  0  0  0  0  0  0  0  0
   14.2336  -16.8949   24.6453 C   0  0  0  0  0  0  0  0  0  0  0  0
   15.5856  -16.5574   24.0830 C   0  0  0  0  0  0  0  0  0  0  0  0
   16.3557  -15.8575   24.7692 O   0  0  0  0  0  0  0  0  0  0  0  0
   11.5785  -16.1995   25.4393 C   0  0  0  0  0  0  0  0  0  0  0  0
   12.2962  -15.2164   25.8484 O   0  0  0  0  0  0  0  0  0  0  0  0
   15.9927  -16.9980   22.8391 O   0  0  0  0  0  0  0  0  0  0  0  0
   10.6672  -16.7245   26.3629 N   0  0  0  0  0  0  0  0  0  0  0  0
   10.5820  -16.2610   27.7521 C   0  0  1  0  0  0  0  0  0  0  0  0
    9.1140  -15.9156   27.9834 C   0  0  0  0  0  0  0  0  0  0  0  0
    8.7212  -14.7085   27.2286 C   0  0  0  0  0  0  0  0  0  0  0  0
    9.3865  -13.5187   27.3087 C   0  0  0  0  0  0  0  0  0  0  0  0
    8.9345  -12.4456   26.5570 C   0  0  0  0  0  0  0  0  0  0  0  0
    7.8351  -12.5344   25.7290 C   0  0  0  0  0  0  0  0  0  0  0  0
    7.1608  -13.7337   25.6453 C   0  0  0  0  0  0  0  0  0  0  0  0
    7.6229  -14.8005   26.4026 C   0  0  0  0  0  0  0  0  0  0  0  0
   10.9084  -17.3600   28.6952 C   0  0  0  0  0  0  0  0  0  0  0  0
   10.9708  -18.5277   28.2325 O   0  0  0  0  0  0  0  0  0  0  0  0
   11.1444  -17.1866   30.0277 O   0  0  0  0  0  0  0  0  0  0  0  0
  2  1  1  1
  3  2  1  0
  4  5  2  0
  4  3  1  0
  6  5  1  0
  7  6  2  0
  8  7  1  0
  8  9  2  0
  9  4  1  0
 10 12  1  0
 10  2  1  0
 11 10  2  0
 13 12  1  0
 14 15  1  0
 13 14  1  6
 15 16  1  0
 16 17  2  0
 18 21  1  0
 18 13  1  0
 19 18  2  0
 20 16  1  0
 22 21  1  0
 22 30  1  0
 23 24  1  0
 22 23  1  1
 24 29  1  0
 25 24  2  0
 25 26  1  0
 26 27  2  0
 27 28  1  0
 29 28  2  0
 30 32  1  0
 31 30  2  0
M  END
$$$$
