FEF.pdb
     RDKit          3D

 32 33  0  0  1  0  0  0  0  0999 V2000
    5.4846  -17.5983   20.8381 N   0  0  0  0  0  0  0  0  0  0  0  0
    6.4875  -16.5680   20.6846 C   0  0  1  0  0  0  0  0  0  0  0  0
    5.9399  -15.1883   20.8766 C   0  0  0  0  0  0  0  0  0  0  0  0
    6.8919  -14.1142   20.5440 C   0  0  0  0  0  0  0  0  0  0  0  0
    7.5310  -13.4639   21.5878 C   0  0  0  0  0  0  0  0  0  0  0  0
    8.4381  -12.4464   21.3757 C   0  0  0  0  0  0  0  0  0  0  0  0
    8.7400  -12.0401   20.0917 C   0  0  0  0  0  0  0  0  0  0  0  0
    8.0903  -12.7032   19.0672 C   0  0  0  0  0  0  0  0  0  0  0  0
    7.1864  -13.7166   19.2693 C   0  0  0  0  0  0  0  0  0  0  0  0
    7.5231  -16.7798   21.7474 C   0  0  0  0  0  0  0  0  0  0  0  0
    7.1628  -17.1285   22.8862 O   0  0  0  0  0  0  0  0  0  0  0  0
    8.8837  -16.5871   21.4614 N   0  0  0  0  0  0  0  0  0  0  0  0
    9.9615  -16.9750   22.2948 C   0  0  1  0  0  0  0  0  0  0  0  0
   11.3459  -16.9015   21.6685 C   0  0  0  0  0  0  0  0  0  0  0  0
   12.4463  -17.3371   22.5969 C   0  0  0  0  0  0  0  0  0  0  0  0
   13.5882  -17.7831   21.7280 C   0  0  0  0  0  0  0  0  0  0  0  0
   13.4169  -17.8161   20.4938 O   0  0  0  0  0  0  0  0  0  0  0  0
   10.0180  -16.3669   23.6223 C   0  0  0  0  0  0  0  0  0  0  0  0
   10.3373  -15.1254   23.6966 O   0  0  0  0  0  0  0  0  0  0  0  0
   14.8094  -18.1535   22.2559 O   0  0  0  0  0  0  0  0  0  0  0  0
    9.7547  -17.0101   24.8373 N   0  0  0  0  0  0  0  0  0  0  0  0
    9.8473  -16.3330   26.1354 C   0  0  1  0  0  0  0  0  0  0  0  0
    8.4391  -16.3685   26.7216 C   0  0  0  0  0  0  0  0  0  0  0  0
    7.9018  -15.0059   26.9103 C   0  0  0  0  0  0  0  0  0  0  0  0
    8.6844  -13.9120   27.1458 C   0  0  0  0  0  0  0  0  0  0  0  0
    8.0783  -12.6762   27.3086 C   0  0  0  0  0  0  0  0  0  0  0  0
    6.7109  -12.5093   27.2415 C   0  0  0  0  0  0  0  0  0  0  0  0
    5.9174  -13.6111   27.0040 C   0  0  0  0  0  0  0  0  0  0  0  0
    6.5357  -14.8427   26.8427 C   0  0  0  0  0  0  0  0  0  0  0  0
   10.7102  -17.0995   27.0691 C   0  0  0  0  0  0  0  0  0  0  0  0
   11.0683  -18.2533   26.7198 O   0  0  0  0  0  0  0  0  0  0  0  0
   11.1390  -16.6352   28.2783 O   0  0  0  0  0  0  0  0  0  0  0  0
  2  1  1  1
  3  2  1  0
  4  5  2  0
  4  3  1  0
  6  5  1  0
  7  6  2  0
  8  7  1  0
  8  9  2  0
  9  4  1  0
 10 12  1  0
 10  2  1  0
 11 10  2  0
 13 12  1  0
 14 15  1  0
 13 14  1  6
 15 16  1  0
 16 17  2  0
 18 21  1  0
 18 13  1  0
 19 18  2  0
 20 16  1  0
 22 21  1  0
 22 30  1  0
 23 24  1  0
 22 23  1  1
 24 29  1  0
 25 24  2  0
 25 26  1  0
 26 27  2  0
 27 28  1  0
 29 28  2  0
 30 32  1  0
 31 30  2  0
M  END
$$$$
