PYH.pdb
     RDKit          3D

 30 32  0  0  1  0  0  0  0  0999 V2000
   25.3988  -15.7359  -17.1195 N   0  0  0  0  0  0  0  0  0  0  0  0
   26.8416  -16.0094  -17.2141 C   0  0  0  0  0  0  0  0  0  0  0  0
   27.2803  -15.6579  -15.8077 C   0  0  0  0  0  0  0  0  0  0  0  0
   26.0989  -16.0937  -14.9367 C   0  0  0  0  0  0  0  0  0  0  0  0
   25.0679  -16.5371  -15.9581 C   0  0  1  0  0  0  0  0  0  0  0  0
   23.6944  -16.2904  -15.4588 C   0  0  0  0  0  0  0  0  0  0  0  0
   23.3189  -16.7733  -14.3591 O   0  0  0  0  0  0  0  0  0  0  0  0
   23.0747  -11.5818  -20.9075 O   0  0  0  0  0  0  0  0  0  0  0  0
   22.6325  -12.0939  -19.6854 C   0  0  0  0  0  0  0  0  0  0  0  0
   21.3423  -12.5932  -19.5515 C   0  0  0  0  0  0  0  0  0  0  0  0
   20.9043  -13.0981  -18.3490 C   0  0  0  0  0  0  0  0  0  0  0  0
   21.7116  -13.1335  -17.2331 C   0  0  0  0  0  0  0  0  0  0  0  0
   21.2181  -13.6843  -15.9441 C   0  0  0  0  0  0  0  0  0  0  0  0
   21.5014  -15.1645  -15.8256 C   0  0  2  0  0  0  0  0  0  0  0  0
   22.8374  -15.5029  -16.2563 N   0  0  0  0  0  0  0  0  0  0  0  0
   20.4972  -15.8873  -16.6455 C   0  0  0  0  0  0  0  0  0  0  0  0
   20.8215  -16.2743  -17.7943 O   0  0  0  0  0  0  0  0  0  0  0  0
   22.9899  -12.6396  -17.3629 C   0  0  0  0  0  0  0  0  0  0  0  0
   23.4471  -12.1239  -18.5788 C   0  0  0  0  0  0  0  0  0  0  0  0
   19.1903  -16.1676  -16.2072 N   0  0  0  0  0  0  0  0  0  0  0  0
   18.1838  -16.8773  -16.9707 C   0  0  1  0  0  0  0  0  0  0  0  0
   18.5057  -18.3683  -17.0285 C   0  0  0  0  0  0  0  0  0  0  0  0
   19.4390  -18.5965  -18.1716 C   0  0  0  0  0  0  0  0  0  0  0  0
   19.8878  -17.7001  -19.1098 C   0  0  0  0  0  0  0  0  0  0  0  0
   20.7286  -18.3063  -19.9858 N   0  0  0  0  0  0  0  0  0  0  0  0
   20.7961  -19.5876  -19.5807 C   0  0  0  0  0  0  0  0  0  0  0  0
   20.0273  -19.7801  -18.4917 N   0  0  0  0  0  0  0  0  0  0  0  0
   16.8916  -16.7122  -16.2282 C   0  0  0  0  0  0  0  0  0  0  0  0
   15.7199  -17.2402  -16.7509 O   0  0  0  0  0  0  0  0  0  0  0  0
   16.8105  -16.1060  -15.1293 O   0  0  0  0  0  0  0  0  0  0  0  0
  1  5  1  0
  2  3  1  0
  2  1  1  0
  3  4  1  0
  4  5  1  0
  5  6  1  1
  6  7  2  0
  8  9  1  0
  9 10  2  0
  9 19  1  0
 10 11  1  0
 11 12  2  0
 12 13  1  0
 14 13  1  6
 14 16  1  0
 15  6  1  0
 15 14  1  0
 16 17  2  0
 18 12  1  0
 19 18  2  0
 20 21  1  0
 20 16  1  0
 21 28  1  0
 21 22  1  1
 23 24  2  0
 23 22  1  0
 25 24  1  0
 26 27  2  0
 26 25  1  0
 27 23  1  0
 28 30  2  0
 28 29  1  0
M  END
$$$$
