PYH.pdb
     RDKit          3D

 30 32  0  0  1  0  0  0  0  0999 V2000
   28.2921  -20.6928  -17.0479 N   0  0  0  0  0  0  0  0  0  0  0  0
   29.3087  -21.0000  -18.0665 C   0  0  0  0  0  0  0  0  0  0  0  0
   30.0897  -22.0858  -17.3558 C   0  0  0  0  0  0  0  0  0  0  0  0
   29.0235  -22.8388  -16.5556 C   0  0  0  0  0  0  0  0  0  0  0  0
   27.7691  -22.0228  -16.8074 C   0  0  1  0  0  0  0  0  0  0  0  0
   26.8601  -22.0830  -15.6382 C   0  0  0  0  0  0  0  0  0  0  0  0
   26.0559  -23.0416  -15.5040 O   0  0  0  0  0  0  0  0  0  0  0  0
   23.5240  -20.5717   -7.6606 O   0  0  0  0  0  0  0  0  0  0  0  0
   24.3069  -20.4986   -8.8151 C   0  0  0  0  0  0  0  0  0  0  0  0
   25.3484  -21.3952   -9.0230 C   0  0  0  0  0  0  0  0  0  0  0  0
   26.1210  -21.3254  -10.1593 C   0  0  0  0  0  0  0  0  0  0  0  0
   25.9038  -20.3764  -11.1341 C   0  0  0  0  0  0  0  0  0  0  0  0
   26.7501  -20.3198  -12.3543 C   0  0  0  0  0  0  0  0  0  0  0  0
   26.0887  -21.0122  -13.5241 C   0  0  2  0  0  0  0  0  0  0  0  0
   26.9329  -21.0360  -14.6953 N   0  0  0  0  0  0  0  0  0  0  0  0
   24.8205  -20.2990  -13.8176 C   0  0  0  0  0  0  0  0  0  0  0  0
   24.8724  -19.1942  -14.4102 O   0  0  0  0  0  0  0  0  0  0  0  0
   24.8730  -19.4871  -10.9307 C   0  0  0  0  0  0  0  0  0  0  0  0
   24.0808  -19.5472   -9.7809 C   0  0  0  0  0  0  0  0  0  0  0  0
   23.5506  -20.7928  -13.4675 N   0  0  0  0  0  0  0  0  0  0  0  0
   22.2878  -20.2898  -13.9694 C   0  0  1  0  0  0  0  0  0  0  0  0
   22.0681  -20.7345  -15.4130 C   0  0  0  0  0  0  0  0  0  0  0  0
   20.7848  -20.1391  -15.8908 C   0  0  0  0  0  0  0  0  0  0  0  0
   20.0837  -19.0766  -15.3764 C   0  0  0  0  0  0  0  0  0  0  0  0
   18.9602  -18.8489  -16.1029 N   0  0  0  0  0  0  0  0  0  0  0  0
   18.9725  -19.7815  -17.0728 C   0  0  0  0  0  0  0  0  0  0  0  0
   20.0618  -20.5656  -16.9608 N   0  0  0  0  0  0  0  0  0  0  0  0
   21.2162  -20.9132  -13.1259 C   0  0  0  0  0  0  0  0  0  0  0  0
   21.5451  -21.8936  -12.2010 O   0  0  0  0  0  0  0  0  0  0  0  0
   20.0048  -20.5869  -13.2136 O   0  0  0  0  0  0  0  0  0  0  0  0
  1  5  1  0
  2  3  1  0
  2  1  1  0
  3  4  1  0
  4  5  1  0
  5  6  1  1
  6  7  2  0
  8  9  1  0
  9 10  2  0
  9 19  1  0
 10 11  1  0
 11 12  2  0
 12 13  1  0
 14 13  1  1
 14 16  1  0
 15  6  1  0
 15 14  1  0
 16 17  2  0
 18 12  1  0
 19 18  2  0
 20 21  1  0
 20 16  1  0
 21 28  1  0
 21 22  1  6
 23 24  2  0
 23 22  1  0
 25 24  1  0
 26 27  2  0
 26 25  1  0
 27 23  1  0
 28 30  2  0
 28 29  1  0
M  END
$$$$
