PYH.pdb
     RDKit          3D

 30 32  0  0  1  0  0  0  0  0999 V2000
   32.5722  -28.3327  -20.0854 N   0  0  0  0  0  0  0  0  0  0  0  0
   33.8455  -27.8547  -20.6473 C   0  0  0  0  0  0  0  0  0  0  0  0
   34.8082  -28.8462  -20.0276 C   0  0  0  0  0  0  0  0  0  0  0  0
   34.0089  -30.1513  -19.9809 C   0  0  0  0  0  0  0  0  0  0  0  0
   32.6366  -29.7280  -20.4713 C   0  0  1  0  0  0  0  0  0  0  0  0
   31.5771  -30.5508  -19.8411 C   0  0  0  0  0  0  0  0  0  0  0  0
   31.5222  -31.7904  -20.0511 O   0  0  0  0  0  0  0  0  0  0  0  0
   25.7743  -33.3463  -13.9392 O   0  0  0  0  0  0  0  0  0  0  0  0
   26.6950  -32.5743  -14.6518 C   0  0  0  0  0  0  0  0  0  0  0  0
   26.3109  -31.3729  -15.2358 C   0  0  0  0  0  0  0  0  0  0  0  0
   27.2156  -30.6108  -15.9381 C   0  0  0  0  0  0  0  0  0  0  0  0
   28.5293  -30.9950  -16.0953 C   0  0  0  0  0  0  0  0  0  0  0  0
   29.4902  -30.1556  -16.8574 C   0  0  0  0  0  0  0  0  0  0  0  0
   29.6303  -30.6269  -18.2868 C   0  0  2  0  0  0  0  0  0  0  0  0
   30.6458  -29.8961  -19.0076 N   0  0  0  0  0  0  0  0  0  0  0  0
   28.3121  -30.4673  -18.9502 C   0  0  0  0  0  0  0  0  0  0  0  0
   27.9843  -29.3336  -19.3766 O   0  0  0  0  0  0  0  0  0  0  0  0
   28.9125  -32.1845  -15.5180 C   0  0  0  0  0  0  0  0  0  0  0  0
   28.0032  -32.9680  -14.8021 C   0  0  0  0  0  0  0  0  0  0  0  0
   27.3989  -31.5218  -19.1314 N   0  0  0  0  0  0  0  0  0  0  0  0
   26.1408  -31.4284  -19.8441 C   0  0  1  0  0  0  0  0  0  0  0  0
   25.4085  -32.7675  -19.8188 C   0  0  0  0  0  0  0  0  0  0  0  0
   24.2086  -32.6559  -20.7005 C   0  0  0  0  0  0  0  0  0  0  0  0
   22.9199  -32.3228  -20.3639 C   0  0  0  0  0  0  0  0  0  0  0  0
   22.1214  -32.3337  -21.4613 N   0  0  0  0  0  0  0  0  0  0  0  0
   22.9289  -32.6770  -22.4814 C   0  0  0  0  0  0  0  0  0  0  0  0
   24.1869  -32.8744  -22.0426 N   0  0  0  0  0  0  0  0  0  0  0  0
   25.3040  -30.4303  -19.1011 C   0  0  0  0  0  0  0  0  0  0  0  0
   24.5576  -29.4938  -19.8017 O   0  0  0  0  0  0  0  0  0  0  0  0
   25.2404  -30.3955  -17.8456 O   0  0  0  0  0  0  0  0  0  0  0  0
  1  5  1  0
  2  3  1  0
  2  1  1  0
  3  4  1  0
  4  5  1  0
  5  6  1  1
  6  7  2  0
  8  9  1  0
  9 10  2  0
  9 19  1  0
 10 11  1  0
 11 12  2  0
 12 13  1  0
 14 13  1  1
 14 16  1  0
 15  6  1  0
 15 14  1  0
 16 17  2  0
 18 12  1  0
 19 18  2  0
 20 21  1  0
 20 16  1  0
 21 28  1  0
 21 22  1  1
 23 24  2  0
 23 22  1  0
 25 24  1  0
 26 27  2  0
 26 25  1  0
 27 23  1  0
 28 30  2  0
 28 29  1  0
M  END
$$$$
