PYH.pdb
     RDKit          3D

 30 32  0  0  1  0  0  0  0  0999 V2000
   23.3684  -11.9401  -18.6165 N   0  0  0  0  0  0  0  0  0  0  0  0
   24.2313  -12.8919  -19.3342 C   0  0  0  0  0  0  0  0  0  0  0  0
   23.1902  -13.8438  -19.8858 C   0  0  0  0  0  0  0  0  0  0  0  0
   21.9961  -12.9380  -20.1988 C   0  0  0  0  0  0  0  0  0  0  0  0
   22.4486  -11.5860  -19.6790 C   0  0  1  0  0  0  0  0  0  0  0  0
   21.2912  -10.7935  -19.2004 C   0  0  0  0  0  0  0  0  0  0  0  0
   20.3192  -10.5586  -19.9643 O   0  0  0  0  0  0  0  0  0  0  0  0
   16.7876  -15.0439  -17.0119 O   0  0  0  0  0  0  0  0  0  0  0  0
   17.4965  -13.8648  -16.7698 C   0  0  0  0  0  0  0  0  0  0  0  0
   18.8020  -13.9078  -16.2947 C   0  0  0  0  0  0  0  0  0  0  0  0
   19.5024  -12.7481  -16.0555 C   0  0  0  0  0  0  0  0  0  0  0  0
   18.9523  -11.5036  -16.2720 C   0  0  0  0  0  0  0  0  0  0  0  0
   19.7276  -10.2636  -16.0076 C   0  0  0  0  0  0  0  0  0  0  0  0
   20.2033   -9.6197  -17.2899 C   0  0  2  0  0  0  0  0  0  0  0  0
   21.3240  -10.3201  -17.8717 N   0  0  0  0  0  0  0  0  0  0  0  0
   20.5760   -8.2160  -16.9835 C   0  0  0  0  0  0  0  0  0  0  0  0
   21.6229   -7.9990  -16.3267 O   0  0  0  0  0  0  0  0  0  0  0  0
   17.6595  -11.4582  -16.7424 C   0  0  0  0  0  0  0  0  0  0  0  0
   16.9371  -12.6288  -16.9895 C   0  0  0  0  0  0  0  0  0  0  0  0
   19.8179   -7.1028  -17.3896 N   0  0  0  0  0  0  0  0  0  0  0  0
   20.1152   -5.7222  -17.0653 C   0  0  1  0  0  0  0  0  0  0  0  0
   19.1980   -4.7791  -17.8394 C   0  0  0  0  0  0  0  0  0  0  0  0
   19.7194   -3.3893  -17.6769 C   0  0  0  0  0  0  0  0  0  0  0  0
   20.8966   -2.9718  -17.1069 C   0  0  0  0  0  0  0  0  0  0  0  0
   20.9977   -1.6192  -17.1558 N   0  0  0  0  0  0  0  0  0  0  0  0
   19.8708   -1.2031  -17.7620 C   0  0  0  0  0  0  0  0  0  0  0  0
   19.0908   -2.2534  -18.0822 N   0  0  0  0  0  0  0  0  0  0  0  0
   19.8219   -5.5558  -15.6042 C   0  0  0  0  0  0  0  0  0  0  0  0
   19.0939   -6.5248  -14.9290 O   0  0  0  0  0  0  0  0  0  0  0  0
   20.2103   -4.5603  -14.9410 O   0  0  0  0  0  0  0  0  0  0  0  0
  1  5  1  0
  2  3  1  0
  2  1  1  0
  3  4  1  0
  4  5  1  0
  5  6  1  1
  6  7  2  0
  8  9  1  0
  9 10  2  0
  9 19  1  0
 10 11  1  0
 11 12  2  0
 12 13  1  0
 14 13  1  1
 14 16  1  0
 15  6  1  0
 15 14  1  0
 16 17  2  0
 18 12  1  0
 19 18  2  0
 20 21  1  0
 20 16  1  0
 21 28  1  0
 21 22  1  6
 23 24  2  0
 23 22  1  0
 25 24  1  0
 26 27  2  0
 26 25  1  0
 27 23  1  0
 28 30  2  0
 28 29  1  0
M  END
$$$$
