PYH.pdb
     RDKit          3D

 30 32  0  0  1  0  0  0  0  0999 V2000
   27.8650  -21.0772  -16.8682 N   0  0  0  0  0  0  0  0  0  0  0  0
   28.9158  -21.3813  -17.8525 C   0  0  0  0  0  0  0  0  0  0  0  0
   29.6427  -22.5028  -17.1400 C   0  0  0  0  0  0  0  0  0  0  0  0
   28.5281  -23.2515  -16.4042 C   0  0  0  0  0  0  0  0  0  0  0  0
   27.3034  -22.4005  -16.6848 C   0  0  1  0  0  0  0  0  0  0  0  0
   26.3459  -22.4699  -15.5556 C   0  0  0  0  0  0  0  0  0  0  0  0
   25.7942  -23.5597  -15.2530 O   0  0  0  0  0  0  0  0  0  0  0  0
   22.4033  -20.7539   -7.9524 O   0  0  0  0  0  0  0  0  0  0  0  0
   23.2006  -20.6571   -9.0953 C   0  0  0  0  0  0  0  0  0  0  0  0
   24.4846  -21.1889   -9.1107 C   0  0  0  0  0  0  0  0  0  0  0  0
   25.2719  -21.0950  -10.2350 C   0  0  0  0  0  0  0  0  0  0  0  0
   24.8329  -20.4775  -11.3857 C   0  0  0  0  0  0  0  0  0  0  0  0
   25.6999  -20.3881  -12.5893 C   0  0  0  0  0  0  0  0  0  0  0  0
   25.1848  -21.2579  -13.7132 C   0  0  2  0  0  0  0  0  0  0  0  0
   26.0824  -21.2805  -14.8441 N   0  0  0  0  0  0  0  0  0  0  0  0
   23.8562  -20.7362  -14.1204 C   0  0  0  0  0  0  0  0  0  0  0  0
   23.7828  -19.5777  -14.5969 O   0  0  0  0  0  0  0  0  0  0  0  0
   23.5616  -19.9498  -11.3732 C   0  0  0  0  0  0  0  0  0  0  0  0
   22.7517  -20.0386  -10.2376 C   0  0  0  0  0  0  0  0  0  0  0  0
   22.6621  -21.4705  -14.0030 N   0  0  0  0  0  0  0  0  0  0  0  0
   21.3484  -21.0037  -14.3977 C   0  0  1  0  0  0  0  0  0  0  0  0
   20.7275  -21.9499  -15.4220 C   0  0  0  0  0  0  0  0  0  0  0  0
   21.0731  -21.4480  -16.7852 C   0  0  0  0  0  0  0  0  0  0  0  0
   21.8570  -22.0361  -17.7468 C   0  0  0  0  0  0  0  0  0  0  0  0
   21.9231  -21.2535  -18.8536 N   0  0  0  0  0  0  0  0  0  0  0  0
   21.1718  -20.1744  -18.5678 C   0  0  0  0  0  0  0  0  0  0  0  0
   20.6532  -20.2743  -17.3288 N   0  0  0  0  0  0  0  0  0  0  0  0
   20.4971  -21.0358  -13.1637 C   0  0  0  0  0  0  0  0  0  0  0  0
   19.3115  -20.3164  -13.1212 O   0  0  0  0  0  0  0  0  0  0  0  0
   20.8074  -21.6964  -12.1396 O   0  0  0  0  0  0  0  0  0  0  0  0
  1  5  1  0
  2  3  1  0
  2  1  1  0
  3  4  1  0
  4  5  1  0
  5  6  1  1
  6  7  2  0
  8  9  1  0
  9 10  2  0
  9 19  1  0
 10 11  1  0
 11 12  2  0
 12 13  1  0
 14 13  1  1
 14 16  1  0
 15  6  1  0
 15 14  1  0
 16 17  2  0
 18 12  1  0
 19 18  2  0
 20 21  1  0
 20 16  1  0
 21 28  1  0
 21 22  1  6
 23 24  2  0
 23 22  1  0
 25 24  1  0
 26 27  2  0
 26 25  1  0
 27 23  1  0
 28 30  2  0
 28 29  1  0
M  END
$$$$
