PYH.pdb
     RDKit          3D

 30 32  0  0  1  0  0  0  0  0999 V2000
   28.4276  -21.0699  -17.8310 N   0  0  0  0  0  0  0  0  0  0  0  0
   29.4628  -21.3698  -18.8328 C   0  0  0  0  0  0  0  0  0  0  0  0
   30.4462  -22.1505  -17.9858 C   0  0  0  0  0  0  0  0  0  0  0  0
   29.5548  -22.9243  -17.0107 C   0  0  0  0  0  0  0  0  0  0  0  0
   28.1658  -22.4058  -17.3341 C   0  0  1  0  0  0  0  0  0  0  0  0
   27.3076  -22.4145  -16.1257 C   0  0  0  0  0  0  0  0  0  0  0  0
   26.6318  -23.4341  -15.8304 O   0  0  0  0  0  0  0  0  0  0  0  0
   24.1262  -20.3376   -8.2229 O   0  0  0  0  0  0  0  0  0  0  0  0
   24.8580  -20.3288   -9.4128 C   0  0  0  0  0  0  0  0  0  0  0  0
   24.6351  -19.3505  -10.3746 C   0  0  0  0  0  0  0  0  0  0  0  0
   25.3545  -19.3395  -11.5472 C   0  0  0  0  0  0  0  0  0  0  0  0
   26.3183  -20.2847  -11.8228 C   0  0  0  0  0  0  0  0  0  0  0  0
   27.0843  -20.2534  -13.0959 C   0  0  0  0  0  0  0  0  0  0  0  0
   26.4754  -21.1665  -14.1354 C   0  0  2  0  0  0  0  0  0  0  0  0
   27.2803  -21.2488  -15.3313 N   0  0  0  0  0  0  0  0  0  0  0  0
   25.1225  -20.6491  -14.4596 C   0  0  0  0  0  0  0  0  0  0  0  0
   25.0178  -19.7051  -15.2796 O   0  0  0  0  0  0  0  0  0  0  0  0
   26.5410  -21.2549  -10.8720 C   0  0  0  0  0  0  0  0  0  0  0  0
   25.8171  -21.2772   -9.6767 C   0  0  0  0  0  0  0  0  0  0  0  0
   23.9384  -21.1590  -13.8968 N   0  0  0  0  0  0  0  0  0  0  0  0
   22.5998  -20.6884  -14.1907 C   0  0  1  0  0  0  0  0  0  0  0  0
   21.8865  -21.6530  -15.1345 C   0  0  0  0  0  0  0  0  0  0  0  0
   22.1424  -21.2043  -16.5355 C   0  0  0  0  0  0  0  0  0  0  0  0
   22.8570  -20.1175  -16.9752 C   0  0  0  0  0  0  0  0  0  0  0  0
   22.8520  -20.0593  -18.3311 N   0  0  0  0  0  0  0  0  0  0  0  0
   22.1268  -21.1214  -18.7269 C   0  0  0  0  0  0  0  0  0  0  0  0
   21.6923  -21.8208  -17.6610 N   0  0  0  0  0  0  0  0  0  0  0  0
   21.8560  -20.6813  -12.8887 C   0  0  0  0  0  0  0  0  0  0  0  0
   20.8480  -19.7530  -12.6718 O   0  0  0  0  0  0  0  0  0  0  0  0
   22.1025  -21.4920  -11.9594 O   0  0  0  0  0  0  0  0  0  0  0  0
  1  5  1  0
  2  3  1  0
  2  1  1  0
  3  4  1  0
  4  5  1  0
  5  6  1  1
  6  7  2  0
  8  9  1  0
  9 10  2  0
  9 19  1  0
 10 11  1  0
 11 12  2  0
 12 13  1  0
 14 13  1  1
 14 16  1  0
 15  6  1  0
 15 14  1  0
 16 17  2  0
 18 12  1  0
 19 18  2  0
 20 21  1  0
 20 16  1  0
 21 28  1  0
 21 22  1  6
 23 24  2  0
 23 22  1  0
 25 24  1  0
 26 27  2  0
 26 25  1  0
 27 23  1  0
 28 30  2  0
 28 29  1  0
M  END
$$$$
