PYH.pdb
     RDKit          3D

 30 32  0  0  1  0  0  0  0  0999 V2000
   31.2257   -9.6235  -21.7593 N   0  0  0  0  0  0  0  0  0  0  0  0
   31.6003   -8.8560  -22.9577 C   0  0  0  0  0  0  0  0  0  0  0  0
   30.8137   -9.5999  -24.0169 C   0  0  0  0  0  0  0  0  0  0  0  0
   29.5304  -10.0170  -23.2935 C   0  0  0  0  0  0  0  0  0  0  0  0
   29.7817   -9.5658  -21.8665 C   0  0  1  0  0  0  0  0  0  0  0  0
   29.0951  -10.4602  -20.9045 C   0  0  0  0  0  0  0  0  0  0  0  0
   29.1414  -11.7093  -21.0498 O   0  0  0  0  0  0  0  0  0  0  0  0
   33.9000  -11.3310  -17.1234 O   0  0  0  0  0  0  0  0  0  0  0  0
   32.5281  -11.0791  -17.2000 C   0  0  0  0  0  0  0  0  0  0  0  0
   31.6144  -12.1264  -17.2034 C   0  0  0  0  0  0  0  0  0  0  0  0
   30.2628  -11.8811  -17.2786 C   0  0  0  0  0  0  0  0  0  0  0  0
   29.7546  -10.6026  -17.3533 C   0  0  0  0  0  0  0  0  0  0  0  0
   28.2906  -10.3605  -17.4329 C   0  0  0  0  0  0  0  0  0  0  0  0
   27.7514  -10.6537  -18.8144 C   0  0  2  0  0  0  0  0  0  0  0  0
   28.3975   -9.8615  -19.8342 N   0  0  0  0  0  0  0  0  0  0  0  0
   26.2919  -10.3841  -18.8003 C   0  0  0  0  0  0  0  0  0  0  0  0
   25.8816   -9.2621  -19.1842 O   0  0  0  0  0  0  0  0  0  0  0  0
   30.6573   -9.5635  -17.3502 C   0  0  0  0  0  0  0  0  0  0  0  0
   32.0328   -9.7992  -17.2742 C   0  0  0  0  0  0  0  0  0  0  0  0
   25.3312  -11.3208  -18.3778 N   0  0  0  0  0  0  0  0  0  0  0  0
   23.8989  -11.1912  -18.5553 C   0  0  1  0  0  0  0  0  0  0  0  0
   23.5509  -11.0602  -20.0357 C   0  0  0  0  0  0  0  0  0  0  0  0
   22.0722  -10.8871  -20.1502 C   0  0  0  0  0  0  0  0  0  0  0  0
   21.1660  -10.5502  -19.1753 C   0  0  0  0  0  0  0  0  0  0  0  0
   19.9107  -10.4955  -19.6882 N   0  0  0  0  0  0  0  0  0  0  0  0
   20.0485  -10.8019  -20.9911 C   0  0  0  0  0  0  0  0  0  0  0  0
   21.3408  -11.0402  -21.2865 N   0  0  0  0  0  0  0  0  0  0  0  0
   23.2906  -12.4647  -18.0488 C   0  0  0  0  0  0  0  0  0  0  0  0
   23.9691  -13.6653  -18.2014 O   0  0  0  0  0  0  0  0  0  0  0  0
   22.1704  -12.5043  -17.4784 O   0  0  0  0  0  0  0  0  0  0  0  0
  1  5  1  0
  2  3  1  0
  2  1  1  0
  3  4  1  0
  4  5  1  0
  5  6  1  1
  6  7  2  0
  8  9  1  0
  9 10  2  0
  9 19  1  0
 10 11  1  0
 11 12  2  0
 12 13  1  0
 14 13  1  1
 14 16  1  0
 15  6  1  0
 15 14  1  0
 16 17  2  0
 18 12  1  0
 19 18  2  0
 20 21  1  0
 20 16  1  0
 21 28  1  0
 21 22  1  6
 23 24  2  0
 23 22  1  0
 25 24  1  0
 26 27  2  0
 26 25  1  0
 27 23  1  0
 28 30  2  0
 28 29  1  0
M  END
$$$$
