PYH.pdb
     RDKit          3D

 30 32  0  0  1  0  0  0  0  0999 V2000
   23.3846  -12.2726  -19.4212 N   0  0  0  0  0  0  0  0  0  0  0  0
   23.3317  -13.5989  -20.0565 C   0  0  0  0  0  0  0  0  0  0  0  0
   23.8452  -14.4655  -18.9254 C   0  0  0  0  0  0  0  0  0  0  0  0
   23.2943  -13.7887  -17.6674 C   0  0  0  0  0  0  0  0  0  0  0  0
   22.6258  -12.5419  -18.2163 C   0  0  1  0  0  0  0  0  0  0  0  0
   22.6915  -11.4347  -17.2331 C   0  0  0  0  0  0  0  0  0  0  0  0
   22.2611  -11.5955  -16.0615 O   0  0  0  0  0  0  0  0  0  0  0  0
   28.9392  -12.2076  -16.0329 O   0  0  0  0  0  0  0  0  0  0  0  0
   27.9142  -11.2836  -16.2497 C   0  0  0  0  0  0  0  0  0  0  0  0
   27.1452  -10.8169  -15.1901 C   0  0  0  0  0  0  0  0  0  0  0  0
   26.1353   -9.9068  -15.4008 C   0  0  0  0  0  0  0  0  0  0  0  0
   25.8399   -9.4194  -16.6551 C   0  0  0  0  0  0  0  0  0  0  0  0
   24.7448   -8.4358  -16.8597 C   0  0  0  0  0  0  0  0  0  0  0  0
   23.3845   -9.0877  -16.7614 C   0  0  2  0  0  0  0  0  0  0  0  0
   23.2488  -10.2106  -17.6590 N   0  0  0  0  0  0  0  0  0  0  0  0
   22.3621   -8.0564  -17.0684 C   0  0  0  0  0  0  0  0  0  0  0  0
   22.0713   -7.8331  -18.2684 O   0  0  0  0  0  0  0  0  0  0  0  0
   26.5999   -9.8801  -17.7063 C   0  0  0  0  0  0  0  0  0  0  0  0
   27.6287  -10.8045  -17.5058 C   0  0  0  0  0  0  0  0  0  0  0  0
   21.6927   -7.3065  -16.0843 N   0  0  0  0  0  0  0  0  0  0  0  0
   20.6448   -6.3381  -16.3363 C   0  0  1  0  0  0  0  0  0  0  0  0
   19.2932   -6.8771  -15.8754 C   0  0  0  0  0  0  0  0  0  0  0  0
   18.7833   -7.8081  -16.9257 C   0  0  0  0  0  0  0  0  0  0  0  0
   19.3160   -8.0901  -18.1593 C   0  0  0  0  0  0  0  0  0  0  0  0
   18.5469   -8.9949  -18.8163 N   0  0  0  0  0  0  0  0  0  0  0  0
   17.5320   -9.2705  -17.9768 C   0  0  0  0  0  0  0  0  0  0  0  0
   17.6579   -8.5663  -16.8357 N   0  0  0  0  0  0  0  0  0  0  0  0
   20.9697   -5.1335  -15.5045 C   0  0  0  0  0  0  0  0  0  0  0  0
   20.1954   -3.9874  -15.6129 O   0  0  0  0  0  0  0  0  0  0  0  0
   21.9302   -5.1054  -14.6931 O   0  0  0  0  0  0  0  0  0  0  0  0
  1  5  1  0
  2  3  1  0
  2  1  1  0
  3  4  1  0
  4  5  1  0
  5  6  1  1
  6  7  2  0
  8  9  1  0
  9 10  2  0
  9 19  1  0
 10 11  1  0
 11 12  2  0
 12 13  1  0
 14 13  1  6
 14 16  1  0
 15  6  1  0
 15 14  1  0
 16 17  2  0
 18 12  1  0
 19 18  2  0
 20 21  1  0
 20 16  1  0
 21 28  1  0
 21 22  1  1
 23 24  2  0
 23 22  1  0
 25 24  1  0
 26 27  2  0
 26 25  1  0
 27 23  1  0
 28 30  2  0
 28 29  1  0
M  END
$$$$
