TTE.pdb
     RDKit          3D

 24 23  0  0  1  0  0  0  0  0999 V2000
   17.2366   -8.2686  -17.6355 C   0  0  0  0  0  0  0  0  0  0  0  0
   16.3332   -9.2324  -16.8791 C   0  0  1  0  0  0  0  0  0  0  0  0
   15.3066   -9.6956  -17.6675 O   0  0  0  0  0  0  0  0  0  0  0  0
   17.1959  -10.3301  -16.3020 C   0  0  2  0  0  0  0  0  0  0  0  0
   16.3299  -11.2469  -15.5891 N   0  0  0  0  0  0  0  0  0  0  0  0
   18.2256   -9.8239  -15.3860 C   0  0  0  0  0  0  0  0  0  0  0  0
   17.9046   -9.4581  -14.2286 O   0  0  0  0  0  0  0  0  0  0  0  0
   23.0076   -9.2921  -14.2099 C   0  0  0  0  0  0  0  0  0  0  0  0
   21.8590   -9.9508  -14.9687 C   0  0  1  0  0  0  0  0  0  0  0  0
   21.6124  -11.2340  -14.4873 O   0  0  0  0  0  0  0  0  0  0  0  0
   20.5997   -9.0938  -14.8996 C   0  0  2  0  0  0  0  0  0  0  0  0
   19.6025   -9.7139  -15.7228 N   0  0  0  0  0  0  0  0  0  0  0  0
   20.9681   -7.7375  -15.3588 C   0  0  0  0  0  0  0  0  0  0  0  0
   21.3980   -7.6003  -16.5246 O   0  0  0  0  0  0  0  0  0  0  0  0
   20.8447   -6.6253  -14.5224 N   0  0  0  0  0  0  0  0  0  0  0  0
   21.2078   -5.2704  -14.8854 C   0  0  1  0  0  0  0  0  0  0  0  0
   20.0459   -4.3640  -14.5532 C   0  0  0  0  0  0  0  0  0  0  0  0
   18.8765   -4.4933  -15.4623 C   0  0  0  0  0  0  0  0  0  0  0  0
   17.7170   -3.6637  -15.1346 C   0  0  0  0  0  0  0  0  0  0  0  0
   17.6974   -2.9165  -14.1322 O   0  0  0  0  0  0  0  0  0  0  0  0
   22.3550   -4.7940  -14.0282 C   0  0  0  0  0  0  0  0  0  0  0  0
   22.7062   -5.3817  -12.9995 O   0  0  0  0  0  0  0  0  0  0  0  0
   16.6089   -3.7053  -15.9562 O   0  0  0  0  0  0  0  0  0  0  0  0
   23.0375   -3.6490  -14.4182 O   0  0  0  0  0  0  0  0  0  0  0  0
  2  1  1  6
  2  3  1  0
  4  5  1  1
  4  2  1  0
  4  6  1  0
  6  7  2  0
  9  8  1  1
  9 11  1  0
 10  9  1  0
 11 13  1  0
 12  6  1  0
 11 12  1  6
 13 15  1  0
 13 14  2  0
 15 16  1  0
 16 21  1  0
 16 17  1  1
 18 19  1  0
 18 17  1  0
 19 20  2  0
 21 22  2  0
 21 24  1  0
 23 19  1  0
M  END
$$$$
