TTE.pdb
     RDKit          3D

 24 23  0  0  1  0  0  0  0  0999 V2000
   12.2438  -10.3170  -10.6985 C   0  0  0  0  0  0  0  0  0  0  0  0
   12.7267  -11.7533  -10.5536 C   0  0  1  0  0  0  0  0  0  0  0  0
   11.6793  -12.6325  -10.4127 O   0  0  0  0  0  0  0  0  0  0  0  0
   13.6266  -12.0668  -11.7258 C   0  0  2  0  0  0  0  0  0  0  0  0
   14.0940  -13.4297  -11.5747 N   0  0  0  0  0  0  0  0  0  0  0  0
   14.7817  -11.1650  -11.8151 C   0  0  0  0  0  0  0  0  0  0  0  0
   15.6336  -11.1506  -10.8929 O   0  0  0  0  0  0  0  0  0  0  0  0
   17.5663  -11.1615  -14.0518 C   0  0  0  0  0  0  0  0  0  0  0  0
   16.9354   -9.7843  -14.2373 C   0  0  1  0  0  0  0  0  0  0  0  0
   16.1418   -9.7477  -15.3809 O   0  0  0  0  0  0  0  0  0  0  0  0
   16.1310   -9.3847  -13.0051 C   0  0  2  0  0  0  0  0  0  0  0  0
   15.0146  -10.2790  -12.9023 N   0  0  0  0  0  0  0  0  0  0  0  0
   15.7278   -7.9736  -13.1849 C   0  0  0  0  0  0  0  0  0  0  0  0
   14.5214   -7.7214  -13.3940 O   0  0  0  0  0  0  0  0  0  0  0  0
   16.6603   -6.9350  -13.1255 N   0  0  0  0  0  0  0  0  0  0  0  0
   16.3518   -5.5318  -13.3128 C   0  0  1  0  0  0  0  0  0  0  0  0
   15.6256   -5.0389  -12.0833 C   0  0  0  0  0  0  0  0  0  0  0  0
   16.4307   -5.0636  -10.8336 C   0  0  0  0  0  0  0  0  0  0  0  0
   15.8407   -4.3859   -9.6792 C   0  0  0  0  0  0  0  0  0  0  0  0
   16.3721   -4.4176   -8.5478 O   0  0  0  0  0  0  0  0  0  0  0  0
   17.6261   -4.7261  -13.3845 C   0  0  0  0  0  0  0  0  0  0  0  0
   18.7261   -5.1906  -13.0668 O   0  0  0  0  0  0  0  0  0  0  0  0
   14.6606   -3.6891   -9.8416 O   0  0  0  0  0  0  0  0  0  0  0  0
   17.5501   -3.4115  -13.8260 O   0  0  0  0  0  0  0  0  0  0  0  0
  2  1  1  6
  2  3  1  0
  4  5  1  1
  4  2  1  0
  4  6  1  0
  6  7  2  0
  9  8  1  1
  9 11  1  0
 10  9  1  0
 11 13  1  0
 12  6  1  0
 11 12  1  6
 13 15  1  0
 13 14  2  0
 15 16  1  0
 16 21  1  0
 16 17  1  1
 18 19  1  0
 18 17  1  0
 19 20  2  0
 21 22  2  0
 21 24  1  0
 23 19  1  0
M  END
$$$$
