TTE.pdb
     RDKit          3D

 24 23  0  0  1  0  0  0  0  0999 V2000
   23.5565  -10.9546  -15.9574 C   0  0  0  0  0  0  0  0  0  0  0  0
   22.7420  -11.6843  -17.0164 C   0  0  1  0  0  0  0  0  0  0  0  0
   23.3015  -12.8961  -17.3458 O   0  0  0  0  0  0  0  0  0  0  0  0
   21.3177  -11.7891  -16.5240 C   0  0  2  0  0  0  0  0  0  0  0  0
   20.5498  -12.4906  -17.5323 N   0  0  0  0  0  0  0  0  0  0  0  0
   20.7040  -10.4795  -16.2709 C   0  0  0  0  0  0  0  0  0  0  0  0
   20.4980   -9.6928  -17.2275 O   0  0  0  0  0  0  0  0  0  0  0  0
   19.5087   -9.5051  -12.3345 C   0  0  0  0  0  0  0  0  0  0  0  0
   18.8465   -8.8201  -13.5267 C   0  0  1  0  0  0  0  0  0  0  0  0
   18.3496   -7.5686  -13.1719 O   0  0  0  0  0  0  0  0  0  0  0  0
   19.8176   -8.7069  -14.6968 C   0  0  2  0  0  0  0  0  0  0  0  0
   20.3136  -10.0217  -14.9828 N   0  0  0  0  0  0  0  0  0  0  0  0
   20.8809   -7.7623  -14.2926 C   0  0  0  0  0  0  0  0  0  0  0  0
   21.8877   -8.2151  -13.7059 O   0  0  0  0  0  0  0  0  0  0  0  0
   20.7784   -6.3935  -14.5527 N   0  0  0  0  0  0  0  0  0  0  0  0
   21.8560   -5.4372  -14.3988 C   0  0  1  0  0  0  0  0  0  0  0  0
   21.9843   -4.6577  -15.6864 C   0  0  0  0  0  0  0  0  0  0  0  0
   23.0927   -3.6669  -15.7059 C   0  0  0  0  0  0  0  0  0  0  0  0
   23.2426   -2.8992  -16.9420 C   0  0  0  0  0  0  0  0  0  0  0  0
   24.1122   -2.0099  -17.0699 O   0  0  0  0  0  0  0  0  0  0  0  0
   21.5003   -4.4215  -13.3406 C   0  0  0  0  0  0  0  0  0  0  0  0
   22.3417   -3.6842  -12.8161 O   0  0  0  0  0  0  0  0  0  0  0  0
   22.3987   -3.1629  -18.0018 O   0  0  0  0  0  0  0  0  0  0  0  0
   20.1725   -4.3180  -12.9469 O   0  0  0  0  0  0  0  0  0  0  0  0
  2  1  1  1
  2  3  1  0
  4  5  1  6
  4  2  1  0
  4  6  1  0
  6  7  2  0
  9  8  1  1
  9 11  1  0
 10  9  1  0
 11 13  1  0
 12  6  1  0
 11 12  1  1
 13 15  1  0
 13 14  2  0
 15 16  1  0
 16 21  1  0
 16 17  1  6
 18 19  1  0
 18 17  1  0
 19 20  2  0
 21 22  2  0
 21 24  1  0
 23 19  1  0
M  END
$$$$
