TTE.pdb
     RDKit          3D

 24 23  0  0  1  0  0  0  0  0999 V2000
   19.5228  -13.2830  -19.7487 C   0  0  0  0  0  0  0  0  0  0  0  0
   19.7004  -12.3278  -18.5768 C   0  0  1  0  0  0  0  0  0  0  0  0
   18.6376  -12.3841  -17.7065 O   0  0  0  0  0  0  0  0  0  0  0  0
   21.0314  -12.6241  -17.9267 C   0  0  2  0  0  0  0  0  0  0  0  0
   20.9775  -13.9722  -17.3991 N   0  0  0  0  0  0  0  0  0  0  0  0
   21.3560  -11.6909  -16.8407 C   0  0  0  0  0  0  0  0  0  0  0  0
   20.7312  -11.7584  -15.7537 O   0  0  0  0  0  0  0  0  0  0  0  0
   24.7444  -11.1551  -15.3235 C   0  0  0  0  0  0  0  0  0  0  0  0
   24.2312   -9.7835  -15.7527 C   0  0  1  0  0  0  0  0  0  0  0  0
   24.8222   -9.3796  -16.9471 O   0  0  0  0  0  0  0  0  0  0  0  0
   22.7111   -9.7851  -15.8725 C   0  0  2  0  0  0  0  0  0  0  0  0
   22.3565  -10.6849  -16.9314 N   0  0  0  0  0  0  0  0  0  0  0  0
   22.2915   -8.3913  -16.1322 C   0  0  0  0  0  0  0  0  0  0  0  0
   21.8259   -8.1100  -17.2578 O   0  0  0  0  0  0  0  0  0  0  0  0
   22.4059   -7.4005  -15.1540 N   0  0  0  0  0  0  0  0  0  0  0  0
   21.9120   -6.0447  -15.2852 C   0  0  1  0  0  0  0  0  0  0  0  0
   20.4042   -6.0957  -15.3617 C   0  0  0  0  0  0  0  0  0  0  0  0
   19.7380   -4.7670  -15.3988 C   0  0  0  0  0  0  0  0  0  0  0  0
   18.2757   -4.7857  -15.4359 C   0  0  0  0  0  0  0  0  0  0  0  0
   17.5861   -3.9096  -14.8699 O   0  0  0  0  0  0  0  0  0  0  0  0
   22.2308   -5.2542  -14.0396 C   0  0  0  0  0  0  0  0  0  0  0  0
   22.3989   -5.7874  -12.9377 O   0  0  0  0  0  0  0  0  0  0  0  0
   17.6350   -5.8011  -16.1164 O   0  0  0  0  0  0  0  0  0  0  0  0
   22.3377   -3.8735  -14.1451 O   0  0  0  0  0  0  0  0  0  0  0  0
  2  1  1  6
  2  3  1  0
  4  5  1  1
  4  2  1  0
  4  6  1  0
  6  7  2  0
  9  8  1  6
  9 11  1  0
 10  9  1  0
 11 13  1  0
 12  6  1  0
 11 12  1  6
 13 15  1  0
 13 14  2  0
 15 16  1  0
 16 21  1  0
 16 17  1  1
 18 19  1  0
 18 17  1  0
 19 20  2  0
 21 22  2  0
 21 24  1  0
 23 19  1  0
M  END
$$$$
