TTE.pdb
     RDKit          3D

 24 23  0  0  1  0  0  0  0  0999 V2000
   17.7221  -10.1603  -17.4220 C   0  0  0  0  0  0  0  0  0  0  0  0
   17.7668  -11.3556  -16.4804 C   0  0  1  0  0  0  0  0  0  0  0  0
   16.9361  -12.3675  -16.8998 O   0  0  0  0  0  0  0  0  0  0  0  0
   19.2087  -11.7801  -16.3283 C   0  0  2  0  0  0  0  0  0  0  0  0
   19.2360  -12.9729  -15.5067 N   0  0  0  0  0  0  0  0  0  0  0  0
   20.0455  -10.7450  -15.7087 C   0  0  0  0  0  0  0  0  0  0  0  0
   19.7510  -10.3046  -14.5704 O   0  0  0  0  0  0  0  0  0  0  0  0
   23.9791  -10.6525  -15.4085 C   0  0  0  0  0  0  0  0  0  0  0  0
   23.4552   -9.4140  -16.1301 C   0  0  1  0  0  0  0  0  0  0  0  0
   23.5962   -9.5418  -17.5095 O   0  0  0  0  0  0  0  0  0  0  0  0
   22.0026   -9.1407  -15.7558 C   0  0  2  0  0  0  0  0  0  0  0  0
   21.2007  -10.1867  -16.3211 N   0  0  0  0  0  0  0  0  0  0  0  0
   21.6605   -7.8013  -16.2803 C   0  0  0  0  0  0  0  0  0  0  0  0
   21.2693   -7.7077  -17.4639 O   0  0  0  0  0  0  0  0  0  0  0  0
   21.7663   -6.6574  -15.4852 N   0  0  0  0  0  0  0  0  0  0  0  0
   21.5132   -5.3052  -15.9397 C   0  0  1  0  0  0  0  0  0  0  0  0
   20.2057   -4.8419  -15.3416 C   0  0  0  0  0  0  0  0  0  0  0  0
   19.8083   -3.4577  -15.7115 C   0  0  0  0  0  0  0  0  0  0  0  0
   18.5205   -3.0010  -15.1892 C   0  0  0  0  0  0  0  0  0  0  0  0
   18.4217   -2.4056  -14.0940 O   0  0  0  0  0  0  0  0  0  0  0  0
   22.5652   -4.3699  -15.3951 C   0  0  0  0  0  0  0  0  0  0  0  0
   22.8120   -3.2738  -15.9094 O   0  0  0  0  0  0  0  0  0  0  0  0
   17.3772   -3.2333  -15.9265 O   0  0  0  0  0  0  0  0  0  0  0  0
   23.2793   -4.7647  -14.2713 O   0  0  0  0  0  0  0  0  0  0  0  0
  2  1  1  6
  2  3  1  0
  4  5  1  1
  4  2  1  0
  4  6  1  0
  6  7  2  0
  9  8  1  1
  9 11  1  0
 10  9  1  0
 11 13  1  0
 12  6  1  0
 11 12  1  6
 13 15  1  0
 13 14  2  0
 15 16  1  0
 16 21  1  0
 16 17  1  1
 18 19  1  0
 18 17  1  0
 19 20  2  0
 21 22  2  0
 21 24  1  0
 23 19  1  0
M  END
$$$$
