TTE.pdb
     RDKit          3D

 24 23  0  0  1  0  0  0  0  0999 V2000
   24.2299  -11.5124  -15.7393 C   0  0  0  0  0  0  0  0  0  0  0  0
   23.5554  -12.4851  -16.6964 C   0  0  1  0  0  0  0  0  0  0  0  0
   24.2188  -13.6879  -16.7538 O   0  0  0  0  0  0  0  0  0  0  0  0
   22.1054  -12.6124  -16.2922 C   0  0  2  0  0  0  0  0  0  0  0  0
   21.4895  -13.6011  -17.1534 N   0  0  0  0  0  0  0  0  0  0  0  0
   21.3693  -11.3468  -16.4029 C   0  0  0  0  0  0  0  0  0  0  0  0
   21.1922  -10.8258  -17.5315 O   0  0  0  0  0  0  0  0  0  0  0  0
   17.9138  -10.6118  -15.5269 C   0  0  0  0  0  0  0  0  0  0  0  0
   18.7451   -9.6077  -14.7333 C   0  0  1  0  0  0  0  0  0  0  0  0
   18.8771  -10.0063  -13.4056 O   0  0  0  0  0  0  0  0  0  0  0  0
   20.1120   -9.4042  -15.3775 C   0  0  2  0  0  0  0  0  0  0  0  0
   20.8252  -10.6455  -15.2924 N   0  0  0  0  0  0  0  0  0  0  0  0
   20.7784   -8.3026  -14.6506 C   0  0  0  0  0  0  0  0  0  0  0  0
   21.7755   -8.5718  -13.9462 O   0  0  0  0  0  0  0  0  0  0  0  0
   20.3174   -6.9867  -14.7380 N   0  0  0  0  0  0  0  0  0  0  0  0
   20.9824   -5.8350  -14.1628 C   0  0  1  0  0  0  0  0  0  0  0  0
   22.2000   -5.5242  -15.0010 C   0  0  0  0  0  0  0  0  0  0  0  0
   21.9029   -5.0762  -16.3873 C   0  0  0  0  0  0  0  0  0  0  0  0
   23.0454   -4.5900  -17.1609 C   0  0  0  0  0  0  0  0  0  0  0  0
   24.0869   -4.1677  -16.6127 O   0  0  0  0  0  0  0  0  0  0  0  0
   20.0946   -4.6188  -14.2660 C   0  0  0  0  0  0  0  0  0  0  0  0
   20.3389   -3.5639  -13.6709 O   0  0  0  0  0  0  0  0  0  0  0  0
   22.9738   -4.5966  -18.5391 O   0  0  0  0  0  0  0  0  0  0  0  0
   18.9603   -4.6972  -15.0635 O   0  0  0  0  0  0  0  0  0  0  0  0
  2  1  1  1
  2  3  1  0
  4  5  1  6
  4  2  1  0
  4  6  1  0
  6  7  2  0
  9  8  1  6
  9 11  1  0
 10  9  1  0
 11 13  1  0
 12  6  1  0
 11 12  1  1
 13 15  1  0
 13 14  2  0
 15 16  1  0
 16 21  1  0
 16 17  1  6
 18 19  1  0
 18 17  1  0
 19 20  2  0
 21 22  2  0
 21 24  1  0
 23 19  1  0
M  END
$$$$
