TTE.pdb
     RDKit          3D

 24 23  0  0  1  0  0  0  0  0999 V2000
   18.0939  -11.7581  -14.5905 C   0  0  0  0  0  0  0  0  0  0  0  0
   16.6140  -12.0895  -14.7216 C   0  0  1  0  0  0  0  0  0  0  0  0
   16.4035  -13.4412  -14.8585 O   0  0  0  0  0  0  0  0  0  0  0  0
   15.8901  -11.4806  -13.5437 C   0  0  2  0  0  0  0  0  0  0  0  0
   14.4739  -11.7340  -13.7135 N   0  0  0  0  0  0  0  0  0  0  0  0
   16.1130  -10.0344  -13.4230 C   0  0  0  0  0  0  0  0  0  0  0  0
   15.6811   -9.2611  -14.3129 O   0  0  0  0  0  0  0  0  0  0  0  0
   17.0441   -8.4825   -9.7668 C   0  0  0  0  0  0  0  0  0  0  0  0
   16.5892   -7.5435  -10.8805 C   0  0  1  0  0  0  0  0  0  0  0  0
   17.0027   -6.2370  -10.6331 O   0  0  0  0  0  0  0  0  0  0  0  0
   17.0930   -8.0248  -12.2368 C   0  0  2  0  0  0  0  0  0  0  0  0
   16.8033   -9.4255  -12.3395 N   0  0  0  0  0  0  0  0  0  0  0  0
   18.5400   -7.7270  -12.2965 C   0  0  0  0  0  0  0  0  0  0  0  0
   19.3235   -8.4480  -11.6414 O   0  0  0  0  0  0  0  0  0  0  0  0
   19.0363   -6.6688  -13.0619 N   0  0  0  0  0  0  0  0  0  0  0  0
   20.4408   -6.3573  -13.2343 C   0  0  1  0  0  0  0  0  0  0  0  0
   20.8655   -6.8298  -14.6048 C   0  0  0  0  0  0  0  0  0  0  0  0
   22.3041   -6.6209  -14.9165 C   0  0  0  0  0  0  0  0  0  0  0  0
   22.7558   -7.1190  -16.2157 C   0  0  0  0  0  0  0  0  0  0  0  0
   23.8730   -6.8184  -16.6900 O   0  0  0  0  0  0  0  0  0  0  0  0
   20.6433   -4.8617  -13.2374 C   0  0  0  0  0  0  0  0  0  0  0  0
   19.7155   -4.0647  -13.4130 O   0  0  0  0  0  0  0  0  0  0  0  0
   21.9245   -7.9467  -16.9426 O   0  0  0  0  0  0  0  0  0  0  0  0
   21.9263   -4.3703  -13.0342 O   0  0  0  0  0  0  0  0  0  0  0  0
  2  1  1  1
  2  3  1  0
  4  5  1  6
  4  2  1  0
  4  6  1  0
  6  7  2  0
  9  8  1  1
  9 11  1  0
 10  9  1  0
 11 13  1  0
 12  6  1  0
 11 12  1  1
 13 15  1  0
 13 14  2  0
 15 16  1  0
 16 21  1  0
 16 17  1  6
 18 19  1  0
 18 17  1  0
 19 20  2  0
 21 22  2  0
 21 24  1  0
 23 19  1  0
M  END
$$$$
