TTE.pdb
     RDKit          3D

 24 23  0  0  1  0  0  0  0  0999 V2000
   19.0855  -14.5589  -15.3678 C   0  0  0  0  0  0  0  0  0  0  0  0
   18.6682  -15.0221  -16.7565 C   0  0  1  0  0  0  0  0  0  0  0  0
   18.4761  -16.3825  -16.8049 O   0  0  0  0  0  0  0  0  0  0  0  0
   17.4546  -14.2244  -17.1727 C   0  0  2  0  0  0  0  0  0  0  0  0
   17.0310  -14.7058  -18.4717 N   0  0  0  0  0  0  0  0  0  0  0  0
   17.7200  -12.7825  -17.2526 C   0  0  0  0  0  0  0  0  0  0  0  0
   18.5563  -12.3481  -18.0823 O   0  0  0  0  0  0  0  0  0  0  0  0
   15.3772   -9.8851  -17.9039 C   0  0  0  0  0  0  0  0  0  0  0  0
   16.0359   -9.6635  -16.5452 C   0  0  1  0  0  0  0  0  0  0  0  0
   15.1863  -10.0441  -15.5095 O   0  0  0  0  0  0  0  0  0  0  0  0
   17.3648  -10.4060  -16.4578 C   0  0  2  0  0  0  0  0  0  0  0  0
   17.0803  -11.8114  -16.4348 N   0  0  0  0  0  0  0  0  0  0  0  0
   18.0500   -9.9338  -15.2356 C   0  0  0  0  0  0  0  0  0  0  0  0
   17.8694  -10.5640  -14.1711 O   0  0  0  0  0  0  0  0  0  0  0  0
   18.8826   -8.8121  -15.2530 N   0  0  0  0  0  0  0  0  0  0  0  0
   19.6511   -8.3323  -14.1223 C   0  0  1  0  0  0  0  0  0  0  0  0
   20.5118   -7.1821  -14.5891 C   0  0  0  0  0  0  0  0  0  0  0  0
   21.4167   -6.6210  -13.5513 C   0  0  0  0  0  0  0  0  0  0  0  0
   22.2538   -5.4976  -13.9722 C   0  0  0  0  0  0  0  0  0  0  0  0
   22.5934   -4.5901  -13.1819 O   0  0  0  0  0  0  0  0  0  0  0  0
   18.7290   -7.7539  -13.0768 C   0  0  0  0  0  0  0  0  0  0  0  0
   17.6997   -7.1346  -13.3664 O   0  0  0  0  0  0  0  0  0  0  0  0
   22.6833   -5.4352  -15.2823 O   0  0  0  0  0  0  0  0  0  0  0  0
   19.0578   -7.9292  -11.7389 O   0  0  0  0  0  0  0  0  0  0  0  0
  2  1  1  1
  2  3  1  0
  4  5  1  6
  4  2  1  0
  4  6  1  0
  6  7  2  0
  9  8  1  6
  9 11  1  0
 10  9  1  0
 11 13  1  0
 12  6  1  0
 11 12  1  1
 13 15  1  0
 13 14  2  0
 15 16  1  0
 16 21  1  0
 16 17  1  6
 18 19  1  0
 18 17  1  0
 19 20  2  0
 21 22  2  0
 21 24  1  0
 23 19  1  0
M  END
$$$$
