TTE.pdb
     RDKit          3D

 24 23  0  0  1  0  0  0  0  0999 V2000
   27.1571  -10.8780  -15.2202 C   0  0  0  0  0  0  0  0  0  0  0  0
   27.0669  -11.9131  -16.3326 C   0  0  1  0  0  0  0  0  0  0  0  0
   28.0136  -12.8998  -16.1900 O   0  0  0  0  0  0  0  0  0  0  0  0
   25.6500  -12.4354  -16.3746 C   0  0  2  0  0  0  0  0  0  0  0  0
   25.6089  -13.5321  -17.3202 N   0  0  0  0  0  0  0  0  0  0  0  0
   24.6768  -11.4120  -16.7761 C   0  0  0  0  0  0  0  0  0  0  0  0
   24.6094  -11.0537  -17.9776 O   0  0  0  0  0  0  0  0  0  0  0  0
   20.9949  -11.3965  -16.6632 C   0  0  0  0  0  0  0  0  0  0  0  0
   21.4545  -10.2112  -15.8188 C   0  0  1  0  0  0  0  0  0  0  0  0
   21.4269  -10.5232  -14.4620 O   0  0  0  0  0  0  0  0  0  0  0  0
   22.8448   -9.7494  -16.2415 C   0  0  2  0  0  0  0  0  0  0  0  0
   23.7768  -10.7767  -15.8774 N   0  0  0  0  0  0  0  0  0  0  0  0
   23.1047   -8.4636  -15.5594 C   0  0  0  0  0  0  0  0  0  0  0  0
   23.6418   -8.4867  -14.4308 O   0  0  0  0  0  0  0  0  0  0  0  0
   22.7643   -7.2433  -16.1483 N   0  0  0  0  0  0  0  0  0  0  0  0
   22.9767   -5.9434  -15.5446 C   0  0  1  0  0  0  0  0  0  0  0  0
   22.5382   -4.8864  -16.5307 C   0  0  0  0  0  0  0  0  0  0  0  0
   22.6805   -3.4876  -16.0474 C   0  0  0  0  0  0  0  0  0  0  0  0
   22.1927   -2.4460  -16.9514 C   0  0  0  0  0  0  0  0  0  0  0  0
   21.2641   -1.6717  -16.6324 O   0  0  0  0  0  0  0  0  0  0  0  0
   22.0792   -5.7774  -14.3426 C   0  0  0  0  0  0  0  0  0  0  0  0
   20.9730   -6.3214  -14.2575 O   0  0  0  0  0  0  0  0  0  0  0  0
   22.7741   -2.3117  -18.1958 O   0  0  0  0  0  0  0  0  0  0  0  0
   22.5218   -4.9800  -13.2952 O   0  0  0  0  0  0  0  0  0  0  0  0
  2  1  1  1
  2  3  1  0
  4  5  1  6
  4  2  1  0
  4  6  1  0
  6  7  2  0
  9  8  1  6
  9 11  1  0
 10  9  1  0
 11 13  1  0
 12  6  1  0
 11 12  1  1
 13 15  1  0
 13 14  2  0
 15 16  1  0
 16 21  1  0
 16 17  1  6
 18 19  1  0
 18 17  1  0
 19 20  2  0
 21 22  2  0
 21 24  1  0
 23 19  1  0
M  END
$$$$
