TTE.pdb
     RDKit          3D

 24 23  0  0  1  0  0  0  0  0999 V2000
   18.8533  -11.9265  -16.4565 C   0  0  0  0  0  0  0  0  0  0  0  0
   17.3781  -12.2613  -16.2865 C   0  0  1  0  0  0  0  0  0  0  0  0
   17.1255  -13.5915  -16.5250 O   0  0  0  0  0  0  0  0  0  0  0  0
   16.9468  -11.8000  -14.9141 C   0  0  2  0  0  0  0  0  0  0  0  0
   15.5879  -12.2538  -14.6999 N   0  0  0  0  0  0  0  0  0  0  0  0
   17.0010  -10.3410  -14.7598 C   0  0  0  0  0  0  0  0  0  0  0  0
   16.3225   -9.6084  -15.5211 O   0  0  0  0  0  0  0  0  0  0  0  0
   16.1135   -8.1757  -11.9075 C   0  0  0  0  0  0  0  0  0  0  0  0
   17.5770   -7.8769  -12.2205 C   0  0  1  0  0  0  0  0  0  0  0  0
   18.4229   -8.5306  -11.3282 O   0  0  0  0  0  0  0  0  0  0  0  0
   17.9123   -8.2515  -13.6600 C   0  0  2  0  0  0  0  0  0  0  0  0
   17.7893   -9.6751  -13.7819 N   0  0  0  0  0  0  0  0  0  0  0  0
   19.2813   -7.7633  -13.9313 C   0  0  0  0  0  0  0  0  0  0  0  0
   20.2390   -8.5460  -13.7500 O   0  0  0  0  0  0  0  0  0  0  0  0
   19.5162   -6.4613  -14.3801 N   0  0  0  0  0  0  0  0  0  0  0  0
   20.8258   -5.8933  -14.6286 C   0  0  1  0  0  0  0  0  0  0  0  0
   20.6503   -4.6472  -15.4641 C   0  0  0  0  0  0  0  0  0  0  0  0
   21.8957   -3.8654  -15.6842 C   0  0  0  0  0  0  0  0  0  0  0  0
   21.7429   -2.6150  -16.4280 C   0  0  0  0  0  0  0  0  0  0  0  0
   20.8068   -2.4341  -17.2370 O   0  0  0  0  0  0  0  0  0  0  0  0
   21.4448   -5.4314  -13.3319 C   0  0  0  0  0  0  0  0  0  0  0  0
   20.7695   -5.1337  -12.3408 O   0  0  0  0  0  0  0  0  0  0  0  0
   22.6593   -1.6019  -16.2322 O   0  0  0  0  0  0  0  0  0  0  0  0
   22.8286   -5.3401  -13.2584 O   0  0  0  0  0  0  0  0  0  0  0  0
  2  1  1  1
  2  3  1  0
  4  5  1  6
  4  2  1  0
  4  6  1  0
  6  7  2  0
  9  8  1  1
  9 11  1  0
 10  9  1  0
 11 13  1  0
 12  6  1  0
 11 12  1  1
 13 15  1  0
 13 14  2  0
 15 16  1  0
 16 21  1  0
 16 17  1  6
 18 19  1  0
 18 17  1  0
 19 20  2  0
 21 22  2  0
 21 24  1  0
 23 19  1  0
M  END
$$$$
