TTE.pdb
     RDKit          3D

 24 23  0  0  1  0  0  0  0  0999 V2000
   15.4521   -4.0124   -9.9939 C   0  0  0  0  0  0  0  0  0  0  0  0
   15.0457   -4.1569   -8.5341 C   0  0  1  0  0  0  0  0  0  0  0  0
   14.1800   -3.1625   -8.1442 O   0  0  0  0  0  0  0  0  0  0  0  0
   14.4963   -5.5500   -8.3351 C   0  0  2  0  0  0  0  0  0  0  0  0
   14.1939   -5.7111   -6.9275 N   0  0  0  0  0  0  0  0  0  0  0  0
   15.4355   -6.5984   -8.7526 C   0  0  0  0  0  0  0  0  0  0  0  0
   16.5100   -6.7589   -8.1231 O   0  0  0  0  0  0  0  0  0  0  0  0
   14.9300  -10.3995   -9.5411 C   0  0  0  0  0  0  0  0  0  0  0  0
   15.4476   -9.6653  -10.7748 C   0  0  1  0  0  0  0  0  0  0  0  0
   14.4115   -9.3874  -11.6627 O   0  0  0  0  0  0  0  0  0  0  0  0
   16.1809   -8.3882  -10.3794 C   0  0  2  0  0  0  0  0  0  0  0  0
   15.2118   -7.4727   -9.8510 N   0  0  0  0  0  0  0  0  0  0  0  0
   16.8575   -7.8794  -11.5916 C   0  0  0  0  0  0  0  0  0  0  0  0
   16.2424   -7.0725  -12.3220 O   0  0  0  0  0  0  0  0  0  0  0  0
   18.1530   -8.2805  -11.9269 N   0  0  0  0  0  0  0  0  0  0  0  0
   18.8908   -7.8179  -13.0850 C   0  0  1  0  0  0  0  0  0  0  0  0
   20.0839   -7.0278  -12.6012 C   0  0  0  0  0  0  0  0  0  0  0  0
   20.8808   -6.3826  -13.6779 C   0  0  0  0  0  0  0  0  0  0  0  0
   21.9807   -5.5265  -13.2340 C   0  0  0  0  0  0  0  0  0  0  0  0
   22.2833   -5.4070  -12.0266 O   0  0  0  0  0  0  0  0  0  0  0  0
   19.4594   -8.9939  -13.8409 C   0  0  0  0  0  0  0  0  0  0  0  0
   19.8096  -10.0385  -13.2815 O   0  0  0  0  0  0  0  0  0  0  0  0
   22.7087   -4.8276  -14.1754 O   0  0  0  0  0  0  0  0  0  0  0  0
   19.5909   -8.8894  -15.2196 O   0  0  0  0  0  0  0  0  0  0  0  0
  2  1  1  6
  2  3  1  0
  4  5  1  1
  4  2  1  0
  4  6  1  0
  6  7  2  0
  9  8  1  1
  9 11  1  0
 10  9  1  0
 11 13  1  0
 12  6  1  0
 11 12  1  6
 13 15  1  0
 13 14  2  0
 15 16  1  0
 16 21  1  0
 16 17  1  1
 18 19  1  0
 18 17  1  0
 19 20  2  0
 21 22  2  0
 21 24  1  0
 23 19  1  0
M  END
$$$$
