TTE.pdb
     RDKit          3D

 24 23  0  0  1  0  0  0  0  0999 V2000
   20.9962  -14.7375  -17.1666 C   0  0  0  0  0  0  0  0  0  0  0  0
   20.5336  -13.3302  -17.5166 C   0  0  1  0  0  0  0  0  0  0  0  0
   19.9896  -13.2702  -18.7778 O   0  0  0  0  0  0  0  0  0  0  0  0
   19.5953  -12.8603  -16.4299 C   0  0  2  0  0  0  0  0  0  0  0  0
   18.3652  -13.6163  -16.5479 N   0  0  0  0  0  0  0  0  0  0  0  0
   19.2936  -11.4261  -16.5178 C   0  0  0  0  0  0  0  0  0  0  0  0
   18.6634  -10.9817  -17.5087 O   0  0  0  0  0  0  0  0  0  0  0  0
   16.9517   -9.3481  -15.1202 C   0  0  0  0  0  0  0  0  0  0  0  0
   18.2718   -8.7614  -14.6281 C   0  0  1  0  0  0  0  0  0  0  0  0
   18.5812   -9.2268  -13.3526 O   0  0  0  0  0  0  0  0  0  0  0  0
   19.4007   -9.0674  -15.6063 C   0  0  2  0  0  0  0  0  0  0  0  0
   19.6739  -10.4733  -15.5336 N   0  0  0  0  0  0  0  0  0  0  0  0
   20.5564   -8.2321  -15.2154 C   0  0  0  0  0  0  0  0  0  0  0  0
   21.4223   -8.7289  -14.4630 O   0  0  0  0  0  0  0  0  0  0  0  0
   20.6924   -6.9172  -15.6673 N   0  0  0  0  0  0  0  0  0  0  0  0
   21.7804   -6.0276  -15.3151 C   0  0  1  0  0  0  0  0  0  0  0  0
   21.6373   -4.7609  -16.1257 C   0  0  0  0  0  0  0  0  0  0  0  0
   22.6628   -3.7222  -15.8428 C   0  0  0  0  0  0  0  0  0  0  0  0
   22.5097   -2.4590  -16.5645 C   0  0  0  0  0  0  0  0  0  0  0  0
   22.5781   -1.3521  -15.9871 O   0  0  0  0  0  0  0  0  0  0  0  0
   21.6572   -5.6043  -13.8716 C   0  0  0  0  0  0  0  0  0  0  0  0
   20.5701   -5.5376  -13.2880 O   0  0  0  0  0  0  0  0  0  0  0  0
   22.2824   -2.4875  -17.9255 O   0  0  0  0  0  0  0  0  0  0  0  0
   22.8164   -5.2787  -13.1794 O   0  0  0  0  0  0  0  0  0  0  0  0
  2  1  1  1
  2  3  1  0
  4  5  1  6
  4  2  1  0
  4  6  1  0
  6  7  2  0
  9  8  1  6
  9 11  1  0
 10  9  1  0
 11 13  1  0
 12  6  1  0
 11 12  1  1
 13 15  1  0
 13 14  2  0
 15 16  1  0
 16 21  1  0
 16 17  1  6
 18 19  1  0
 18 17  1  0
 19 20  2  0
 21 22  2  0
 21 24  1  0
 23 19  1  0
M  END
$$$$
