TTE.pdb
     RDKit          3D

 24 23  0  0  1  0  0  0  0  0999 V2000
   19.7756  -10.2558  -19.7238 C   0  0  0  0  0  0  0  0  0  0  0  0
   19.0998  -11.4963  -19.1565 C   0  0  1  0  0  0  0  0  0  0  0  0
   18.6481  -12.3316  -20.1506 O   0  0  0  0  0  0  0  0  0  0  0  0
   20.0625  -12.1596  -18.1996 C   0  0  2  0  0  0  0  0  0  0  0  0
   19.4646  -13.4035  -17.7595 N   0  0  0  0  0  0  0  0  0  0  0  0
   20.3675  -11.3272  -17.0293 C   0  0  0  0  0  0  0  0  0  0  0  0
   19.4565  -11.0404  -16.2143 O   0  0  0  0  0  0  0  0  0  0  0  0
   22.9905  -11.8372  -14.3531 C   0  0  0  0  0  0  0  0  0  0  0  0
   23.2311  -10.4637  -14.9732 C   0  0  1  0  0  0  0  0  0  0  0  0
   24.2885  -10.5021  -15.8786 O   0  0  0  0  0  0  0  0  0  0  0  0
   21.9642   -9.9391  -15.6401 C   0  0  2  0  0  0  0  0  0  0  0  0
   21.6582  -10.8054  -16.7412 N   0  0  0  0  0  0  0  0  0  0  0  0
   22.2340   -8.5463  -16.0567 C   0  0  0  0  0  0  0  0  0  0  0  0
   22.4567   -8.3194  -17.2657 O   0  0  0  0  0  0  0  0  0  0  0  0
   22.2435   -7.4975  -15.1339 N   0  0  0  0  0  0  0  0  0  0  0  0
   22.2811   -6.0905  -15.4780 C   0  0  1  0  0  0  0  0  0  0  0  0
   20.9766   -5.7328  -16.1505 C   0  0  0  0  0  0  0  0  0  0  0  0
   20.8510   -4.3046  -16.5442 C   0  0  0  0  0  0  0  0  0  0  0  0
   19.6019   -3.9318  -17.2082 C   0  0  0  0  0  0  0  0  0  0  0  0
   19.4355   -4.0767  -18.4390 O   0  0  0  0  0  0  0  0  0  0  0  0
   22.3374   -5.2518  -14.2245 C   0  0  0  0  0  0  0  0  0  0  0  0
   21.9137   -5.6532  -13.1354 O   0  0  0  0  0  0  0  0  0  0  0  0
   18.5736   -3.4034  -16.4547 O   0  0  0  0  0  0  0  0  0  0  0  0
   22.8888   -3.9798  -14.3073 O   0  0  0  0  0  0  0  0  0  0  0  0
  2  1  1  6
  2  3  1  0
  4  5  1  1
  4  2  1  0
  4  6  1  0
  6  7  2  0
  9  8  1  6
  9 11  1  0
 10  9  1  0
 11 13  1  0
 12  6  1  0
 11 12  1  6
 13 15  1  0
 13 14  2  0
 15 16  1  0
 16 21  1  0
 16 17  1  1
 18 19  1  0
 18 17  1  0
 19 20  2  0
 21 22  2  0
 21 24  1  0
 23 19  1  0
M  END
$$$$
