TTE.pdb
     RDKit          3D

 24 23  0  0  1  0  0  0  0  0999 V2000
   19.4745  -14.7481  -14.4665 C   0  0  0  0  0  0  0  0  0  0  0  0
   18.6378  -14.9230  -15.7261 C   0  0  1  0  0  0  0  0  0  0  0  0
   17.5703  -14.0572  -15.7545 O   0  0  0  0  0  0  0  0  0  0  0  0
   19.5540  -14.7936  -16.9203 C   0  0  2  0  0  0  0  0  0  0  0  0
   20.5716  -15.8190  -16.8124 N   0  0  0  0  0  0  0  0  0  0  0  0
   20.1988  -13.4772  -17.0043 C   0  0  0  0  0  0  0  0  0  0  0  0
   21.3537  -13.3184  -16.5380 O   0  0  0  0  0  0  0  0  0  0  0  0
   18.2416  -10.1802  -18.9930 C   0  0  0  0  0  0  0  0  0  0  0  0
   19.7533  -10.3890  -18.9752 C   0  0  1  0  0  0  0  0  0  0  0  0
   20.4264   -9.1890  -19.1894 O   0  0  0  0  0  0  0  0  0  0  0  0
   20.1973  -11.0346  -17.6671 C   0  0  2  0  0  0  0  0  0  0  0  0
   19.5937  -12.3333  -17.5929 N   0  0  0  0  0  0  0  0  0  0  0  0
   19.7753  -10.1365  -16.5710 C   0  0  0  0  0  0  0  0  0  0  0  0
   18.7208  -10.4039  -15.9552 O   0  0  0  0  0  0  0  0  0  0  0  0
   20.5258   -9.0119  -16.2192 N   0  0  0  0  0  0  0  0  0  0  0  0
   20.2202   -8.1226  -15.1168 C   0  0  1  0  0  0  0  0  0  0  0  0
   21.3832   -7.1755  -14.9366 C   0  0  0  0  0  0  0  0  0  0  0  0
   21.1981   -6.1597  -13.8667 C   0  0  0  0  0  0  0  0  0  0  0  0
   22.3397   -5.2803  -13.6154 C   0  0  0  0  0  0  0  0  0  0  0  0
   22.1957   -4.0767  -13.3085 O   0  0  0  0  0  0  0  0  0  0  0  0
   19.0364   -7.2535  -15.4649 C   0  0  0  0  0  0  0  0  0  0  0  0
   18.8073   -6.8712  -16.6174 O   0  0  0  0  0  0  0  0  0  0  0  0
   23.6169   -5.7929  -13.7197 O   0  0  0  0  0  0  0  0  0  0  0  0
   18.1756   -6.8731  -14.4436 O   0  0  0  0  0  0  0  0  0  0  0  0
  2  1  1  1
  2  3  1  0
  4  5  1  1
  4  2  1  0
  4  6  1  0
  6  7  2  0
  9  8  1  1
  9 11  1  0
 10  9  1  0
 11 13  1  0
 12  6  1  0
 11 12  1  1
 13 15  1  0
 13 14  2  0
 15 16  1  0
 16 21  1  0
 16 17  1  6
 18 19  1  0
 18 17  1  0
 19 20  2  0
 21 22  2  0
 21 24  1  0
 23 19  1  0
M  END
$$$$
