PAS.pdb
     RDKit          3D

 19 19  0  0  1  0  0  0  0  0999 V2000
    8.0173  -17.4924   16.8025 N   0  0  0  0  0  0  0  0  0  0  0  0
    8.5659  -18.8135   16.5437 C   0  0  0  0  0  0  0  0  0  0  0  0
    7.5724  -19.7318   17.2333 C   0  0  0  0  0  0  0  0  0  0  0  0
    7.2831  -18.9589   18.5102 C   0  0  0  0  0  0  0  0  0  0  0  0
    7.4297  -17.5309   18.1040 C   0  0  1  0  0  0  0  0  0  0  0  0
    8.1962  -16.7215   19.0982 C   0  0  0  0  0  0  0  0  0  0  0  0
    9.4532  -16.7088   19.0718 O   0  0  0  0  0  0  0  0  0  0  0  0
    7.3485  -14.3277   21.9358 C   0  0  0  0  0  0  0  0  0  0  0  0
    8.2476  -15.2435   21.1363 C   0  0  2  0  0  0  0  0  0  0  0  0
    7.5528  -15.9421   20.1021 N   0  0  0  0  0  0  0  0  0  0  0  0
    8.9437  -16.1383   22.0838 C   0  0  0  0  0  0  0  0  0  0  0  0
    8.5479  -17.2621   22.4346 O   0  0  0  0  0  0  0  0  0  0  0  0
   13.2291  -16.8992   24.1909 O   0  0  0  0  0  0  0  0  0  0  0  0
   12.4758  -16.0018   23.4333 C   0  0  0  0  0  0  0  0  0  0  0  0
   11.0473  -16.4792   23.4261 C   0  0  2  0  0  0  0  0  0  0  0  0
   10.1740  -15.6740   22.6437 N   0  0  0  0  0  0  0  0  0  0  0  0
   10.5749  -16.5010   24.8278 C   0  0  0  0  0  0  0  0  0  0  0  0
   11.0482  -17.4559   25.6988 O   0  0  0  0  0  0  0  0  0  0  0  0
    9.7426  -15.6411   25.2043 O   0  0  0  0  0  0  0  0  0  0  0  0
  1  5  1  0
  1  2  1  0
  2  3  1  0
  4  3  1  0
  5  4  1  0
  6 10  1  0
  5  6  1  1
  7  6  2  0
  9  8  1  1
  9 10  1  0
  9 11  1  0
 11 16  1  0
 12 11  2  0
 14 13  1  0
 15 14  1  1
 15 17  1  0
 16 15  1  0
 17 18  1  0
 19 17  2  0
M  END
$$$$
