PAS.pdb
     RDKit          3D

 19 19  0  0  1  0  0  0  0  0999 V2000
    9.2645  -14.5726   19.8345 N   0  0  0  0  0  0  0  0  0  0  0  0
    8.1484  -14.8379   18.9416 C   0  0  0  0  0  0  0  0  0  0  0  0
    7.4395  -13.4964   18.8808 C   0  0  0  0  0  0  0  0  0  0  0  0
    7.5259  -13.0435   20.3296 C   0  0  0  0  0  0  0  0  0  0  0  0
    8.8040  -13.6409   20.8147 C   0  0  1  0  0  0  0  0  0  0  0  0
    8.6781  -14.2567   22.1696 C   0  0  0  0  0  0  0  0  0  0  0  0
    8.1022  -13.6345   23.0982 O   0  0  0  0  0  0  0  0  0  0  0  0
    9.4457  -17.6317   23.7390 C   0  0  0  0  0  0  0  0  0  0  0  0
    9.1422  -16.1507   23.7629 C   0  0  2  0  0  0  0  0  0  0  0  0
    9.1939  -15.5506   22.4677 N   0  0  0  0  0  0  0  0  0  0  0  0
   10.0502  -15.5159   24.7406 C   0  0  0  0  0  0  0  0  0  0  0  0
   11.2652  -15.3206   24.5720 O   0  0  0  0  0  0  0  0  0  0  0  0
    8.1573  -13.5618   27.7656 O   0  0  0  0  0  0  0  0  0  0  0  0
    9.4900  -13.2055   27.5557 C   0  0  0  0  0  0  0  0  0  0  0  0
   10.2115  -14.4023   26.9937 C   0  0  2  0  0  0  0  0  0  0  0  0
    9.4856  -15.0911   25.9829 N   0  0  0  0  0  0  0  0  0  0  0  0
   10.4911  -15.3248   28.1158 C   0  0  0  0  0  0  0  0  0  0  0  0
   10.0189  -16.6171   28.0784 O   0  0  0  0  0  0  0  0  0  0  0  0
   11.1605  -14.9112   29.0929 O   0  0  0  0  0  0  0  0  0  0  0  0
  1  5  1  0
  1  2  1  0
  2  3  1  0
  4  3  1  0
  5  4  1  0
  6 10  1  0
  5  6  1  1
  7  6  2  0
  9  8  1  6
  9 10  1  0
  9 11  1  0
 11 16  1  0
 12 11  2  0
 14 13  1  0
 15 14  1  1
 15 17  1  0
 16 15  1  0
 17 18  1  0
 19 17  2  0
M  END
$$$$
