PAS.pdb
     RDKit          3D

 19 19  0  0  1  0  0  0  0  0999 V2000
    7.6213  -15.0440   19.1667 N   0  0  0  0  0  0  0  0  0  0  0  0
    6.5400  -14.0936   18.9648 C   0  0  0  0  0  0  0  0  0  0  0  0
    7.2337  -12.9376   18.2661 C   0  0  0  0  0  0  0  0  0  0  0  0
    8.5479  -12.8697   19.0276 C   0  0  0  0  0  0  0  0  0  0  0  0
    8.8031  -14.2845   19.4260 C   0  0  1  0  0  0  0  0  0  0  0  0
    9.2631  -14.4139   20.8412 C   0  0  0  0  0  0  0  0  0  0  0  0
   10.4258  -14.0615   21.1650 O   0  0  0  0  0  0  0  0  0  0  0  0
    7.7295  -15.1702   24.2083 C   0  0  0  0  0  0  0  0  0  0  0  0
    8.8615  -15.1804   23.2059 C   0  0  2  0  0  0  0  0  0  0  0  0
    8.4239  -14.9317   21.8691 N   0  0  0  0  0  0  0  0  0  0  0  0
    9.5912  -16.4563   23.3569 C   0  0  0  0  0  0  0  0  0  0  0  0
    9.2811  -17.5304   22.8158 O   0  0  0  0  0  0  0  0  0  0  0  0
   12.9025  -16.3123   25.8685 O   0  0  0  0  0  0  0  0  0  0  0  0
   12.9645  -17.2779   24.8632 C   0  0  0  0  0  0  0  0  0  0  0  0
   11.5564  -17.6019   24.4380 C   0  0  2  0  0  0  0  0  0  0  0  0
   10.7494  -16.4562   24.1943 N   0  0  0  0  0  0  0  0  0  0  0  0
   10.9422  -18.4197   25.5068 C   0  0  0  0  0  0  0  0  0  0  0  0
   11.5183  -19.6137   25.8769 O   0  0  0  0  0  0  0  0  0  0  0  0
    9.8963  -18.0084   26.0644 O   0  0  0  0  0  0  0  0  0  0  0  0
  1  5  1  0
  1  2  1  0
  2  3  1  0
  4  3  1  0
  5  4  1  0
  6 10  1  0
  5  6  1  1
  7  6  2  0
  9  8  1  1
  9 10  1  0
  9 11  1  0
 11 16  1  0
 12 11  2  0
 14 13  1  0
 15 14  1  1
 15 17  1  0
 16 15  1  0
 17 18  1  0
 19 17  2  0
M  END
$$$$
