PAS.pdb
     RDKit          3D

 19 19  0  0  1  0  0  0  0  0999 V2000
    7.7087  -14.9682   19.2557 N   0  0  0  0  0  0  0  0  0  0  0  0
    6.8838  -13.9089   18.6981 C   0  0  0  0  0  0  0  0  0  0  0  0
    7.7947  -12.6965   18.7759 C   0  0  0  0  0  0  0  0  0  0  0  0
    8.4498  -12.8978   20.1330 C   0  0  0  0  0  0  0  0  0  0  0  0
    8.5036  -14.3807   20.2870 C   0  0  1  0  0  0  0  0  0  0  0  0
    8.0953  -14.8369   21.6493 C   0  0  0  0  0  0  0  0  0  0  0  0
    6.9360  -14.6024   22.0760 O   0  0  0  0  0  0  0  0  0  0  0  0
    9.3188  -17.1859   24.3011 C   0  0  0  0  0  0  0  0  0  0  0  0
    8.6718  -15.8918   23.8621 C   0  0  2  0  0  0  0  0  0  0  0  0
    8.9814  -15.5445   22.5115 N   0  0  0  0  0  0  0  0  0  0  0  0
    9.0415  -14.8448   24.8369 C   0  0  0  0  0  0  0  0  0  0  0  0
   10.0484  -14.1209   24.7674 O   0  0  0  0  0  0  0  0  0  0  0  0
    6.4584  -12.4868   26.1342 O   0  0  0  0  0  0  0  0  0  0  0  0
    7.0774  -12.9165   27.3085 C   0  0  0  0  0  0  0  0  0  0  0  0
    8.3479  -13.6327   26.9328 C   0  0  2  0  0  0  0  0  0  0  0  0
    8.1697  -14.6474   25.9521 N   0  0  0  0  0  0  0  0  0  0  0  0
    8.9068  -14.2305   28.1652 C   0  0  0  0  0  0  0  0  0  0  0  0
    9.1940  -13.4315   29.2486 O   0  0  0  0  0  0  0  0  0  0  0  0
    9.1121  -15.4675   28.2041 O   0  0  0  0  0  0  0  0  0  0  0  0
  1  5  1  0
  1  2  1  0
  2  3  1  0
  4  3  1  0
  5  4  1  0
  6 10  1  0
  5  6  1  1
  7  6  2  0
  9  8  1  1
  9 10  1  0
  9 11  1  0
 11 16  1  0
 12 11  2  0
 14 13  1  0
 15 14  1  1
 15 17  1  0
 16 15  1  0
 17 18  1  0
 19 17  2  0
M  END
$$$$
