PAS.pdb
     RDKit          3D

 19 19  0  0  1  0  0  0  0  0999 V2000
    9.0860  -14.4565   18.0658 N   0  0  0  0  0  0  0  0  0  0  0  0
    7.9756  -14.5370   17.1310 C   0  0  0  0  0  0  0  0  0  0  0  0
    7.3209  -13.1737   17.2676 C   0  0  0  0  0  0  0  0  0  0  0  0
    7.4006  -12.9498   18.7693 C   0  0  0  0  0  0  0  0  0  0  0  0
    8.6459  -13.6662   19.1714 C   0  0  1  0  0  0  0  0  0  0  0  0
    8.4732  -14.4747   20.4153 C   0  0  0  0  0  0  0  0  0  0  0  0
    7.9603  -13.9590   21.4410 O   0  0  0  0  0  0  0  0  0  0  0  0
    8.7136  -18.1423   21.3227 C   0  0  0  0  0  0  0  0  0  0  0  0
    8.6608  -16.6655   21.6427 C   0  0  2  0  0  0  0  0  0  0  0  0
    8.8730  -15.8395   20.4968 N   0  0  0  0  0  0  0  0  0  0  0  0
    9.6149  -16.4034   22.7400 C   0  0  0  0  0  0  0  0  0  0  0  0
   10.8221  -16.1486   22.5976 O   0  0  0  0  0  0  0  0  0  0  0  0
    8.4946  -14.3389   25.8174 O   0  0  0  0  0  0  0  0  0  0  0  0
    9.0961  -15.4862   26.3357 C   0  0  0  0  0  0  0  0  0  0  0  0
    9.8813  -16.1429   25.2308 C   0  0  2  0  0  0  0  0  0  0  0  0
    9.1085  -16.4463   24.0758 N   0  0  0  0  0  0  0  0  0  0  0  0
   10.4651  -17.3885   25.7749 C   0  0  0  0  0  0  0  0  0  0  0  0
   11.3333  -17.3330   26.8416 O   0  0  0  0  0  0  0  0  0  0  0  0
   10.1571  -18.4860   25.2510 O   0  0  0  0  0  0  0  0  0  0  0  0
  1  5  1  0
  1  2  1  0
  2  3  1  0
  4  3  1  0
  5  4  1  0
  6 10  1  0
  5  6  1  1
  7  6  2  0
  9  8  1  6
  9 10  1  0
  9 11  1  0
 11 16  1  0
 12 11  2  0
 14 13  1  0
 15 14  1  1
 15 17  1  0
 16 15  1  0
 17 18  1  0
 19 17  2  0
M  END
$$$$
