PAS.pdb
     RDKit          3D

 19 19  0  0  1  0  0  0  0  0999 V2000
    8.0085  -14.9010   18.3447 N   0  0  0  0  0  0  0  0  0  0  0  0
    6.7467  -14.1934   18.2011 C   0  0  0  0  0  0  0  0  0  0  0  0
    7.1845  -12.7439   18.0874 C   0  0  0  0  0  0  0  0  0  0  0  0
    8.2980  -12.6830   19.1208 C   0  0  0  0  0  0  0  0  0  0  0  0
    8.8773  -14.0577   19.1027 C   0  0  1  0  0  0  0  0  0  0  0  0
    9.1388  -14.5943   20.4718 C   0  0  0  0  0  0  0  0  0  0  0  0
    9.9848  -14.0408   21.2193 O   0  0  0  0  0  0  0  0  0  0  0  0
    7.5530  -17.1979   22.7321 C   0  0  0  0  0  0  0  0  0  0  0  0
    8.6565  -16.2599   22.2978 C   0  0  2  0  0  0  0  0  0  0  0  0
    8.4562  -15.7346   20.9847 N   0  0  0  0  0  0  0  0  0  0  0  0
    9.9438  -16.9675   22.4569 C   0  0  0  0  0  0  0  0  0  0  0  0
   10.4927  -17.6655   21.5885 O   0  0  0  0  0  0  0  0  0  0  0  0
   13.3544  -16.0918   22.9001 O   0  0  0  0  0  0  0  0  0  0  0  0
   13.0080  -16.5471   24.1727 C   0  0  0  0  0  0  0  0  0  0  0  0
   11.8394  -17.4867   24.0317 C   0  0  2  0  0  0  0  0  0  0  0  0
   10.6138  -16.8392   23.7128 N   0  0  0  0  0  0  0  0  0  0  0  0
   11.6938  -18.2162   25.3104 C   0  0  0  0  0  0  0  0  0  0  0  0
   12.7207  -19.0081   25.7718 O   0  0  0  0  0  0  0  0  0  0  0  0
   10.6270  -18.1006   25.9604 O   0  0  0  0  0  0  0  0  0  0  0  0
  1  5  1  0
  1  2  1  0
  2  3  1  0
  4  3  1  0
  5  4  1  0
  6 10  1  0
  5  6  1  1
  7  6  2  0
  9  8  1  6
  9 10  1  0
  9 11  1  0
 11 16  1  0
 12 11  2  0
 14 13  1  0
 15 14  1  1
 15 17  1  0
 16 15  1  0
 17 18  1  0
 19 17  2  0
M  END
$$$$
