PAS.pdb
     RDKit          3D

 19 19  0  0  1  0  0  0  0  0999 V2000
    7.4678  -13.9725   19.5470 N   0  0  0  0  0  0  0  0  0  0  0  0
    7.9524  -12.6743   19.1076 C   0  0  0  0  0  0  0  0  0  0  0  0
    7.9393  -12.8042   17.5948 C   0  0  0  0  0  0  0  0  0  0  0  0
    8.4543  -14.2226   17.4093 C   0  0  0  0  0  0  0  0  0  0  0  0
    7.9681  -14.9405   18.6233 C   0  0  1  0  0  0  0  0  0  0  0  0
    9.0097  -15.8216   19.2314 C   0  0  0  0  0  0  0  0  0  0  0  0
    9.4934  -16.7785   18.5746 O   0  0  0  0  0  0  0  0  0  0  0  0
   11.7650  -16.5459   20.5015 C   0  0  0  0  0  0  0  0  0  0  0  0
   10.4264  -16.4917   21.2024 C   0  0  2  0  0  0  0  0  0  0  0  0
    9.4942  -15.6234   20.5562 N   0  0  0  0  0  0  0  0  0  0  0  0
   10.6679  -16.1443   22.6181 C   0  0  0  0  0  0  0  0  0  0  0  0
   11.7785  -15.9062   23.1207 O   0  0  0  0  0  0  0  0  0  0  0  0
    7.2330  -15.5857   24.8482 O   0  0  0  0  0  0  0  0  0  0  0  0
    8.3573  -14.8782   25.2749 C   0  0  0  0  0  0  0  0  0  0  0  0
    9.5822  -15.6349   24.8328 C   0  0  2  0  0  0  0  0  0  0  0  0
    9.5310  -16.0763   23.4816 N   0  0  0  0  0  0  0  0  0  0  0  0
    9.7350  -16.8027   25.7279 C   0  0  0  0  0  0  0  0  0  0  0  0
    9.9321  -16.6147   27.0771 O   0  0  0  0  0  0  0  0  0  0  0  0
    9.6821  -17.9569   25.2389 O   0  0  0  0  0  0  0  0  0  0  0  0
  1  5  1  0
  1  2  1  0
  2  3  1  0
  4  3  1  0
  5  4  1  0
  6 10  1  0
  5  6  1  1
  7  6  2  0
  9  8  1  6
  9 10  1  0
  9 11  1  0
 11 16  1  0
 12 11  2  0
 14 13  1  0
 15 14  1  1
 15 17  1  0
 16 15  1  0
 17 18  1  0
 19 17  2  0
M  END
$$$$
