PAS.pdb
     RDKit          3D

 19 19  0  0  1  0  0  0  0  0999 V2000
    8.9908  -14.4125   18.1697 N   0  0  0  0  0  0  0  0  0  0  0  0
    7.7144  -14.1787   17.5144 C   0  0  0  0  0  0  0  0  0  0  0  0
    7.3781  -12.7573   17.9295 C   0  0  0  0  0  0  0  0  0  0  0  0
    7.8135  -12.7573   19.3861 C   0  0  0  0  0  0  0  0  0  0  0  0
    8.9537  -13.7188   19.4179 C   0  0  1  0  0  0  0  0  0  0  0  0
    8.8942  -14.6498   20.5843 C   0  0  0  0  0  0  0  0  0  0  0  0
    8.7570  -14.1984   21.7499 O   0  0  0  0  0  0  0  0  0  0  0  0
    8.6598  -18.4075   21.0726 C   0  0  0  0  0  0  0  0  0  0  0  0
    8.9161  -16.9867   21.5219 C   0  0  2  0  0  0  0  0  0  0  0  0
    8.9882  -16.0632   20.4346 N   0  0  0  0  0  0  0  0  0  0  0  0
   10.1253  -16.9893   22.3710 C   0  0  0  0  0  0  0  0  0  0  0  0
   11.2871  -16.8139   21.9683 O   0  0  0  0  0  0  0  0  0  0  0  0
   10.0908  -15.4994   26.0507 O   0  0  0  0  0  0  0  0  0  0  0  0
   10.5779  -16.8056   26.1087 C   0  0  0  0  0  0  0  0  0  0  0  0
   11.0036  -17.2084   24.7212 C   0  0  2  0  0  0  0  0  0  0  0  0
    9.9450  -17.2118   23.7713 N   0  0  0  0  0  0  0  0  0  0  0  0
   11.5926  -18.5626   24.8084 C   0  0  0  0  0  0  0  0  0  0  0  0
   11.0046  -19.6131   24.1411 O   0  0  0  0  0  0  0  0  0  0  0  0
   12.6281  -18.7342   25.4956 O   0  0  0  0  0  0  0  0  0  0  0  0
  1  5  1  0
  1  2  1  0
  2  3  1  0
  4  3  1  0
  5  4  1  0
  6 10  1  0
  5  6  1  1
  7  6  2  0
  9  8  1  6
  9 10  1  0
  9 11  1  0
 11 16  1  0
 12 11  2  0
 14 13  1  0
 15 14  1  1
 15 17  1  0
 16 15  1  0
 17 18  1  0
 19 17  2  0
M  END
$$$$
