QGS.pdb
     RDKit          3D

 20 19  0  0  1  0  0  0  0  0999 V2000
   10.3608  -20.0923   21.9999 N   0  0  0  0  0  0  0  0  0  0  0  0
    9.2255  -20.0276   21.1387 C   0  0  0  0  0  0  0  0  0  0  0  0
    9.2884  -20.6607   20.0695 O   0  0  0  0  0  0  0  0  0  0  0  0
    8.0700  -19.2417   21.5342 C   0  0  0  0  0  0  0  0  0  0  0  0
    7.3388  -18.4918   20.4923 C   0  0  0  0  0  0  0  0  0  0  0  0
    7.9878  -17.2877   19.9135 C   0  0  2  0  0  0  0  0  0  0  0  0
    9.4174  -17.3029   19.8433 N   0  0  0  0  0  0  0  0  0  0  0  0
    7.5672  -16.1214   20.7366 C   0  0  0  0  0  0  0  0  0  0  0  0
    6.3196  -15.8810   20.7470 O   0  0  0  0  0  0  0  0  0  0  0  0
    8.4084  -15.2884   21.4803 N   0  0  0  0  0  0  0  0  0  0  0  0
    7.9022  -14.1118   22.1798 C   0  0  0  0  0  0  0  0  0  0  0  0
    7.6702  -14.4747   23.6007 C   0  0  0  0  0  0  0  0  0  0  0  0
    7.3718  -13.5869   24.4705 O   0  0  0  0  0  0  0  0  0  0  0  0
    7.0808  -18.3272   24.8795 O   0  0  0  0  0  0  0  0  0  0  0  0
    6.6814  -17.2829   25.7128 C   0  0  0  0  0  0  0  0  0  0  0  0
    7.6446  -16.1358   25.4869 C   0  0  2  0  0  0  0  0  0  0  0  0
    7.7605  -15.8004   24.0848 N   0  0  0  0  0  0  0  0  0  0  0  0
    8.9845  -16.4453   26.0123 C   0  0  0  0  0  0  0  0  0  0  0  0
    9.1305  -16.6934   27.2266 O   0  0  0  0  0  0  0  0  0  0  0  0
   10.0751  -16.4630   25.1749 O   0  0  0  0  0  0  0  0  0  0  0  0
  2  3  2  0
  2  1  1  0
  4  2  1  0
  5  4  1  0
  6  5  1  0
  6  7  1  1
  8  6  1  0
  8  9  2  0
 10  8  1  0
 11 10  1  0
 11 12  1  0
 12 17  1  0
 13 12  2  0
 14 15  1  0
 16 15  1  6
 16 18  1  0
 17 16  1  0
 18 20  1  0
 19 18  2  0
M  END
$$$$
