QGS.pdb
     RDKit          3D

 20 19  0  0  1  0  0  0  0  0999 V2000
    9.3042  -18.8743   16.9116 N   0  0  0  0  0  0  0  0  0  0  0  0
    9.5107  -19.5699   18.1398 C   0  0  0  0  0  0  0  0  0  0  0  0
   10.2388  -20.5781   18.1046 O   0  0  0  0  0  0  0  0  0  0  0  0
    8.8756  -19.0859   19.3529 C   0  0  0  0  0  0  0  0  0  0  0  0
    8.0422  -17.8686   19.2735 C   0  0  0  0  0  0  0  0  0  0  0  0
    8.6602  -16.5732   19.6555 C   0  0  2  0  0  0  0  0  0  0  0  0
    9.9502  -16.6371   20.2725 N   0  0  0  0  0  0  0  0  0  0  0  0
    7.7217  -15.8955   20.5906 C   0  0  0  0  0  0  0  0  0  0  0  0
    6.4885  -16.0133   20.3084 O   0  0  0  0  0  0  0  0  0  0  0  0
    8.0741  -15.1581   21.7250 N   0  0  0  0  0  0  0  0  0  0  0  0
    7.0703  -14.5083   22.5616 C   0  0  0  0  0  0  0  0  0  0  0  0
    7.7507  -13.9334   23.7495 C   0  0  0  0  0  0  0  0  0  0  0  0
    8.9862  -14.1648   23.9813 O   0  0  0  0  0  0  0  0  0  0  0  0
    5.6491  -12.0708   26.7200 O   0  0  0  0  0  0  0  0  0  0  0  0
    6.9049  -11.4953   26.5300 C   0  0  0  0  0  0  0  0  0  0  0  0
    7.7688  -12.5250   25.8314 C   0  0  2  0  0  0  0  0  0  0  0  0
    7.0954  -13.1057   24.6907 N   0  0  0  0  0  0  0  0  0  0  0  0
    8.1664  -13.6065   26.7477 C   0  0  0  0  0  0  0  0  0  0  0  0
    7.6931  -14.7512   26.5954 O   0  0  0  0  0  0  0  0  0  0  0  0
    9.0547  -13.3641   27.7690 O   0  0  0  0  0  0  0  0  0  0  0  0
  2  3  2  0
  2  1  1  0
  4  2  1  0
  5  4  1  0
  6  5  1  0
  6  7  1  1
  8  6  1  0
  8  9  2  0
 10  8  1  0
 11 10  1  0
 11 12  1  0
 12 17  1  0
 13 12  2  0
 14 15  1  0
 16 15  1  1
 16 18  1  0
 17 16  1  0
 18 20  1  0
 19 18  2  0
M  END
$$$$
