QGS.pdb
     RDKit          3D

 20 19  0  0  1  0  0  0  0  0999 V2000
    8.6943  -12.2718   18.0757 N   0  0  0  0  0  0  0  0  0  0  0  0
    8.4500  -13.6654   17.8936 C   0  0  0  0  0  0  0  0  0  0  0  0
    7.2834  -14.0062   17.6272 O   0  0  0  0  0  0  0  0  0  0  0  0
    9.5466  -14.6084   18.0258 C   0  0  0  0  0  0  0  0  0  0  0  0
   10.8847  -14.0874   18.3735 C   0  0  0  0  0  0  0  0  0  0  0  0
   11.9998  -15.0595   18.5052 C   0  0  2  0  0  0  0  0  0  0  0  0
   11.6347  -16.4250   18.7315 N   0  0  0  0  0  0  0  0  0  0  0  0
   12.8509  -14.6036   19.6376 C   0  0  0  0  0  0  0  0  0  0  0  0
   13.4514  -13.4982   19.4598 O   0  0  0  0  0  0  0  0  0  0  0  0
   13.0409  -15.2730   20.8503 N   0  0  0  0  0  0  0  0  0  0  0  0
   13.8851  -14.7245   21.9068 C   0  0  0  0  0  0  0  0  0  0  0  0
   13.8405  -15.6471   23.0692 C   0  0  0  0  0  0  0  0  0  0  0  0
   14.4514  -15.3709   24.1575 O   0  0  0  0  0  0  0  0  0  0  0  0
   11.6419  -19.1149   22.9186 O   0  0  0  0  0  0  0  0  0  0  0  0
   11.6533  -18.4843   24.1622 C   0  0  0  0  0  0  0  0  0  0  0  0
   12.9314  -17.6754   24.2429 C   0  0  2  0  0  0  0  0  0  0  0  0
   13.1341  -16.8723   23.0573 N   0  0  0  0  0  0  0  0  0  0  0  0
   14.1064  -18.5412   24.4350 C   0  0  0  0  0  0  0  0  0  0  0  0
   14.9683  -18.6223   23.5362 O   0  0  0  0  0  0  0  0  0  0  0  0
   14.2604  -19.2604   25.5969 O   0  0  0  0  0  0  0  0  0  0  0  0
  2  3  2  0
  2  1  1  0
  4  2  1  0
  5  4  1  0
  6  5  1  0
  6  7  1  1
  8  6  1  0
  8  9  2  0
 10  8  1  0
 11 10  1  0
 11 12  1  0
 12 17  1  0
 13 12  2  0
 14 15  1  0
 16 15  1  6
 16 18  1  0
 17 16  1  0
 18 20  1  0
 19 18  2  0
M  END
$$$$
