QGS.pdb
     RDKit          3D

 20 19  0  0  1  0  0  0  0  0999 V2000
    6.3643  -21.6606   21.4688 N   0  0  0  0  0  0  0  0  0  0  0  0
    6.1594  -20.9227   22.6723 C   0  0  0  0  0  0  0  0  0  0  0  0
    5.9408  -21.5767   23.7079 O   0  0  0  0  0  0  0  0  0  0  0  0
    6.2105  -19.4715   22.6406 C   0  0  0  0  0  0  0  0  0  0  0  0
    6.4268  -18.8032   21.3409 C   0  0  0  0  0  0  0  0  0  0  0  0
    7.4709  -17.7497   21.2628 C   0  0  2  0  0  0  0  0  0  0  0  0
    8.6628  -17.9728   22.0234 N   0  0  0  0  0  0  0  0  0  0  0  0
    6.8489  -16.4776   21.7203 C   0  0  0  0  0  0  0  0  0  0  0  0
    5.7990  -16.1270   21.0967 O   0  0  0  0  0  0  0  0  0  0  0  0
    7.3115  -15.6560   22.7527 N   0  0  0  0  0  0  0  0  0  0  0  0
    6.6543  -14.3962   23.0854 C   0  0  0  0  0  0  0  0  0  0  0  0
    7.3935  -13.7636   24.2069 C   0  0  0  0  0  0  0  0  0  0  0  0
    8.6587  -13.8998   24.3264 O   0  0  0  0  0  0  0  0  0  0  0  0
    5.9865  -10.6619   26.4274 O   0  0  0  0  0  0  0  0  0  0  0  0
    6.5603  -11.6361   27.2435 C   0  0  0  0  0  0  0  0  0  0  0  0
    7.4625  -12.4803   26.3672 C   0  0  2  0  0  0  0  0  0  0  0  0
    6.7649  -12.9810   25.2033 N   0  0  0  0  0  0  0  0  0  0  0  0
    8.0228  -13.6208   27.1105 C   0  0  0  0  0  0  0  0  0  0  0  0
    7.6911  -14.7834   26.8012 O   0  0  0  0  0  0  0  0  0  0  0  0
    8.9082  -13.4139   28.1421 O   0  0  0  0  0  0  0  0  0  0  0  0
  2  3  2  0
  2  1  1  0
  4  2  1  0
  5  4  1  0
  6  5  1  0
  6  7  1  1
  8  6  1  0
  8  9  2  0
 10  8  1  0
 11 10  1  0
 11 12  1  0
 12 17  1  0
 13 12  2  0
 14 15  1  0
 16 15  1  1
 16 18  1  0
 17 16  1  0
 18 20  1  0
 19 18  2  0
M  END
$$$$
