QGS.pdb
     RDKit          3D

 20 19  0  0  1  0  0  0  0  0999 V2000
   14.3475  -18.8108   23.4847 N   0  0  0  0  0  0  0  0  0  0  0  0
   14.4028  -18.9425   22.0654 C   0  0  0  0  0  0  0  0  0  0  0  0
   15.5308  -18.9491   21.5404 O   0  0  0  0  0  0  0  0  0  0  0  0
   13.1691  -19.0585   21.3079 C   0  0  0  0  0  0  0  0  0  0  0  0
   11.8891  -19.0720   22.0454 C   0  0  0  0  0  0  0  0  0  0  0  0
   10.7832  -18.2189   21.5402 C   0  0  2  0  0  0  0  0  0  0  0  0
   11.1610  -17.0575   20.7937 N   0  0  0  0  0  0  0  0  0  0  0  0
    9.9870  -17.7845   22.7199 C   0  0  0  0  0  0  0  0  0  0  0  0
    9.5443  -18.7210   23.4557 O   0  0  0  0  0  0  0  0  0  0  0  0
    9.6920  -16.4655   23.0776 N   0  0  0  0  0  0  0  0  0  0  0  0
    8.8941  -16.1494   24.2579 C   0  0  0  0  0  0  0  0  0  0  0  0
    9.8090  -16.0096   25.4188 C   0  0  0  0  0  0  0  0  0  0  0  0
   11.0774  -16.0694   25.2732 O   0  0  0  0  0  0  0  0  0  0  0  0
   10.5748  -13.5583   29.3282 O   0  0  0  0  0  0  0  0  0  0  0  0
    9.6672  -13.9906   28.3619 C   0  0  0  0  0  0  0  0  0  0  0  0
   10.2009  -15.2900   27.7951 C   0  0  2  0  0  0  0  0  0  0  0  0
    9.3535  -15.8044   26.7420 N   0  0  0  0  0  0  0  0  0  0  0  0
   10.3357  -16.3188   28.8395 C   0  0  0  0  0  0  0  0  0  0  0  0
    9.5234  -17.2651   28.8838 O   0  0  0  0  0  0  0  0  0  0  0  0
   11.3496  -16.2441   29.7654 O   0  0  0  0  0  0  0  0  0  0  0  0
  2  3  2  0
  2  1  1  0
  4  2  1  0
  5  4  1  0
  6  5  1  0
  6  7  1  1
  8  6  1  0
  8  9  2  0
 10  8  1  0
 11 10  1  0
 11 12  1  0
 12 17  1  0
 13 12  2  0
 14 15  1  0
 16 15  1  1
 16 18  1  0
 17 16  1  0
 18 20  1  0
 19 18  2  0
M  END
$$$$
