QGS.pdb
     RDKit          3D

 20 19  0  0  1  0  0  0  0  0999 V2000
    9.4654  -14.9510   16.9812 N   0  0  0  0  0  0  0  0  0  0  0  0
    8.0494  -14.8002   16.8967 C   0  0  0  0  0  0  0  0  0  0  0  0
    7.4478  -15.5368   16.0946 O   0  0  0  0  0  0  0  0  0  0  0  0
    7.3829  -13.8143   17.7292 C   0  0  0  0  0  0  0  0  0  0  0  0
    8.2132  -12.9136   18.5551 C   0  0  0  0  0  0  0  0  0  0  0  0
    9.0359  -13.5167   19.6347 C   0  0  2  0  0  0  0  0  0  0  0  0
    9.5745  -14.8178   19.3775 N   0  0  0  0  0  0  0  0  0  0  0  0
    8.1819  -13.5903   20.8511 C   0  0  0  0  0  0  0  0  0  0  0  0
    7.6211  -12.5025   21.1921 O   0  0  0  0  0  0  0  0  0  0  0  0
    7.9508  -14.7274   21.6311 N   0  0  0  0  0  0  0  0  0  0  0  0
    7.0421  -14.7046   22.7727 C   0  0  0  0  0  0  0  0  0  0  0  0
    7.7889  -14.2098   23.9567 C   0  0  0  0  0  0  0  0  0  0  0  0
    9.0531  -14.3693   24.0562 O   0  0  0  0  0  0  0  0  0  0  0  0
    5.7977  -12.4720   27.0301 O   0  0  0  0  0  0  0  0  0  0  0  0
    7.1042  -11.9931   26.9386 C   0  0  0  0  0  0  0  0  0  0  0  0
    7.9060  -13.0224   26.1691 C   0  0  2  0  0  0  0  0  0  0  0  0
    7.1691  -13.5404   25.0375 N   0  0  0  0  0  0  0  0  0  0  0  0
    8.3055  -14.1481   27.0295 C   0  0  0  0  0  0  0  0  0  0  0  0
    7.8768  -15.2947   26.7865 O   0  0  0  0  0  0  0  0  0  0  0  0
    9.1469  -13.9450   28.0980 O   0  0  0  0  0  0  0  0  0  0  0  0
  2  3  2  0
  2  1  1  0
  4  2  1  0
  5  4  1  0
  6  5  1  0
  6  7  1  6
  8  6  1  0
  8  9  2  0
 10  8  1  0
 11 10  1  0
 11 12  1  0
 12 17  1  0
 13 12  2  0
 14 15  1  0
 16 15  1  1
 16 18  1  0
 17 16  1  0
 18 20  1  0
 19 18  2  0
M  END
$$$$
