QGS.pdb
     RDKit          3D

 20 19  0  0  1  0  0  0  0  0999 V2000
    9.3047  -12.8356   19.4184 N   0  0  0  0  0  0  0  0  0  0  0  0
    8.2626  -13.3616   18.5986 C   0  0  0  0  0  0  0  0  0  0  0  0
    7.3750  -12.5701   18.2329 O   0  0  0  0  0  0  0  0  0  0  0  0
    8.2779  -14.7674   18.2342 C   0  0  0  0  0  0  0  0  0  0  0  0
    9.3963  -15.6061   18.7123 C   0  0  0  0  0  0  0  0  0  0  0  0
    9.3089  -17.0735   18.5002 C   0  0  2  0  0  0  0  0  0  0  0  0
    8.1064  -17.7130   18.9409 N   0  0  0  0  0  0  0  0  0  0  0  0
   10.4610  -17.6913   19.2112 C   0  0  0  0  0  0  0  0  0  0  0  0
   11.6043  -17.2309   18.9030 O   0  0  0  0  0  0  0  0  0  0  0  0
   10.3928  -18.7107   20.1656 N   0  0  0  0  0  0  0  0  0  0  0  0
   11.5923  -19.2656   20.7844 C   0  0  0  0  0  0  0  0  0  0  0  0
   11.3793  -19.3223   22.2527 C   0  0  0  0  0  0  0  0  0  0  0  0
   10.3580  -18.7777   22.7949 O   0  0  0  0  0  0  0  0  0  0  0  0
   12.4755  -22.4622   24.2758 O   0  0  0  0  0  0  0  0  0  0  0  0
   12.7399  -21.3675   25.0980 C   0  0  0  0  0  0  0  0  0  0  0  0
   11.9712  -20.1892   24.5365 C   0  0  2  0  0  0  0  0  0  0  0  0
   12.2717  -19.9690   23.1390 N   0  0  0  0  0  0  0  0  0  0  0  0
   12.2578  -18.9532   25.2831 C   0  0  0  0  0  0  0  0  0  0  0  0
   12.9203  -18.0440   24.7428 O   0  0  0  0  0  0  0  0  0  0  0  0
   11.8010  -18.7938   26.5702 O   0  0  0  0  0  0  0  0  0  0  0  0
  2  3  2  0
  2  1  1  0
  4  2  1  0
  5  4  1  0
  6  5  1  0
  6  7  1  1
  8  6  1  0
  8  9  2  0
 10  8  1  0
 11 10  1  0
 11 12  1  0
 12 17  1  0
 13 12  2  0
 14 15  1  0
 16 15  1  1
 16 18  1  0
 17 16  1  0
 18 20  1  0
 19 18  2  0
M  END
$$$$
