QGS.pdb
     RDKit          3D

 20 19  0  0  1  0  0  0  0  0999 V2000
    7.5983  -12.5896   18.5068 N   0  0  0  0  0  0  0  0  0  0  0  0
    7.5772  -13.9905   18.2387 C   0  0  0  0  0  0  0  0  0  0  0  0
    8.0043  -14.3621   17.1308 O   0  0  0  0  0  0  0  0  0  0  0  0
    7.0678  -14.9051   19.2454 C   0  0  0  0  0  0  0  0  0  0  0  0
    7.8996  -16.0643   19.6285 C   0  0  0  0  0  0  0  0  0  0  0  0
    8.0040  -16.4025   21.0710 C   0  0  2  0  0  0  0  0  0  0  0  0
    6.8899  -16.0428   21.8946 N   0  0  0  0  0  0  0  0  0  0  0  0
    9.2194  -15.7233   21.5964 C   0  0  0  0  0  0  0  0  0  0  0  0
    9.0044  -14.7125   22.3355 O   0  0  0  0  0  0  0  0  0  0  0  0
   10.5448  -16.0943   21.3508 N   0  0  0  0  0  0  0  0  0  0  0  0
   11.6640  -15.4273   22.0081 C   0  0  0  0  0  0  0  0  0  0  0  0
   11.8911  -16.0781   23.3231 C   0  0  0  0  0  0  0  0  0  0  0  0
   12.8351  -15.6973   24.0961 O   0  0  0  0  0  0  0  0  0  0  0  0
    9.1110  -18.2663   25.3115 O   0  0  0  0  0  0  0  0  0  0  0  0
   10.2435  -17.8320   25.9994 C   0  0  0  0  0  0  0  0  0  0  0  0
   11.4009  -17.8640   25.0226 C   0  0  2  0  0  0  0  0  0  0  0  0
   11.0965  -17.1439   23.8058 N   0  0  0  0  0  0  0  0  0  0  0  0
   11.7750  -19.2447   24.6748 C   0  0  0  0  0  0  0  0  0  0  0  0
   12.3960  -19.9439   25.5012 O   0  0  0  0  0  0  0  0  0  0  0  0
   11.4451  -19.7686   23.4470 O   0  0  0  0  0  0  0  0  0  0  0  0
  2  3  2  0
  2  1  1  0
  4  2  1  0
  5  4  1  0
  6  5  1  0
  6  7  1  1
  8  6  1  0
  8  9  2  0
 10  8  1  0
 11 10  1  0
 11 12  1  0
 12 17  1  0
 13 12  2  0
 14 15  1  0
 16 15  1  1
 16 18  1  0
 17 16  1  0
 18 20  1  0
 19 18  2  0
M  END
$$$$
