QGS.pdb
     RDKit          3D

 20 19  0  0  1  0  0  0  0  0999 V2000
   12.5631  -20.2933   23.5374 N   0  0  0  0  0  0  0  0  0  0  0  0
   11.6293  -20.0435   22.4883 C   0  0  0  0  0  0  0  0  0  0  0  0
   11.1172  -21.0347   21.9375 O   0  0  0  0  0  0  0  0  0  0  0  0
   11.3228  -18.6744   22.1128 C   0  0  0  0  0  0  0  0  0  0  0  0
   10.3053  -18.4425   21.0670 C   0  0  0  0  0  0  0  0  0  0  0  0
    9.9771  -17.0383   20.7114 C   0  0  2  0  0  0  0  0  0  0  0  0
   11.0137  -16.0703   20.9054 N   0  0  0  0  0  0  0  0  0  0  0  0
    8.7992  -16.6401   21.5290 C   0  0  0  0  0  0  0  0  0  0  0  0
    7.7094  -17.2255   21.2392 O   0  0  0  0  0  0  0  0  0  0  0  0
    8.7908  -15.6990   22.5629 N   0  0  0  0  0  0  0  0  0  0  0  0
    7.5964  -15.4462   23.3624 C   0  0  0  0  0  0  0  0  0  0  0  0
    7.9137  -14.3925   24.3592 C   0  0  0  0  0  0  0  0  0  0  0  0
    9.0907  -13.9033   24.4536 O   0  0  0  0  0  0  0  0  0  0  0  0
    5.3088  -11.7309   25.8779 O   0  0  0  0  0  0  0  0  0  0  0  0
    6.0525  -12.2977   26.9123 C   0  0  0  0  0  0  0  0  0  0  0  0
    7.2911  -12.9095   26.2908 C   0  0  2  0  0  0  0  0  0  0  0  0
    6.9572  -13.8649   25.2575 N   0  0  0  0  0  0  0  0  0  0  0  0
    8.1276  -13.5776   27.3012 C   0  0  0  0  0  0  0  0  0  0  0  0
    8.3282  -14.8069   27.2232 O   0  0  0  0  0  0  0  0  0  0  0  0
    8.6889  -12.8572   28.3293 O   0  0  0  0  0  0  0  0  0  0  0  0
  2  3  2  0
  2  1  1  0
  4  2  1  0
  5  4  1  0
  6  5  1  0
  6  7  1  1
  8  6  1  0
  8  9  2  0
 10  8  1  0
 11 10  1  0
 11 12  1  0
 12 17  1  0
 13 12  2  0
 14 15  1  0
 16 15  1  1
 16 18  1  0
 17 16  1  0
 18 20  1  0
 19 18  2  0
M  END
$$$$
