QGS.pdb
     RDKit          3D

 20 19  0  0  1  0  0  0  0  0999 V2000
    6.7831  -13.3209   15.0417 N   0  0  0  0  0  0  0  0  0  0  0  0
    8.0484  -13.7255   15.5616 C   0  0  0  0  0  0  0  0  0  0  0  0
    8.9107  -14.0837   14.7393 O   0  0  0  0  0  0  0  0  0  0  0  0
    8.2730  -13.7058   16.9964 C   0  0  0  0  0  0  0  0  0  0  0  0
    9.2909  -14.6150   17.5619 C   0  0  0  0  0  0  0  0  0  0  0  0
    9.0764  -16.0779   17.4202 C   0  0  2  0  0  0  0  0  0  0  0  0
    7.7227  -16.5127   17.2538 N   0  0  0  0  0  0  0  0  0  0  0  0
    9.6348  -16.7255   18.6380 C   0  0  0  0  0  0  0  0  0  0  0  0
   10.8771  -16.5442   18.8329 O   0  0  0  0  0  0  0  0  0  0  0  0
    8.9253  -17.4980   19.5624 N   0  0  0  0  0  0  0  0  0  0  0  0
    9.5800  -18.1157   20.7111 C   0  0  0  0  0  0  0  0  0  0  0  0
    9.9123  -17.0503   21.6904 C   0  0  0  0  0  0  0  0  0  0  0  0
   10.8685  -16.2296   21.4768 O   0  0  0  0  0  0  0  0  0  0  0  0
    9.0105  -14.7232   25.8335 O   0  0  0  0  0  0  0  0  0  0  0  0
    8.5249  -15.6659   24.9280 C   0  0  0  0  0  0  0  0  0  0  0  0
    9.6266  -15.9307   23.9227 C   0  0  2  0  0  0  0  0  0  0  0  0
    9.2100  -16.8699   22.9047 N   0  0  0  0  0  0  0  0  0  0  0  0
   10.8401  -16.4480   24.5762 C   0  0  0  0  0  0  0  0  0  0  0  0
   11.1253  -17.6592   24.4809 O   0  0  0  0  0  0  0  0  0  0  0  0
   11.6606  -15.6065   25.2900 O   0  0  0  0  0  0  0  0  0  0  0  0
  2  3  2  0
  2  1  1  0
  4  2  1  0
  5  4  1  0
  6  5  1  0
  6  7  1  1
  8  6  1  0
  8  9  2  0
 10  8  1  0
 11 10  1  0
 11 12  1  0
 12 17  1  0
 13 12  2  0
 14 15  1  0
 16 15  1  1
 16 18  1  0
 17 16  1  0
 18 20  1  0
 19 18  2  0
M  END
$$$$
