QGS.pdb
     RDKit          3D

 20 19  0  0  1  0  0  0  0  0999 V2000
    7.2648  -15.1713   15.6656 N   0  0  0  0  0  0  0  0  0  0  0  0
    7.9381  -13.9415   15.9287 C   0  0  0  0  0  0  0  0  0  0  0  0
    8.9206  -13.6694   15.2156 O   0  0  0  0  0  0  0  0  0  0  0  0
    7.4621  -13.0780   16.9951 C   0  0  0  0  0  0  0  0  0  0  0  0
    8.3466  -12.8376   18.1537 C   0  0  0  0  0  0  0  0  0  0  0  0
    8.5477  -13.9470   19.1206 C   0  0  2  0  0  0  0  0  0  0  0  0
    7.5514  -14.0979   20.1373 N   0  0  0  0  0  0  0  0  0  0  0  0
    9.8644  -13.7258   19.7779 C   0  0  0  0  0  0  0  0  0  0  0  0
    9.8234  -13.1205   20.8942 O   0  0  0  0  0  0  0  0  0  0  0  0
   11.1116  -14.1178   19.2824 N   0  0  0  0  0  0  0  0  0  0  0  0
   12.3501  -13.8170   19.9933 C   0  0  0  0  0  0  0  0  0  0  0  0
   12.3662  -14.5955   21.2575 C   0  0  0  0  0  0  0  0  0  0  0  0
   12.6258  -14.0355   22.3767 O   0  0  0  0  0  0  0  0  0  0  0  0
    9.8116  -16.9930   22.6880 O   0  0  0  0  0  0  0  0  0  0  0  0
   10.9064  -16.4947   23.3935 C   0  0  0  0  0  0  0  0  0  0  0  0
   12.1366  -16.7420   22.5451 C   0  0  2  0  0  0  0  0  0  0  0  0
   12.1011  -15.9836   21.3141 N   0  0  0  0  0  0  0  0  0  0  0  0
   12.2881  -18.1693   22.2178 C   0  0  0  0  0  0  0  0  0  0  0  0
   12.6441  -18.9725   23.1041 O   0  0  0  0  0  0  0  0  0  0  0  0
   12.0401  -18.6229   20.9436 O   0  0  0  0  0  0  0  0  0  0  0  0
  2  3  2  0
  2  1  1  0
  4  2  1  0
  5  4  1  0
  6  5  1  0
  6  7  1  1
  8  6  1  0
  8  9  2  0
 10  8  1  0
 11 10  1  0
 11 12  1  0
 12 17  1  0
 13 12  2  0
 14 15  1  0
 16 15  1  6
 16 18  1  0
 17 16  1  0
 18 20  1  0
 19 18  2  0
M  END
$$$$
