QGS.pdb
     RDKit          3D

 20 19  0  0  1  0  0  0  0  0999 V2000
    9.0062  -12.3881   19.6119 N   0  0  0  0  0  0  0  0  0  0  0  0
    8.0307  -13.4256   19.5293 C   0  0  0  0  0  0  0  0  0  0  0  0
    6.8926  -13.1040   19.1427 O   0  0  0  0  0  0  0  0  0  0  0  0
    8.3960  -14.7833   19.8934 C   0  0  0  0  0  0  0  0  0  0  0  0
    7.3766  -15.6381   20.5359 C   0  0  0  0  0  0  0  0  0  0  0  0
    7.2517  -15.5841   22.0149 C   0  0  2  0  0  0  0  0  0  0  0  0
    7.1442  -14.2825   22.6007 N   0  0  0  0  0  0  0  0  0  0  0  0
    8.4486  -16.2612   22.5836 C   0  0  0  0  0  0  0  0  0  0  0  0
    8.9829  -17.1425   21.8405 O   0  0  0  0  0  0  0  0  0  0  0  0
    9.0201  -16.0158   23.8357 N   0  0  0  0  0  0  0  0  0  0  0  0
   10.1359  -16.8096   24.3402 C   0  0  0  0  0  0  0  0  0  0  0  0
   10.5164  -16.2874   25.6770 C   0  0  0  0  0  0  0  0  0  0  0  0
   11.4532  -16.8290   26.3573 O   0  0  0  0  0  0  0  0  0  0  0  0
    8.3071  -13.4501   27.3364 O   0  0  0  0  0  0  0  0  0  0  0  0
    9.5995  -13.3037   27.8390 C   0  0  0  0  0  0  0  0  0  0  0  0
   10.3550  -14.5747   27.5097 C   0  0  2  0  0  0  0  0  0  0  0  0
    9.8836  -15.1766   26.2820 N   0  0  0  0  0  0  0  0  0  0  0  0
   10.2455  -15.5637   28.5946 C   0  0  0  0  0  0  0  0  0  0  0  0
    9.6889  -16.6596   28.3784 O   0  0  0  0  0  0  0  0  0  0  0  0
   10.7516  -15.2885   29.8431 O   0  0  0  0  0  0  0  0  0  0  0  0
  2  3  2  0
  2  1  1  0
  4  2  1  0
  5  4  1  0
  6  5  1  0
  6  7  1  1
  8  6  1  0
  8  9  2  0
 10  8  1  0
 11 10  1  0
 11 12  1  0
 12 17  1  0
 13 12  2  0
 14 15  1  0
 16 15  1  1
 16 18  1  0
 17 16  1  0
 18 20  1  0
 19 18  2  0
M  END
$$$$
