QGS.pdb
     RDKit          3D

 20 19  0  0  1  0  0  0  0  0999 V2000
    9.0626  -20.0256   15.9502 N   0  0  0  0  0  0  0  0  0  0  0  0
    8.3426  -18.8287   16.2398 C   0  0  0  0  0  0  0  0  0  0  0  0
    8.7013  -17.7944   15.6486 O   0  0  0  0  0  0  0  0  0  0  0  0
    7.2470  -18.8643   17.1926 C   0  0  0  0  0  0  0  0  0  0  0  0
    7.0023  -17.6710   18.0285 C   0  0  0  0  0  0  0  0  0  0  0  0
    7.2236  -17.7869   19.4926 C   0  0  2  0  0  0  0  0  0  0  0  0
    6.2597  -18.5490   20.2269 N   0  0  0  0  0  0  0  0  0  0  0  0
    7.2543  -16.4053   20.0447 C   0  0  0  0  0  0  0  0  0  0  0  0
    6.9634  -15.4814   19.2226 O   0  0  0  0  0  0  0  0  0  0  0  0
    7.5690  -16.0474   21.3591 N   0  0  0  0  0  0  0  0  0  0  0  0
    7.4965  -14.6637   21.8172 C   0  0  0  0  0  0  0  0  0  0  0  0
    7.9579  -14.6118   23.2275 C   0  0  0  0  0  0  0  0  0  0  0  0
    8.0130  -13.5058   23.8657 O   0  0  0  0  0  0  0  0  0  0  0  0
    6.6807  -16.5630   25.8808 O   0  0  0  0  0  0  0  0  0  0  0  0
    7.6156  -15.6098   26.2829 C   0  0  0  0  0  0  0  0  0  0  0  0
    8.7907  -15.7055   25.3318 C   0  0  2  0  0  0  0  0  0  0  0  0
    8.3614  -15.7577   23.9516 N   0  0  0  0  0  0  0  0  0  0  0  0
    9.6188  -16.8892   25.6152 C   0  0  0  0  0  0  0  0  0  0  0  0
    9.7227  -17.7907   24.7585 O   0  0  0  0  0  0  0  0  0  0  0  0
   10.2778  -17.0082   26.8162 O   0  0  0  0  0  0  0  0  0  0  0  0
  2  3  2  0
  2  1  1  0
  4  2  1  0
  5  4  1  0
  6  5  1  0
  6  7  1  1
  8  6  1  0
  8  9  2  0
 10  8  1  0
 11 10  1  0
 11 12  1  0
 12 17  1  0
 13 12  2  0
 14 15  1  0
 16 15  1  1
 16 18  1  0
 17 16  1  0
 18 20  1  0
 19 18  2  0
M  END
$$$$
