QGS.pdb
     RDKit          3D

 20 19  0  0  1  0  0  0  0  0999 V2000
    7.6723  -18.5810   13.5982 N   0  0  0  0  0  0  0  0  0  0  0  0
    7.2544  -19.7468   14.3059 C   0  0  0  0  0  0  0  0  0  0  0  0
    7.2410  -20.8188   13.6745 O   0  0  0  0  0  0  0  0  0  0  0  0
    6.8680  -19.6378   15.7017 C   0  0  0  0  0  0  0  0  0  0  0  0
    6.8818  -18.3024   16.3335 C   0  0  0  0  0  0  0  0  0  0  0  0
    8.1858  -17.7622   16.7960 C   0  0  2  0  0  0  0  0  0  0  0  0
    9.3568  -18.4694   16.3745 N   0  0  0  0  0  0  0  0  0  0  0  0
    8.1534  -17.7453   18.2837 C   0  0  0  0  0  0  0  0  0  0  0  0
    7.2460  -17.0231   18.8026 O   0  0  0  0  0  0  0  0  0  0  0  0
    9.0163  -18.4394   19.1371 N   0  0  0  0  0  0  0  0  0  0  0  0
    8.8796  -18.3729   20.5885 C   0  0  0  0  0  0  0  0  0  0  0  0
    9.8577  -17.3833   21.1068 C   0  0  0  0  0  0  0  0  0  0  0  0
   10.7749  -16.9038   20.3569 O   0  0  0  0  0  0  0  0  0  0  0  0
    9.8314  -16.2722   25.0587 O   0  0  0  0  0  0  0  0  0  0  0  0
   10.3815  -15.3068   24.2162 C   0  0  0  0  0  0  0  0  0  0  0  0
   10.8569  -16.0202   22.9673 C   0  0  2  0  0  0  0  0  0  0  0  0
    9.8458  -16.9095   22.4393 N   0  0  0  0  0  0  0  0  0  0  0  0
   12.0825  -16.7948   23.2222 C   0  0  0  0  0  0  0  0  0  0  0  0
   12.0402  -18.0419   23.2069 O   0  0  0  0  0  0  0  0  0  0  0  0
   13.2723  -16.1541   23.4769 O   0  0  0  0  0  0  0  0  0  0  0  0
  2  3  2  0
  2  1  1  0
  4  2  1  0
  5  4  1  0
  6  5  1  0
  6  7  1  1
  8  6  1  0
  8  9  2  0
 10  8  1  0
 11 10  1  0
 11 12  1  0
 12 17  1  0
 13 12  2  0
 14 15  1  0
 16 15  1  1
 16 18  1  0
 17 16  1  0
 18 20  1  0
 19 18  2  0
M  END
$$$$
