QGS.pdb
     RDKit          3D

 20 19  0  0  1  0  0  0  0  0999 V2000
    6.8923  -20.0988   26.6200 N   0  0  0  0  0  0  0  0  0  0  0  0
    7.9569  -20.0286   25.6731 C   0  0  0  0  0  0  0  0  0  0  0  0
    9.1149  -20.1473   26.1124 O   0  0  0  0  0  0  0  0  0  0  0  0
    7.6535  -19.8238   24.2676 C   0  0  0  0  0  0  0  0  0  0  0  0
    6.2422  -19.6380   23.8722 C   0  0  0  0  0  0  0  0  0  0  0  0
    5.9041  -18.4705   23.0186 C   0  0  2  0  0  0  0  0  0  0  0  0
    6.1252  -18.6208   21.6124 N   0  0  0  0  0  0  0  0  0  0  0  0
    6.7135  -17.3201   23.5043 C   0  0  0  0  0  0  0  0  0  0  0  0
    6.3318  -16.8078   24.6025 O   0  0  0  0  0  0  0  0  0  0  0  0
    7.8305  -16.7688   22.8692 N   0  0  0  0  0  0  0  0  0  0  0  0
    8.6826  -15.7852   23.5297 C   0  0  0  0  0  0  0  0  0  0  0  0
    7.8687  -14.5769   23.8164 C   0  0  0  0  0  0  0  0  0  0  0  0
    7.4053  -13.8514   22.8717 O   0  0  0  0  0  0  0  0  0  0  0  0
    5.2682  -13.0986   26.2864 O   0  0  0  0  0  0  0  0  0  0  0  0
    6.0134  -12.2695   25.4487 C   0  0  0  0  0  0  0  0  0  0  0  0
    7.4472  -12.7558   25.4967 C   0  0  2  0  0  0  0  0  0  0  0  0
    7.5538  -14.1500   25.1274 N   0  0  0  0  0  0  0  0  0  0  0  0
    8.0338  -12.5740   26.8347 C   0  0  0  0  0  0  0  0  0  0  0  0
    8.4572  -13.5650   27.4640 O   0  0  0  0  0  0  0  0  0  0  0  0
    8.1181  -11.3211   27.3950 O   0  0  0  0  0  0  0  0  0  0  0  0
  2  3  2  0
  2  1  1  0
  4  2  1  0
  5  4  1  0
  6  5  1  0
  6  7  1  6
  8  6  1  0
  8  9  2  0
 10  8  1  0
 11 10  1  0
 11 12  1  0
 12 17  1  0
 13 12  2  0
 14 15  1  0
 16 15  1  1
 16 18  1  0
 17 16  1  0
 18 20  1  0
 19 18  2  0
M  END
$$$$
