QGS.pdb
     RDKit          3D

 20 19  0  0  1  0  0  0  0  0999 V2000
    4.9255  -20.6361   24.2877 N   0  0  0  0  0  0  0  0  0  0  0  0
    6.0071  -21.0609   23.4603 C   0  0  0  0  0  0  0  0  0  0  0  0
    6.5520  -22.1412   23.7500 O   0  0  0  0  0  0  0  0  0  0  0  0
    6.4206  -20.2333   22.3406 C   0  0  0  0  0  0  0  0  0  0  0  0
    5.7310  -18.9446   22.1256 C   0  0  0  0  0  0  0  0  0  0  0  0
    6.1222  -18.1318   20.9457 C   0  0  2  0  0  0  0  0  0  0  0  0
    6.4183  -18.8504   19.7436 N   0  0  0  0  0  0  0  0  0  0  0  0
    7.3227  -17.3421   21.3325 C   0  0  0  0  0  0  0  0  0  0  0  0
    8.3416  -17.4966   20.5894 O   0  0  0  0  0  0  0  0  0  0  0  0
    7.4215  -16.4669   22.4183 N   0  0  0  0  0  0  0  0  0  0  0  0
    8.6427  -15.7160   22.6915 C   0  0  0  0  0  0  0  0  0  0  0  0
    9.6201  -16.6289   23.3363 C   0  0  0  0  0  0  0  0  0  0  0  0
    9.3212  -17.8449   23.5924 O   0  0  0  0  0  0  0  0  0  0  0  0
   13.4156  -16.4112   22.6449 O   0  0  0  0  0  0  0  0  0  0  0  0
   13.3160  -16.6796   24.0096 C   0  0  0  0  0  0  0  0  0  0  0  0
   11.8963  -17.1369   24.2740 C   0  0  2  0  0  0  0  0  0  0  0  0
   10.9250  -16.2280   23.7061 N   0  0  0  0  0  0  0  0  0  0  0  0
   11.6326  -17.2712   25.7161 C   0  0  0  0  0  0  0  0  0  0  0  0
   10.7898  -16.5303   26.2622 O   0  0  0  0  0  0  0  0  0  0  0  0
   12.3080  -18.2064   26.4645 O   0  0  0  0  0  0  0  0  0  0  0  0
  2  3  2  0
  2  1  1  0
  4  2  1  0
  5  4  1  0
  6  5  1  0
  6  7  1  6
  8  6  1  0
  8  9  2  0
 10  8  1  0
 11 10  1  0
 11 12  1  0
 12 17  1  0
 13 12  2  0
 14 15  1  0
 16 15  1  1
 16 18  1  0
 17 16  1  0
 18 20  1  0
 19 18  2  0
M  END
$$$$
