YQK.pdb
     RDKit          3D

 31 31  0  0  1  0  0  0  0  0999 V2000
   29.3312  -19.7102   -3.9349 O   0  0  0  0  0  0  0  0  0  0  0  0
   28.4847  -19.8098   -5.0354 C   0  0  0  0  0  0  0  0  0  0  0  0
   28.1064  -18.6488   -5.6513 C   0  0  0  0  0  0  0  0  0  0  0  0
   27.2832  -18.6753   -6.7286 C   0  0  0  0  0  0  0  0  0  0  0  0
   26.8184  -19.8712   -7.2152 C   0  0  0  0  0  0  0  0  0  0  0  0
   25.9180  -19.8989   -8.3937 C   0  0  0  0  0  0  0  0  0  0  0  0
   26.5353  -20.7870   -9.4751 C   0  0  2  0  0  0  0  0  0  0  0  0
   27.9424  -20.5272   -9.5502 N   0  0  0  0  0  0  0  0  0  0  0  0
   25.8492  -20.3868  -10.7539 C   0  0  0  0  0  0  0  0  0  0  0  0
   26.0890  -19.2974  -11.3258 O   0  0  0  0  0  0  0  0  0  0  0  0
   27.1921  -21.0346   -6.6052 C   0  0  0  0  0  0  0  0  0  0  0  0
   28.0161  -21.0073   -5.5268 C   0  0  0  0  0  0  0  0  0  0  0  0
   26.9434  -20.8978  -15.8470 N   0  0  0  0  0  0  0  0  0  0  0  0
   26.8786  -22.1051  -15.1259 C   0  0  0  0  0  0  0  0  0  0  0  0
   27.6145  -23.0563  -15.4690 O   0  0  0  0  0  0  0  0  0  0  0  0
   25.9469  -22.2877  -13.9494 C   0  0  0  0  0  0  0  0  0  0  0  0
   25.2613  -21.0044  -13.7185 C   0  0  0  0  0  0  0  0  0  0  0  0
   24.2460  -20.9530  -12.6366 C   0  0  2  0  0  0  0  0  0  0  0  0
   24.9020  -21.2503  -11.3457 N   0  0  0  0  0  0  0  0  0  0  0  0
   23.1102  -21.8609  -12.7130 C   0  0  0  0  0  0  0  0  0  0  0  0
   23.2422  -23.0557  -12.3523 O   0  0  0  0  0  0  0  0  0  0  0  0
   21.8518  -21.4346  -13.1780 N   0  0  0  0  0  0  0  0  0  0  0  0
   20.7065  -22.4053  -13.2667 C   0  0  1  0  0  0  0  0  0  0  0  0
   19.4867  -21.5846  -13.2875 C   0  0  0  0  0  0  0  0  0  0  0  0
   18.1405  -22.1094  -13.3466 C   0  0  0  0  0  0  0  0  0  0  0  0
   17.4841  -22.8830  -12.3015 C   0  0  0  0  0  0  0  0  0  0  0  0
   16.0977  -23.3026  -12.5902 C   0  0  0  0  0  0  0  0  0  0  0  0
   15.5491  -24.1451  -11.5140 N   0  0  0  0  0  0  0  0  0  0  0  0
   20.8538  -23.1563  -14.5398 C   0  0  0  0  0  0  0  0  0  0  0  0
   20.3470  -24.2999  -14.6246 O   0  0  0  0  0  0  0  0  0  0  0  0
   21.5447  -22.5941  -15.6178 O   0  0  0  0  0  0  0  0  0  0  0  0
  2  1  1  0
  3  2  2  0
  4  3  1  0
  5 11  1  0
  5  4  2  0
  6  5  1  0
  7  9  1  0
  7  6  1  0
  7  8  1  6
  9 10  2  0
 11 12  2  0
 12  2  1  0
 13 14  1  0
 14 15  2  0
 16 14  1  0
 17 16  1  0
 18 17  1  6
 19 18  1  0
 19  9  1  0
 20 18  1  0
 21 20  2  0
 22 20  1  0
 23 29  1  0
 23 22  1  0
 23 24  1  6
 25 24  1  0
 26 25  1  0
 26 27  1  0
 27 28  1  0
 29 31  1  0
 30 29  2  0
M  END
$$$$
