YQK.pdb
     RDKit          3D

 31 31  0  0  1  0  0  0  0  0999 V2000
   24.9026  -21.2328   -7.0698 O   0  0  0  0  0  0  0  0  0  0  0  0
   24.9325  -20.8654   -8.4121 C   0  0  0  0  0  0  0  0  0  0  0  0
   26.1376  -20.4936   -8.9410 C   0  0  0  0  0  0  0  0  0  0  0  0
   26.2362  -20.1242  -10.2420 C   0  0  0  0  0  0  0  0  0  0  0  0
   25.1242  -20.1191  -11.0461 C   0  0  0  0  0  0  0  0  0  0  0  0
   25.2333  -19.7149  -12.4692 C   0  0  0  0  0  0  0  0  0  0  0  0
   24.8634  -20.9036  -13.3575 C   0  0  2  0  0  0  0  0  0  0  0  0
   25.9230  -21.8673  -13.3184 N   0  0  0  0  0  0  0  0  0  0  0  0
   24.7133  -20.3308  -14.7415 C   0  0  0  0  0  0  0  0  0  0  0  0
   25.6881  -19.8712  -15.3816 O   0  0  0  0  0  0  0  0  0  0  0  0
   23.9174  -20.4892  -10.5248 C   0  0  0  0  0  0  0  0  0  0  0  0
   23.8195  -20.8588   -9.2223 C   0  0  0  0  0  0  0  0  0  0  0  0
   25.2310  -19.5949  -19.1462 N   0  0  0  0  0  0  0  0  0  0  0  0
   25.6083  -20.8270  -18.5793 C   0  0  0  0  0  0  0  0  0  0  0  0
   26.7601  -21.2652  -18.7931 O   0  0  0  0  0  0  0  0  0  0  0  0
   24.6645  -21.6372  -17.7201 C   0  0  0  0  0  0  0  0  0  0  0  0
   23.3727  -20.9298  -17.6853 C   0  0  0  0  0  0  0  0  0  0  0  0
   23.2340  -19.7995  -16.7327 C   0  0  2  0  0  0  0  0  0  0  0  0
   23.4434  -20.3000  -15.3576 N   0  0  0  0  0  0  0  0  0  0  0  0
   21.9685  -19.0804  -16.6956 C   0  0  0  0  0  0  0  0  0  0  0  0
   21.0230  -19.5186  -15.9961 O   0  0  0  0  0  0  0  0  0  0  0  0
   21.7712  -17.8912  -17.4225 N   0  0  0  0  0  0  0  0  0  0  0  0
   20.4652  -17.1515  -17.3284 C   0  0  1  0  0  0  0  0  0  0  0  0
   20.7255  -15.8091  -17.8686 C   0  0  0  0  0  0  0  0  0  0  0  0
   19.7280  -14.7729  -18.0189 C   0  0  0  0  0  0  0  0  0  0  0  0
   19.9383  -13.4768  -18.6495 C   0  0  0  0  0  0  0  0  0  0  0  0
   18.7685  -12.5752  -18.6660 C   0  0  0  0  0  0  0  0  0  0  0  0
   19.1085  -11.2532  -19.2189 N   0  0  0  0  0  0  0  0  0  0  0  0
   19.4798  -17.8738  -18.1733 C   0  0  0  0  0  0  0  0  0  0  0  0
   19.8932  -18.4937  -19.1815 O   0  0  0  0  0  0  0  0  0  0  0  0
   18.1204  -17.8586  -17.8458 O   0  0  0  0  0  0  0  0  0  0  0  0
  2  1  1  0
  3  2  2  0
  4  3  1  0
  5 11  1  0
  5  4  2  0
  6  5  1  0
  7  9  1  0
  7  6  1  0
  7  8  1  6
  9 10  2  0
 11 12  2  0
 12  2  1  0
 13 14  1  0
 14 15  2  0
 16 14  1  0
 17 16  1  0
 18 17  1  6
 19 18  1  0
 19  9  1  0
 20 18  1  0
 21 20  2  0
 22 20  1  0
 23 29  1  0
 23 22  1  0
 23 24  1  6
 25 24  1  0
 26 25  1  0
 26 27  1  0
 27 28  1  0
 29 31  1  0
 30 29  2  0
M  END
$$$$
