YQK.pdb
     RDKit          3D

 31 31  0  0  1  0  0  0  0  0999 V2000
   19.2694  -17.3741  -15.2831 O   0  0  0  0  0  0  0  0  0  0  0  0
   19.5077  -16.0124  -15.4457 C   0  0  0  0  0  0  0  0  0  0  0  0
   18.4410  -15.2147  -15.7560 C   0  0  0  0  0  0  0  0  0  0  0  0
   18.6044  -13.8796  -15.9281 C   0  0  0  0  0  0  0  0  0  0  0  0
   19.8458  -13.3110  -15.7924 C   0  0  0  0  0  0  0  0  0  0  0  0
   20.0232  -11.8504  -15.9808 C   0  0  0  0  0  0  0  0  0  0  0  0
   20.1684  -11.5517  -17.4737 C   0  0  2  0  0  0  0  0  0  0  0  0
   21.3989  -12.1120  -17.9478 N   0  0  0  0  0  0  0  0  0  0  0  0
   20.1911  -10.0500  -17.5756 C   0  0  0  0  0  0  0  0  0  0  0  0
   21.2493   -9.4126  -17.7881 O   0  0  0  0  0  0  0  0  0  0  0  0
   20.9156  -14.1014  -15.4826 C   0  0  0  0  0  0  0  0  0  0  0  0
   20.7514  -15.4379  -15.3106 C   0  0  0  0  0  0  0  0  0  0  0  0
   21.9583   -6.1795  -18.4378 N   0  0  0  0  0  0  0  0  0  0  0  0
   20.9073   -5.4744  -19.0542 C   0  0  0  0  0  0  0  0  0  0  0  0
   21.0724   -4.2680  -19.3399 O   0  0  0  0  0  0  0  0  0  0  0  0
   19.5851   -6.1300  -19.3816 C   0  0  0  0  0  0  0  0  0  0  0  0
   19.6473   -7.5234  -18.9074 C   0  0  0  0  0  0  0  0  0  0  0  0
   18.9187   -7.8568  -17.6575 C   0  0  2  0  0  0  0  0  0  0  0  0
   18.9941   -9.3156  -17.4304 N   0  0  0  0  0  0  0  0  0  0  0  0
   17.5037   -7.5236  -17.5743 C   0  0  0  0  0  0  0  0  0  0  0  0
   16.6665   -8.1926  -18.2275 O   0  0  0  0  0  0  0  0  0  0  0  0
   17.0382   -6.4666  -16.7697 N   0  0  0  0  0  0  0  0  0  0  0  0
   15.5788   -6.1035  -16.7626 C   0  0  1  0  0  0  0  0  0  0  0  0
   15.4925   -4.8047  -16.0789 C   0  0  0  0  0  0  0  0  0  0  0  0
   15.2601   -4.6324  -14.6620 C   0  0  0  0  0  0  0  0  0  0  0  0
   15.2199   -3.3585  -13.9569 C   0  0  0  0  0  0  0  0  0  0  0  0
   14.7826   -3.4201  -12.5475 C   0  0  0  0  0  0  0  0  0  0  0  0
   14.8492   -2.0994  -11.8991 N   0  0  0  0  0  0  0  0  0  0  0  0
   15.1412   -5.9807  -18.1768 C   0  0  0  0  0  0  0  0  0  0  0  0
   13.9457   -6.2309  -18.4595 O   0  0  0  0  0  0  0  0  0  0  0  0
   16.0487   -5.5938  -19.1678 O   0  0  0  0  0  0  0  0  0  0  0  0
  2  1  1  0
  3  2  2  0
  4  3  1  0
  5 11  1  0
  5  4  2  0
  6  5  1  0
  7  9  1  0
  7  6  1  0
  7  8  1  1
  9 10  2  0
 11 12  2  0
 12  2  1  0
 13 14  1  0
 14 15  2  0
 16 14  1  0
 17 16  1  0
 18 17  1  6
 19 18  1  0
 19  9  1  0
 20 18  1  0
 21 20  2  0
 22 20  1  0
 23 29  1  0
 23 22  1  0
 23 24  1  1
 25 24  1  0
 26 25  1  0
 26 27  1  0
 27 28  1  0
 29 31  1  0
 30 29  2  0
M  END
$$$$
