YQK.pdb
     RDKit          3D

 31 31  0  0  1  0  0  0  0  0999 V2000
   31.9183  -32.8795  -16.1353 O   0  0  0  0  0  0  0  0  0  0  0  0
   30.9206  -31.9700  -16.4742 C   0  0  0  0  0  0  0  0  0  0  0  0
   29.7159  -32.0839  -15.8370 C   0  0  0  0  0  0  0  0  0  0  0  0
   28.7014  -31.2299  -16.1205 C   0  0  0  0  0  0  0  0  0  0  0  0
   28.8721  -30.2378  -17.0531 C   0  0  0  0  0  0  0  0  0  0  0  0
   27.7617  -29.3041  -17.3623 C   0  0  0  0  0  0  0  0  0  0  0  0
   26.8317  -29.9539  -18.3880 C   0  0  2  0  0  0  0  0  0  0  0  0
   27.5093  -30.0424  -19.6474 N   0  0  0  0  0  0  0  0  0  0  0  0
   25.6446  -29.0330  -18.4838 C   0  0  0  0  0  0  0  0  0  0  0  0
   25.5155  -28.2077  -19.4183 O   0  0  0  0  0  0  0  0  0  0  0  0
   30.0725  -30.1181  -17.6933 C   0  0  0  0  0  0  0  0  0  0  0  0
   31.0875  -30.9734  -17.4090 C   0  0  0  0  0  0  0  0  0  0  0  0
   21.4617  -31.9967  -18.9467 N   0  0  0  0  0  0  0  0  0  0  0  0
   20.7368  -30.8528  -19.3309 C   0  0  0  0  0  0  0  0  0  0  0  0
   19.5329  -30.9758  -19.6466 O   0  0  0  0  0  0  0  0  0  0  0  0
   21.3684  -29.4799  -19.3740 C   0  0  0  0  0  0  0  0  0  0  0  0
   22.7680  -29.6175  -18.9354 C   0  0  0  0  0  0  0  0  0  0  0  0
   23.2162  -28.7788  -17.7954 C   0  0  2  0  0  0  0  0  0  0  0  0
   24.6325  -29.0834  -17.5008 N   0  0  0  0  0  0  0  0  0  0  0  0
   22.5181  -28.9123  -16.5246 C   0  0  0  0  0  0  0  0  0  0  0  0
   22.6345  -29.9691  -15.8576 O   0  0  0  0  0  0  0  0  0  0  0  0
   21.7122  -27.8789  -16.0106 N   0  0  0  0  0  0  0  0  0  0  0  0
   20.9459  -28.0781  -14.7321 C   0  0  1  0  0  0  0  0  0  0  0  0
   20.2712  -26.7991  -14.4662 C   0  0  0  0  0  0  0  0  0  0  0  0
   19.4375  -26.5301  -13.3156 C   0  0  0  0  0  0  0  0  0  0  0  0
   19.8639  -26.5947  -11.9243 C   0  0  0  0  0  0  0  0  0  0  0  0
   18.8095  -26.3508  -10.9192 C   0  0  0  0  0  0  0  0  0  0  0  0
   19.3690  -26.2293   -9.5624 N   0  0  0  0  0  0  0  0  0  0  0  0
   19.9510  -29.1553  -14.9697 C   0  0  0  0  0  0  0  0  0  0  0  0
   19.4638  -29.2802  -16.1182 O   0  0  0  0  0  0  0  0  0  0  0  0
   19.5696  -30.0090  -13.9300 O   0  0  0  0  0  0  0  0  0  0  0  0
  2  1  1  0
  3  2  2  0
  4  3  1  0
  5 11  1  0
  5  4  2  0
  6  5  1  0
  7  9  1  0
  7  6  1  0
  7  8  1  6
  9 10  2  0
 11 12  2  0
 12  2  1  0
 13 14  1  0
 14 15  2  0
 16 14  1  0
 17 16  1  0
 18 17  1  6
 19 18  1  0
 19  9  1  0
 20 18  1  0
 21 20  2  0
 22 20  1  0
 23 29  1  0
 23 22  1  0
 23 24  1  6
 25 24  1  0
 26 25  1  0
 26 27  1  0
 27 28  1  0
 29 31  1  0
 30 29  2  0
M  END
$$$$
