YQK.pdb
     RDKit          3D

 31 31  0  0  1  0  0  0  0  0999 V2000
   27.7118  -10.1696  -16.4673 O   0  0  0  0  0  0  0  0  0  0  0  0
   27.2300  -11.4745  -16.5194 C   0  0  0  0  0  0  0  0  0  0  0  0
   27.3187  -12.2289  -15.3821 C   0  0  0  0  0  0  0  0  0  0  0  0
   26.8679  -13.5077  -15.3651 C   0  0  0  0  0  0  0  0  0  0  0  0
   26.3156  -14.0620  -16.4923 C   0  0  0  0  0  0  0  0  0  0  0  0
   25.8229  -15.4610  -16.4725 C   0  0  0  0  0  0  0  0  0  0  0  0
   26.9902  -16.4074  -16.7565 C   0  0  2  0  0  0  0  0  0  0  0  0
   27.4867  -16.1584  -18.0773 N   0  0  0  0  0  0  0  0  0  0  0  0
   26.4088  -17.7924  -16.6567 C   0  0  0  0  0  0  0  0  0  0  0  0
   26.2681  -18.5297  -17.6607 O   0  0  0  0  0  0  0  0  0  0  0  0
   26.2238  -13.3145  -17.6316 C   0  0  0  0  0  0  0  0  0  0  0  0
   26.6753  -12.0344  -17.6480 C   0  0  0  0  0  0  0  0  0  0  0  0
   28.9091  -21.6337  -17.1194 N   0  0  0  0  0  0  0  0  0  0  0  0
   28.4644  -22.3357  -15.9832 C   0  0  0  0  0  0  0  0  0  0  0  0
   28.7821  -23.5381  -15.8508 O   0  0  0  0  0  0  0  0  0  0  0  0
   27.6147  -21.6814  -14.9177 C   0  0  0  0  0  0  0  0  0  0  0  0
   27.3533  -20.2953  -15.3428 C   0  0  0  0  0  0  0  0  0  0  0  0
   26.0003  -19.7413  -15.0848 C   0  0  2  0  0  0  0  0  0  0  0  0
   26.0023  -18.2976  -15.4026 N   0  0  0  0  0  0  0  0  0  0  0  0
   25.4598  -19.8412  -13.7366 C   0  0  0  0  0  0  0  0  0  0  0  0
   26.0464  -19.2690  -12.7860 O   0  0  0  0  0  0  0  0  0  0  0  0
   24.2822  -20.5622  -13.4627 N   0  0  0  0  0  0  0  0  0  0  0  0
   23.7502  -20.6422  -12.0584 C   0  0  1  0  0  0  0  0  0  0  0  0
   22.3688  -21.1308  -12.1807 C   0  0  0  0  0  0  0  0  0  0  0  0
   21.5018  -21.4405  -11.0655 C   0  0  0  0  0  0  0  0  0  0  0  0
   20.1668  -22.0151  -11.1620 C   0  0  0  0  0  0  0  0  0  0  0  0
   19.5103  -22.3292   -9.8767 C   0  0  0  0  0  0  0  0  0  0  0  0
   18.1679  -22.9008  -10.0770 N   0  0  0  0  0  0  0  0  0  0  0  0
   24.5876  -21.6201  -11.3174 C   0  0  0  0  0  0  0  0  0  0  0  0
   25.1257  -22.5554  -11.9558 O   0  0  0  0  0  0  0  0  0  0  0  0
   24.7680  -21.4949   -9.9364 O   0  0  0  0  0  0  0  0  0  0  0  0
  2  1  1  0
  3  2  2  0
  4  3  1  0
  5 11  1  0
  5  4  2  0
  6  5  1  0
  7  9  1  0
  7  6  1  0
  7  8  1  6
  9 10  2  0
 11 12  2  0
 12  2  1  0
 13 14  1  0
 14 15  2  0
 16 14  1  0
 17 16  1  0
 18 17  1  1
 19 18  1  0
 19  9  1  0
 20 18  1  0
 21 20  2  0
 22 20  1  0
 23 29  1  0
 23 22  1  0
 23 24  1  6
 25 24  1  0
 26 25  1  0
 26 27  1  0
 27 28  1  0
 29 31  1  0
 30 29  2  0
M  END
$$$$
