YQK.pdb
     RDKit          3D

 31 31  0  0  1  0  0  0  0  0999 V2000
   29.3157  -18.0728   -3.4201 O   0  0  0  0  0  0  0  0  0  0  0  0
   28.7661  -18.6164   -4.5777 C   0  0  0  0  0  0  0  0  0  0  0  0
   28.5840  -19.9713   -4.6174 C   0  0  0  0  0  0  0  0  0  0  0  0
   28.0533  -20.5647   -5.7151 C   0  0  0  0  0  0  0  0  0  0  0  0
   27.6914  -19.8105   -6.8028 C   0  0  0  0  0  0  0  0  0  0  0  0
   27.1110  -20.4607   -8.0031 C   0  0  0  0  0  0  0  0  0  0  0  0
   25.5999  -20.2250   -8.0193 C   0  0  2  0  0  0  0  0  0  0  0  0
   25.0232  -20.7901   -6.8356 N   0  0  0  0  0  0  0  0  0  0  0  0
   25.1023  -20.9376   -9.2484 C   0  0  0  0  0  0  0  0  0  0  0  0
   24.3585  -21.9442   -9.1795 O   0  0  0  0  0  0  0  0  0  0  0  0
   27.8703  -18.4569   -6.7703 C   0  0  0  0  0  0  0  0  0  0  0  0
   28.4017  -17.8636   -5.6711 C   0  0  0  0  0  0  0  0  0  0  0  0
   20.9759  -21.3172  -10.8973 N   0  0  0  0  0  0  0  0  0  0  0  0
   21.0886  -20.6835  -12.1493 C   0  0  0  0  0  0  0  0  0  0  0  0
   20.1352  -20.7600  -12.9552 O   0  0  0  0  0  0  0  0  0  0  0  0
   22.3262  -19.9134  -12.5502 C   0  0  0  0  0  0  0  0  0  0  0  0
   23.2880  -20.0023  -11.4378 C   0  0  0  0  0  0  0  0  0  0  0  0
   24.6048  -20.6285  -11.7167 C   0  0  2  0  0  0  0  0  0  0  0  0
   25.4725  -20.4748  -10.5298 N   0  0  0  0  0  0  0  0  0  0  0  0
   25.3858  -20.1225  -12.8366 C   0  0  0  0  0  0  0  0  0  0  0  0
   25.6844  -18.9046  -12.8882 O   0  0  0  0  0  0  0  0  0  0  0  0
   25.8278  -20.9670  -13.8724 N   0  0  0  0  0  0  0  0  0  0  0  0
   26.6567  -20.4159  -14.9998 C   0  0  1  0  0  0  0  0  0  0  0  0
   27.3326  -21.5740  -15.6031 C   0  0  0  0  0  0  0  0  0  0  0  0
   28.1854  -21.5157  -16.7696 C   0  0  0  0  0  0  0  0  0  0  0  0
   28.8077  -22.6583  -17.4243 C   0  0  0  0  0  0  0  0  0  0  0  0
   29.7276  -22.3376  -18.5344 C   0  0  0  0  0  0  0  0  0  0  0  0
   30.3010  -23.5542  -19.1344 N   0  0  0  0  0  0  0  0  0  0  0  0
   25.7273  -19.7868  -15.9728 C   0  0  0  0  0  0  0  0  0  0  0  0
   24.5331  -20.1680  -15.9956 O   0  0  0  0  0  0  0  0  0  0  0  0
   26.1809  -18.7906  -16.8431 O   0  0  0  0  0  0  0  0  0  0  0  0
  2  1  1  0
  3  2  2  0
  4  3  1  0
  5 11  1  0
  5  4  2  0
  6  5  1  0
  7  9  1  0
  7  6  1  0
  7  8  1  1
  9 10  2  0
 11 12  2  0
 12  2  1  0
 13 14  1  0
 14 15  2  0
 16 14  1  0
 17 16  1  0
 18 17  1  1
 19 18  1  0
 19  9  1  0
 20 18  1  0
 21 20  2  0
 22 20  1  0
 23 29  1  0
 23 22  1  0
 23 24  1  6
 25 24  1  0
 26 25  1  0
 26 27  1  0
 27 28  1  0
 29 31  1  0
 30 29  2  0
M  END
$$$$
