YQK.pdb
     RDKit          3D

 31 31  0  0  1  0  0  0  0  0999 V2000
   29.9324  -19.5298   -4.8536 O   0  0  0  0  0  0  0  0  0  0  0  0
   28.9324  -19.8277   -5.7750 C   0  0  0  0  0  0  0  0  0  0  0  0
   29.1468  -20.8761   -6.6265 C   0  0  0  0  0  0  0  0  0  0  0  0
   28.2130  -21.2191   -7.5481 C   0  0  0  0  0  0  0  0  0  0  0  0
   27.0381  -20.5160   -7.6376 C   0  0  0  0  0  0  0  0  0  0  0  0
   26.0174  -20.8921   -8.6461 C   0  0  0  0  0  0  0  0  0  0  0  0
   26.6091  -20.7206  -10.0459 C   0  0  2  0  0  0  0  0  0  0  0  0
   27.4632  -19.5702  -10.0576 N   0  0  0  0  0  0  0  0  0  0  0  0
   25.4251  -20.5158  -10.9527 C   0  0  0  0  0  0  0  0  0  0  0  0
   24.6561  -19.5332  -10.8327 O   0  0  0  0  0  0  0  0  0  0  0  0
   26.8172  -19.4678   -6.7905 C   0  0  0  0  0  0  0  0  0  0  0  0
   27.7524  -19.1250   -5.8682 C   0  0  0  0  0  0  0  0  0  0  0  0
   26.2791  -21.1959  -16.6434 N   0  0  0  0  0  0  0  0  0  0  0  0
   24.9031  -20.9179  -16.7474 C   0  0  0  0  0  0  0  0  0  0  0  0
   24.4150  -20.6864  -17.8754 O   0  0  0  0  0  0  0  0  0  0  0  0
   23.9966  -20.8903  -15.5378 C   0  0  0  0  0  0  0  0  0  0  0  0
   24.8278  -21.1523  -14.3500 C   0  0  0  0  0  0  0  0  0  0  0  0
   24.1458  -21.2046  -13.0324 C   0  0  2  0  0  0  0  0  0  0  0  0
   25.1530  -21.4476  -11.9779 N   0  0  0  0  0  0  0  0  0  0  0  0
   23.1179  -22.2152  -12.8275 C   0  0  0  0  0  0  0  0  0  0  0  0
   23.4455  -23.3759  -12.4802 O   0  0  0  0  0  0  0  0  0  0  0  0
   21.7511  -21.9270  -13.0020 N   0  0  0  0  0  0  0  0  0  0  0  0
   20.7237  -23.0188  -12.8837 C   0  0  1  0  0  0  0  0  0  0  0  0
   19.6874  -22.4972  -11.9805 C   0  0  0  0  0  0  0  0  0  0  0  0
   18.4889  -23.2118  -11.6006 C   0  0  0  0  0  0  0  0  0  0  0  0
   17.4485  -22.7126  -10.7117 C   0  0  0  0  0  0  0  0  0  0  0  0
   16.2940  -23.6112  -10.5088 C   0  0  0  0  0  0  0  0  0  0  0  0
   15.4328  -23.1499   -9.4067 N   0  0  0  0  0  0  0  0  0  0  0  0
   20.1651  -23.2566  -14.2394 C   0  0  0  0  0  0  0  0  0  0  0  0
   20.2519  -22.3429  -15.0936 O   0  0  0  0  0  0  0  0  0  0  0  0
   19.5560  -24.4763  -14.5504 O   0  0  0  0  0  0  0  0  0  0  0  0
  2  1  1  0
  3  2  2  0
  4  3  1  0
  5 11  1  0
  5  4  2  0
  6  5  1  0
  7  9  1  0
  7  6  1  0
  7  8  1  1
  9 10  2  0
 11 12  2  0
 12  2  1  0
 13 14  1  0
 14 15  2  0
 16 14  1  0
 17 16  1  0
 18 17  1  6
 19 18  1  0
 19  9  1  0
 20 18  1  0
 21 20  2  0
 22 20  1  0
 23 29  1  0
 23 22  1  0
 23 24  1  1
 25 24  1  0
 26 25  1  0
 26 27  1  0
 27 28  1  0
 29 31  1  0
 30 29  2  0
M  END
$$$$
