YQK.pdb
     RDKit          3D

 31 31  0  0  1  0  0  0  0  0999 V2000
   18.9512  -17.3511  -22.9174 O   0  0  0  0  0  0  0  0  0  0  0  0
   18.7130  -16.3136  -22.0204 C   0  0  0  0  0  0  0  0  0  0  0  0
   17.5717  -16.3743  -21.2695 C   0  0  0  0  0  0  0  0  0  0  0  0
   17.2797  -15.3960  -20.3769 C   0  0  0  0  0  0  0  0  0  0  0  0
   18.1287  -14.3301  -20.2160 C   0  0  0  0  0  0  0  0  0  0  0  0
   17.8083  -13.2606  -19.2393 C   0  0  0  0  0  0  0  0  0  0  0  0
   18.6087  -13.4963  -17.9576 C   0  0  2  0  0  0  0  0  0  0  0  0
   18.1421  -14.6946  -17.3256 N   0  0  0  0  0  0  0  0  0  0  0  0
   18.3333  -12.2948  -17.0935 C   0  0  0  0  0  0  0  0  0  0  0  0
   17.3307  -12.2289  -16.3441 O   0  0  0  0  0  0  0  0  0  0  0  0
   19.2703  -14.2629  -20.9625 C   0  0  0  0  0  0  0  0  0  0  0  0
   19.5620  -15.2425  -21.8559 C   0  0  0  0  0  0  0  0  0  0  0  0
   22.5038   -9.4724  -14.0497 N   0  0  0  0  0  0  0  0  0  0  0  0
   21.5772   -8.4148  -13.9819 C   0  0  0  0  0  0  0  0  0  0  0  0
   21.8444   -7.4194  -13.2733 O   0  0  0  0  0  0  0  0  0  0  0  0
   20.2690   -8.4446  -14.7391 C   0  0  0  0  0  0  0  0  0  0  0  0
   20.2290   -9.6972  -15.5134 C   0  0  0  0  0  0  0  0  0  0  0  0
   19.0016   -9.9800  -16.2993 C   0  0  2  0  0  0  0  0  0  0  0  0
   19.2191  -11.1956  -17.1118 N   0  0  0  0  0  0  0  0  0  0  0  0
   18.5327   -8.9670  -17.2342 C   0  0  0  0  0  0  0  0  0  0  0  0
   19.0225   -8.9097  -18.3883 O   0  0  0  0  0  0  0  0  0  0  0  0
   17.5305   -8.0428  -16.8832 N   0  0  0  0  0  0  0  0  0  0  0  0
   17.1138   -6.9703  -17.8515 C   0  0  1  0  0  0  0  0  0  0  0  0
   15.6472   -7.0441  -17.9241 C   0  0  0  0  0  0  0  0  0  0  0  0
   14.8029   -6.0631  -18.5692 C   0  0  0  0  0  0  0  0  0  0  0  0
   13.3513   -6.1276  -18.6708 C   0  0  0  0  0  0  0  0  0  0  0  0
   12.7090   -5.0065  -19.3864 C   0  0  0  0  0  0  0  0  0  0  0  0
   12.9428   -3.7215  -18.7059 N   0  0  0  0  0  0  0  0  0  0  0  0
   17.5450   -5.6656  -17.2872 C   0  0  0  0  0  0  0  0  0  0  0  0
   17.6338   -5.5497  -16.0419 O   0  0  0  0  0  0  0  0  0  0  0  0
   17.8440   -4.5925  -18.1325 O   0  0  0  0  0  0  0  0  0  0  0  0
  2  1  1  0
  3  2  2  0
  4  3  1  0
  5 11  1  0
  5  4  2  0
  6  5  1  0
  7  9  1  0
  7  6  1  0
  7  8  1  1
  9 10  2  0
 11 12  2  0
 12  2  1  0
 13 14  1  0
 14 15  2  0
 16 14  1  0
 17 16  1  0
 18 17  1  6
 19 18  1  0
 19  9  1  0
 20 18  1  0
 21 20  2  0
 22 20  1  0
 23 29  1  0
 23 22  1  0
 23 24  1  1
 25 24  1  0
 26 25  1  0
 26 27  1  0
 27 28  1  0
 29 31  1  0
 30 29  2  0
M  END
$$$$
