YQK.pdb
     RDKit          3D

 31 31  0  0  1  0  0  0  0  0999 V2000
   27.8920  -24.8603  -17.3523 O   0  0  0  0  0  0  0  0  0  0  0  0
   26.8225  -24.4496  -16.5615 C   0  0  0  0  0  0  0  0  0  0  0  0
   26.5928  -23.1057  -16.4542 C   0  0  0  0  0  0  0  0  0  0  0  0
   25.5675  -22.6387  -15.6996 C   0  0  0  0  0  0  0  0  0  0  0  0
   24.7454  -23.5118  -15.0326 C   0  0  0  0  0  0  0  0  0  0  0  0
   23.6240  -22.9998  -14.2075 C   0  0  0  0  0  0  0  0  0  0  0  0
   22.2994  -23.4128  -14.8506 C   0  0  2  0  0  0  0  0  0  0  0  0
   22.1334  -22.7019  -16.0835 N   0  0  0  0  0  0  0  0  0  0  0  0
   21.2384  -23.0169  -13.8587 C   0  0  0  0  0  0  0  0  0  0  0  0
   20.8996  -21.8224  -13.6870 O   0  0  0  0  0  0  0  0  0  0  0  0
   24.9688  -24.8552  -15.1353 C   0  0  0  0  0  0  0  0  0  0  0  0
   25.9954  -25.3220  -15.8907 C   0  0  0  0  0  0  0  0  0  0  0  0
   15.6581  -22.8772  -12.7702 N   0  0  0  0  0  0  0  0  0  0  0  0
   16.4852  -21.8376  -13.2355 C   0  0  0  0  0  0  0  0  0  0  0  0
   16.0092  -20.6858  -13.3418 O   0  0  0  0  0  0  0  0  0  0  0  0
   17.9311  -22.0697  -13.6109 C   0  0  0  0  0  0  0  0  0  0  0  0
   18.2487  -23.4781  -13.3176 C   0  0  0  0  0  0  0  0  0  0  0  0
   19.3380  -23.7486  -12.3459 C   0  0  2  0  0  0  0  0  0  0  0  0
   20.5912  -24.0059  -13.0865 N   0  0  0  0  0  0  0  0  0  0  0  0
   19.1865  -24.8753  -11.4362 C   0  0  0  0  0  0  0  0  0  0  0  0
   19.5097  -26.0281  -11.8127 O   0  0  0  0  0  0  0  0  0  0  0  0
   18.6894  -24.7101  -10.1296 N   0  0  0  0  0  0  0  0  0  0  0  0
   18.4191  -25.9089   -9.2628 C   0  0  1  0  0  0  0  0  0  0  0  0
   18.1077  -25.3762   -7.9283 C   0  0  0  0  0  0  0  0  0  0  0  0
   17.7638  -26.1824   -6.7780 C   0  0  0  0  0  0  0  0  0  0  0  0
   17.3227  -25.6742   -5.4862 C   0  0  0  0  0  0  0  0  0  0  0  0
   16.8429  -26.6907   -4.5280 C   0  0  0  0  0  0  0  0  0  0  0  0
   17.3285  -26.4239   -3.1635 N   0  0  0  0  0  0  0  0  0  0  0  0
   17.2434  -26.6166   -9.8314 C   0  0  0  0  0  0  0  0  0  0  0  0
   16.1473  -26.5417   -9.2273 O   0  0  0  0  0  0  0  0  0  0  0  0
   17.3628  -27.3496  -11.0162 O   0  0  0  0  0  0  0  0  0  0  0  0
  2  1  1  0
  3  2  2  0
  4  3  1  0
  5 11  1  0
  5  4  2  0
  6  5  1  0
  7  9  1  0
  7  6  1  0
  7  8  1  6
  9 10  2  0
 11 12  2  0
 12  2  1  0
 13 14  1  0
 14 15  2  0
 16 14  1  0
 17 16  1  0
 18 17  1  6
 19 18  1  0
 19  9  1  0
 20 18  1  0
 21 20  2  0
 22 20  1  0
 23 29  1  0
 23 22  1  0
 23 24  1  1
 25 24  1  0
 26 25  1  0
 26 27  1  0
 27 28  1  0
 29 31  1  0
 30 29  2  0
M  END
$$$$
