YQK.pdb
     RDKit          3D

 31 31  0  0  1  0  0  0  0  0999 V2000
   32.9670  -11.2988  -17.6418 O   0  0  0  0  0  0  0  0  0  0  0  0
   31.5901  -11.1144  -17.5529 C   0  0  0  0  0  0  0  0  0  0  0  0
   31.0593  -10.0044  -18.1499 C   0  0  0  0  0  0  0  0  0  0  0  0
   29.7254   -9.7651  -18.1006 C   0  0  0  0  0  0  0  0  0  0  0  0
   28.8896  -10.6368  -17.4490 C   0  0  0  0  0  0  0  0  0  0  0  0
   27.4306  -10.3740  -17.3958 C   0  0  0  0  0  0  0  0  0  0  0  0
   26.6871  -11.5420  -18.0454 C   0  0  2  0  0  0  0  0  0  0  0  0
   27.1908  -11.7405  -19.3720 N   0  0  0  0  0  0  0  0  0  0  0  0
   25.2425  -11.1201  -18.0802 C   0  0  0  0  0  0  0  0  0  0  0  0
   24.7153  -10.6332  -19.1080 O   0  0  0  0  0  0  0  0  0  0  0  0
   29.4127  -11.7474  -16.8506 C   0  0  0  0  0  0  0  0  0  0  0  0
   30.7480  -11.9862  -16.9003 C   0  0  0  0  0  0  0  0  0  0  0  0
   21.1267  -14.3946  -15.3720 N   0  0  0  0  0  0  0  0  0  0  0  0
   20.2853  -13.2884  -15.5957 C   0  0  0  0  0  0  0  0  0  0  0  0
   19.0579  -13.4086  -15.3873 O   0  0  0  0  0  0  0  0  0  0  0  0
   20.8190  -11.9595  -16.0800 C   0  0  0  0  0  0  0  0  0  0  0  0
   22.2614  -12.1218  -16.3317 C   0  0  0  0  0  0  0  0  0  0  0  0
   22.9889  -10.9716  -16.9249 C   0  0  2  0  0  0  0  0  0  0  0  0
   24.4370  -11.2684  -16.9303 N   0  0  0  0  0  0  0  0  0  0  0  0
   22.8617   -9.6704  -16.2839 C   0  0  0  0  0  0  0  0  0  0  0  0
   23.5553   -9.4036  -15.2724 O   0  0  0  0  0  0  0  0  0  0  0  0
   21.9801   -8.6876  -16.7721 N   0  0  0  0  0  0  0  0  0  0  0  0
   21.8837   -7.3492  -16.0932 C   0  0  1  0  0  0  0  0  0  0  0  0
   21.3045   -6.4358  -17.0891 C   0  0  0  0  0  0  0  0  0  0  0  0
   20.9772   -5.0486  -16.8440 C   0  0  0  0  0  0  0  0  0  0  0  0
   20.4172   -4.1232  -17.8196 C   0  0  0  0  0  0  0  0  0  0  0  0
   20.2671   -2.7261  -17.3644 C   0  0  0  0  0  0  0  0  0  0  0  0
   19.7509   -1.8575  -18.4358 N   0  0  0  0  0  0  0  0  0  0  0  0
   20.9722   -7.5018  -14.9303 C   0  0  0  0  0  0  0  0  0  0  0  0
   20.0410   -8.3381  -15.0027 O   0  0  0  0  0  0  0  0  0  0  0  0
   21.1540   -6.7256  -13.7814 O   0  0  0  0  0  0  0  0  0  0  0  0
  2  1  1  0
  3  2  2  0
  4  3  1  0
  5 11  1  0
  5  4  2  0
  6  5  1  0
  7  9  1  0
  7  6  1  0
  7  8  1  6
  9 10  2  0
 11 12  2  0
 12  2  1  0
 13 14  1  0
 14 15  2  0
 16 14  1  0
 17 16  1  0
 18 17  1  1
 19 18  1  0
 19  9  1  0
 20 18  1  0
 21 20  2  0
 22 20  1  0
 23 29  1  0
 23 22  1  0
 23 24  1  6
 25 24  1  0
 26 25  1  0
 26 27  1  0
 27 28  1  0
 29 31  1  0
 30 29  2  0
M  END
$$$$
