YQK.pdb
     RDKit          3D

 31 31  0  0  1  0  0  0  0  0999 V2000
   21.4326  -15.8156  -23.5373 O   0  0  0  0  0  0  0  0  0  0  0  0
   21.6227  -16.7383  -22.5126 C   0  0  0  0  0  0  0  0  0  0  0  0
   20.7871  -16.6671  -21.4323 C   0  0  0  0  0  0  0  0  0  0  0  0
   20.9183  -17.5361  -20.3996 C   0  0  0  0  0  0  0  0  0  0  0  0
   21.8941  -18.5005  -20.4263 C   0  0  0  0  0  0  0  0  0  0  0  0
   22.0366  -19.4506  -19.2960 C   0  0  0  0  0  0  0  0  0  0  0  0
   22.9672  -18.8433  -18.2453 C   0  0  2  0  0  0  0  0  0  0  0  0
   24.3068  -18.8323  -18.7536 N   0  0  0  0  0  0  0  0  0  0  0  0
   22.8574  -19.7505  -17.0490 C   0  0  0  0  0  0  0  0  0  0  0  0
   23.7516  -20.5790  -16.7569 O   0  0  0  0  0  0  0  0  0  0  0  0
   22.7321  -18.5775  -21.5019 C   0  0  0  0  0  0  0  0  0  0  0  0
   22.6003  -17.7073  -22.5353 C   0  0  0  0  0  0  0  0  0  0  0  0
   19.8059  -19.3689  -10.5811 N   0  0  0  0  0  0  0  0  0  0  0  0
   20.5360  -18.9586  -11.7126 C   0  0  0  0  0  0  0  0  0  0  0  0
   20.4066  -17.7848  -12.1245 O   0  0  0  0  0  0  0  0  0  0  0  0
   21.4717  -19.8928  -12.4457 C   0  0  0  0  0  0  0  0  0  0  0  0
   21.6163  -19.3907  -13.8231 C   0  0  0  0  0  0  0  0  0  0  0  0
   21.6349  -20.3907  -14.9203 C   0  0  2  0  0  0  0  0  0  0  0  0
   21.7199  -19.6832  -16.2155 N   0  0  0  0  0  0  0  0  0  0  0  0
   20.5024  -21.2970  -15.0466 C   0  0  0  0  0  0  0  0  0  0  0  0
   19.4207  -20.8795  -15.5270 O   0  0  0  0  0  0  0  0  0  0  0  0
   20.5848  -22.6448  -14.6486 N   0  0  0  0  0  0  0  0  0  0  0  0
   19.3808  -23.5405  -14.7468 C   0  0  1  0  0  0  0  0  0  0  0  0
   19.8840  -24.9095  -14.5617 C   0  0  0  0  0  0  0  0  0  0  0  0
   19.0774  -26.1055  -14.6635 C   0  0  0  0  0  0  0  0  0  0  0  0
   19.5506  -27.4684  -14.4626 C   0  0  0  0  0  0  0  0  0  0  0  0
   18.5439  -28.5313  -14.6589 C   0  0  0  0  0  0  0  0  0  0  0  0
   19.1502  -29.8721  -14.6001 N   0  0  0  0  0  0  0  0  0  0  0  0
   18.4557  -23.1694  -13.6454 C   0  0  0  0  0  0  0  0  0  0  0  0
   17.2206  -23.2360  -13.8503 O   0  0  0  0  0  0  0  0  0  0  0  0
   18.9581  -22.7549  -12.4080 O   0  0  0  0  0  0  0  0  0  0  0  0
  2  1  1  0
  3  2  2  0
  4  3  1  0
  5 11  1  0
  5  4  2  0
  6  5  1  0
  7  9  1  0
  7  6  1  0
  7  8  1  6
  9 10  2  0
 11 12  2  0
 12  2  1  0
 13 14  1  0
 14 15  2  0
 16 14  1  0
 17 16  1  0
 18 17  1  1
 19 18  1  0
 19  9  1  0
 20 18  1  0
 21 20  2  0
 22 20  1  0
 23 29  1  0
 23 22  1  0
 23 24  1  1
 25 24  1  0
 26 25  1  0
 26 27  1  0
 27 28  1  0
 29 31  1  0
 30 29  2  0
M  END
$$$$
