EPQ.pdb
     RDKit          3D

 26 26  0  0  1  0  0  0  0  0999 V2000
    8.2312  -13.5918   20.5227 N   0  0  0  0  0  0  0  0  0  0  0  0
    7.3627  -13.8748   21.6544 C   0  0  1  0  0  0  0  0  0  0  0  0
    6.6490  -15.1558   21.3460 C   0  0  0  0  0  0  0  0  0  0  0  0
    7.5168  -16.3463   21.1489 C   0  0  0  0  0  0  0  0  0  0  0  0
    6.7201  -17.5744   20.9786 C   0  0  0  0  0  0  0  0  0  0  0  0
    5.9568  -18.0884   21.8041 O   0  0  0  0  0  0  0  0  0  0  0  0
    8.1647  -13.9276   22.9014 C   0  0  0  0  0  0  0  0  0  0  0  0
    9.4131  -14.0232   22.7480 O   0  0  0  0  0  0  0  0  0  0  0  0
    6.8515  -18.2211   19.7397 O   0  0  0  0  0  0  0  0  0  0  0  0
    7.6124  -13.8774   24.1957 N   0  0  0  0  0  0  0  0  0  0  0  0
    6.2079  -13.8445   24.5607 C   0  0  0  0  0  0  0  0  0  0  0  0
    6.1428  -13.6805   26.0510 C   0  0  0  0  0  0  0  0  0  0  0  0
    7.4972  -13.0839   26.3941 C   0  0  0  0  0  0  0  0  0  0  0  0
    8.3816  -13.8506   25.4277 C   0  0  1  0  0  0  0  0  0  0  0  0
    8.5465  -15.2156   25.9962 C   0  0  0  0  0  0  0  0  0  0  0  0
    7.7534  -16.1510   25.8081 O   0  0  0  0  0  0  0  0  0  0  0  0
   12.4141  -16.4480   30.6859 N   0  0  0  0  0  0  0  0  0  0  0  0
   12.1427  -17.7824   30.2512 C   0  0  0  0  0  0  0  0  0  0  0  0
   12.5625  -18.7852   30.8686 O   0  0  0  0  0  0  0  0  0  0  0  0
   11.3207  -17.9735   29.0040 C   0  0  0  0  0  0  0  0  0  0  0  0
   10.9969  -16.6350   28.4235 C   0  0  0  0  0  0  0  0  0  0  0  0
   10.1044  -16.7724   27.2124 C   0  0  2  0  0  0  0  0  0  0  0  0
    9.6935  -15.4468   26.8061 N   0  0  0  0  0  0  0  0  0  0  0  0
    8.8681  -17.5520   27.5485 C   0  0  0  0  0  0  0  0  0  0  0  0
    7.8867  -17.0114   28.1404 O   0  0  0  0  0  0  0  0  0  0  0  0
    8.7371  -18.8957   27.2307 O   0  0  0  0  0  0  0  0  0  0  0  0
  2  3  1  0
  2  1  1  6
  4  5  1  0
  4  3  1  0
  5  9  1  0
  6  5  2  0
  7  2  1  0
  8  7  2  0
 10  7  1  0
 11 10  1  0
 12 13  1  0
 12 11  1  0
 13 14  1  0
 14 15  1  1
 14 10  1  0
 15 23  1  0
 16 15  2  0
 17 18  1  0
 18 19  2  0
 18 20  1  0
 20 21  1  0
 22 21  1  1
 22 24  1  0
 23 22  1  0
 24 25  2  0
 24 26  1  0
M  END
$$$$
