EPQ.pdb
     RDKit          3D

 26 26  0  0  1  0  0  0  0  0999 V2000
    9.3739  -16.0893   15.7349 N   0  0  0  0  0  0  0  0  0  0  0  0
    8.5494  -16.3001   16.9142 C   0  0  1  0  0  0  0  0  0  0  0  0
    8.3269  -17.7773   17.0317 C   0  0  0  0  0  0  0  0  0  0  0  0
    7.6697  -18.2330   18.2846 C   0  0  0  0  0  0  0  0  0  0  0  0
    6.3546  -18.8412   18.0154 C   0  0  0  0  0  0  0  0  0  0  0  0
    6.0681  -19.6244   17.1028 O   0  0  0  0  0  0  0  0  0  0  0  0
    9.2095  -15.7031   18.1012 C   0  0  0  0  0  0  0  0  0  0  0  0
   10.4490  -15.9131   18.2040 O   0  0  0  0  0  0  0  0  0  0  0  0
    5.3239  -18.4841   18.8989 O   0  0  0  0  0  0  0  0  0  0  0  0
    8.5370  -14.9431   19.0773 N   0  0  0  0  0  0  0  0  0  0  0  0
    7.1290  -14.5920   19.1143 C   0  0  0  0  0  0  0  0  0  0  0  0
    6.9318  -13.6815   20.2908 C   0  0  0  0  0  0  0  0  0  0  0  0
    8.3246  -13.1276   20.5384 C   0  0  0  0  0  0  0  0  0  0  0  0
    9.1599  -14.3627   20.2543 C   0  0  1  0  0  0  0  0  0  0  0  0
    9.0184  -15.2514   21.4392 C   0  0  0  0  0  0  0  0  0  0  0  0
    8.0343  -15.9755   21.6556 O   0  0  0  0  0  0  0  0  0  0  0  0
   15.0372  -16.4231   24.2560 N   0  0  0  0  0  0  0  0  0  0  0  0
   14.1275  -16.3101   23.1592 C   0  0  0  0  0  0  0  0  0  0  0  0
   14.4475  -16.6181   21.9906 O   0  0  0  0  0  0  0  0  0  0  0  0
   12.7373  -15.8009   23.4344 C   0  0  0  0  0  0  0  0  0  0  0  0
   11.7475  -16.8508   23.0454 C   0  0  0  0  0  0  0  0  0  0  0  0
   10.3329  -16.3700   23.2696 C   0  0  2  0  0  0  0  0  0  0  0  0
   10.0899  -15.2599   22.3754 N   0  0  0  0  0  0  0  0  0  0  0  0
   10.1561  -15.8738   24.6739 C   0  0  0  0  0  0  0  0  0  0  0  0
   10.0629  -14.6365   24.9304 O   0  0  0  0  0  0  0  0  0  0  0  0
   10.0861  -16.7387   25.7559 O   0  0  0  0  0  0  0  0  0  0  0  0
  2  3  1  0
  2  1  1  6
  4  5  1  0
  4  3  1  0
  5  9  1  0
  6  5  2  0
  7  2  1  0
  8  7  2  0
 10  7  1  0
 11 10  1  0
 12 13  1  0
 12 11  1  0
 13 14  1  0
 14 15  1  1
 14 10  1  0
 15 23  1  0
 16 15  2  0
 17 18  1  0
 18 19  2  0
 18 20  1  0
 20 21  1  0
 22 21  1  1
 22 24  1  0
 23 22  1  0
 24 25  2  0
 24 26  1  0
M  END
$$$$
