EPQ.pdb
     RDKit          3D

 26 26  0  0  1  0  0  0  0  0999 V2000
   11.4759  -13.6561   17.9536 N   0  0  0  0  0  0  0  0  0  0  0  0
   10.2963  -14.3470   18.4496 C   0  0  1  0  0  0  0  0  0  0  0  0
   10.4625  -15.7957   18.1041 C   0  0  0  0  0  0  0  0  0  0  0  0
   11.6079  -16.4860   18.7526 C   0  0  0  0  0  0  0  0  0  0  0  0
   11.6478  -17.9164   18.3997 C   0  0  0  0  0  0  0  0  0  0  0  0
   12.1671  -18.8305   19.0499 O   0  0  0  0  0  0  0  0  0  0  0  0
   10.1431  -14.0976   19.9041 C   0  0  0  0  0  0  0  0  0  0  0  0
   11.1722  -13.6779   20.5007 O   0  0  0  0  0  0  0  0  0  0  0  0
   11.0246  -18.2651   17.1912 O   0  0  0  0  0  0  0  0  0  0  0  0
    8.9458  -14.3017   20.6164 N   0  0  0  0  0  0  0  0  0  0  0  0
    7.6899  -14.8246   20.1100 C   0  0  0  0  0  0  0  0  0  0  0  0
    6.6936  -14.7411   21.2292 C   0  0  0  0  0  0  0  0  0  0  0  0
    7.2830  -13.6774   22.1399 C   0  0  0  0  0  0  0  0  0  0  0  0
    8.7586  -14.0147   22.0281 C   0  0  1  0  0  0  0  0  0  0  0  0
    8.9808  -15.2256   22.8637 C   0  0  0  0  0  0  0  0  0  0  0  0
    8.8391  -16.3896   22.4583 O   0  0  0  0  0  0  0  0  0  0  0  0
   11.5206  -14.4254   28.5518 N   0  0  0  0  0  0  0  0  0  0  0  0
   10.1781  -14.9106   28.6258 C   0  0  0  0  0  0  0  0  0  0  0  0
    9.4995  -14.8431   29.6736 O   0  0  0  0  0  0  0  0  0  0  0  0
    9.5711  -15.5225   27.3909 C   0  0  0  0  0  0  0  0  0  0  0  0
   10.5475  -15.4177   26.2644 C   0  0  0  0  0  0  0  0  0  0  0  0
    9.9970  -16.0554   25.0104 C   0  0  2  0  0  0  0  0  0  0  0  0
    9.3815  -15.0178   24.2132 N   0  0  0  0  0  0  0  0  0  0  0  0
    8.9381  -17.0629   25.3469 C   0  0  0  0  0  0  0  0  0  0  0  0
    9.2373  -18.2217   25.7630 O   0  0  0  0  0  0  0  0  0  0  0  0
    7.5864  -16.7790   25.2204 O   0  0  0  0  0  0  0  0  0  0  0  0
  2  3  1  0
  2  1  1  1
  4  5  1  0
  4  3  1  0
  5  9  1  0
  6  5  2  0
  7  2  1  0
  8  7  2  0
 10  7  1  0
 11 10  1  0
 12 13  1  0
 12 11  1  0
 13 14  1  0
 14 15  1  1
 14 10  1  0
 15 23  1  0
 16 15  2  0
 17 18  1  0
 18 19  2  0
 18 20  1  0
 20 21  1  0
 22 21  1  1
 22 24  1  0
 23 22  1  0
 24 25  2  0
 24 26  1  0
M  END
$$$$
