EPQ.pdb
     RDKit          3D

 26 26  0  0  1  0  0  0  0  0999 V2000
    9.6970  -15.7053   15.0959 N   0  0  0  0  0  0  0  0  0  0  0  0
    8.8203  -15.6927   16.2562 C   0  0  1  0  0  0  0  0  0  0  0  0
    8.3979  -17.1100   16.4982 C   0  0  0  0  0  0  0  0  0  0  0  0
    7.6783  -17.7689   15.3771 C   0  0  0  0  0  0  0  0  0  0  0  0
    7.2409  -19.1288   15.7397 C   0  0  0  0  0  0  0  0  0  0  0  0
    7.3853  -19.6923   16.8305 O   0  0  0  0  0  0  0  0  0  0  0  0
    9.5227  -15.0776   17.4091 C   0  0  0  0  0  0  0  0  0  0  0  0
   10.7827  -15.1227   17.3724 O   0  0  0  0  0  0  0  0  0  0  0  0
    6.5909  -19.8519   14.7273 O   0  0  0  0  0  0  0  0  0  0  0  0
    8.8676  -14.4706   18.4978 N   0  0  0  0  0  0  0  0  0  0  0  0
    7.4379  -14.3477   18.7170 C   0  0  0  0  0  0  0  0  0  0  0  0
    7.2506  -13.5248   19.9579 C   0  0  0  0  0  0  0  0  0  0  0  0
    8.5628  -12.7678   20.0736 C   0  0  0  0  0  0  0  0  0  0  0  0
    9.5349  -13.8440   19.6257 C   0  0  1  0  0  0  0  0  0  0  0  0
    9.6770  -14.7880   20.7670 C   0  0  0  0  0  0  0  0  0  0  0  0
    8.9043  -15.7321   20.9929 O   0  0  0  0  0  0  0  0  0  0  0  0
   15.9658  -15.7802   24.2216 N   0  0  0  0  0  0  0  0  0  0  0  0
   15.3175  -15.5798   22.9634 C   0  0  0  0  0  0  0  0  0  0  0  0
   15.8442  -14.9272   22.0362 O   0  0  0  0  0  0  0  0  0  0  0  0
   13.9519  -16.1812   22.7603 C   0  0  0  0  0  0  0  0  0  0  0  0
   13.0309  -15.1313   22.2284 C   0  0  0  0  0  0  0  0  0  0  0  0
   11.6217  -15.6612   22.1031 C   0  0  2  0  0  0  0  0  0  0  0  0
   10.7756  -14.5808   21.6472 N   0  0  0  0  0  0  0  0  0  0  0  0
   11.1045  -16.1168   23.4352 C   0  0  0  0  0  0  0  0  0  0  0  0
   10.2687  -15.4260   24.0907 O   0  0  0  0  0  0  0  0  0  0  0  0
   11.5121  -17.3098   24.0132 O   0  0  0  0  0  0  0  0  0  0  0  0
  2  3  1  0
  2  1  1  6
  4  5  1  0
  4  3  1  0
  5  9  1  0
  6  5  2  0
  7  2  1  0
  8  7  2  0
 10  7  1  0
 11 10  1  0
 12 13  1  0
 12 11  1  0
 13 14  1  0
 14 15  1  1
 14 10  1  0
 15 23  1  0
 16 15  2  0
 17 18  1  0
 18 19  2  0
 18 20  1  0
 20 21  1  0
 22 21  1  1
 22 24  1  0
 23 22  1  0
 24 25  2  0
 24 26  1  0
M  END
$$$$
