EPQ.pdb
     RDKit          3D

 26 26  0  0  1  0  0  0  0  0999 V2000
    8.9896  -15.7844   14.5862 N   0  0  0  0  0  0  0  0  0  0  0  0
    8.2455  -15.6662   15.8301 C   0  0  1  0  0  0  0  0  0  0  0  0
    7.8354  -17.0522   16.2257 C   0  0  0  0  0  0  0  0  0  0  0  0
    6.9525  -17.7628   15.2641 C   0  0  0  0  0  0  0  0  0  0  0  0
    6.5096  -19.0639   15.7959 C   0  0  0  0  0  0  0  0  0  0  0  0
    5.3917  -19.3453   16.2423 O   0  0  0  0  0  0  0  0  0  0  0  0
    9.0771  -14.9798   16.8490 C   0  0  0  0  0  0  0  0  0  0  0  0
   10.3197  -14.9761   16.6321 O   0  0  0  0  0  0  0  0  0  0  0  0
    7.4714  -20.0863   15.7889 O   0  0  0  0  0  0  0  0  0  0  0  0
    8.5578  -14.3581   18.0007 N   0  0  0  0  0  0  0  0  0  0  0  0
    7.1701  -14.2837   18.4201 C   0  0  0  0  0  0  0  0  0  0  0  0
    7.1255  -13.4220   19.6479 C   0  0  0  0  0  0  0  0  0  0  0  0
    8.4055  -12.6096   19.5484 C   0  0  0  0  0  0  0  0  0  0  0  0
    9.3508  -13.6627   18.9997 C   0  0  1  0  0  0  0  0  0  0  0  0
    9.6967  -14.5559   20.1383 C   0  0  0  0  0  0  0  0  0  0  0  0
    9.0305  -15.5466   20.4762 O   0  0  0  0  0  0  0  0  0  0  0  0
   15.6667  -13.5973   20.3406 N   0  0  0  0  0  0  0  0  0  0  0  0
   15.6614  -14.8746   20.9823 C   0  0  0  0  0  0  0  0  0  0  0  0
   16.7098  -15.4271   21.3808 O   0  0  0  0  0  0  0  0  0  0  0  0
   14.3398  -15.5689   21.1795 C   0  0  0  0  0  0  0  0  0  0  0  0
   13.2350  -14.6105   20.8730 C   0  0  0  0  0  0  0  0  0  0  0  0
   11.8880  -15.2219   21.1797 C   0  0  2  0  0  0  0  0  0  0  0  0
   10.8707  -14.2396   20.8774 N   0  0  0  0  0  0  0  0  0  0  0  0
   11.7775  -15.5620   22.6362 C   0  0  0  0  0  0  0  0  0  0  0  0
   11.1852  -14.7933   23.4510 O   0  0  0  0  0  0  0  0  0  0  0  0
   12.3145  -16.7278   23.1618 O   0  0  0  0  0  0  0  0  0  0  0  0
  2  3  1  0
  2  1  1  6
  4  5  1  0
  4  3  1  0
  5  9  1  0
  6  5  2  0
  7  2  1  0
  8  7  2  0
 10  7  1  0
 11 10  1  0
 12 13  1  0
 12 11  1  0
 13 14  1  0
 14 15  1  1
 14 10  1  0
 15 23  1  0
 16 15  2  0
 17 18  1  0
 18 19  2  0
 18 20  1  0
 20 21  1  0
 22 21  1  1
 22 24  1  0
 23 22  1  0
 24 25  2  0
 24 26  1  0
M  END
$$$$
