EPQ.pdb
     RDKit          3D

 26 26  0  0  1  0  0  0  0  0999 V2000
   10.9103  -16.6441   18.0795 N   0  0  0  0  0  0  0  0  0  0  0  0
    9.6205  -16.6209   18.7510 C   0  0  1  0  0  0  0  0  0  0  0  0
    9.2538  -18.0450   19.0391 C   0  0  0  0  0  0  0  0  0  0  0  0
   10.3619  -18.9121   19.5181 C   0  0  0  0  0  0  0  0  0  0  0  0
    9.9946  -19.6264   20.7538 C   0  0  0  0  0  0  0  0  0  0  0  0
    8.9217  -19.5574   21.3640 O   0  0  0  0  0  0  0  0  0  0  0  0
    9.7019  -15.7718   19.9649 C   0  0  0  0  0  0  0  0  0  0  0  0
   10.8649  -15.4553   20.3368 O   0  0  0  0  0  0  0  0  0  0  0  0
   10.9792  -20.4741   21.2852 O   0  0  0  0  0  0  0  0  0  0  0  0
    8.5807  -15.3234   20.6890 N   0  0  0  0  0  0  0  0  0  0  0  0
    7.1791  -15.5290   20.3720 C   0  0  0  0  0  0  0  0  0  0  0  0
    6.3803  -14.7624   21.3851 C   0  0  0  0  0  0  0  0  0  0  0  0
    7.3674  -13.7248   21.8924 C   0  0  0  0  0  0  0  0  0  0  0  0
    8.6388  -14.5533   21.9194 C   0  0  1  0  0  0  0  0  0  0  0  0
    8.5463  -15.4322   23.1164 C   0  0  0  0  0  0  0  0  0  0  0  0
    7.9769  -16.5346   23.1312 O   0  0  0  0  0  0  0  0  0  0  0  0
   10.8450  -13.4865   28.6161 N   0  0  0  0  0  0  0  0  0  0  0  0
   10.6338  -14.8678   28.9169 C   0  0  0  0  0  0  0  0  0  0  0  0
   10.9028  -15.3573   30.0354 O   0  0  0  0  0  0  0  0  0  0  0  0
   10.0666  -15.7543   27.8399 C   0  0  0  0  0  0  0  0  0  0  0  0
    9.9078  -14.9573   26.5857 C   0  0  0  0  0  0  0  0  0  0  0  0
    9.3525  -15.8104   25.4694 C   0  0  2  0  0  0  0  0  0  0  0  0
    9.1554  -14.9636   24.3139 N   0  0  0  0  0  0  0  0  0  0  0  0
    8.0195  -16.3827   25.8502 C   0  0  0  0  0  0  0  0  0  0  0  0
    7.9244  -17.5013   26.4377 O   0  0  0  0  0  0  0  0  0  0  0  0
    6.8309  -15.7209   25.5802 O   0  0  0  0  0  0  0  0  0  0  0  0
  2  3  1  0
  2  1  1  1
  4  5  1  0
  4  3  1  0
  5  9  1  0
  6  5  2  0
  7  2  1  0
  8  7  2  0
 10  7  1  0
 11 10  1  0
 12 13  1  0
 12 11  1  0
 13 14  1  0
 14 15  1  1
 14 10  1  0
 15 23  1  0
 16 15  2  0
 17 18  1  0
 18 19  2  0
 18 20  1  0
 20 21  1  0
 22 21  1  1
 22 24  1  0
 23 22  1  0
 24 25  2  0
 24 26  1  0
M  END
$$$$
