EPQ.pdb
     RDKit          3D

 26 26  0  0  1  0  0  0  0  0999 V2000
   10.8525  -16.9343   18.0904 N   0  0  0  0  0  0  0  0  0  0  0  0
    9.6394  -16.9786   18.8914 C   0  0  1  0  0  0  0  0  0  0  0  0
    9.2897  -18.4244   19.0727 C   0  0  0  0  0  0  0  0  0  0  0  0
   10.2993  -19.2473   19.7886 C   0  0  0  0  0  0  0  0  0  0  0  0
    9.8296  -20.6303   19.9847 C   0  0  0  0  0  0  0  0  0  0  0  0
    8.7587  -21.1152   19.6024 O   0  0  0  0  0  0  0  0  0  0  0  0
    9.8550  -16.2554   20.1688 C   0  0  0  0  0  0  0  0  0  0  0  0
   11.0568  -16.0194   20.4703 O   0  0  0  0  0  0  0  0  0  0  0  0
   10.7028  -21.4790   20.6830 O   0  0  0  0  0  0  0  0  0  0  0  0
    8.8160  -15.8390   21.0230 N   0  0  0  0  0  0  0  0  0  0  0  0
    7.3926  -16.0805   20.8725 C   0  0  0  0  0  0  0  0  0  0  0  0
    6.6996  -15.3385   21.9777 C   0  0  0  0  0  0  0  0  0  0  0  0
    7.7126  -14.2769   22.3714 C   0  0  0  0  0  0  0  0  0  0  0  0
    8.9993  -15.0717   22.2428 C   0  0  1  0  0  0  0  0  0  0  0  0
    9.0717  -15.9566   23.4367 C   0  0  0  0  0  0  0  0  0  0  0  0
    8.7015  -17.1408   23.4519 O   0  0  0  0  0  0  0  0  0  0  0  0
    8.7053  -13.2928   29.1610 N   0  0  0  0  0  0  0  0  0  0  0  0
    9.7978  -14.0670   28.6604 C   0  0  0  0  0  0  0  0  0  0  0  0
   10.9707  -13.9064   29.0623 O   0  0  0  0  0  0  0  0  0  0  0  0
    9.5125  -15.1096   27.6120 C   0  0  0  0  0  0  0  0  0  0  0  0
   10.7184  -15.2712   26.7442 C   0  0  0  0  0  0  0  0  0  0  0  0
   10.4148  -16.1523   25.5551 C   0  0  2  0  0  0  0  0  0  0  0  0
    9.6024  -15.3930   24.6307 N   0  0  0  0  0  0  0  0  0  0  0  0
    9.6267  -17.3577   25.9738 C   0  0  0  0  0  0  0  0  0  0  0  0
   10.1712  -18.3213   26.5905 O   0  0  0  0  0  0  0  0  0  0  0  0
    8.2707  -17.4780   25.7087 O   0  0  0  0  0  0  0  0  0  0  0  0
  2  3  1  0
  2  1  1  6
  4  5  1  0
  4  3  1  0
  5  9  1  0
  6  5  2  0
  7  2  1  0
  8  7  2  0
 10  7  1  0
 11 10  1  0
 12 13  1  0
 12 11  1  0
 13 14  1  0
 14 15  1  1
 14 10  1  0
 15 23  1  0
 16 15  2  0
 17 18  1  0
 18 19  2  0
 18 20  1  0
 20 21  1  0
 22 21  1  1
 22 24  1  0
 23 22  1  0
 24 25  2  0
 24 26  1  0
M  END
$$$$
