EPQ.pdb
     RDKit          3D

 26 26  0  0  1  0  0  0  0  0999 V2000
   10.6430  -14.9589   15.0116 N   0  0  0  0  0  0  0  0  0  0  0  0
    9.4970  -14.8903   15.9043 C   0  0  1  0  0  0  0  0  0  0  0  0
    8.7292  -16.1648   15.7261 C   0  0  0  0  0  0  0  0  0  0  0  0
    9.4286  -17.4044   16.1542 C   0  0  0  0  0  0  0  0  0  0  0  0
    8.5933  -18.5992   15.9381 C   0  0  0  0  0  0  0  0  0  0  0  0
    8.8760  -19.7681   16.2241 O   0  0  0  0  0  0  0  0  0  0  0  0
    9.9581  -14.6650   17.2963 C   0  0  0  0  0  0  0  0  0  0  0  0
   11.1852  -14.8663   17.5078 O   0  0  0  0  0  0  0  0  0  0  0  0
    7.3433  -18.3710   15.3417 O   0  0  0  0  0  0  0  0  0  0  0  0
    9.1169  -14.2527   18.3476 N   0  0  0  0  0  0  0  0  0  0  0  0
    7.6765  -14.0762   18.3147 C   0  0  0  0  0  0  0  0  0  0  0  0
    7.2695  -13.5185   19.6471 C   0  0  0  0  0  0  0  0  0  0  0  0
    8.5537  -12.8979   20.1705 C   0  0  0  0  0  0  0  0  0  0  0  0
    9.5637  -13.9240   19.6902 C   0  0  1  0  0  0  0  0  0  0  0  0
    9.4476  -15.0926   20.6037 C   0  0  0  0  0  0  0  0  0  0  0  0
    8.8176  -16.1277   20.3371 O   0  0  0  0  0  0  0  0  0  0  0  0
   14.8482  -15.2909   19.7938 N   0  0  0  0  0  0  0  0  0  0  0  0
   14.8859  -15.3801   21.2200 C   0  0  0  0  0  0  0  0  0  0  0  0
   15.8615  -14.9766   21.8896 O   0  0  0  0  0  0  0  0  0  0  0  0
   13.7023  -15.9834   21.9291 C   0  0  0  0  0  0  0  0  0  0  0  0
   12.4742  -15.2100   21.5727 C   0  0  0  0  0  0  0  0  0  0  0  0
   11.2464  -15.8240   22.2034 C   0  0  2  0  0  0  0  0  0  0  0  0
   10.1077  -15.0012   21.8610 N   0  0  0  0  0  0  0  0  0  0  0  0
   11.3674  -15.8390   23.6983 C   0  0  0  0  0  0  0  0  0  0  0  0
   12.0872  -16.6947   24.2942 O   0  0  0  0  0  0  0  0  0  0  0  0
   10.7019  -14.9228   24.4990 O   0  0  0  0  0  0  0  0  0  0  0  0
  2  3  1  0
  2  1  1  6
  4  5  1  0
  4  3  1  0
  5  9  1  0
  6  5  2  0
  7  2  1  0
  8  7  2  0
 10  7  1  0
 11 10  1  0
 12 13  1  0
 12 11  1  0
 13 14  1  0
 14 15  1  1
 14 10  1  0
 15 23  1  0
 16 15  2  0
 17 18  1  0
 18 19  2  0
 18 20  1  0
 20 21  1  0
 22 21  1  6
 22 24  1  0
 23 22  1  0
 24 25  2  0
 24 26  1  0
M  END
$$$$
