EPQ.pdb
     RDKit          3D

 26 26  0  0  1  0  0  0  0  0999 V2000
    8.7569  -14.8219   21.3222 N   0  0  0  0  0  0  0  0  0  0  0  0
    7.7806  -14.5005   22.3511 C   0  0  1  0  0  0  0  0  0  0  0  0
    6.7743  -15.6108   22.3586 C   0  0  0  0  0  0  0  0  0  0  0  0
    7.2940  -16.9497   22.7414 C   0  0  0  0  0  0  0  0  0  0  0  0
    6.2022  -17.8696   23.1072 C   0  0  0  0  0  0  0  0  0  0  0  0
    5.8944  -18.2467   24.2435 O   0  0  0  0  0  0  0  0  0  0  0  0
    8.4670  -14.3129   23.6529 C   0  0  0  0  0  0  0  0  0  0  0  0
    9.6668  -14.6993   23.7020 O   0  0  0  0  0  0  0  0  0  0  0  0
    5.4363  -18.3639   22.0399 O   0  0  0  0  0  0  0  0  0  0  0  0
    7.8594  -13.7447   24.7889 N   0  0  0  0  0  0  0  0  0  0  0  0
    6.4755  -13.3347   24.9438 C   0  0  0  0  0  0  0  0  0  0  0  0
    6.3549  -12.6880   26.2927 C   0  0  0  0  0  0  0  0  0  0  0  0
    7.7825  -12.2754   26.6087 C   0  0  0  0  0  0  0  0  0  0  0  0
    8.5379  -13.4640   26.0424 C   0  0  1  0  0  0  0  0  0  0  0  0
    8.3668  -14.5770   27.0149 C   0  0  0  0  0  0  0  0  0  0  0  0
    7.3095  -15.2051   27.1786 O   0  0  0  0  0  0  0  0  0  0  0  0
   12.4448  -16.8148   24.5712 N   0  0  0  0  0  0  0  0  0  0  0  0
   12.3910  -17.4085   25.8704 C   0  0  0  0  0  0  0  0  0  0  0  0
   12.8298  -18.5565   26.0996 O   0  0  0  0  0  0  0  0  0  0  0  0
   11.7820  -16.6126   26.9943 C   0  0  0  0  0  0  0  0  0  0  0  0
   10.3800  -17.0791   27.2183 C   0  0  0  0  0  0  0  0  0  0  0  0
    9.7081  -16.2711   28.3036 C   0  0  2  0  0  0  0  0  0  0  0  0
    9.4990  -14.9316   27.8006 N   0  0  0  0  0  0  0  0  0  0  0  0
   10.5868  -16.1732   29.5151 C   0  0  0  0  0  0  0  0  0  0  0  0
   10.8596  -17.1919   30.2173 O   0  0  0  0  0  0  0  0  0  0  0  0
   11.1416  -14.9701   29.9256 O   0  0  0  0  0  0  0  0  0  0  0  0
  2  3  1  0
  2  1  1  6
  4  5  1  0
  4  3  1  0
  5  9  1  0
  6  5  2  0
  7  2  1  0
  8  7  2  0
 10  7  1  0
 11 10  1  0
 12 13  1  0
 12 11  1  0
 13 14  1  0
 14 15  1  1
 14 10  1  0
 15 23  1  0
 16 15  2  0
 17 18  1  0
 18 19  2  0
 18 20  1  0
 20 21  1  0
 22 21  1  6
 22 24  1  0
 23 22  1  0
 24 25  2  0
 24 26  1  0
M  END
$$$$
