EPQ.pdb
     RDKit          3D

 26 26  0  0  1  0  0  0  0  0999 V2000
   11.3393  -13.1805   18.7618 N   0  0  0  0  0  0  0  0  0  0  0  0
   10.5117  -14.3118   19.1496 C   0  0  1  0  0  0  0  0  0  0  0  0
   11.2720  -15.5516   18.7885 C   0  0  0  0  0  0  0  0  0  0  0  0
   12.1862  -15.4310   17.6228 C   0  0  0  0  0  0  0  0  0  0  0  0
   12.9473  -16.6734   17.4012 C   0  0  0  0  0  0  0  0  0  0  0  0
   14.0033  -17.0087   17.9495 O   0  0  0  0  0  0  0  0  0  0  0  0
   10.1789  -14.2188   20.5924 C   0  0  0  0  0  0  0  0  0  0  0  0
   11.1155  -13.8428   21.3490 O   0  0  0  0  0  0  0  0  0  0  0  0
   12.4029  -17.5644   16.4630 O   0  0  0  0  0  0  0  0  0  0  0  0
    8.9129  -14.5206   21.1296 N   0  0  0  0  0  0  0  0  0  0  0  0
    7.7376  -14.9933   20.4208 C   0  0  0  0  0  0  0  0  0  0  0  0
    6.6168  -15.0562   21.4168 C   0  0  0  0  0  0  0  0  0  0  0  0
    7.0698  -14.1028   22.5096 C   0  0  0  0  0  0  0  0  0  0  0  0
    8.5565  -14.4074   22.5334 C   0  0  1  0  0  0  0  0  0  0  0  0
    8.7114  -15.7072   23.2407 C   0  0  0  0  0  0  0  0  0  0  0  0
    8.7923  -16.8067   22.6717 O   0  0  0  0  0  0  0  0  0  0  0  0
    8.4284  -13.9468   27.5549 N   0  0  0  0  0  0  0  0  0  0  0  0
    9.8407  -13.9701   27.3351 C   0  0  0  0  0  0  0  0  0  0  0  0
   10.5606  -12.9623   27.5054 O   0  0  0  0  0  0  0  0  0  0  0  0
   10.4714  -15.2603   26.8824 C   0  0  0  0  0  0  0  0  0  0  0  0
    9.4301  -16.3322   26.8644 C   0  0  0  0  0  0  0  0  0  0  0  0
    9.1702  -16.8100   25.4550 C   0  0  2  0  0  0  0  0  0  0  0  0
    8.7686  -15.6694   24.6620 N   0  0  0  0  0  0  0  0  0  0  0  0
    8.0472  -17.8038   25.4290 C   0  0  0  0  0  0  0  0  0  0  0  0
    6.8840  -17.4763   25.0480 O   0  0  0  0  0  0  0  0  0  0  0  0
    8.2239  -19.1233   25.8182 O   0  0  0  0  0  0  0  0  0  0  0  0
  2  3  1  0
  2  1  1  1
  4  5  1  0
  4  3  1  0
  5  9  1  0
  6  5  2  0
  7  2  1  0
  8  7  2  0
 10  7  1  0
 11 10  1  0
 12 13  1  0
 12 11  1  0
 13 14  1  0
 14 15  1  1
 14 10  1  0
 15 23  1  0
 16 15  2  0
 17 18  1  0
 18 19  2  0
 18 20  1  0
 20 21  1  0
 22 21  1  1
 22 24  1  0
 23 22  1  0
 24 25  2  0
 24 26  1  0
M  END
$$$$
