EPQ.pdb
     RDKit          3D

 26 26  0  0  1  0  0  0  0  0999 V2000
   10.3853  -15.2744   14.8154 N   0  0  0  0  0  0  0  0  0  0  0  0
    9.2942  -15.1421   15.7678 C   0  0  1  0  0  0  0  0  0  0  0  0
    8.5570  -16.4467   15.7696 C   0  0  0  0  0  0  0  0  0  0  0  0
    7.9680  -16.8565   14.4679 C   0  0  0  0  0  0  0  0  0  0  0  0
    7.2343  -18.1294   14.5828 C   0  0  0  0  0  0  0  0  0  0  0  0
    7.0361  -18.7855   15.6116 O   0  0  0  0  0  0  0  0  0  0  0  0
    9.8320  -14.7625   17.0974 C   0  0  0  0  0  0  0  0  0  0  0  0
   11.0617  -14.9801   17.2750 O   0  0  0  0  0  0  0  0  0  0  0  0
    6.7083  -18.6416   13.3864 O   0  0  0  0  0  0  0  0  0  0  0  0
    9.0581  -14.1929   18.1266 N   0  0  0  0  0  0  0  0  0  0  0  0
    7.6322  -13.9210   18.1183 C   0  0  0  0  0  0  0  0  0  0  0  0
    7.3109  -13.2098   19.4001 C   0  0  0  0  0  0  0  0  0  0  0  0
    8.6512  -12.6320   19.8219 C   0  0  0  0  0  0  0  0  0  0  0  0
    9.5734  -13.7674   19.4164 C   0  0  1  0  0  0  0  0  0  0  0  0
    9.4129  -14.8311   20.4444 C   0  0  0  0  0  0  0  0  0  0  0  0
    8.4595  -15.6240   20.4860 O   0  0  0  0  0  0  0  0  0  0  0  0
   14.9723  -16.8884   21.4501 N   0  0  0  0  0  0  0  0  0  0  0  0
   14.7001  -15.4896   21.5624 C   0  0  0  0  0  0  0  0  0  0  0  0
   15.6017  -14.6469   21.7622 O   0  0  0  0  0  0  0  0  0  0  0  0
   13.2727  -15.0276   21.4335 C   0  0  0  0  0  0  0  0  0  0  0  0
   12.4232  -16.1814   21.0087 C   0  0  0  0  0  0  0  0  0  0  0  0
   11.1002  -16.1763   21.7379 C   0  0  2  0  0  0  0  0  0  0  0  0
   10.4274  -14.9322   21.4370 N   0  0  0  0  0  0  0  0  0  0  0  0
   11.3105  -16.2358   23.2217 C   0  0  0  0  0  0  0  0  0  0  0  0
   11.7683  -17.2755   23.7829 O   0  0  0  0  0  0  0  0  0  0  0  0
   11.0164  -15.1625   24.0496 O   0  0  0  0  0  0  0  0  0  0  0  0
  2  3  1  0
  2  1  1  6
  4  5  1  0
  4  3  1  0
  5  9  1  0
  6  5  2  0
  7  2  1  0
  8  7  2  0
 10  7  1  0
 11 10  1  0
 12 13  1  0
 12 11  1  0
 13 14  1  0
 14 15  1  1
 14 10  1  0
 15 23  1  0
 16 15  2  0
 17 18  1  0
 18 19  2  0
 18 20  1  0
 20 21  1  0
 22 21  1  6
 22 24  1  0
 23 22  1  0
 24 25  2  0
 24 26  1  0
M  END
$$$$
