EPQ.pdb
     RDKit          3D

 26 26  0  0  1  0  0  0  0  0999 V2000
    9.3197  -15.0911   15.0244 N   0  0  0  0  0  0  0  0  0  0  0  0
    8.4612  -15.0652   16.1980 C   0  0  1  0  0  0  0  0  0  0  0  0
    7.8942  -16.4435   16.3534 C   0  0  0  0  0  0  0  0  0  0  0  0
    8.8772  -17.5140   16.6647 C   0  0  0  0  0  0  0  0  0  0  0  0
    8.2133  -18.8117   16.8821 C   0  0  0  0  0  0  0  0  0  0  0  0
    7.3032  -19.3059   16.2071 O   0  0  0  0  0  0  0  0  0  0  0  0
    9.2364  -14.6061   17.3767 C   0  0  0  0  0  0  0  0  0  0  0  0
   10.4913  -14.6778   17.2707 O   0  0  0  0  0  0  0  0  0  0  0  0
    8.6742  -19.5578   17.9781 O   0  0  0  0  0  0  0  0  0  0  0  0
    8.6530  -14.1139   18.5600 N   0  0  0  0  0  0  0  0  0  0  0  0
    7.2439  -13.8924   18.8294 C   0  0  0  0  0  0  0  0  0  0  0  0
    7.1484  -13.2550   20.1847 C   0  0  0  0  0  0  0  0  0  0  0  0
    8.5285  -12.6511   20.3822 C   0  0  0  0  0  0  0  0  0  0  0  0
    9.3881  -13.7325   19.7535 C   0  0  1  0  0  0  0  0  0  0  0  0
    9.4492  -14.8491   20.7351 C   0  0  0  0  0  0  0  0  0  0  0  0
    8.6733  -15.8172   20.7408 O   0  0  0  0  0  0  0  0  0  0  0  0
   15.2802  -15.0472   22.2754 N   0  0  0  0  0  0  0  0  0  0  0  0
   14.9380  -16.3832   22.6514 C   0  0  0  0  0  0  0  0  0  0  0  0
   15.7982  -17.2212   22.9989 O   0  0  0  0  0  0  0  0  0  0  0  0
   13.4864  -16.7829   22.6238 C   0  0  0  0  0  0  0  0  0  0  0  0
   12.6717  -15.6279   22.1385 C   0  0  0  0  0  0  0  0  0  0  0  0
   11.1975  -15.9566   22.1657 C   0  0  2  0  0  0  0  0  0  0  0  0
   10.4695  -14.7874   21.7250 N   0  0  0  0  0  0  0  0  0  0  0  0
   10.7493  -16.2758   23.5609 C   0  0  0  0  0  0  0  0  0  0  0  0
   10.3342  -15.3709   24.3447 O   0  0  0  0  0  0  0  0  0  0  0  0
   10.7665  -17.5694   24.0608 O   0  0  0  0  0  0  0  0  0  0  0  0
  2  3  1  0
  2  1  1  6
  4  5  1  0
  4  3  1  0
  5  9  1  0
  6  5  2  0
  7  2  1  0
  8  7  2  0
 10  7  1  0
 11 10  1  0
 12 13  1  0
 12 11  1  0
 13 14  1  0
 14 15  1  1
 14 10  1  0
 15 23  1  0
 16 15  2  0
 17 18  1  0
 18 19  2  0
 18 20  1  0
 20 21  1  0
 22 21  1  1
 22 24  1  0
 23 22  1  0
 24 25  2  0
 24 26  1  0
M  END
$$$$
