EPQ.pdb
     RDKit          3D

 26 26  0  0  1  0  0  0  0  0999 V2000
    8.3900  -15.3598   21.1561 N   0  0  0  0  0  0  0  0  0  0  0  0
    7.4581  -14.9885   22.2091 C   0  0  1  0  0  0  0  0  0  0  0  0
    6.5520  -16.1627   22.4227 C   0  0  0  0  0  0  0  0  0  0  0  0
    7.1779  -17.3541   23.0536 C   0  0  0  0  0  0  0  0  0  0  0  0
    6.1962  -18.4325   23.2661 C   0  0  0  0  0  0  0  0  0  0  0  0
    6.3698  -19.4870   23.8874 O   0  0  0  0  0  0  0  0  0  0  0  0
    8.2083  -14.5888   23.4251 C   0  0  0  0  0  0  0  0  0  0  0  0
    9.4448  -14.8381   23.4143 O   0  0  0  0  0  0  0  0  0  0  0  0
    4.9301  -18.2272   22.6958 O   0  0  0  0  0  0  0  0  0  0  0  0
    7.6210  -13.9684   24.5443 N   0  0  0  0  0  0  0  0  0  0  0  0
    6.2100  -13.7315   24.7893 C   0  0  0  0  0  0  0  0  0  0  0  0
    6.1092  -12.9418   26.0614 C   0  0  0  0  0  0  0  0  0  0  0  0
    7.4830  -12.3047   26.1842 C   0  0  0  0  0  0  0  0  0  0  0  0
    8.3533  -13.4431   25.6837 C   0  0  1  0  0  0  0  0  0  0  0  0
    8.4272  -14.4371   26.7884 C   0  0  0  0  0  0  0  0  0  0  0  0
    7.5362  -15.2608   27.0475 O   0  0  0  0  0  0  0  0  0  0  0  0
   11.9979  -18.1091   26.0608 N   0  0  0  0  0  0  0  0  0  0  0  0
   12.2005  -18.3640   27.4527 C   0  0  0  0  0  0  0  0  0  0  0  0
   12.6516  -19.4509   27.8747 O   0  0  0  0  0  0  0  0  0  0  0  0
   11.8544  -17.2767   28.4353 C   0  0  0  0  0  0  0  0  0  0  0  0
   11.3134  -16.0999   27.6898 C   0  0  0  0  0  0  0  0  0  0  0  0
   10.0454  -15.5888   28.3326 C   0  0  2  0  0  0  0  0  0  0  0  0
    9.6025  -14.4295   27.5904 N   0  0  0  0  0  0  0  0  0  0  0  0
   10.3022  -15.1568   29.7458 C   0  0  0  0  0  0  0  0  0  0  0  0
   10.3832  -13.9314   30.0575 O   0  0  0  0  0  0  0  0  0  0  0  0
   10.4631  -16.0710   30.7763 O   0  0  0  0  0  0  0  0  0  0  0  0
  2  3  1  0
  2  1  1  6
  4  5  1  0
  4  3  1  0
  5  9  1  0
  6  5  2  0
  7  2  1  0
  8  7  2  0
 10  7  1  0
 11 10  1  0
 12 13  1  0
 12 11  1  0
 13 14  1  0
 14 15  1  1
 14 10  1  0
 15 23  1  0
 16 15  2  0
 17 18  1  0
 18 19  2  0
 18 20  1  0
 20 21  1  0
 22 21  1  6
 22 24  1  0
 23 22  1  0
 24 25  2  0
 24 26  1  0
M  END
$$$$
