EPQ.pdb
     RDKit          3D

 26 26  0  0  1  0  0  0  0  0999 V2000
    8.4482  -14.6125   20.9538 N   0  0  0  0  0  0  0  0  0  0  0  0
    7.5694  -14.4805   22.1051 C   0  0  1  0  0  0  0  0  0  0  0  0
    6.8170  -15.7704   22.2290 C   0  0  0  0  0  0  0  0  0  0  0  0
    7.6494  -16.9869   22.4200 C   0  0  0  0  0  0  0  0  0  0  0  0
    6.8181  -18.1775   22.6715 C   0  0  0  0  0  0  0  0  0  0  0  0
    6.1845  -18.8341   21.8375 O   0  0  0  0  0  0  0  0  0  0  0  0
    8.3672  -14.1408   23.3089 C   0  0  0  0  0  0  0  0  0  0  0  0
    9.6071  -14.3572   23.2252 O   0  0  0  0  0  0  0  0  0  0  0  0
    6.7464  -18.6015   24.0077 O   0  0  0  0  0  0  0  0  0  0  0  0
    7.8199  -13.6089   24.4922 N   0  0  0  0  0  0  0  0  0  0  0  0
    6.4261  -13.3148   24.7715 C   0  0  0  0  0  0  0  0  0  0  0  0
    6.3748  -12.6605   26.1211 C   0  0  0  0  0  0  0  0  0  0  0  0
    7.7849  -12.1244   26.3007 C   0  0  0  0  0  0  0  0  0  0  0  0
    8.5838  -13.2534   25.6755 C   0  0  1  0  0  0  0  0  0  0  0  0
    8.5981  -14.3622   26.6676 C   0  0  0  0  0  0  0  0  0  0  0  0
    7.6766  -15.1799   26.8144 O   0  0  0  0  0  0  0  0  0  0  0  0
   11.4558  -17.9695   25.4118 N   0  0  0  0  0  0  0  0  0  0  0  0
   12.0081  -18.3614   26.6707 C   0  0  0  0  0  0  0  0  0  0  0  0
   12.3679  -19.5352   26.9067 O   0  0  0  0  0  0  0  0  0  0  0  0
   12.1566  -17.3138   27.7421 C   0  0  0  0  0  0  0  0  0  0  0  0
   11.5540  -16.0341   27.2598 C   0  0  0  0  0  0  0  0  0  0  0  0
   10.2465  -15.7533   27.9626 C   0  0  2  0  0  0  0  0  0  0  0  0
    9.7506  -14.4784   27.4940 N   0  0  0  0  0  0  0  0  0  0  0  0
   10.4512  -15.6481   29.4447 C   0  0  0  0  0  0  0  0  0  0  0  0
   10.5630  -14.5237   30.0179 O   0  0  0  0  0  0  0  0  0  0  0  0
   10.5281  -16.7691   30.2577 O   0  0  0  0  0  0  0  0  0  0  0  0
  2  3  1  0
  2  1  1  6
  4  5  1  0
  4  3  1  0
  5  9  1  0
  6  5  2  0
  7  2  1  0
  8  7  2  0
 10  7  1  0
 11 10  1  0
 12 13  1  0
 12 11  1  0
 13 14  1  0
 14 15  1  1
 14 10  1  0
 15 23  1  0
 16 15  2  0
 17 18  1  0
 18 19  2  0
 18 20  1  0
 20 21  1  0
 22 21  1  6
 22 24  1  0
 23 22  1  0
 24 25  2  0
 24 26  1  0
M  END
$$$$
