EPQ.pdb
     RDKit          3D

 26 26  0  0  1  0  0  0  0  0999 V2000
    9.7319  -15.6639   14.9575 N   0  0  0  0  0  0  0  0  0  0  0  0
    8.7436  -15.3876   15.9880 C   0  0  1  0  0  0  0  0  0  0  0  0
    7.8934  -16.6148   16.1164 C   0  0  0  0  0  0  0  0  0  0  0  0
    8.5969  -17.8419   16.5731 C   0  0  0  0  0  0  0  0  0  0  0  0
    7.6576  -18.9582   16.7815 C   0  0  0  0  0  0  0  0  0  0  0  0
    6.4346  -18.9472   16.6013 O   0  0  0  0  0  0  0  0  0  0  0  0
    9.4264  -15.0041   17.2481 C   0  0  0  0  0  0  0  0  0  0  0  0
   10.6495  -15.3032   17.3231 O   0  0  0  0  0  0  0  0  0  0  0  0
    8.2265  -20.1591   17.2340 O   0  0  0  0  0  0  0  0  0  0  0  0
    8.7914  -14.3472   18.3195 N   0  0  0  0  0  0  0  0  0  0  0  0
    7.3813  -14.0306   18.4562 C   0  0  0  0  0  0  0  0  0  0  0  0
    7.2285  -13.2313   19.7171 C   0  0  0  0  0  0  0  0  0  0  0  0
    8.6226  -12.6718   19.9445 C   0  0  0  0  0  0  0  0  0  0  0  0
    9.4631  -13.8592   19.5115 C   0  0  1  0  0  0  0  0  0  0  0  0
    9.3966  -14.8514   20.6183 C   0  0  0  0  0  0  0  0  0  0  0  0
    8.5657  -15.7705   20.6835 O   0  0  0  0  0  0  0  0  0  0  0  0
   15.3892  -16.9179   24.2015 N   0  0  0  0  0  0  0  0  0  0  0  0
   14.6477  -16.4467   23.0739 C   0  0  0  0  0  0  0  0  0  0  0  0
   15.1788  -15.7926   22.1504 O   0  0  0  0  0  0  0  0  0  0  0  0
   13.1754  -16.7558   23.0081 C   0  0  0  0  0  0  0  0  0  0  0  0
   12.4636  -15.6059   22.3722 C   0  0  0  0  0  0  0  0  0  0  0  0
   10.9781  -15.8679   22.2903 C   0  0  2  0  0  0  0  0  0  0  0  0
   10.3553  -14.7240   21.6621 N   0  0  0  0  0  0  0  0  0  0  0  0
   10.3876  -16.0152   23.6611 C   0  0  0  0  0  0  0  0  0  0  0  0
   10.5784  -17.0589   24.3538 O   0  0  0  0  0  0  0  0  0  0  0  0
    9.6079  -15.0229   24.2363 O   0  0  0  0  0  0  0  0  0  0  0  0
  2  3  1  0
  2  1  1  6
  4  5  1  0
  4  3  1  0
  5  9  1  0
  6  5  2  0
  7  2  1  0
  8  7  2  0
 10  7  1  0
 11 10  1  0
 12 13  1  0
 12 11  1  0
 13 14  1  0
 14 15  1  1
 14 10  1  0
 15 23  1  0
 16 15  2  0
 17 18  1  0
 18 19  2  0
 18 20  1  0
 20 21  1  0
 22 21  1  1
 22 24  1  0
 23 22  1  0
 24 25  2  0
 24 26  1  0
M  END
$$$$
