AGS.pdb
     RDKit          3D

 16 15  0  0  1  0  0  0  0  0999 V2000
    5.7453  -19.1478   22.9388 C   0  0  0  0  0  0  0  0  0  0  0  0
    5.4770  -19.1434   21.4600 C   0  0  2  0  0  0  0  0  0  0  0  0
    5.2717  -20.4792   20.9725 N   0  0  0  0  0  0  0  0  0  0  0  0
    6.6148  -18.5081   20.7712 C   0  0  0  0  0  0  0  0  0  0  0  0
    7.6850  -19.1386   20.5720 O   0  0  0  0  0  0  0  0  0  0  0  0
    6.5102  -17.1642   20.3223 N   0  0  0  0  0  0  0  0  0  0  0  0
    7.6628  -16.5127   19.7013 C   0  0  0  0  0  0  0  0  0  0  0  0
    8.3086  -15.6186   20.6721 C   0  0  0  0  0  0  0  0  0  0  0  0
    8.9298  -14.5914   20.3068 O   0  0  0  0  0  0  0  0  0  0  0  0
    6.9604  -13.9739   23.2671 O   0  0  0  0  0  0  0  0  0  0  0  0
    8.0027  -14.5445   23.9996 C   0  0  0  0  0  0  0  0  0  0  0  0
    8.9938  -15.0953   23.0139 C   0  0  2  0  0  0  0  0  0  0  0  0
    8.2379  -15.9074   22.0491 N   0  0  0  0  0  0  0  0  0  0  0  0
   10.0200  -15.9350   23.6936 C   0  0  0  0  0  0  0  0  0  0  0  0
   10.9246  -15.3048   24.5206 O   0  0  0  0  0  0  0  0  0  0  0  0
   10.0962  -17.1818   23.5472 O   0  0  0  0  0  0  0  0  0  0  0  0
  2  1  1  1
  2  3  1  0
  4  5  2  0
  4  2  1  0
  6  4  1  0
  7  6  1  0
  8  7  1  0
  9  8  2  0
 10 11  1  0
 12 11  1  1
 12 14  1  0
 12 13  1  0
 13  8  1  0
 14 15  1  0
 16 14  2  0
M  END
$$$$
