AGS.pdb
     RDKit          3D

 16 15  0  0  1  0  0  0  0  0999 V2000
    8.4316  -17.4348   19.8074 C   0  0  0  0  0  0  0  0  0  0  0  0
    9.0589  -17.1019   21.1319 C   0  0  2  0  0  0  0  0  0  0  0  0
    9.4967  -18.2931   21.8053 N   0  0  0  0  0  0  0  0  0  0  0  0
    8.0773  -16.3714   21.9538 C   0  0  0  0  0  0  0  0  0  0  0  0
    7.6146  -15.2637   21.5780 O   0  0  0  0  0  0  0  0  0  0  0  0
    7.6417  -16.9190   23.1904 N   0  0  0  0  0  0  0  0  0  0  0  0
    6.6901  -16.1794   24.0187 C   0  0  0  0  0  0  0  0  0  0  0  0
    7.3991  -15.1441   24.7830 C   0  0  0  0  0  0  0  0  0  0  0  0
    8.6429  -15.0018   24.6990 O   0  0  0  0  0  0  0  0  0  0  0  0
    5.4925  -11.8543   26.1655 O   0  0  0  0  0  0  0  0  0  0  0  0
    6.3333  -12.4373   27.1151 C   0  0  0  0  0  0  0  0  0  0  0  0
    7.3783  -13.2177   26.3692 C   0  0  2  0  0  0  0  0  0  0  0  0
    6.6798  -14.2828   25.6347 N   0  0  0  0  0  0  0  0  0  0  0  0
    8.3757  -13.8120   27.3030 C   0  0  0  0  0  0  0  0  0  0  0  0
    9.2081  -12.9542   27.9891 O   0  0  0  0  0  0  0  0  0  0  0  0
    8.4905  -15.0503   27.4908 O   0  0  0  0  0  0  0  0  0  0  0  0
  2  1  1  6
  2  3  1  0
  4  5  2  0
  4  2  1  0
  6  4  1  0
  7  6  1  0
  8  7  1  0
  9  8  2  0
 10 11  1  0
 12 11  1  1
 12 14  1  0
 12 13  1  0
 13  8  1  0
 14 15  1  0
 16 14  2  0
M  END
$$$$
