AGS.pdb
     RDKit          3D

 16 15  0  0  1  0  0  0  0  0999 V2000
    9.2792  -17.1914   19.4493 C   0  0  0  0  0  0  0  0  0  0  0  0
    9.4650  -17.0951   20.9376 C   0  0  2  0  0  0  0  0  0  0  0  0
    8.8680  -18.2201   21.6024 N   0  0  0  0  0  0  0  0  0  0  0  0
    8.8669  -15.8340   21.4117 C   0  0  0  0  0  0  0  0  0  0  0  0
    9.3448  -14.7218   21.0696 O   0  0  0  0  0  0  0  0  0  0  0  0
    7.7336  -15.8657   22.2680 N   0  0  0  0  0  0  0  0  0  0  0  0
    7.0460  -14.6215   22.6112 C   0  0  0  0  0  0  0  0  0  0  0  0
    7.6713  -14.0213   23.7977 C   0  0  0  0  0  0  0  0  0  0  0  0
    8.9158  -14.0273   23.9583 O   0  0  0  0  0  0  0  0  0  0  0  0
    5.3318  -12.6844   26.7958 O   0  0  0  0  0  0  0  0  0  0  0  0
    6.4225  -11.8526   26.5365 C   0  0  0  0  0  0  0  0  0  0  0  0
    7.4920  -12.6995   25.9067 C   0  0  2  0  0  0  0  0  0  0  0  0
    6.8686  -13.4209   24.7875 N   0  0  0  0  0  0  0  0  0  0  0  0
    8.0580  -13.6691   26.8862 C   0  0  0  0  0  0  0  0  0  0  0  0
    8.8561  -13.1751   27.8953 O   0  0  0  0  0  0  0  0  0  0  0  0
    7.8416  -14.9069   26.8331 O   0  0  0  0  0  0  0  0  0  0  0  0
  2  1  1  6
  2  3  1  0
  4  5  2  0
  4  2  1  0
  6  4  1  0
  7  6  1  0
  8  7  1  0
  9  8  2  0
 10 11  1  0
 12 11  1  1
 12 14  1  0
 12 13  1  0
 13  8  1  0
 14 15  1  0
 16 14  2  0
M  END
$$$$
