AGS.pdb
     RDKit          3D

 16 15  0  0  1  0  0  0  0  0999 V2000
   -1.0356  -28.1323   30.6870 C   0  0  0  0  0  0  0  0  0  0  0  0
   -1.4106  -27.1537   29.6096 C   0  0  2  0  0  0  0  0  0  0  0  0
   -0.8241  -25.8663   29.8601 N   0  0  0  0  0  0  0  0  0  0  0  0
   -2.8799  -27.0523   29.5485 C   0  0  0  0  0  0  0  0  0  0  0  0
   -3.5868  -28.0535   29.2652 O   0  0  0  0  0  0  0  0  0  0  0  0
   -3.5156  -25.8093   29.8120 N   0  0  0  0  0  0  0  0  0  0  0  0
   -4.9543  -25.6669   29.5923 C   0  0  0  0  0  0  0  0  0  0  0  0
   -5.3743  -24.3005   29.9320 C   0  0  0  0  0  0  0  0  0  0  0  0
   -4.7771  -23.6283   30.8072 O   0  0  0  0  0  0  0  0  0  0  0  0
   -5.6296  -21.5093   27.7758 O   0  0  0  0  0  0  0  0  0  0  0  0
   -6.9327  -21.5942   28.2692 C   0  0  0  0  0  0  0  0  0  0  0  0
   -6.8700  -22.3352   29.5747 C   0  0  2  0  0  0  0  0  0  0  0  0
   -6.4714  -23.7169   29.2685 N   0  0  0  0  0  0  0  0  0  0  0  0
   -8.1914  -22.3264   30.2632 C   0  0  0  0  0  0  0  0  0  0  0  0
   -8.5316  -21.2073   30.9919 O   0  0  0  0  0  0  0  0  0  0  0  0
   -9.0021  -23.2864   30.2092 O   0  0  0  0  0  0  0  0  0  0  0  0
  2  1  1  1
  2  3  1  0
  4  5  2  0
  4  2  1  0
  6  4  1  0
  7  6  1  0
  8  7  1  0
  9  8  2  0
 10 11  1  0
 12 11  1  6
 12 14  1  0
 12 13  1  0
 13  8  1  0
 14 15  1  0
 16 14  2  0
M  END
$$$$
