AGS.pdb
     RDKit          3D

 16 15  0  0  1  0  0  0  0  0999 V2000
    8.1776  -12.4312   19.7031 C   0  0  0  0  0  0  0  0  0  0  0  0
    8.4305  -13.9116   19.7601 C   0  0  2  0  0  0  0  0  0  0  0  0
    7.8517  -14.5744   18.6244 N   0  0  0  0  0  0  0  0  0  0  0  0
    7.8677  -14.4432   21.0144 C   0  0  0  0  0  0  0  0  0  0  0  0
    6.7630  -15.0449   21.0247 O   0  0  0  0  0  0  0  0  0  0  0  0
    8.5764  -14.2780   22.2347 N   0  0  0  0  0  0  0  0  0  0  0  0
    8.1507  -15.0086   23.4279 C   0  0  0  0  0  0  0  0  0  0  0  0
    9.0653  -14.7161   24.5401 C   0  0  0  0  0  0  0  0  0  0  0  0
   10.3089  -14.6830   24.3764 O   0  0  0  0  0  0  0  0  0  0  0  0
    7.3797  -13.2352   27.6877 O   0  0  0  0  0  0  0  0  0  0  0  0
    8.7311  -12.8921   27.6187 C   0  0  0  0  0  0  0  0  0  0  0  0
    9.4403  -14.0067   26.9030 C   0  0  2  0  0  0  0  0  0  0  0  0
    8.5496  -14.4648   25.8267 N   0  0  0  0  0  0  0  0  0  0  0  0
    9.7435  -15.1344   27.8285 C   0  0  0  0  0  0  0  0  0  0  0  0
   10.6260  -14.9019   28.8612 O   0  0  0  0  0  0  0  0  0  0  0  0
    9.2342  -16.2782   27.7099 O   0  0  0  0  0  0  0  0  0  0  0  0
  2  1  1  6
  2  3  1  0
  4  5  2  0
  4  2  1  0
  6  4  1  0
  7  6  1  0
  8  7  1  0
  9  8  2  0
 10 11  1  0
 12 11  1  1
 12 14  1  0
 12 13  1  0
 13  8  1  0
 14 15  1  0
 16 14  2  0
M  END
$$$$
