AGS.pdb
     RDKit          3D

 16 15  0  0  1  0  0  0  0  0999 V2000
    7.4032  -13.0638   17.5590 C   0  0  0  0  0  0  0  0  0  0  0  0
    8.5253  -13.4359   18.4869 C   0  0  2  0  0  0  0  0  0  0  0  0
    9.4842  -14.2735   17.8213 N   0  0  0  0  0  0  0  0  0  0  0  0
    7.9627  -14.1236   19.6631 C   0  0  0  0  0  0  0  0  0  0  0  0
    7.1787  -13.5293   20.4471 O   0  0  0  0  0  0  0  0  0  0  0  0
    8.3056  -15.4777   19.9230 N   0  0  0  0  0  0  0  0  0  0  0  0
    7.7814  -16.1453   21.1139 C   0  0  0  0  0  0  0  0  0  0  0  0
    8.4972  -15.6677   22.3048 C   0  0  0  0  0  0  0  0  0  0  0  0
    9.5735  -15.0293   22.2122 O   0  0  0  0  0  0  0  0  0  0  0  0
    6.6665  -14.5358   25.4701 O   0  0  0  0  0  0  0  0  0  0  0  0
    7.6939  -15.3781   25.8989 C   0  0  0  0  0  0  0  0  0  0  0  0
    8.6973  -15.4641   24.7839 C   0  0  2  0  0  0  0  0  0  0  0  0
    7.9762  -15.9246   23.5882 N   0  0  0  0  0  0  0  0  0  0  0  0
    9.7928  -16.4175   25.1172 C   0  0  0  0  0  0  0  0  0  0  0  0
   10.6244  -16.1019   26.1699 O   0  0  0  0  0  0  0  0  0  0  0  0
    9.9901  -17.4873   24.4862 O   0  0  0  0  0  0  0  0  0  0  0  0
  2  1  1  6
  2  3  1  0
  4  5  2  0
  4  2  1  0
  6  4  1  0
  7  6  1  0
  8  7  1  0
  9  8  2  0
 10 11  1  0
 12 11  1  1
 12 14  1  0
 12 13  1  0
 13  8  1  0
 14 15  1  0
 16 14  2  0
M  END
$$$$
