AGS.pdb
     RDKit          3D

 16 15  0  0  1  0  0  0  0  0999 V2000
    7.5853  -12.8271   19.1642 C   0  0  0  0  0  0  0  0  0  0  0  0
    7.4920  -14.2726   19.5649 C   0  0  2  0  0  0  0  0  0  0  0  0
    6.3074  -14.5137   20.3413 N   0  0  0  0  0  0  0  0  0  0  0  0
    8.6981  -14.6332   20.3318 C   0  0  0  0  0  0  0  0  0  0  0  0
    9.8207  -14.7187   19.7707 O   0  0  0  0  0  0  0  0  0  0  0  0
    8.6005  -14.8899   21.7259 N   0  0  0  0  0  0  0  0  0  0  0  0
    9.7907  -15.2854   22.4779 C   0  0  0  0  0  0  0  0  0  0  0  0
    9.4493  -15.4428   23.8983 C   0  0  0  0  0  0  0  0  0  0  0  0
    9.7039  -14.5461   24.7382 O   0  0  0  0  0  0  0  0  0  0  0  0
    6.5406  -17.7216   24.9398 O   0  0  0  0  0  0  0  0  0  0  0  0
    7.0266  -16.8419   25.9087 C   0  0  0  0  0  0  0  0  0  0  0  0
    8.5224  -16.8064   25.7715 C   0  0  2  0  0  0  0  0  0  0  0  0
    8.8211  -16.6225   24.3437 N   0  0  0  0  0  0  0  0  0  0  0  0
    9.1387  -18.0710   26.2625 C   0  0  0  0  0  0  0  0  0  0  0  0
    9.0415  -18.3562   27.6073 O   0  0  0  0  0  0  0  0  0  0  0  0
    9.7380  -18.8818   25.5108 O   0  0  0  0  0  0  0  0  0  0  0  0
  2  1  1  1
  2  3  1  0
  4  5  2  0
  4  2  1  0
  6  4  1  0
  7  6  1  0
  8  7  1  0
  9  8  2  0
 10 11  1  0
 12 11  1  6
 12 14  1  0
 12 13  1  0
 13  8  1  0
 14 15  1  0
 16 14  2  0
M  END
$$$$
