AGS.pdb
     RDKit          3D

 16 15  0  0  1  0  0  0  0  0999 V2000
   -4.1629  -29.6532   27.8849 C   0  0  0  0  0  0  0  0  0  0  0  0
   -3.6288  -28.5644   28.7727 C   0  0  2  0  0  0  0  0  0  0  0  0
   -4.0036  -28.7892   30.1413 N   0  0  0  0  0  0  0  0  0  0  0  0
   -4.1449  -27.2675   28.2990 C   0  0  0  0  0  0  0  0  0  0  0  0
   -3.8353  -26.8230   27.1637 O   0  0  0  0  0  0  0  0  0  0  0  0
   -5.0054  -26.5013   29.1305 N   0  0  0  0  0  0  0  0  0  0  0  0
   -5.5209  -25.2173   28.6570 C   0  0  0  0  0  0  0  0  0  0  0  0
   -6.3509  -24.6015   29.7014 C   0  0  0  0  0  0  0  0  0  0  0  0
   -6.3366  -25.0207   30.8840 O   0  0  0  0  0  0  0  0  0  0  0  0
   -6.8373  -20.9209   30.2967 O   0  0  0  0  0  0  0  0  0  0  0  0
   -8.1213  -21.4430   30.1307 C   0  0  0  0  0  0  0  0  0  0  0  0
   -8.0464  -22.9160   30.4169 C   0  0  2  0  0  0  0  0  0  0  0  0
   -7.1880  -23.5138   29.3837 N   0  0  0  0  0  0  0  0  0  0  0  0
   -9.3983  -23.5414   30.3810 C   0  0  0  0  0  0  0  0  0  0  0  0
  -10.1299  -23.5639   31.5487 O   0  0  0  0  0  0  0  0  0  0  0  0
   -9.8965  -24.0449   29.3417 O   0  0  0  0  0  0  0  0  0  0  0  0
  2  1  1  6
  2  3  1  0
  4  5  2  0
  4  2  1  0
  6  4  1  0
  7  6  1  0
  8  7  1  0
  9  8  2  0
 10 11  1  0
 12 11  1  6
 12 14  1  0
 12 13  1  0
 13  8  1  0
 14 15  1  0
 16 14  2  0
M  END
$$$$
