AGS.pdb
     RDKit          3D

 16 15  0  0  1  0  0  0  0  0999 V2000
    8.4376  -19.3689   15.7497 C   0  0  0  0  0  0  0  0  0  0  0  0
    9.0758  -19.0877   17.0810 C   0  0  2  0  0  0  0  0  0  0  0  0
    9.0120  -20.2421   17.9339 N   0  0  0  0  0  0  0  0  0  0  0  0
    8.3902  -17.9418   17.7055 C   0  0  0  0  0  0  0  0  0  0  0  0
    8.4536  -16.7933   17.1963 O   0  0  0  0  0  0  0  0  0  0  0  0
    7.6444  -18.1282   18.9004 N   0  0  0  0  0  0  0  0  0  0  0  0
    6.8475  -17.0271   19.4398 C   0  0  0  0  0  0  0  0  0  0  0  0
    7.6948  -16.1664   20.2767 C   0  0  0  0  0  0  0  0  0  0  0  0
    8.8184  -16.5478   20.6846 O   0  0  0  0  0  0  0  0  0  0  0  0
    7.8458  -12.3739   19.8170 O   0  0  0  0  0  0  0  0  0  0  0  0
    7.6832  -12.5930   21.1860 C   0  0  0  0  0  0  0  0  0  0  0  0
    8.0984  -14.0097   21.4654 C   0  0  2  0  0  0  0  0  0  0  0  0
    7.2494  -14.8798   20.6385 N   0  0  0  0  0  0  0  0  0  0  0  0
    7.9249  -14.3479   22.9060 C   0  0  0  0  0  0  0  0  0  0  0  0
    8.7743  -13.7546   23.8148 O   0  0  0  0  0  0  0  0  0  0  0  0
    7.0458  -15.1436   23.3253 O   0  0  0  0  0  0  0  0  0  0  0  0
  2  1  1  6
  2  3  1  0
  4  5  2  0
  4  2  1  0
  6  4  1  0
  7  6  1  0
  8  7  1  0
  9  8  2  0
 10 11  1  0
 12 11  1  1
 12 14  1  0
 12 13  1  0
 13  8  1  0
 14 15  1  0
 16 14  2  0
M  END
$$$$
