AGS.pdb
     RDKit          3D

 16 15  0  0  1  0  0  0  0  0999 V2000
    7.6072  -13.0763   18.6334 C   0  0  0  0  0  0  0  0  0  0  0  0
    8.6193  -13.4442   19.6818 C   0  0  2  0  0  0  0  0  0  0  0  0
    9.3145  -14.6490   19.3224 N   0  0  0  0  0  0  0  0  0  0  0  0
    7.9287  -13.6085   20.9737 C   0  0  0  0  0  0  0  0  0  0  0  0
    7.2737  -12.6628   21.4826 O   0  0  0  0  0  0  0  0  0  0  0  0
    7.9986  -14.8499   21.6612 N   0  0  0  0  0  0  0  0  0  0  0  0
    7.2478  -15.0377   22.9020 C   0  0  0  0  0  0  0  0  0  0  0  0
    7.9293  -14.3433   24.0030 C   0  0  0  0  0  0  0  0  0  0  0  0
    9.1422  -14.0300   23.9312 O   0  0  0  0  0  0  0  0  0  0  0  0
    5.6797  -13.0202   27.0706 O   0  0  0  0  0  0  0  0  0  0  0  0
    6.7870  -12.2445   26.7227 C   0  0  0  0  0  0  0  0  0  0  0  0
    7.8451  -13.1792   26.2088 C   0  0  2  0  0  0  0  0  0  0  0  0
    7.2181  -14.0143   25.1738 N   0  0  0  0  0  0  0  0  0  0  0  0
    8.3818  -14.0385   27.3012 C   0  0  0  0  0  0  0  0  0  0  0  0
    9.0924  -13.4281   28.3121 O   0  0  0  0  0  0  0  0  0  0  0  0
    8.2164  -15.2847   27.3412 O   0  0  0  0  0  0  0  0  0  0  0  0
  2  1  1  6
  2  3  1  0
  4  5  2  0
  4  2  1  0
  6  4  1  0
  7  6  1  0
  8  7  1  0
  9  8  2  0
 10 11  1  0
 12 11  1  1
 12 14  1  0
 12 13  1  0
 13  8  1  0
 14 15  1  0
 16 14  2  0
M  END
$$$$
