AGS.pdb
     RDKit          3D

 16 15  0  0  1  0  0  0  0  0999 V2000
    6.9191  -12.8281   19.4476 C   0  0  0  0  0  0  0  0  0  0  0  0
    7.5192  -14.2058   19.4199 C   0  0  2  0  0  0  0  0  0  0  0  0
    6.6400  -15.1602   20.0365 N   0  0  0  0  0  0  0  0  0  0  0  0
    8.8194  -14.1731   20.1136 C   0  0  0  0  0  0  0  0  0  0  0  0
    9.7994  -13.5549   19.6238 O   0  0  0  0  0  0  0  0  0  0  0  0
    8.9772  -14.8472   21.3544 N   0  0  0  0  0  0  0  0  0  0  0  0
   10.2264  -14.7113   22.1024 C   0  0  0  0  0  0  0  0  0  0  0  0
   10.1915  -15.5805   23.2866 C   0  0  0  0  0  0  0  0  0  0  0  0
    9.4691  -15.3125   24.2769 O   0  0  0  0  0  0  0  0  0  0  0  0
   11.7752  -19.2126   22.9614 O   0  0  0  0  0  0  0  0  0  0  0  0
   10.7598  -19.0550   23.9063 C   0  0  0  0  0  0  0  0  0  0  0  0
   10.8824  -17.6670   24.4683 C   0  0  2  0  0  0  0  0  0  0  0  0
   10.9819  -16.7459   23.3266 N   0  0  0  0  0  0  0  0  0  0  0  0
   12.0894  -17.5402   25.3325 C   0  0  0  0  0  0  0  0  0  0  0  0
   12.0885  -18.1994   26.5428 O   0  0  0  0  0  0  0  0  0  0  0  0
   13.0997  -16.8644   25.0091 O   0  0  0  0  0  0  0  0  0  0  0  0
  2  1  1  1
  2  3  1  0
  4  5  2  0
  4  2  1  0
  6  4  1  0
  7  6  1  0
  8  7  1  0
  9  8  2  0
 10 11  1  0
 12 11  1  6
 12 14  1  0
 12 13  1  0
 13  8  1  0
 14 15  1  0
 16 14  2  0
M  END
$$$$
