AGS.pdb
     RDKit          3D

 16 15  0  0  1  0  0  0  0  0999 V2000
    8.5199  -12.5130   20.2542 C   0  0  0  0  0  0  0  0  0  0  0  0
    7.9487  -13.8954   20.1078 C   0  0  2  0  0  0  0  0  0  0  0  0
    6.5289  -13.8433   19.8946 N   0  0  0  0  0  0  0  0  0  0  0  0
    8.2638  -14.6719   21.3205 C   0  0  0  0  0  0  0  0  0  0  0  0
    9.4398  -15.0478   21.5613 O   0  0  0  0  0  0  0  0  0  0  0  0
    7.2300  -15.0053   22.2365 N   0  0  0  0  0  0  0  0  0  0  0  0
    7.5310  -15.8347   23.4027 C   0  0  0  0  0  0  0  0  0  0  0  0
    8.3476  -15.0710   24.3560 C   0  0  0  0  0  0  0  0  0  0  0  0
    8.7510  -13.9120   24.0942 O   0  0  0  0  0  0  0  0  0  0  0  0
    9.3773  -13.4312   28.3676 O   0  0  0  0  0  0  0  0  0  0  0  0
    8.5964  -14.2122   27.5138 C   0  0  0  0  0  0  0  0  0  0  0  0
    9.5278  -14.8872   26.5471 C   0  0  2  0  0  0  0  0  0  0  0  0
    8.6943  -15.6392   25.5976 N   0  0  0  0  0  0  0  0  0  0  0  0
   10.4585  -15.8125   27.2524 C   0  0  0  0  0  0  0  0  0  0  0  0
   11.6079  -15.2808   27.7960 O   0  0  0  0  0  0  0  0  0  0  0  0
   10.2435  -17.0459   27.3723 O   0  0  0  0  0  0  0  0  0  0  0  0
  2  1  1  1
  2  3  1  0
  4  5  2  0
  4  2  1  0
  6  4  1  0
  7  6  1  0
  8  7  1  0
  9  8  2  0
 10 11  1  0
 12 11  1  1
 12 14  1  0
 12 13  1  0
 13  8  1  0
 14 15  1  0
 16 14  2  0
M  END
$$$$
