AGS.pdb
     RDKit          3D

 16 15  0  0  1  0  0  0  0  0999 V2000
    7.5525  -12.9239   19.0106 C   0  0  0  0  0  0  0  0  0  0  0  0
    8.5487  -13.6885   19.8362 C   0  0  2  0  0  0  0  0  0  0  0  0
    8.7577  -15.0042   19.2983 N   0  0  0  0  0  0  0  0  0  0  0  0
    8.0576  -13.7665   21.2239 C   0  0  0  0  0  0  0  0  0  0  0  0
    7.8360  -12.7239   21.8919 O   0  0  0  0  0  0  0  0  0  0  0  0
    7.8284  -15.0339   21.8238 N   0  0  0  0  0  0  0  0  0  0  0  0
    7.3059  -15.1095   23.1876 C   0  0  0  0  0  0  0  0  0  0  0  0
    8.3241  -14.6355   24.1350 C   0  0  0  0  0  0  0  0  0  0  0  0
    9.5491  -14.7073   23.8729 O   0  0  0  0  0  0  0  0  0  0  0  0
    7.0313  -12.9087   27.4657 O   0  0  0  0  0  0  0  0  0  0  0  0
    8.3108  -12.4827   27.1051 C   0  0  0  0  0  0  0  0  0  0  0  0
    8.9459  -13.5914   26.3145 C   0  0  2  0  0  0  0  0  0  0  0  0
    7.9321  -14.0848   25.3709 N   0  0  0  0  0  0  0  0  0  0  0  0
    9.3958  -14.6985   27.2045 C   0  0  0  0  0  0  0  0  0  0  0  0
   10.4017  -14.4316   28.1080 O   0  0  0  0  0  0  0  0  0  0  0  0
    8.9027  -15.8549   27.1677 O   0  0  0  0  0  0  0  0  0  0  0  0
  2  1  1  6
  2  3  1  0
  4  5  2  0
  4  2  1  0
  6  4  1  0
  7  6  1  0
  8  7  1  0
  9  8  2  0
 10 11  1  0
 12 11  1  1
 12 14  1  0
 12 13  1  0
 13  8  1  0
 14 15  1  0
 16 14  2  0
M  END
$$$$
