ISY.pdb
     RDKit          3D

 27 27  0  0  1  0  0  0  0  0999 V2000
    7.8870  -11.4937   19.4514 C   0  0  0  0  0  0  0  0  0  0  0  0
    8.0885  -12.9474   19.1876 C   0  0  0  0  0  0  0  0  0  0  0  0
    7.8971  -13.8589   20.3477 C   0  0  2  0  0  0  0  0  0  0  0  0
    8.7351  -13.4648   21.5481 C   0  0  0  0  0  0  0  0  0  0  0  0
    8.0748  -15.3066   20.0438 C   0  0  2  0  0  0  0  0  0  0  0  0
    7.2527  -15.7374   18.9566 N   0  0  0  0  0  0  0  0  0  0  0  0
    7.8451  -16.1799   21.2181 C   0  0  0  0  0  0  0  0  0  0  0  0
    6.6566  -16.3959   21.6433 O   0  0  0  0  0  0  0  0  0  0  0  0
   10.8347  -18.6130   22.2641 O   0  0  0  0  0  0  0  0  0  0  0  0
    9.5702  -18.9340   22.7065 C   0  0  0  0  0  0  0  0  0  0  0  0
    8.7330  -17.6925   23.0220 C   0  0  2  0  0  0  0  0  0  0  0  0
    8.9146  -16.7822   21.8839 N   0  0  0  0  0  0  0  0  0  0  0  0
    9.3033  -16.9902   24.2212 C   0  0  0  0  0  0  0  0  0  0  0  0
   10.2517  -16.1667   24.1108 O   0  0  0  0  0  0  0  0  0  0  0  0
    6.1428  -11.2608   25.5645 O   0  0  0  0  0  0  0  0  0  0  0  0
    6.7291  -12.4127   26.0696 C   0  0  0  0  0  0  0  0  0  0  0  0
    8.0654  -12.4859   26.4006 C   0  0  0  0  0  0  0  0  0  0  0  0
    8.6388  -13.6514   26.9071 C   0  0  0  0  0  0  0  0  0  0  0  0
    7.8755  -14.7849   27.0954 C   0  0  0  0  0  0  0  0  0  0  0  0
    8.4179  -16.0276   27.6117 C   0  0  0  0  0  0  0  0  0  0  0  0
    9.4467  -16.6107   26.6999 C   0  0  2  0  0  0  0  0  0  0  0  0
    8.7983  -17.2249   25.5253 N   0  0  0  0  0  0  0  0  0  0  0  0
   10.2075  -17.6658   27.3710 C   0  0  0  0  0  0  0  0  0  0  0  0
   10.1087  -18.8558   27.0038 O   0  0  0  0  0  0  0  0  0  0  0  0
    6.5208  -14.6978   26.7558 C   0  0  0  0  0  0  0  0  0  0  0  0
    5.9584  -13.5407   26.2547 C   0  0  0  0  0  0  0  0  0  0  0  0
   11.0502  -17.3687   28.4193 O   0  0  0  0  0  0  0  0  0  0  0  0
  1  2  1  0
  2  3  1  0
  3  4  1  1
  5  3  1  0
  5  6  1  6
  7  5  1  0
  8  7  2  0
  9 10  1  0
 11 10  1  6
 11 12  1  0
 12  7  1  0
 13 22  1  0
 13 11  1  0
 14 13  2  0
 16 15  1  0
 17 16  2  0
 18 17  1  0
 19 25  1  0
 19 18  2  0
 21 20  1  1
 20 19  1  0
 21 22  1  0
 23 21  1  0
 24 23  2  0
 25 26  2  0
 26 16  1  0
 27 23  1  0
M  END
$$$$
