ISY.pdb
     RDKit          3D

 27 27  0  0  1  0  0  0  0  0999 V2000
    7.9234  -11.9003   20.2529 C   0  0  0  0  0  0  0  0  0  0  0  0
    7.6785  -13.2948   19.7850 C   0  0  0  0  0  0  0  0  0  0  0  0
    8.6443  -13.8337   18.7901 C   0  0  2  0  0  0  0  0  0  0  0  0
    8.7723  -12.9552   17.5612 C   0  0  0  0  0  0  0  0  0  0  0  0
    8.4106  -15.2505   18.3930 C   0  0  2  0  0  0  0  0  0  0  0  0
    7.1981  -15.4136   17.6537 N   0  0  0  0  0  0  0  0  0  0  0  0
    8.4231  -16.1860   19.5415 C   0  0  0  0  0  0  0  0  0  0  0  0
    7.3247  -16.5878   20.0630 O   0  0  0  0  0  0  0  0  0  0  0  0
   11.8114  -18.2831   20.4562 O   0  0  0  0  0  0  0  0  0  0  0  0
   10.5802  -18.6682   20.9393 C   0  0  0  0  0  0  0  0  0  0  0  0
    9.6945  -17.4711   21.2916 C   0  0  2  0  0  0  0  0  0  0  0  0
    9.6273  -16.6465   20.0781 N   0  0  0  0  0  0  0  0  0  0  0  0
   10.3723  -16.6317   22.3370 C   0  0  0  0  0  0  0  0  0  0  0  0
   11.2869  -15.8182   22.0347 O   0  0  0  0  0  0  0  0  0  0  0  0
   10.9691  -15.1214   31.0032 O   0  0  0  0  0  0  0  0  0  0  0  0
   10.6624  -15.0790   29.6506 C   0  0  0  0  0  0  0  0  0  0  0  0
    9.6389  -14.3082   29.1417 C   0  0  0  0  0  0  0  0  0  0  0  0
    9.3438  -14.2770   27.7795 C   0  0  0  0  0  0  0  0  0  0  0  0
   10.0775  -15.0280   26.8848 C   0  0  0  0  0  0  0  0  0  0  0  0
    9.8124  -15.0415   25.4585 C   0  0  0  0  0  0  0  0  0  0  0  0
   10.7460  -15.9467   24.7243 C   0  0  2  0  0  0  0  0  0  0  0  0
   10.0110  -16.7203   23.7053 N   0  0  0  0  0  0  0  0  0  0  0  0
   11.3655  -16.9129   25.6327 C   0  0  0  0  0  0  0  0  0  0  0  0
   10.7931  -17.9890   25.9067 O   0  0  0  0  0  0  0  0  0  0  0  0
   11.1135  -15.8060   27.4136 C   0  0  0  0  0  0  0  0  0  0  0  0
   11.4013  -15.8328   28.7637 C   0  0  0  0  0  0  0  0  0  0  0  0
   12.5935  -16.6574   26.2022 O   0  0  0  0  0  0  0  0  0  0  0  0
  1  2  1  0
  2  3  1  0
  3  4  1  6
  5  3  1  0
  5  6  1  1
  7  5  1  0
  8  7  2  0
  9 10  1  0
 11 10  1  6
 11 12  1  0
 12  7  1  0
 13 22  1  0
 13 11  1  0
 14 13  2  0
 16 15  1  0
 17 16  2  0
 18 17  1  0
 19 25  1  0
 19 18  2  0
 21 20  1  1
 20 19  1  0
 21 22  1  0
 23 21  1  0
 24 23  2  0
 25 26  2  0
 26 16  1  0
 27 23  1  0
M  END
$$$$
