ISY.pdb
     RDKit          3D

 27 27  0  0  1  0  0  0  0  0999 V2000
    7.4753  -11.9418   19.5481 C   0  0  0  0  0  0  0  0  0  0  0  0
    7.5480  -13.3513   19.0672 C   0  0  0  0  0  0  0  0  0  0  0  0
    8.3164  -14.2980   19.9195 C   0  0  2  0  0  0  0  0  0  0  0  0
    9.7285  -13.8224   20.1989 C   0  0  0  0  0  0  0  0  0  0  0  0
    8.3297  -15.7074   19.4366 C   0  0  2  0  0  0  0  0  0  0  0  0
    7.0213  -16.1810   19.1093 N   0  0  0  0  0  0  0  0  0  0  0  0
    8.9739  -16.6422   20.3883 C   0  0  0  0  0  0  0  0  0  0  0  0
    8.3225  -17.0964   21.3929 O   0  0  0  0  0  0  0  0  0  0  0  0
   13.0622  -17.3787   20.0935 O   0  0  0  0  0  0  0  0  0  0  0  0
   12.2349  -18.4483   20.3564 C   0  0  0  0  0  0  0  0  0  0  0  0
   10.9557  -18.0278   21.0835 C   0  0  2  0  0  0  0  0  0  0  0  0
   10.2993  -17.0449   20.2116 N   0  0  0  0  0  0  0  0  0  0  0  0
   11.3100  -17.3010   22.3495 C   0  0  0  0  0  0  0  0  0  0  0  0
   11.7826  -16.1323   22.3257 O   0  0  0  0  0  0  0  0  0  0  0  0
    5.1726  -16.7997   24.5576 O   0  0  0  0  0  0  0  0  0  0  0  0
    6.5426  -16.6249   24.6920 C   0  0  0  0  0  0  0  0  0  0  0  0
    7.3577  -17.5579   25.2968 C   0  0  0  0  0  0  0  0  0  0  0  0
    8.7328  -17.3666   25.4238 C   0  0  0  0  0  0  0  0  0  0  0  0
    9.3298  -16.2205   24.9411 C   0  0  0  0  0  0  0  0  0  0  0  0
   10.7534  -15.9632   25.0508 C   0  0  0  0  0  0  0  0  0  0  0  0
   11.5632  -17.2011   24.8463 C   0  0  2  0  0  0  0  0  0  0  0  0
   11.1273  -17.8996   23.6219 N   0  0  0  0  0  0  0  0  0  0  0  0
   11.3870  -18.1352   25.9594 C   0  0  0  0  0  0  0  0  0  0  0  0
   11.6491  -17.7887   27.1307 O   0  0  0  0  0  0  0  0  0  0  0  0
    8.4918  -15.2815   24.3294 C   0  0  0  0  0  0  0  0  0  0  0  0
    7.1305  -15.4764   24.2064 C   0  0  0  0  0  0  0  0  0  0  0  0
   10.9261  -19.4145   25.7393 O   0  0  0  0  0  0  0  0  0  0  0  0
  1  2  1  0
  2  3  1  0
  3  4  1  6
  5  3  1  0
  5  6  1  1
  7  5  1  0
  8  7  2  0
  9 10  1  0
 11 10  1  6
 11 12  1  0
 12  7  1  0
 13 22  1  0
 13 11  1  0
 14 13  2  0
 16 15  1  0
 17 16  2  0
 18 17  1  0
 19 25  1  0
 19 18  2  0
 21 20  1  1
 20 19  1  0
 21 22  1  0
 23 21  1  0
 24 23  2  0
 25 26  2  0
 26 16  1  0
 27 23  1  0
M  END
$$$$
