ISY.pdb
     RDKit          3D

 27 27  0  0  1  0  0  0  0  0999 V2000
    6.5044  -11.7165   26.9357 C   0  0  0  0  0  0  0  0  0  0  0  0
    6.0567  -13.0050   26.3336 C   0  0  0  0  0  0  0  0  0  0  0  0
    7.1129  -13.8329   25.6914 C   0  0  2  0  0  0  0  0  0  0  0  0
    7.8717  -13.0834   24.6140 C   0  0  0  0  0  0  0  0  0  0  0  0
    6.6495  -15.1522   25.1773 C   0  0  2  0  0  0  0  0  0  0  0  0
    5.8610  -15.8613   26.1359 N   0  0  0  0  0  0  0  0  0  0  0  0
    7.7582  -16.0155   24.7083 C   0  0  0  0  0  0  0  0  0  0  0  0
    8.4614  -16.6810   25.5465 O   0  0  0  0  0  0  0  0  0  0  0  0
    9.0290  -15.6971   20.7841 O   0  0  0  0  0  0  0  0  0  0  0  0
    8.9959  -16.9683   21.3138 C   0  0  0  0  0  0  0  0  0  0  0  0
    9.1452  -16.9665   22.8368 C   0  0  2  0  0  0  0  0  0  0  0  0
    8.0593  -16.1205   23.3487 N   0  0  0  0  0  0  0  0  0  0  0  0
   10.4286  -16.2850   23.2177 C   0  0  0  0  0  0  0  0  0  0  0  0
   10.6853  -15.1097   22.8401 O   0  0  0  0  0  0  0  0  0  0  0  0
   10.1858  -16.3069   30.2366 O   0  0  0  0  0  0  0  0  0  0  0  0
   10.6928  -15.9593   28.9925 C   0  0  0  0  0  0  0  0  0  0  0  0
   10.2402  -14.8687   28.2809 C   0  0  0  0  0  0  0  0  0  0  0  0
   10.7606  -14.5333   27.0317 C   0  0  0  0  0  0  0  0  0  0  0  0
   11.7595  -15.2937   26.4601 C   0  0  0  0  0  0  0  0  0  0  0  0
   12.3343  -14.9980   25.1612 C   0  0  0  0  0  0  0  0  0  0  0  0
   12.6481  -16.2392   24.3924 C   0  0  2  0  0  0  0  0  0  0  0  0
   11.4026  -16.9355   24.0169 N   0  0  0  0  0  0  0  0  0  0  0  0
   13.4357  -17.1728   25.1987 C   0  0  0  0  0  0  0  0  0  0  0  0
   12.9723  -18.2880   25.5184 O   0  0  0  0  0  0  0  0  0  0  0  0
   12.2103  -16.3977   27.1923 C   0  0  0  0  0  0  0  0  0  0  0  0
   11.6913  -16.7250   28.4291 C   0  0  0  0  0  0  0  0  0  0  0  0
   14.7051  -16.8429   25.6197 O   0  0  0  0  0  0  0  0  0  0  0  0
  1  2  1  0
  2  3  1  0
  3  4  1  6
  5  3  1  0
  5  6  1  1
  7  5  1  0
  8  7  2  0
  9 10  1  0
 11 10  1  6
 11 12  1  0
 12  7  1  0
 13 22  1  0
 13 11  1  0
 14 13  2  0
 16 15  1  0
 17 16  2  0
 18 17  1  0
 19 25  1  0
 19 18  2  0
 21 20  1  1
 20 19  1  0
 21 22  1  0
 23 21  1  0
 24 23  2  0
 25 26  2  0
 26 16  1  0
 27 23  1  0
M  END
$$$$
