ISY.pdb
     RDKit          3D

 27 27  0  0  1  0  0  0  0  0999 V2000
    6.9205  -12.7583   17.0414 C   0  0  0  0  0  0  0  0  0  0  0  0
    8.2139  -13.3014   17.5470 C   0  0  0  0  0  0  0  0  0  0  0  0
    8.1554  -14.0513   18.8305 C   0  0  2  0  0  0  0  0  0  0  0  0
    7.4954  -13.2602   19.9427 C   0  0  0  0  0  0  0  0  0  0  0  0
    9.4583  -14.6073   19.2919 C   0  0  2  0  0  0  0  0  0  0  0  0
   10.1329  -15.3342   18.2624 N   0  0  0  0  0  0  0  0  0  0  0  0
    9.3335  -15.4553   20.5001 C   0  0  0  0  0  0  0  0  0  0  0  0
    8.7703  -15.0005   21.5565 O   0  0  0  0  0  0  0  0  0  0  0  0
   11.7336  -18.6817   21.1111 O   0  0  0  0  0  0  0  0  0  0  0  0
   10.3960  -18.9506   21.3015 C   0  0  0  0  0  0  0  0  0  0  0  0
    9.5911  -17.6903   21.6265 C   0  0  2  0  0  0  0  0  0  0  0  0
    9.8263  -16.7618   20.5131 N   0  0  0  0  0  0  0  0  0  0  0  0
   10.1562  -17.0325   22.8531 C   0  0  0  0  0  0  0  0  0  0  0  0
   11.1754  -16.2928   22.7913 O   0  0  0  0  0  0  0  0  0  0  0  0
   11.0723  -14.4218   31.2508 O   0  0  0  0  0  0  0  0  0  0  0  0
   10.5865  -14.8235   30.0145 C   0  0  0  0  0  0  0  0  0  0  0  0
   10.1286  -16.1011   29.7725 C   0  0  0  0  0  0  0  0  0  0  0  0
    9.6436  -16.4885   28.5241 C   0  0  0  0  0  0  0  0  0  0  0  0
    9.6065  -15.5921   27.4762 C   0  0  0  0  0  0  0  0  0  0  0  0
    9.1199  -15.9395   26.1544 C   0  0  0  0  0  0  0  0  0  0  0  0
   10.1711  -16.6043   25.3279 C   0  0  2  0  0  0  0  0  0  0  0  0
    9.5665  -17.2168   24.1294 N   0  0  0  0  0  0  0  0  0  0  0  0
   10.8268  -17.6787   26.0749 C   0  0  0  0  0  0  0  0  0  0  0  0
   10.3415  -18.8297   26.0957 O   0  0  0  0  0  0  0  0  0  0  0  0
   10.0740  -14.2987   27.7347 C   0  0  0  0  0  0  0  0  0  0  0  0
   10.5531  -13.9207   28.9732 C   0  0  0  0  0  0  0  0  0  0  0  0
   11.9937  -17.4442   26.7684 O   0  0  0  0  0  0  0  0  0  0  0  0
  1  2  1  0
  2  3  1  0
  3  4  1  1
  5  3  1  0
  5  6  1  6
  7  5  1  0
  8  7  2  0
  9 10  1  0
 11 10  1  6
 11 12  1  0
 12  7  1  0
 13 22  1  0
 13 11  1  0
 14 13  2  0
 16 15  1  0
 17 16  2  0
 18 17  1  0
 19 25  1  0
 19 18  2  0
 21 20  1  1
 20 19  1  0
 21 22  1  0
 23 21  1  0
 24 23  2  0
 25 26  2  0
 26 16  1  0
 27 23  1  0
M  END
$$$$
