ISY.pdb
     RDKit          3D

 27 27  0  0  1  0  0  0  0  0999 V2000
    8.0431  -12.0256   19.3188 C   0  0  0  0  0  0  0  0  0  0  0  0
    8.0815  -13.5138   19.2336 C   0  0  0  0  0  0  0  0  0  0  0  0
    8.2482  -14.2420   20.5202 C   0  0  2  0  0  0  0  0  0  0  0  0
    9.4199  -13.7317   21.3356 C   0  0  0  0  0  0  0  0  0  0  0  0
    8.3082  -15.7256   20.3978 C   0  0  2  0  0  0  0  0  0  0  0  0
    7.2174  -16.2518   19.6385 N   0  0  0  0  0  0  0  0  0  0  0  0
    8.3815  -16.4146   21.7072 C   0  0  0  0  0  0  0  0  0  0  0  0
    7.3130  -16.6818   22.3604 O   0  0  0  0  0  0  0  0  0  0  0  0
   11.8105  -18.3591   22.6605 O   0  0  0  0  0  0  0  0  0  0  0  0
   10.6226  -18.7063   23.2655 C   0  0  0  0  0  0  0  0  0  0  0  0
    9.7323  -17.4916   23.5364 C   0  0  2  0  0  0  0  0  0  0  0  0
    9.6117  -16.7845   22.2549 N   0  0  0  0  0  0  0  0  0  0  0  0
   10.4332  -16.5509   24.4748 C   0  0  0  0  0  0  0  0  0  0  0  0
   11.4239  -15.8668   24.1005 O   0  0  0  0  0  0  0  0  0  0  0  0
    5.1346  -12.7923   26.9550 O   0  0  0  0  0  0  0  0  0  0  0  0
    6.4702  -13.1566   26.8599 C   0  0  0  0  0  0  0  0  0  0  0  0
    6.9184  -14.1271   25.9894 C   0  0  0  0  0  0  0  0  0  0  0  0
    8.2643  -14.4813   25.9064 C   0  0  0  0  0  0  0  0  0  0  0  0
    9.2037  -13.8626   26.7050 C   0  0  0  0  0  0  0  0  0  0  0  0
   10.6156  -14.1939   26.6680 C   0  0  0  0  0  0  0  0  0  0  0  0
   10.8487  -15.6641   26.7876 C   0  0  2  0  0  0  0  0  0  0  0  0
   10.0090  -16.3945   25.8188 N   0  0  0  0  0  0  0  0  0  0  0  0
   10.4861  -16.1478   28.1206 C   0  0  0  0  0  0  0  0  0  0  0  0
    9.6218  -17.0386   28.2629 O   0  0  0  0  0  0  0  0  0  0  0  0
    8.7362  -12.8793   27.5841 C   0  0  0  0  0  0  0  0  0  0  0  0
    7.4020  -12.5326   27.6618 C   0  0  0  0  0  0  0  0  0  0  0  0
   11.0919  -15.6333   29.2457 O   0  0  0  0  0  0  0  0  0  0  0  0
  1  2  1  0
  2  3  1  0
  3  4  1  6
  5  3  1  0
  5  6  1  1
  7  5  1  0
  8  7  2  0
  9 10  1  0
 11 10  1  6
 11 12  1  0
 12  7  1  0
 13 22  1  0
 13 11  1  0
 14 13  2  0
 16 15  1  0
 17 16  2  0
 18 17  1  0
 19 25  1  0
 19 18  2  0
 21 20  1  1
 20 19  1  0
 21 22  1  0
 23 21  1  0
 24 23  2  0
 25 26  2  0
 26 16  1  0
 27 23  1  0
M  END
$$$$
