ISY.pdb
     RDKit          3D

 27 27  0  0  1  0  0  0  0  0999 V2000
    7.5803  -11.5921   19.1495 C   0  0  0  0  0  0  0  0  0  0  0  0
    7.9984  -12.8938   18.5544 C   0  0  0  0  0  0  0  0  0  0  0  0
    8.1783  -14.0238   19.5052 C   0  0  2  0  0  0  0  0  0  0  0  0
    9.1234  -13.6891   20.6423 C   0  0  0  0  0  0  0  0  0  0  0  0
    8.5624  -15.3182   18.8754 C   0  0  2  0  0  0  0  0  0  0  0  0
    7.6558  -15.7084   17.8414 N   0  0  0  0  0  0  0  0  0  0  0  0
    8.7060  -16.4211   19.8539 C   0  0  0  0  0  0  0  0  0  0  0  0
    7.7190  -17.1970   20.1064 O   0  0  0  0  0  0  0  0  0  0  0  0
   12.1692  -18.2957   20.4412 O   0  0  0  0  0  0  0  0  0  0  0  0
   10.9434  -18.7739   20.8491 C   0  0  0  0  0  0  0  0  0  0  0  0
   10.0938  -17.6939   21.5225 C   0  0  2  0  0  0  0  0  0  0  0  0
    9.9146  -16.6362   20.5195 N   0  0  0  0  0  0  0  0  0  0  0  0
   10.8651  -17.0776   22.6548 C   0  0  0  0  0  0  0  0  0  0  0  0
   11.3159  -15.9025   22.5795 O   0  0  0  0  0  0  0  0  0  0  0  0
   10.4252  -14.0701   30.6668 O   0  0  0  0  0  0  0  0  0  0  0  0
   10.3431  -14.5814   29.3794 C   0  0  0  0  0  0  0  0  0  0  0  0
   10.2613  -13.7784   28.2618 C   0  0  0  0  0  0  0  0  0  0  0  0
   10.1793  -14.3086   26.9750 C   0  0  0  0  0  0  0  0  0  0  0  0
   10.1772  -15.6738   26.7769 C   0  0  0  0  0  0  0  0  0  0  0  0
   10.0867  -16.2828   25.4632 C   0  0  0  0  0  0  0  0  0  0  0  0
   11.3090  -17.0720   25.1268 C   0  0  2  0  0  0  0  0  0  0  0  0
   11.1171  -17.7921   23.8534 N   0  0  0  0  0  0  0  0  0  0  0  0
   11.5840  -18.0793   26.1525 C   0  0  0  0  0  0  0  0  0  0  0  0
   10.8635  -19.0942   26.2595 O   0  0  0  0  0  0  0  0  0  0  0  0
   10.2607  -16.4778   27.9190 C   0  0  0  0  0  0  0  0  0  0  0  0
   10.3418  -15.9471   29.1911 C   0  0  0  0  0  0  0  0  0  0  0  0
   12.6441  -17.9308   27.0195 O   0  0  0  0  0  0  0  0  0  0  0  0
  1  2  1  0
  2  3  1  0
  3  4  1  1
  5  3  1  0
  5  6  1  6
  7  5  1  0
  8  7  2  0
  9 10  1  0
 11 10  1  6
 11 12  1  0
 12  7  1  0
 13 22  1  0
 13 11  1  0
 14 13  2  0
 16 15  1  0
 17 16  2  0
 18 17  1  0
 19 25  1  0
 19 18  2  0
 21 20  1  1
 20 19  1  0
 21 22  1  0
 23 21  1  0
 24 23  2  0
 25 26  2  0
 26 16  1  0
 27 23  1  0
M  END
$$$$
