ISY.pdb
     RDKit          3D

 27 27  0  0  1  0  0  0  0  0999 V2000
    6.3322  -11.5103   26.8440 C   0  0  0  0  0  0  0  0  0  0  0  0
    5.9306  -12.8965   26.4689 C   0  0  0  0  0  0  0  0  0  0  0  0
    6.9215  -13.6775   25.6806 C   0  0  2  0  0  0  0  0  0  0  0  0
    7.4695  -12.9051   24.4968 C   0  0  0  0  0  0  0  0  0  0  0  0
    6.4575  -15.0262   25.2501 C   0  0  2  0  0  0  0  0  0  0  0  0
    5.8283  -15.7477   26.3117 N   0  0  0  0  0  0  0  0  0  0  0  0
    7.5365  -15.8511   24.6588 C   0  0  0  0  0  0  0  0  0  0  0  0
    8.3459  -16.4974   25.4119 O   0  0  0  0  0  0  0  0  0  0  0  0
    8.2747  -15.4556   20.7015 O   0  0  0  0  0  0  0  0  0  0  0  0
    8.3943  -16.7578   21.1346 C   0  0  0  0  0  0  0  0  0  0  0  0
    8.6587  -16.8473   22.6391 C   0  0  2  0  0  0  0  0  0  0  0  0
    7.6941  -15.9400   23.2741 N   0  0  0  0  0  0  0  0  0  0  0  0
   10.0226  -16.2974   22.9458 C   0  0  0  0  0  0  0  0  0  0  0  0
   10.5743  -15.4510   22.1916 O   0  0  0  0  0  0  0  0  0  0  0  0
    9.8008  -16.4338   30.2549 O   0  0  0  0  0  0  0  0  0  0  0  0
   10.3330  -16.0631   29.0282 C   0  0  0  0  0  0  0  0  0  0  0  0
    9.8085  -15.0411   28.2658 C   0  0  0  0  0  0  0  0  0  0  0  0
   10.3555  -14.6813   27.0350 C   0  0  0  0  0  0  0  0  0  0  0  0
   11.4550  -15.3466   26.5338 C   0  0  0  0  0  0  0  0  0  0  0  0
   12.0627  -15.0217   25.2571 C   0  0  0  0  0  0  0  0  0  0  0  0
   12.1078  -16.2013   24.3425 C   0  0  2  0  0  0  0  0  0  0  0  0
   10.7443  -16.7079   24.0953 N   0  0  0  0  0  0  0  0  0  0  0  0
   12.8726  -17.2989   24.9364 C   0  0  0  0  0  0  0  0  0  0  0  0
   12.3201  -18.3842   25.2147 O   0  0  0  0  0  0  0  0  0  0  0  0
   11.9780  -16.3816   27.3170 C   0  0  0  0  0  0  0  0  0  0  0  0
   11.4321  -16.7336   28.5354 C   0  0  0  0  0  0  0  0  0  0  0  0
   14.2178  -17.1594   25.1982 O   0  0  0  0  0  0  0  0  0  0  0  0
  1  2  1  0
  2  3  1  0
  3  4  1  6
  5  3  1  0
  5  6  1  1
  7  5  1  0
  8  7  2  0
  9 10  1  0
 11 10  1  6
 11 12  1  0
 12  7  1  0
 13 22  1  0
 13 11  1  0
 14 13  2  0
 16 15  1  0
 17 16  2  0
 18 17  1  0
 19 25  1  0
 19 18  2  0
 21 20  1  1
 20 19  1  0
 21 22  1  0
 23 21  1  0
 24 23  2  0
 25 26  2  0
 26 16  1  0
 27 23  1  0
M  END
$$$$
