ISY.pdb
     RDKit          3D

 27 27  0  0  1  0  0  0  0  0999 V2000
    5.7974  -11.8650   26.6136 C   0  0  0  0  0  0  0  0  0  0  0  0
    5.5282  -13.1760   25.9562 C   0  0  0  0  0  0  0  0  0  0  0  0
    6.7201  -13.9373   25.4948 C   0  0  2  0  0  0  0  0  0  0  0  0
    7.6541  -13.1034   24.6401 C   0  0  0  0  0  0  0  0  0  0  0  0
    6.4158  -15.2305   24.8206 C   0  0  2  0  0  0  0  0  0  0  0  0
    5.5061  -16.0347   25.5750 N   0  0  0  0  0  0  0  0  0  0  0  0
    7.6284  -16.0186   24.4996 C   0  0  0  0  0  0  0  0  0  0  0  0
    8.0504  -16.9179   25.3078 O   0  0  0  0  0  0  0  0  0  0  0  0
    9.9044  -14.8952   21.2831 O   0  0  0  0  0  0  0  0  0  0  0  0
    9.7450  -16.2551   21.4344 C   0  0  0  0  0  0  0  0  0  0  0  0
    9.4519  -16.6476   22.8841 C   0  0  2  0  0  0  0  0  0  0  0  0
    8.3345  -15.7976   23.3153 N   0  0  0  0  0  0  0  0  0  0  0  0
   10.6217  -16.2820   23.7527 C   0  0  0  0  0  0  0  0  0  0  0  0
   11.0486  -15.0972   23.8151 O   0  0  0  0  0  0  0  0  0  0  0  0
    9.0895  -13.4330   29.3272 O   0  0  0  0  0  0  0  0  0  0  0  0
    9.9274  -14.3347   28.6866 C   0  0  0  0  0  0  0  0  0  0  0  0
   11.2384  -14.0431   28.3753 C   0  0  0  0  0  0  0  0  0  0  0  0
   12.0670  -14.9609   27.7313 C   0  0  0  0  0  0  0  0  0  0  0  0
   11.5939  -16.2081   27.3799 C   0  0  0  0  0  0  0  0  0  0  0  0
   12.4064  -17.2009   26.7024 C   0  0  0  0  0  0  0  0  0  0  0  0
   12.5422  -16.9121   25.2436 C   0  0  2  0  0  0  0  0  0  0  0  0
   11.2929  -17.2541   24.5371 N   0  0  0  0  0  0  0  0  0  0  0  0
   13.6082  -17.7166   24.6447 C   0  0  0  0  0  0  0  0  0  0  0  0
   14.7903  -17.5994   25.0317 O   0  0  0  0  0  0  0  0  0  0  0  0
   10.2619  -16.4919   27.7014 C   0  0  0  0  0  0  0  0  0  0  0  0
    9.4459  -15.5790   28.3394 C   0  0  0  0  0  0  0  0  0  0  0  0
   13.3304  -18.6217   23.6441 O   0  0  0  0  0  0  0  0  0  0  0  0
  1  2  1  0
  2  3  1  0
  3  4  1  6
  5  3  1  0
  5  6  1  1
  7  5  1  0
  8  7  2  0
  9 10  1  0
 11 10  1  6
 11 12  1  0
 12  7  1  0
 13 22  1  0
 13 11  1  0
 14 13  2  0
 16 15  1  0
 17 16  2  0
 18 17  1  0
 19 25  1  0
 19 18  2  0
 21 20  1  1
 20 19  1  0
 21 22  1  0
 23 21  1  0
 24 23  2  0
 25 26  2  0
 26 16  1  0
 27 23  1  0
M  END
$$$$
