ISY.pdb
     RDKit          3D

 27 27  0  0  1  0  0  0  0  0999 V2000
    7.2259  -11.6816   19.8012 C   0  0  0  0  0  0  0  0  0  0  0  0
    7.5158  -12.9883   19.1441 C   0  0  0  0  0  0  0  0  0  0  0  0
    7.9476  -14.0939   20.0410 C   0  0  2  0  0  0  0  0  0  0  0  0
    9.1072  -13.7040   20.9364 C   0  0  0  0  0  0  0  0  0  0  0  0
    8.2343  -15.3839   19.3531 C   0  0  2  0  0  0  0  0  0  0  0  0
    7.1694  -15.7856   18.4881 N   0  0  0  0  0  0  0  0  0  0  0  0
    8.5558  -16.4844   20.2912 C   0  0  0  0  0  0  0  0  0  0  0  0
    7.6270  -17.0589   20.9599 O   0  0  0  0  0  0  0  0  0  0  0  0
   12.5805  -17.6451   20.8750 O   0  0  0  0  0  0  0  0  0  0  0  0
   11.5499  -18.5563   20.9468 C   0  0  0  0  0  0  0  0  0  0  0  0
   10.2532  -17.9269   21.4609 C   0  0  2  0  0  0  0  0  0  0  0  0
    9.8723  -16.9156   20.4663 N   0  0  0  0  0  0  0  0  0  0  0  0
   10.5242  -17.1839   22.7380 C   0  0  0  0  0  0  0  0  0  0  0  0
   10.6068  -15.9260   22.7612 O   0  0  0  0  0  0  0  0  0  0  0  0
   10.5360  -13.9359   30.7230 O   0  0  0  0  0  0  0  0  0  0  0  0
   10.3385  -14.5943   29.5175 C   0  0  0  0  0  0  0  0  0  0  0  0
   10.3073  -15.9687   29.4147 C   0  0  0  0  0  0  0  0  0  0  0  0
   10.1078  -16.6145   28.1954 C   0  0  0  0  0  0  0  0  0  0  0  0
    9.9329  -15.8876   27.0362 C   0  0  0  0  0  0  0  0  0  0  0  0
    9.7288  -16.5037   25.7387 C   0  0  0  0  0  0  0  0  0  0  0  0
   10.9824  -17.1162   25.2065 C   0  0  2  0  0  0  0  0  0  0  0  0
   10.6981  -17.8668   23.9685 N   0  0  0  0  0  0  0  0  0  0  0  0
   11.5515  -18.0663   26.1636 C   0  0  0  0  0  0  0  0  0  0  0  0
   11.2065  -19.2669   26.1528 O   0  0  0  0  0  0  0  0  0  0  0  0
    9.9665  -14.4936   27.1538 C   0  0  0  0  0  0  0  0  0  0  0  0
   10.1644  -13.8594   28.3641 C   0  0  0  0  0  0  0  0  0  0  0  0
   12.4812  -17.6573   27.0941 O   0  0  0  0  0  0  0  0  0  0  0  0
  1  2  1  0
  2  3  1  0
  3  4  1  6
  5  3  1  0
  5  6  1  1
  7  5  1  0
  8  7  2  0
  9 10  1  0
 11 10  1  6
 11 12  1  0
 12  7  1  0
 13 22  1  0
 13 11  1  0
 14 13  2  0
 16 15  1  0
 17 16  2  0
 18 17  1  0
 19 25  1  0
 19 18  2  0
 21 20  1  1
 20 19  1  0
 21 22  1  0
 23 21  1  0
 24 23  2  0
 25 26  2  0
 26 16  1  0
 27 23  1  0
M  END
$$$$
