ISY.pdb
     RDKit          3D

 27 27  0  0  1  0  0  0  0  0999 V2000
    7.5269  -11.9896   19.4496 C   0  0  0  0  0  0  0  0  0  0  0  0
    7.4865  -13.4781   19.5281 C   0  0  0  0  0  0  0  0  0  0  0  0
    8.7716  -14.1849   19.2788 C   0  0  2  0  0  0  0  0  0  0  0  0
    9.4022  -13.8057   17.9534 C   0  0  0  0  0  0  0  0  0  0  0  0
    8.7096  -15.6669   19.4187 C   0  0  2  0  0  0  0  0  0  0  0  0
    7.8946  -16.2730   18.4129 N   0  0  0  0  0  0  0  0  0  0  0  0
    8.2557  -16.1061   20.7587 C   0  0  0  0  0  0  0  0  0  0  0  0
    7.5693  -15.3200   21.5010 O   0  0  0  0  0  0  0  0  0  0  0  0
    9.7415  -19.6887   22.2436 O   0  0  0  0  0  0  0  0  0  0  0  0
    8.4728  -19.3229   22.6365 C   0  0  0  0  0  0  0  0  0  0  0  0
    8.2727  -17.8060   22.6136 C   0  0  2  0  0  0  0  0  0  0  0  0
    8.5663  -17.3800   21.2391 N   0  0  0  0  0  0  0  0  0  0  0  0
    9.3003  -17.1477   23.4896 C   0  0  0  0  0  0  0  0  0  0  0  0
   10.4415  -16.8431   23.0485 O   0  0  0  0  0  0  0  0  0  0  0  0
    5.4008  -12.1115   26.5875 O   0  0  0  0  0  0  0  0  0  0  0  0
    6.5996  -12.7732   26.3622 C   0  0  0  0  0  0  0  0  0  0  0  0
    7.6580  -12.7199   27.2439 C   0  0  0  0  0  0  0  0  0  0  0  0
    8.8560  -13.3909   27.0023 C   0  0  0  0  0  0  0  0  0  0  0  0
    9.0222  -14.1403   25.8562 C   0  0  0  0  0  0  0  0  0  0  0  0
   10.2473  -14.8536   25.5477 C   0  0  0  0  0  0  0  0  0  0  0  0
   10.0962  -16.3285   25.7265 C   0  0  2  0  0  0  0  0  0  0  0  0
    9.0284  -16.8424   24.8474 N   0  0  0  0  0  0  0  0  0  0  0  0
    9.7153  -16.6558   27.1013 C   0  0  0  0  0  0  0  0  0  0  0  0
    8.6098  -17.1825   27.3489 O   0  0  0  0  0  0  0  0  0  0  0  0
    7.9407  -14.1865   24.9694 C   0  0  0  0  0  0  0  0  0  0  0  0
    6.7565  -13.5200   25.2140 C   0  0  0  0  0  0  0  0  0  0  0  0
   10.5683  -16.3926   28.1503 O   0  0  0  0  0  0  0  0  0  0  0  0
  1  2  1  0
  2  3  1  0
  3  4  1  6
  5  3  1  0
  5  6  1  6
  7  5  1  0
  8  7  2  0
  9 10  1  0
 11 10  1  6
 11 12  1  0
 12  7  1  0
 13 22  1  0
 13 11  1  0
 14 13  2  0
 16 15  1  0
 17 16  2  0
 18 17  1  0
 19 25  1  0
 19 18  2  0
 21 20  1  1
 20 19  1  0
 21 22  1  0
 23 21  1  0
 24 23  2  0
 25 26  2  0
 26 16  1  0
 27 23  1  0
M  END
$$$$
