ISY.pdb
     RDKit          3D

 27 27  0  0  1  0  0  0  0  0999 V2000
    7.7414  -11.5813   19.9789 C   0  0  0  0  0  0  0  0  0  0  0  0
    8.0377  -13.0302   19.7884 C   0  0  0  0  0  0  0  0  0  0  0  0
    8.0712  -13.8621   21.0213 C   0  0  2  0  0  0  0  0  0  0  0  0
    9.0256  -13.3218   22.0680 C   0  0  0  0  0  0  0  0  0  0  0  0
    8.3197  -15.3131   20.7922 C   0  0  2  0  0  0  0  0  0  0  0  0
    7.4454  -15.8637   19.8043 N   0  0  0  0  0  0  0  0  0  0  0  0
    8.2404  -16.1196   22.0323 C   0  0  0  0  0  0  0  0  0  0  0  0
    7.1111  -16.5522   22.4537 O   0  0  0  0  0  0  0  0  0  0  0  0
   11.3712  -18.1566   23.0105 O   0  0  0  0  0  0  0  0  0  0  0  0
   10.2162  -18.4704   23.6927 C   0  0  0  0  0  0  0  0  0  0  0  0
    9.3628  -17.2351   23.9884 C   0  0  2  0  0  0  0  0  0  0  0  0
    9.3897  -16.4226   22.7652 N   0  0  0  0  0  0  0  0  0  0  0  0
   10.0205  -16.4113   25.0586 C   0  0  0  0  0  0  0  0  0  0  0  0
   10.9737  -15.6297   24.7932 O   0  0  0  0  0  0  0  0  0  0  0  0
    5.7415  -11.8927   25.0261 O   0  0  0  0  0  0  0  0  0  0  0  0
    6.6285  -12.6124   25.8141 C   0  0  0  0  0  0  0  0  0  0  0  0
    7.9222  -12.1982   26.0495 C   0  0  0  0  0  0  0  0  0  0  0  0
    8.8008  -12.9334   26.8440 C   0  0  0  0  0  0  0  0  0  0  0  0
    8.3972  -14.1162   27.4279 C   0  0  0  0  0  0  0  0  0  0  0  0
    9.2685  -14.9269   28.2577 C   0  0  0  0  0  0  0  0  0  0  0  0
   10.2732  -15.6779   27.4474 C   0  0  2  0  0  0  0  0  0  0  0  0
    9.5961  -16.4792   26.4099 N   0  0  0  0  0  0  0  0  0  0  0  0
   11.0324  -16.6099   28.2825 C   0  0  0  0  0  0  0  0  0  0  0  0
   11.7621  -16.1904   29.2057 O   0  0  0  0  0  0  0  0  0  0  0  0
    7.0820  -14.5256   27.1815 C   0  0  0  0  0  0  0  0  0  0  0  0
    6.2162  -13.7933   26.3939 C   0  0  0  0  0  0  0  0  0  0  0  0
   10.9562  -17.9687   28.0700 O   0  0  0  0  0  0  0  0  0  0  0  0
  1  2  1  0
  2  3  1  0
  3  4  1  1
  5  3  1  0
  5  6  1  6
  7  5  1  0
  8  7  2  0
  9 10  1  0
 11 10  1  6
 11 12  1  0
 12  7  1  0
 13 22  1  0
 13 11  1  0
 14 13  2  0
 16 15  1  0
 17 16  2  0
 18 17  1  0
 19 25  1  0
 19 18  2  0
 21 20  1  1
 20 19  1  0
 21 22  1  0
 23 21  1  0
 24 23  2  0
 25 26  2  0
 26 16  1  0
 27 23  1  0
M  END
$$$$
