ISY.pdb
     RDKit          3D

 27 27  0  0  1  0  0  0  0  0999 V2000
    6.6163  -13.3989   18.3515 C   0  0  0  0  0  0  0  0  0  0  0  0
    7.8832  -14.0537   18.7869 C   0  0  0  0  0  0  0  0  0  0  0  0
    8.8120  -13.2176   19.5941 C   0  0  2  0  0  0  0  0  0  0  0  0
    9.2316  -11.9488   18.8783 C   0  0  0  0  0  0  0  0  0  0  0  0
   10.0066  -13.9361   20.1196 C   0  0  2  0  0  0  0  0  0  0  0  0
   10.8183  -14.4758   19.0741 N   0  0  0  0  0  0  0  0  0  0  0  0
    9.6637  -15.0052   21.0860 C   0  0  0  0  0  0  0  0  0  0  0  0
    8.8672  -14.7679   22.0603 O   0  0  0  0  0  0  0  0  0  0  0  0
   12.0185  -18.4344   21.3079 O   0  0  0  0  0  0  0  0  0  0  0  0
   10.6531  -18.6012   21.3813 C   0  0  0  0  0  0  0  0  0  0  0  0
    9.9451  -17.3595   21.9278 C   0  0  2  0  0  0  0  0  0  0  0  0
   10.2002  -16.2879   20.9564 N   0  0  0  0  0  0  0  0  0  0  0  0
   10.5964  -16.9309   23.2119 C   0  0  0  0  0  0  0  0  0  0  0  0
   11.6720  -16.2731   23.2152 O   0  0  0  0  0  0  0  0  0  0  0  0
    5.9109  -11.5400   27.8873 O   0  0  0  0  0  0  0  0  0  0  0  0
    6.5441  -12.4797   27.0863 C   0  0  0  0  0  0  0  0  0  0  0  0
    7.7823  -12.2639   26.5198 C   0  0  0  0  0  0  0  0  0  0  0  0
    8.4046  -13.2189   25.7172 C   0  0  0  0  0  0  0  0  0  0  0  0
    7.7917  -14.4278   25.4607 C   0  0  0  0  0  0  0  0  0  0  0  0
    8.3868  -15.4561   24.6282 C   0  0  0  0  0  0  0  0  0  0  0  0
    9.4821  -16.1844   25.3354 C   0  0  2  0  0  0  0  0  0  0  0  0
   10.0280  -17.2487   24.4715 N   0  0  0  0  0  0  0  0  0  0  0  0
    8.9851  -16.8306   26.5510 C   0  0  0  0  0  0  0  0  0  0  0  0
    8.3620  -17.9116   26.4898 O   0  0  0  0  0  0  0  0  0  0  0  0
    6.5355  -14.6347   26.0415 C   0  0  0  0  0  0  0  0  0  0  0  0
    5.9240  -13.6852   26.8357 C   0  0  0  0  0  0  0  0  0  0  0  0
    9.1964  -16.2622   27.7878 O   0  0  0  0  0  0  0  0  0  0  0  0
  1  2  1  0
  2  3  1  0
  3  4  1  6
  5  3  1  0
  5  6  1  6
  7  5  1  0
  8  7  2  0
  9 10  1  0
 11 10  1  6
 11 12  1  0
 12  7  1  0
 13 22  1  0
 13 11  1  0
 14 13  2  0
 16 15  1  0
 17 16  2  0
 18 17  1  0
 19 25  1  0
 19 18  2  0
 21 20  1  6
 20 19  1  0
 21 22  1  0
 23 21  1  0
 24 23  2  0
 25 26  2  0
 26 16  1  0
 27 23  1  0
M  END
$$$$
