ISY.pdb
     RDKit          3D

 27 27  0  0  1  0  0  0  0  0999 V2000
    7.9648  -12.0905   20.7455 C   0  0  0  0  0  0  0  0  0  0  0  0
    7.5825  -13.5317   20.7533 C   0  0  0  0  0  0  0  0  0  0  0  0
    8.4856  -14.4556   20.0156 C   0  0  2  0  0  0  0  0  0  0  0  0
    8.7106  -14.0322   18.5774 C   0  0  0  0  0  0  0  0  0  0  0  0
    8.0997  -15.8932   20.0789 C   0  0  2  0  0  0  0  0  0  0  0  0
    6.8894  -16.1617   19.3672 N   0  0  0  0  0  0  0  0  0  0  0  0
    7.9863  -16.4045   21.4646 C   0  0  0  0  0  0  0  0  0  0  0  0
    6.9206  -16.2024   22.1454 O   0  0  0  0  0  0  0  0  0  0  0  0
   10.7748  -19.1291   22.8232 O   0  0  0  0  0  0  0  0  0  0  0  0
    9.5018  -19.0755   23.3467 C   0  0  0  0  0  0  0  0  0  0  0  0
    8.9652  -17.6445   23.4228 C   0  0  2  0  0  0  0  0  0  0  0  0
    9.0345  -17.1131   22.0554 N   0  0  0  0  0  0  0  0  0  0  0  0
    9.8913  -16.8013   24.2523 C   0  0  0  0  0  0  0  0  0  0  0  0
   10.9468  -16.3121   23.7661 O   0  0  0  0  0  0  0  0  0  0  0  0
    5.4007  -12.2882   26.6589 O   0  0  0  0  0  0  0  0  0  0  0  0
    6.6926  -12.7901   26.5903 C   0  0  0  0  0  0  0  0  0  0  0  0
    7.6993  -12.3765   27.4365 C   0  0  0  0  0  0  0  0  0  0  0  0
    8.9924  -12.8912   27.3541 C   0  0  0  0  0  0  0  0  0  0  0  0
    9.3098  -13.8444   26.4089 C   0  0  0  0  0  0  0  0  0  0  0  0
   10.6384  -14.4107   26.2710 C   0  0  0  0  0  0  0  0  0  0  0  0
   10.6394  -15.8907   26.4702 C   0  0  2  0  0  0  0  0  0  0  0  0
    9.6159  -16.5215   25.6149 N   0  0  0  0  0  0  0  0  0  0  0  0
   10.3138  -16.2356   27.8549 C   0  0  0  0  0  0  0  0  0  0  0  0
    9.3119  -16.9332   28.1201 O   0  0  0  0  0  0  0  0  0  0  0  0
    8.2794  -14.2559   25.5562 C   0  0  0  0  0  0  0  0  0  0  0  0
    7.0005  -13.7427   25.6425 C   0  0  0  0  0  0  0  0  0  0  0  0
   11.1063  -15.8007   28.8943 O   0  0  0  0  0  0  0  0  0  0  0  0
  1  2  1  0
  2  3  1  0
  3  4  1  6
  5  3  1  0
  5  6  1  1
  7  5  1  0
  8  7  2  0
  9 10  1  0
 11 10  1  6
 11 12  1  0
 12  7  1  0
 13 22  1  0
 13 11  1  0
 14 13  2  0
 16 15  1  0
 17 16  2  0
 18 17  1  0
 19 25  1  0
 19 18  2  0
 21 20  1  1
 20 19  1  0
 21 22  1  0
 23 21  1  0
 24 23  2  0
 25 26  2  0
 26 16  1  0
 27 23  1  0
M  END
$$$$
