ISY.pdb
     RDKit          3D

 27 27  0  0  1  0  0  0  0  0999 V2000
    6.3778  -11.5111   26.6164 C   0  0  0  0  0  0  0  0  0  0  0  0
    5.9021  -12.8169   26.0759 C   0  0  0  0  0  0  0  0  0  0  0  0
    6.9360  -13.6868   25.4535 C   0  0  2  0  0  0  0  0  0  0  0  0
    7.7284  -12.9761   24.3740 C   0  0  0  0  0  0  0  0  0  0  0  0
    6.4340  -14.9965   24.9512 C   0  0  2  0  0  0  0  0  0  0  0  0
    5.6155  -15.6681   25.9117 N   0  0  0  0  0  0  0  0  0  0  0  0
    7.5176  -15.9009   24.5013 C   0  0  0  0  0  0  0  0  0  0  0  0
    8.0927  -16.6878   25.3321 O   0  0  0  0  0  0  0  0  0  0  0  0
    8.7934  -15.5320   20.6313 O   0  0  0  0  0  0  0  0  0  0  0  0
    8.8491  -16.8092   21.1444 C   0  0  0  0  0  0  0  0  0  0  0  0
    8.9784  -16.8172   22.6691 C   0  0  2  0  0  0  0  0  0  0  0  0
    7.9338  -15.9136   23.1684 N   0  0  0  0  0  0  0  0  0  0  0  0
   10.2920  -16.2073   23.0678 C   0  0  0  0  0  0  0  0  0  0  0  0
   10.6305  -15.0593   22.6713 O   0  0  0  0  0  0  0  0  0  0  0  0
    9.9019  -16.2405   30.1488 O   0  0  0  0  0  0  0  0  0  0  0  0
   10.4987  -15.9705   28.9255 C   0  0  0  0  0  0  0  0  0  0  0  0
   11.7348  -16.4686   28.5726 C   0  0  0  0  0  0  0  0  0  0  0  0
   12.3203  -16.1875   27.3390 C   0  0  0  0  0  0  0  0  0  0  0  0
   11.6716  -15.3900   26.4192 C   0  0  0  0  0  0  0  0  0  0  0  0
   12.2339  -15.0574   25.1239 C   0  0  0  0  0  0  0  0  0  0  0  0
   12.4834  -16.2730   24.2932 C   0  0  2  0  0  0  0  0  0  0  0  0
   11.2041  -16.8977   23.9058 N   0  0  0  0  0  0  0  0  0  0  0  0
   13.2415  -17.2761   25.0426 C   0  0  0  0  0  0  0  0  0  0  0  0
   12.7527  -18.4016   25.2769 O   0  0  0  0  0  0  0  0  0  0  0  0
   10.4178  -14.8908   26.7893 C   0  0  0  0  0  0  0  0  0  0  0  0
    9.8427  -15.1726   28.0124 C   0  0  0  0  0  0  0  0  0  0  0  0
   14.5104  -17.0013   25.5027 O   0  0  0  0  0  0  0  0  0  0  0  0
  1  2  1  0
  2  3  1  0
  3  4  1  6
  5  3  1  0
  5  6  1  1
  7  5  1  0
  8  7  2  0
  9 10  1  0
 11 10  1  6
 11 12  1  0
 12  7  1  0
 13 22  1  0
 13 11  1  0
 14 13  2  0
 16 15  1  0
 17 16  2  0
 18 17  1  0
 19 25  1  0
 19 18  2  0
 21 20  1  1
 20 19  1  0
 21 22  1  0
 23 21  1  0
 24 23  2  0
 25 26  2  0
 26 16  1  0
 27 23  1  0
M  END
$$$$
