ISY.pdb
     RDKit          3D

 27 27  0  0  1  0  0  0  0  0999 V2000
    7.7237  -11.6796   19.9389 C   0  0  0  0  0  0  0  0  0  0  0  0
    7.9506  -13.1277   19.6655 C   0  0  0  0  0  0  0  0  0  0  0  0
    7.8972  -14.0354   20.8429 C   0  0  2  0  0  0  0  0  0  0  0  0
    8.8004  -13.5837   21.9736 C   0  0  0  0  0  0  0  0  0  0  0  0
    8.1301  -15.4747   20.5363 C   0  0  2  0  0  0  0  0  0  0  0  0
    7.2957  -15.9452   19.4754 N   0  0  0  0  0  0  0  0  0  0  0  0
    7.9753  -16.3536   21.7187 C   0  0  0  0  0  0  0  0  0  0  0  0
    6.8103  -16.7048   22.1178 O   0  0  0  0  0  0  0  0  0  0  0  0
   11.0726  -18.6053   22.8021 O   0  0  0  0  0  0  0  0  0  0  0  0
    9.8226  -18.9253   23.2847 C   0  0  0  0  0  0  0  0  0  0  0  0
    8.9867  -17.6830   23.6003 C   0  0  2  0  0  0  0  0  0  0  0  0
    9.0911  -16.8147   22.4204 N   0  0  0  0  0  0  0  0  0  0  0  0
    9.6131  -16.9284   24.7382 C   0  0  0  0  0  0  0  0  0  0  0  0
   10.5798  -16.1409   24.5510 O   0  0  0  0  0  0  0  0  0  0  0  0
    6.1396  -11.5001   25.3745 O   0  0  0  0  0  0  0  0  0  0  0  0
    6.7703  -12.5506   26.0260 C   0  0  0  0  0  0  0  0  0  0  0  0
    6.1754  -13.7812   26.2062 C   0  0  0  0  0  0  0  0  0  0  0  0
    6.8232  -14.8263   26.8633 C   0  0  0  0  0  0  0  0  0  0  0  0
    8.0987  -14.6591   27.3614 C   0  0  0  0  0  0  0  0  0  0  0  0
    8.8194  -15.7070   28.0597 C   0  0  0  0  0  0  0  0  0  0  0  0
    9.8220  -16.3785   27.1800 C   0  0  2  0  0  0  0  0  0  0  0  0
    9.1428  -17.0713   26.0683 N   0  0  0  0  0  0  0  0  0  0  0  0
   10.5768  -17.3911   27.9197 C   0  0  0  0  0  0  0  0  0  0  0  0
   11.3217  -17.0653   28.8682 O   0  0  0  0  0  0  0  0  0  0  0  0
    8.6915  -13.4058   27.1719 C   0  0  0  0  0  0  0  0  0  0  0  0
    8.0451  -12.3744   26.5202 C   0  0  0  0  0  0  0  0  0  0  0  0
   10.4797  -18.7244   27.5876 O   0  0  0  0  0  0  0  0  0  0  0  0
  1  2  1  0
  2  3  1  0
  3  4  1  1
  5  3  1  0
  5  6  1  6
  7  5  1  0
  8  7  2  0
  9 10  1  0
 11 10  1  6
 11 12  1  0
 12  7  1  0
 13 22  1  0
 13 11  1  0
 14 13  2  0
 16 15  1  0
 17 16  2  0
 18 17  1  0
 19 25  1  0
 19 18  2  0
 21 20  1  1
 20 19  1  0
 21 22  1  0
 23 21  1  0
 24 23  2  0
 25 26  2  0
 26 16  1  0
 27 23  1  0
M  END
$$$$
