ISY.pdb
     RDKit          3D

 27 27  0  0  1  0  0  0  0  0999 V2000
    7.2586  -12.2934   18.5978 C   0  0  0  0  0  0  0  0  0  0  0  0
    7.2346  -13.7809   18.6978 C   0  0  0  0  0  0  0  0  0  0  0  0
    7.7790  -14.3645   19.9533 C   0  0  2  0  0  0  0  0  0  0  0  0
    9.1807  -13.8793   20.2663 C   0  0  0  0  0  0  0  0  0  0  0  0
    7.7145  -15.8508   20.0335 C   0  0  2  0  0  0  0  0  0  0  0  0
    6.4061  -16.3529   19.7517 N   0  0  0  0  0  0  0  0  0  0  0  0
    8.1829  -16.3839   21.3339 C   0  0  0  0  0  0  0  0  0  0  0  0
    7.4196  -16.3505   22.3615 O   0  0  0  0  0  0  0  0  0  0  0  0
   11.7726  -18.4301   21.4614 O   0  0  0  0  0  0  0  0  0  0  0  0
   10.7996  -18.6816   22.4035 C   0  0  0  0  0  0  0  0  0  0  0  0
    9.9841  -17.4321   22.7436 C   0  0  2  0  0  0  0  0  0  0  0  0
    9.4612  -16.9303   21.4662 N   0  0  0  0  0  0  0  0  0  0  0  0
   10.8957  -16.3639   23.2770 C   0  0  0  0  0  0  0  0  0  0  0  0
   11.5403  -15.6044   22.5041 O   0  0  0  0  0  0  0  0  0  0  0  0
   10.2741  -17.3645   30.8875 O   0  0  0  0  0  0  0  0  0  0  0  0
   10.4816  -16.6238   29.7325 C   0  0  0  0  0  0  0  0  0  0  0  0
    9.6116  -16.6500   28.6634 C   0  0  0  0  0  0  0  0  0  0  0  0
    9.8350  -15.8994   27.5100 C   0  0  0  0  0  0  0  0  0  0  0  0
   10.9505  -15.0953   27.4006 C   0  0  0  0  0  0  0  0  0  0  0  0
   11.2393  -14.2981   26.2233 C   0  0  0  0  0  0  0  0  0  0  0  0
   11.9434  -15.0893   25.1707 C   0  0  2  0  0  0  0  0  0  0  0  0
   11.0678  -16.1665   24.6706 N   0  0  0  0  0  0  0  0  0  0  0  0
   13.1457  -15.7280   25.7082 C   0  0  0  0  0  0  0  0  0  0  0  0
   13.2014  -16.9682   25.8477 O   0  0  0  0  0  0  0  0  0  0  0  0
   11.8256  -15.0774   28.4924 C   0  0  0  0  0  0  0  0  0  0  0  0
   11.5991  -15.8227   29.6323 C   0  0  0  0  0  0  0  0  0  0  0  0
   14.2418  -14.9756   26.0690 O   0  0  0  0  0  0  0  0  0  0  0  0
  1  2  1  0
  2  3  1  0
  3  4  1  6
  5  3  1  0
  5  6  1  1
  7  5  1  0
  8  7  2  0
  9 10  1  0
 11 10  1  6
 11 12  1  0
 12  7  1  0
 13 22  1  0
 13 11  1  0
 14 13  2  0
 16 15  1  0
 17 16  2  0
 18 17  1  0
 19 25  1  0
 19 18  2  0
 21 20  1  1
 20 19  1  0
 21 22  1  0
 23 21  1  0
 24 23  2  0
 25 26  2  0
 26 16  1  0
 27 23  1  0
M  END
$$$$
