ISY.pdb
     RDKit          3D

 27 27  0  0  1  0  0  0  0  0999 V2000
    7.8872  -11.9931   21.5209 C   0  0  0  0  0  0  0  0  0  0  0  0
    7.6493  -13.4083   21.1160 C   0  0  0  0  0  0  0  0  0  0  0  0
    8.1976  -13.8151   19.7942 C   0  0  2  0  0  0  0  0  0  0  0  0
    7.7591  -12.8979   18.6696 C   0  0  0  0  0  0  0  0  0  0  0  0
    7.9565  -15.2386   19.4265 C   0  0  2  0  0  0  0  0  0  0  0  0
    6.5743  -15.5091   19.1819 N   0  0  0  0  0  0  0  0  0  0  0  0
    8.4812  -16.1951   20.4288 C   0  0  0  0  0  0  0  0  0  0  0  0
    7.7426  -16.5900   21.3974 O   0  0  0  0  0  0  0  0  0  0  0  0
   12.5629  -17.2253   20.4290 O   0  0  0  0  0  0  0  0  0  0  0  0
   11.6144  -18.1978   20.6577 C   0  0  0  0  0  0  0  0  0  0  0  0
   10.3492  -17.6334   21.3076 C   0  0  2  0  0  0  0  0  0  0  0  0
    9.7866  -16.6829   20.3395 N   0  0  0  0  0  0  0  0  0  0  0  0
   10.7202  -16.8310   22.5222 C   0  0  0  0  0  0  0  0  0  0  0  0
   10.4361  -15.6059   22.6121 O   0  0  0  0  0  0  0  0  0  0  0  0
   10.2610  -14.1043   30.5977 O   0  0  0  0  0  0  0  0  0  0  0  0
   10.2279  -14.7262   29.3577 C   0  0  0  0  0  0  0  0  0  0  0  0
   10.3688  -16.0889   29.2028 C   0  0  0  0  0  0  0  0  0  0  0  0
   10.3331  -16.6980   27.9493 C   0  0  0  0  0  0  0  0  0  0  0  0
   10.1531  -15.9450   26.8076 C   0  0  0  0  0  0  0  0  0  0  0  0
   10.1147  -16.5217   25.4769 C   0  0  0  0  0  0  0  0  0  0  0  0
   11.4832  -16.7185   24.9125 C   0  0  2  0  0  0  0  0  0  0  0  0
   11.4047  -17.4188   23.6162 N   0  0  0  0  0  0  0  0  0  0  0  0
   12.3040  -17.5454   25.7983 C   0  0  0  0  0  0  0  0  0  0  0  0
   12.0672  -18.7645   25.9341 O   0  0  0  0  0  0  0  0  0  0  0  0
   10.0112  -14.5634   26.9781 C   0  0  0  0  0  0  0  0  0  0  0  0
   10.0473  -13.9656   28.2222 C   0  0  0  0  0  0  0  0  0  0  0  0
   13.3563  -16.9977   26.4986 O   0  0  0  0  0  0  0  0  0  0  0  0
  1  2  1  0
  2  3  1  0
  3  4  1  6
  5  3  1  0
  5  6  1  1
  7  5  1  0
  8  7  2  0
  9 10  1  0
 11 10  1  6
 11 12  1  0
 12  7  1  0
 13 22  1  0
 13 11  1  0
 14 13  2  0
 16 15  1  0
 17 16  2  0
 18 17  1  0
 19 25  1  0
 19 18  2  0
 21 20  1  1
 20 19  1  0
 21 22  1  0
 23 21  1  0
 24 23  2  0
 25 26  2  0
 26 16  1  0
 27 23  1  0
M  END
$$$$
