KCQ.pdb
     RDKit          3D

 25 24  0  0  1  0  0  0  0  0999 V2000
    8.3885  -12.2809   18.1529 N   0  0  0  0  0  0  0  0  0  0  0  0
    7.7442  -13.4176   18.7432 C   0  0  1  0  0  0  0  0  0  0  0  0
    7.6457  -14.5743   17.8330 C   0  0  0  0  0  0  0  0  0  0  0  0
    8.9485  -15.0274   17.2835 C   0  0  0  0  0  0  0  0  0  0  0  0
    8.8257  -16.0795   16.2489 C   0  0  0  0  0  0  0  0  0  0  0  0
   10.2386  -16.4717   15.7528 C   0  0  0  0  0  0  0  0  0  0  0  0
   10.0772  -17.5619   14.8051 N   0  0  0  0  0  0  0  0  0  0  0  0
    8.3767  -13.7811   20.0578 C   0  0  0  0  0  0  0  0  0  0  0  0
    9.6249  -13.8968   20.1516 O   0  0  0  0  0  0  0  0  0  0  0  0
    7.6121  -14.0062   21.2309 N   0  0  0  0  0  0  0  0  0  0  0  0
    8.1780  -14.5000   22.4401 C   0  0  1  0  0  0  0  0  0  0  0  0
    7.0634  -14.6515   23.4748 C   0  0  0  0  0  0  0  0  0  0  0  0
    7.7659  -15.1742   25.0558 S   0  0  0  0  0  0  0  0  0  0  0  0
    8.9378  -15.7385   22.3020 C   0  0  0  0  0  0  0  0  0  0  0  0
    8.6642  -16.6281   21.4637 O   0  0  0  0  0  0  0  0  0  0  0  0
   13.3000  -14.5543   19.5955 N   0  0  0  0  0  0  0  0  0  0  0  0
   13.9211  -15.7161   20.1207 C   0  0  0  0  0  0  0  0  0  0  0  0
   15.0686  -16.0159   19.7042 O   0  0  0  0  0  0  0  0  0  0  0  0
   13.2003  -16.5207   21.1279 C   0  0  0  0  0  0  0  0  0  0  0  0
   11.9322  -15.8395   21.5923 C   0  0  0  0  0  0  0  0  0  0  0  0
   11.2467  -16.6214   22.6875 C   0  0  2  0  0  0  0  0  0  0  0  0
   10.0483  -15.9621   23.1547 N   0  0  0  0  0  0  0  0  0  0  0  0
   12.1655  -16.7674   23.8356 C   0  0  0  0  0  0  0  0  0  0  0  0
   11.9319  -16.1748   24.9120 O   0  0  0  0  0  0  0  0  0  0  0  0
   13.2948  -17.5557   23.7471 O   0  0  0  0  0  0  0  0  0  0  0  0
  2  8  1  0
  2  1  1  6
  3  2  1  0
  4  3  1  0
  5  4  1  0
  6  5  1  0
  6  7  1  0
  8  9  2  0
 10 11  1  0
 10  8  1  0
 11 12  1  1
 12 13  1  0
 14 11  1  0
 15 14  2  0
 16 17  1  0
 17 19  1  0
 17 18  2  0
 19 20  1  0
 21 20  1  6
 21 22  1  0
 21 23  1  0
 22 14  1  0
 23 25  1  0
 24 23  2  0
M  END
$$$$
