KCQ.pdb
     RDKit          3D

 25 24  0  0  1  0  0  0  0  0999 V2000
    9.5991  -15.2494   20.3386 N   0  0  0  0  0  0  0  0  0  0  0  0
    8.5049  -15.3484   21.2597 C   0  0  1  0  0  0  0  0  0  0  0  0
    7.9798  -16.7197   21.4015 C   0  0  0  0  0  0  0  0  0  0  0  0
    7.4309  -17.2926   20.1465 C   0  0  0  0  0  0  0  0  0  0  0  0
    7.0156  -18.7085   20.2691 C   0  0  0  0  0  0  0  0  0  0  0  0
    6.3462  -19.1580   18.9478 C   0  0  0  0  0  0  0  0  0  0  0  0
    6.0030  -20.5630   19.0928 N   0  0  0  0  0  0  0  0  0  0  0  0
    8.8518  -14.7325   22.5866 C   0  0  0  0  0  0  0  0  0  0  0  0
   10.0160  -14.8353   23.0495 O   0  0  0  0  0  0  0  0  0  0  0  0
    7.9027  -14.0207   23.3637 N   0  0  0  0  0  0  0  0  0  0  0  0
    8.0403  -13.8288   24.7676 C   0  0  1  0  0  0  0  0  0  0  0  0
    6.8928  -12.9447   25.2544 C   0  0  0  0  0  0  0  0  0  0  0  0
    7.0311  -12.6937   27.0388 S   0  0  0  0  0  0  0  0  0  0  0  0
    8.1245  -15.0579   25.5503 C   0  0  0  0  0  0  0  0  0  0  0  0
    7.3121  -16.0050   25.4405 O   0  0  0  0  0  0  0  0  0  0  0  0
   11.2273  -20.6666   25.7047 N   0  0  0  0  0  0  0  0  0  0  0  0
   11.7428  -19.3694   25.9555 C   0  0  0  0  0  0  0  0  0  0  0  0
   12.7974  -19.0249   25.3646 O   0  0  0  0  0  0  0  0  0  0  0  0
   11.0253  -18.4825   26.8935 C   0  0  0  0  0  0  0  0  0  0  0  0
   10.5542  -17.2122   26.2209 C   0  0  0  0  0  0  0  0  0  0  0  0
    9.5220  -16.4890   27.0529 C   0  0  2  0  0  0  0  0  0  0  0  0
    9.1765  -15.2036   26.4896 N   0  0  0  0  0  0  0  0  0  0  0  0
   10.0567  -16.2639   28.4120 C   0  0  0  0  0  0  0  0  0  0  0  0
   10.3591  -15.1105   28.7898 O   0  0  0  0  0  0  0  0  0  0  0  0
   10.2335  -17.3141   29.2898 O   0  0  0  0  0  0  0  0  0  0  0  0
  2  8  1  0
  2  1  1  6
  3  2  1  0
  4  3  1  0
  5  4  1  0
  6  5  1  0
  6  7  1  0
  8  9  2  0
 10 11  1  0
 10  8  1  0
 11 12  1  1
 12 13  1  0
 14 11  1  0
 15 14  2  0
 16 17  1  0
 17 19  1  0
 17 18  2  0
 19 20  1  0
 21 20  1  6
 21 22  1  0
 21 23  1  0
 22 14  1  0
 23 25  1  0
 24 23  2  0
M  END
$$$$
