KCQ.pdb
     RDKit          3D

 25 24  0  0  1  0  0  0  0  0999 V2000
    8.0422  -14.3397   20.2487 N   0  0  0  0  0  0  0  0  0  0  0  0
    7.1926  -14.7200   21.3392 C   0  0  1  0  0  0  0  0  0  0  0  0
    6.8093  -16.1443   21.3150 C   0  0  0  0  0  0  0  0  0  0  0  0
    6.8144  -16.7517   19.9602 C   0  0  0  0  0  0  0  0  0  0  0  0
    8.1630  -17.1333   19.4829 C   0  0  0  0  0  0  0  0  0  0  0  0
    8.0247  -17.9922   18.2025 C   0  0  0  0  0  0  0  0  0  0  0  0
    9.3618  -18.4119   17.8166 N   0  0  0  0  0  0  0  0  0  0  0  0
    7.7851  -14.3131   22.6596 C   0  0  0  0  0  0  0  0  0  0  0  0
    8.9784  -14.5968   22.9347 O   0  0  0  0  0  0  0  0  0  0  0  0
    7.0423  -13.6044   23.6381 N   0  0  0  0  0  0  0  0  0  0  0  0
    7.5324  -13.3560   24.9514 C   0  0  1  0  0  0  0  0  0  0  0  0
    6.5276  -12.4712   25.6884 C   0  0  0  0  0  0  0  0  0  0  0  0
    7.1220  -12.1371   27.3621 S   0  0  0  0  0  0  0  0  0  0  0  0
    7.8460  -14.5523   25.7265 C   0  0  0  0  0  0  0  0  0  0  0  0
    7.1058  -15.5618   25.7705 O   0  0  0  0  0  0  0  0  0  0  0  0
   12.2320  -18.0408   24.5472 N   0  0  0  0  0  0  0  0  0  0  0  0
   12.2620  -18.2873   25.9435 C   0  0  0  0  0  0  0  0  0  0  0  0
   13.1705  -19.0287   26.3963 O   0  0  0  0  0  0  0  0  0  0  0  0
   11.2327  -17.6679   26.8026 C   0  0  0  0  0  0  0  0  0  0  0  0
   10.6418  -16.4272   26.1707 C   0  0  0  0  0  0  0  0  0  0  0  0
    9.5608  -15.8210   27.0336 C   0  0  2  0  0  0  0  0  0  0  0  0
    9.0493  -14.5899   26.4755 N   0  0  0  0  0  0  0  0  0  0  0  0
   10.1109  -15.5225   28.3723 C   0  0  0  0  0  0  0  0  0  0  0  0
   10.2300  -14.3386   28.7576 O   0  0  0  0  0  0  0  0  0  0  0  0
   10.5031  -16.5364   29.2224 O   0  0  0  0  0  0  0  0  0  0  0  0
  2  8  1  0
  2  1  1  6
  3  2  1  0
  4  3  1  0
  5  4  1  0
  6  5  1  0
  6  7  1  0
  8  9  2  0
 10 11  1  0
 10  8  1  0
 11 12  1  1
 12 13  1  0
 14 11  1  0
 15 14  2  0
 16 17  1  0
 17 19  1  0
 17 18  2  0
 19 20  1  0
 21 20  1  6
 21 22  1  0
 21 23  1  0
 22 14  1  0
 23 25  1  0
 24 23  2  0
M  END
$$$$
