KCQ.pdb
     RDKit          3D

 25 24  0  0  1  0  0  0  0  0999 V2000
    6.8923  -18.9135   19.0122 N   0  0  0  0  0  0  0  0  0  0  0  0
    8.3239  -18.8688   18.9487 C   0  0  1  0  0  0  0  0  0  0  0  0
    8.8560  -19.0352   17.5830 C   0  0  0  0  0  0  0  0  0  0  0  0
    8.1996  -18.1748   16.5664 C   0  0  0  0  0  0  0  0  0  0  0  0
    7.6253  -18.9283   15.4286 C   0  0  0  0  0  0  0  0  0  0  0  0
    7.0514  -17.9290   14.3951 C   0  0  0  0  0  0  0  0  0  0  0  0
    6.4208  -18.7089   13.3431 N   0  0  0  0  0  0  0  0  0  0  0  0
    8.8613  -17.6366   19.6220 C   0  0  0  0  0  0  0  0  0  0  0  0
   10.0927  -17.3852   19.5972 O   0  0  0  0  0  0  0  0  0  0  0  0
    8.0228  -16.7178   20.3033 N   0  0  0  0  0  0  0  0  0  0  0  0
    8.4486  -15.9820   21.4451 C   0  0  1  0  0  0  0  0  0  0  0  0
    7.4097  -14.9022   21.7455 C   0  0  0  0  0  0  0  0  0  0  0  0
    7.8891  -13.9910   23.2308 S   0  0  0  0  0  0  0  0  0  0  0  0
    8.7234  -16.7899   22.6292 C   0  0  0  0  0  0  0  0  0  0  0  0
    7.8954  -17.5839   23.1323 O   0  0  0  0  0  0  0  0  0  0  0  0
   13.1103  -20.6017   23.1473 N   0  0  0  0  0  0  0  0  0  0  0  0
   12.8046  -20.5162   24.5296 C   0  0  0  0  0  0  0  0  0  0  0  0
   13.3693  -21.3203   25.3136 O   0  0  0  0  0  0  0  0  0  0  0  0
   11.8427  -19.4938   24.9886 C   0  0  0  0  0  0  0  0  0  0  0  0
   11.3235  -18.6527   23.8437 C   0  0  0  0  0  0  0  0  0  0  0  0
   10.3894  -17.5683   24.3255 C   0  0  2  0  0  0  0  0  0  0  0  0
    9.9908  -16.6822   23.2555 N   0  0  0  0  0  0  0  0  0  0  0  0
   11.0675  -16.7600   25.3602 C   0  0  0  0  0  0  0  0  0  0  0  0
   11.5528  -15.6435   25.0731 O   0  0  0  0  0  0  0  0  0  0  0  0
   11.1800  -17.2152   26.6581 O   0  0  0  0  0  0  0  0  0  0  0  0
  2  8  1  0
  2  1  1  6
  3  2  1  0
  4  3  1  0
  5  4  1  0
  6  5  1  0
  6  7  1  0
  8  9  2  0
 10 11  1  0
 10  8  1  0
 11 12  1  1
 12 13  1  0
 14 11  1  0
 15 14  2  0
 16 17  1  0
 17 19  1  0
 17 18  2  0
 19 20  1  0
 21 20  1  6
 21 22  1  0
 21 23  1  0
 22 14  1  0
 23 25  1  0
 24 23  2  0
M  END
$$$$
