KCQ.pdb
     RDKit          3D

 25 24  0  0  1  0  0  0  0  0999 V2000
    7.9527  -17.6788   18.2170 N   0  0  0  0  0  0  0  0  0  0  0  0
    9.2493  -17.0676   18.2483 C   0  0  1  0  0  0  0  0  0  0  0  0
    9.5343  -16.2355   17.0641 C   0  0  0  0  0  0  0  0  0  0  0  0
    8.5122  -15.1929   16.7942 C   0  0  0  0  0  0  0  0  0  0  0  0
    8.8234  -14.3417   15.6233 C   0  0  0  0  0  0  0  0  0  0  0  0
    7.6797  -13.3185   15.4205 C   0  0  0  0  0  0  0  0  0  0  0  0
    8.0403  -12.4861   14.2848 N   0  0  0  0  0  0  0  0  0  0  0  0
    9.4688  -16.3204   19.5343 C   0  0  0  0  0  0  0  0  0  0  0  0
   10.6077  -15.8730   19.8224 O   0  0  0  0  0  0  0  0  0  0  0  0
    8.4239  -16.0891   20.4650 N   0  0  0  0  0  0  0  0  0  0  0  0
    8.6558  -15.6075   21.7844 C   0  0  1  0  0  0  0  0  0  0  0  0
    7.3769  -14.9440   22.2939 C   0  0  0  0  0  0  0  0  0  0  0  0
    7.6179  -14.3805   23.9941 S   0  0  0  0  0  0  0  0  0  0  0  0
    9.1388  -16.6105   22.7283 C   0  0  0  0  0  0  0  0  0  0  0  0
    8.7201  -17.7907   22.7582 O   0  0  0  0  0  0  0  0  0  0  0  0
   14.3871  -18.6071   22.8227 N   0  0  0  0  0  0  0  0  0  0  0  0
   14.2761  -17.2118   23.0515 C   0  0  0  0  0  0  0  0  0  0  0  0
   15.2279  -16.4735   22.6925 O   0  0  0  0  0  0  0  0  0  0  0  0
   13.0560  -16.6866   23.6972 C   0  0  0  0  0  0  0  0  0  0  0  0
   12.0321  -17.7736   23.9379 C   0  0  0  0  0  0  0  0  0  0  0  0
   10.7595  -17.2206   24.5339 C   0  0  2  0  0  0  0  0  0  0  0  0
   10.1353  -16.2456   23.6686 N   0  0  0  0  0  0  0  0  0  0  0  0
   11.0659  -16.5608   25.8202 C   0  0  0  0  0  0  0  0  0  0  0  0
   11.5521  -17.2169   26.7676 O   0  0  0  0  0  0  0  0  0  0  0  0
   10.8242  -15.2146   26.0045 O   0  0  0  0  0  0  0  0  0  0  0  0
  2  8  1  0
  2  1  1  6
  3  2  1  0
  4  3  1  0
  5  4  1  0
  6  5  1  0
  6  7  1  0
  8  9  2  0
 10 11  1  0
 10  8  1  0
 11 12  1  1
 12 13  1  0
 14 11  1  0
 15 14  2  0
 16 17  1  0
 17 19  1  0
 17 18  2  0
 19 20  1  0
 21 20  1  6
 21 22  1  0
 21 23  1  0
 22 14  1  0
 23 25  1  0
 24 23  2  0
M  END
$$$$
