KCQ.pdb
     RDKit          3D

 25 24  0  0  1  0  0  0  0  0999 V2000
    7.7450  -12.8638   20.1896 N   0  0  0  0  0  0  0  0  0  0  0  0
    7.5236  -13.9761   21.0668 C   0  0  1  0  0  0  0  0  0  0  0  0
    7.7935  -15.2825   20.4373 C   0  0  0  0  0  0  0  0  0  0  0  0
    7.1360  -15.4690   19.1192 C   0  0  0  0  0  0  0  0  0  0  0  0
    7.3503  -16.8105   18.5304 C   0  0  0  0  0  0  0  0  0  0  0  0
    6.4877  -16.9483   17.2525 C   0  0  0  0  0  0  0  0  0  0  0  0
    6.6811  -18.2959   16.7432 N   0  0  0  0  0  0  0  0  0  0  0  0
    8.2669  -13.8049   22.3624 C   0  0  0  0  0  0  0  0  0  0  0  0
    9.5089  -13.9922   22.4115 O   0  0  0  0  0  0  0  0  0  0  0  0
    7.6167  -13.4316   23.5663 N   0  0  0  0  0  0  0  0  0  0  0  0
    8.1372  -13.7414   24.8546 C   0  0  1  0  0  0  0  0  0  0  0  0
    7.4779  -12.8215   25.8817 C   0  0  0  0  0  0  0  0  0  0  0  0
    5.6801  -12.9556   25.7551 S   0  0  0  0  0  0  0  0  0  0  0  0
    8.0121  -15.1416   25.2472 C   0  0  0  0  0  0  0  0  0  0  0  0
    7.3029  -15.9716   24.6332 O   0  0  0  0  0  0  0  0  0  0  0  0
   12.7628  -16.4177   23.5184 N   0  0  0  0  0  0  0  0  0  0  0  0
   12.7848  -17.5449   24.3788 C   0  0  0  0  0  0  0  0  0  0  0  0
   13.7403  -18.3548   24.2724 O   0  0  0  0  0  0  0  0  0  0  0  0
   11.6928  -17.7205   25.3575 C   0  0  0  0  0  0  0  0  0  0  0  0
   10.7151  -16.5669   25.3255 C   0  0  0  0  0  0  0  0  0  0  0  0
    9.5937  -16.7568   26.3190 C   0  0  2  0  0  0  0  0  0  0  0  0
    8.7253  -15.6031   26.3824 N   0  0  0  0  0  0  0  0  0  0  0  0
   10.1623  -16.9757   27.6653 C   0  0  0  0  0  0  0  0  0  0  0  0
   10.2494  -18.1318   28.1347 O   0  0  0  0  0  0  0  0  0  0  0  0
   10.6072  -15.9169   28.4304 O   0  0  0  0  0  0  0  0  0  0  0  0
  2  8  1  0
  2  1  1  6
  3  2  1  0
  4  3  1  0
  5  4  1  0
  6  5  1  0
  6  7  1  0
  8  9  2  0
 10 11  1  0
 10  8  1  0
 11 12  1  1
 12 13  1  0
 14 11  1  0
 15 14  2  0
 16 17  1  0
 17 19  1  0
 17 18  2  0
 19 20  1  0
 21 20  1  6
 21 22  1  0
 21 23  1  0
 22 14  1  0
 23 25  1  0
 24 23  2  0
M  END
$$$$
