KCQ.pdb
     RDKit          3D

 25 24  0  0  1  0  0  0  0  0999 V2000
    7.3476  -15.4205   19.9056 N   0  0  0  0  0  0  0  0  0  0  0  0
    8.1666  -14.2647   20.1269 C   0  0  1  0  0  0  0  0  0  0  0  0
    7.6655  -13.0527   19.4517 C   0  0  0  0  0  0  0  0  0  0  0  0
    8.0294  -12.9635   18.0149 C   0  0  0  0  0  0  0  0  0  0  0  0
    7.3999  -14.0074   17.1745 C   0  0  0  0  0  0  0  0  0  0  0  0
    7.9331  -13.8840   15.7265 C   0  0  0  0  0  0  0  0  0  0  0  0
    7.3520  -14.9718   14.9573 N   0  0  0  0  0  0  0  0  0  0  0  0
    8.4073  -14.0399   21.5938 C   0  0  0  0  0  0  0  0  0  0  0  0
    9.4100  -13.3876   21.9802 O   0  0  0  0  0  0  0  0  0  0  0  0
    7.5332  -14.5420   22.5915 N   0  0  0  0  0  0  0  0  0  0  0  0
    7.7416  -14.3248   23.9829 C   0  0  1  0  0  0  0  0  0  0  0  0
    6.3806  -14.2042   24.6675 C   0  0  0  0  0  0  0  0  0  0  0  0
    6.6048  -13.6765   26.3814 S   0  0  0  0  0  0  0  0  0  0  0  0
    8.5744  -15.3255   24.6428 C   0  0  0  0  0  0  0  0  0  0  0  0
    8.5866  -16.5361   24.3218 O   0  0  0  0  0  0  0  0  0  0  0  0
   11.6089  -14.2333   30.0819 N   0  0  0  0  0  0  0  0  0  0  0  0
   11.1215  -15.5648   30.1135 C   0  0  0  0  0  0  0  0  0  0  0  0
   11.0989  -16.1630   31.2188 O   0  0  0  0  0  0  0  0  0  0  0  0
   10.6638  -16.1901   28.8562 C   0  0  0  0  0  0  0  0  0  0  0  0
   10.8456  -15.2702   27.6694 C   0  0  0  0  0  0  0  0  0  0  0  0
   10.2635  -15.8631   26.4083 C   0  0  2  0  0  0  0  0  0  0  0  0
    9.4208  -14.9218   25.7063 N   0  0  0  0  0  0  0  0  0  0  0  0
    9.4429  -17.0426   26.7535 C   0  0  0  0  0  0  0  0  0  0  0  0
    8.1986  -16.9452   26.8361 O   0  0  0  0  0  0  0  0  0  0  0  0
   10.0265  -18.2703   26.9911 O   0  0  0  0  0  0  0  0  0  0  0  0
  2  8  1  0
  2  1  1  1
  3  2  1  0
  4  3  1  0
  5  4  1  0
  6  5  1  0
  6  7  1  0
  8  9  2  0
 10 11  1  0
 10  8  1  0
 11 12  1  1
 12 13  1  0
 14 11  1  0
 15 14  2  0
 16 17  1  0
 17 19  1  0
 17 18  2  0
 19 20  1  0
 21 20  1  1
 21 22  1  0
 21 23  1  0
 22 14  1  0
 23 25  1  0
 24 23  2  0
M  END
$$$$
