KCQ.pdb
     RDKit          3D

 25 24  0  0  1  0  0  0  0  0999 V2000
    6.6804  -16.1487   21.2159 N   0  0  0  0  0  0  0  0  0  0  0  0
    8.0506  -16.3384   21.5930 C   0  0  1  0  0  0  0  0  0  0  0  0
    8.9675  -16.4374   20.4417 C   0  0  0  0  0  0  0  0  0  0  0  0
    8.5476  -17.4231   19.4138 C   0  0  0  0  0  0  0  0  0  0  0  0
    9.4489  -17.4816   18.2405 C   0  0  0  0  0  0  0  0  0  0  0  0
    8.9526  -18.5834   17.2730 C   0  0  0  0  0  0  0  0  0  0  0  0
    9.8978  -18.6490   16.1707 N   0  0  0  0  0  0  0  0  0  0  0  0
    8.4924  -15.2977   22.5839 C   0  0  0  0  0  0  0  0  0  0  0  0
    9.7127  -15.0289   22.7210 O   0  0  0  0  0  0  0  0  0  0  0  0
    7.5735  -14.5839   23.3947 N   0  0  0  0  0  0  0  0  0  0  0  0
    7.9494  -13.9416   24.6083 C   0  0  1  0  0  0  0  0  0  0  0  0
    6.7811  -13.0807   25.0874 C   0  0  0  0  0  0  0  0  0  0  0  0
    7.2327  -12.2395   26.6219 S   0  0  0  0  0  0  0  0  0  0  0  0
    8.4061  -14.8409   25.6633 C   0  0  0  0  0  0  0  0  0  0  0  0
    7.6893  -15.7355   26.1682 O   0  0  0  0  0  0  0  0  0  0  0  0
   14.2203  -16.9365   26.1849 N   0  0  0  0  0  0  0  0  0  0  0  0
   13.6291  -17.4678   27.3595 C   0  0  0  0  0  0  0  0  0  0  0  0
   14.2983  -18.2811   28.0456 O   0  0  0  0  0  0  0  0  0  0  0  0
   12.2616  -17.0474   27.7262 C   0  0  0  0  0  0  0  0  0  0  0  0
   11.6949  -16.0487   26.7418 C   0  0  0  0  0  0  0  0  0  0  0  0
   10.2865  -15.6427   27.1056 C   0  0  2  0  0  0  0  0  0  0  0  0
    9.7296  -14.7079   26.1542 N   0  0  0  0  0  0  0  0  0  0  0  0
   10.2896  -14.9957   28.4342 C   0  0  0  0  0  0  0  0  0  0  0  0
   10.2727  -13.7488   28.5306 O   0  0  0  0  0  0  0  0  0  0  0  0
   10.3111  -15.7474   29.5914 O   0  0  0  0  0  0  0  0  0  0  0  0
  2  8  1  0
  2  1  1  6
  3  2  1  0
  4  3  1  0
  5  4  1  0
  6  5  1  0
  6  7  1  0
  8  9  2  0
 10 11  1  0
 10  8  1  0
 11 12  1  1
 12 13  1  0
 14 11  1  0
 15 14  2  0
 16 17  1  0
 17 19  1  0
 17 18  2  0
 19 20  1  0
 21 20  1  6
 21 22  1  0
 21 23  1  0
 22 14  1  0
 23 25  1  0
 24 23  2  0
M  END
$$$$
