KCQ.pdb
     RDKit          3D

 25 24  0  0  1  0  0  0  0  0999 V2000
    8.1708  -13.4112   19.9320 N   0  0  0  0  0  0  0  0  0  0  0  0
    7.3721  -13.9820   20.9770 C   0  0  1  0  0  0  0  0  0  0  0  0
    6.7541  -15.2691   20.6064 C   0  0  0  0  0  0  0  0  0  0  0  0
    7.0025  -15.6799   19.2014 C   0  0  0  0  0  0  0  0  0  0  0  0
    7.8184  -16.9090   19.0750 C   0  0  0  0  0  0  0  0  0  0  0  0
    7.7530  -17.4142   17.6132 C   0  0  0  0  0  0  0  0  0  0  0  0
    8.6058  -18.5878   17.5226 N   0  0  0  0  0  0  0  0  0  0  0  0
    8.1425  -14.0712   22.2650 C   0  0  0  0  0  0  0  0  0  0  0  0
    9.3034  -14.5533   22.2786 O   0  0  0  0  0  0  0  0  0  0  0  0
    7.6084  -13.6252   23.5008 N   0  0  0  0  0  0  0  0  0  0  0  0
    8.2186  -13.9099   24.7550 C   0  0  1  0  0  0  0  0  0  0  0  0
    7.5510  -13.0517   25.8289 C   0  0  0  0  0  0  0  0  0  0  0  0
    5.7746  -13.3832   25.8573 S   0  0  0  0  0  0  0  0  0  0  0  0
    8.2164  -15.3196   25.1332 C   0  0  0  0  0  0  0  0  0  0  0  0
    7.2539  -16.0920   24.9186 O   0  0  0  0  0  0  0  0  0  0  0  0
   12.3656  -19.6182   25.4591 N   0  0  0  0  0  0  0  0  0  0  0  0
   12.6438  -18.3524   24.8831 C   0  0  0  0  0  0  0  0  0  0  0  0
   13.8334  -18.0890   24.5739 O   0  0  0  0  0  0  0  0  0  0  0  0
   11.5333  -17.4020   24.6715 C   0  0  0  0  0  0  0  0  0  0  0  0
   10.1907  -18.0234   24.9865 C   0  0  0  0  0  0  0  0  0  0  0  0
    9.4679  -17.2694   26.0772 C   0  0  2  0  0  0  0  0  0  0  0  0
    9.3574  -15.8595   25.7790 N   0  0  0  0  0  0  0  0  0  0  0  0
   10.2101  -17.4114   27.3472 C   0  0  0  0  0  0  0  0  0  0  0  0
   10.6873  -16.4053   27.9168 O   0  0  0  0  0  0  0  0  0  0  0  0
   10.3925  -18.6490   27.9299 O   0  0  0  0  0  0  0  0  0  0  0  0
  2  8  1  0
  2  1  1  6
  3  2  1  0
  4  3  1  0
  5  4  1  0
  6  5  1  0
  6  7  1  0
  8  9  2  0
 10 11  1  0
 10  8  1  0
 11 12  1  1
 12 13  1  0
 14 11  1  0
 15 14  2  0
 16 17  1  0
 17 19  1  0
 17 18  2  0
 19 20  1  0
 21 20  1  6
 21 22  1  0
 21 23  1  0
 22 14  1  0
 23 25  1  0
 24 23  2  0
M  END
$$$$
