KCQ.pdb
     RDKit          3D

 25 24  0  0  1  0  0  0  0  0999 V2000
    6.3946  -14.1524   21.5446 N   0  0  0  0  0  0  0  0  0  0  0  0
    7.6640  -14.7779   21.7754 C   0  0  1  0  0  0  0  0  0  0  0  0
    8.5209  -14.8262   20.5757 C   0  0  0  0  0  0  0  0  0  0  0  0
    7.9564  -15.6238   19.4578 C   0  0  0  0  0  0  0  0  0  0  0  0
    8.7083  -16.8673   19.1734 C   0  0  0  0  0  0  0  0  0  0  0  0
    7.9352  -17.6994   18.1217 C   0  0  0  0  0  0  0  0  0  0  0  0
    8.0246  -19.0937   18.5225 N   0  0  0  0  0  0  0  0  0  0  0  0
    8.3684  -14.1634   22.9528 C   0  0  0  0  0  0  0  0  0  0  0  0
    9.6193  -14.2368   23.0537 O   0  0  0  0  0  0  0  0  0  0  0  0
    7.6708  -13.4855   23.9849 N   0  0  0  0  0  0  0  0  0  0  0  0
    8.1958  -13.3271   25.2986 C   0  0  1  0  0  0  0  0  0  0  0  0
    7.3051  -12.3507   26.0660 C   0  0  0  0  0  0  0  0  0  0  0  0
    5.6451  -13.0446   26.2366 S   0  0  0  0  0  0  0  0  0  0  0  0
    8.3750  -14.5700   26.0426 C   0  0  0  0  0  0  0  0  0  0  0  0
    7.6146  -15.5590   25.9306 O   0  0  0  0  0  0  0  0  0  0  0  0
   13.0684  -19.7478   26.7888 N   0  0  0  0  0  0  0  0  0  0  0  0
   12.5380  -18.4910   26.4007 C   0  0  0  0  0  0  0  0  0  0  0  0
   12.9929  -17.9497   25.3614 O   0  0  0  0  0  0  0  0  0  0  0  0
   11.4808  -17.8737   27.2268 C   0  0  0  0  0  0  0  0  0  0  0  0
   10.9794  -16.5789   26.6269 C   0  0  0  0  0  0  0  0  0  0  0  0
    9.8914  -15.9568   27.4695 C   0  0  2  0  0  0  0  0  0  0  0  0
    9.4634  -14.6800   26.9446 N   0  0  0  0  0  0  0  0  0  0  0  0
   10.3958  -15.7413   28.8417 C   0  0  0  0  0  0  0  0  0  0  0  0
   10.6869  -16.7164   29.5690 O   0  0  0  0  0  0  0  0  0  0  0  0
   10.5562  -14.4679   29.3488 O   0  0  0  0  0  0  0  0  0  0  0  0
  2  8  1  0
  2  1  1  6
  3  2  1  0
  4  3  1  0
  5  4  1  0
  6  5  1  0
  6  7  1  0
  8  9  2  0
 10 11  1  0
 10  8  1  0
 11 12  1  1
 12 13  1  0
 14 11  1  0
 15 14  2  0
 16 17  1  0
 17 19  1  0
 17 18  2  0
 19 20  1  0
 21 20  1  6
 21 22  1  0
 21 23  1  0
 22 14  1  0
 23 25  1  0
 24 23  2  0
M  END
$$$$
