SYL.pdb
     RDKit          3D

 27 27  0  0  1  0  0  0  0  0999 V2000
   20.9887  -19.0960  -13.6606 O   0  0  0  0  0  0  0  0  0  0  0  0
   22.2417  -19.6404  -13.3728 C   0  0  0  0  0  0  0  0  0  0  0  0
   23.2734  -19.1851  -14.3760 C   0  0  2  0  0  0  0  0  0  0  0  0
   22.7360  -19.3269  -15.7032 N   0  0  0  0  0  0  0  0  0  0  0  0
   24.5440  -19.9260  -14.2371 C   0  0  0  0  0  0  0  0  0  0  0  0
   24.6966  -20.9877  -14.8945 O   0  0  0  0  0  0  0  0  0  0  0  0
   27.6343  -16.4511  -18.4681 O   0  0  0  0  0  0  0  0  0  0  0  0
   27.7211  -17.1375  -17.2391 C   0  0  0  0  0  0  0  0  0  0  0  0
   27.1091  -16.6077  -16.1304 C   0  0  0  0  0  0  0  0  0  0  0  0
   27.1851  -17.2749  -14.9042 C   0  0  0  0  0  0  0  0  0  0  0  0
   27.8689  -18.4634  -14.7905 C   0  0  0  0  0  0  0  0  0  0  0  0
   27.9598  -19.1792  -13.5101 C   0  0  0  0  0  0  0  0  0  0  0  0
   26.8032  -20.1254  -13.2760 C   0  0  2  0  0  0  0  0  0  0  0  0
   25.5474  -19.4214  -13.3722 N   0  0  0  0  0  0  0  0  0  0  0  0
   26.8921  -20.7974  -11.9568 C   0  0  0  0  0  0  0  0  0  0  0  0
   27.8565  -21.5237  -11.6244 O   0  0  0  0  0  0  0  0  0  0  0  0
   28.4716  -18.9718  -15.9128 C   0  0  0  0  0  0  0  0  0  0  0  0
   28.4010  -18.3144  -17.1370 C   0  0  0  0  0  0  0  0  0  0  0  0
   27.9876  -19.8430   -6.6681 C   0  0  0  0  0  0  0  0  0  0  0  0
   26.9030  -20.5913   -7.4144 C   0  0  1  0  0  0  0  0  0  0  0  0
   25.5245  -20.2007   -6.8531 C   0  0  0  0  0  0  0  0  0  0  0  0
   26.9098  -20.3013   -8.8695 C   0  0  0  0  0  0  0  0  0  0  0  0
   25.9293  -21.1278   -9.6452 C   0  0  2  0  0  0  0  0  0  0  0  0
   25.8450  -20.6192  -11.0178 N   0  0  0  0  0  0  0  0  0  0  0  0
   24.5718  -20.9449   -9.0779 C   0  0  0  0  0  0  0  0  0  0  0  0
   23.7200  -20.1422   -9.5953 O   0  0  0  0  0  0  0  0  0  0  0  0
   24.1556  -21.6303   -7.9671 O   0  0  0  0  0  0  0  0  0  0  0  0
  2  3  1  0
  2  1  1  0
  3  4  1  6
  5  6  2  0
  5  3  1  0
  7  8  1  0
  8 18  2  0
  9 10  2  0
  9  8  1  0
 10 11  1  0
 11 12  1  0
 11 17  2  0
 13 12  1  1
 13 14  1  0
 14  5  1  0
 15 13  1  0
 16 15  2  0
 18 17  1  0
 20 22  1  0
 20 19  1  1
 21 20  1  0
 23 22  1  1
 23 24  1  0
 24 15  1  0
 25 23  1  0
 26 25  2  0
 27 25  1  0
M  END
$$$$
