SYL.pdb
     RDKit          3D

 27 27  0  0  1  0  0  0  0  0999 V2000
   28.8650  -34.5772  -16.6589 O   0  0  0  0  0  0  0  0  0  0  0  0
   27.7271  -34.5176  -15.8522 C   0  0  0  0  0  0  0  0  0  0  0  0
   27.5627  -33.1441  -15.2483 C   0  0  2  0  0  0  0  0  0  0  0  0
   28.6988  -32.3345  -15.6004 N   0  0  0  0  0  0  0  0  0  0  0  0
   27.3876  -33.2022  -13.7825 C   0  0  0  0  0  0  0  0  0  0  0  0
   28.2695  -32.6843  -13.0500 O   0  0  0  0  0  0  0  0  0  0  0  0
   24.0372  -32.7586   -5.8282 O   0  0  0  0  0  0  0  0  0  0  0  0
   24.2765  -32.7817   -7.2179 C   0  0  0  0  0  0  0  0  0  0  0  0
   23.3721  -33.4015   -8.0440 C   0  0  0  0  0  0  0  0  0  0  0  0
   23.5938  -33.4338   -9.4239 C   0  0  0  0  0  0  0  0  0  0  0  0
   24.7128  -32.8496   -9.9712 C   0  0  0  0  0  0  0  0  0  0  0  0
   24.9629  -32.8734  -11.4193 C   0  0  0  0  0  0  0  0  0  0  0  0
   26.0492  -33.8474  -11.8178 C   0  0  2  0  0  0  0  0  0  0  0  0
   26.2376  -33.8361  -13.2483 N   0  0  0  0  0  0  0  0  0  0  0  0
   25.7490  -35.2294  -11.3708 C   0  0  0  0  0  0  0  0  0  0  0  0
   24.8831  -35.9506  -11.9169 O   0  0  0  0  0  0  0  0  0  0  0  0
   25.6011  -32.2368   -9.1246 C   0  0  0  0  0  0  0  0  0  0  0  0
   25.3884  -32.2000   -7.7502 C   0  0  0  0  0  0  0  0  0  0  0  0
   27.4463  -40.0272   -9.5839 C   0  0  0  0  0  0  0  0  0  0  0  0
   27.2850  -38.9857   -8.4965 C   0  0  1  0  0  0  0  0  0  0  0  0
   28.3529  -39.2021   -7.4100 C   0  0  0  0  0  0  0  0  0  0  0  0
   27.4210  -37.6006   -9.0105 C   0  0  0  0  0  0  0  0  0  0  0  0
   26.2210  -37.1292   -9.7747 C   0  0  2  0  0  0  0  0  0  0  0  0
   26.4668  -35.7735  -10.2759 N   0  0  0  0  0  0  0  0  0  0  0  0
   25.0676  -37.0003   -8.8521 C   0  0  0  0  0  0  0  0  0  0  0  0
   24.1696  -37.9066   -8.7538 O   0  0  0  0  0  0  0  0  0  0  0  0
   24.9035  -35.9008   -8.0514 O   0  0  0  0  0  0  0  0  0  0  0  0
  2  3  1  0
  2  1  1  0
  3  4  1  1
  5  6  2  0
  5  3  1  0
  7  8  1  0
  8 18  2  0
  9 10  2  0
  9  8  1  0
 10 11  1  0
 11 12  1  0
 11 17  2  0
 13 12  1  6
 13 14  1  0
 14  5  1  0
 15 13  1  0
 16 15  2  0
 18 17  1  0
 20 22  1  0
 20 19  1  6
 21 20  1  0
 23 22  1  1
 23 24  1  0
 24 15  1  0
 25 23  1  0
 26 25  2  0
 27 25  1  0
M  END
$$$$
