SYL.pdb
     RDKit          3D

 27 27  0  0  1  0  0  0  0  0999 V2000
   20.2927  -22.6301  -14.4816 O   0  0  0  0  0  0  0  0  0  0  0  0
   21.0714  -21.4786  -14.3526 C   0  0  0  0  0  0  0  0  0  0  0  0
   21.7697  -21.4440  -13.0150 C   0  0  2  0  0  0  0  0  0  0  0  0
   20.7977  -21.2058  -11.9811 N   0  0  0  0  0  0  0  0  0  0  0  0
   22.8424  -20.4288  -12.9775 C   0  0  0  0  0  0  0  0  0  0  0  0
   22.5755  -19.2878  -12.5198 O   0  0  0  0  0  0  0  0  0  0  0  0
   25.7385  -20.8312   -6.9281 O   0  0  0  0  0  0  0  0  0  0  0  0
   25.8953  -20.7663   -8.3282 C   0  0  0  0  0  0  0  0  0  0  0  0
   26.1219  -19.5496   -8.9221 C   0  0  0  0  0  0  0  0  0  0  0  0
   26.2797  -19.4672  -10.3087 C   0  0  0  0  0  0  0  0  0  0  0  0
   26.2109  -20.5952  -11.0935 C   0  0  0  0  0  0  0  0  0  0  0  0
   26.3743  -20.5284  -12.5525 C   0  0  0  0  0  0  0  0  0  0  0  0
   25.2195  -19.8425  -13.2480 C   0  0  2  0  0  0  0  0  0  0  0  0
   24.1329  -20.7689  -13.4556 N   0  0  0  0  0  0  0  0  0  0  0  0
   25.6227  -19.2557  -14.5491 C   0  0  0  0  0  0  0  0  0  0  0  0
   25.5752  -19.8897  -15.6280 O   0  0  0  0  0  0  0  0  0  0  0  0
   25.9836  -21.7987  -10.4761 C   0  0  0  0  0  0  0  0  0  0  0  0
   25.8255  -21.8898   -9.0968 C   0  0  0  0  0  0  0  0  0  0  0  0
   25.7775  -14.2247  -17.3368 C   0  0  0  0  0  0  0  0  0  0  0  0
   26.9624  -14.9884  -16.7834 C   0  0  1  0  0  0  0  0  0  0  0  0
   28.0877  -14.0044  -16.4185 C   0  0  0  0  0  0  0  0  0  0  0  0
   26.6190  -15.7703  -15.5702 C   0  0  0  0  0  0  0  0  0  0  0  0
   26.3517  -17.2180  -15.8515 C   0  0  2  0  0  0  0  0  0  0  0  0
   26.0855  -17.9162  -14.5900 N   0  0  0  0  0  0  0  0  0  0  0  0
   27.5777  -17.8498  -16.3953 C   0  0  0  0  0  0  0  0  0  0  0  0
   28.5635  -18.1778  -15.6481 O   0  0  0  0  0  0  0  0  0  0  0  0
   27.7191  -18.1189  -17.7311 O   0  0  0  0  0  0  0  0  0  0  0  0
  2  3  1  0
  2  1  1  0
  3  4  1  1
  5  6  2  0
  5  3  1  0
  7  8  1  0
  8 18  2  0
  9 10  2  0
  9  8  1  0
 10 11  1  0
 11 12  1  0
 11 17  2  0
 13 12  1  6
 13 14  1  0
 14  5  1  0
 15 13  1  0
 16 15  2  0
 18 17  1  0
 20 22  1  0
 20 19  1  1
 21 20  1  0
 23 22  1  1
 23 24  1  0
 24 15  1  0
 25 23  1  0
 26 25  2  0
 27 25  1  0
M  END
$$$$
