SYL.pdb
     RDKit          3D

 27 27  0  0  1  0  0  0  0  0999 V2000
   27.0619  -23.4974  -17.8696 O   0  0  0  0  0  0  0  0  0  0  0  0
   25.8022  -23.2154  -17.3380 C   0  0  0  0  0  0  0  0  0  0  0  0
   25.7980  -23.3806  -15.8377 C   0  0  2  0  0  0  0  0  0  0  0  0
   25.8324  -24.7828  -15.5171 N   0  0  0  0  0  0  0  0  0  0  0  0
   24.6324  -22.7227  -15.2124 C   0  0  0  0  0  0  0  0  0  0  0  0
   23.6977  -23.4425  -14.7756 O   0  0  0  0  0  0  0  0  0  0  0  0
   25.5122  -21.1754   -8.4496 O   0  0  0  0  0  0  0  0  0  0  0  0
   25.1229  -20.7643   -9.7413 C   0  0  0  0  0  0  0  0  0  0  0  0
   23.7877  -20.6174  -10.0244 C   0  0  0  0  0  0  0  0  0  0  0  0
   23.3843  -20.2107  -11.2997 C   0  0  0  0  0  0  0  0  0  0  0  0
   24.3116  -19.9534  -12.2830 C   0  0  0  0  0  0  0  0  0  0  0  0
   23.9068  -19.5250  -13.6293 C   0  0  0  0  0  0  0  0  0  0  0  0
   23.4623  -20.6726  -14.5085 C   0  0  2  0  0  0  0  0  0  0  0  0
   24.6021  -21.3082  -15.1238 N   0  0  0  0  0  0  0  0  0  0  0  0
   22.5149  -20.2326  -15.5613 C   0  0  0  0  0  0  0  0  0  0  0  0
   22.8436  -19.4734  -16.5014 O   0  0  0  0  0  0  0  0  0  0  0  0
   25.6394  -20.1075  -11.9749 C   0  0  0  0  0  0  0  0  0  0  0  0
   26.0496  -20.5119  -10.7085 C   0  0  0  0  0  0  0  0  0  0  0  0
   20.2855  -23.3575  -18.6990 C   0  0  0  0  0  0  0  0  0  0  0  0
   20.7241  -22.0342  -18.1073 C   0  0  1  0  0  0  0  0  0  0  0  0
   21.0819  -21.0546  -19.2387 C   0  0  0  0  0  0  0  0  0  0  0  0
   19.6718  -21.4092  -17.2688 C   0  0  0  0  0  0  0  0  0  0  0  0
   20.1613  -20.2338  -16.4782 C   0  0  2  0  0  0  0  0  0  0  0  0
   21.1715  -20.6836  -15.5154 N   0  0  0  0  0  0  0  0  0  0  0  0
   19.0516  -19.6954  -15.6555 C   0  0  0  0  0  0  0  0  0  0  0  0
   18.0149  -19.1577  -16.1787 O   0  0  0  0  0  0  0  0  0  0  0  0
   19.0768  -19.7479  -14.2868 O   0  0  0  0  0  0  0  0  0  0  0  0
  2  3  1  0
  2  1  1  0
  3  4  1  6
  5  6  2  0
  5  3  1  0
  7  8  1  0
  8 18  2  0
  9 10  2  0
  9  8  1  0
 10 11  1  0
 11 12  1  0
 11 17  2  0
 13 12  1  6
 13 14  1  0
 14  5  1  0
 15 13  1  0
 16 15  2  0
 18 17  1  0
 20 22  1  0
 20 19  1  6
 21 20  1  0
 23 22  1  1
 23 24  1  0
 24 15  1  0
 25 23  1  0
 26 25  2  0
 27 25  1  0
M  END
$$$$
