SYL.pdb
     RDKit          3D

 27 27  0  0  1  0  0  0  0  0999 V2000
   30.1795  -24.0447  -16.9689 O   0  0  0  0  0  0  0  0  0  0  0  0
   29.2105  -23.2895  -16.3056 C   0  0  0  0  0  0  0  0  0  0  0  0
   28.5504  -22.3101  -17.2453 C   0  0  2  0  0  0  0  0  0  0  0  0
   29.5413  -21.3944  -17.7452 N   0  0  0  0  0  0  0  0  0  0  0  0
   27.4386  -21.5851  -16.5964 C   0  0  0  0  0  0  0  0  0  0  0  0
   27.6898  -20.5045  -16.0032 O   0  0  0  0  0  0  0  0  0  0  0  0
   19.3368  -19.5448  -13.7941 O   0  0  0  0  0  0  0  0  0  0  0  0
   20.4349  -20.0661  -14.5092 C   0  0  0  0  0  0  0  0  0  0  0  0
   20.7573  -21.3932  -14.3694 C   0  0  0  0  0  0  0  0  0  0  0  0
   21.8426  -21.9264  -15.0709 C   0  0  0  0  0  0  0  0  0  0  0  0
   22.5985  -21.1359  -15.9057 C   0  0  0  0  0  0  0  0  0  0  0  0
   23.7429  -21.6785  -16.6513 C   0  0  0  0  0  0  0  0  0  0  0  0
   25.0651  -21.4607  -15.9498 C   0  0  2  0  0  0  0  0  0  0  0  0
   26.1298  -22.1257  -16.6612 N   0  0  0  0  0  0  0  0  0  0  0  0
   25.0358  -21.9390  -14.5462 C   0  0  0  0  0  0  0  0  0  0  0  0
   25.0895  -23.1512  -14.2368 O   0  0  0  0  0  0  0  0  0  0  0  0
   22.2559  -19.8134  -16.0281 C   0  0  0  0  0  0  0  0  0  0  0  0
   21.1774  -19.2745  -15.3337 C   0  0  0  0  0  0  0  0  0  0  0  0
   27.3705  -20.9132   -9.2262 C   0  0  0  0  0  0  0  0  0  0  0  0
   26.0436  -21.1831   -9.9042 C   0  0  1  0  0  0  0  0  0  0  0  0
   24.9593  -20.2733   -9.3006 C   0  0  0  0  0  0  0  0  0  0  0  0
   26.0918  -20.9389  -11.3669 C   0  0  0  0  0  0  0  0  0  0  0  0
   24.8579  -21.3923  -12.0866 C   0  0  2  0  0  0  0  0  0  0  0  0
   24.9431  -20.9924  -13.4947 N   0  0  0  0  0  0  0  0  0  0  0  0
   23.6794  -20.6720  -11.5478 C   0  0  0  0  0  0  0  0  0  0  0  0
   23.0400  -21.0858  -10.5194 O   0  0  0  0  0  0  0  0  0  0  0  0
   23.2127  -19.5197  -12.1233 O   0  0  0  0  0  0  0  0  0  0  0  0
  2  3  1  0
  2  1  1  0
  3  4  1  1
  5  6  2  0
  5  3  1  0
  7  8  1  0
  8 18  2  0
  9 10  2  0
  9  8  1  0
 10 11  1  0
 11 12  1  0
 11 17  2  0
 13 12  1  6
 13 14  1  0
 14  5  1  0
 15 13  1  0
 16 15  2  0
 18 17  1  0
 20 22  1  0
 20 19  1  1
 21 20  1  0
 23 22  1  1
 23 24  1  0
 24 15  1  0
 25 23  1  0
 26 25  2  0
 27 25  1  0
M  END
$$$$
