SYL.pdb
     RDKit          3D

 27 27  0  0  1  0  0  0  0  0999 V2000
   27.2247  -21.4567  -18.6002 O   0  0  0  0  0  0  0  0  0  0  0  0
   28.4375  -21.2319  -17.9462 C   0  0  0  0  0  0  0  0  0  0  0  0
   28.6966  -22.2939  -16.9055 C   0  0  2  0  0  0  0  0  0  0  0  0
   28.8385  -23.5689  -17.5571 N   0  0  0  0  0  0  0  0  0  0  0  0
   27.6311  -22.3374  -15.8830 C   0  0  0  0  0  0  0  0  0  0  0  0
   26.8950  -23.3559  -15.8238 O   0  0  0  0  0  0  0  0  0  0  0  0
   22.9020  -20.6772   -8.6857 O   0  0  0  0  0  0  0  0  0  0  0  0
   23.8733  -20.6254   -9.7069 C   0  0  0  0  0  0  0  0  0  0  0  0
   23.5747  -19.9863  -10.8847 C   0  0  0  0  0  0  0  0  0  0  0  0
   24.5258  -19.9255  -11.9075 C   0  0  0  0  0  0  0  0  0  0  0  0
   25.7659  -20.5005  -11.7510 C   0  0  0  0  0  0  0  0  0  0  0  0
   26.7786  -20.4469  -12.8147 C   0  0  0  0  0  0  0  0  0  0  0  0
   26.4106  -21.2738  -14.0265 C   0  0  2  0  0  0  0  0  0  0  0  0
   27.4710  -21.2366  -15.0042 N   0  0  0  0  0  0  0  0  0  0  0  0
   25.1469  -20.8134  -14.6516 C   0  0  0  0  0  0  0  0  0  0  0  0
   25.0596  -19.7552  -15.3154 O   0  0  0  0  0  0  0  0  0  0  0  0
   26.0396  -21.1330  -10.5650 C   0  0  0  0  0  0  0  0  0  0  0  0
   25.0990  -21.1982   -9.5419 C   0  0  0  0  0  0  0  0  0  0  0  0
   22.7003  -23.0992  -18.3085 C   0  0  0  0  0  0  0  0  0  0  0  0
   22.9960  -21.9791  -17.3331 C   0  0  1  0  0  0  0  0  0  0  0  0
   22.6640  -20.6248  -17.9840 C   0  0  0  0  0  0  0  0  0  0  0  0
   22.2119  -22.0950  -16.0789 C   0  0  0  0  0  0  0  0  0  0  0  0
   22.6693  -21.1575  -15.0028 C   0  0  2  0  0  0  0  0  0  0  0  0
   23.9747  -21.5964  -14.4996 N   0  0  0  0  0  0  0  0  0  0  0  0
   21.7521  -21.2533  -13.8419 C   0  0  0  0  0  0  0  0  0  0  0  0
   20.6659  -20.5800  -13.7749 O   0  0  0  0  0  0  0  0  0  0  0  0
   22.0191  -22.0727  -12.7770 O   0  0  0  0  0  0  0  0  0  0  0  0
  2  3  1  0
  2  1  1  0
  3  4  1  6
  5  6  2  0
  5  3  1  0
  7  8  1  0
  8 18  2  0
  9 10  2  0
  9  8  1  0
 10 11  1  0
 11 12  1  0
 11 17  2  0
 13 12  1  1
 13 14  1  0
 14  5  1  0
 15 13  1  0
 16 15  2  0
 18 17  1  0
 20 22  1  0
 20 19  1  6
 21 20  1  0
 23 22  1  6
 23 24  1  0
 24 15  1  0
 25 23  1  0
 26 25  2  0
 27 25  1  0
M  END
$$$$
