SYL.pdb
     RDKit          3D

 27 27  0  0  1  0  0  0  0  0999 V2000
   44.0759   -1.1913   -1.9505 O   0  0  0  0  0  0  0  0  0  0  0  0
   43.1367   -1.8082   -2.7791 C   0  0  0  0  0  0  0  0  0  0  0  0
   42.2154   -2.7004   -1.9833 C   0  0  2  0  0  0  0  0  0  0  0  0
   42.9853   -3.7553   -1.3793 N   0  0  0  0  0  0  0  0  0  0  0  0
   41.1244   -3.2499   -2.8142 C   0  0  0  0  0  0  0  0  0  0  0  0
   41.3801   -4.2112   -3.5843 O   0  0  0  0  0  0  0  0  0  0  0  0
   35.3653   -0.9411    1.4728 O   0  0  0  0  0  0  0  0  0  0  0  0
   35.9994   -1.7273    0.4886 C   0  0  0  0  0  0  0  0  0  0  0  0
   35.2454   -2.2808   -0.5162 C   0  0  0  0  0  0  0  0  0  0  0  0
   35.8578   -3.0629   -1.5000 C   0  0  0  0  0  0  0  0  0  0  0  0
   37.2149   -3.2882   -1.4767 C   0  0  0  0  0  0  0  0  0  0  0  0
   37.8764   -4.1074   -2.5020 C   0  0  0  0  0  0  0  0  0  0  0  0
   38.7427   -3.2974   -3.4407 C   0  0  2  0  0  0  0  0  0  0  0  0
   39.8295   -2.6808   -2.7193 N   0  0  0  0  0  0  0  0  0  0  0  0
   37.9667   -2.2523   -4.1516 C   0  0  0  0  0  0  0  0  0  0  0  0
   38.0465   -1.0342   -3.8721 O   0  0  0  0  0  0  0  0  0  0  0  0
   37.9460   -2.7242   -0.4624 C   0  0  0  0  0  0  0  0  0  0  0  0
   37.3447   -1.9446    0.5206 C   0  0  0  0  0  0  0  0  0  0  0  0
   35.3642   -0.5103   -8.6598 C   0  0  0  0  0  0  0  0  0  0  0  0
   34.5999   -1.4631   -7.7647 C   0  0  1  0  0  0  0  0  0  0  0  0
   33.6602   -2.3333   -8.6176 C   0  0  0  0  0  0  0  0  0  0  0  0
   35.4947   -2.3632   -6.9962 C   0  0  0  0  0  0  0  0  0  0  0  0
   36.2314   -1.6682   -5.8915 C   0  0  2  0  0  0  0  0  0  0  0  0
   37.0898   -2.6337   -5.1983 N   0  0  0  0  0  0  0  0  0  0  0  0
   35.2637   -1.2029   -4.8692 C   0  0  0  0  0  0  0  0  0  0  0  0
   34.8980   -1.9427   -3.8911 O   0  0  0  0  0  0  0  0  0  0  0  0
   34.7100    0.0493   -4.9168 O   0  0  0  0  0  0  0  0  0  0  0  0
  2  3  1  0
  2  1  1  0
  3  4  1  6
  5  6  2  0
  5  3  1  0
  7  8  1  0
  8 18  2  0
  9 10  2  0
  9  8  1  0
 10 11  1  0
 11 12  1  0
 11 17  2  0
 13 12  1  1
 13 14  1  0
 14  5  1  0
 15 13  1  0
 16 15  2  0
 18 17  1  0
 20 22  1  0
 20 19  1  6
 21 20  1  0
 23 22  1  6
 23 24  1  0
 24 15  1  0
 25 23  1  0
 26 25  2  0
 27 25  1  0
M  END
$$$$
