SYL.pdb
     RDKit          3D

 27 27  0  0  1  0  0  0  0  0999 V2000
   27.8090  -22.1921  -15.6729 O   0  0  0  0  0  0  0  0  0  0  0  0
   27.3004  -22.1569  -16.9726 C   0  0  0  0  0  0  0  0  0  0  0  0
   27.1442  -20.7353  -17.4549 C   0  0  2  0  0  0  0  0  0  0  0  0
   28.3525  -20.3272  -18.1210 N   0  0  0  0  0  0  0  0  0  0  0  0
   26.8094  -19.8111  -16.3519 C   0  0  0  0  0  0  0  0  0  0  0  0
   27.4676  -18.7449  -16.2394 O   0  0  0  0  0  0  0  0  0  0  0  0
   19.1081  -16.5050  -17.3314 O   0  0  0  0  0  0  0  0  0  0  0  0
   20.2992  -17.2513  -17.2167 C   0  0  0  0  0  0  0  0  0  0  0  0
   20.2430  -18.5336  -16.7296 C   0  0  0  0  0  0  0  0  0  0  0  0
   21.4141  -19.2875  -16.6093 C   0  0  0  0  0  0  0  0  0  0  0  0
   22.6315  -18.7605  -16.9743 C   0  0  0  0  0  0  0  0  0  0  0  0
   23.8731  -19.5376  -16.8550 C   0  0  0  0  0  0  0  0  0  0  0  0
   24.5351  -19.3945  -15.5026 C   0  0  2  0  0  0  0  0  0  0  0  0
   25.7627  -20.1514  -15.4586 N   0  0  0  0  0  0  0  0  0  0  0  0
   23.6462  -19.8316  -14.3988 C   0  0  0  0  0  0  0  0  0  0  0  0
   22.5405  -19.2947  -14.1594 O   0  0  0  0  0  0  0  0  0  0  0  0
   22.6609  -17.4773  -17.4580 C   0  0  0  0  0  0  0  0  0  0  0  0
   21.5003  -16.7200  -17.5811 C   0  0  0  0  0  0  0  0  0  0  0  0
   26.2183  -19.5071  -10.2956 C   0  0  0  0  0  0  0  0  0  0  0  0
   25.5587  -20.4399  -11.2896 C   0  0  1  0  0  0  0  0  0  0  0  0
   26.0291  -21.8829  -11.0361 C   0  0  0  0  0  0  0  0  0  0  0  0
   24.0780  -20.4126  -11.1995 C   0  0  0  0  0  0  0  0  0  0  0  0
   23.4017  -21.1933  -12.2855 C   0  0  2  0  0  0  0  0  0  0  0  0
   24.0528  -20.9056  -13.5673 N   0  0  0  0  0  0  0  0  0  0  0  0
   22.0068  -20.7157  -12.4413 C   0  0  0  0  0  0  0  0  0  0  0  0
   21.0945  -20.9872  -11.5859 O   0  0  0  0  0  0  0  0  0  0  0  0
   21.6204  -19.9536  -13.5122 O   0  0  0  0  0  0  0  0  0  0  0  0
  2  3  1  0
  2  1  1  0
  3  4  1  1
  5  6  2  0
  5  3  1  0
  7  8  1  0
  8 18  2  0
  9 10  2  0
  9  8  1  0
 10 11  1  0
 11 12  1  0
 11 17  2  0
 13 12  1  6
 13 14  1  0
 14  5  1  0
 15 13  1  0
 16 15  2  0
 18 17  1  0
 20 22  1  0
 20 19  1  1
 21 20  1  0
 23 22  1  1
 23 24  1  0
 24 15  1  0
 25 23  1  0
 26 25  2  0
 27 25  1  0
M  END
$$$$
