SYL.pdb
     RDKit          3D

 27 27  0  0  1  0  0  0  0  0999 V2000
   27.0836  -10.7279  -21.3776 O   0  0  0  0  0  0  0  0  0  0  0  0
   26.3306   -9.8238  -20.6261 C   0  0  0  0  0  0  0  0  0  0  0  0
   26.6400   -8.4006  -21.0222 C   0  0  2  0  0  0  0  0  0  0  0  0
   28.0035   -8.0996  -20.6748 N   0  0  0  0  0  0  0  0  0  0  0  0
   25.7094   -7.4382  -20.3974 C   0  0  0  0  0  0  0  0  0  0  0  0
   25.7537   -6.2349  -20.7619 O   0  0  0  0  0  0  0  0  0  0  0  0
   18.0343   -4.4474  -17.8337 O   0  0  0  0  0  0  0  0  0  0  0  0
   19.2446   -4.9496  -18.3551 C   0  0  0  0  0  0  0  0  0  0  0  0
   19.3082   -6.2598  -18.7599 C   0  0  0  0  0  0  0  0  0  0  0  0
   20.5000   -6.7739  -19.2791 C   0  0  0  0  0  0  0  0  0  0  0  0
   21.6189   -5.9812  -19.3916 C   0  0  0  0  0  0  0  0  0  0  0  0
   22.8805   -6.5038  -19.9349 C   0  0  0  0  0  0  0  0  0  0  0  0
   23.8408   -6.9688  -18.8628 C   0  0  2  0  0  0  0  0  0  0  0  0
   24.7997   -7.8967  -19.4117 N   0  0  0  0  0  0  0  0  0  0  0  0
   23.1366   -7.6041  -17.7225 C   0  0  0  0  0  0  0  0  0  0  0  0
   22.3548   -6.9796  -16.9695 O   0  0  0  0  0  0  0  0  0  0  0  0
   21.5297   -4.6757  -18.9802 C   0  0  0  0  0  0  0  0  0  0  0  0
   20.3476   -4.1559  -18.4624 C   0  0  0  0  0  0  0  0  0  0  0  0
   26.1004  -10.7879  -14.8070 C   0  0  0  0  0  0  0  0  0  0  0  0
   25.0191  -10.5756  -15.8458 C   0  0  1  0  0  0  0  0  0  0  0  0
   24.6052  -11.9305  -16.4464 C   0  0  0  0  0  0  0  0  0  0  0  0
   23.8082   -9.9291  -15.2827 C   0  0  0  0  0  0  0  0  0  0  0  0
   22.7475   -9.6592  -16.3065 C   0  0  2  0  0  0  0  0  0  0  0  0
   23.3477   -8.9812  -17.4597 N   0  0  0  0  0  0  0  0  0  0  0  0
   21.7642   -8.6955  -15.7564 C   0  0  0  0  0  0  0  0  0  0  0  0
   20.8665   -9.0447  -14.9139 O   0  0  0  0  0  0  0  0  0  0  0  0
   21.7668   -7.3748  -16.1207 O   0  0  0  0  0  0  0  0  0  0  0  0
  2  3  1  0
  2  1  1  0
  3  4  1  1
  5  6  2  0
  5  3  1  0
  7  8  1  0
  8 18  2  0
  9 10  2  0
  9  8  1  0
 10 11  1  0
 11 12  1  0
 11 17  2  0
 13 12  1  6
 13 14  1  0
 14  5  1  0
 15 13  1  0
 16 15  2  0
 18 17  1  0
 20 22  1  0
 20 19  1  1
 21 20  1  0
 23 22  1  1
 23 24  1  0
 24 15  1  0
 25 23  1  0
 26 25  2  0
 27 25  1  0
M  END
$$$$
