SYL.pdb
     RDKit          3D

 27 27  0  0  1  0  0  0  0  0999 V2000
   14.5528  -21.8494    3.7314 O   0  0  0  0  0  0  0  0  0  0  0  0
   14.3678  -20.6682    3.0104 C   0  0  0  0  0  0  0  0  0  0  0  0
   15.5154  -20.4285    2.0597 C   0  0  2  0  0  0  0  0  0  0  0  0
   16.1857  -21.6759    1.8050 N   0  0  0  0  0  0  0  0  0  0  0  0
   16.4589  -19.4160    2.5764 C   0  0  0  0  0  0  0  0  0  0  0  0
   17.6875  -19.6867    2.5842 O   0  0  0  0  0  0  0  0  0  0  0  0
   19.9214  -11.7676    5.1096 O   0  0  0  0  0  0  0  0  0  0  0  0
   19.0541  -12.7719    4.6321 C   0  0  0  0  0  0  0  0  0  0  0  0
   17.9268  -13.0823    5.3515 C   0  0  0  0  0  0  0  0  0  0  0  0
   17.0563  -14.0753    4.8926 C   0  0  0  0  0  0  0  0  0  0  0  0
   17.3135  -14.7515    3.7223 C   0  0  0  0  0  0  0  0  0  0  0  0
   16.4102  -15.7982    3.2241 C   0  0  0  0  0  0  0  0  0  0  0  0
   16.8811  -17.1963    3.5574 C   0  0  2  0  0  0  0  0  0  0  0  0
   15.9547  -18.1768    3.0452 N   0  0  0  0  0  0  0  0  0  0  0  0
   17.0505  -17.3932    5.0176 C   0  0  0  0  0  0  0  0  0  0  0  0
   16.1298  -17.7993    5.7630 O   0  0  0  0  0  0  0  0  0  0  0  0
   18.4462  -14.4228    3.0220 C   0  0  0  0  0  0  0  0  0  0  0  0
   19.3180  -13.4360    3.4714 C   0  0  0  0  0  0  0  0  0  0  0  0
   21.3229  -20.0555    6.6799 C   0  0  0  0  0  0  0  0  0  0  0  0
   19.9268  -19.4740    6.7592 C   0  0  1  0  0  0  0  0  0  0  0  0
   19.0999  -20.2529    7.7971 C   0  0  0  0  0  0  0  0  0  0  0  0
   19.9281  -18.0421    7.1479 C   0  0  0  0  0  0  0  0  0  0  0  0
   18.5837  -17.3913    7.0249 C   0  0  2  0  0  0  0  0  0  0  0  0
   18.3068  -17.1132    5.6122 N   0  0  0  0  0  0  0  0  0  0  0  0
   18.6157  -16.0637    7.6843 C   0  0  0  0  0  0  0  0  0  0  0  0
   18.6603  -15.9363    8.9568 O   0  0  0  0  0  0  0  0  0  0  0  0
   18.6017  -14.8992    6.9628 O   0  0  0  0  0  0  0  0  0  0  0  0
  2  3  1  0
  2  1  1  0
  3  4  1  1
  5  6  2  0
  5  3  1  0
  7  8  1  0
  8 18  2  0
  9 10  2  0
  9  8  1  0
 10 11  1  0
 11 12  1  0
 11 17  2  0
 13 12  1  1
 13 14  1  0
 14  5  1  0
 15 13  1  0
 16 15  2  0
 18 17  1  0
 20 22  1  0
 20 19  1  1
 21 20  1  0
 23 22  1  6
 23 24  1  0
 24 15  1  0
 25 23  1  0
 26 25  2  0
 27 25  1  0
M  END
$$$$
