SYL.pdb
     RDKit          3D

 27 27  0  0  1  0  0  0  0  0999 V2000
   26.4847  -19.5344  -16.5914 O   0  0  0  0  0  0  0  0  0  0  0  0
   25.6634  -20.3628  -17.3585 C   0  0  0  0  0  0  0  0  0  0  0  0
   24.7541  -19.5504  -18.2480 C   0  0  2  0  0  0  0  0  0  0  0  0
   25.5507  -18.8307  -19.2061 N   0  0  0  0  0  0  0  0  0  0  0  0
   23.8996  -18.6291  -17.4710 C   0  0  0  0  0  0  0  0  0  0  0  0
   24.1489  -17.3968  -17.5136 O   0  0  0  0  0  0  0  0  0  0  0  0
   17.3645  -13.8850  -14.8653 O   0  0  0  0  0  0  0  0  0  0  0  0
   18.3308  -14.7491  -15.4206 C   0  0  0  0  0  0  0  0  0  0  0  0
   17.9391  -15.9755  -15.8973 C   0  0  0  0  0  0  0  0  0  0  0  0
   18.8840  -16.8444  -16.4511 C   0  0  0  0  0  0  0  0  0  0  0  0
   20.2105  -16.4870  -16.5263 C   0  0  0  0  0  0  0  0  0  0  0  0
   21.2181  -17.3870  -17.1049 C   0  0  0  0  0  0  0  0  0  0  0  0
   21.9099  -18.2465  -16.0704 C   0  0  2  0  0  0  0  0  0  0  0  0
   22.8305  -19.1582  -16.7052 N   0  0  0  0  0  0  0  0  0  0  0  0
   20.9433  -19.0143  -15.2482 C   0  0  0  0  0  0  0  0  0  0  0  0
   20.3004  -19.9947  -15.6882 O   0  0  0  0  0  0  0  0  0  0  0  0
   20.5763  -15.2565  -16.0432 C   0  0  0  0  0  0  0  0  0  0  0  0
   19.6426  -14.3856  -15.4905 C   0  0  0  0  0  0  0  0  0  0  0  0
   21.8861  -19.7018   -9.7653 C   0  0  0  0  0  0  0  0  0  0  0  0
   21.4747  -19.9399  -11.2031 C   0  0  1  0  0  0  0  0  0  0  0  0
   21.1736  -21.4340  -11.4147 C   0  0  0  0  0  0  0  0  0  0  0  0
   20.2683  -19.1655  -11.5855 C   0  0  0  0  0  0  0  0  0  0  0  0
   19.8436  -19.3887  -13.0053 C   0  0  2  0  0  0  0  0  0  0  0  0
   20.7259  -18.6331  -13.9000 N   0  0  0  0  0  0  0  0  0  0  0  0
   18.4930  -18.8134  -13.2129 C   0  0  0  0  0  0  0  0  0  0  0  0
   18.3161  -17.5820  -13.5128 O   0  0  0  0  0  0  0  0  0  0  0  0
   17.3592  -19.5735  -13.0963 O   0  0  0  0  0  0  0  0  0  0  0  0
  2  3  1  0
  2  1  1  0
  3  4  1  6
  5  6  2  0
  5  3  1  0
  7  8  1  0
  8 18  2  0
  9 10  2  0
  9  8  1  0
 10 11  1  0
 11 12  1  0
 11 17  2  0
 13 12  1  6
 13 14  1  0
 14  5  1  0
 15 13  1  0
 16 15  2  0
 18 17  1  0
 20 22  1  0
 20 19  1  1
 21 20  1  0
 23 22  1  1
 23 24  1  0
 24 15  1  0
 25 23  1  0
 26 25  2  0
 27 25  1  0
M  END
$$$$
