SYL.pdb
     RDKit          3D

 27 27  0  0  1  0  0  0  0  0999 V2000
   25.9517  -11.8213  -15.7246 O   0  0  0  0  0  0  0  0  0  0  0  0
   25.0576  -10.8955  -16.2655 C   0  0  0  0  0  0  0  0  0  0  0  0
   23.6319  -11.2581  -15.9275 C   0  0  2  0  0  0  0  0  0  0  0  0
   23.3153  -12.5306  -16.5197 N   0  0  0  0  0  0  0  0  0  0  0  0
   22.6784  -10.2181  -16.3655 C   0  0  0  0  0  0  0  0  0  0  0  0
   22.2158  -10.2794  -17.5338 O   0  0  0  0  0  0  0  0  0  0  0  0
   15.8626   -4.9121  -16.5170 O   0  0  0  0  0  0  0  0  0  0  0  0
   16.9142   -5.7707  -16.1351 C   0  0  0  0  0  0  0  0  0  0  0  0
   17.7086   -5.4258  -15.0700 C   0  0  0  0  0  0  0  0  0  0  0  0
   18.7554   -6.2653  -14.6780 C   0  0  0  0  0  0  0  0  0  0  0  0
   19.0039   -7.4410  -15.3481 C   0  0  0  0  0  0  0  0  0  0  0  0
   20.0995   -8.3363  -14.9507 C   0  0  0  0  0  0  0  0  0  0  0  0
   21.3056   -8.2369  -15.8579 C   0  0  2  0  0  0  0  0  0  0  0  0
   22.3155   -9.1882  -15.4616 N   0  0  0  0  0  0  0  0  0  0  0  0
   21.8877   -6.8728  -15.8624 C   0  0  0  0  0  0  0  0  0  0  0  0
   22.5851   -6.4250  -14.9236 O   0  0  0  0  0  0  0  0  0  0  0  0
   18.1960   -7.7630  -16.4088 C   0  0  0  0  0  0  0  0  0  0  0  0
   17.1521   -6.9334  -16.8057 C   0  0  0  0  0  0  0  0  0  0  0  0
   23.4085   -4.4975  -20.6669 C   0  0  0  0  0  0  0  0  0  0  0  0
   23.3676   -4.8914  -19.2052 C   0  0  1  0  0  0  0  0  0  0  0  0
   24.6984   -4.5153  -18.5303 C   0  0  0  0  0  0  0  0  0  0  0  0
   22.2683   -4.2231  -18.4663 C   0  0  0  0  0  0  0  0  0  0  0  0
   22.1673   -4.6525  -17.0339 C   0  0  2  0  0  0  0  0  0  0  0  0
   21.6529   -6.0242  -16.9737 N   0  0  0  0  0  0  0  0  0  0  0  0
   21.1513   -3.8247  -16.3408 C   0  0  0  0  0  0  0  0  0  0  0  0
   21.3661   -2.6022  -16.0292 O   0  0  0  0  0  0  0  0  0  0  0  0
   19.9232   -4.3263  -15.9985 O   0  0  0  0  0  0  0  0  0  0  0  0
  2  3  1  0
  2  1  1  0
  3  4  1  6
  5  6  2  0
  5  3  1  0
  7  8  1  0
  8 18  2  0
  9 10  2  0
  9  8  1  0
 10 11  1  0
 11 12  1  0
 11 17  2  0
 13 12  1  1
 13 14  1  0
 14  5  1  0
 15 13  1  0
 16 15  2  0
 18 17  1  0
 20 22  1  0
 20 19  1  6
 21 20  1  0
 23 22  1  6
 23 24  1  0
 24 15  1  0
 25 23  1  0
 26 25  2  0
 27 25  1  0
M  END
$$$$
