SYL.pdb
     RDKit          3D

 27 27  0  0  1  0  0  0  0  0999 V2000
   29.0126  -18.6511  -17.3024 O   0  0  0  0  0  0  0  0  0  0  0  0
   29.1990  -19.9992  -16.9908 C   0  0  0  0  0  0  0  0  0  0  0  0
   27.8755  -20.7125  -16.8583 C   0  0  2  0  0  0  0  0  0  0  0  0
   27.3150  -20.9148  -18.1680 N   0  0  0  0  0  0  0  0  0  0  0  0
   26.9356  -19.9765  -15.9879 C   0  0  0  0  0  0  0  0  0  0  0  0
   26.5960  -18.8111  -16.3186 O   0  0  0  0  0  0  0  0  0  0  0  0
   18.7143  -19.7043  -14.1007 O   0  0  0  0  0  0  0  0  0  0  0  0
   20.0592  -19.9405  -14.4534 C   0  0  0  0  0  0  0  0  0  0  0  0
   20.8608  -18.8781  -14.7901 C   0  0  0  0  0  0  0  0  0  0  0  0
   22.1963  -19.0943  -15.1423 C   0  0  0  0  0  0  0  0  0  0  0  0
   22.7240  -20.3649  -15.1568 C   0  0  0  0  0  0  0  0  0  0  0  0
   24.1254  -20.6118  -15.5242 C   0  0  0  0  0  0  0  0  0  0  0  0
   25.0924  -20.3366  -14.3942 C   0  0  2  0  0  0  0  0  0  0  0  0
   26.4473  -20.6017  -14.8131 N   0  0  0  0  0  0  0  0  0  0  0  0
   24.7825  -21.1420  -13.1880 C   0  0  0  0  0  0  0  0  0  0  0  0
   24.7155  -22.3924  -13.2007 O   0  0  0  0  0  0  0  0  0  0  0  0
   21.9026  -21.4093  -14.8164 C   0  0  0  0  0  0  0  0  0  0  0  0
   20.5724  -21.2032  -14.4646 C   0  0  0  0  0  0  0  0  0  0  0  0
   26.7135  -19.3757   -8.5281 C   0  0  0  0  0  0  0  0  0  0  0  0
   26.1901  -20.2353   -9.6597 C   0  0  1  0  0  0  0  0  0  0  0  0
   26.9286  -21.5852   -9.6686 C   0  0  0  0  0  0  0  0  0  0  0  0
   24.7355  -20.5037   -9.5445 C   0  0  0  0  0  0  0  0  0  0  0  0
   24.1633  -21.2036  -10.7399 C   0  0  2  0  0  0  0  0  0  0  0  0
   24.5487  -20.4806  -11.9559 N   0  0  0  0  0  0  0  0  0  0  0  0
   22.6834  -21.1283  -10.6945 C   0  0  0  0  0  0  0  0  0  0  0  0
   22.0277  -20.2275  -11.3239 O   0  0  0  0  0  0  0  0  0  0  0  0
   21.9371  -22.0243   -9.9755 O   0  0  0  0  0  0  0  0  0  0  0  0
  2  3  1  0
  2  1  1  0
  3  4  1  6
  5  6  2  0
  5  3  1  0
  7  8  1  0
  8 18  2  0
  9 10  2  0
  9  8  1  0
 10 11  1  0
 11 12  1  0
 11 17  2  0
 13 12  1  6
 13 14  1  0
 14  5  1  0
 15 13  1  0
 16 15  2  0
 18 17  1  0
 20 22  1  0
 20 19  1  1
 21 20  1  0
 23 22  1  1
 23 24  1  0
 24 15  1  0
 25 23  1  0
 26 25  2  0
 27 25  1  0
M  END
$$$$
