SYL.pdb
     RDKit          3D

 27 27  0  0  1  0  0  0  0  0999 V2000
   14.5870  -10.1972  -13.2340 O   0  0  0  0  0  0  0  0  0  0  0  0
   15.4315  -10.4825  -12.1596 C   0  0  0  0  0  0  0  0  0  0  0  0
   14.7021  -10.3433  -10.8455 C   0  0  2  0  0  0  0  0  0  0  0  0
   13.4766  -11.0950  -10.9040 N   0  0  0  0  0  0  0  0  0  0  0  0
   14.4407   -8.9296  -10.5054 C   0  0  0  0  0  0  0  0  0  0  0  0
   13.3741   -8.4003  -10.9114 O   0  0  0  0  0  0  0  0  0  0  0  0
   10.0492   -6.9559   -5.5349 O   0  0  0  0  0  0  0  0  0  0  0  0
   11.3251   -6.8789   -6.1308 C   0  0  0  0  0  0  0  0  0  0  0  0
   11.8130   -5.6547   -6.5154 C   0  0  0  0  0  0  0  0  0  0  0  0
   13.0758   -5.5603   -7.1076 C   0  0  0  0  0  0  0  0  0  0  0  0
   13.8433   -6.6836   -7.3126 C   0  0  0  0  0  0  0  0  0  0  0  0
   15.1730   -6.6042   -7.9335 C   0  0  0  0  0  0  0  0  0  0  0  0
   15.1438   -6.8286   -9.4290 C   0  0  2  0  0  0  0  0  0  0  0  0
   15.3940   -8.2160   -9.7364 N   0  0  0  0  0  0  0  0  0  0  0  0
   16.1320   -5.9802  -10.1384 C   0  0  0  0  0  0  0  0  0  0  0  0
   17.3697   -6.1312  -10.0221 O   0  0  0  0  0  0  0  0  0  0  0  0
   13.3334   -7.8948   -6.9195 C   0  0  0  0  0  0  0  0  0  0  0  0
   12.0776   -7.9979   -6.3294 C   0  0  0  0  0  0  0  0  0  0  0  0
   15.3349   -5.4790  -14.9484 C   0  0  0  0  0  0  0  0  0  0  0  0
   16.3699   -5.2734  -13.8621 C   0  0  1  0  0  0  0  0  0  0  0  0
   17.7792   -5.2945  -14.4794 C   0  0  0  0  0  0  0  0  0  0  0  0
   16.1964   -3.9848  -13.1475 C   0  0  0  0  0  0  0  0  0  0  0  0
   16.5867   -4.0492  -11.7019 C   0  0  2  0  0  0  0  0  0  0  0  0
   15.6700   -4.9462  -10.9914 N   0  0  0  0  0  0  0  0  0  0  0  0
   16.3913   -2.7185  -11.0780 C   0  0  0  0  0  0  0  0  0  0  0  0
   15.3952   -2.4631  -10.3164 O   0  0  0  0  0  0  0  0  0  0  0  0
   17.2718   -1.6892  -11.2831 O   0  0  0  0  0  0  0  0  0  0  0  0
  2  3  1  0
  2  1  1  0
  3  4  1  6
  5  6  2  0
  5  3  1  0
  7  8  1  0
  8 18  2  0
  9 10  2  0
  9  8  1  0
 10 11  1  0
 11 12  1  0
 11 17  2  0
 13 12  1  1
 13 14  1  0
 14  5  1  0
 15 13  1  0
 16 15  2  0
 18 17  1  0
 20 22  1  0
 20 19  1  6
 21 20  1  0
 23 22  1  6
 23 24  1  0
 24 15  1  0
 25 23  1  0
 26 25  2  0
 27 25  1  0
M  END
$$$$
