EEG.pdb
     RDKit          3D

 23 22  0  0  1  0  0  0  0  0999 V2000
    5.2727  -20.9201   19.9062 N   0  0  0  0  0  0  0  0  0  0  0  0
    5.0718  -19.7947   20.7534 C   0  0  1  0  0  0  0  0  0  0  0  0
    3.7049  -19.5659   21.2818 C   0  0  0  0  0  0  0  0  0  0  0  0
    2.5761  -20.2458   20.5965 C   0  0  0  0  0  0  0  0  0  0  0  0
    1.2475  -20.0040   21.1422 C   0  0  0  0  0  0  0  0  0  0  0  0
    1.0445  -19.2074   22.0762 O   0  0  0  0  0  0  0  0  0  0  0  0
    6.0898  -19.7807   21.8675 C   0  0  0  0  0  0  0  0  0  0  0  0
    6.3912  -20.8947   22.3527 O   0  0  0  0  0  0  0  0  0  0  0  0
    0.1110  -20.6572   20.6458 O   0  0  0  0  0  0  0  0  0  0  0  0
    6.6674  -18.5713   22.3317 N   0  0  0  0  0  0  0  0  0  0  0  0
    7.7616  -18.5937   23.3248 C   0  0  1  0  0  0  0  0  0  0  0  0
    8.6523  -17.4778   22.9604 C   0  0  0  0  0  0  0  0  0  0  0  0
    9.7264  -17.0829   23.8956 C   0  0  0  0  0  0  0  0  0  0  0  0
   10.5910  -15.9690   23.4394 C   0  0  0  0  0  0  0  0  0  0  0  0
   11.7376  -16.2165   22.9880 O   0  0  0  0  0  0  0  0  0  0  0  0
    7.1660  -18.6163   24.6468 C   0  0  0  0  0  0  0  0  0  0  0  0
    6.0802  -17.9492   24.8127 O   0  0  0  0  0  0  0  0  0  0  0  0
   10.1702  -14.6478   23.4954 O   0  0  0  0  0  0  0  0  0  0  0  0
    7.6561  -19.3044   25.7934 N   0  0  0  0  0  0  0  0  0  0  0  0
    6.9936  -19.2621   27.0685 C   0  0  0  0  0  0  0  0  0  0  0  0
    7.6452  -20.1153   28.0727 C   0  0  0  0  0  0  0  0  0  0  0  0
    8.7597  -20.9022   27.8277 O   0  0  0  0  0  0  0  0  0  0  0  0
    7.1671  -20.1396   29.2345 O   0  0  0  0  0  0  0  0  0  0  0  0
  2  1  1  1
  2  7  1  0
  3  4  1  0
  3  2  1  0
  5  6  2  0
  5  4  1  0
  7 10  1  0
  7  8  2  0
  9  5  1  0
 10 11  1  0
 11 16  1  0
 11 12  1  1
 13 12  1  0
 13 14  1  0
 14 15  2  0
 14 18  1  0
 16 17  2  0
 19 20  1  0
 19 16  1  0
 21 22  1  0
 21 20  1  0
 23 21  2  0
M  END
$$$$
