EEG.pdb
     RDKit          3D

 23 22  0  0  1  0  0  0  0  0999 V2000
   11.9170  -15.5576   16.5512 N   0  0  0  0  0  0  0  0  0  0  0  0
   12.8158  -16.3432   17.3256 C   0  0  1  0  0  0  0  0  0  0  0  0
   13.8015  -17.1794   16.5983 C   0  0  0  0  0  0  0  0  0  0  0  0
   14.7656  -16.4904   15.7030 C   0  0  0  0  0  0  0  0  0  0  0  0
   15.6982  -17.3423   14.9777 C   0  0  0  0  0  0  0  0  0  0  0  0
   15.4078  -17.8771   13.8924 O   0  0  0  0  0  0  0  0  0  0  0  0
   13.4964  -15.4946   18.3716 C   0  0  0  0  0  0  0  0  0  0  0  0
   13.6053  -14.2757   18.1072 O   0  0  0  0  0  0  0  0  0  0  0  0
   16.9860  -17.6129   15.4605 O   0  0  0  0  0  0  0  0  0  0  0  0
   13.9812  -16.0530   19.5819 N   0  0  0  0  0  0  0  0  0  0  0  0
   14.6114  -15.1943   20.6064 C   0  0  1  0  0  0  0  0  0  0  0  0
   14.0476  -15.6335   21.8951 C   0  0  0  0  0  0  0  0  0  0  0  0
   14.8332  -16.5521   22.7456 C   0  0  0  0  0  0  0  0  0  0  0  0
   14.3805  -16.6619   24.1525 C   0  0  0  0  0  0  0  0  0  0  0  0
   13.7038  -15.7335   24.6623 O   0  0  0  0  0  0  0  0  0  0  0  0
   16.0476  -15.2460   20.4121 C   0  0  0  0  0  0  0  0  0  0  0  0
   16.5493  -16.3689   20.0397 O   0  0  0  0  0  0  0  0  0  0  0  0
   14.6831  -17.7689   24.9328 O   0  0  0  0  0  0  0  0  0  0  0  0
   16.9730  -14.1780   20.5890 N   0  0  0  0  0  0  0  0  0  0  0  0
   18.3755  -14.3937   20.8191 C   0  0  0  0  0  0  0  0  0  0  0  0
   19.1362  -13.1379   20.8917 C   0  0  0  0  0  0  0  0  0  0  0  0
   20.4870  -13.0565   21.1915 O   0  0  0  0  0  0  0  0  0  0  0  0
   18.5298  -12.0602   20.6684 O   0  0  0  0  0  0  0  0  0  0  0  0
  2  1  1  6
  2  7  1  0
  3  4  1  0
  3  2  1  0
  5  6  2  0
  5  4  1  0
  7 10  1  0
  7  8  2  0
  9  5  1  0
 10 11  1  0
 11 16  1  0
 11 12  1  1
 13 12  1  0
 13 14  1  0
 14 15  2  0
 14 18  1  0
 16 17  2  0
 19 20  1  0
 19 16  1  0
 21 22  1  0
 21 20  1  0
 23 21  2  0
M  END
$$$$
