EEG.pdb
     RDKit          3D

 23 22  0  0  1  0  0  0  0  0999 V2000
    7.5603  -12.9143   17.4755 N   0  0  0  0  0  0  0  0  0  0  0  0
    8.1872  -14.1521   17.7910 C   0  0  1  0  0  0  0  0  0  0  0  0
    8.4535  -15.0930   16.6758 C   0  0  0  0  0  0  0  0  0  0  0  0
    9.0749  -14.5456   15.4429 C   0  0  0  0  0  0  0  0  0  0  0  0
    9.3089  -15.4921   14.3608 C   0  0  0  0  0  0  0  0  0  0  0  0
    8.4719  -15.7009   13.4642 O   0  0  0  0  0  0  0  0  0  0  0  0
    9.4329  -13.9221   18.6113 C   0  0  0  0  0  0  0  0  0  0  0  0
    9.9043  -12.7626   18.5843 O   0  0  0  0  0  0  0  0  0  0  0  0
   10.4973  -16.2290   14.2632 O   0  0  0  0  0  0  0  0  0  0  0  0
   10.0285  -14.9641   19.3670 N   0  0  0  0  0  0  0  0  0  0  0  0
   11.1308  -14.6748   20.3079 C   0  0  1  0  0  0  0  0  0  0  0  0
   10.8042  -15.4114   21.5417 C   0  0  0  0  0  0  0  0  0  0  0  0
    9.6792  -14.9447   22.3789 C   0  0  0  0  0  0  0  0  0  0  0  0
    9.7345  -15.3491   23.8036 C   0  0  0  0  0  0  0  0  0  0  0  0
   10.7161  -16.0119   24.2242 O   0  0  0  0  0  0  0  0  0  0  0  0
   12.3824  -14.9550   19.6311 C   0  0  0  0  0  0  0  0  0  0  0  0
   12.4397  -16.0259   18.9232 O   0  0  0  0  0  0  0  0  0  0  0  0
    8.7264  -15.0157   24.6972 O   0  0  0  0  0  0  0  0  0  0  0  0
   13.5671  -14.1652   19.6636 N   0  0  0  0  0  0  0  0  0  0  0  0
   14.8436  -14.6587   19.2240 C   0  0  0  0  0  0  0  0  0  0  0  0
   15.1099  -14.3571   17.8101 C   0  0  0  0  0  0  0  0  0  0  0  0
   16.3397  -13.9551   17.3130 O   0  0  0  0  0  0  0  0  0  0  0  0
   14.1653  -14.4684   16.9890 O   0  0  0  0  0  0  0  0  0  0  0  0
  2  1  1  6
  2  7  1  0
  3  4  1  0
  3  2  1  0
  5  6  2  0
  5  4  1  0
  7 10  1  0
  7  8  2  0
  9  5  1  0
 10 11  1  0
 11 16  1  0
 11 12  1  1
 13 12  1  0
 13 14  1  0
 14 15  2  0
 14 18  1  0
 16 17  2  0
 19 20  1  0
 19 16  1  0
 21 22  1  0
 21 20  1  0
 23 21  2  0
M  END
$$$$
