EEG.pdb
     RDKit          3D

 23 22  0  0  1  0  0  0  0  0999 V2000
    6.6809  -24.2231   22.9660 N   0  0  0  0  0  0  0  0  0  0  0  0
    7.4000  -22.9993   23.0652 C   0  0  1  0  0  0  0  0  0  0  0  0
    6.9622  -21.8719   22.2066 C   0  0  0  0  0  0  0  0  0  0  0  0
    6.9828  -22.0749   20.7354 C   0  0  0  0  0  0  0  0  0  0  0  0
    6.5388  -20.9521   19.9208 C   0  0  0  0  0  0  0  0  0  0  0  0
    7.3356  -20.1712   19.3697 O   0  0  0  0  0  0  0  0  0  0  0  0
    7.5143  -22.5664   24.5065 C   0  0  0  0  0  0  0  0  0  0  0  0
    6.4864  -22.7065   25.2073 O   0  0  0  0  0  0  0  0  0  0  0  0
    5.1802  -20.6817   19.7068 O   0  0  0  0  0  0  0  0  0  0  0  0
    8.7203  -22.0334   25.0293 N   0  0  0  0  0  0  0  0  0  0  0  0
    8.8435  -21.7246   26.4693 C   0  0  1  0  0  0  0  0  0  0  0  0
    8.4757  -22.9648   27.1749 C   0  0  0  0  0  0  0  0  0  0  0  0
    8.6705  -23.0421   28.6379 C   0  0  0  0  0  0  0  0  0  0  0  0
    8.4402  -24.3757   29.2419 C   0  0  0  0  0  0  0  0  0  0  0  0
    9.4108  -25.1547   29.4177 O   0  0  0  0  0  0  0  0  0  0  0  0
   10.1560  -21.1499   26.6932 C   0  0  0  0  0  0  0  0  0  0  0  0
   11.1497  -21.7070   26.0985 O   0  0  0  0  0  0  0  0  0  0  0  0
    7.1738  -24.7958   29.6236 O   0  0  0  0  0  0  0  0  0  0  0  0
   10.4684  -20.0236   27.5070 N   0  0  0  0  0  0  0  0  0  0  0  0
   11.8061  -19.5196   27.6577 C   0  0  0  0  0  0  0  0  0  0  0  0
   12.6057  -20.3123   28.6028 C   0  0  0  0  0  0  0  0  0  0  0  0
   12.1520  -21.4507   29.2504 O   0  0  0  0  0  0  0  0  0  0  0  0
   13.7811  -19.9409   28.8467 O   0  0  0  0  0  0  0  0  0  0  0  0
  2  1  1  1
  2  7  1  0
  3  4  1  0
  3  2  1  0
  5  6  2  0
  5  4  1  0
  7 10  1  0
  7  8  2  0
  9  5  1  0
 10 11  1  0
 11 16  1  0
 11 12  1  1
 13 12  1  0
 13 14  1  0
 14 15  2  0
 14 18  1  0
 16 17  2  0
 19 20  1  0
 19 16  1  0
 21 22  1  0
 21 20  1  0
 23 21  2  0
M  END
$$$$
