EEG.pdb
     RDKit          3D

 23 22  0  0  1  0  0  0  0  0999 V2000
   12.3763  -18.7182   22.4625 N   0  0  0  0  0  0  0  0  0  0  0  0
   11.2018  -19.4069   22.8761 C   0  0  1  0  0  0  0  0  0  0  0  0
   10.5044  -20.2443   21.8701 C   0  0  0  0  0  0  0  0  0  0  0  0
   11.2556  -20.6246   20.6466 C   0  0  0  0  0  0  0  0  0  0  0  0
   10.5575  -21.4821   19.6986 C   0  0  0  0  0  0  0  0  0  0  0  0
    9.6147  -21.0728   18.9974 O   0  0  0  0  0  0  0  0  0  0  0  0
   11.4625  -20.1883   24.1407 C   0  0  0  0  0  0  0  0  0  0  0  0
   10.4608  -20.7045   24.6861 O   0  0  0  0  0  0  0  0  0  0  0  0
   10.9072  -22.8274   19.5175 O   0  0  0  0  0  0  0  0  0  0  0  0
   12.7697  -20.3259   24.6735 N   0  0  0  0  0  0  0  0  0  0  0  0
   13.0199  -21.2077   25.8328 C   0  0  1  0  0  0  0  0  0  0  0  0
   14.3975  -21.7033   25.6655 C   0  0  0  0  0  0  0  0  0  0  0  0
   15.4800  -20.7345   25.3934 C   0  0  0  0  0  0  0  0  0  0  0  0
   16.8569  -21.2745   25.4871 C   0  0  0  0  0  0  0  0  0  0  0  0
   17.0308  -22.4956   25.7289 O   0  0  0  0  0  0  0  0  0  0  0  0
   12.6768  -20.4739   27.0357 C   0  0  0  0  0  0  0  0  0  0  0  0
   12.9126  -19.2107   27.0398 O   0  0  0  0  0  0  0  0  0  0  0  0
   17.9717  -20.4663   25.3142 O   0  0  0  0  0  0  0  0  0  0  0  0
   12.1002  -21.0042   28.2251 N   0  0  0  0  0  0  0  0  0  0  0  0
   11.7694  -20.1873   29.3607 C   0  0  0  0  0  0  0  0  0  0  0  0
   11.2054  -20.9663   30.4724 C   0  0  0  0  0  0  0  0  0  0  0  0
   10.8506  -20.4333   31.7017 O   0  0  0  0  0  0  0  0  0  0  0  0
   11.0291  -22.1994   30.3068 O   0  0  0  0  0  0  0  0  0  0  0  0
  2  1  1  6
  2  7  1  0
  3  4  1  0
  3  2  1  0
  5  6  2  0
  5  4  1  0
  7 10  1  0
  7  8  2  0
  9  5  1  0
 10 11  1  0
 11 16  1  0
 11 12  1  1
 13 12  1  0
 13 14  1  0
 14 15  2  0
 14 18  1  0
 16 17  2  0
 19 20  1  0
 19 16  1  0
 21 22  1  0
 21 20  1  0
 23 21  2  0
M  END
$$$$
