EEG.pdb
     RDKit          3D

 23 22  0  0  1  0  0  0  0  0999 V2000
   17.1448  -24.1937   28.4839 N   0  0  0  0  0  0  0  0  0  0  0  0
   17.4013  -23.2808   29.5448 C   0  0  1  0  0  0  0  0  0  0  0  0
   17.9013  -21.9313   29.1861 C   0  0  0  0  0  0  0  0  0  0  0  0
   18.2114  -21.6659   27.7581 C   0  0  0  0  0  0  0  0  0  0  0  0
   19.0402  -20.5006   27.4814 C   0  0  0  0  0  0  0  0  0  0  0  0
   18.5770  -19.3465   27.4411 O   0  0  0  0  0  0  0  0  0  0  0  0
   16.2082  -23.1869   30.4641 C   0  0  0  0  0  0  0  0  0  0  0  0
   15.1743  -23.7846   30.0882 O   0  0  0  0  0  0  0  0  0  0  0  0
   20.4172  -20.6090   27.2425 O   0  0  0  0  0  0  0  0  0  0  0  0
   16.2632  -22.4622   31.6821 N   0  0  0  0  0  0  0  0  0  0  0  0
   15.0780  -22.3783   32.5609 C   0  0  1  0  0  0  0  0  0  0  0  0
   15.6043  -22.3541   33.9371 C   0  0  0  0  0  0  0  0  0  0  0  0
   16.2971  -23.5499   34.4610 C   0  0  0  0  0  0  0  0  0  0  0  0
   16.7887  -23.4420   35.8549 C   0  0  0  0  0  0  0  0  0  0  0  0
   17.6004  -22.5320   36.1594 O   0  0  0  0  0  0  0  0  0  0  0  0
   14.2573  -21.2745   32.1015 C   0  0  0  0  0  0  0  0  0  0  0  0
   13.1545  -21.0633   32.7265 O   0  0  0  0  0  0  0  0  0  0  0  0
   16.3767  -24.3231   36.8449 O   0  0  0  0  0  0  0  0  0  0  0  0
   14.5422  -20.3885   31.0234 N   0  0  0  0  0  0  0  0  0  0  0  0
   13.7160  -19.2550   30.7087 C   0  0  0  0  0  0  0  0  0  0  0  0
   12.7362  -19.5456   29.6521 C   0  0  0  0  0  0  0  0  0  0  0  0
   11.9079  -18.5988   29.0699 O   0  0  0  0  0  0  0  0  0  0  0  0
   12.6350  -20.7292   29.2424 O   0  0  0  0  0  0  0  0  0  0  0  0
  2  1  1  6
  2  7  1  0
  3  4  1  0
  3  2  1  0
  5  6  2  0
  5  4  1  0
  7 10  1  0
  7  8  2  0
  9  5  1  0
 10 11  1  0
 11 16  1  0
 11 12  1  1
 13 12  1  0
 13 14  1  0
 14 15  2  0
 14 18  1  0
 16 17  2  0
 19 20  1  0
 19 16  1  0
 21 22  1  0
 21 20  1  0
 23 21  2  0
M  END
$$$$
