EEG.pdb
     RDKit          3D

 23 22  0  0  1  0  0  0  0  0999 V2000
   11.1683  -13.9713   18.5637 N   0  0  0  0  0  0  0  0  0  0  0  0
   12.3360  -14.7776   18.6686 C   0  0  1  0  0  0  0  0  0  0  0  0
   13.6454  -14.1296   18.4128 C   0  0  0  0  0  0  0  0  0  0  0  0
   14.8668  -14.9651   18.5396 C   0  0  0  0  0  0  0  0  0  0  0  0
   16.1415  -14.2676   18.4395 C   0  0  0  0  0  0  0  0  0  0  0  0
   16.8421  -14.0115   19.4354 O   0  0  0  0  0  0  0  0  0  0  0  0
   12.3504  -15.5224   19.9811 C   0  0  0  0  0  0  0  0  0  0  0  0
   12.3522  -14.8168   21.0153 O   0  0  0  0  0  0  0  0  0  0  0  0
   16.6592  -13.8404   17.2090 O   0  0  0  0  0  0  0  0  0  0  0  0
   12.3606  -16.9398   20.0316 N   0  0  0  0  0  0  0  0  0  0  0  0
   12.3992  -17.6454   21.3296 C   0  0  1  0  0  0  0  0  0  0  0  0
   11.8127  -18.9735   21.0779 C   0  0  0  0  0  0  0  0  0  0  0  0
   10.3504  -19.0888   20.8961 C   0  0  0  0  0  0  0  0  0  0  0  0
    9.8349  -20.4692   20.7371 C   0  0  0  0  0  0  0  0  0  0  0  0
    8.6045  -20.6572   20.5624 O   0  0  0  0  0  0  0  0  0  0  0  0
   13.7517  -17.5594   21.8458 C   0  0  0  0  0  0  0  0  0  0  0  0
   14.7113  -17.7403   21.0105 O   0  0  0  0  0  0  0  0  0  0  0  0
   10.6765  -21.5720   20.7752 O   0  0  0  0  0  0  0  0  0  0  0  0
   14.1379  -17.2925   23.1905 N   0  0  0  0  0  0  0  0  0  0  0  0
   15.5084  -17.1127   23.5853 C   0  0  0  0  0  0  0  0  0  0  0  0
   15.6572  -16.9069   25.0332 C   0  0  0  0  0  0  0  0  0  0  0  0
   14.5990  -16.7644   25.9170 O   0  0  0  0  0  0  0  0  0  0  0  0
   16.8180  -16.8551   25.5115 O   0  0  0  0  0  0  0  0  0  0  0  0
  2  1  1  1
  2  7  1  0
  3  4  1  0
  3  2  1  0
  5  6  2  0
  5  4  1  0
  7 10  1  0
  7  8  2  0
  9  5  1  0
 10 11  1  0
 11 16  1  0
 11 12  1  6
 13 12  1  0
 13 14  1  0
 14 15  2  0
 14 18  1  0
 16 17  2  0
 19 20  1  0
 19 16  1  0
 21 22  1  0
 21 20  1  0
 23 21  2  0
M  END
$$$$
