EEG.pdb
     RDKit          3D

 23 22  0  0  1  0  0  0  0  0999 V2000
    4.3088  -22.1589   23.2498 N   0  0  0  0  0  0  0  0  0  0  0  0
    5.5456  -22.7048   23.6935 C   0  0  1  0  0  0  0  0  0  0  0  0
    6.7136  -22.5903   22.7867 C   0  0  0  0  0  0  0  0  0  0  0  0
    6.8215  -21.3685   21.9492 C   0  0  0  0  0  0  0  0  0  0  0  0
    7.9608  -21.3025   21.0441 C   0  0  0  0  0  0  0  0  0  0  0  0
    8.1675  -20.3257   20.3017 O   0  0  0  0  0  0  0  0  0  0  0  0
    5.8838  -22.1989   25.0746 C   0  0  0  0  0  0  0  0  0  0  0  0
    5.4104  -21.0819   25.3837 O   0  0  0  0  0  0  0  0  0  0  0  0
    8.8983  -22.3406   20.9541 O   0  0  0  0  0  0  0  0  0  0  0  0
    6.6912  -22.9517   25.9652 N   0  0  0  0  0  0  0  0  0  0  0  0
    6.9525  -22.4657   27.3361 C   0  0  1  0  0  0  0  0  0  0  0  0
    6.5387  -23.5602   28.2318 C   0  0  0  0  0  0  0  0  0  0  0  0
    6.8243  -23.4503   29.6777 C   0  0  0  0  0  0  0  0  0  0  0  0
    6.5167  -24.6567   30.4816 C   0  0  0  0  0  0  0  0  0  0  0  0
    5.3236  -25.0307   30.6102 O   0  0  0  0  0  0  0  0  0  0  0  0
    8.3221  -21.9918   27.3897 C   0  0  0  0  0  0  0  0  0  0  0  0
    9.2040  -22.6725   26.7493 O   0  0  0  0  0  0  0  0  0  0  0  0
    7.5145  -25.3943   31.1030 O   0  0  0  0  0  0  0  0  0  0  0  0
    8.8024  -20.8423   28.0799 N   0  0  0  0  0  0  0  0  0  0  0  0
   10.1842  -20.4466   28.0649 C   0  0  0  0  0  0  0  0  0  0  0  0
   10.9238  -20.9311   29.2393 C   0  0  0  0  0  0  0  0  0  0  0  0
   12.2450  -20.6174   29.5173 O   0  0  0  0  0  0  0  0  0  0  0  0
   10.3267  -21.6808   30.0520 O   0  0  0  0  0  0  0  0  0  0  0  0
  2  1  1  6
  2  7  1  0
  3  4  1  0
  3  2  1  0
  5  6  2  0
  5  4  1  0
  7 10  1  0
  7  8  2  0
  9  5  1  0
 10 11  1  0
 11 16  1  0
 11 12  1  1
 13 12  1  0
 13 14  1  0
 14 15  2  0
 14 18  1  0
 16 17  2  0
 19 20  1  0
 19 16  1  0
 21 22  1  0
 21 20  1  0
 23 21  2  0
M  END
$$$$
