EEG.pdb
     RDKit          3D

 23 22  0  0  1  0  0  0  0  0999 V2000
   14.4316  -19.2788   20.6879 N   0  0  0  0  0  0  0  0  0  0  0  0
   14.6724  -17.9898   20.1354 C   0  0  1  0  0  0  0  0  0  0  0  0
   15.4701  -17.9138   18.8873 C   0  0  0  0  0  0  0  0  0  0  0  0
   15.5064  -19.1158   18.0157 C   0  0  0  0  0  0  0  0  0  0  0  0
   16.7858  -19.4248   17.3919 C   0  0  0  0  0  0  0  0  0  0  0  0
   17.8066  -18.7412   17.5889 O   0  0  0  0  0  0  0  0  0  0  0  0
   13.3804  -17.2221   19.9970 C   0  0  0  0  0  0  0  0  0  0  0  0
   13.4892  -16.0035   19.7313 O   0  0  0  0  0  0  0  0  0  0  0  0
   16.9457  -20.5165   16.5274 O   0  0  0  0  0  0  0  0  0  0  0  0
   12.1202  -17.8521   20.1595 N   0  0  0  0  0  0  0  0  0  0  0  0
   10.8691  -17.0787   20.0150 C   0  0  1  0  0  0  0  0  0  0  0  0
    9.9466  -17.9509   19.2669 C   0  0  0  0  0  0  0  0  0  0  0  0
    9.9935  -17.9449   17.7897 C   0  0  0  0  0  0  0  0  0  0  0  0
    9.0910  -18.9106   17.1195 C   0  0  0  0  0  0  0  0  0  0  0  0
    7.9906  -18.5160   16.6576 O   0  0  0  0  0  0  0  0  0  0  0  0
   10.4806  -16.6060   21.3298 C   0  0  0  0  0  0  0  0  0  0  0  0
    9.3369  -16.0290   21.4317 O   0  0  0  0  0  0  0  0  0  0  0  0
    9.4259  -20.2505   16.9842 O   0  0  0  0  0  0  0  0  0  0  0  0
   11.2341  -16.7129   22.5336 N   0  0  0  0  0  0  0  0  0  0  0  0
   10.7120  -16.3250   23.8155 C   0  0  0  0  0  0  0  0  0  0  0  0
   11.6800  -16.5236   24.9038 C   0  0  0  0  0  0  0  0  0  0  0  0
   12.9319  -17.0968   24.7439 O   0  0  0  0  0  0  0  0  0  0  0  0
   11.3603  -16.1520   26.0608 O   0  0  0  0  0  0  0  0  0  0  0  0
  2  1  1  6
  2  7  1  0
  3  4  1  0
  3  2  1  0
  5  6  2  0
  5  4  1  0
  7 10  1  0
  7  8  2  0
  9  5  1  0
 10 11  1  0
 11 16  1  0
 11 12  1  1
 13 12  1  0
 13 14  1  0
 14 15  2  0
 14 18  1  0
 16 17  2  0
 19 20  1  0
 19 16  1  0
 21 22  1  0
 21 20  1  0
 23 21  2  0
M  END
$$$$
