EEG.pdb
     RDKit          3D

 23 22  0  0  1  0  0  0  0  0999 V2000
   15.7322  -16.8506   23.5470 N   0  0  0  0  0  0  0  0  0  0  0  0
   14.8924  -15.7132   23.3863 C   0  0  1  0  0  0  0  0  0  0  0  0
   14.9613  -14.9830   22.0972 C   0  0  0  0  0  0  0  0  0  0  0  0
   15.9357  -15.4608   21.0833 C   0  0  0  0  0  0  0  0  0  0  0  0
   16.0757  -14.6447   19.8850 C   0  0  0  0  0  0  0  0  0  0  0  0
   16.9097  -14.8998   18.9976 O   0  0  0  0  0  0  0  0  0  0  0  0
   13.4646  -16.0541   23.7371 C   0  0  0  0  0  0  0  0  0  0  0  0
   12.6538  -15.1002   23.7354 O   0  0  0  0  0  0  0  0  0  0  0  0
   15.2752  -13.5168   19.6574 O   0  0  0  0  0  0  0  0  0  0  0  0
   13.0721  -17.3809   24.0488 N   0  0  0  0  0  0  0  0  0  0  0  0
   11.6599  -17.6958   24.3501 C   0  0  1  0  0  0  0  0  0  0  0  0
   11.1974  -18.5492   23.2414 C   0  0  0  0  0  0  0  0  0  0  0  0
   11.1664  -17.9923   21.8727 C   0  0  0  0  0  0  0  0  0  0  0  0
   10.8381  -18.9592   20.7986 C   0  0  0  0  0  0  0  0  0  0  0  0
   10.5992  -20.1577   21.0925 O   0  0  0  0  0  0  0  0  0  0  0  0
   11.5945  -18.2061   25.7060 C   0  0  0  0  0  0  0  0  0  0  0  0
   10.4275  -18.4509   26.1852 O   0  0  0  0  0  0  0  0  0  0  0  0
   10.7854  -18.5792   19.4650 O   0  0  0  0  0  0  0  0  0  0  0  0
   12.6925  -18.4700   26.5738 N   0  0  0  0  0  0  0  0  0  0  0  0
   12.5290  -19.0314   27.8870 C   0  0  0  0  0  0  0  0  0  0  0  0
   13.8112  -19.2520   28.5712 C   0  0  0  0  0  0  0  0  0  0  0  0
   13.9391  -19.7995   29.8382 O   0  0  0  0  0  0  0  0  0  0  0  0
   14.8684  -18.9254   27.9756 O   0  0  0  0  0  0  0  0  0  0  0  0
  2  1  1  6
  2  7  1  0
  3  4  1  0
  3  2  1  0
  5  6  2  0
  5  4  1  0
  7 10  1  0
  7  8  2  0
  9  5  1  0
 10 11  1  0
 11 16  1  0
 11 12  1  6
 13 12  1  0
 13 14  1  0
 14 15  2  0
 14 18  1  0
 16 17  2  0
 19 20  1  0
 19 16  1  0
 21 22  1  0
 21 20  1  0
 23 21  2  0
M  END
$$$$
