EEG.pdb
     RDKit          3D

 23 22  0  0  1  0  0  0  0  0999 V2000
    6.3350  -19.7457   20.4925 N   0  0  0  0  0  0  0  0  0  0  0  0
    7.3745  -19.9756   21.4366 C   0  0  1  0  0  0  0  0  0  0  0  0
    8.7741  -19.8171   20.9719 C   0  0  0  0  0  0  0  0  0  0  0  0
    9.0827  -18.6638   20.0885 C   0  0  0  0  0  0  0  0  0  0  0  0
   10.4672  -18.5321   19.6558 C   0  0  0  0  0  0  0  0  0  0  0  0
   11.3650  -19.2989   20.0486 O   0  0  0  0  0  0  0  0  0  0  0  0
    7.1317  -19.1817   22.6970 C   0  0  0  0  0  0  0  0  0  0  0  0
    6.4868  -18.1171   22.5621 O   0  0  0  0  0  0  0  0  0  0  0  0
   10.8746  -17.5286   18.7659 O   0  0  0  0  0  0  0  0  0  0  0  0
    7.6092  -19.6233   23.9574 N   0  0  0  0  0  0  0  0  0  0  0  0
    7.2772  -18.8783   25.1898 C   0  0  1  0  0  0  0  0  0  0  0  0
    7.3554  -19.8632   26.2831 C   0  0  0  0  0  0  0  0  0  0  0  0
    7.2149  -19.3978   27.6789 C   0  0  0  0  0  0  0  0  0  0  0  0
    7.3438  -20.4479   28.7168 C   0  0  0  0  0  0  0  0  0  0  0  0
    8.4173  -20.5567   29.3613 O   0  0  0  0  0  0  0  0  0  0  0  0
    8.1211  -17.7001   25.2419 C   0  0  0  0  0  0  0  0  0  0  0  0
    9.3249  -17.8210   24.8088 O   0  0  0  0  0  0  0  0  0  0  0  0
    6.3058  -21.3235   29.0026 O   0  0  0  0  0  0  0  0  0  0  0  0
    7.7588  -16.4099   25.7240 N   0  0  0  0  0  0  0  0  0  0  0  0
    8.6479  -15.2816   25.6710 C   0  0  0  0  0  0  0  0  0  0  0  0
    9.6091  -15.2666   26.7831 C   0  0  0  0  0  0  0  0  0  0  0  0
   10.4859  -14.2259   27.0467 O   0  0  0  0  0  0  0  0  0  0  0  0
    9.6460  -16.2595   27.5523 O   0  0  0  0  0  0  0  0  0  0  0  0
  2  1  1  6
  2  7  1  0
  3  4  1  0
  3  2  1  0
  5  6  2  0
  5  4  1  0
  7 10  1  0
  7  8  2  0
  9  5  1  0
 10 11  1  0
 11 16  1  0
 11 12  1  1
 13 12  1  0
 13 14  1  0
 14 15  2  0
 14 18  1  0
 16 17  2  0
 19 20  1  0
 19 16  1  0
 21 22  1  0
 21 20  1  0
 23 21  2  0
M  END
$$$$
