EEG.pdb
     RDKit          3D

 23 22  0  0  1  0  0  0  0  0999 V2000
   11.8263  -19.0054   18.9440 N   0  0  0  0  0  0  0  0  0  0  0  0
   11.5337  -17.7479   19.5421 C   0  0  1  0  0  0  0  0  0  0  0  0
   10.1682  -17.1990   19.3580 C   0  0  0  0  0  0  0  0  0  0  0  0
    9.0191  -18.1074   19.6032 C   0  0  0  0  0  0  0  0  0  0  0  0
    7.6921  -17.5176   19.4911 C   0  0  0  0  0  0  0  0  0  0  0  0
    7.5166  -16.3165   19.2177 O   0  0  0  0  0  0  0  0  0  0  0  0
   11.9213  -17.7511   21.0007 C   0  0  0  0  0  0  0  0  0  0  0  0
   11.7281  -18.8218   21.6200 O   0  0  0  0  0  0  0  0  0  0  0  0
    6.5261  -18.2710   19.6851 O   0  0  0  0  0  0  0  0  0  0  0  0
   12.4727  -16.6036   21.6259 N   0  0  0  0  0  0  0  0  0  0  0  0
   12.9690  -16.6707   23.0163 C   0  0  1  0  0  0  0  0  0  0  0  0
   14.1877  -15.8428   23.0440 C   0  0  0  0  0  0  0  0  0  0  0  0
   15.5059  -16.5089   23.0989 C   0  0  0  0  0  0  0  0  0  0  0  0
   16.6752  -15.6021   23.1808 C   0  0  0  0  0  0  0  0  0  0  0  0
   17.2775  -15.4612   24.2750 O   0  0  0  0  0  0  0  0  0  0  0  0
   11.8698  -16.3352   23.9008 C   0  0  0  0  0  0  0  0  0  0  0  0
   12.0514  -16.5213   25.1592 O   0  0  0  0  0  0  0  0  0  0  0  0
   17.1311  -14.8964   22.0762 O   0  0  0  0  0  0  0  0  0  0  0  0
   10.5982  -15.8156   23.5247 N   0  0  0  0  0  0  0  0  0  0  0  0
    9.5987  -15.4338   24.4847 C   0  0  0  0  0  0  0  0  0  0  0  0
    8.4069  -14.8457   23.8566 C   0  0  0  0  0  0  0  0  0  0  0  0
    7.3172  -14.3498   24.5551 O   0  0  0  0  0  0  0  0  0  0  0  0
    8.3635  -14.7839   22.6023 O   0  0  0  0  0  0  0  0  0  0  0  0
  2  1  1  1
  2  7  1  0
  3  4  1  0
  3  2  1  0
  5  6  2  0
  5  4  1  0
  7 10  1  0
  7  8  2  0
  9  5  1  0
 10 11  1  0
 11 16  1  0
 11 12  1  6
 13 12  1  0
 13 14  1  0
 14 15  2  0
 14 18  1  0
 16 17  2  0
 19 20  1  0
 19 16  1  0
 21 22  1  0
 21 20  1  0
 23 21  2  0
M  END
$$$$
