EEG.pdb
     RDKit          3D

 23 22  0  0  1  0  0  0  0  0999 V2000
   12.1563  -19.7398   19.2068 N   0  0  0  0  0  0  0  0  0  0  0  0
   11.8329  -18.5706   19.9506 C   0  0  1  0  0  0  0  0  0  0  0  0
   10.3972  -18.2487   20.1374 C   0  0  0  0  0  0  0  0  0  0  0  0
    9.4704  -19.3701   20.4362 C   0  0  0  0  0  0  0  0  0  0  0  0
    8.0624  -19.0256   20.5797 C   0  0  0  0  0  0  0  0  0  0  0  0
    7.6538  -17.8516   20.5259 O   0  0  0  0  0  0  0  0  0  0  0  0
   12.5633  -18.5630   21.2713 C   0  0  0  0  0  0  0  0  0  0  0  0
   12.5905  -19.6496   21.8924 O   0  0  0  0  0  0  0  0  0  0  0  0
    7.0772  -20.0007   20.7880 O   0  0  0  0  0  0  0  0  0  0  0  0
   13.1812  -17.3888   21.7724 N   0  0  0  0  0  0  0  0  0  0  0  0
   13.8856  -17.4060   23.0715 C   0  0  1  0  0  0  0  0  0  0  0  0
   15.0096  -16.4642   22.9269 C   0  0  0  0  0  0  0  0  0  0  0  0
   15.8922  -16.2177   24.0865 C   0  0  0  0  0  0  0  0  0  0  0  0
   17.0003  -15.2618   23.8523 C   0  0  0  0  0  0  0  0  0  0  0  0
   16.8671  -14.3538   22.9934 O   0  0  0  0  0  0  0  0  0  0  0  0
   12.9052  -17.1773   24.1154 C   0  0  0  0  0  0  0  0  0  0  0  0
   12.1221  -16.1683   23.9741 O   0  0  0  0  0  0  0  0  0  0  0  0
   18.1924  -15.3383   24.5585 O   0  0  0  0  0  0  0  0  0  0  0  0
   12.7117  -17.9566   25.2917 N   0  0  0  0  0  0  0  0  0  0  0  0
   11.7294  -17.6295   26.2888 C   0  0  0  0  0  0  0  0  0  0  0  0
   11.7087  -18.5925   27.3993 C   0  0  0  0  0  0  0  0  0  0  0  0
   10.9409  -18.4511   28.5446 O   0  0  0  0  0  0  0  0  0  0  0  0
   12.4325  -19.6161   27.3139 O   0  0  0  0  0  0  0  0  0  0  0  0
  2  1  1  1
  2  7  1  0
  3  4  1  0
  3  2  1  0
  5  6  2  0
  5  4  1  0
  7 10  1  0
  7  8  2  0
  9  5  1  0
 10 11  1  0
 11 16  1  0
 11 12  1  6
 13 12  1  0
 13 14  1  0
 14 15  2  0
 14 18  1  0
 16 17  2  0
 19 20  1  0
 19 16  1  0
 21 22  1  0
 21 20  1  0
 23 21  2  0
M  END
$$$$
