LIM.pdb
     RDKit          3D

 25 24  0  0  1  0  0  0  0  0999 V2000
   18.9020  -22.6703  -15.2044 C   0  0  0  0  0  0  0  0  0  0  0  0
   19.2022  -22.1592  -13.8195 C   0  0  1  0  0  0  0  0  0  0  0  0
   19.2526  -23.3683  -12.8821 C   0  0  0  0  0  0  0  0  0  0  0  0
   20.5201  -21.4844  -13.7278 C   0  0  0  0  0  0  0  0  0  0  0  0
   20.9481  -21.0079  -12.3841 C   0  0  2  0  0  0  0  0  0  0  0  0
   20.0196  -20.0894  -11.7869 N   0  0  0  0  0  0  0  0  0  0  0  0
   22.3566  -20.5637  -12.3668 C   0  0  0  0  0  0  0  0  0  0  0  0
   22.6871  -19.4779  -12.9088 O   0  0  0  0  0  0  0  0  0  0  0  0
   25.5873  -20.7592   -8.0012 C   0  0  0  0  0  0  0  0  0  0  0  0
   24.9982  -20.4203   -9.3127 C   0  0  0  0  0  0  0  0  0  0  0  0
   25.4687  -21.0671  -10.5384 C   0  0  2  0  0  0  0  0  0  0  0  0
   27.0029  -20.7930  -10.6387 C   0  0  0  0  0  0  0  0  0  0  0  0
   24.8275  -20.8508  -11.8488 C   0  0  2  0  0  0  0  0  0  0  0  0
   23.4032  -21.3041  -11.7601 N   0  0  0  0  0  0  0  0  0  0  0  0
   25.4201  -21.4447  -13.0546 C   0  0  0  0  0  0  0  0  0  0  0  0
   25.7092  -22.6552  -13.1974 O   0  0  0  0  0  0  0  0  0  0  0  0
   25.1071  -18.8620  -19.0598 C   0  0  0  0  0  0  0  0  0  0  0  0
   25.6719  -20.5404  -19.4066 S   0  0  0  0  0  0  0  0  0  0  0  0
   26.3422  -21.2696  -17.8889 C   0  0  0  0  0  0  0  0  0  0  0  0
   25.6976  -20.6674  -16.6590 C   0  0  0  0  0  0  0  0  0  0  0  0
   26.3221  -21.2212  -15.3872 C   0  0  2  0  0  0  0  0  0  0  0  0
   25.7227  -20.6279  -14.2113 N   0  0  0  0  0  0  0  0  0  0  0  0
   27.7886  -21.0855  -15.3964 C   0  0  0  0  0  0  0  0  0  0  0  0
   28.5683  -22.0703  -15.9568 O   0  0  0  0  0  0  0  0  0  0  0  0
   28.3249  -20.0766  -14.8957 O   0  0  0  0  0  0  0  0  0  0  0  0
  2  4  1  0
  2  1  1  6
  2  3  1  0
  5  6  1  6
  5  4  1  0
  7  5  1  0
  8  7  2  0
  9 10  1  0
 10 11  1  0
 11 13  1  0
 11 12  1  6
 13 14  1  1
 14  7  1  0
 15 13  1  0
 15 16  2  0
 18 17  1  0
 19 20  1  0
 19 18  1  0
 21 20  1  6
 21 22  1  0
 22 15  1  0
 23 21  1  0
 24 23  1  0
 25 23  2  0
M  END
$$$$
