LIM.pdb
     RDKit          3D

 25 24  0  0  1  0  0  0  0  0999 V2000
   23.0553  -17.2725  -18.5011 C   0  0  0  0  0  0  0  0  0  0  0  0
   24.2314  -17.8196  -17.7352 C   0  0  1  0  0  0  0  0  0  0  0  0
   25.0070  -16.6284  -17.1674 C   0  0  0  0  0  0  0  0  0  0  0  0
   23.8270  -18.6624  -16.5833 C   0  0  0  0  0  0  0  0  0  0  0  0
   24.9155  -19.2571  -15.7604 C   0  0  2  0  0  0  0  0  0  0  0  0
   26.0715  -19.6231  -16.5300 N   0  0  0  0  0  0  0  0  0  0  0  0
   24.4210  -20.3077  -14.8476 C   0  0  0  0  0  0  0  0  0  0  0  0
   24.6017  -21.5223  -15.1198 O   0  0  0  0  0  0  0  0  0  0  0  0
   25.7626  -20.3743   -9.6253 C   0  0  0  0  0  0  0  0  0  0  0  0
   25.3016  -20.8323  -10.9518 C   0  0  0  0  0  0  0  0  0  0  0  0
   23.8935  -20.7265  -11.3366 C   0  0  2  0  0  0  0  0  0  0  0  0
   23.0614  -21.4359  -10.2216 C   0  0  0  0  0  0  0  0  0  0  0  0
   23.4006  -21.1240  -12.6685 C   0  0  2  0  0  0  0  0  0  0  0  0
   23.7291  -20.0333  -13.6404 N   0  0  0  0  0  0  0  0  0  0  0  0
   21.9860  -21.4791  -12.8437 C   0  0  0  0  0  0  0  0  0  0  0  0
   21.3978  -22.4170  -12.2574 O   0  0  0  0  0  0  0  0  0  0  0  0
   19.4901  -25.5497  -14.9877 C   0  0  0  0  0  0  0  0  0  0  0  0
   18.1026  -24.5413  -15.5485 S   0  0  0  0  0  0  0  0  0  0  0  0
   18.2207  -22.8953  -14.7995 C   0  0  0  0  0  0  0  0  0  0  0  0
   19.6593  -22.5267  -14.5073 C   0  0  0  0  0  0  0  0  0  0  0  0
   19.7597  -21.1161  -13.9466 C   0  0  2  0  0  0  0  0  0  0  0  0
   21.1405  -20.7306  -13.7501 N   0  0  0  0  0  0  0  0  0  0  0  0
   18.9551  -20.9574  -12.7232 C   0  0  0  0  0  0  0  0  0  0  0  0
   17.6221  -20.6303  -12.8126 O   0  0  0  0  0  0  0  0  0  0  0  0
   19.4825  -21.1198  -11.6044 O   0  0  0  0  0  0  0  0  0  0  0  0
  2  4  1  0
  2  1  1  1
  2  3  1  0
  5  6  1  6
  5  4  1  0
  7  5  1  0
  8  7  2  0
  9 10  1  0
 10 11  1  0
 11 13  1  0
 11 12  1  1
 13 14  1  6
 14  7  1  0
 15 13  1  0
 15 16  2  0
 18 17  1  0
 19 20  1  0
 19 18  1  0
 21 20  1  1
 21 22  1  0
 22 15  1  0
 23 21  1  0
 24 23  1  0
 25 23  2  0
M  END
$$$$
