LIM.pdb
     RDKit          3D

 25 24  0  0  1  0  0  0  0  0999 V2000
   23.8963  -18.4905  -20.4757 C   0  0  0  0  0  0  0  0  0  0  0  0
   24.5985  -18.4122  -19.1453 C   0  0  1  0  0  0  0  0  0  0  0  0
   24.1589  -17.1121  -18.4673 C   0  0  0  0  0  0  0  0  0  0  0  0
   24.2301  -19.5227  -18.2334 C   0  0  0  0  0  0  0  0  0  0  0  0
   24.7398  -19.4532  -16.8365 C   0  0  2  0  0  0  0  0  0  0  0  0
   26.1602  -19.2545  -16.7615 N   0  0  0  0  0  0  0  0  0  0  0  0
   24.2224  -20.5499  -15.9934 C   0  0  0  0  0  0  0  0  0  0  0  0
   24.2792  -21.7407  -16.3945 O   0  0  0  0  0  0  0  0  0  0  0  0
   26.1933  -21.5634  -11.3109 C   0  0  0  0  0  0  0  0  0  0  0  0
   25.4486  -21.6201  -12.5854 C   0  0  0  0  0  0  0  0  0  0  0  0
   23.9925  -21.4757  -12.6128 C   0  0  2  0  0  0  0  0  0  0  0  0
   23.4123  -22.5095  -11.5962 C   0  0  0  0  0  0  0  0  0  0  0  0
   23.2137  -21.5030  -13.8650 C   0  0  2  0  0  0  0  0  0  0  0  0
   23.6424  -20.3474  -14.7151 N   0  0  0  0  0  0  0  0  0  0  0  0
   21.7458  -21.5063  -13.8078 C   0  0  0  0  0  0  0  0  0  0  0  0
   21.0294  -20.5085  -13.5618 O   0  0  0  0  0  0  0  0  0  0  0  0
   17.9752  -24.0167   -9.8756 C   0  0  0  0  0  0  0  0  0  0  0  0
   16.9463  -22.8501  -10.7903 S   0  0  0  0  0  0  0  0  0  0  0  0
   17.5434  -22.7398  -12.4978 C   0  0  0  0  0  0  0  0  0  0  0  0
   19.0559  -22.7583  -12.5531 C   0  0  0  0  0  0  0  0  0  0  0  0
   19.5515  -22.7129  -13.9906 C   0  0  2  0  0  0  0  0  0  0  0  0
   20.9975  -22.7233  -14.0437 N   0  0  0  0  0  0  0  0  0  0  0  0
   18.9727  -21.5788  -14.7310 C   0  0  0  0  0  0  0  0  0  0  0  0
   19.5461  -20.3319  -14.6403 O   0  0  0  0  0  0  0  0  0  0  0  0
   17.9612  -21.7486  -15.4412 O   0  0  0  0  0  0  0  0  0  0  0  0
  2  4  1  0
  2  1  1  6
  2  3  1  0
  5  6  1  6
  5  4  1  0
  7  5  1  0
  8  7  2  0
  9 10  1  0
 10 11  1  0
 11 13  1  0
 11 12  1  1
 13 14  1  6
 14  7  1  0
 15 13  1  0
 15 16  2  0
 18 17  1  0
 19 20  1  0
 19 18  1  0
 21 20  1  1
 21 22  1  0
 22 15  1  0
 23 21  1  0
 24 23  1  0
 25 23  2  0
M  END
$$$$
