LIM.pdb
     RDKit          3D

 25 24  0  0  1  0  0  0  0  0999 V2000
   16.8193  -24.9376   -9.3382 C   0  0  0  0  0  0  0  0  0  0  0  0
   18.0419  -24.6693   -8.5000 C   0  0  1  0  0  0  0  0  0  0  0  0
   19.0280  -25.8147   -8.7423 C   0  0  0  0  0  0  0  0  0  0  0  0
   18.7350  -23.4133   -8.8780 C   0  0  0  0  0  0  0  0  0  0  0  0
   19.9897  -23.0829   -8.1485 C   0  0  2  0  0  0  0  0  0  0  0  0
   19.8058  -22.9690   -6.7288 N   0  0  0  0  0  0  0  0  0  0  0  0
   20.7235  -21.9618   -8.7699 C   0  0  0  0  0  0  0  0  0  0  0  0
   20.3501  -20.7757   -8.5810 O   0  0  0  0  0  0  0  0  0  0  0  0
   25.6625  -20.7870   -7.7467 C   0  0  0  0  0  0  0  0  0  0  0  0
   24.2727  -20.7186   -8.2426 C   0  0  0  0  0  0  0  0  0  0  0  0
   23.9650  -20.9560   -9.6536 C   0  0  2  0  0  0  0  0  0  0  0  0
   24.8536  -19.9773  -10.4852 C   0  0  0  0  0  0  0  0  0  0  0  0
   22.5864  -20.9597  -10.1776 C   0  0  2  0  0  0  0  0  0  0  0  0
   21.8621  -22.1349   -9.5976 N   0  0  0  0  0  0  0  0  0  0  0  0
   22.3607  -20.9570  -11.6292 C   0  0  0  0  0  0  0  0  0  0  0  0
   22.5992  -21.9153  -12.4000 O   0  0  0  0  0  0  0  0  0  0  0  0
   17.3198  -18.4614  -14.7242 C   0  0  0  0  0  0  0  0  0  0  0  0
   18.5655  -18.1222  -15.9849 S   0  0  0  0  0  0  0  0  0  0  0  0
   20.0926  -19.0041  -15.5667 C   0  0  0  0  0  0  0  0  0  0  0  0
   20.3418  -18.9933  -14.0738 C   0  0  0  0  0  0  0  0  0  0  0  0
   21.5769  -19.8076  -13.7194 C   0  0  2  0  0  0  0  0  0  0  0  0
   21.8220  -19.7885  -12.2934 N   0  0  0  0  0  0  0  0  0  0  0  0
   22.7533  -19.3789  -14.4950 C   0  0  0  0  0  0  0  0  0  0  0  0
   23.0540  -19.9943  -15.6878 O   0  0  0  0  0  0  0  0  0  0  0  0
   23.4782  -18.4567  -14.0703 O   0  0  0  0  0  0  0  0  0  0  0  0
  2  4  1  0
  2  1  1  6
  2  3  1  0
  5  6  1  1
  5  4  1  0
  7  5  1  0
  8  7  2  0
  9 10  1  0
 10 11  1  0
 11 13  1  0
 11 12  1  6
 13 14  1  6
 14  7  1  0
 15 13  1  0
 15 16  2  0
 18 17  1  0
 19 20  1  0
 19 18  1  0
 21 20  1  1
 21 22  1  0
 22 15  1  0
 23 21  1  0
 24 23  1  0
 25 23  2  0
M  END
$$$$
