LIM.pdb
     RDKit          3D

 25 24  0  0  1  0  0  0  0  0999 V2000
   19.5124  -17.9382  -16.7911 C   0  0  0  0  0  0  0  0  0  0  0  0
   20.9404  -17.6069  -17.1381 C   0  0  1  0  0  0  0  0  0  0  0  0
   21.2633  -16.2468  -16.5142 C   0  0  0  0  0  0  0  0  0  0  0  0
   21.9097  -18.5811  -16.5797 C   0  0  0  0  0  0  0  0  0  0  0  0
   23.3563  -18.2686  -16.7390 C   0  0  2  0  0  0  0  0  0  0  0  0
   23.6863  -17.7640  -18.0424 N   0  0  0  0  0  0  0  0  0  0  0  0
   24.2246  -19.3634  -16.2605 C   0  0  0  0  0  0  0  0  0  0  0  0
   24.3803  -20.4005  -16.9550 O   0  0  0  0  0  0  0  0  0  0  0  0
   29.1456  -18.0909  -15.2908 C   0  0  0  0  0  0  0  0  0  0  0  0
   27.9046  -18.8470  -15.5559 C   0  0  0  0  0  0  0  0  0  0  0  0
   27.2553  -19.6219  -14.4977 C   0  0  2  0  0  0  0  0  0  0  0  0
   28.3303  -20.5974  -13.9215 C   0  0  0  0  0  0  0  0  0  0  0  0
   25.9803  -20.3345  -14.7014 C   0  0  2  0  0  0  0  0  0  0  0  0
   24.9208  -19.3272  -15.0255 N   0  0  0  0  0  0  0  0  0  0  0  0
   25.4633  -21.2154  -13.6456 C   0  0  0  0  0  0  0  0  0  0  0  0
   26.0474  -22.2300  -13.1999 O   0  0  0  0  0  0  0  0  0  0  0  0
   26.4583  -18.7111   -8.7872 C   0  0  0  0  0  0  0  0  0  0  0  0
   25.9821  -20.3441   -8.1850 S   0  0  0  0  0  0  0  0  0  0  0  0
   24.7120  -21.0355   -9.2773 C   0  0  0  0  0  0  0  0  0  0  0  0
   24.9923  -20.7007  -10.7265 C   0  0  0  0  0  0  0  0  0  0  0  0
   23.9518  -21.3255  -11.6437 C   0  0  2  0  0  0  0  0  0  0  0  0
   24.1825  -20.9536  -13.0230 N   0  0  0  0  0  0  0  0  0  0  0  0
   22.5809  -21.0164  -11.2028 C   0  0  0  0  0  0  0  0  0  0  0  0
   22.0922  -21.5613  -10.0383 O   0  0  0  0  0  0  0  0  0  0  0  0
   21.8618  -20.2595  -11.8857 O   0  0  0  0  0  0  0  0  0  0  0  0
  2  4  1  0
  2  1  1  1
  2  3  1  0
  5  6  1  6
  5  4  1  0
  7  5  1  0
  8  7  2  0
  9 10  1  0
 10 11  1  0
 11 13  1  0
 11 12  1  6
 13 14  1  1
 14  7  1  0
 15 13  1  0
 15 16  2  0
 18 17  1  0
 19 20  1  0
 19 18  1  0
 21 20  1  1
 21 22  1  0
 22 15  1  0
 23 21  1  0
 24 23  1  0
 25 23  2  0
M  END
$$$$
