LIM.pdb
     RDKit          3D

 25 24  0  0  1  0  0  0  0  0999 V2000
   22.5570  -21.1586  -13.6007 C   0  0  0  0  0  0  0  0  0  0  0  0
   22.4590  -21.3750  -12.1132 C   0  0  1  0  0  0  0  0  0  0  0  0
   22.6320  -22.8734  -11.8524 C   0  0  0  0  0  0  0  0  0  0  0  0
   23.5283  -20.6772  -11.3580 C   0  0  0  0  0  0  0  0  0  0  0  0
   23.4978  -20.7908   -9.8741 C   0  0  2  0  0  0  0  0  0  0  0  0
   22.2300  -20.4292   -9.3046 N   0  0  0  0  0  0  0  0  0  0  0  0
   24.6676  -20.1531   -9.2367 C   0  0  0  0  0  0  0  0  0  0  0  0
   24.7929  -18.9016   -9.2466 O   0  0  0  0  0  0  0  0  0  0  0  0
   26.6160  -20.2590   -4.3788 C   0  0  0  0  0  0  0  0  0  0  0  0
   26.3673  -19.9579   -5.8034 C   0  0  0  0  0  0  0  0  0  0  0  0
   27.2929  -20.4138   -6.8413 C   0  0  2  0  0  0  0  0  0  0  0  0
   28.6976  -19.8298   -6.4882 C   0  0  0  0  0  0  0  0  0  0  0  0
   27.0200  -20.2449   -8.2808 C   0  0  2  0  0  0  0  0  0  0  0  0
   25.6999  -20.8800   -8.5907 N   0  0  0  0  0  0  0  0  0  0  0  0
   27.9981  -20.7234   -9.2669 C   0  0  0  0  0  0  0  0  0  0  0  0
   28.2659  -21.9257   -9.4953 O   0  0  0  0  0  0  0  0  0  0  0  0
   33.0787  -22.3665   -8.6797 C   0  0  0  0  0  0  0  0  0  0  0  0
   32.9596  -22.8194  -10.4223 S   0  0  0  0  0  0  0  0  0  0  0  0
   31.7988  -21.7013  -11.2511 C   0  0  0  0  0  0  0  0  0  0  0  0
   30.7104  -21.2402  -10.3058 C   0  0  0  0  0  0  0  0  0  0  0  0
   29.7631  -20.2691  -10.9940 C   0  0  2  0  0  0  0  0  0  0  0  0
   28.7519  -19.7894  -10.0768 N   0  0  0  0  0  0  0  0  0  0  0  0
   29.1801  -20.8500  -12.2154 C   0  0  0  0  0  0  0  0  0  0  0  0
   28.4896  -22.0380  -12.1520 O   0  0  0  0  0  0  0  0  0  0  0  0
   29.3121  -20.2645  -13.3091 O   0  0  0  0  0  0  0  0  0  0  0  0
  2  4  1  0
  2  1  1  6
  2  3  1  0
  5  6  1  1
  5  4  1  0
  7  5  1  0
  8  7  2  0
  9 10  1  0
 10 11  1  0
 11 13  1  0
 11 12  1  1
 13 14  1  6
 14  7  1  0
 15 13  1  0
 15 16  2  0
 18 17  1  0
 19 20  1  0
 19 18  1  0
 21 20  1  1
 21 22  1  0
 22 15  1  0
 23 21  1  0
 24 23  1  0
 25 23  2  0
M  END
$$$$
