LIM.pdb
     RDKit          3D

 25 24  0  0  1  0  0  0  0  0999 V2000
   29.2650  -18.2268  -18.3784 C   0  0  0  0  0  0  0  0  0  0  0  0
   28.6682  -19.3685  -17.5976 C   0  0  1  0  0  0  0  0  0  0  0  0
   29.6145  -20.5642  -17.7321 C   0  0  0  0  0  0  0  0  0  0  0  0
   28.5458  -19.0736  -16.1489 C   0  0  0  0  0  0  0  0  0  0  0  0
   27.9232  -20.1196  -15.2921 C   0  0  2  0  0  0  0  0  0  0  0  0
   27.6363  -21.3351  -16.0012 N   0  0  0  0  0  0  0  0  0  0  0  0
   26.8030  -19.5936  -14.4860 C   0  0  0  0  0  0  0  0  0  0  0  0
   26.5899  -18.3554  -14.4262 O   0  0  0  0  0  0  0  0  0  0  0  0
   22.0285  -20.5777  -15.9316 C   0  0  0  0  0  0  0  0  0  0  0  0
   23.1851  -19.9922  -15.2233 C   0  0  0  0  0  0  0  0  0  0  0  0
   23.5087  -20.3915  -13.8530 C   0  0  2  0  0  0  0  0  0  0  0  0
   22.2115  -20.2022  -13.0042 C   0  0  0  0  0  0  0  0  0  0  0  0
   24.6748  -19.8594  -13.1236 C   0  0  2  0  0  0  0  0  0  0  0  0
   25.9177  -20.4173  -13.7451 N   0  0  0  0  0  0  0  0  0  0  0  0
   24.7697  -20.0462  -11.6695 C   0  0  0  0  0  0  0  0  0  0  0  0
   24.0404  -19.4854  -10.8193 O   0  0  0  0  0  0  0  0  0  0  0  0
   29.4685  -19.3546   -7.3514 C   0  0  0  0  0  0  0  0  0  0  0  0
   27.8110  -19.1681   -6.6627 S   0  0  0  0  0  0  0  0  0  0  0  0
   26.6903  -20.3328   -7.4824 C   0  0  0  0  0  0  0  0  0  0  0  0
   26.7396  -20.1761   -8.9870 C   0  0  0  0  0  0  0  0  0  0  0  0
   25.8027  -21.1605   -9.6707 C   0  0  2  0  0  0  0  0  0  0  0  0
   25.7612  -20.9340  -11.0993 N   0  0  0  0  0  0  0  0  0  0  0  0
   24.4611  -21.1477   -9.0631 C   0  0  0  0  0  0  0  0  0  0  0  0
   24.2689  -21.6721   -7.8061 O   0  0  0  0  0  0  0  0  0  0  0  0
   23.4977  -20.6610   -9.6885 O   0  0  0  0  0  0  0  0  0  0  0  0
  2  4  1  0
  2  1  1  6
  2  3  1  0
  5  6  1  6
  5  4  1  0
  7  5  1  0
  8  7  2  0
  9 10  1  0
 10 11  1  0
 11 13  1  0
 11 12  1  1
 13 14  1  6
 14  7  1  0
 15 13  1  0
 15 16  2  0
 18 17  1  0
 19 20  1  0
 19 18  1  0
 21 20  1  1
 21 22  1  0
 22 15  1  0
 23 21  1  0
 24 23  1  0
 25 23  2  0
M  END
$$$$
