LIM.pdb
     RDKit          3D

 25 24  0  0  1  0  0  0  0  0999 V2000
   12.5911  -20.8920   -7.1369 C   0  0  0  0  0  0  0  0  0  0  0  0
   13.4602  -21.6417   -8.1125 C   0  0  1  0  0  0  0  0  0  0  0  0
   14.6972  -20.7820   -8.3839 C   0  0  0  0  0  0  0  0  0  0  0  0
   13.9424  -22.9380   -7.5761 C   0  0  0  0  0  0  0  0  0  0  0  0
   14.8233  -23.7530   -8.4567 C   0  0  2  0  0  0  0  0  0  0  0  0
   14.2652  -23.9818   -9.7601 N   0  0  0  0  0  0  0  0  0  0  0  0
   15.3318  -24.9631   -7.7795 C   0  0  0  0  0  0  0  0  0  0  0  0
   14.5407  -25.8784   -7.4355 O   0  0  0  0  0  0  0  0  0  0  0  0
   19.0426  -27.6466  -10.1739 C   0  0  0  0  0  0  0  0  0  0  0  0
   17.9465  -27.2782   -9.2547 C   0  0  0  0  0  0  0  0  0  0  0  0
   18.2073  -27.0218   -7.8376 C   0  0  2  0  0  0  0  0  0  0  0  0
   18.8190  -28.3297   -7.2424 C   0  0  0  0  0  0  0  0  0  0  0  0
   17.1831  -26.4794   -6.9255 C   0  0  2  0  0  0  0  0  0  0  0  0
   16.7013  -25.1733   -7.4768 N   0  0  0  0  0  0  0  0  0  0  0  0
   17.5050  -26.2833   -5.5056 C   0  0  0  0  0  0  0  0  0  0  0  0
   17.9654  -25.2303   -5.0072 O   0  0  0  0  0  0  0  0  0  0  0  0
   15.1063  -23.3457   -2.1890 C   0  0  0  0  0  0  0  0  0  0  0  0
   15.5215  -24.3102   -0.7215 S   0  0  0  0  0  0  0  0  0  0  0  0
   16.5263  -25.7371   -1.2104 C   0  0  0  0  0  0  0  0  0  0  0  0
   16.4669  -25.9643   -2.7056 C   0  0  0  0  0  0  0  0  0  0  0  0
   17.4090  -27.0818   -3.1271 C   0  0  2  0  0  0  0  0  0  0  0  0
   17.3006  -27.3476   -4.5454 N   0  0  0  0  0  0  0  0  0  0  0  0
   17.2141  -28.2945   -2.3142 C   0  0  0  0  0  0  0  0  0  0  0  0
   17.8829  -28.4391   -1.1210 O   0  0  0  0  0  0  0  0  0  0  0  0
   16.4418  -29.1917   -2.7077 O   0  0  0  0  0  0  0  0  0  0  0  0
  2  4  1  0
  2  1  1  1
  2  3  1  0
  5  6  1  6
  5  4  1  0
  7  5  1  0
  8  7  2  0
  9 10  1  0
 10 11  1  0
 11 13  1  0
 11 12  1  1
 13 14  1  6
 14  7  1  0
 15 13  1  0
 15 16  2  0
 18 17  1  0
 19 20  1  0
 19 18  1  0
 21 20  1  1
 21 22  1  0
 22 15  1  0
 23 21  1  0
 24 23  1  0
 25 23  2  0
M  END
$$$$
