LIM.pdb
     RDKit          3D

 25 24  0  0  1  0  0  0  0  0999 V2000
   29.5513  -20.5222  -17.9067 C   0  0  0  0  0  0  0  0  0  0  0  0
   28.8190  -19.5761  -16.9914 C   0  0  1  0  0  0  0  0  0  0  0  0
   27.9257  -18.6896  -17.8627 C   0  0  0  0  0  0  0  0  0  0  0  0
   27.9308  -20.2758  -16.0310 C   0  0  0  0  0  0  0  0  0  0  0  0
   27.1082  -19.4289  -15.1243 C   0  0  2  0  0  0  0  0  0  0  0  0
   27.8597  -18.3813  -14.4917 N   0  0  0  0  0  0  0  0  0  0  0  0
   26.2727  -20.2317  -14.2085 C   0  0  0  0  0  0  0  0  0  0  0  0
   25.7987  -21.3348  -14.5834 O   0  0  0  0  0  0  0  0  0  0  0  0
   27.2005  -20.4708   -8.7981 C   0  0  0  0  0  0  0  0  0  0  0  0
   26.7285  -20.8871  -10.1345 C   0  0  0  0  0  0  0  0  0  0  0  0
   25.4120  -20.4801  -10.6277 C   0  0  2  0  0  0  0  0  0  0  0  0
   24.3501  -21.1436   -9.6944 C   0  0  0  0  0  0  0  0  0  0  0  0
   25.0106  -20.6279  -12.0391 C   0  0  2  0  0  0  0  0  0  0  0  0
   25.9536  -19.8307  -12.8861 N   0  0  0  0  0  0  0  0  0  0  0  0
   23.6393  -20.2907  -12.4438 C   0  0  0  0  0  0  0  0  0  0  0  0
   23.1582  -19.1344  -12.4752 O   0  0  0  0  0  0  0  0  0  0  0  0
   20.5309  -21.9337  -17.5307 C   0  0  0  0  0  0  0  0  0  0  0  0
   19.0512  -21.8308  -16.5030 S   0  0  0  0  0  0  0  0  0  0  0  0
   19.5078  -21.2172  -14.8600 C   0  0  0  0  0  0  0  0  0  0  0  0
   20.9733  -21.4608  -14.5704 C   0  0  0  0  0  0  0  0  0  0  0  0
   21.3401  -20.9901  -13.1711 C   0  0  2  0  0  0  0  0  0  0  0  0
   22.7113  -21.3246  -12.8516 N   0  0  0  0  0  0  0  0  0  0  0  0
   20.3922  -21.4916  -12.1615 C   0  0  0  0  0  0  0  0  0  0  0  0
   19.1553  -20.9055  -12.0264 O   0  0  0  0  0  0  0  0  0  0  0  0
   20.7109  -22.4490  -11.4279 O   0  0  0  0  0  0  0  0  0  0  0  0
  2  4  1  0
  2  1  1  6
  2  3  1  0
  5  6  1  1
  5  4  1  0
  7  5  1  0
  8  7  2  0
  9 10  1  0
 10 11  1  0
 11 13  1  0
 11 12  1  1
 13 14  1  6
 14  7  1  0
 15 13  1  0
 15 16  2  0
 18 17  1  0
 19 20  1  0
 19 18  1  0
 21 20  1  6
 21 22  1  0
 22 15  1  0
 23 21  1  0
 24 23  1  0
 25 23  2  0
M  END
$$$$
