LIM.pdb
     RDKit          3D

 25 24  0  0  1  0  0  0  0  0999 V2000
   20.6774  -20.2713  -13.6823 C   0  0  0  0  0  0  0  0  0  0  0  0
   22.0345  -19.6178  -13.7047 C   0  0  1  0  0  0  0  0  0  0  0  0
   21.8276  -18.1168  -13.4871 C   0  0  0  0  0  0  0  0  0  0  0  0
   22.9217  -20.0954  -12.6159 C   0  0  0  0  0  0  0  0  0  0  0  0
   24.2840  -19.5006  -12.5385 C   0  0  2  0  0  0  0  0  0  0  0  0
   24.8848  -19.2926  -13.8262 N   0  0  0  0  0  0  0  0  0  0  0  0
   25.1451  -20.1920  -11.5577 C   0  0  0  0  0  0  0  0  0  0  0  0
   25.6516  -21.3098  -11.8335 O   0  0  0  0  0  0  0  0  0  0  0  0
   27.7481  -17.1780   -7.5962 C   0  0  0  0  0  0  0  0  0  0  0  0
   27.5067  -18.2073   -8.6278 C   0  0  0  0  0  0  0  0  0  0  0  0
   26.8145  -19.4542   -8.2989 C   0  0  2  0  0  0  0  0  0  0  0  0
   27.6924  -20.1985   -7.2433 C   0  0  0  0  0  0  0  0  0  0  0  0
   26.3474  -20.4006   -9.3290 C   0  0  2  0  0  0  0  0  0  0  0  0
   25.4517  -19.6652  -10.2771 N   0  0  0  0  0  0  0  0  0  0  0  0
   25.6650  -21.6368   -8.9242 C   0  0  0  0  0  0  0  0  0  0  0  0
   26.1696  -22.7832   -8.9497 O   0  0  0  0  0  0  0  0  0  0  0  0
   25.9840  -19.5810   -3.9776 C   0  0  0  0  0  0  0  0  0  0  0  0
   25.3860  -21.1775   -3.3862 S   0  0  0  0  0  0  0  0  0  0  0  0
   24.3895  -21.9586   -4.6829 C   0  0  0  0  0  0  0  0  0  0  0  0
   24.8344  -21.5149   -6.0599 C   0  0  0  0  0  0  0  0  0  0  0  0
   23.9688  -22.1408   -7.1428 C   0  0  2  0  0  0  0  0  0  0  0  0
   24.2983  -21.6069   -8.4468 N   0  0  0  0  0  0  0  0  0  0  0  0
   22.5342  -22.0161   -6.8336 C   0  0  0  0  0  0  0  0  0  0  0  0
   21.9503  -22.8613   -5.9188 O   0  0  0  0  0  0  0  0  0  0  0  0
   21.8472  -21.1432   -7.4014 O   0  0  0  0  0  0  0  0  0  0  0  0
  2  4  1  0
  2  1  1  1
  2  3  1  0
  5  6  1  6
  5  4  1  0
  7  5  1  0
  8  7  2  0
  9 10  1  0
 10 11  1  0
 11 13  1  0
 11 12  1  1
 13 14  1  6
 14  7  1  0
 15 13  1  0
 15 16  2  0
 18 17  1  0
 19 20  1  0
 19 18  1  0
 21 20  1  1
 21 22  1  0
 22 15  1  0
 23 21  1  0
 24 23  1  0
 25 23  2  0
M  END
$$$$
