LIM.pdb
     RDKit          3D

 25 24  0  0  1  0  0  0  0  0999 V2000
   19.3949  -19.8974  -15.2246 C   0  0  0  0  0  0  0  0  0  0  0  0
   20.6712  -19.3751  -15.8309 C   0  0  1  0  0  0  0  0  0  0  0  0
   20.8247  -17.9153  -15.3968 C   0  0  0  0  0  0  0  0  0  0  0  0
   21.8745  -20.0986  -15.3519 C   0  0  0  0  0  0  0  0  0  0  0  0
   23.2001  -19.5600  -15.7623 C   0  0  2  0  0  0  0  0  0  0  0  0
   23.3668  -19.4915  -17.1870 N   0  0  0  0  0  0  0  0  0  0  0  0
   24.3165  -20.2006  -15.0381 C   0  0  0  0  0  0  0  0  0  0  0  0
   24.5590  -21.4243  -15.1987 O   0  0  0  0  0  0  0  0  0  0  0  0
   29.2361  -18.8508  -15.6120 C   0  0  0  0  0  0  0  0  0  0  0  0
   27.9549  -19.4843  -15.2386 C   0  0  0  0  0  0  0  0  0  0  0  0
   27.5566  -19.6058  -13.8356 C   0  0  2  0  0  0  0  0  0  0  0  0
   28.7422  -20.2881  -13.0822 C   0  0  0  0  0  0  0  0  0  0  0  0
   26.2767  -20.2104  -13.4214 C   0  0  2  0  0  0  0  0  0  0  0  0
   25.1662  -19.5073  -14.1387 N   0  0  0  0  0  0  0  0  0  0  0  0
   25.9301  -20.2722  -11.9952 C   0  0  0  0  0  0  0  0  0  0  0  0
   25.4952  -19.3147  -11.3145 O   0  0  0  0  0  0  0  0  0  0  0  0
   27.6786  -18.5514   -6.8937 C   0  0  0  0  0  0  0  0  0  0  0  0
   27.3388  -20.2437   -6.3675 S   0  0  0  0  0  0  0  0  0  0  0  0
   26.1379  -20.9907   -7.5007 C   0  0  0  0  0  0  0  0  0  0  0  0
   26.6202  -20.9248   -8.9338 C   0  0  0  0  0  0  0  0  0  0  0  0
   25.6259  -21.5853   -9.8768 C   0  0  2  0  0  0  0  0  0  0  0  0
   26.0769  -21.5046  -11.2494 N   0  0  0  0  0  0  0  0  0  0  0  0
   24.2671  -21.0447   -9.7017 C   0  0  0  0  0  0  0  0  0  0  0  0
   23.5380  -21.3630   -8.5797 O   0  0  0  0  0  0  0  0  0  0  0  0
   23.7764  -20.2971  -10.5716 O   0  0  0  0  0  0  0  0  0  0  0  0
  2  4  1  0
  2  1  1  1
  2  3  1  0
  5  6  1  6
  5  4  1  0
  7  5  1  0
  8  7  2  0
  9 10  1  0
 10 11  1  0
 11 13  1  0
 11 12  1  1
 13 14  1  6
 14  7  1  0
 15 13  1  0
 15 16  2  0
 18 17  1  0
 19 20  1  0
 19 18  1  0
 21 20  1  1
 21 22  1  0
 22 15  1  0
 23 21  1  0
 24 23  1  0
 25 23  2  0
M  END
$$$$
