LIM.pdb
     RDKit          3D

 25 24  0  0  1  0  0  0  0  0999 V2000
   27.1735  -14.2442  -15.3097 C   0  0  0  0  0  0  0  0  0  0  0  0
   26.7228  -15.5398  -15.9320 C   0  0  1  0  0  0  0  0  0  0  0  0
   27.9744  -16.2883  -16.3973 C   0  0  0  0  0  0  0  0  0  0  0  0
   26.0196  -16.4258  -14.9723 C   0  0  0  0  0  0  0  0  0  0  0  0
   25.6256  -17.7770  -15.4571 C   0  0  2  0  0  0  0  0  0  0  0  0
   24.7623  -17.7374  -16.6041 N   0  0  0  0  0  0  0  0  0  0  0  0
   25.1623  -18.6544  -14.3631 C   0  0  0  0  0  0  0  0  0  0  0  0
   24.0986  -18.3920  -13.7454 O   0  0  0  0  0  0  0  0  0  0  0  0
   23.8001  -23.4182  -15.4013 C   0  0  0  0  0  0  0  0  0  0  0  0
   23.9966  -22.1405  -14.6866 C   0  0  0  0  0  0  0  0  0  0  0  0
   24.9679  -22.0296  -13.5974 C   0  0  2  0  0  0  0  0  0  0  0  0
   24.5898  -23.1119  -12.5370 C   0  0  0  0  0  0  0  0  0  0  0  0
   25.2727  -20.7500  -12.9304 C   0  0  2  0  0  0  0  0  0  0  0  0
   25.8595  -19.8158  -13.9428 N   0  0  0  0  0  0  0  0  0  0  0  0
   26.1383  -20.7372  -11.7436 C   0  0  0  0  0  0  0  0  0  0  0  0
   27.3127  -21.1712  -11.7003 O   0  0  0  0  0  0  0  0  0  0  0  0
   27.8652  -17.5238   -6.2762 C   0  0  0  0  0  0  0  0  0  0  0  0
   28.6232  -19.1602   -6.3404 S   0  0  0  0  0  0  0  0  0  0  0  0
   27.4968  -20.3067   -7.1777 C   0  0  0  0  0  0  0  0  0  0  0  0
   27.0516  -19.7596   -8.5168 C   0  0  0  0  0  0  0  0  0  0  0  0
   26.1372  -20.7421   -9.2328 C   0  0  2  0  0  0  0  0  0  0  0  0
   25.6652  -20.1958  -10.4868 N   0  0  0  0  0  0  0  0  0  0  0  0
   25.0332  -21.1894   -8.3666 C   0  0  0  0  0  0  0  0  0  0  0  0
   23.7301  -20.9260   -8.7196 O   0  0  0  0  0  0  0  0  0  0  0  0
   25.2793  -21.8080   -7.3116 O   0  0  0  0  0  0  0  0  0  0  0  0
  2  4  1  0
  2  1  1  1
  2  3  1  0
  5  6  1  6
  5  4  1  0
  7  5  1  0
  8  7  2  0
  9 10  1  0
 10 11  1  0
 11 13  1  0
 11 12  1  1
 13 14  1  6
 14  7  1  0
 15 13  1  0
 15 16  2  0
 18 17  1  0
 19 20  1  0
 19 18  1  0
 21 20  1  1
 21 22  1  0
 22 15  1  0
 23 21  1  0
 24 23  1  0
 25 23  2  0
M  END
$$$$
