LIM.pdb
     RDKit          3D

 25 24  0  0  1  0  0  0  0  0999 V2000
   26.8449  -19.3472   -7.1020 C   0  0  0  0  0  0  0  0  0  0  0  0
   26.9484  -20.4998   -8.0664 C   0  0  1  0  0  0  0  0  0  0  0  0
   25.9250  -21.5541   -7.6371 C   0  0  0  0  0  0  0  0  0  0  0  0
   26.6167  -20.1159   -9.4604 C   0  0  0  0  0  0  0  0  0  0  0  0
   26.7510  -21.1672  -10.5056 C   0  0  2  0  0  0  0  0  0  0  0  0
   28.0308  -21.8187  -10.4920 N   0  0  0  0  0  0  0  0  0  0  0  0
   26.3082  -20.6994  -11.8347 C   0  0  0  0  0  0  0  0  0  0  0  0
   26.6605  -19.5695  -12.2603 O   0  0  0  0  0  0  0  0  0  0  0  0
   28.2047  -22.2901  -16.0195 C   0  0  0  0  0  0  0  0  0  0  0  0
   27.3933  -21.5468  -15.0339 C   0  0  0  0  0  0  0  0  0  0  0  0
   25.9315  -21.6109  -15.0617 C   0  0  2  0  0  0  0  0  0  0  0  0
   25.4833  -21.1841  -16.4956 C   0  0  0  0  0  0  0  0  0  0  0  0
   25.0868  -20.9515  -14.0484 C   0  0  2  0  0  0  0  0  0  0  0  0
   25.4808  -21.4627  -12.6973 N   0  0  0  0  0  0  0  0  0  0  0  0
   23.6241  -21.0329  -14.1571 C   0  0  0  0  0  0  0  0  0  0  0  0
   22.9205  -21.9862  -13.7502 O   0  0  0  0  0  0  0  0  0  0  0  0
   18.4610  -17.6115  -12.0088 C   0  0  0  0  0  0  0  0  0  0  0  0
   20.2294  -17.7658  -11.6845 S   0  0  0  0  0  0  0  0  0  0  0  0
   21.0757  -18.2504  -13.2121 C   0  0  0  0  0  0  0  0  0  0  0  0
   20.7359  -19.6733  -13.6005 C   0  0  0  0  0  0  0  0  0  0  0  0
   21.4278  -20.0667  -14.8969 C   0  0  2  0  0  0  0  0  0  0  0  0
   22.8658  -19.9636  -14.7722 N   0  0  0  0  0  0  0  0  0  0  0  0
   20.9097  -19.3027  -16.0446 C   0  0  0  0  0  0  0  0  0  0  0  0
   19.5834  -19.4008  -16.3956 O   0  0  0  0  0  0  0  0  0  0  0  0
   21.6740  -18.5657  -16.6996 O   0  0  0  0  0  0  0  0  0  0  0  0
  2  4  1  0
  2  1  1  1
  2  3  1  0
  5  6  1  6
  5  4  1  0
  7  5  1  0
  8  7  2  0
  9 10  1  0
 10 11  1  0
 11 13  1  0
 11 12  1  6
 13 14  1  1
 14  7  1  0
 15 13  1  0
 15 16  2  0
 18 17  1  0
 19 20  1  0
 19 18  1  0
 21 20  1  1
 21 22  1  0
 22 15  1  0
 23 21  1  0
 24 23  1  0
 25 23  2  0
M  END
$$$$
