LIM.pdb
     RDKit          3D

 25 24  0  0  1  0  0  0  0  0999 V2000
   22.8216  -18.6604  -16.4427 C   0  0  0  0  0  0  0  0  0  0  0  0
   24.1336  -19.3980  -16.3816 C   0  0  1  0  0  0  0  0  0  0  0  0
   25.2474  -18.3812  -16.6436 C   0  0  0  0  0  0  0  0  0  0  0  0
   24.3968  -19.9956  -15.0495 C   0  0  0  0  0  0  0  0  0  0  0  0
   25.7104  -20.6675  -14.8531 C   0  0  2  0  0  0  0  0  0  0  0  0
   25.9819  -21.6782  -15.8366 N   0  0  0  0  0  0  0  0  0  0  0  0
   25.9221  -21.0916  -13.4543 C   0  0  0  0  0  0  0  0  0  0  0  0
   25.2723  -22.0575  -12.9781 O   0  0  0  0  0  0  0  0  0  0  0  0
   30.8844  -21.0934  -11.0693 C   0  0  0  0  0  0  0  0  0  0  0  0
   29.4818  -21.3888  -11.4265 C   0  0  0  0  0  0  0  0  0  0  0  0
   28.3742  -20.7284  -10.7344 C   0  0  2  0  0  0  0  0  0  0  0  0
   28.5291  -21.0508   -9.2142 C   0  0  0  0  0  0  0  0  0  0  0  0
   26.9678  -20.8912  -11.1473 C   0  0  2  0  0  0  0  0  0  0  0  0
   26.8404  -20.4617  -12.5761 N   0  0  0  0  0  0  0  0  0  0  0  0
   25.9036  -20.2332  -10.3775 C   0  0  0  0  0  0  0  0  0  0  0  0
   25.5085  -19.0568  -10.5492 O   0  0  0  0  0  0  0  0  0  0  0  0
   20.7829  -21.2200  -11.9423 C   0  0  0  0  0  0  0  0  0  0  0  0
   20.2930  -20.0140  -10.6927 S   0  0  0  0  0  0  0  0  0  0  0  0
   21.5609  -19.9469   -9.3994 C   0  0  0  0  0  0  0  0  0  0  0  0
   22.9186  -20.3407   -9.9402 C   0  0  0  0  0  0  0  0  0  0  0  0
   23.9443  -20.4439   -8.8216 C   0  0  2  0  0  0  0  0  0  0  0  0
   25.2103  -20.9375   -9.3193 N   0  0  0  0  0  0  0  0  0  0  0  0
   23.4389  -21.2408   -7.6907 C   0  0  0  0  0  0  0  0  0  0  0  0
   23.8772  -22.5316   -7.5068 O   0  0  0  0  0  0  0  0  0  0  0  0
   22.6125  -20.7452   -6.8984 O   0  0  0  0  0  0  0  0  0  0  0  0
  2  4  1  0
  2  1  1  1
  2  3  1  0
  5  6  1  6
  5  4  1  0
  7  5  1  0
  8  7  2  0
  9 10  1  0
 10 11  1  0
 11 13  1  0
 11 12  1  1
 13 14  1  6
 14  7  1  0
 15 13  1  0
 15 16  2  0
 18 17  1  0
 19 20  1  0
 19 18  1  0
 21 20  1  6
 21 22  1  0
 22 15  1  0
 23 21  1  0
 24 23  1  0
 25 23  2  0
M  END
$$$$
