LIM.pdb
     RDKit          3D

 25 24  0  0  1  0  0  0  0  0999 V2000
   29.6578  -19.8006  -16.5333 C   0  0  0  0  0  0  0  0  0  0  0  0
   28.2676  -20.3620  -16.3876 C   0  0  1  0  0  0  0  0  0  0  0  0
   28.3995  -21.8724  -16.1764 C   0  0  0  0  0  0  0  0  0  0  0  0
   27.5485  -19.8206  -15.2084 C   0  0  0  0  0  0  0  0  0  0  0  0
   26.1884  -20.3599  -14.9346 C   0  0  2  0  0  0  0  0  0  0  0  0
   25.2749  -20.1733  -16.0269 N   0  0  0  0  0  0  0  0  0  0  0  0
   25.6715  -19.9404  -13.6162 C   0  0  0  0  0  0  0  0  0  0  0  0
   25.4938  -18.7214  -13.3621 O   0  0  0  0  0  0  0  0  0  0  0  0
   20.9526  -20.4827  -12.6896 C   0  0  0  0  0  0  0  0  0  0  0  0
   22.3871  -20.1500  -12.5743 C   0  0  0  0  0  0  0  0  0  0  0  0
   23.2023  -20.7005  -11.4906 C   0  0  2  0  0  0  0  0  0  0  0  0
   22.4470  -20.4046  -10.1561 C   0  0  0  0  0  0  0  0  0  0  0  0
   24.6373  -20.3952  -11.3403 C   0  0  2  0  0  0  0  0  0  0  0  0
   25.3505  -20.8495  -12.5761 N   0  0  0  0  0  0  0  0  0  0  0  0
   25.3715  -20.9088  -10.1762 C   0  0  0  0  0  0  0  0  0  0  0  0
   25.5707  -22.1194   -9.9233 O   0  0  0  0  0  0  0  0  0  0  0  0
   30.4832  -19.1526   -5.4328 C   0  0  0  0  0  0  0  0  0  0  0  0
   28.7700  -18.7633   -5.0206 S   0  0  0  0  0  0  0  0  0  0  0  0
   27.6749  -19.9540   -5.8376 C   0  0  0  0  0  0  0  0  0  0  0  0
   27.2350  -19.4530   -7.1965 C   0  0  0  0  0  0  0  0  0  0  0  0
   26.4173  -20.5058   -7.9294 C   0  0  2  0  0  0  0  0  0  0  0  0
   25.9390  -20.0032   -9.1993 N   0  0  0  0  0  0  0  0  0  0  0  0
   25.3275  -21.0314   -7.0895 C   0  0  0  0  0  0  0  0  0  0  0  0
   25.6046  -21.9222   -6.0788 O   0  0  0  0  0  0  0  0  0  0  0  0
   24.1516  -20.6687   -7.2945 O   0  0  0  0  0  0  0  0  0  0  0  0
  2  4  1  0
  2  1  1  1
  2  3  1  0
  5  6  1  6
  5  4  1  0
  7  5  1  0
  8  7  2  0
  9 10  1  0
 10 11  1  0
 11 13  1  0
 11 12  1  1
 13 14  1  6
 14  7  1  0
 15 13  1  0
 15 16  2  0
 18 17  1  0
 19 20  1  0
 19 18  1  0
 21 20  1  1
 21 22  1  0
 22 15  1  0
 23 21  1  0
 24 23  1  0
 25 23  2  0
M  END
$$$$
