PNL.pdb
     RDKit          3D

 24 24  0  0  1  0  0  0  0  0999 V2000
   19.6648  -12.5681  -16.1602 N   0  0  0  0  0  0  0  0  0  0  0  0
   19.3746  -13.9941  -16.4441 C   0  0  0  0  0  0  0  0  0  0  0  0
   18.0014  -13.8329  -17.0618 C   0  0  0  0  0  0  0  0  0  0  0  0
   18.2204  -12.6911  -18.0238 C   0  0  0  0  0  0  0  0  0  0  0  0
   19.3807  -11.9483  -17.4578 C   0  0  1  0  0  0  0  0  0  0  0  0
   19.1523  -10.5110  -17.2360 C   0  0  0  0  0  0  0  0  0  0  0  0
   18.9833   -9.7823  -18.2654 O   0  0  0  0  0  0  0  0  0  0  0  0
   17.0114   -6.0016  -16.1054 N   0  0  0  0  0  0  0  0  0  0  0  0
   17.4797   -6.7206  -14.9718 C   0  0  0  0  0  0  0  0  0  0  0  0
   17.7398   -6.0973  -13.9118 O   0  0  0  0  0  0  0  0  0  0  0  0
   17.6451   -8.1740  -15.0761 C   0  0  0  0  0  0  0  0  0  0  0  0
   18.9002   -8.4907  -15.8619 C   0  0  2  0  0  0  0  0  0  0  0  0
   19.1151   -9.9214  -15.9557 N   0  0  0  0  0  0  0  0  0  0  0  0
   20.0341   -7.9053  -15.0846 C   0  0  0  0  0  0  0  0  0  0  0  0
   20.3946   -8.4969  -14.0435 O   0  0  0  0  0  0  0  0  0  0  0  0
   24.5237   -7.3304  -17.4679 C   0  0  0  0  0  0  0  0  0  0  0  0
   23.4156   -7.6243  -16.3991 C   0  0  1  0  0  0  0  0  0  0  0  0
   24.0789   -8.6247  -15.4891 C   0  0  0  0  0  0  0  0  0  0  0  0
   23.0279   -6.3362  -15.7927 C   0  0  0  0  0  0  0  0  0  0  0  0
   21.9212   -6.3249  -14.8149 C   0  0  2  0  0  0  0  0  0  0  0  0
   20.6693   -6.7298  -15.5142 N   0  0  0  0  0  0  0  0  0  0  0  0
   21.5669   -5.0664  -14.1524 C   0  0  0  0  0  0  0  0  0  0  0  0
   20.5872   -4.3590  -14.4595 O   0  0  0  0  0  0  0  0  0  0  0  0
   22.3405   -4.5603  -13.0880 O   0  0  0  0  0  0  0  0  0  0  0  0
  1  5  1  0
  1  2  1  0
  3  2  1  0
  4  5  1  0
  4  3  1  0
  6  7  2  0
  5  6  1  1
  8  9  1  0
  9 11  1  0
  9 10  2  0
 12 11  1  1
 12 14  1  0
 12 13  1  0
 13  6  1  0
 14 21  1  0
 15 14  2  0
 17 16  1  6
 17 18  1  0
 20 19  1  6
 19 17  1  0
 20 22  1  0
 21 20  1  0
 22 23  2  0
 22 24  1  0
M  END
$$$$
