PNL.pdb
     RDKit          3D

 24 24  0  0  1  0  0  0  0  0999 V2000
   26.7643  -21.0138  -14.3407 N   0  0  0  0  0  0  0  0  0  0  0  0
   27.1531  -20.6859  -15.7335 C   0  0  0  0  0  0  0  0  0  0  0  0
   27.2041  -19.1773  -15.6111 C   0  0  0  0  0  0  0  0  0  0  0  0
   27.9819  -18.9909  -14.3314 C   0  0  0  0  0  0  0  0  0  0  0  0
   27.7556  -20.2533  -13.5741 C   0  0  1  0  0  0  0  0  0  0  0  0
   27.2366  -20.0759  -12.2079 C   0  0  0  0  0  0  0  0  0  0  0  0
   27.7544  -19.1513  -11.5035 O   0  0  0  0  0  0  0  0  0  0  0  0
   22.8235  -21.2286  -12.6669 N   0  0  0  0  0  0  0  0  0  0  0  0
   23.2823  -20.3462  -11.6510 C   0  0  0  0  0  0  0  0  0  0  0  0
   23.0268  -19.1188  -11.7403 O   0  0  0  0  0  0  0  0  0  0  0  0
   24.0429  -20.8992  -10.5257 C   0  0  0  0  0  0  0  0  0  0  0  0
   25.4530  -20.3476  -10.5412 C   0  0  2  0  0  0  0  0  0  0  0  0
   26.2112  -20.8733  -11.6596 N   0  0  0  0  0  0  0  0  0  0  0  0
   26.0988  -20.8267   -9.2819 C   0  0  0  0  0  0  0  0  0  0  0  0
   26.4262  -22.0318   -9.2161 O   0  0  0  0  0  0  0  0  0  0  0  0
   29.9064  -20.3292   -5.3656 C   0  0  0  0  0  0  0  0  0  0  0  0
   28.5174  -19.6382   -5.1425 C   0  0  1  0  0  0  0  0  0  0  0  0
   28.8758  -18.4000   -4.3633 C   0  0  0  0  0  0  0  0  0  0  0  0
   27.9051  -19.4292   -6.4687 C   0  0  0  0  0  0  0  0  0  0  0  0
   27.0290  -20.4865   -7.0124 C   0  0  2  0  0  0  0  0  0  0  0  0
   26.3276  -19.9480   -8.2118 N   0  0  0  0  0  0  0  0  0  0  0  0
   25.9479  -21.0171   -6.1771 C   0  0  0  0  0  0  0  0  0  0  0  0
   26.1156  -21.7905   -5.2134 O   0  0  0  0  0  0  0  0  0  0  0  0
   24.6027  -20.6727   -6.4206 O   0  0  0  0  0  0  0  0  0  0  0  0
  1  5  1  0
  1  2  1  0
  3  2  1  0
  4  5  1  0
  4  3  1  0
  6  7  2  0
  5  6  1  1
  8  9  1  0
  9 11  1  0
  9 10  2  0
 12 11  1  6
 12 14  1  0
 12 13  1  0
 13  6  1  0
 14 21  1  0
 15 14  2  0
 17 16  1  6
 17 18  1  0
 20 19  1  1
 19 17  1  0
 20 22  1  0
 21 20  1  0
 22 23  2  0
 22 24  1  0
M  END
$$$$
