PNL.pdb
     RDKit          3D

 24 24  0  0  1  0  0  0  0  0999 V2000
   23.8757  -12.4318  -15.2788 N   0  0  0  0  0  0  0  0  0  0  0  0
   24.9445  -13.4040  -15.6118 C   0  0  0  0  0  0  0  0  0  0  0  0
   24.5516  -13.6991  -17.0443 C   0  0  0  0  0  0  0  0  0  0  0  0
   24.3105  -12.3156  -17.5965 C   0  0  0  0  0  0  0  0  0  0  0  0
   23.9743  -11.4937  -16.4008 C   0  0  1  0  0  0  0  0  0  0  0  0
   22.7041  -10.7547  -16.4897 C   0  0  0  0  0  0  0  0  0  0  0  0
   22.6485   -9.7894  -17.3169 O   0  0  0  0  0  0  0  0  0  0  0  0
   17.9950   -9.2795  -16.6885 N   0  0  0  0  0  0  0  0  0  0  0  0
   17.9042  -10.5247  -16.0085 C   0  0  0  0  0  0  0  0  0  0  0  0
   16.7783  -11.0615  -15.8546 O   0  0  0  0  0  0  0  0  0  0  0  0
   19.1338  -11.1463  -15.5059 C   0  0  0  0  0  0  0  0  0  0  0  0
   20.3360  -10.3543  -15.9753 C   0  0  2  0  0  0  0  0  0  0  0  0
   21.5709  -11.0662  -15.7106 N   0  0  0  0  0  0  0  0  0  0  0  0
   20.3463   -9.0986  -15.1654 C   0  0  0  0  0  0  0  0  0  0  0  0
   20.6003   -9.1938  -13.9446 O   0  0  0  0  0  0  0  0  0  0  0  0
   22.0787   -4.7486  -13.2993 C   0  0  0  0  0  0  0  0  0  0  0  0
   21.6225   -4.5381  -14.7839 C   0  0  1  0  0  0  0  0  0  0  0  0
   22.7514   -3.7352  -15.3751 C   0  0  0  0  0  0  0  0  0  0  0  0
   21.3830   -5.8709  -15.3701 C   0  0  0  0  0  0  0  0  0  0  0  0
   20.2083   -6.6394  -14.9114 C   0  0  2  0  0  0  0  0  0  0  0  0
   20.0789   -7.8564  -15.7613 N   0  0  0  0  0  0  0  0  0  0  0  0
   18.8814   -6.0199  -14.9737 C   0  0  0  0  0  0  0  0  0  0  0  0
   18.1893   -5.9372  -16.0076 O   0  0  0  0  0  0  0  0  0  0  0  0
   18.2843   -5.4593  -13.8262 O   0  0  0  0  0  0  0  0  0  0  0  0
  1  5  1  0
  1  2  1  0
  3  2  1  0
  4  5  1  0
  4  3  1  0
  6  7  2  0
  5  6  1  6
  8  9  1  0
  9 11  1  0
  9 10  2  0
 12 11  1  1
 12 14  1  0
 12 13  1  0
 13  6  1  0
 14 21  1  0
 15 14  2  0
 17 16  1  1
 17 18  1  0
 20 19  1  6
 19 17  1  0
 20 22  1  0
 21 20  1  0
 22 23  2  0
 22 24  1  0
M  END
$$$$
