PNL.pdb
     RDKit          3D

 24 24  0  0  1  0  0  0  0  0999 V2000
   22.8826  -19.9715  -12.8043 N   0  0  0  0  0  0  0  0  0  0  0  0
   22.0064  -19.6586  -13.9588 C   0  0  0  0  0  0  0  0  0  0  0  0
   22.9373  -20.0784  -15.0771 C   0  0  0  0  0  0  0  0  0  0  0  0
   23.4342  -21.4167  -14.5880 C   0  0  0  0  0  0  0  0  0  0  0  0
   23.2849  -21.3480  -13.1077 C   0  0  1  0  0  0  0  0  0  0  0  0
   24.5079  -21.6441  -12.3436 C   0  0  0  0  0  0  0  0  0  0  0  0
   24.9647  -22.8298  -12.4119 O   0  0  0  0  0  0  0  0  0  0  0  0
   29.7969  -20.1596  -10.5506 N   0  0  0  0  0  0  0  0  0  0  0  0
   28.8790  -20.8888  -11.3548 C   0  0  0  0  0  0  0  0  0  0  0  0
   29.1935  -22.0353  -11.7625 O   0  0  0  0  0  0  0  0  0  0  0  0
   27.5877  -20.2767  -11.6847 C   0  0  0  0  0  0  0  0  0  0  0  0
   26.4716  -21.0364  -10.9991 C   0  0  2  0  0  0  0  0  0  0  0  0
   25.1789  -20.6872  -11.5549 N   0  0  0  0  0  0  0  0  0  0  0  0
   26.4909  -20.6003   -9.5701 C   0  0  0  0  0  0  0  0  0  0  0  0
   25.7332  -19.6633   -9.2358 O   0  0  0  0  0  0  0  0  0  0  0  0
   28.0205  -20.5900   -4.2112 C   0  0  0  0  0  0  0  0  0  0  0  0
   29.0283  -20.4375   -5.4018 C   0  0  1  0  0  0  0  0  0  0  0  0
   30.3310  -20.9021   -4.8052 C   0  0  0  0  0  0  0  0  0  0  0  0
   28.5032  -21.2244   -6.5342 C   0  0  0  0  0  0  0  0  0  0  0  0
   27.2990  -20.7323   -7.2332 C   0  0  2  0  0  0  0  0  0  0  0  0
   27.3341  -21.2258   -8.6388 N   0  0  0  0  0  0  0  0  0  0  0  0
   27.0929  -19.2876   -7.3689 C   0  0  0  0  0  0  0  0  0  0  0  0
   26.4442  -18.5890   -6.5653 O   0  0  0  0  0  0  0  0  0  0  0  0
   27.6358  -18.5730   -8.4562 O   0  0  0  0  0  0  0  0  0  0  0  0
  1  5  1  0
  1  2  1  0
  3  2  1  0
  4  5  1  0
  4  3  1  0
  6  7  2  0
  5  6  1  1
  8  9  1  0
  9 11  1  0
  9 10  2  0
 12 11  1  6
 12 14  1  0
 12 13  1  0
 13  6  1  0
 14 21  1  0
 15 14  2  0
 17 16  1  1
 17 18  1  0
 20 19  1  6
 19 17  1  0
 20 22  1  0
 21 20  1  0
 22 23  2  0
 22 24  1  0
M  END
$$$$
