PNL.pdb
     RDKit          3D

 24 24  0  0  1  0  0  0  0  0999 V2000
   17.6670  -14.1248  -16.6054 N   0  0  0  0  0  0  0  0  0  0  0  0
   17.0649  -15.4209  -17.0003 C   0  0  0  0  0  0  0  0  0  0  0  0
   16.1235  -14.9213  -18.0762 C   0  0  0  0  0  0  0  0  0  0  0  0
   17.0145  -13.9983  -18.8709 C   0  0  0  0  0  0  0  0  0  0  0  0
   18.0695  -13.5814  -17.9059 C   0  0  1  0  0  0  0  0  0  0  0  0
   18.2399  -12.1266  -17.7588 C   0  0  0  0  0  0  0  0  0  0  0  0
   19.1064  -11.5635  -18.5014 O   0  0  0  0  0  0  0  0  0  0  0  0
   14.9652   -7.8137  -17.5540 N   0  0  0  0  0  0  0  0  0  0  0  0
   15.4968   -9.0907  -17.2261 C   0  0  0  0  0  0  0  0  0  0  0  0
   15.0442  -10.1123  -17.8016 O   0  0  0  0  0  0  0  0  0  0  0  0
   16.5619   -9.1757  -16.2214 C   0  0  0  0  0  0  0  0  0  0  0  0
   17.7482   -9.9212  -16.7957 C   0  0  2  0  0  0  0  0  0  0  0  0
   17.4981  -11.3484  -16.8466 N   0  0  0  0  0  0  0  0  0  0  0  0
   18.8816   -9.6863  -15.8507 C   0  0  0  0  0  0  0  0  0  0  0  0
   18.7168  -10.0023  -14.6520 O   0  0  0  0  0  0  0  0  0  0  0  0
   23.1831  -10.4346  -13.4720 C   0  0  0  0  0  0  0  0  0  0  0  0
   23.5322   -9.8065  -14.8648 C   0  0  1  0  0  0  0  0  0  0  0  0
   24.6826  -10.6543  -15.3406 C   0  0  0  0  0  0  0  0  0  0  0  0
   22.3071   -9.8352  -15.6868 C   0  0  0  0  0  0  0  0  0  0  0  0
   21.1837   -8.9562  -15.3044 C   0  0  2  0  0  0  0  0  0  0  0  0
   20.0887   -9.1291  -16.3000 N   0  0  0  0  0  0  0  0  0  0  0  0
   21.3957   -7.5066  -15.2575 C   0  0  0  0  0  0  0  0  0  0  0  0
   21.3023   -6.7478  -16.2425 O   0  0  0  0  0  0  0  0  0  0  0  0
   21.7300   -6.8577  -14.0515 O   0  0  0  0  0  0  0  0  0  0  0  0
  1  5  1  0
  1  2  1  0
  3  2  1  0
  4  5  1  0
  4  3  1  0
  6  7  2  0
  5  6  1  1
  8  9  1  0
  9 11  1  0
  9 10  2  0
 12 11  1  1
 12 14  1  0
 12 13  1  0
 13  6  1  0
 14 21  1  0
 15 14  2  0
 17 16  1  1
 17 18  1  0
 20 19  1  6
 19 17  1  0
 20 22  1  0
 21 20  1  0
 22 23  2  0
 22 24  1  0
M  END
$$$$
