PNL.pdb
     RDKit          3D

 24 24  0  0  1  0  0  0  0  0999 V2000
   18.0262  -11.4450  -16.8786 N   0  0  0  0  0  0  0  0  0  0  0  0
   17.5846  -12.7729  -17.3687 C   0  0  0  0  0  0  0  0  0  0  0  0
   18.2722  -12.7627  -18.7179 C   0  0  0  0  0  0  0  0  0  0  0  0
   19.6593  -12.2871  -18.3613 C   0  0  0  0  0  0  0  0  0  0  0  0
   19.4735  -11.5190  -17.0989 C   0  0  1  0  0  0  0  0  0  0  0  0
   20.0015  -10.1449  -17.1220 C   0  0  0  0  0  0  0  0  0  0  0  0
   21.2664  -10.0067  -17.1084 O   0  0  0  0  0  0  0  0  0  0  0  0
   19.6889   -6.4987  -20.2481 N   0  0  0  0  0  0  0  0  0  0  0  0
   18.7134   -6.9844  -19.3350 C   0  0  0  0  0  0  0  0  0  0  0  0
   17.7406   -7.6507  -19.7701 O   0  0  0  0  0  0  0  0  0  0  0  0
   18.8743   -6.6909  -17.9072 C   0  0  0  0  0  0  0  0  0  0  0  0
   19.8118   -7.7012  -17.2799 C   0  0  2  0  0  0  0  0  0  0  0  0
   19.1795   -8.9999  -17.1567 N   0  0  0  0  0  0  0  0  0  0  0  0
   20.1013   -7.1981  -15.9030 C   0  0  0  0  0  0  0  0  0  0  0  0
   19.1462   -7.1125  -15.1003 O   0  0  0  0  0  0  0  0  0  0  0  0
   22.8656   -9.7178  -12.5268 C   0  0  0  0  0  0  0  0  0  0  0  0
   21.7660   -8.7448  -13.0749 C   0  0  1  0  0  0  0  0  0  0  0  0
   20.7807   -8.6715  -11.9380 C   0  0  0  0  0  0  0  0  0  0  0  0
   22.4336   -7.4840  -13.4519 C   0  0  0  0  0  0  0  0  0  0  0  0
   21.6315   -6.4345  -14.1122 C   0  0  2  0  0  0  0  0  0  0  0  0
   21.4045   -6.8352  -15.5293 N   0  0  0  0  0  0  0  0  0  0  0  0
   22.1743   -5.0766  -14.2095 C   0  0  0  0  0  0  0  0  0  0  0  0
   22.5266   -4.5323  -15.2746 O   0  0  0  0  0  0  0  0  0  0  0  0
   22.3370   -4.2729  -13.0627 O   0  0  0  0  0  0  0  0  0  0  0  0
  1  5  1  0
  1  2  1  0
  3  2  1  0
  4  5  1  0
  4  3  1  0
  6  7  2  0
  5  6  1  6
  8  9  1  0
  9 11  1  0
  9 10  2  0
 12 11  1  1
 12 14  1  0
 12 13  1  0
 13  6  1  0
 14 21  1  0
 15 14  2  0
 17 16  1  1
 17 18  1  0
 20 19  1  6
 19 17  1  0
 20 22  1  0
 21 20  1  0
 22 23  2  0
 22 24  1  0
M  END
$$$$
