PNL.pdb
     RDKit          3D

 24 24  0  0  1  0  0  0  0  0999 V2000
   27.7649  -18.9497  -17.6488 N   0  0  0  0  0  0  0  0  0  0  0  0
   28.9185  -18.4741  -18.4498 C   0  0  0  0  0  0  0  0  0  0  0  0
   28.6569  -16.9845  -18.3715 C   0  0  0  0  0  0  0  0  0  0  0  0
   28.3671  -16.7921  -16.9031 C   0  0  0  0  0  0  0  0  0  0  0  0
   27.8863  -18.1246  -16.4434 C   0  0  1  0  0  0  0  0  0  0  0  0
   26.5802  -18.1156  -15.7641 C   0  0  0  0  0  0  0  0  0  0  0  0
   26.4439  -17.3277  -14.7743 O   0  0  0  0  0  0  0  0  0  0  0  0
   22.3499  -16.7178  -16.8913 N   0  0  0  0  0  0  0  0  0  0  0  0
   22.9411  -17.9372  -17.3212 C   0  0  0  0  0  0  0  0  0  0  0  0
   23.3448  -18.0412  -18.5069 O   0  0  0  0  0  0  0  0  0  0  0  0
   23.0615  -19.0404  -16.3625 C   0  0  0  0  0  0  0  0  0  0  0  0
   24.2413  -18.7946  -15.4456 C   0  0  2  0  0  0  0  0  0  0  0  0
   25.4973  -18.9286  -16.1572 N   0  0  0  0  0  0  0  0  0  0  0  0
   24.1863  -19.8649  -14.4043 C   0  0  0  0  0  0  0  0  0  0  0  0
   24.5556  -21.0146  -14.7292 O   0  0  0  0  0  0  0  0  0  0  0  0
   26.1386  -20.5800   -9.0289 C   0  0  0  0  0  0  0  0  0  0  0  0
   24.9650  -21.1641   -9.8880 C   0  0  1  0  0  0  0  0  0  0  0  0
   23.8329  -21.2546   -8.8987 C   0  0  0  0  0  0  0  0  0  0  0  0
   24.7645  -20.2640  -11.0399 C   0  0  0  0  0  0  0  0  0  0  0  0
   23.8135  -20.6724  -12.0934 C   0  0  2  0  0  0  0  0  0  0  0  0
   23.7340  -19.5823  -13.1061 N   0  0  0  0  0  0  0  0  0  0  0  0
   22.4155  -20.9259  -11.7337 C   0  0  0  0  0  0  0  0  0  0  0  0
   21.9973  -21.9888  -11.2336 O   0  0  0  0  0  0  0  0  0  0  0  0
   21.4215  -19.9473  -11.9382 O   0  0  0  0  0  0  0  0  0  0  0  0
  1  5  1  0
  1  2  1  0
  3  2  1  0
  4  5  1  0
  4  3  1  0
  6  7  2  0
  5  6  1  6
  8  9  1  0
  9 11  1  0
  9 10  2  0
 12 11  1  6
 12 14  1  0
 12 13  1  0
 13  6  1  0
 14 21  1  0
 15 14  2  0
 17 16  1  1
 17 18  1  0
 20 19  1  1
 19 17  1  0
 20 22  1  0
 21 20  1  0
 22 23  2  0
 22 24  1  0
M  END
$$$$
