PNL.pdb
     RDKit          3D

 24 24  0  0  1  0  0  0  0  0999 V2000
   27.4625  -20.9802  -15.3212 N   0  0  0  0  0  0  0  0  0  0  0  0
   28.0165  -20.7350  -16.6745 C   0  0  0  0  0  0  0  0  0  0  0  0
   27.7590  -19.2454  -16.7642 C   0  0  0  0  0  0  0  0  0  0  0  0
   28.2547  -18.7585  -15.4246 C   0  0  0  0  0  0  0  0  0  0  0  0
   28.1444  -19.9479  -14.5351 C   0  0  1  0  0  0  0  0  0  0  0  0
   27.3734  -19.7327  -13.2995 C   0  0  0  0  0  0  0  0  0  0  0  0
   27.6606  -18.7058  -12.6051 O   0  0  0  0  0  0  0  0  0  0  0  0
   23.9748  -18.5090  -13.8857 N   0  0  0  0  0  0  0  0  0  0  0  0
   23.6711  -19.8798  -13.6629 C   0  0  0  0  0  0  0  0  0  0  0  0
   23.1618  -20.5563  -14.5917 O   0  0  0  0  0  0  0  0  0  0  0  0
   23.9632  -20.4637  -12.3497 C   0  0  0  0  0  0  0  0  0  0  0  0
   25.3689  -20.0927  -11.9264 C   0  0  2  0  0  0  0  0  0  0  0  0
   26.3518  -20.6010  -12.8631 N   0  0  0  0  0  0  0  0  0  0  0  0
   25.5962  -20.7648  -10.6113 C   0  0  0  0  0  0  0  0  0  0  0  0
   25.6543  -22.0138  -10.5968 O   0  0  0  0  0  0  0  0  0  0  0  0
   28.3414  -18.4783   -6.3292 C   0  0  0  0  0  0  0  0  0  0  0  0
   27.8839  -19.4320   -7.4857 C   0  0  1  0  0  0  0  0  0  0  0  0
   28.9711  -20.4740   -7.5162 C   0  0  0  0  0  0  0  0  0  0  0  0
   26.5246  -19.9060   -7.1617 C   0  0  0  0  0  0  0  0  0  0  0  0
   25.8237  -20.7554   -8.1457 C   0  0  2  0  0  0  0  0  0  0  0  0
   25.7390  -20.0130   -9.4348 N   0  0  0  0  0  0  0  0  0  0  0  0
   24.4415  -21.1640   -7.8795 C   0  0  0  0  0  0  0  0  0  0  0  0
   23.4466  -20.7280   -8.4918 O   0  0  0  0  0  0  0  0  0  0  0  0
   24.1413  -22.1102   -6.8784 O   0  0  0  0  0  0  0  0  0  0  0  0
  1  5  1  0
  1  2  1  0
  3  2  1  0
  4  5  1  0
  4  3  1  0
  6  7  2  0
  5  6  1  1
  8  9  1  0
  9 11  1  0
  9 10  2  0
 12 11  1  6
 12 14  1  0
 12 13  1  0
 13  6  1  0
 14 21  1  0
 15 14  2  0
 17 16  1  1
 17 18  1  0
 20 19  1  1
 19 17  1  0
 20 22  1  0
 21 20  1  0
 22 23  2  0
 22 24  1  0
M  END
$$$$
