PNL.pdb
     RDKit          3D

 24 24  0  0  1  0  0  0  0  0999 V2000
   26.7592  -19.7240  -16.3319 N   0  0  0  0  0  0  0  0  0  0  0  0
   27.2977  -19.0943  -17.5614 C   0  0  0  0  0  0  0  0  0  0  0  0
   27.3901  -17.6652  -17.0688 C   0  0  0  0  0  0  0  0  0  0  0  0
   28.0411  -17.8386  -15.7185 C   0  0  0  0  0  0  0  0  0  0  0  0
   27.6946  -19.2304  -15.3171 C   0  0  1  0  0  0  0  0  0  0  0  0
   27.0473  -19.3566  -14.0009 C   0  0  0  0  0  0  0  0  0  0  0  0
   27.6664  -18.8755  -12.9987 O   0  0  0  0  0  0  0  0  0  0  0  0
   22.6501  -19.3912  -15.1557 N   0  0  0  0  0  0  0  0  0  0  0  0
   23.0981  -18.8681  -13.9120 C   0  0  0  0  0  0  0  0  0  0  0  0
   23.1032  -17.6240  -13.7333 O   0  0  0  0  0  0  0  0  0  0  0  0
   23.5423  -19.8017  -12.8719 C   0  0  0  0  0  0  0  0  0  0  0  0
   25.0273  -19.6296  -12.6305 C   0  0  2  0  0  0  0  0  0  0  0  0
   25.7956  -19.9769  -13.8099 N   0  0  0  0  0  0  0  0  0  0  0  0
   25.3852  -20.5950  -11.5476 C   0  0  0  0  0  0  0  0  0  0  0  0
   25.5709  -21.7893  -11.8687 O   0  0  0  0  0  0  0  0  0  0  0  0
   28.1265  -19.6699   -6.4887 C   0  0  0  0  0  0  0  0  0  0  0  0
   26.7964  -19.7677   -7.3117 C   0  0  1  0  0  0  0  0  0  0  0  0
   26.5184  -18.3336   -7.6788 C   0  0  0  0  0  0  0  0  0  0  0  0
   27.0313  -20.7015   -8.4299 C   0  0  0  0  0  0  0  0  0  0  0  0
   25.8655  -21.1913   -9.1928 C   0  0  2  0  0  0  0  0  0  0  0  0
   25.5075  -20.1690  -10.2160 N   0  0  0  0  0  0  0  0  0  0  0  0
   24.6059  -21.4441   -8.4873 C   0  0  0  0  0  0  0  0  0  0  0  0
   23.5141  -20.9195   -8.7831 O   0  0  0  0  0  0  0  0  0  0  0  0
   24.5496  -22.3287   -7.3911 O   0  0  0  0  0  0  0  0  0  0  0  0
  1  5  1  0
  1  2  1  0
  3  2  1  0
  4  5  1  0
  4  3  1  0
  6  7  2  0
  5  6  1  1
  8  9  1  0
  9 11  1  0
  9 10  2  0
 12 11  1  6
 12 14  1  0
 12 13  1  0
 13  6  1  0
 14 21  1  0
 15 14  2  0
 17 16  1  1
 17 18  1  0
 20 19  1  1
 19 17  1  0
 20 22  1  0
 21 20  1  0
 22 23  2  0
 22 24  1  0
M  END
$$$$
