PNL.pdb
     RDKit          3D

 24 24  0  0  1  0  0  0  0  0999 V2000
   27.7099  -21.1846  -14.8316 N   0  0  0  0  0  0  0  0  0  0  0  0
   28.3900  -21.0180  -16.1385 C   0  0  0  0  0  0  0  0  0  0  0  0
   28.0000  -19.5824  -16.4218 C   0  0  0  0  0  0  0  0  0  0  0  0
   28.2873  -18.9112  -15.1011 C   0  0  0  0  0  0  0  0  0  0  0  0
   28.1919  -20.0095  -14.0997 C   0  0  1  0  0  0  0  0  0  0  0  0
   27.2658  -19.7565  -12.9836 C   0  0  0  0  0  0  0  0  0  0  0  0
   27.3588  -18.6334  -12.3927 O   0  0  0  0  0  0  0  0  0  0  0  0
   24.1199  -18.8741  -13.5115 N   0  0  0  0  0  0  0  0  0  0  0  0
   23.3576  -19.9538  -12.9878 C   0  0  0  0  0  0  0  0  0  0  0  0
   22.2098  -20.1776  -13.4484 O   0  0  0  0  0  0  0  0  0  0  0  0
   23.9380  -20.7764  -11.9213 C   0  0  0  0  0  0  0  0  0  0  0  0
   25.3193  -20.2625  -11.5736 C   0  0  2  0  0  0  0  0  0  0  0  0
   26.3009  -20.6894  -12.5514 N   0  0  0  0  0  0  0  0  0  0  0  0
   25.6748  -20.8855  -10.2627 C   0  0  0  0  0  0  0  0  0  0  0  0
   25.9805  -22.0980  -10.2569 O   0  0  0  0  0  0  0  0  0  0  0  0
   28.2040  -18.4180   -5.9262 C   0  0  0  0  0  0  0  0  0  0  0  0
   27.8683  -19.4779   -7.0309 C   0  0  1  0  0  0  0  0  0  0  0  0
   28.9349  -20.5230   -6.8335 C   0  0  0  0  0  0  0  0  0  0  0  0
   26.4732  -19.9117   -6.8237 C   0  0  0  0  0  0  0  0  0  0  0  0
   25.8781  -20.8514   -7.7952 C   0  0  2  0  0  0  0  0  0  0  0  0
   25.6641  -20.1290   -9.0807 N   0  0  0  0  0  0  0  0  0  0  0  0
   24.5724  -21.4493   -7.5020 C   0  0  0  0  0  0  0  0  0  0  0  0
   23.5024  -21.1072   -8.0431 O   0  0  0  0  0  0  0  0  0  0  0  0
   24.4417  -22.4862   -6.5558 O   0  0  0  0  0  0  0  0  0  0  0  0
  1  5  1  0
  1  2  1  0
  3  2  1  0
  4  5  1  0
  4  3  1  0
  6  7  2  0
  5  6  1  1
  8  9  1  0
  9 11  1  0
  9 10  2  0
 12 11  1  6
 12 14  1  0
 12 13  1  0
 13  6  1  0
 14 21  1  0
 15 14  2  0
 17 16  1  1
 17 18  1  0
 20 19  1  1
 19 17  1  0
 20 22  1  0
 21 20  1  0
 22 23  2  0
 22 24  1  0
M  END
$$$$
