PNL.pdb
     RDKit          3D

 24 24  0  0  1  0  0  0  0  0999 V2000
   26.7297  -20.9139  -14.5406 N   0  0  0  0  0  0  0  0  0  0  0  0
   27.1303  -20.4879  -15.9031 C   0  0  0  0  0  0  0  0  0  0  0  0
   27.3155  -19.0083  -15.6386 C   0  0  0  0  0  0  0  0  0  0  0  0
   28.1209  -19.0147  -14.3624 C   0  0  0  0  0  0  0  0  0  0  0  0
   27.7926  -20.3199  -13.7246 C   0  0  1  0  0  0  0  0  0  0  0  0
   27.3065  -20.2311  -12.3378 C   0  0  0  0  0  0  0  0  0  0  0  0
   27.9830  -19.5202  -11.5278 O   0  0  0  0  0  0  0  0  0  0  0  0
   22.7895  -20.9911  -12.9432 N   0  0  0  0  0  0  0  0  0  0  0  0
   23.2645  -20.1481  -11.9016 C   0  0  0  0  0  0  0  0  0  0  0  0
   23.0693  -18.9087  -11.9754 O   0  0  0  0  0  0  0  0  0  0  0  0
   23.9707  -20.7548  -10.7685 C   0  0  0  0  0  0  0  0  0  0  0  0
   25.4177  -20.3085  -10.7696 C   0  0  2  0  0  0  0  0  0  0  0  0
   26.1465  -20.8891  -11.8802 N   0  0  0  0  0  0  0  0  0  0  0  0
   26.0136  -20.8333   -9.5038 C   0  0  0  0  0  0  0  0  0  0  0  0
   26.2883  -22.0521   -9.4497 O   0  0  0  0  0  0  0  0  0  0  0  0
   29.4201  -18.6775   -4.9995 C   0  0  0  0  0  0  0  0  0  0  0  0
   28.5118  -19.8994   -5.3714 C   0  0  1  0  0  0  0  0  0  0  0  0
   27.6315  -20.0493   -4.1584 C   0  0  0  0  0  0  0  0  0  0  0  0
   27.8344  -19.5810   -6.6430 C   0  0  0  0  0  0  0  0  0  0  0  0
   26.8916  -20.5699   -7.2035 C   0  0  2  0  0  0  0  0  0  0  0  0
   26.2547  -19.9811   -8.4151 N   0  0  0  0  0  0  0  0  0  0  0  0
   25.7586  -21.0174   -6.3885 C   0  0  0  0  0  0  0  0  0  0  0  0
   24.6160  -20.5203   -6.4353 O   0  0  0  0  0  0  0  0  0  0  0  0
   25.8962  -22.0765   -5.4683 O   0  0  0  0  0  0  0  0  0  0  0  0
  1  5  1  0
  1  2  1  0
  3  2  1  0
  4  5  1  0
  4  3  1  0
  6  7  2  0
  5  6  1  1
  8  9  1  0
  9 11  1  0
  9 10  2  0
 12 11  1  6
 12 14  1  0
 12 13  1  0
 13  6  1  0
 14 21  1  0
 15 14  2  0
 17 16  1  1
 17 18  1  0
 20 19  1  1
 19 17  1  0
 20 22  1  0
 21 20  1  0
 22 23  2  0
 22 24  1  0
M  END
$$$$
