RVK.pdb
     RDKit          3D

 28 27  0  0  1  0  0  0  0  0999 V2000
   16.0245  -31.1584   -3.6069 N   0  0  0  0  0  0  0  0  0  0  0  0
   17.3395  -31.4803   -4.0844 C   0  0  0  0  0  0  0  0  0  0  0  0
   17.6075  -32.7198   -4.2939 N   0  0  0  0  0  0  0  0  0  0  0  0
   18.2664  -30.4351   -4.2993 N   0  0  0  0  0  0  0  0  0  0  0  0
   17.8226  -29.0760   -4.3978 C   0  0  0  0  0  0  0  0  0  0  0  0
   16.7431  -28.8780   -5.4199 C   0  0  0  0  0  0  0  0  0  0  0  0
   16.2619  -27.4872   -5.6018 C   0  0  0  0  0  0  0  0  0  0  0  0
   17.1948  -26.3983   -5.1435 C   0  0  2  0  0  0  0  0  0  0  0  0
   16.8955  -25.9101   -3.8388 N   0  0  0  0  0  0  0  0  0  0  0  0
   17.1031  -25.3107   -6.1770 C   0  0  0  0  0  0  0  0  0  0  0  0
   16.2157  -24.4200   -6.0696 O   0  0  0  0  0  0  0  0  0  0  0  0
   18.5361  -33.0284   -4.6488 C   0  0  0  0  0  0  0  0  0  0  0  0
   20.1559  -24.6299   -9.2528 C   0  0  1  0  0  0  0  0  0  0  0  0
   19.3566  -23.6628   -8.4516 C   0  0  0  0  0  0  0  0  0  0  0  0
   20.0714  -23.2139   -7.1873 C   0  0  1  0  0  0  0  0  0  0  0  0
   17.9349  -24.0449   -8.1994 N   0  0  0  0  0  0  0  0  0  0  0  0
   17.9651  -25.2119   -7.2935 C   0  0  0  0  0  0  0  0  0  0  0  0
   17.0866  -24.2958   -9.3527 O   0  0  0  0  0  0  0  0  0  0  0  0
   17.1605  -25.4625   -9.8858 N   0  0  0  0  0  0  0  0  0  0  0  0
   16.1770  -23.4310   -9.9829 C   0  0  1  0  0  0  0  0  0  0  0  0
   15.5468  -23.7233  -11.2577 C   0  0  0  0  0  0  0  0  0  0  0  0
   14.7186  -22.5601  -11.7417 C   0  0  0  0  0  0  0  0  0  0  0  0
   14.0504  -22.8089  -13.0749 C   0  0  0  0  0  0  0  0  0  0  0  0
   12.5342  -22.6959  -12.8450 C   0  0  0  0  0  0  0  0  0  0  0  0
   11.8844  -22.9626  -14.1824 N   0  0  0  0  0  0  0  0  0  0  0  0
   10.4375  -22.9389  -14.0984 C   0  0  0  0  0  0  0  0  0  0  0  0
   16.5241  -24.2212  -12.2356 O   0  0  0  0  0  0  0  0  0  0  0  0
   17.6533  -23.7759  -12.4533 O   0  0  0  0  0  0  0  0  0  0  0  0
  2  1  1  0
  2  3  2  0
  4  2  1  0
  5  4  1  0
  6  5  1  0
  7  8  1  0
  7  6  1  0
  8  9  1  1
 10  8  1  0
 11 10  2  0
 13 12  1  6
 13 14  1  0
 15 16  1  1
 15 13  1  0
 16 10  1  0
 17 15  1  0
 18 17  2  0
 19 17  1  0
 20 26  1  0
 20 19  1  0
 21 22  1  0
 20 21  1  6
 23 24  1  0
 23 22  1  0
 25 24  1  0
 26 28  1  0
 27 26  2  0
M  END
$$$$
