RVK.pdb
     RDKit          3D

 28 27  0  0  1  0  0  0  0  0999 V2000
   27.6601  -25.6946  -16.9121 N   0  0  0  0  0  0  0  0  0  0  0  0
   26.4084  -26.3961  -16.8658 C   0  0  0  0  0  0  0  0  0  0  0  0
   26.4458  -27.6627  -16.6510 N   0  0  0  0  0  0  0  0  0  0  0  0
   25.2091  -25.6726  -17.0561 N   0  0  0  0  0  0  0  0  0  0  0  0
   25.2318  -24.2460  -17.1903 C   0  0  0  0  0  0  0  0  0  0  0  0
   25.4101  -23.5310  -15.8841 C   0  0  0  0  0  0  0  0  0  0  0  0
   24.1674  -23.1010  -15.1989 C   0  0  0  0  0  0  0  0  0  0  0  0
   24.3477  -22.2237  -13.9889 C   0  0  2  0  0  0  0  0  0  0  0  0
   25.1294  -22.8298  -12.9633 N   0  0  0  0  0  0  0  0  0  0  0  0
   22.9634  -21.8908  -13.5073 C   0  0  0  0  0  0  0  0  0  0  0  0
   22.5148  -22.4429  -12.4650 O   0  0  0  0  0  0  0  0  0  0  0  0
   25.5782  -28.2329  -16.5766 C   0  0  0  0  0  0  0  0  0  0  0  0
   19.1514  -18.7383  -14.0644 C   0  0  1  0  0  0  0  0  0  0  0  0
   20.5724  -19.1636  -13.9395 C   0  0  0  0  0  0  0  0  0  0  0  0
   21.4261  -18.7156  -15.1149 C   0  0  1  0  0  0  0  0  0  0  0  0
   20.7939  -20.5979  -13.5862 N   0  0  0  0  0  0  0  0  0  0  0  0
   22.1027  -20.9769  -14.1580 C   0  0  0  0  0  0  0  0  0  0  0  0
   19.7622  -21.5529  -13.9548 O   0  0  0  0  0  0  0  0  0  0  0  0
   19.6329  -21.8150  -15.2059 N   0  0  0  0  0  0  0  0  0  0  0  0
   18.8668  -22.2476  -13.1252 C   0  0  1  0  0  0  0  0  0  0  0  0
   17.8463  -23.1499  -13.6274 C   0  0  0  0  0  0  0  0  0  0  0  0
   17.6972  -24.3602  -12.7408 C   0  0  0  0  0  0  0  0  0  0  0  0
   18.6725  -25.4691  -13.0651 C   0  0  0  0  0  0  0  0  0  0  0  0
   18.4493  -26.5810  -12.0267 C   0  0  0  0  0  0  0  0  0  0  0  0
   19.3631  -26.2634  -10.8666 N   0  0  0  0  0  0  0  0  0  0  0  0
   19.2239  -27.2204   -9.7868 C   0  0  0  0  0  0  0  0  0  0  0  0
   16.5899  -22.4379  -13.8991 O   0  0  0  0  0  0  0  0  0  0  0  0
   16.3016  -21.2843  -13.5721 O   0  0  0  0  0  0  0  0  0  0  0  0
  2  1  1  0
  2  3  2  0
  4  2  1  0
  5  4  1  0
  6  5  1  0
  7  8  1  0
  7  6  1  0
  8  9  1  1
 10  8  1  0
 11 10  2  0
 13 12  1  1
 13 14  1  0
 15 16  1  6
 15 13  1  0
 16 10  1  0
 17 15  1  0
 18 17  2  0
 19 17  1  0
 20 26  1  0
 20 19  1  0
 21 22  1  0
 20 21  1  6
 23 24  1  0
 23 22  1  0
 25 24  1  0
 26 28  1  0
 27 26  2  0
M  END
$$$$
