RVK.pdb
     RDKit          3D

 28 27  0  0  1  0  0  0  0  0999 V2000
   30.2780  -19.1341  -19.3805 N   0  0  0  0  0  0  0  0  0  0  0  0
   29.5860  -18.1581  -18.5870 C   0  0  0  0  0  0  0  0  0  0  0  0
   29.7424  -16.9211  -18.8990 N   0  0  0  0  0  0  0  0  0  0  0  0
   28.7762  -18.5954  -17.5143 N   0  0  0  0  0  0  0  0  0  0  0  0
   28.5220  -19.9915  -17.3148 C   0  0  0  0  0  0  0  0  0  0  0  0
   27.0944  -20.3756  -17.5671 C   0  0  0  0  0  0  0  0  0  0  0  0
   26.2882  -20.7187  -16.3708 C   0  0  0  0  0  0  0  0  0  0  0  0
   26.9263  -21.6681  -15.3921 C   0  0  2  0  0  0  0  0  0  0  0  0
   27.3052  -22.9113  -15.9762 N   0  0  0  0  0  0  0  0  0  0  0  0
   25.9270  -21.8573  -14.2854 C   0  0  0  0  0  0  0  0  0  0  0  0
   24.9914  -22.6926  -14.4243 O   0  0  0  0  0  0  0  0  0  0  0  0
   29.3044  -16.1558  -18.3460 C   0  0  0  0  0  0  0  0  0  0  0  0
   24.6352  -20.9392   -9.5470 C   0  0  1  0  0  0  0  0  0  0  0  0
   25.5267  -20.8738  -10.7373 C   0  0  0  0  0  0  0  0  0  0  0  0
   26.2383  -19.5367  -10.8668 C   0  0  2  0  0  0  0  0  0  0  0  0
   24.9253  -21.3284  -12.0268 N   0  0  0  0  0  0  0  0  0  0  0  0
   25.9613  -21.1450  -13.0643 C   0  0  0  0  0  0  0  0  0  0  0  0
   23.6632  -20.7325  -12.4322 O   0  0  0  0  0  0  0  0  0  0  0  0
   23.7047  -19.5259  -12.8719 N   0  0  0  0  0  0  0  0  0  0  0  0
   22.3765  -21.2951  -12.4145 C   0  0  1  0  0  0  0  0  0  0  0  0
   21.1860  -20.5839  -12.8443 C   0  0  0  0  0  0  0  0  0  0  0  0
   20.3449  -21.4271  -13.7687 C   0  0  0  0  0  0  0  0  0  0  0  0
   19.0799  -20.7388  -14.2292 C   0  0  0  0  0  0  0  0  0  0  0  0
   18.3310  -21.7333  -15.1317 C   0  0  0  0  0  0  0  0  0  0  0  0
   17.1265  -20.9936  -15.6646 N   0  0  0  0  0  0  0  0  0  0  0  0
   16.3443  -21.8102  -16.5717 C   0  0  0  0  0  0  0  0  0  0  0  0
   20.4548  -20.0244  -11.6991 O   0  0  0  0  0  0  0  0  0  0  0  0
   19.7452  -19.0157  -11.6890 O   0  0  0  0  0  0  0  0  0  0  0  0
  2  1  1  0
  2  3  2  0
  4  2  1  0
  5  4  1  0
  6  5  1  0
  7  8  1  0
  7  6  1  0
  8  9  1  6
 10  8  1  0
 11 10  2  0
 13 12  1  1
 13 14  1  0
 15 16  1  6
 15 13  1  0
 16 10  1  0
 17 15  1  0
 18 17  2  0
 19 17  1  0
 20 26  1  0
 20 19  1  0
 21 22  1  0
 20 21  1  1
 23 24  1  0
 23 22  1  0
 25 24  1  0
 26 28  1  0
 27 26  2  0
M  END
$$$$
