RVK.pdb
     RDKit          3D

 28 27  0  0  1  0  0  0  0  0999 V2000
   27.0229  -24.4030  -16.9493 N   0  0  0  0  0  0  0  0  0  0  0  0
   26.6228  -25.7746  -16.8095 C   0  0  0  0  0  0  0  0  0  0  0  0
   27.5524  -26.6557  -16.7033 N   0  0  0  0  0  0  0  0  0  0  0  0
   25.2450  -26.0893  -16.7955 N   0  0  0  0  0  0  0  0  0  0  0  0
   24.2613  -25.0520  -16.6940 C   0  0  0  0  0  0  0  0  0  0  0  0
   24.4143  -24.2088  -15.4633 C   0  0  0  0  0  0  0  0  0  0  0  0
   23.5058  -24.5271  -14.3354 C   0  0  0  0  0  0  0  0  0  0  0  0
   22.0681  -24.1146  -14.5063 C   0  0  2  0  0  0  0  0  0  0  0  0
   21.8667  -23.2005  -15.5805 N   0  0  0  0  0  0  0  0  0  0  0  0
   21.6461  -23.5246  -13.1898 C   0  0  0  0  0  0  0  0  0  0  0  0
   21.7932  -24.1930  -12.1297 O   0  0  0  0  0  0  0  0  0  0  0  0
   27.3398  -27.6719  -16.6278 C   0  0  0  0  0  0  0  0  0  0  0  0
   19.0919  -19.7648  -11.2709 C   0  0  1  0  0  0  0  0  0  0  0  0
   20.3272  -20.2752  -11.9262 C   0  0  0  0  0  0  0  0  0  0  0  0
   20.4486  -19.8356  -13.3763 C   0  0  1  0  0  0  0  0  0  0  0  0
   20.6059  -21.7314  -11.7452 N   0  0  0  0  0  0  0  0  0  0  0  0
   21.0791  -22.2367  -13.0506 C   0  0  0  0  0  0  0  0  0  0  0  0
   19.5393  -22.5638  -11.2140 O   0  0  0  0  0  0  0  0  0  0  0  0
   18.6995  -23.0426  -12.0603 N   0  0  0  0  0  0  0  0  0  0  0  0
   19.2874  -22.9304   -9.8819 C   0  0  1  0  0  0  0  0  0  0  0  0
   18.1821  -23.7825   -9.4817 C   0  0  0  0  0  0  0  0  0  0  0  0
   18.4281  -24.4046   -8.1306 C   0  0  0  0  0  0  0  0  0  0  0  0
   17.2966  -25.2896   -7.6591 C   0  0  0  0  0  0  0  0  0  0  0  0
   17.6708  -25.7854   -6.2525 C   0  0  0  0  0  0  0  0  0  0  0  0
   16.4884  -26.5860   -5.7597 N   0  0  0  0  0  0  0  0  0  0  0  0
   16.7556  -27.2222   -4.4849 C   0  0  0  0  0  0  0  0  0  0  0  0
   16.8960  -23.0821   -9.6026 O   0  0  0  0  0  0  0  0  0  0  0  0
   16.6737  -21.8893   -9.3821 O   0  0  0  0  0  0  0  0  0  0  0  0
  2  1  1  0
  2  3  2  0
  4  2  1  0
  5  4  1  0
  6  5  1  0
  7  8  1  0
  7  6  1  0
  8  9  1  6
 10  8  1  0
 11 10  2  0
 13 12  1  1
 13 14  1  0
 15 16  1  6
 15 13  1  0
 16 10  1  0
 17 15  1  0
 18 17  2  0
 19 17  1  0
 20 26  1  0
 20 19  1  0
 21 22  1  0
 20 21  1  1
 23 24  1  0
 23 22  1  0
 25 24  1  0
 26 28  1  0
 27 26  2  0
M  END
$$$$
