RVK.pdb
     RDKit          3D

 28 27  0  0  1  0  0  0  0  0999 V2000
   30.0177  -22.9830  -18.9448 N   0  0  0  0  0  0  0  0  0  0  0  0
   30.0340  -21.7487  -19.6777 C   0  0  0  0  0  0  0  0  0  0  0  0
   30.7183  -21.7136  -20.7652 N   0  0  0  0  0  0  0  0  0  0  0  0
   29.3078  -20.6441  -19.1776 N   0  0  0  0  0  0  0  0  0  0  0  0
   28.4783  -20.7821  -18.0171 C   0  0  0  0  0  0  0  0  0  0  0  0
   29.0458  -21.7173  -16.9912 C   0  0  0  0  0  0  0  0  0  0  0  0
   28.2291  -21.9229  -15.7708 C   0  0  0  0  0  0  0  0  0  0  0  0
   27.4338  -20.7353  -15.2982 C   0  0  2  0  0  0  0  0  0  0  0  0
   28.2367  -19.7161  -14.7093 N   0  0  0  0  0  0  0  0  0  0  0  0
   26.4210  -21.2737  -14.3268 C   0  0  0  0  0  0  0  0  0  0  0  0
   25.7379  -22.2890  -14.6349 O   0  0  0  0  0  0  0  0  0  0  0  0
   30.7720  -20.8561  -21.3528 C   0  0  0  0  0  0  0  0  0  0  0  0
   24.7302  -21.3605   -9.6402 C   0  0  1  0  0  0  0  0  0  0  0  0
   25.6260  -20.9249  -10.7465 C   0  0  0  0  0  0  0  0  0  0  0  0
   26.0354  -19.4654  -10.6320 C   0  0  2  0  0  0  0  0  0  0  0  0
   25.1807  -21.2871  -12.1254 N   0  0  0  0  0  0  0  0  0  0  0  0
   26.1714  -20.7069  -13.0556 C   0  0  0  0  0  0  0  0  0  0  0  0
   23.8251  -20.9347  -12.5135 O   0  0  0  0  0  0  0  0  0  0  0  0
   23.5374  -19.6830  -12.5488 N   0  0  0  0  0  0  0  0  0  0  0  0
   22.7603  -21.7806  -12.8645 C   0  0  1  0  0  0  0  0  0  0  0  0
   21.4279  -21.3000  -13.1829 C   0  0  0  0  0  0  0  0  0  0  0  0
   20.6583  -22.3098  -13.9959 C   0  0  0  0  0  0  0  0  0  0  0  0
   19.2752  -21.8411  -14.3874 C   0  0  0  0  0  0  0  0  0  0  0  0
   18.6504  -22.9536  -15.2455 C   0  0  0  0  0  0  0  0  0  0  0  0
   17.3138  -22.4259  -15.7110 N   0  0  0  0  0  0  0  0  0  0  0  0
   16.6441  -23.3520  -16.6027 C   0  0  0  0  0  0  0  0  0  0  0  0
   20.7279  -20.8285  -11.9800 O   0  0  0  0  0  0  0  0  0  0  0  0
   20.7603  -21.3309  -10.8541 O   0  0  0  0  0  0  0  0  0  0  0  0
  2  1  1  0
  2  3  2  0
  4  2  1  0
  5  4  1  0
  6  5  1  0
  7  8  1  0
  7  6  1  0
  8  9  1  1
 10  8  1  0
 11 10  2  0
 13 12  1  1
 13 14  1  0
 15 16  1  6
 15 13  1  0
 16 10  1  0
 17 15  1  0
 18 17  2  0
 19 17  1  0
 20 26  1  0
 20 19  1  0
 21 22  1  0
 20 21  1  1
 23 24  1  0
 23 22  1  0
 25 24  1  0
 26 28  1  0
 27 26  2  0
M  END
$$$$
