RVK.pdb
     RDKit          3D

 28 27  0  0  1  0  0  0  0  0999 V2000
   19.5496  -23.9562   -7.1995 N   0  0  0  0  0  0  0  0  0  0  0  0
   18.7494  -23.8841   -8.3892 C   0  0  0  0  0  0  0  0  0  0  0  0
   17.5156  -24.2320   -8.2962 N   0  0  0  0  0  0  0  0  0  0  0  0
   19.3459  -23.4405   -9.5913 N   0  0  0  0  0  0  0  0  0  0  0  0
   20.7411  -23.1163   -9.6365 C   0  0  0  0  0  0  0  0  0  0  0  0
   21.0173  -21.6573   -9.4262 C   0  0  0  0  0  0  0  0  0  0  0  0
   22.0847  -21.0656  -10.2684 C   0  0  0  0  0  0  0  0  0  0  0  0
   23.4904  -21.1987   -9.7465 C   0  0  2  0  0  0  0  0  0  0  0  0
   23.6434  -20.7293   -8.4099 N   0  0  0  0  0  0  0  0  0  0  0  0
   24.3630  -20.4373  -10.7047 C   0  0  0  0  0  0  0  0  0  0  0  0
   24.4402  -19.1809  -10.6162 O   0  0  0  0  0  0  0  0  0  0  0  0
   16.8798  -24.2262   -9.1203 C   0  0  0  0  0  0  0  0  0  0  0  0
   28.1216  -19.9435  -13.7141 C   0  0  1  0  0  0  0  0  0  0  0  0
   27.2071  -20.7323  -12.8438 C   0  0  0  0  0  0  0  0  0  0  0  0
   27.3004  -22.2286  -13.0956 C   0  0  2  0  0  0  0  0  0  0  0  0
   25.7947  -20.2508  -12.7783 N   0  0  0  0  0  0  0  0  0  0  0  0
   25.1252  -21.0462  -11.7283 C   0  0  0  0  0  0  0  0  0  0  0  0
   25.0225  -20.2486  -14.0096 O   0  0  0  0  0  0  0  0  0  0  0  0
   24.0258  -21.0570  -14.0721 N   0  0  0  0  0  0  0  0  0  0  0  0
   25.2095  -19.4743  -15.1663 C   0  0  1  0  0  0  0  0  0  0  0  0
   24.1379  -19.1378  -16.0861 C   0  0  0  0  0  0  0  0  0  0  0  0
   23.0889  -18.2839  -15.4200 C   0  0  0  0  0  0  0  0  0  0  0  0
   22.0004  -17.8215  -16.3620 C   0  0  0  0  0  0  0  0  0  0  0  0
   21.0540  -16.9237  -15.5479 C   0  0  0  0  0  0  0  0  0  0  0  0
   19.9938  -16.4458  -16.5121 N   0  0  0  0  0  0  0  0  0  0  0  0
   19.0466  -15.5499  -15.8785 C   0  0  0  0  0  0  0  0  0  0  0  0
   24.6646  -18.5839  -17.3411 O   0  0  0  0  0  0  0  0  0  0  0  0
   24.1271  -18.6106  -18.4507 O   0  0  0  0  0  0  0  0  0  0  0  0
  2  1  1  0
  2  3  2  0
  4  2  1  0
  5  4  1  0
  6  5  1  0
  7  8  1  0
  7  6  1  0
  8  9  1  1
 10  8  1  0
 11 10  2  0
 13 12  1  1
 13 14  1  0
 15 16  1  6
 15 13  1  0
 16 10  1  0
 17 15  1  0
 18 17  2  0
 19 17  1  0
 20 26  1  0
 20 19  1  0
 21 22  1  0
 20 21  1  6
 23 24  1  0
 23 22  1  0
 25 24  1  0
 26 28  1  0
 27 26  2  0
M  END
$$$$
