RVK.pdb
     RDKit          3D

 28 27  0  0  1  0  0  0  0  0999 V2000
   28.6276  -18.3703  -19.8685 N   0  0  0  0  0  0  0  0  0  0  0  0
   27.2495  -18.7540  -19.9893 C   0  0  0  0  0  0  0  0  0  0  0  0
   26.9209  -19.4735  -21.0024 N   0  0  0  0  0  0  0  0  0  0  0  0
   26.3301  -18.3294  -19.0034 N   0  0  0  0  0  0  0  0  0  0  0  0
   26.7857  -17.6546  -17.8241 C   0  0  0  0  0  0  0  0  0  0  0  0
   27.6153  -18.5244  -16.9271 C   0  0  0  0  0  0  0  0  0  0  0  0
   26.8687  -19.4421  -16.0331 C   0  0  0  0  0  0  0  0  0  0  0  0
   27.6862  -20.1719  -15.0010 C   0  0  2  0  0  0  0  0  0  0  0  0
   28.6480  -21.0586  -15.5659 N   0  0  0  0  0  0  0  0  0  0  0  0
   26.7014  -20.9028  -14.1320 C   0  0  0  0  0  0  0  0  0  0  0  0
   26.1674  -21.9665  -14.5512 O   0  0  0  0  0  0  0  0  0  0  0  0
   25.9528  -19.8347  -21.1284 C   0  0  0  0  0  0  0  0  0  0  0  0
   24.8095  -21.6422   -9.5993 C   0  0  1  0  0  0  0  0  0  0  0  0
   25.6279  -20.9087  -10.6033 C   0  0  0  0  0  0  0  0  0  0  0  0
   25.6997  -19.4157  -10.3264 C   0  0  2  0  0  0  0  0  0  0  0  0
   25.3263  -21.2106  -12.0347 N   0  0  0  0  0  0  0  0  0  0  0  0
   26.3192  -20.4707  -12.8410 C   0  0  0  0  0  0  0  0  0  0  0  0
   23.9746  -20.9637  -12.5083 O   0  0  0  0  0  0  0  0  0  0  0  0
   23.6761  -19.7504  -12.8076 N   0  0  0  0  0  0  0  0  0  0  0  0
   22.9240  -21.8775  -12.6919 C   0  0  1  0  0  0  0  0  0  0  0  0
   21.6298  -21.5099  -13.2375 C   0  0  0  0  0  0  0  0  0  0  0  0
   20.9455  -22.6923  -13.8752 C   0  0  0  0  0  0  0  0  0  0  0  0
   21.6730  -23.2286  -15.0873 C   0  0  0  0  0  0  0  0  0  0  0  0
   22.3624  -24.5336  -14.6559 C   0  0  0  0  0  0  0  0  0  0  0  0
   23.0526  -25.0721  -15.8870 N   0  0  0  0  0  0  0  0  0  0  0  0
   23.8762  -26.2267  -15.5875 C   0  0  0  0  0  0  0  0  0  0  0  0
   20.8132  -20.7989  -12.2440 O   0  0  0  0  0  0  0  0  0  0  0  0
   20.8176  -20.9620  -11.0216 O   0  0  0  0  0  0  0  0  0  0  0  0
  2  1  1  0
  2  3  2  0
  4  2  1  0
  5  4  1  0
  6  5  1  0
  7  8  1  0
  7  6  1  0
  8  9  1  6
 10  8  1  0
 11 10  2  0
 13 12  1  1
 13 14  1  0
 15 16  1  6
 15 13  1  0
 16 10  1  0
 17 15  1  0
 18 17  2  0
 19 17  1  0
 20 26  1  0
 20 19  1  0
 21 22  1  0
 20 21  1  6
 23 24  1  0
 23 22  1  0
 25 24  1  0
 26 28  1  0
 27 26  2  0
M  END
$$$$
