RVK.pdb
     RDKit          3D

 28 27  0  0  1  0  0  0  0  0999 V2000
   16.1697  -16.2128  -15.7738 N   0  0  0  0  0  0  0  0  0  0  0  0
   16.6101  -17.3439  -16.5403 C   0  0  0  0  0  0  0  0  0  0  0  0
   16.2315  -18.5085  -16.1501 N   0  0  0  0  0  0  0  0  0  0  0  0
   17.4283  -17.1288  -17.6725 N   0  0  0  0  0  0  0  0  0  0  0  0
   17.8015  -15.8007  -18.0606 C   0  0  0  0  0  0  0  0  0  0  0  0
   19.2044  -15.4417  -17.6705 C   0  0  0  0  0  0  0  0  0  0  0  0
   19.6157  -14.0400  -17.9251 C   0  0  0  0  0  0  0  0  0  0  0  0
   19.8033  -13.6566  -19.3687 C   0  0  2  0  0  0  0  0  0  0  0  0
   20.8045  -14.4239  -20.0314 N   0  0  0  0  0  0  0  0  0  0  0  0
   20.1371  -12.1911  -19.3692 C   0  0  0  0  0  0  0  0  0  0  0  0
   21.2625  -11.8065  -18.9473 O   0  0  0  0  0  0  0  0  0  0  0  0
   16.5633  -19.3784  -16.6157 C   0  0  0  0  0  0  0  0  0  0  0  0
   18.9408   -7.6109  -20.9209 C   0  0  1  0  0  0  0  0  0  0  0  0
   18.9804   -9.0988  -20.9424 C   0  0  0  0  0  0  0  0  0  0  0  0
   17.6400   -9.7179  -21.3043 C   0  0  2  0  0  0  0  0  0  0  0  0
   19.6088   -9.7505  -19.7544 N   0  0  0  0  0  0  0  0  0  0  0  0
   19.2543  -11.1834  -19.8214 C   0  0  0  0  0  0  0  0  0  0  0  0
   19.3141   -9.1962  -18.4435 O   0  0  0  0  0  0  0  0  0  0  0  0
   18.1557   -9.4531  -17.9508 N   0  0  0  0  0  0  0  0  0  0  0  0
   20.1286   -8.4043  -17.6176 C   0  0  1  0  0  0  0  0  0  0  0  0
   19.7007   -7.8877  -16.3301 C   0  0  0  0  0  0  0  0  0  0  0  0
   20.7957   -8.0016  -15.3000 C   0  0  0  0  0  0  0  0  0  0  0  0
   20.4225   -7.4182  -13.9561 C   0  0  0  0  0  0  0  0  0  0  0  0
   21.7115   -7.3569  -13.1198 C   0  0  0  0  0  0  0  0  0  0  0  0
   21.3167   -6.7841  -11.7790 N   0  0  0  0  0  0  0  0  0  0  0  0
   22.4201   -6.7900  -10.8389 C   0  0  0  0  0  0  0  0  0  0  0  0
   19.1256   -6.5416  -16.4585 O   0  0  0  0  0  0  0  0  0  0  0  0
   19.4809   -5.6503  -17.2333 O   0  0  0  0  0  0  0  0  0  0  0  0
  2  1  1  0
  2  3  2  0
  4  2  1  0
  5  4  1  0
  6  5  1  0
  7  8  1  0
  7  6  1  0
  8  9  1  1
 10  8  1  0
 11 10  2  0
 13 12  1  6
 13 14  1  0
 15 16  1  1
 15 13  1  0
 16 10  1  0
 17 15  1  0
 18 17  2  0
 19 17  1  0
 20 26  1  0
 20 19  1  0
 21 22  1  0
 20 21  1  6
 23 24  1  0
 23 22  1  0
 25 24  1  0
 26 28  1  0
 27 26  2  0
M  END
$$$$
