RVK.pdb
     RDKit          3D

 28 27  0  0  1  0  0  0  0  0999 V2000
   20.1409  -29.0536  -12.0491 N   0  0  0  0  0  0  0  0  0  0  0  0
   19.9658  -27.6713  -11.7032 C   0  0  0  0  0  0  0  0  0  0  0  0
   20.9801  -26.8933  -11.8371 N   0  0  0  0  0  0  0  0  0  0  0  0
   18.7046  -27.2349  -11.2378 N   0  0  0  0  0  0  0  0  0  0  0  0
   18.6075  -26.3633  -10.1044 C   0  0  0  0  0  0  0  0  0  0  0  0
   19.0534  -27.0046   -8.8241 C   0  0  0  0  0  0  0  0  0  0  0  0
   18.1819  -26.7851   -7.6446 C   0  0  0  0  0  0  0  0  0  0  0  0
   18.0103  -25.3556   -7.2047 C   0  0  2  0  0  0  0  0  0  0  0  0
   19.0364  -24.4904   -7.6830 N   0  0  0  0  0  0  0  0  0  0  0  0
   17.9662  -25.3858   -5.7026 C   0  0  0  0  0  0  0  0  0  0  0  0
   19.0314  -25.2351   -5.0430 O   0  0  0  0  0  0  0  0  0  0  0  0
   20.9611  -25.9052  -11.5106 C   0  0  0  0  0  0  0  0  0  0  0  0
   14.2424  -25.4798   -3.4208 C   0  0  1  0  0  0  0  0  0  0  0  0
   15.5105  -24.7647   -3.1099 C   0  0  0  0  0  0  0  0  0  0  0  0
   15.5025  -23.3199   -3.5826 C   0  0  1  0  0  0  0  0  0  0  0  0
   16.7686  -25.4800   -3.4797 N   0  0  0  0  0  0  0  0  0  0  0  0
   16.7819  -25.5771   -4.9541 C   0  0  0  0  0  0  0  0  0  0  0  0
   17.0176  -26.7733   -2.8650 O   0  0  0  0  0  0  0  0  0  0  0  0
   16.5157  -27.8012   -3.4499 N   0  0  0  0  0  0  0  0  0  0  0  0
   17.7436  -27.0706   -1.7001 C   0  0  1  0  0  0  0  0  0  0  0  0
   17.8479  -28.4064   -1.1412 C   0  0  0  0  0  0  0  0  0  0  0  0
   19.2690  -28.9084   -1.1766 C   0  0  0  0  0  0  0  0  0  0  0  0
   19.4233  -30.3196   -0.6563 C   0  0  0  0  0  0  0  0  0  0  0  0
   20.9224  -30.6575   -0.7133 C   0  0  0  0  0  0  0  0  0  0  0  0
   21.0399  -32.1158   -0.3373 N   0  0  0  0  0  0  0  0  0  0  0  0
   22.4216  -32.5458   -0.2518 C   0  0  0  0  0  0  0  0  0  0  0  0
   17.2091  -28.4846    0.1799 O   0  0  0  0  0  0  0  0  0  0  0  0
   16.9848  -27.5523    0.9553 O   0  0  0  0  0  0  0  0  0  0  0  0
  2  1  1  0
  2  3  2  0
  4  2  1  0
  5  4  1  0
  6  5  1  0
  7  8  1  0
  7  6  1  0
  8  9  1  1
 10  8  1  0
 11 10  2  0
 13 12  1  1
 13 14  1  0
 15 16  1  6
 15 13  1  0
 16 10  1  0
 17 15  1  0
 18 17  2  0
 19 17  1  0
 20 26  1  0
 20 19  1  0
 21 22  1  0
 20 21  1  1
 23 24  1  0
 23 22  1  0
 25 24  1  0
 26 28  1  0
 27 26  2  0
M  END
$$$$
