RVK.pdb
     RDKit          3D

 28 27  0  0  1  0  0  0  0  0999 V2000
   31.2715  -24.9611  -16.7461 N   0  0  0  0  0  0  0  0  0  0  0  0
   30.0707  -25.5928  -17.2149 C   0  0  0  0  0  0  0  0  0  0  0  0
   30.0094  -26.8748  -17.1468 N   0  0  0  0  0  0  0  0  0  0  0  0
   29.0256  -24.7882  -17.7229 N   0  0  0  0  0  0  0  0  0  0  0  0
   29.1453  -23.3602  -17.7360 C   0  0  0  0  0  0  0  0  0  0  0  0
   29.3906  -22.7739  -16.3775 C   0  0  0  0  0  0  0  0  0  0  0  0
   28.2564  -22.8348  -15.4244 C   0  0  0  0  0  0  0  0  0  0  0  0
   27.3393  -21.6411  -15.4090 C   0  0  2  0  0  0  0  0  0  0  0  0
   28.0218  -20.4071  -15.2044 N   0  0  0  0  0  0  0  0  0  0  0  0
   26.3329  -21.9045  -14.3242 C   0  0  0  0  0  0  0  0  0  0  0  0
   25.5723  -22.9079  -14.4078 O   0  0  0  0  0  0  0  0  0  0  0  0
   29.1900  -27.4054  -17.5079 C   0  0  0  0  0  0  0  0  0  0  0  0
   24.7556  -20.9879   -9.7006 C   0  0  2  0  0  0  0  0  0  0  0  0
   25.5905  -20.7162  -10.9027 C   0  0  0  0  0  0  0  0  0  0  0  0
   25.9134  -19.2406  -11.0735 C   0  0  2  0  0  0  0  0  0  0  0  0
   25.1280  -21.3509  -12.1733 N   0  0  0  0  0  0  0  0  0  0  0  0
   26.1727  -21.0840  -13.1837 C   0  0  0  0  0  0  0  0  0  0  0  0
   23.8109  -20.9894  -12.6702 O   0  0  0  0  0  0  0  0  0  0  0  0
   23.7084  -19.8626  -13.2790 N   0  0  0  0  0  0  0  0  0  0  0  0
   22.6073  -21.7078  -12.5814 C   0  0  1  0  0  0  0  0  0  0  0  0
   21.3421  -21.2162  -13.0964 C   0  0  0  0  0  0  0  0  0  0  0  0
   20.4150  -22.3505  -13.4528 C   0  0  0  0  0  0  0  0  0  0  0  0
   19.0969  -21.8921  -14.0345 C   0  0  0  0  0  0  0  0  0  0  0  0
   18.3031  -23.1575  -14.3994 C   0  0  0  0  0  0  0  0  0  0  0  0
   17.0087  -22.6798  -15.0145 N   0  0  0  0  0  0  0  0  0  0  0  0
   16.1440  -23.7821  -15.3864 C   0  0  0  0  0  0  0  0  0  0  0  0
   20.7546  -20.2106  -12.2004 O   0  0  0  0  0  0  0  0  0  0  0  0
   20.9505  -20.0867  -10.9891 O   0  0  0  0  0  0  0  0  0  0  0  0
  2  1  1  0
  2  3  2  0
  4  2  1  0
  5  4  1  0
  6  5  1  0
  7  8  1  0
  7  6  1  0
  8  9  1  1
 10  8  1  0
 11 10  2  0
 13 12  1  1
 13 14  1  0
 15 16  1  6
 15 13  1  0
 16 10  1  0
 17 15  1  0
 18 17  2  0
 19 17  1  0
 20 26  1  0
 20 19  1  0
 21 22  1  0
 20 21  1  1
 23 24  1  0
 23 22  1  0
 25 24  1  0
 26 28  1  0
 27 26  2  0
M  END
$$$$
