RVK.pdb
     RDKit          3D

 28 27  0  0  1  0  0  0  0  0999 V2000
   24.4312  -25.0047  -13.9790 N   0  0  0  0  0  0  0  0  0  0  0  0
   23.5864  -24.6312  -15.0780 C   0  0  0  0  0  0  0  0  0  0  0  0
   23.9818  -24.9396  -16.2614 N   0  0  0  0  0  0  0  0  0  0  0  0
   22.3761  -23.9513  -14.8127 N   0  0  0  0  0  0  0  0  0  0  0  0
   21.5718  -24.3088  -13.6817 C   0  0  0  0  0  0  0  0  0  0  0  0
   20.6587  -25.4685  -13.9470 C   0  0  0  0  0  0  0  0  0  0  0  0
   19.7454  -25.8480  -12.8422 C   0  0  0  0  0  0  0  0  0  0  0  0
   20.4022  -26.2548  -11.5501 C   0  0  2  0  0  0  0  0  0  0  0  0
   21.1182  -27.4832  -11.6427 N   0  0  0  0  0  0  0  0  0  0  0  0
   19.3006  -26.3307  -10.5303 C   0  0  0  0  0  0  0  0  0  0  0  0
   18.4671  -27.2768  -10.5802 O   0  0  0  0  0  0  0  0  0  0  0  0
   23.4328  -24.6833  -17.1079 C   0  0  0  0  0  0  0  0  0  0  0  0
   17.6653  -25.1513   -6.0291 C   0  0  1  0  0  0  0  0  0  0  0  0
   18.6213  -25.1840   -7.1696 C   0  0  0  0  0  0  0  0  0  0  0  0
   19.5215  -23.9600   -7.2181 C   0  0  2  0  0  0  0  0  0  0  0  0
   18.0335  -25.5143   -8.5024 N   0  0  0  0  0  0  0  0  0  0  0  0
   19.1265  -25.3900   -9.4890 C   0  0  0  0  0  0  0  0  0  0  0  0
   16.8562  -24.7741   -8.9252 O   0  0  0  0  0  0  0  0  0  0  0  0
   17.0549  -23.6256   -9.4658 N   0  0  0  0  0  0  0  0  0  0  0  0
   15.5035  -25.1390   -8.8282 C   0  0  1  0  0  0  0  0  0  0  0  0
   14.4172  -24.3312   -9.3527 C   0  0  0  0  0  0  0  0  0  0  0  0
   13.2625  -25.1886   -9.8051 C   0  0  0  0  0  0  0  0  0  0  0  0
   12.1334  -24.3998  -10.4285 C   0  0  0  0  0  0  0  0  0  0  0  0
   11.0469  -25.4114  -10.8291 C   0  0  0  0  0  0  0  0  0  0  0  0
   10.0060  -24.6299  -11.5957 N   0  0  0  0  0  0  0  0  0  0  0  0
    8.9376  -25.4798  -12.0831 C   0  0  0  0  0  0  0  0  0  0  0  0
   14.0478  -23.2597   -8.4175 O   0  0  0  0  0  0  0  0  0  0  0  0
   14.2525  -23.2286   -7.2017 O   0  0  0  0  0  0  0  0  0  0  0  0
  2  1  1  0
  2  3  2  0
  4  2  1  0
  5  4  1  0
  6  5  1  0
  7  8  1  0
  7  6  1  0
  8  9  1  6
 10  8  1  0
 11 10  2  0
 13 12  1  1
 13 14  1  0
 15 16  1  6
 15 13  1  0
 16 10  1  0
 17 15  1  0
 18 17  2  0
 19 17  1  0
 20 26  1  0
 20 19  1  0
 21 22  1  0
 20 21  1  1
 23 24  1  0
 23 22  1  0
 25 24  1  0
 26 28  1  0
 27 26  2  0
M  END
$$$$
