DCW.pdb
     RDKit          3D

 29 30  0  0  1  0  0  0  0  0999 V2000
   20.6310  -12.6172  -21.4560 N   0  0  0  0  0  0  0  0  0  0  0  0
   19.8604  -11.4314  -21.2879 C   0  0  1  0  0  0  0  0  0  0  0  0
   18.4130  -11.7267  -20.9824 C   0  0  0  0  0  0  0  0  0  0  0  0
   17.7140  -12.4788  -22.0246 C   0  0  0  0  0  0  0  0  0  0  0  0
   17.6699  -12.1114  -23.2222 O   0  0  0  0  0  0  0  0  0  0  0  0
   20.3765  -10.5274  -20.2193 C   0  0  0  0  0  0  0  0  0  0  0  0
   20.9818  -11.0352  -19.2259 O   0  0  0  0  0  0  0  0  0  0  0  0
   17.0444  -13.6714  -21.7340 O   0  0  0  0  0  0  0  0  0  0  0  0
   20.2507   -9.1344  -20.2114 N   0  0  0  0  0  0  0  0  0  0  0  0
   20.8372   -8.2597  -19.2478 C   0  0  1  0  0  0  0  0  0  0  0  0
   21.7104   -7.1939  -19.7983 C   0  0  0  0  0  0  0  0  0  0  0  0
   20.8285   -6.2454  -21.0395 S   0  0  0  0  0  0  0  0  0  0  0  0
   19.7948   -7.7055  -18.3091 C   0  0  0  0  0  0  0  0  0  0  0  0
   18.6741   -7.3884  -18.7815 O   0  0  0  0  0  0  0  0  0  0  0  0
   20.0098   -7.5243  -16.9327 N   0  0  0  0  0  0  0  0  0  0  0  0
   19.0221   -7.0421  -15.9780 C   0  0  1  0  0  0  0  0  0  0  0  0
   18.4840   -8.1178  -15.1250 C   0  0  0  0  0  0  0  0  0  0  0  0
   19.3702   -8.4461  -13.9995 C   0  0  0  0  0  0  0  0  0  0  0  0
   19.1068   -8.2399  -12.6344 C   0  0  0  0  0  0  0  0  0  0  0  0
   20.1588   -8.6219  -11.8941 N   0  0  0  0  0  0  0  0  0  0  0  0
   21.1314   -9.0830  -12.7083 C   0  0  0  0  0  0  0  0  0  0  0  0
   22.3785   -9.6008  -12.4465 C   0  0  0  0  0  0  0  0  0  0  0  0
   23.1892  -10.0329  -13.4718 C   0  0  0  0  0  0  0  0  0  0  0  0
   22.7200   -9.9333  -14.7647 C   0  0  0  0  0  0  0  0  0  0  0  0
   21.4747   -9.4165  -15.0414 C   0  0  0  0  0  0  0  0  0  0  0  0
   20.6609   -8.9816  -14.0076 C   0  0  0  0  0  0  0  0  0  0  0  0
   19.3853   -5.8290  -15.2918 C   0  0  0  0  0  0  0  0  0  0  0  0
   18.3245   -5.0529  -14.7655 O   0  0  0  0  0  0  0  0  0  0  0  0
   20.5415   -5.4195  -15.1297 O   0  0  0  0  0  0  0  0  0  0  0  0
  2  1  1  1
  3  2  1  0
  4  3  1  0
  5  4  2  0
  6  2  1  0
  7  6  2  0
  8  4  1  0
  9  6  1  0
 10  9  1  0
 10 11  1  6
 12 11  1  0
 13 14  2  0
 13 10  1  0
 15 13  1  0
 16 15  1  0
 16 17  1  1
 18 19  2  0
 18 17  1  0
 20 19  1  0
 21 26  2  0
 21 20  1  0
 22 21  1  0
 23 24  1  0
 23 22  2  0
 24 25  2  0
 25 26  1  0
 26 18  1  0
 27 16  1  0
 28 27  1  0
 29 27  2  0
M  END
$$$$
