DCW.pdb
     RDKit          3D

 29 30  0  0  1  0  0  0  0  0999 V2000
   23.7198  -20.7872  -15.8222 N   0  0  0  0  0  0  0  0  0  0  0  0
   24.2978  -19.6124  -15.2619 C   0  0  1  0  0  0  0  0  0  0  0  0
   23.8649  -18.3603  -15.9833 C   0  0  0  0  0  0  0  0  0  0  0  0
   23.5023  -18.5628  -17.3861 C   0  0  0  0  0  0  0  0  0  0  0  0
   22.3748  -18.2734  -17.8511 O   0  0  0  0  0  0  0  0  0  0  0  0
   23.9982  -19.4296  -13.8119 C   0  0  0  0  0  0  0  0  0  0  0  0
   24.3833  -18.3663  -13.2355 O   0  0  0  0  0  0  0  0  0  0  0  0
   24.4126  -19.1007  -18.3009 O   0  0  0  0  0  0  0  0  0  0  0  0
   23.3140  -20.3472  -13.0080 N   0  0  0  0  0  0  0  0  0  0  0  0
   23.0919  -20.2079  -11.6048 C   0  0  1  0  0  0  0  0  0  0  0  0
   21.8254  -20.7899  -11.0963 C   0  0  0  0  0  0  0  0  0  0  0  0
   20.5521  -19.5296  -11.0075 S   0  0  0  0  0  0  0  0  0  0  0  0
   24.2866  -20.6804  -10.8145 C   0  0  0  0  0  0  0  0  0  0  0  0
   24.8722  -21.7283  -11.1867 O   0  0  0  0  0  0  0  0  0  0  0  0
   24.7806  -20.0106   -9.6828 N   0  0  0  0  0  0  0  0  0  0  0  0
   25.8701  -20.4723   -8.8345 C   0  0  1  0  0  0  0  0  0  0  0  0
   26.9519  -19.4783   -8.7078 C   0  0  0  0  0  0  0  0  0  0  0  0
   28.0932  -19.9782   -7.9284 C   0  0  0  0  0  0  0  0  0  0  0  0
   29.0222  -20.9537   -8.3294 C   0  0  0  0  0  0  0  0  0  0  0  0
   29.9042  -21.1891   -7.3459 N   0  0  0  0  0  0  0  0  0  0  0  0
   29.6088  -20.4061   -6.2869 C   0  0  0  0  0  0  0  0  0  0  0  0
   30.2107  -20.2579   -5.0590 C   0  0  0  0  0  0  0  0  0  0  0  0
   29.7216  -19.3559   -4.1413 C   0  0  0  0  0  0  0  0  0  0  0  0
   28.6156  -18.6069   -4.4838 C   0  0  0  0  0  0  0  0  0  0  0  0
   28.0027  -18.7455   -5.7084 C   0  0  0  0  0  0  0  0  0  0  0  0
   28.4965  -19.6546   -6.6302 C   0  0  0  0  0  0  0  0  0  0  0  0
   25.4566  -21.0994   -7.6057 C   0  0  0  0  0  0  0  0  0  0  0  0
   26.2449  -22.1822   -7.1464 O   0  0  0  0  0  0  0  0  0  0  0  0
   24.4756  -20.7663   -6.9293 O   0  0  0  0  0  0  0  0  0  0  0  0
  2  1  1  6
  3  2  1  0
  4  3  1  0
  5  4  2  0
  6  2  1  0
  7  6  2  0
  8  4  1  0
  9  6  1  0
 10  9  1  0
 10 11  1  1
 12 11  1  0
 13 14  2  0
 13 10  1  0
 15 13  1  0
 16 15  1  0
 16 17  1  1
 18 19  2  0
 18 17  1  0
 20 19  1  0
 21 26  2  0
 21 20  1  0
 22 21  1  0
 23 24  1  0
 23 22  2  0
 24 25  2  0
 25 26  1  0
 26 18  1  0
 27 16  1  0
 28 27  1  0
 29 27  2  0
M  END
$$$$
