DCW.pdb
     RDKit          3D

 29 30  0  0  1  0  0  0  0  0999 V2000
   23.4276  -20.6164  -16.5504 N   0  0  0  0  0  0  0  0  0  0  0  0
   22.2458  -20.3349  -15.8071 C   0  0  1  0  0  0  0  0  0  0  0  0
   21.3128  -21.5185  -15.7439 C   0  0  0  0  0  0  0  0  0  0  0  0
   21.9630  -22.8149  -15.9365 C   0  0  0  0  0  0  0  0  0  0  0  0
   22.4394  -23.1862  -17.0350 O   0  0  0  0  0  0  0  0  0  0  0  0
   22.5093  -19.8871  -14.4087 C   0  0  0  0  0  0  0  0  0  0  0  0
   23.4238  -19.0316  -14.2008 O   0  0  0  0  0  0  0  0  0  0  0  0
   22.0901  -23.7268  -14.8843 O   0  0  0  0  0  0  0  0  0  0  0  0
   21.8231  -20.3358  -13.2756 N   0  0  0  0  0  0  0  0  0  0  0  0
   22.0003  -19.8318  -11.9519 C   0  0  1  0  0  0  0  0  0  0  0  0
   20.7867  -19.8340  -11.0982 C   0  0  0  0  0  0  0  0  0  0  0  0
   21.1787  -19.2261   -9.4567 S   0  0  0  0  0  0  0  0  0  0  0  0
   23.1710  -20.4936  -11.2690 C   0  0  0  0  0  0  0  0  0  0  0  0
   23.2570  -21.7467  -11.3120 O   0  0  0  0  0  0  0  0  0  0  0  0
   24.1722  -19.7830  -10.5861 N   0  0  0  0  0  0  0  0  0  0  0  0
   25.2386  -20.3757   -9.7916 C   0  0  1  0  0  0  0  0  0  0  0  0
   26.3308  -19.4263   -9.5084 C   0  0  0  0  0  0  0  0  0  0  0  0
   27.4770  -20.0622   -8.8438 C   0  0  0  0  0  0  0  0  0  0  0  0
   28.3551  -21.0064   -9.4029 C   0  0  0  0  0  0  0  0  0  0  0  0
   29.2590  -21.3987   -8.4920 N   0  0  0  0  0  0  0  0  0  0  0  0
   29.0278  -20.7529   -7.3296 C   0  0  0  0  0  0  0  0  0  0  0  0
   29.6742  -20.7881   -6.1160 C   0  0  0  0  0  0  0  0  0  0  0  0
   29.2494  -19.9994   -5.0707 C   0  0  0  0  0  0  0  0  0  0  0  0
   28.1619  -19.1756   -5.2711 C   0  0  0  0  0  0  0  0  0  0  0  0
   27.5050  -19.1309   -6.4798 C   0  0  0  0  0  0  0  0  0  0  0  0
   27.9341  -19.9263   -7.5302 C   0  0  0  0  0  0  0  0  0  0  0  0
   24.7928  -21.1614   -8.6699 C   0  0  0  0  0  0  0  0  0  0  0  0
   23.6085  -20.7332   -8.0228 O   0  0  0  0  0  0  0  0  0  0  0  0
   25.3607  -22.1709   -8.2349 O   0  0  0  0  0  0  0  0  0  0  0  0
  2  1  1  1
  3  2  1  0
  4  3  1  0
  5  4  2  0
  6  2  1  0
  7  6  2  0
  8  4  1  0
  9  6  1  0
 10  9  1  0
 10 11  1  1
 12 11  1  0
 13 14  2  0
 13 10  1  0
 15 13  1  0
 16 15  1  0
 16 17  1  1
 18 19  2  0
 18 17  1  0
 20 19  1  0
 21 26  2  0
 21 20  1  0
 22 21  1  0
 23 24  1  0
 23 22  2  0
 24 25  2  0
 25 26  1  0
 26 18  1  0
 27 16  1  0
 28 27  1  0
 29 27  2  0
M  END
$$$$
