DCW.pdb
     RDKit          3D

 29 30  0  0  1  0  0  0  0  0999 V2000
   22.6738  -19.0952  -16.8433 N   0  0  0  0  0  0  0  0  0  0  0  0
   23.6498  -19.7138  -16.0108 C   0  0  1  0  0  0  0  0  0  0  0  0
   25.0578  -19.3436  -16.4056 C   0  0  0  0  0  0  0  0  0  0  0  0
   25.4912  -19.8906  -17.6915 C   0  0  0  0  0  0  0  0  0  0  0  0
   25.0209  -20.9441  -18.1816 O   0  0  0  0  0  0  0  0  0  0  0  0
   23.4860  -19.4020  -14.5612 C   0  0  0  0  0  0  0  0  0  0  0  0
   23.5811  -18.1953  -14.1790 O   0  0  0  0  0  0  0  0  0  0  0  0
   26.4730  -19.2544  -18.4572 O   0  0  0  0  0  0  0  0  0  0  0  0
   23.2308  -20.3425  -13.5579 N   0  0  0  0  0  0  0  0  0  0  0  0
   23.0277  -20.0402  -12.1777 C   0  0  1  0  0  0  0  0  0  0  0  0
   21.6740  -20.3395  -11.6493 C   0  0  0  0  0  0  0  0  0  0  0  0
   21.4825  -22.1042  -11.3904 S   0  0  0  0  0  0  0  0  0  0  0  0
   24.1130  -20.6443  -11.3221 C   0  0  0  0  0  0  0  0  0  0  0  0
   24.3797  -21.8637  -11.4689 O   0  0  0  0  0  0  0  0  0  0  0  0
   24.8430  -19.9157  -10.3682 N   0  0  0  0  0  0  0  0  0  0  0  0
   25.7940  -20.4780   -9.4200 C   0  0  1  0  0  0  0  0  0  0  0  0
   26.9048  -19.5571   -9.1158 C   0  0  0  0  0  0  0  0  0  0  0  0
   27.9315  -20.1696   -8.2611 C   0  0  0  0  0  0  0  0  0  0  0  0
   28.8074  -21.2106   -8.6141 C   0  0  0  0  0  0  0  0  0  0  0  0
   29.5815  -21.5425   -7.5694 N   0  0  0  0  0  0  0  0  0  0  0  0
   29.2638  -20.7621   -6.5150 C   0  0  0  0  0  0  0  0  0  0  0  0
   29.7706  -20.6938   -5.2382 C   0  0  0  0  0  0  0  0  0  0  0  0
   29.2822  -19.7753   -4.3367 C   0  0  0  0  0  0  0  0  0  0  0  0
   28.2743  -18.9277   -4.7456 C   0  0  0  0  0  0  0  0  0  0  0  0
   27.7570  -18.9854   -6.0198 C   0  0  0  0  0  0  0  0  0  0  0  0
   28.2499  -19.9115   -6.9252 C   0  0  0  0  0  0  0  0  0  0  0  0
   25.2000  -21.1311   -8.2821 C   0  0  0  0  0  0  0  0  0  0  0  0
   25.8626  -22.2819   -7.7905 O   0  0  0  0  0  0  0  0  0  0  0  0
   24.1664  -20.7658   -7.7085 O   0  0  0  0  0  0  0  0  0  0  0  0
  2  1  1  6
  3  2  1  0
  4  3  1  0
  5  4  2  0
  6  2  1  0
  7  6  2  0
  8  4  1  0
  9  6  1  0
 10  9  1  0
 10 11  1  1
 12 11  1  0
 13 14  2  0
 13 10  1  0
 15 13  1  0
 16 15  1  0
 16 17  1  1
 18 19  2  0
 18 17  1  0
 20 19  1  0
 21 26  2  0
 21 20  1  0
 22 21  1  0
 23 24  1  0
 23 22  2  0
 24 25  2  0
 25 26  1  0
 26 18  1  0
 27 16  1  0
 28 27  1  0
 29 27  2  0
M  END
$$$$
