DCW.pdb
     RDKit          3D

 29 30  0  0  1  0  0  0  0  0999 V2000
   37.4689  -16.0893  -21.3016 N   0  0  0  0  0  0  0  0  0  0  0  0
   36.0615  -16.1805  -21.1030 C   0  0  1  0  0  0  0  0  0  0  0  0
   35.6896  -17.2690  -20.1271 C   0  0  0  0  0  0  0  0  0  0  0  0
   36.0433  -18.6205  -20.5616 C   0  0  0  0  0  0  0  0  0  0  0  0
   36.8034  -19.3734  -19.9084 O   0  0  0  0  0  0  0  0  0  0  0  0
   35.4393  -14.9105  -20.6282 C   0  0  0  0  0  0  0  0  0  0  0  0
   36.1935  -13.9474  -20.2893 O   0  0  0  0  0  0  0  0  0  0  0  0
   35.5422  -19.1547  -21.7526 O   0  0  0  0  0  0  0  0  0  0  0  0
   34.0645  -14.6778  -20.5188 N   0  0  0  0  0  0  0  0  0  0  0  0
   33.4511  -13.3920  -20.4298 C   0  0  1  0  0  0  0  0  0  0  0  0
   33.8050  -12.4378  -21.5095 C   0  0  0  0  0  0  0  0  0  0  0  0
   32.9000  -10.9025  -21.3054 S   0  0  0  0  0  0  0  0  0  0  0  0
   31.9583  -13.5115  -20.2502 C   0  0  0  0  0  0  0  0  0  0  0  0
   31.3027  -14.1506  -21.1112 O   0  0  0  0  0  0  0  0  0  0  0  0
   31.2604  -12.9457  -19.1703 N   0  0  0  0  0  0  0  0  0  0  0  0
   29.8346  -13.0917  -18.9142 C   0  0  1  0  0  0  0  0  0  0  0  0
   29.4228  -12.4887  -17.6331 C   0  0  0  0  0  0  0  0  0  0  0  0
   29.5733  -11.0268  -17.6201 C   0  0  0  0  0  0  0  0  0  0  0  0
   28.5877  -10.0775  -17.9407 C   0  0  0  0  0  0  0  0  0  0  0  0
   29.0920   -8.8366  -17.8587 N   0  0  0  0  0  0  0  0  0  0  0  0
   30.3889   -8.9071  -17.4919 C   0  0  0  0  0  0  0  0  0  0  0  0
   31.3299   -7.9323  -17.2550 C   0  0  0  0  0  0  0  0  0  0  0  0
   32.6050   -8.2679  -16.8598 C   0  0  0  0  0  0  0  0  0  0  0  0
   32.9140   -9.6032  -16.7078 C   0  0  0  0  0  0  0  0  0  0  0  0
   31.9827  -10.5893  -16.9422 C   0  0  0  0  0  0  0  0  0  0  0  0
   30.7000  -10.2488  -17.3408 C   0  0  0  0  0  0  0  0  0  0  0  0
   28.9844  -12.7994  -20.0394 C   0  0  0  0  0  0  0  0  0  0  0  0
   29.5459  -12.0138  -21.0749 O   0  0  0  0  0  0  0  0  0  0  0  0
   27.8139  -13.1794  -20.1672 O   0  0  0  0  0  0  0  0  0  0  0  0
  2  1  1  1
  3  2  1  0
  4  3  1  0
  5  4  2  0
  6  2  1  0
  7  6  2  0
  8  4  1  0
  9  6  1  0
 10  9  1  0
 10 11  1  6
 12 11  1  0
 13 14  2  0
 13 10  1  0
 15 13  1  0
 16 15  1  0
 16 17  1  1
 18 19  2  0
 18 17  1  0
 20 19  1  0
 21 26  2  0
 21 20  1  0
 22 21  1  0
 23 24  1  0
 23 22  2  0
 24 25  2  0
 25 26  1  0
 26 18  1  0
 27 16  1  0
 28 27  1  0
 29 27  2  0
M  END
$$$$
