DCW.pdb
     RDKit          3D

 29 30  0  0  1  0  0  0  0  0999 V2000
   28.0894  -20.9486  -15.6759 N   0  0  0  0  0  0  0  0  0  0  0  0
   27.3769  -20.1821  -14.7099 C   0  0  1  0  0  0  0  0  0  0  0  0
   26.6522  -19.0121  -15.3275 C   0  0  0  0  0  0  0  0  0  0  0  0
   27.5279  -17.9868  -15.8951 C   0  0  0  0  0  0  0  0  0  0  0  0
   28.3738  -18.2261  -16.7888 O   0  0  0  0  0  0  0  0  0  0  0  0
   26.3818  -20.9748  -13.9308 C   0  0  0  0  0  0  0  0  0  0  0  0
   25.9117  -22.0386  -14.4394 O   0  0  0  0  0  0  0  0  0  0  0  0
   27.4666  -16.6588  -15.4620 O   0  0  0  0  0  0  0  0  0  0  0  0
   25.9064  -20.6442  -12.6576 N   0  0  0  0  0  0  0  0  0  0  0  0
   24.9795  -21.4191  -11.8975 C   0  0  1  0  0  0  0  0  0  0  0  0
   25.2522  -21.4960  -10.4411 C   0  0  0  0  0  0  0  0  0  0  0  0
   25.8559  -19.9188   -9.8363 S   0  0  0  0  0  0  0  0  0  0  0  0
   23.5581  -21.0034  -12.1836 C   0  0  0  0  0  0  0  0  0  0  0  0
   23.1111  -19.9749  -11.6160 O   0  0  0  0  0  0  0  0  0  0  0  0
   22.7057  -21.7053  -13.0519 N   0  0  0  0  0  0  0  0  0  0  0  0
   21.2883  -21.4360  -13.2476 C   0  0  1  0  0  0  0  0  0  0  0  0
   21.0080  -20.7763  -14.5362 C   0  0  0  0  0  0  0  0  0  0  0  0
   21.5005  -19.3925  -14.5840 C   0  0  0  0  0  0  0  0  0  0  0  0
   22.6577  -18.9341  -15.2368 C   0  0  0  0  0  0  0  0  0  0  0  0
   22.8165  -17.6173  -15.0336 N   0  0  0  0  0  0  0  0  0  0  0  0
   21.8057  -17.1610  -14.2644 C   0  0  0  0  0  0  0  0  0  0  0  0
   21.5044  -15.9032  -13.7963 C   0  0  0  0  0  0  0  0  0  0  0  0
   20.3787  -15.6885  -13.0336 C   0  0  0  0  0  0  0  0  0  0  0  0
   19.5631  -16.7641  -12.7517 C   0  0  0  0  0  0  0  0  0  0  0  0
   19.8529  -18.0282  -13.2126 C   0  0  0  0  0  0  0  0  0  0  0  0
   20.9870  -18.2419  -13.9795 C   0  0  0  0  0  0  0  0  0  0  0  0
   20.4120  -22.5264  -12.9050 C   0  0  0  0  0  0  0  0  0  0  0  0
   19.0341  -22.2230  -12.7859 O   0  0  0  0  0  0  0  0  0  0  0  0
   20.7691  -23.6948  -12.7097 O   0  0  0  0  0  0  0  0  0  0  0  0
  2  1  1  6
  3  2  1  0
  4  3  1  0
  5  4  2  0
  6  2  1  0
  7  6  2  0
  8  4  1  0
  9  6  1  0
 10  9  1  0
 10 11  1  1
 12 11  1  0
 13 14  2  0
 13 10  1  0
 15 13  1  0
 16 15  1  0
 16 17  1  6
 18 19  2  0
 18 17  1  0
 20 19  1  0
 21 26  2  0
 21 20  1  0
 22 21  1  0
 23 24  1  0
 23 22  2  0
 24 25  2  0
 25 26  1  0
 26 18  1  0
 27 16  1  0
 28 27  1  0
 29 27  2  0
M  END
$$$$
