DCW.pdb
     RDKit          3D

 29 30  0  0  1  0  0  0  0  0999 V2000
   26.3396  -18.7734  -16.9963 N   0  0  0  0  0  0  0  0  0  0  0  0
   27.0588  -18.7699  -15.7671 C   0  0  1  0  0  0  0  0  0  0  0  0
   27.8000  -17.4759  -15.5401 C   0  0  0  0  0  0  0  0  0  0  0  0
   28.7421  -17.1219  -16.6020 C   0  0  0  0  0  0  0  0  0  0  0  0
   28.9228  -17.8285  -17.6215 O   0  0  0  0  0  0  0  0  0  0  0  0
   26.2032  -19.0209  -14.5710 C   0  0  0  0  0  0  0  0  0  0  0  0
   25.4782  -18.0782  -14.1270 O   0  0  0  0  0  0  0  0  0  0  0  0
   29.5063  -15.9529  -16.5346 O   0  0  0  0  0  0  0  0  0  0  0  0
   26.1250  -20.2317  -13.8752 N   0  0  0  0  0  0  0  0  0  0  0  0
   25.2235  -20.5095  -12.8039 C   0  0  1  0  0  0  0  0  0  0  0  0
   24.1306  -21.4627  -13.1178 C   0  0  0  0  0  0  0  0  0  0  0  0
   23.9838  -21.6798  -14.8924 S   0  0  0  0  0  0  0  0  0  0  0  0
   25.9687  -20.8989  -11.5518 C   0  0  0  0  0  0  0  0  0  0  0  0
   26.5485  -22.0137  -11.5242 O   0  0  0  0  0  0  0  0  0  0  0  0
   26.0495  -20.0809  -10.4125 N   0  0  0  0  0  0  0  0  0  0  0  0
   26.0187  -20.5453   -9.0330 C   0  0  1  0  0  0  0  0  0  0  0  0
   26.6214  -19.5803   -8.0950 C   0  0  0  0  0  0  0  0  0  0  0  0
   27.8961  -20.0525   -7.5365 C   0  0  0  0  0  0  0  0  0  0  0  0
   28.7580  -21.0087   -8.1005 C   0  0  0  0  0  0  0  0  0  0  0  0
   29.8092  -21.2216   -7.2941 N   0  0  0  0  0  0  0  0  0  0  0  0
   29.6941  -20.4418   -6.1985 C   0  0  0  0  0  0  0  0  0  0  0  0
   30.5057  -20.2764   -5.1004 C   0  0  0  0  0  0  0  0  0  0  0  0
   30.1719  -19.3823   -4.1083 C   0  0  0  0  0  0  0  0  0  0  0  0
   29.0058  -18.6588   -4.2433 C   0  0  0  0  0  0  0  0  0  0  0  0
   28.1837  -18.8148   -5.3362 C   0  0  0  0  0  0  0  0  0  0  0  0
   28.5215  -19.7159   -6.3331 C   0  0  0  0  0  0  0  0  0  0  0  0
   24.7647  -21.1171   -8.6147 C   0  0  0  0  0  0  0  0  0  0  0  0
   23.6423  -20.8635   -9.4396 O   0  0  0  0  0  0  0  0  0  0  0  0
   24.5972  -21.8054   -7.6003 O   0  0  0  0  0  0  0  0  0  0  0  0
  2  1  1  6
  3  2  1  0
  4  3  1  0
  5  4  2  0
  6  2  1  0
  7  6  2  0
  8  4  1  0
  9  6  1  0
 10  9  1  0
 10 11  1  6
 12 11  1  0
 13 14  2  0
 13 10  1  0
 15 13  1  0
 16 15  1  0
 16 17  1  1
 18 19  2  0
 18 17  1  0
 20 19  1  0
 21 26  2  0
 21 20  1  0
 22 21  1  0
 23 24  1  0
 23 22  2  0
 24 25  2  0
 25 26  1  0
 26 18  1  0
 27 16  1  0
 28 27  1  0
 29 27  2  0
M  END
$$$$
