DCW.pdb
     RDKit          3D

 29 30  0  0  1  0  0  0  0  0999 V2000
   18.1972  -10.1507  -18.9102 N   0  0  0  0  0  0  0  0  0  0  0  0
   18.5710   -9.6588  -17.6271 C   0  0  1  0  0  0  0  0  0  0  0  0
   18.8916   -8.1849  -17.6492 C   0  0  0  0  0  0  0  0  0  0  0  0
   20.0630   -7.8306  -18.4509 C   0  0  0  0  0  0  0  0  0  0  0  0
   20.7740   -8.6798  -19.0380 O   0  0  0  0  0  0  0  0  0  0  0  0
   17.5387   -9.8849  -16.5741 C   0  0  0  0  0  0  0  0  0  0  0  0
   16.3490   -9.4978  -16.7885 O   0  0  0  0  0  0  0  0  0  0  0  0
   20.4596   -6.4990  -18.6077 O   0  0  0  0  0  0  0  0  0  0  0  0
   17.7679  -10.5004  -15.3392 N   0  0  0  0  0  0  0  0  0  0  0  0
   16.7581  -10.8485  -14.3923 C   0  0  1  0  0  0  0  0  0  0  0  0
   16.6140  -12.2988  -14.1140 C   0  0  0  0  0  0  0  0  0  0  0  0
   15.3499  -12.5721  -12.8710 S   0  0  0  0  0  0  0  0  0  0  0  0
   16.8984  -10.0427  -13.1250 C   0  0  0  0  0  0  0  0  0  0  0  0
   17.9498  -10.1717  -12.4487 O   0  0  0  0  0  0  0  0  0  0  0  0
   15.9149   -9.1541  -12.6594 N   0  0  0  0  0  0  0  0  0  0  0  0
   15.9227   -8.4850  -11.3663 C   0  0  1  0  0  0  0  0  0  0  0  0
   14.8018   -7.5398  -11.2091 C   0  0  0  0  0  0  0  0  0  0  0  0
   14.7804   -6.9004   -9.8860 C   0  0  0  0  0  0  0  0  0  0  0  0
   15.6870   -5.9424   -9.4006 C   0  0  0  0  0  0  0  0  0  0  0  0
   15.3832   -5.6123   -8.1359 N   0  0  0  0  0  0  0  0  0  0  0  0
   14.2987   -6.3125   -7.7419 C   0  0  0  0  0  0  0  0  0  0  0  0
   13.5916   -6.3224   -6.5621 C   0  0  0  0  0  0  0  0  0  0  0  0
   12.4833   -7.1253   -6.4140 C   0  0  0  0  0  0  0  0  0  0  0  0
   12.1013   -7.9175   -7.4761 C   0  0  0  0  0  0  0  0  0  0  0  0
   12.7999   -7.9184   -8.6621 C   0  0  0  0  0  0  0  0  0  0  0  0
   13.9157   -7.1098   -8.8084 C   0  0  0  0  0  0  0  0  0  0  0  0
   16.1697   -9.3476  -10.2398 C   0  0  0  0  0  0  0  0  0  0  0  0
   15.4520  -10.5675  -10.2021 O   0  0  0  0  0  0  0  0  0  0  0  0
   16.9533   -9.1051   -9.3135 O   0  0  0  0  0  0  0  0  0  0  0  0
  2  1  1  6
  3  2  1  0
  4  3  1  0
  5  4  2  0
  6  2  1  0
  7  6  2  0
  8  4  1  0
  9  6  1  0
 10  9  1  0
 10 11  1  1
 12 11  1  0
 13 14  2  0
 13 10  1  0
 15 13  1  0
 16 15  1  0
 16 17  1  1
 18 19  2  0
 18 17  1  0
 20 19  1  0
 21 26  2  0
 21 20  1  0
 22 21  1  0
 23 24  1  0
 23 22  2  0
 24 25  2  0
 25 26  1  0
 26 18  1  0
 27 16  1  0
 28 27  1  0
 29 27  2  0
M  END
$$$$
