DCW.pdb
     RDKit          3D

 29 30  0  0  1  0  0  0  0  0999 V2000
   26.8277  -21.3210  -18.1180 N   0  0  0  0  0  0  0  0  0  0  0  0
   26.8122  -20.3675  -17.0603 C   0  0  1  0  0  0  0  0  0  0  0  0
   25.5863  -19.4893  -17.0979 C   0  0  0  0  0  0  0  0  0  0  0  0
   25.4977  -18.6208  -18.2719 C   0  0  0  0  0  0  0  0  0  0  0  0
   26.4890  -18.0354  -18.7677 O   0  0  0  0  0  0  0  0  0  0  0  0
   26.8940  -20.9778  -15.7015 C   0  0  0  0  0  0  0  0  0  0  0  0
   26.0487  -21.8673  -15.3769 O   0  0  0  0  0  0  0  0  0  0  0  0
   24.2778  -18.3931  -18.9161 O   0  0  0  0  0  0  0  0  0  0  0  0
   27.8419  -20.6507  -14.7264 N   0  0  0  0  0  0  0  0  0  0  0  0
   27.8827  -21.1874  -13.4043 C   0  0  1  0  0  0  0  0  0  0  0  0
   29.1976  -21.1080  -12.7215 C   0  0  0  0  0  0  0  0  0  0  0  0
   29.7624  -19.4068  -12.6533 S   0  0  0  0  0  0  0  0  0  0  0  0
   26.7710  -20.6257  -12.5537 C   0  0  0  0  0  0  0  0  0  0  0  0
   26.4234  -19.4320  -12.7374 O   0  0  0  0  0  0  0  0  0  0  0  0
   26.1022  -21.3667  -11.5652 N   0  0  0  0  0  0  0  0  0  0  0  0
   25.0860  -20.8479  -10.6609 C   0  0  1  0  0  0  0  0  0  0  0  0
   23.7613  -21.4551  -10.8865 C   0  0  0  0  0  0  0  0  0  0  0  0
   23.0677  -20.8869  -12.0509 C   0  0  0  0  0  0  0  0  0  0  0  0
   23.2551  -21.2434  -13.3974 C   0  0  0  0  0  0  0  0  0  0  0  0
   22.4811  -20.4877  -14.1914 N   0  0  0  0  0  0  0  0  0  0  0  0
   21.7707  -19.6276  -13.4317 C   0  0  0  0  0  0  0  0  0  0  0  0
   20.8360  -18.6723  -13.7569 C   0  0  0  0  0  0  0  0  0  0  0  0
   20.2238  -17.9258  -12.7756 C   0  0  0  0  0  0  0  0  0  0  0  0
   20.5709  -18.1597  -11.4617 C   0  0  0  0  0  0  0  0  0  0  0  0
   21.5051  -19.1116  -11.1219 C   0  0  0  0  0  0  0  0  0  0  0  0
   22.1205  -19.8612  -12.1115 C   0  0  0  0  0  0  0  0  0  0  0  0
   25.4957  -20.7463   -9.2839 C   0  0  0  0  0  0  0  0  0  0  0  0
   26.8139  -21.1640   -8.9791 O   0  0  0  0  0  0  0  0  0  0  0  0
   24.7903  -20.3260   -8.3584 O   0  0  0  0  0  0  0  0  0  0  0  0
  2  1  1  6
  3  2  1  0
  4  3  1  0
  5  4  2  0
  6  2  1  0
  7  6  2  0
  8  4  1  0
  9  6  1  0
 10  9  1  0
 10 11  1  1
 12 11  1  0
 13 14  2  0
 13 10  1  0
 15 13  1  0
 16 15  1  0
 16 17  1  1
 18 19  2  0
 18 17  1  0
 20 19  1  0
 21 26  2  0
 21 20  1  0
 22 21  1  0
 23 24  1  0
 23 22  2  0
 24 25  2  0
 25 26  1  0
 26 18  1  0
 27 16  1  0
 28 27  1  0
 29 27  2  0
M  END
$$$$
