DCW.pdb
     RDKit          3D

 29 30  0  0  1  0  0  0  0  0999 V2000
   28.1119  -21.0069  -15.6851 N   0  0  0  0  0  0  0  0  0  0  0  0
   27.6558  -20.2764  -14.5509 C   0  0  1  0  0  0  0  0  0  0  0  0
   26.9422  -19.0047  -14.9370 C   0  0  0  0  0  0  0  0  0  0  0  0
   27.7637  -18.0497  -15.6810 C   0  0  0  0  0  0  0  0  0  0  0  0
   28.8422  -18.3619  -16.2385 O   0  0  0  0  0  0  0  0  0  0  0  0
   26.7476  -21.0563  -13.6607 C   0  0  0  0  0  0  0  0  0  0  0  0
   25.8907  -21.8313  -14.1864 O   0  0  0  0  0  0  0  0  0  0  0  0
   27.3817  -16.7112  -15.8124 O   0  0  0  0  0  0  0  0  0  0  0  0
   26.7537  -21.0103  -12.2628 N   0  0  0  0  0  0  0  0  0  0  0  0
   25.6536  -21.3578  -11.4223 C   0  0  1  0  0  0  0  0  0  0  0  0
   25.9235  -21.3146   -9.9640 C   0  0  0  0  0  0  0  0  0  0  0  0
   26.0001  -19.6152   -9.3947 S   0  0  0  0  0  0  0  0  0  0  0  0
   24.4181  -20.5748  -11.7903 C   0  0  0  0  0  0  0  0  0  0  0  0
   24.4935  -19.3206  -11.8219 O   0  0  0  0  0  0  0  0  0  0  0  0
   23.1855  -21.1733  -12.1000 N   0  0  0  0  0  0  0  0  0  0  0  0
   22.1775  -20.6214  -12.9940 C   0  0  1  0  0  0  0  0  0  0  0  0
   22.7514  -20.1180  -14.2556 C   0  0  0  0  0  0  0  0  0  0  0  0
   21.7517  -19.4658  -15.1130 C   0  0  0  0  0  0  0  0  0  0  0  0
   21.1066  -18.2410  -14.8700 C   0  0  0  0  0  0  0  0  0  0  0  0
   20.2258  -17.9765  -15.8471 N   0  0  0  0  0  0  0  0  0  0  0  0
   20.2486  -18.9797  -16.7498 C   0  0  0  0  0  0  0  0  0  0  0  0
   19.5594  -19.1733  -17.9242 C   0  0  0  0  0  0  0  0  0  0  0  0
   19.7842  -20.2917  -18.6946 C   0  0  0  0  0  0  0  0  0  0  0  0
   20.7157  -21.2107  -18.2595 C   0  0  0  0  0  0  0  0  0  0  0  0
   21.4120  -21.0304  -17.0860 C   0  0  0  0  0  0  0  0  0  0  0  0
   21.1833  -19.9040  -16.3120 C   0  0  0  0  0  0  0  0  0  0  0  0
   20.9861  -21.4192  -13.1290 C   0  0  0  0  0  0  0  0  0  0  0  0
   21.1695  -22.8052  -13.3528 O   0  0  0  0  0  0  0  0  0  0  0  0
   19.8278  -20.9889  -13.0645 O   0  0  0  0  0  0  0  0  0  0  0  0
  2  1  1  6
  3  2  1  0
  4  3  1  0
  5  4  2  0
  6  2  1  0
  7  6  2  0
  8  4  1  0
  9  6  1  0
 10  9  1  0
 10 11  1  1
 12 11  1  0
 13 14  2  0
 13 10  1  0
 15 13  1  0
 16 15  1  0
 16 17  1  6
 18 19  2  0
 18 17  1  0
 20 19  1  0
 21 26  2  0
 21 20  1  0
 22 21  1  0
 23 24  1  0
 23 22  2  0
 24 25  2  0
 25 26  1  0
 26 18  1  0
 27 16  1  0
 28 27  1  0
 29 27  2  0
M  END
$$$$
