DCW.pdb
     RDKit          3D

 29 30  0  0  1  0  0  0  0  0999 V2000
   21.0803  -21.5402  -16.1491 N   0  0  0  0  0  0  0  0  0  0  0  0
   22.1570  -20.6092  -16.0998 C   0  0  1  0  0  0  0  0  0  0  0  0
   22.0054  -19.5031  -17.1142 C   0  0  0  0  0  0  0  0  0  0  0  0
   23.1329  -18.5725  -17.1705 C   0  0  0  0  0  0  0  0  0  0  0  0
   24.1755  -18.7172  -16.4897 O   0  0  0  0  0  0  0  0  0  0  0  0
   22.3427  -19.9776  -14.7611 C   0  0  0  0  0  0  0  0  0  0  0  0
   22.0639  -18.7474  -14.6196 O   0  0  0  0  0  0  0  0  0  0  0  0
   23.1067  -17.4498  -18.0033 O   0  0  0  0  0  0  0  0  0  0  0  0
   22.8088  -20.6341  -13.6174 N   0  0  0  0  0  0  0  0  0  0  0  0
   22.8046  -20.0919  -12.2970 C   0  0  1  0  0  0  0  0  0  0  0  0
   21.4867  -20.0763  -11.6155 C   0  0  0  0  0  0  0  0  0  0  0  0
   20.9631  -21.7489  -11.2333 S   0  0  0  0  0  0  0  0  0  0  0  0
   23.8730  -20.7281  -11.4433 C   0  0  0  0  0  0  0  0  0  0  0  0
   24.0048  -21.9773  -11.4843 O   0  0  0  0  0  0  0  0  0  0  0  0
   24.7301  -19.9978  -10.6034 N   0  0  0  0  0  0  0  0  0  0  0  0
   25.7084  -20.5693   -9.6890 C   0  0  1  0  0  0  0  0  0  0  0  0
   26.8562  -19.6742   -9.4531 C   0  0  0  0  0  0  0  0  0  0  0  0
   27.9029  -20.2985   -8.6317 C   0  0  0  0  0  0  0  0  0  0  0  0
   28.8423  -21.2556   -9.0522 C   0  0  0  0  0  0  0  0  0  0  0  0
   29.6176  -21.6307   -8.0232 N   0  0  0  0  0  0  0  0  0  0  0  0
   29.2393  -20.9610   -6.9142 C   0  0  0  0  0  0  0  0  0  0  0  0
   29.7213  -20.9725   -5.6260 C   0  0  0  0  0  0  0  0  0  0  0  0
   29.1671  -20.1619   -4.6613 C   0  0  0  0  0  0  0  0  0  0  0  0
   28.1189  -19.3403   -5.0186 C   0  0  0  0  0  0  0  0  0  0  0  0
   27.6258  -19.3191   -6.3035 C   0  0  0  0  0  0  0  0  0  0  0  0
   28.1849  -20.1366   -7.2726 C   0  0  0  0  0  0  0  0  0  0  0  0
   25.1502  -21.1858   -8.5132 C   0  0  0  0  0  0  0  0  0  0  0  0
   25.7334  -22.4068   -8.0963 O   0  0  0  0  0  0  0  0  0  0  0  0
   24.2104  -20.7332   -7.8479 O   0  0  0  0  0  0  0  0  0  0  0  0
  2  1  1  1
  3  2  1  0
  4  3  1  0
  5  4  2  0
  6  2  1  0
  7  6  2  0
  8  4  1  0
  9  6  1  0
 10  9  1  0
 10 11  1  1
 12 11  1  0
 13 14  2  0
 13 10  1  0
 15 13  1  0
 16 15  1  0
 16 17  1  1
 18 19  2  0
 18 17  1  0
 20 19  1  0
 21 26  2  0
 21 20  1  0
 22 21  1  0
 23 24  1  0
 23 22  2  0
 24 25  2  0
 25 26  1  0
 26 18  1  0
 27 16  1  0
 28 27  1  0
 29 27  2  0
M  END
$$$$
