DCW.pdb
     RDKit          3D

 29 30  0  0  1  0  0  0  0  0999 V2000
   18.6165  -23.2540  -14.0954 N   0  0  0  0  0  0  0  0  0  0  0  0
   19.5087  -22.4447  -14.8553 C   0  0  1  0  0  0  0  0  0  0  0  0
   18.8769  -21.1448  -15.2872 C   0  0  0  0  0  0  0  0  0  0  0  0
   18.0328  -21.2465  -16.4779 C   0  0  0  0  0  0  0  0  0  0  0  0
   16.9735  -20.5926  -16.6248 O   0  0  0  0  0  0  0  0  0  0  0  0
   20.7782  -22.1196  -14.1425 C   0  0  0  0  0  0  0  0  0  0  0  0
   20.7203  -21.4790  -13.0481 O   0  0  0  0  0  0  0  0  0  0  0  0
   18.3697  -22.0957  -17.5363 O   0  0  0  0  0  0  0  0  0  0  0  0
   22.0606  -22.4648  -14.5814 N   0  0  0  0  0  0  0  0  0  0  0  0
   23.2671  -22.2522  -13.8488 C   0  0  1  0  0  0  0  0  0  0  0  0
   23.9658  -23.4802  -13.3957 C   0  0  0  0  0  0  0  0  0  0  0  0
   24.3385  -24.5375  -14.7960 S   0  0  0  0  0  0  0  0  0  0  0  0
   24.1930  -21.3156  -14.5838 C   0  0  0  0  0  0  0  0  0  0  0  0
   24.1623  -21.3097  -15.8403 O   0  0  0  0  0  0  0  0  0  0  0  0
   25.0896  -20.4480  -13.9381 N   0  0  0  0  0  0  0  0  0  0  0  0
   26.1538  -19.6948  -14.5862 C   0  0  1  0  0  0  0  0  0  0  0  0
   26.9669  -18.9220  -13.6292 C   0  0  0  0  0  0  0  0  0  0  0  0
   27.5006  -19.7509  -12.5392 C   0  0  0  0  0  0  0  0  0  0  0  0
   28.7682  -20.3557  -12.4865 C   0  0  0  0  0  0  0  0  0  0  0  0
   28.8962  -21.0714  -11.3587 N   0  0  0  0  0  0  0  0  0  0  0  0
   27.7584  -20.9748  -10.6392 C   0  0  0  0  0  0  0  0  0  0  0  0
   27.3965  -21.4982   -9.4197 C   0  0  0  0  0  0  0  0  0  0  0  0
   26.1604  -21.2273   -8.8779 C   0  0  0  0  0  0  0  0  0  0  0  0
   25.2965  -20.4198   -9.5874 C   0  0  0  0  0  0  0  0  0  0  0  0
   25.6450  -19.8901  -10.8090 C   0  0  0  0  0  0  0  0  0  0  0  0
   26.8896  -20.1649  -11.3526 C   0  0  0  0  0  0  0  0  0  0  0  0
   26.8949  -20.4272  -15.5805 C   0  0  0  0  0  0  0  0  0  0  0  0
   27.3473  -19.6955  -16.7050 O   0  0  0  0  0  0  0  0  0  0  0  0
   27.1628  -21.6339  -15.5258 O   0  0  0  0  0  0  0  0  0  0  0  0
  2  1  1  1
  3  2  1  0
  4  3  1  0
  5  4  2  0
  6  2  1  0
  7  6  2  0
  8  4  1  0
  9  6  1  0
 10  9  1  0
 10 11  1  6
 12 11  1  0
 13 14  2  0
 13 10  1  0
 15 13  1  0
 16 15  1  0
 16 17  1  1
 18 19  2  0
 18 17  1  0
 20 19  1  0
 21 26  2  0
 21 20  1  0
 22 21  1  0
 23 24  1  0
 23 22  2  0
 24 25  2  0
 25 26  1  0
 26 18  1  0
 27 16  1  0
 28 27  1  0
 29 27  2  0
M  END
$$$$
