DCW.pdb
     RDKit          3D

 29 30  0  0  1  0  0  0  0  0999 V2000
   27.8897  -21.6770  -15.6847 N   0  0  0  0  0  0  0  0  0  0  0  0
   27.2960  -20.6574  -14.8869 C   0  0  1  0  0  0  0  0  0  0  0  0
   26.6933  -19.5546  -15.7213 C   0  0  0  0  0  0  0  0  0  0  0  0
   27.6526  -18.8331  -16.5577 C   0  0  0  0  0  0  0  0  0  0  0  0
   27.8235  -19.0813  -17.7744 O   0  0  0  0  0  0  0  0  0  0  0  0
   26.2383  -21.1592  -13.9622 C   0  0  0  0  0  0  0  0  0  0  0  0
   25.2356  -21.7663  -14.4492 O   0  0  0  0  0  0  0  0  0  0  0  0
   28.4455  -17.8077  -16.0335 O   0  0  0  0  0  0  0  0  0  0  0  0
   26.2505  -21.0178  -12.5707 N   0  0  0  0  0  0  0  0  0  0  0  0
   25.1710  -21.3532  -11.6992 C   0  0  1  0  0  0  0  0  0  0  0  0
   25.5324  -21.5299  -10.2710 C   0  0  0  0  0  0  0  0  0  0  0  0
   26.6603  -20.2362   -9.7492 S   0  0  0  0  0  0  0  0  0  0  0  0
   24.0137  -20.4018  -11.8741 C   0  0  0  0  0  0  0  0  0  0  0  0
   24.2635  -19.1802  -12.0317 O   0  0  0  0  0  0  0  0  0  0  0  0
   22.6691  -20.8088  -11.8701 N   0  0  0  0  0  0  0  0  0  0  0  0
   21.6735  -20.4509  -12.8704 C   0  0  1  0  0  0  0  0  0  0  0  0
   22.2175  -20.4571  -14.2410 C   0  0  0  0  0  0  0  0  0  0  0  0
   21.2543  -19.9645  -15.2357 C   0  0  0  0  0  0  0  0  0  0  0  0
   20.3743  -18.8787  -15.0877 C   0  0  0  0  0  0  0  0  0  0  0  0
   19.6128  -18.7434  -16.1844 N   0  0  0  0  0  0  0  0  0  0  0  0
   19.9443  -19.7004  -17.0766 C   0  0  0  0  0  0  0  0  0  0  0  0
   19.4791  -19.9767  -18.3412 C   0  0  0  0  0  0  0  0  0  0  0  0
   20.0083  -21.0157  -19.0728 C   0  0  0  0  0  0  0  0  0  0  0  0
   21.0140  -21.7705  -18.5067 C   0  0  0  0  0  0  0  0  0  0  0  0
   21.4885  -21.5059  -17.2421 C   0  0  0  0  0  0  0  0  0  0  0  0
   20.9536  -20.4599  -16.5073 C   0  0  0  0  0  0  0  0  0  0  0  0
   20.3942  -21.0921  -12.7076 C   0  0  0  0  0  0  0  0  0  0  0  0
   20.3661  -22.5012  -12.8428 O   0  0  0  0  0  0  0  0  0  0  0  0
   19.3305  -20.5102  -12.4610 O   0  0  0  0  0  0  0  0  0  0  0  0
  2  1  1  6
  3  2  1  0
  4  3  1  0
  5  4  2  0
  6  2  1  0
  7  6  2  0
  8  4  1  0
  9  6  1  0
 10  9  1  0
 10 11  1  1
 12 11  1  0
 13 14  2  0
 13 10  1  0
 15 13  1  0
 16 15  1  0
 16 17  1  6
 18 19  2  0
 18 17  1  0
 20 19  1  0
 21 26  2  0
 21 20  1  0
 22 21  1  0
 23 24  1  0
 23 22  2  0
 24 25  2  0
 25 26  1  0
 26 18  1  0
 27 16  1  0
 28 27  1  0
 29 27  2  0
M  END
$$$$
