DCW.pdb
     RDKit          3D

 29 30  0  0  1  0  0  0  0  0999 V2000
   26.6420  -20.2658  -16.8833 N   0  0  0  0  0  0  0  0  0  0  0  0
   26.8032  -21.1053  -15.7442 C   0  0  1  0  0  0  0  0  0  0  0  0
   28.2536  -21.3873  -15.4405 C   0  0  0  0  0  0  0  0  0  0  0  0
   28.9399  -22.1923  -16.4512 C   0  0  0  0  0  0  0  0  0  0  0  0
   29.8536  -21.7417  -17.1817 O   0  0  0  0  0  0  0  0  0  0  0  0
   26.1755  -20.5615  -14.5049 C   0  0  0  0  0  0  0  0  0  0  0  0
   26.7450  -19.6023  -13.8992 O   0  0  0  0  0  0  0  0  0  0  0  0
   28.6062  -23.5338  -16.6602 O   0  0  0  0  0  0  0  0  0  0  0  0
   24.9856  -21.0244  -13.9338 N   0  0  0  0  0  0  0  0  0  0  0  0
   24.3711  -20.4884  -12.7622 C   0  0  1  0  0  0  0  0  0  0  0  0
   22.8933  -20.6069  -12.7032 C   0  0  0  0  0  0  0  0  0  0  0  0
   22.2859  -20.0411  -11.1129 S   0  0  0  0  0  0  0  0  0  0  0  0
   25.0291  -21.0161  -11.5118 C   0  0  0  0  0  0  0  0  0  0  0  0
   25.2019  -22.2564  -11.4059 O   0  0  0  0  0  0  0  0  0  0  0  0
   25.4599  -20.1939  -10.4573 N   0  0  0  0  0  0  0  0  0  0  0  0
   25.9395  -20.6583   -9.1635 C   0  0  1  0  0  0  0  0  0  0  0  0
   27.0875  -19.8759   -8.6689 C   0  0  0  0  0  0  0  0  0  0  0  0
   27.6099  -20.3809   -7.3915 C   0  0  0  0  0  0  0  0  0  0  0  0
   27.6545  -21.7219   -6.9728 C   0  0  0  0  0  0  0  0  0  0  0  0
   28.1597  -21.8060   -5.7325 N   0  0  0  0  0  0  0  0  0  0  0  0
   28.4623  -20.5671   -5.2906 C   0  0  0  0  0  0  0  0  0  0  0  0
   29.0138  -20.1226   -4.1116 C   0  0  0  0  0  0  0  0  0  0  0  0
   29.2504  -18.7819   -3.9082 C   0  0  0  0  0  0  0  0  0  0  0  0
   28.9210  -17.8982   -4.9144 C   0  0  0  0  0  0  0  0  0  0  0  0
   28.3678  -18.3289   -6.0988 C   0  0  0  0  0  0  0  0  0  0  0  0
   28.1299  -19.6790   -6.3008 C   0  0  0  0  0  0  0  0  0  0  0  0
   24.9072  -20.9252   -8.1953 C   0  0  0  0  0  0  0  0  0  0  0  0
   25.0863  -22.0617   -7.3701 O   0  0  0  0  0  0  0  0  0  0  0  0
   23.8878  -20.2432   -8.0326 O   0  0  0  0  0  0  0  0  0  0  0  0
  2  1  1  6
  3  2  1  0
  4  3  1  0
  5  4  2  0
  6  2  1  0
  7  6  2  0
  8  4  1  0
  9  6  1  0
 10  9  1  0
 10 11  1  1
 12 11  1  0
 13 14  2  0
 13 10  1  0
 15 13  1  0
 16 15  1  0
 16 17  1  1
 18 19  2  0
 18 17  1  0
 20 19  1  0
 21 26  2  0
 21 20  1  0
 22 21  1  0
 23 24  1  0
 23 22  2  0
 24 25  2  0
 25 26  1  0
 26 18  1  0
 27 16  1  0
 28 27  1  0
 29 27  2  0
M  END
$$$$
