HAN.pdb
     RDKit          3D

 24 24  0  0  1  0  0  0  0  0999 V2000
   24.6523  -13.8198  -17.4471 N   0  0  0  0  0  0  0  0  0  0  0  0
   24.1834  -12.4561  -17.6650 C   0  0  1  0  0  0  0  0  0  0  0  0
   22.8449  -12.3368  -16.9711 C   0  0  0  0  0  0  0  0  0  0  0  0
   21.8961  -13.3221  -17.5660 C   0  0  0  0  0  0  0  0  0  0  0  0
   21.1018  -14.2532  -16.9269 C   0  0  0  0  0  0  0  0  0  0  0  0
   20.3830  -14.9581  -17.8205 N   0  0  0  0  0  0  0  0  0  0  0  0
   20.7226  -14.4726  -19.0279 C   0  0  0  0  0  0  0  0  0  0  0  0
   21.6292  -13.4906  -18.8940 N   0  0  0  0  0  0  0  0  0  0  0  0
   25.1312  -11.4689  -17.0854 C   0  0  0  0  0  0  0  0  0  0  0  0
   25.6837  -11.7075  -15.9824 O   0  0  0  0  0  0  0  0  0  0  0  0
   27.4319   -8.8800  -18.2159 C   0  0  0  0  0  0  0  0  0  0  0  0
   26.3902   -9.2896  -17.1980 C   0  0  2  0  0  0  0  0  0  0  0  0
   25.4554  -10.2443  -17.7209 N   0  0  0  0  0  0  0  0  0  0  0  0
   25.7112   -8.1067  -16.6000 C   0  0  0  0  0  0  0  0  0  0  0  0
   26.3793   -7.0828  -16.4090 O   0  0  0  0  0  0  0  0  0  0  0  0
   22.3762   -4.6518  -14.7021 N   0  0  0  0  0  0  0  0  0  0  0  0
   23.0410   -4.6162  -15.9495 C   0  0  0  0  0  0  0  0  0  0  0  0
   23.0420   -3.5299  -16.5812 O   0  0  0  0  0  0  0  0  0  0  0  0
   23.7127   -5.7787  -16.5148 C   0  0  0  0  0  0  0  0  0  0  0  0
   23.6267   -7.0205  -15.6967 C   0  0  2  0  0  0  0  0  0  0  0  0
   24.3329   -8.1397  -16.2535 N   0  0  0  0  0  0  0  0  0  0  0  0
   22.2234   -7.3730  -15.3259 C   0  0  0  0  0  0  0  0  0  0  0  0
   21.6860   -8.6414  -15.5594 O   0  0  0  0  0  0  0  0  0  0  0  0
   21.4496   -6.5451  -14.7826 O   0  0  0  0  0  0  0  0  0  0  0  0
  2  1  1  1
  3  2  1  0
  4  5  2  0
  4  3  1  0
  6  5  1  0
  7  8  2  0
  7  6  1  0
  8  4  1  0
  9  2  1  0
 10  9  2  0
 12 11  1  6
 12 14  1  0
 12 13  1  0
 13  9  1  0
 14 21  1  0
 15 14  2  0
 17 18  2  0
 17 16  1  0
 19 17  1  0
 20 19  1  6
 20 22  1  0
 21 20  1  0
 22 24  2  0
 22 23  1  0
M  END
$$$$
