HAN.pdb
     RDKit          3D

 24 24  0  0  1  0  0  0  0  0999 V2000
   16.7772  -12.7014  -14.7733 N   0  0  0  0  0  0  0  0  0  0  0  0
   16.3134  -11.3197  -14.7205 C   0  0  1  0  0  0  0  0  0  0  0  0
   14.8025  -11.3661  -14.6731 C   0  0  0  0  0  0  0  0  0  0  0  0
   14.2827  -11.7552  -16.0161 C   0  0  0  0  0  0  0  0  0  0  0  0
   13.9727  -10.9467  -17.0915 C   0  0  0  0  0  0  0  0  0  0  0  0
   13.5304  -11.6832  -18.1279 N   0  0  0  0  0  0  0  0  0  0  0  0
   13.5603  -12.9606  -17.7081 C   0  0  0  0  0  0  0  0  0  0  0  0
   14.0090  -13.0222  -16.4435 N   0  0  0  0  0  0  0  0  0  0  0  0
   16.8260  -10.6327  -13.5064 C   0  0  0  0  0  0  0  0  0  0  0  0
   16.5825  -11.1098  -12.3698 O   0  0  0  0  0  0  0  0  0  0  0  0
   19.0949   -7.7065  -12.6955 C   0  0  0  0  0  0  0  0  0  0  0  0
   17.9732   -8.6792  -12.4041 C   0  0  2  0  0  0  0  0  0  0  0  0
   17.5921   -9.4415  -13.5584 N   0  0  0  0  0  0  0  0  0  0  0  0
   16.8096   -8.0017  -11.7678 C   0  0  0  0  0  0  0  0  0  0  0  0
   15.9489   -7.5026  -12.5036 O   0  0  0  0  0  0  0  0  0  0  0  0
   13.6696   -5.7306   -8.2246 N   0  0  0  0  0  0  0  0  0  0  0  0
   13.7254   -7.1417   -8.1542 C   0  0  0  0  0  0  0  0  0  0  0  0
   12.8691   -7.7264   -7.4442 O   0  0  0  0  0  0  0  0  0  0  0  0
   14.7264   -7.9244   -8.8664 C   0  0  0  0  0  0  0  0  0  0  0  0
   15.6811   -7.1327   -9.6913 C   0  0  2  0  0  0  0  0  0  0  0  0
   16.6792   -7.9236  -10.3544 N   0  0  0  0  0  0  0  0  0  0  0  0
   16.2812   -5.9879   -8.9428 C   0  0  0  0  0  0  0  0  0  0  0  0
   15.6297   -4.7590   -8.8109 O   0  0  0  0  0  0  0  0  0  0  0  0
   17.4071   -6.0696   -8.3904 O   0  0  0  0  0  0  0  0  0  0  0  0
  2  1  1  1
  3  2  1  0
  4  5  2  0
  4  3  1  0
  6  5  1  0
  7  8  2  0
  7  6  1  0
  8  4  1  0
  9  2  1  0
 10  9  2  0
 12 11  1  6
 12 14  1  0
 12 13  1  0
 13  9  1  0
 14 21  1  0
 15 14  2  0
 17 18  2  0
 17 16  1  0
 19 17  1  0
 20 19  1  1
 20 22  1  0
 21 20  1  0
 22 24  2  0
 22 23  1  0
M  END
$$$$
