HAN.pdb
     RDKit          3D

 24 24  0  0  1  0  0  0  0  0999 V2000
   27.5884  -21.8115  -13.0747 N   0  0  0  0  0  0  0  0  0  0  0  0
   26.4431  -21.2502  -12.3674 C   0  0  1  0  0  0  0  0  0  0  0  0
   26.9224  -19.9850  -11.6916 C   0  0  0  0  0  0  0  0  0  0  0  0
   27.8757  -20.3436  -10.6018 C   0  0  0  0  0  0  0  0  0  0  0  0
   29.2264  -20.6163  -10.6886 C   0  0  0  0  0  0  0  0  0  0  0  0
   29.7333  -20.8986   -9.4739 N   0  0  0  0  0  0  0  0  0  0  0  0
   28.7018  -20.8046   -8.6161 C   0  0  0  0  0  0  0  0  0  0  0  0
   27.5797  -20.4725   -9.2756 N   0  0  0  0  0  0  0  0  0  0  0  0
   25.3438  -20.9211  -13.3119 C   0  0  0  0  0  0  0  0  0  0  0  0
   25.5856  -20.2339  -14.3356 O   0  0  0  0  0  0  0  0  0  0  0  0
   22.0330  -22.4419  -14.0802 C   0  0  0  0  0  0  0  0  0  0  0  0
   22.9832  -21.2652  -14.1220 C   0  0  2  0  0  0  0  0  0  0  0  0
   24.0063  -21.3483  -13.1194 N   0  0  0  0  0  0  0  0  0  0  0  0
   22.2536  -19.9678  -14.0753 C   0  0  0  0  0  0  0  0  0  0  0  0
   22.1175  -19.4120  -12.9781 O   0  0  0  0  0  0  0  0  0  0  0  0
   20.7717  -14.8491  -15.6587 N   0  0  0  0  0  0  0  0  0  0  0  0
   20.4948  -16.0102  -16.4165 C   0  0  0  0  0  0  0  0  0  0  0  0
   19.4962  -15.9870  -17.1790 O   0  0  0  0  0  0  0  0  0  0  0  0
   21.3164  -17.2108  -16.3422 C   0  0  0  0  0  0  0  0  0  0  0  0
   20.9551  -18.1598  -15.2524 C   0  0  2  0  0  0  0  0  0  0  0  0
   21.7231  -19.3729  -15.2523 N   0  0  0  0  0  0  0  0  0  0  0  0
   19.4873  -18.4273  -15.1812 C   0  0  0  0  0  0  0  0  0  0  0  0
   18.8641  -19.3883  -15.9813 O   0  0  0  0  0  0  0  0  0  0  0  0
   18.7329  -17.8002  -14.3956 O   0  0  0  0  0  0  0  0  0  0  0  0
  2  1  1  6
  3  2  1  0
  4  5  2  0
  4  3  1  0
  6  5  1  0
  7  8  2  0
  7  6  1  0
  8  4  1  0
  9  2  1  0
 10  9  2  0
 12 11  1  1
 12 14  1  0
 12 13  1  0
 13  9  1  0
 14 21  1  0
 15 14  2  0
 17 18  2  0
 17 16  1  0
 19 17  1  0
 20 19  1  6
 20 22  1  0
 21 20  1  0
 22 24  2  0
 22 23  1  0
M  END
$$$$
