HAN.pdb
     RDKit          3D

 24 24  0  0  1  0  0  0  0  0999 V2000
   14.0766  -10.4960  -10.9611 N   0  0  0  0  0  0  0  0  0  0  0  0
   15.4135  -10.0985  -10.5348 C   0  0  1  0  0  0  0  0  0  0  0  0
   16.3755  -10.5909  -11.5928 C   0  0  0  0  0  0  0  0  0  0  0  0
   16.3043  -12.0791  -11.6640 C   0  0  0  0  0  0  0  0  0  0  0  0
   17.0115  -13.0151  -10.9359 C   0  0  0  0  0  0  0  0  0  0  0  0
   16.6589  -14.2632  -11.2965 N   0  0  0  0  0  0  0  0  0  0  0  0
   15.7266  -14.1176  -12.2548 C   0  0  0  0  0  0  0  0  0  0  0  0
   15.5016  -12.8140  -12.4879 N   0  0  0  0  0  0  0  0  0  0  0  0
   15.5176   -8.6204  -10.4203 C   0  0  0  0  0  0  0  0  0  0  0  0
   15.3648   -7.9032  -11.4407 O   0  0  0  0  0  0  0  0  0  0  0  0
   15.5359   -6.0379   -7.6915 C   0  0  0  0  0  0  0  0  0  0  0  0
   15.9255   -6.5353   -9.0662 C   0  0  2  0  0  0  0  0  0  0  0  0
   15.7859   -7.9574   -9.1968 N   0  0  0  0  0  0  0  0  0  0  0  0
   17.2836   -6.0651   -9.4564 C   0  0  0  0  0  0  0  0  0  0  0  0
   18.2579   -6.5129   -8.8389 O   0  0  0  0  0  0  0  0  0  0  0  0
   21.1068   -4.6521  -12.7239 N   0  0  0  0  0  0  0  0  0  0  0  0
   20.6055   -5.9392  -12.4217 C   0  0  0  0  0  0  0  0  0  0  0  0
   21.2339   -6.9316  -12.8681 O   0  0  0  0  0  0  0  0  0  0  0  0
   19.4049   -6.1466  -11.6231 C   0  0  0  0  0  0  0  0  0  0  0  0
   18.7295   -4.9027  -11.1591 C   0  0  2  0  0  0  0  0  0  0  0  0
   17.4694   -5.1273  -10.5085 N   0  0  0  0  0  0  0  0  0  0  0  0
   18.6294   -3.8651  -12.2289 C   0  0  0  0  0  0  0  0  0  0  0  0
   17.4521   -3.6465  -12.9487 O   0  0  0  0  0  0  0  0  0  0  0  0
   19.6017   -3.1317  -12.5390 O   0  0  0  0  0  0  0  0  0  0  0  0
  2  1  1  6
  3  2  1  0
  4  5  2  0
  4  3  1  0
  6  5  1  0
  7  8  2  0
  7  6  1  0
  8  4  1  0
  9  2  1  0
 10  9  2  0
 12 11  1  1
 12 14  1  0
 12 13  1  0
 13  9  1  0
 14 21  1  0
 15 14  2  0
 17 18  2  0
 17 16  1  0
 19 17  1  0
 20 19  1  6
 20 22  1  0
 21 20  1  0
 22 24  2  0
 22 23  1  0
M  END
$$$$
