HAN.pdb
     RDKit          3D

 24 24  0  0  1  0  0  0  0  0999 V2000
   18.4702  -11.9516  -15.8457 N   0  0  0  0  0  0  0  0  0  0  0  0
   19.1540  -10.9371  -16.6396 C   0  0  1  0  0  0  0  0  0  0  0  0
   18.4207  -10.8453  -17.9592 C   0  0  0  0  0  0  0  0  0  0  0  0
   18.6342  -12.1069  -18.7260 C   0  0  0  0  0  0  0  0  0  0  0  0
   19.7124  -12.4730  -19.5069 C   0  0  0  0  0  0  0  0  0  0  0  0
   19.5238  -13.6974  -20.0336 N   0  0  0  0  0  0  0  0  0  0  0  0
   18.3239  -14.1076  -19.5855 C   0  0  0  0  0  0  0  0  0  0  0  0
   17.7762  -13.1659  -18.7997 N   0  0  0  0  0  0  0  0  0  0  0  0
   19.1172   -9.6159  -15.9599 C   0  0  0  0  0  0  0  0  0  0  0  0
   18.0208   -9.1503  -15.5599 O   0  0  0  0  0  0  0  0  0  0  0  0
   21.6740   -7.1922  -14.5619 C   0  0  0  0  0  0  0  0  0  0  0  0
   20.2825   -7.6034  -14.9908 C   0  0  2  0  0  0  0  0  0  0  0  0
   20.2757   -8.8322  -15.7316 N   0  0  0  0  0  0  0  0  0  0  0  0
   19.5838   -6.5058  -15.7153 C   0  0  0  0  0  0  0  0  0  0  0  0
   19.7233   -6.4331  -16.9427 O   0  0  0  0  0  0  0  0  0  0  0  0
   15.8407   -6.1775  -15.8452 N   0  0  0  0  0  0  0  0  0  0  0  0
   15.7507   -4.9745  -15.1076 C   0  0  0  0  0  0  0  0  0  0  0  0
   14.6670   -4.7271  -14.5216 O   0  0  0  0  0  0  0  0  0  0  0  0
   16.8555   -4.0302  -15.0077 C   0  0  0  0  0  0  0  0  0  0  0  0
   18.1179   -4.4589  -15.6719 C   0  0  2  0  0  0  0  0  0  0  0  0
   18.7752   -5.5606  -15.0272 N   0  0  0  0  0  0  0  0  0  0  0  0
   19.0524   -3.3219  -15.9270 C   0  0  0  0  0  0  0  0  0  0  0  0
   20.2904   -3.2157  -15.2882 O   0  0  0  0  0  0  0  0  0  0  0  0
   18.7738   -2.3980  -16.7321 O   0  0  0  0  0  0  0  0  0  0  0  0
  2  1  1  1
  3  2  1  0
  4  5  2  0
  4  3  1  0
  6  5  1  0
  7  8  2  0
  7  6  1  0
  8  4  1  0
  9  2  1  0
 10  9  2  0
 12 11  1  6
 12 14  1  0
 12 13  1  0
 13  9  1  0
 14 21  1  0
 15 14  2  0
 17 18  2  0
 17 16  1  0
 19 17  1  0
 20 19  1  1
 20 22  1  0
 21 20  1  0
 22 24  2  0
 22 23  1  0
M  END
$$$$
