HAN.pdb
     RDKit          3D

 24 24  0  0  1  0  0  0  0  0999 V2000
   23.0883  -14.2914  -18.1905 N   0  0  0  0  0  0  0  0  0  0  0  0
   23.6673  -13.0160  -18.5970 C   0  0  1  0  0  0  0  0  0  0  0  0
   22.8566  -12.5220  -19.7743 C   0  0  0  0  0  0  0  0  0  0  0  0
   22.9992  -13.4847  -20.9047 C   0  0  0  0  0  0  0  0  0  0  0  0
   22.0118  -14.0817  -21.6629 C   0  0  0  0  0  0  0  0  0  0  0  0
   22.5511  -14.8923  -22.5925 N   0  0  0  0  0  0  0  0  0  0  0  0
   23.8826  -14.8086  -22.4229 C   0  0  0  0  0  0  0  0  0  0  0  0
   24.1692  -13.9687  -21.4147 N   0  0  0  0  0  0  0  0  0  0  0  0
   23.5938  -12.0229  -17.4937 C   0  0  0  0  0  0  0  0  0  0  0  0
   22.4855  -11.7611  -16.9626 O   0  0  0  0  0  0  0  0  0  0  0  0
   26.0548   -9.8960  -15.5186 C   0  0  0  0  0  0  0  0  0  0  0  0
   24.6788  -10.3426  -15.9619 C   0  0  2  0  0  0  0  0  0  0  0  0
   24.7294  -11.3378  -16.9943 N   0  0  0  0  0  0  0  0  0  0  0  0
   23.8198   -9.1855  -16.3374 C   0  0  0  0  0  0  0  0  0  0  0  0
   23.8918   -8.7545  -17.4951 O   0  0  0  0  0  0  0  0  0  0  0  0
   20.0593   -5.5030  -16.1929 N   0  0  0  0  0  0  0  0  0  0  0  0
   19.6505   -6.8399  -15.9814 C   0  0  0  0  0  0  0  0  0  0  0  0
   18.4200   -7.0903  -16.0302 O   0  0  0  0  0  0  0  0  0  0  0  0
   20.5944   -7.9166  -15.7135 C   0  0  0  0  0  0  0  0  0  0  0  0
   22.0302   -7.5204  -15.7330 C   0  0  2  0  0  0  0  0  0  0  0  0
   22.9365   -8.5831  -15.4005 N   0  0  0  0  0  0  0  0  0  0  0  0
   22.3004   -6.2855  -14.9373 C   0  0  0  0  0  0  0  0  0  0  0  0
   21.8334   -5.0283  -15.3288 O   0  0  0  0  0  0  0  0  0  0  0  0
   22.9641   -6.3121  -13.8704 O   0  0  0  0  0  0  0  0  0  0  0  0
  2  1  1  1
  3  2  1  0
  4  5  2  0
  4  3  1  0
  6  5  1  0
  7  8  2  0
  7  6  1  0
  8  4  1  0
  9  2  1  0
 10  9  2  0
 12 11  1  6
 12 14  1  0
 12 13  1  0
 13  9  1  0
 14 21  1  0
 15 14  2  0
 17 18  2  0
 17 16  1  0
 19 17  1  0
 20 19  1  1
 20 22  1  0
 21 20  1  0
 22 24  2  0
 22 23  1  0
M  END
$$$$
