HAN.pdb
     RDKit          3D

 24 24  0  0  1  0  0  0  0  0999 V2000
   23.7600  -16.9599  -15.3656 N   0  0  0  0  0  0  0  0  0  0  0  0
   23.4818  -15.8091  -16.2172 C   0  0  1  0  0  0  0  0  0  0  0  0
   22.0723  -15.9801  -16.7382 C   0  0  0  0  0  0  0  0  0  0  0  0
   21.9643  -17.2949  -17.4344 C   0  0  0  0  0  0  0  0  0  0  0  0
   21.0319  -18.2967  -17.2520 C   0  0  0  0  0  0  0  0  0  0  0  0
   21.2781  -19.3311  -18.0775 N   0  0  0  0  0  0  0  0  0  0  0  0
   22.3685  -18.9840  -18.7840 C   0  0  0  0  0  0  0  0  0  0  0  0
   22.7935  -17.7655  -18.4112 N   0  0  0  0  0  0  0  0  0  0  0  0
   23.5742  -14.5420  -15.4459 C   0  0  0  0  0  0  0  0  0  0  0  0
   22.7401  -14.3023  -14.5373 O   0  0  0  0  0  0  0  0  0  0  0  0
   26.0351  -11.7008  -15.0494 C   0  0  0  0  0  0  0  0  0  0  0  0
   24.6519  -12.3110  -14.9897 C   0  0  2  0  0  0  0  0  0  0  0  0
   24.5733  -13.5651  -15.6823 N   0  0  0  0  0  0  0  0  0  0  0  0
   23.6077  -11.3511  -15.4438 C   0  0  0  0  0  0  0  0  0  0  0  0
   23.3213  -11.3239  -16.6473 O   0  0  0  0  0  0  0  0  0  0  0  0
   19.8294   -7.7029  -15.4954 N   0  0  0  0  0  0  0  0  0  0  0  0
   19.9725   -8.2053  -14.1815 C   0  0  0  0  0  0  0  0  0  0  0  0
   19.1530   -7.8141  -13.3129 O   0  0  0  0  0  0  0  0  0  0  0  0
   21.0216   -9.1454  -13.8102 C   0  0  0  0  0  0  0  0  0  0  0  0
   21.9377   -9.5420  -14.9158 C   0  0  2  0  0  0  0  0  0  0  0  0
   22.9501  -10.4838  -14.5293 N   0  0  0  0  0  0  0  0  0  0  0  0
   22.5126   -8.3688  -15.6398 C   0  0  0  0  0  0  0  0  0  0  0  0
   22.0328   -7.9512  -16.8838 O   0  0  0  0  0  0  0  0  0  0  0  0
   23.4609   -7.6931  -15.1670 O   0  0  0  0  0  0  0  0  0  0  0  0
  2  1  1  1
  3  2  1  0
  4  5  2  0
  4  3  1  0
  6  5  1  0
  7  8  2  0
  7  6  1  0
  8  4  1  0
  9  2  1  0
 10  9  2  0
 12 11  1  6
 12 14  1  0
 12 13  1  0
 13  9  1  0
 14 21  1  0
 15 14  2  0
 17 18  2  0
 17 16  1  0
 19 17  1  0
 20 19  1  1
 20 22  1  0
 21 20  1  0
 22 24  2  0
 22 23  1  0
M  END
$$$$
