HAN.pdb
     RDKit          3D

 24 24  0  0  1  0  0  0  0  0999 V2000
   20.1514  -12.1913  -16.6732 N   0  0  0  0  0  0  0  0  0  0  0  0
   19.3408  -10.9797  -16.6257 C   0  0  1  0  0  0  0  0  0  0  0  0
   18.6090  -10.9936  -15.3023 C   0  0  0  0  0  0  0  0  0  0  0  0
   17.5478  -12.0412  -15.3412 C   0  0  0  0  0  0  0  0  0  0  0  0
   17.2243  -12.9077  -16.3663 C   0  0  0  0  0  0  0  0  0  0  0  0
   16.2006  -13.7054  -16.0091 N   0  0  0  0  0  0  0  0  0  0  0  0
   15.8749  -13.3436  -14.7554 C   0  0  0  0  0  0  0  0  0  0  0  0
   16.6730  -12.3466  -14.3389 N   0  0  0  0  0  0  0  0  0  0  0  0
   20.1941   -9.7656  -16.7069 C   0  0  0  0  0  0  0  0  0  0  0  0
   21.1399   -9.6121  -15.8940 O   0  0  0  0  0  0  0  0  0  0  0  0
   20.4633   -6.7142  -18.9626 C   0  0  0  0  0  0  0  0  0  0  0  0
   20.7538   -7.5281  -17.7207 C   0  0  2  0  0  0  0  0  0  0  0  0
   19.9974   -8.7464  -17.6718 N   0  0  0  0  0  0  0  0  0  0  0  0
   20.5945   -6.7168  -16.4821 C   0  0  0  0  0  0  0  0  0  0  0  0
   20.6104   -7.3029  -15.3924 O   0  0  0  0  0  0  0  0  0  0  0  0
   20.6098   -5.5057  -12.7861 N   0  0  0  0  0  0  0  0  0  0  0  0
   21.8625   -5.2417  -13.3865 C   0  0  0  0  0  0  0  0  0  0  0  0
   22.8961   -5.4795  -12.7126 O   0  0  0  0  0  0  0  0  0  0  0  0
   21.9896   -4.7122  -14.7376 C   0  0  0  0  0  0  0  0  0  0  0  0
   20.7022   -4.4307  -15.4319 C   0  0  2  0  0  0  0  0  0  0  0  0
   20.4278   -5.3060  -16.5364 N   0  0  0  0  0  0  0  0  0  0  0  0
   20.5492   -2.9929  -15.8065 C   0  0  0  0  0  0  0  0  0  0  0  0
   21.0180   -2.4839  -17.0202 O   0  0  0  0  0  0  0  0  0  0  0  0
   19.9890   -2.1624  -15.0476 O   0  0  0  0  0  0  0  0  0  0  0  0
  2  1  1  1
  3  2  1  0
  4  5  2  0
  4  3  1  0
  6  5  1  0
  7  8  2  0
  7  6  1  0
  8  4  1  0
  9  2  1  0
 10  9  2  0
 12 11  1  6
 12 14  1  0
 12 13  1  0
 13  9  1  0
 14 21  1  0
 15 14  2  0
 17 18  2  0
 17 16  1  0
 19 17  1  0
 20 19  1  6
 20 22  1  0
 21 20  1  0
 22 24  2  0
 22 23  1  0
M  END
$$$$
