HAN.pdb
     RDKit          3D

 24 24  0  0  1  0  0  0  0  0999 V2000
   23.8807  -20.0991  -17.0459 N   0  0  0  0  0  0  0  0  0  0  0  0
   23.0894  -19.1056  -16.3290 C   0  0  1  0  0  0  0  0  0  0  0  0
   22.4509  -18.2173  -17.3732 C   0  0  0  0  0  0  0  0  0  0  0  0
   23.4715  -17.2613  -17.8924 C   0  0  0  0  0  0  0  0  0  0  0  0
   24.5397  -17.5073  -18.7318 C   0  0  0  0  0  0  0  0  0  0  0  0
   25.2295  -16.3756  -18.9675 N   0  0  0  0  0  0  0  0  0  0  0  0
   24.5969  -15.4108  -18.2761 C   0  0  0  0  0  0  0  0  0  0  0  0
   23.5401  -15.9245  -17.6254 N   0  0  0  0  0  0  0  0  0  0  0  0
   22.0285  -19.7561  -15.5166 C   0  0  0  0  0  0  0  0  0  0  0  0
   21.3201  -20.6610  -16.0247 O   0  0  0  0  0  0  0  0  0  0  0  0
   20.7363  -19.5051  -11.9447 C   0  0  0  0  0  0  0  0  0  0  0  0
   20.7094  -19.9781  -13.3816 C   0  0  2  0  0  0  0  0  0  0  0  0
   21.7636  -19.4059  -14.1691 N   0  0  0  0  0  0  0  0  0  0  0  0
   19.3707  -19.7759  -14.0018 C   0  0  0  0  0  0  0  0  0  0  0  0
   19.1857  -18.7543  -14.6751 O   0  0  0  0  0  0  0  0  0  0  0  0
   17.7343  -22.0913  -16.6354 N   0  0  0  0  0  0  0  0  0  0  0  0
   16.6828  -22.5376  -15.8021 C   0  0  0  0  0  0  0  0  0  0  0  0
   16.0958  -23.6022  -16.1200 O   0  0  0  0  0  0  0  0  0  0  0  0
   16.2664  -21.8145  -14.6080 C   0  0  0  0  0  0  0  0  0  0  0  0
   16.9975  -20.5427  -14.3498 C   0  0  2  0  0  0  0  0  0  0  0  0
   18.3246  -20.7236  -13.8326 N   0  0  0  0  0  0  0  0  0  0  0  0
   16.2056  -19.5758  -13.5319 C   0  0  0  0  0  0  0  0  0  0  0  0
   15.1624  -18.8200  -14.0726 O   0  0  0  0  0  0  0  0  0  0  0  0
   16.4363  -19.3905  -12.3105 O   0  0  0  0  0  0  0  0  0  0  0  0
  2  1  1  6
  3  2  1  0
  4  5  2  0
  4  3  1  0
  6  5  1  0
  7  8  2  0
  7  6  1  0
  8  4  1  0
  9  2  1  0
 10  9  2  0
 12 11  1  1
 12 14  1  0
 12 13  1  0
 13  9  1  0
 14 21  1  0
 15 14  2  0
 17 18  2  0
 17 16  1  0
 19 17  1  0
 20 19  1  1
 20 22  1  0
 21 20  1  0
 22 24  2  0
 22 23  1  0
M  END
$$$$
