HAN.pdb
     RDKit          3D

 24 24  0  0  1  0  0  0  0  0999 V2000
   23.3190  -18.5940  -17.3182 N   0  0  0  0  0  0  0  0  0  0  0  0
   22.1259  -17.9497  -16.7809 C   0  0  1  0  0  0  0  0  0  0  0  0
   21.0949  -17.9443  -17.8874 C   0  0  0  0  0  0  0  0  0  0  0  0
   21.5256  -16.9931  -18.9526 C   0  0  0  0  0  0  0  0  0  0  0  0
   22.0882  -17.2686  -20.1830 C   0  0  0  0  0  0  0  0  0  0  0  0
   22.3357  -16.1306  -20.8581 N   0  0  0  0  0  0  0  0  0  0  0  0
   21.9292  -15.1323  -20.0538 C   0  0  0  0  0  0  0  0  0  0  0  0
   21.4405  -15.6316  -18.9065 N   0  0  0  0  0  0  0  0  0  0  0  0
   21.5956  -18.7014  -15.6137 C   0  0  0  0  0  0  0  0  0  0  0  0
   21.7073  -19.9523  -15.5740 O   0  0  0  0  0  0  0  0  0  0  0  0
   20.1662  -17.7876  -12.2124 C   0  0  0  0  0  0  0  0  0  0  0  0
   20.5984  -18.7459  -13.3005 C   0  0  2  0  0  0  0  0  0  0  0  0
   20.9556  -18.0730  -14.5164 N   0  0  0  0  0  0  0  0  0  0  0  0
   19.5862  -19.8148  -13.5254 C   0  0  0  0  0  0  0  0  0  0  0  0
   18.8178  -19.6999  -14.4886 O   0  0  0  0  0  0  0  0  0  0  0  0
   18.4481  -25.3269  -13.6225 N   0  0  0  0  0  0  0  0  0  0  0  0
   18.1871  -24.4689  -12.5293 C   0  0  0  0  0  0  0  0  0  0  0  0
   17.1969  -24.7325  -11.8019 O   0  0  0  0  0  0  0  0  0  0  0  0
   19.0156  -23.3098  -12.2257 C   0  0  0  0  0  0  0  0  0  0  0  0
   18.5996  -22.0422  -12.8882 C   0  0  2  0  0  0  0  0  0  0  0  0
   19.4945  -20.9421  -12.6642 N   0  0  0  0  0  0  0  0  0  0  0  0
   17.1806  -21.6765  -12.5985 C   0  0  0  0  0  0  0  0  0  0  0  0
   16.1074  -22.2464  -13.2880 O   0  0  0  0  0  0  0  0  0  0  0  0
   16.8760  -20.8346  -11.7166 O   0  0  0  0  0  0  0  0  0  0  0  0
  2  1  1  6
  3  2  1  0
  4  5  2  0
  4  3  1  0
  6  5  1  0
  7  8  2  0
  7  6  1  0
  8  4  1  0
  9  2  1  0
 10  9  2  0
 12 11  1  1
 12 14  1  0
 12 13  1  0
 13  9  1  0
 14 21  1  0
 15 14  2  0
 17 18  2  0
 17 16  1  0
 19 17  1  0
 20 19  1  1
 20 22  1  0
 21 20  1  0
 22 24  2  0
 22 23  1  0
M  END
$$$$
