HAN.pdb
     RDKit          3D

 24 24  0  0  1  0  0  0  0  0999 V2000
   19.6854  -15.0268  -17.0251 N   0  0  0  0  0  0  0  0  0  0  0  0
   20.4464  -13.9928  -17.7170 C   0  0  1  0  0  0  0  0  0  0  0  0
   19.5953  -13.5239  -18.8760 C   0  0  0  0  0  0  0  0  0  0  0  0
   19.4641  -14.6320  -19.8661 C   0  0  0  0  0  0  0  0  0  0  0  0
   20.2275  -15.7755  -19.9913 C   0  0  0  0  0  0  0  0  0  0  0  0
   19.7879  -16.5307  -21.0152 N   0  0  0  0  0  0  0  0  0  0  0  0
   18.7439  -15.8643  -21.5396 C   0  0  0  0  0  0  0  0  0  0  0  0
   18.5357  -14.7231  -20.8625 N   0  0  0  0  0  0  0  0  0  0  0  0
   20.7285  -12.8463  -16.8144 C   0  0  0  0  0  0  0  0  0  0  0  0
   19.7880  -12.3044  -16.1813 O   0  0  0  0  0  0  0  0  0  0  0  0
   23.8125  -11.0484  -15.5160 C   0  0  0  0  0  0  0  0  0  0  0  0
   22.3276  -11.2131  -15.7547 C   0  0  2  0  0  0  0  0  0  0  0  0
   22.0287  -12.3163  -16.6222 N   0  0  0  0  0  0  0  0  0  0  0  0
   21.7020   -9.9449  -16.2215 C   0  0  0  0  0  0  0  0  0  0  0  0
   21.6515   -9.7306  -17.4392 O   0  0  0  0  0  0  0  0  0  0  0  0
   17.6900   -6.2729  -16.8725 N   0  0  0  0  0  0  0  0  0  0  0  0
   18.4000   -6.4777  -15.6670 C   0  0  0  0  0  0  0  0  0  0  0  0
   18.4448   -5.5278  -14.8457 O   0  0  0  0  0  0  0  0  0  0  0  0
   19.0690   -7.7332  -15.3535 C   0  0  0  0  0  0  0  0  0  0  0  0
   20.5161   -7.7849  -15.7027 C   0  0  2  0  0  0  0  0  0  0  0  0
   21.1730   -8.9974  -15.3031 N   0  0  0  0  0  0  0  0  0  0  0  0
   21.2628   -6.5709  -15.2560 C   0  0  0  0  0  0  0  0  0  0  0  0
   22.1405   -6.5925  -14.1691 O   0  0  0  0  0  0  0  0  0  0  0  0
   21.1410   -5.4625  -15.8357 O   0  0  0  0  0  0  0  0  0  0  0  0
  2  1  1  1
  3  2  1  0
  4  5  2  0
  4  3  1  0
  6  5  1  0
  7  8  2  0
  7  6  1  0
  8  4  1  0
  9  2  1  0
 10  9  2  0
 12 11  1  6
 12 14  1  0
 12 13  1  0
 13  9  1  0
 14 21  1  0
 15 14  2  0
 17 18  2  0
 17 16  1  0
 19 17  1  0
 20 19  1  1
 20 22  1  0
 21 20  1  0
 22 24  2  0
 22 23  1  0
M  END
$$$$
