HAN.pdb
     RDKit          3D

 24 24  0  0  1  0  0  0  0  0999 V2000
   23.1411  -20.0218  -16.3857 N   0  0  0  0  0  0  0  0  0  0  0  0
   23.3072  -18.9091  -15.4576 C   0  0  1  0  0  0  0  0  0  0  0  0
   23.3018  -19.4963  -14.0639 C   0  0  0  0  0  0  0  0  0  0  0  0
   22.0423  -20.2701  -13.8641 C   0  0  0  0  0  0  0  0  0  0  0  0
   20.9408  -20.3591  -14.6917 C   0  0  0  0  0  0  0  0  0  0  0  0
   20.0051  -21.1629  -14.1529 N   0  0  0  0  0  0  0  0  0  0  0  0
   20.5148  -21.5839  -12.9817 C   0  0  0  0  0  0  0  0  0  0  0  0
   21.7363  -21.0581  -12.7924 N   0  0  0  0  0  0  0  0  0  0  0  0
   24.5957  -18.2072  -15.6941 C   0  0  0  0  0  0  0  0  0  0  0  0
   24.9149  -17.2290  -14.9730 O   0  0  0  0  0  0  0  0  0  0  0  0
   27.8849  -18.7612  -17.2833 C   0  0  0  0  0  0  0  0  0  0  0  0
   26.6974  -17.8562  -17.0382 C   0  0  2  0  0  0  0  0  0  0  0  0
   25.5069  -18.5871  -16.7110 N   0  0  0  0  0  0  0  0  0  0  0  0
   26.4843  -16.9108  -18.1689 C   0  0  0  0  0  0  0  0  0  0  0  0
   27.4064  -16.1431  -18.4717 O   0  0  0  0  0  0  0  0  0  0  0  0
   26.4780  -18.0371  -21.3803 N   0  0  0  0  0  0  0  0  0  0  0  0
   25.1811  -17.6917  -21.8252 C   0  0  0  0  0  0  0  0  0  0  0  0
   24.7261  -18.2968  -22.8283 O   0  0  0  0  0  0  0  0  0  0  0  0
   24.3707  -16.6747  -21.1688 C   0  0  0  0  0  0  0  0  0  0  0  0
   25.0132  -16.0077  -20.0022 C   0  0  2  0  0  0  0  0  0  0  0  0
   25.2592  -16.8809  -18.8894 N   0  0  0  0  0  0  0  0  0  0  0  0
   24.3056  -14.7593  -19.5876 C   0  0  0  0  0  0  0  0  0  0  0  0
   24.2562  -13.6243  -20.4007 O   0  0  0  0  0  0  0  0  0  0  0  0
   23.7154  -14.6635  -18.4821 O   0  0  0  0  0  0  0  0  0  0  0  0
  2  1  1  6
  3  2  1  0
  4  5  2  0
  4  3  1  0
  6  5  1  0
  7  8  2  0
  7  6  1  0
  8  4  1  0
  9  2  1  0
 10  9  2  0
 12 11  1  6
 12 14  1  0
 12 13  1  0
 13  9  1  0
 14 21  1  0
 15 14  2  0
 17 18  2  0
 17 16  1  0
 19 17  1  0
 20 19  1  6
 20 22  1  0
 21 20  1  0
 22 24  2  0
 22 23  1  0
M  END
$$$$
