HAN.pdb
     RDKit          3D

 24 24  0  0  1  0  0  0  0  0999 V2000
   19.2865  -12.3312  -17.6006 N   0  0  0  0  0  0  0  0  0  0  0  0
   20.5142  -11.5765  -17.8246 C   0  0  1  0  0  0  0  0  0  0  0  0
   20.2697  -10.6875  -19.0235 C   0  0  0  0  0  0  0  0  0  0  0  0
   20.0326  -11.5401  -20.2243 C   0  0  0  0  0  0  0  0  0  0  0  0
   19.0003  -11.4788  -21.1390 C   0  0  0  0  0  0  0  0  0  0  0  0
   19.1455  -12.4265  -22.0839 N   0  0  0  0  0  0  0  0  0  0  0  0
   20.2720  -13.0894  -21.7671 C   0  0  0  0  0  0  0  0  0  0  0  0
   20.8171  -12.5710  -20.6543 N   0  0  0  0  0  0  0  0  0  0  0  0
   20.8446  -10.7361  -16.6442 C   0  0  0  0  0  0  0  0  0  0  0  0
   19.9663   -9.9894  -16.1443 O   0  0  0  0  0  0  0  0  0  0  0  0
   23.7713  -10.3107  -14.2673 C   0  0  0  0  0  0  0  0  0  0  0  0
   22.4906   -9.8727  -14.9434 C   0  0  2  0  0  0  0  0  0  0  0  0
   22.1245  -10.7283  -16.0355 N   0  0  0  0  0  0  0  0  0  0  0  0
   22.5432   -8.4395  -15.3446 C   0  0  0  0  0  0  0  0  0  0  0  0
   22.7924   -8.1714  -16.5266 O   0  0  0  0  0  0  0  0  0  0  0  0
   20.2948   -3.7352  -17.0742 N   0  0  0  0  0  0  0  0  0  0  0  0
   21.2728   -4.2537  -16.1943 C   0  0  0  0  0  0  0  0  0  0  0  0
   22.0907   -3.4457  -15.6870 O   0  0  0  0  0  0  0  0  0  0  0  0
   21.3599   -5.6697  -15.8638 C   0  0  0  0  0  0  0  0  0  0  0  0
   22.2931   -6.0050  -14.7522 C   0  0  2  0  0  0  0  0  0  0  0  0
   22.3149   -7.3978  -14.4046 N   0  0  0  0  0  0  0  0  0  0  0  0
   22.1035   -5.1326  -13.5547 C   0  0  0  0  0  0  0  0  0  0  0  0
   22.8192   -3.9462  -13.3748 O   0  0  0  0  0  0  0  0  0  0  0  0
   21.2879   -5.4204  -12.6428 O   0  0  0  0  0  0  0  0  0  0  0  0
  2  1  1  1
  3  2  1  0
  4  5  2  0
  4  3  1  0
  6  5  1  0
  7  8  2  0
  7  6  1  0
  8  4  1  0
  9  2  1  0
 10  9  2  0
 12 11  1  6
 12 14  1  0
 12 13  1  0
 13  9  1  0
 14 21  1  0
 15 14  2  0
 17 18  2  0
 17 16  1  0
 19 17  1  0
 20 19  1  6
 20 22  1  0
 21 20  1  0
 22 24  2  0
 22 23  1  0
M  END
$$$$
