VQP.pdb
     RDKit          3D

 24 24  0  0  1  0  0  0  0  0999 V2000
   13.8251  -10.2836  -15.9524 C   0  0  0  0  0  0  0  0  0  0  0  0
   15.2235   -9.7308  -15.7586 C   0  0  1  0  0  0  0  0  0  0  0  0
   15.3327   -9.0659  -14.4043 C   0  0  0  0  0  0  0  0  0  0  0  0
   16.2662  -10.8096  -15.8204 C   0  0  2  0  0  0  0  0  0  0  0  0
   15.9771  -11.8043  -14.8265 N   0  0  0  0  0  0  0  0  0  0  0  0
   17.6376  -10.2638  -15.5545 C   0  0  0  0  0  0  0  0  0  0  0  0
   18.1691  -10.3892  -14.4247 O   0  0  0  0  0  0  0  0  0  0  0  0
   22.1264  -11.0072  -18.7056 N   0  0  0  0  0  0  0  0  0  0  0  0
   22.6717   -9.7626  -18.3419 C   0  0  0  0  0  0  0  0  0  0  0  0
   23.8815   -9.5152  -18.4336 O   0  0  0  0  0  0  0  0  0  0  0  0
   21.7398   -8.6933  -17.8209 C   0  0  0  0  0  0  0  0  0  0  0  0
   20.3614   -9.2471  -17.7962 C   0  0  0  0  0  0  0  0  0  0  0  0
   19.6780   -9.0906  -16.4537 C   0  0  2  0  0  0  0  0  0  0  0  0
   18.3070   -9.6129  -16.5968 N   0  0  0  0  0  0  0  0  0  0  0  0
   19.6709   -7.7519  -15.8839 C   0  0  0  0  0  0  0  0  0  0  0  0
   18.7127   -6.9854  -16.2700 O   0  0  0  0  0  0  0  0  0  0  0  0
   20.5604   -7.1649  -14.9565 N   0  0  0  0  0  0  0  0  0  0  0  0
   21.6000   -7.8962  -14.2491 C   0  0  0  0  0  0  0  0  0  0  0  0
   21.7074   -7.0947  -12.9208 C   0  0  0  0  0  0  0  0  0  0  0  0
   21.7096   -5.7049  -13.5277 C   0  0  0  0  0  0  0  0  0  0  0  0
   20.6024   -5.7765  -14.5288 C   0  0  1  0  0  0  0  0  0  0  0  0
   20.7661   -4.8494  -15.6526 C   0  0  0  0  0  0  0  0  0  0  0  0
   21.2530   -5.2539  -16.7238 O   0  0  0  0  0  0  0  0  0  0  0  0
   20.3861   -3.5273  -15.5392 O   0  0  0  0  0  0  0  0  0  0  0  0
  2  3  1  1
  2  1  1  0
  4  6  1  0
  4  2  1  0
  4  5  1  1
  6  7  2  0
  8  9  1  0
  9 11  1  0
  9 10  2  0
 11 12  1  0
 13 12  1  6
 14  6  1  0
 14 13  1  0
 15 17  1  0
 15 13  1  0
 16 15  2  0
 17 18  1  0
 19 18  1  0
 20 19  1  0
 21 20  1  0
 21 17  1  0
 22 24  1  0
 21 22  1  6
 23 22  2  0
M  END
$$$$
