VQP.pdb
     RDKit          3D

 24 24  0  0  1  0  0  0  0  0999 V2000
   16.4145  -28.5970   -2.9257 C   0  0  0  0  0  0  0  0  0  0  0  0
   16.2407  -27.3822   -2.0354 C   0  0  1  0  0  0  0  0  0  0  0  0
   17.4728  -27.1889   -1.1794 C   0  0  0  0  0  0  0  0  0  0  0  0
   16.0405  -26.1262   -2.8336 C   0  0  2  0  0  0  0  0  0  0  0  0
   17.1098  -25.9932   -3.7822 N   0  0  0  0  0  0  0  0  0  0  0  0
   16.0379  -24.9111   -1.9545 C   0  0  0  0  0  0  0  0  0  0  0  0
   17.1115  -24.3342   -1.6559 O   0  0  0  0  0  0  0  0  0  0  0  0
   10.9877  -21.4374   -0.7394 N   0  0  0  0  0  0  0  0  0  0  0  0
   11.7770  -21.2652   -1.8910 C   0  0  0  0  0  0  0  0  0  0  0  0
   11.3849  -20.6239   -2.8750 O   0  0  0  0  0  0  0  0  0  0  0  0
   13.1529  -21.8889   -1.9202 C   0  0  0  0  0  0  0  0  0  0  0  0
   13.3141  -22.7214   -0.7001 C   0  0  0  0  0  0  0  0  0  0  0  0
   14.7061  -23.2985   -0.5495 C   0  0  2  0  0  0  0  0  0  0  0  0
   14.8100  -24.4392   -1.4774 N   0  0  0  0  0  0  0  0  0  0  0  0
   15.1054  -23.6810    0.7963 C   0  0  0  0  0  0  0  0  0  0  0  0
   14.9510  -24.9230    1.0932 O   0  0  0  0  0  0  0  0  0  0  0  0
   15.6493  -22.8888    1.8319 N   0  0  0  0  0  0  0  0  0  0  0  0
   16.0610  -21.5033    1.6679 C   0  0  0  0  0  0  0  0  0  0  0  0
   17.2085  -21.3849    2.7107 C   0  0  0  0  0  0  0  0  0  0  0  0
   16.5049  -22.0817    3.8593 C   0  0  0  0  0  0  0  0  0  0  0  0
   15.9113  -23.2870    3.2049 C   0  0  1  0  0  0  0  0  0  0  0  0
   14.7117  -23.7909    3.8802 C   0  0  0  0  0  0  0  0  0  0  0  0
   13.5929  -23.6253    3.3615 O   0  0  0  0  0  0  0  0  0  0  0  0
   14.8055  -24.4498    5.0894 O   0  0  0  0  0  0  0  0  0  0  0  0
  2  3  1  6
  2  1  1  0
  4  6  1  0
  4  2  1  0
  4  5  1  6
  6  7  2  0
  8  9  1  0
  9 11  1  0
  9 10  2  0
 11 12  1  0
 13 12  1  1
 14  6  1  0
 14 13  1  0
 15 17  1  0
 15 13  1  0
 16 15  2  0
 17 18  1  0
 19 18  1  0
 20 19  1  0
 21 20  1  0
 21 17  1  0
 22 24  1  0
 21 22  1  1
 23 22  2  0
M  END
$$$$
