VQP.pdb
     RDKit          3D

 24 24  0  0  1  0  0  0  0  0999 V2000
   26.1676  -20.9974  -14.5535 C   0  0  0  0  0  0  0  0  0  0  0  0
   25.8088  -20.3911  -13.2110 C   0  0  1  0  0  0  0  0  0  0  0  0
   24.4114  -20.8109  -12.8118 C   0  0  0  0  0  0  0  0  0  0  0  0
   26.7450  -20.8385  -12.1256 C   0  0  2  0  0  0  0  0  0  0  0  0
   26.6243  -22.2585  -11.9525 N   0  0  0  0  0  0  0  0  0  0  0  0
   26.4265  -20.1766  -10.8180 C   0  0  0  0  0  0  0  0  0  0  0  0
   26.3777  -18.9260  -10.7282 O   0  0  0  0  0  0  0  0  0  0  0  0
   22.3084  -21.9009   -6.9342 N   0  0  0  0  0  0  0  0  0  0  0  0
   22.1922  -21.0600   -8.0559 C   0  0  0  0  0  0  0  0  0  0  0  0
   21.1007  -20.7947   -8.5767 O   0  0  0  0  0  0  0  0  0  0  0  0
   23.4508  -20.4625   -8.6407 C   0  0  0  0  0  0  0  0  0  0  0  0
   24.6141  -20.9891   -7.8812 C   0  0  0  0  0  0  0  0  0  0  0  0
   25.9404  -20.4361   -8.3594 C   0  0  2  0  0  0  0  0  0  0  0  0
   26.1859  -20.9885   -9.7039 N   0  0  0  0  0  0  0  0  0  0  0  0
   27.0844  -20.6548   -7.4873 C   0  0  0  0  0  0  0  0  0  0  0  0
   27.5954  -21.8348   -7.5212 O   0  0  0  0  0  0  0  0  0  0  0  0
   27.7290  -19.7565   -6.6079 N   0  0  0  0  0  0  0  0  0  0  0  0
   27.5678  -18.3117   -6.6561 C   0  0  0  0  0  0  0  0  0  0  0  0
   28.9431  -17.8184   -6.1235 C   0  0  0  0  0  0  0  0  0  0  0  0
   29.0502  -18.7661   -4.9444 C   0  0  0  0  0  0  0  0  0  0  0  0
   28.6555  -20.0805   -5.5359 C   0  0  1  0  0  0  0  0  0  0  0  0
   28.0808  -21.0137   -4.5623 C   0  0  0  0  0  0  0  0  0  0  0  0
   26.8697  -21.2945   -4.6133 O   0  0  0  0  0  0  0  0  0  0  0  0
   28.8676  -21.5884   -3.5847 O   0  0  0  0  0  0  0  0  0  0  0  0
  2  3  1  1
  2  1  1  0
  4  6  1  0
  4  2  1  0
  4  5  1  1
  6  7  2  0
  8  9  1  0
  9 11  1  0
  9 10  2  0
 11 12  1  0
 13 12  1  1
 14  6  1  0
 14 13  1  0
 15 17  1  0
 15 13  1  0
 16 15  2  0
 17 18  1  0
 19 18  1  0
 20 19  1  0
 21 20  1  0
 21 17  1  0
 22 24  1  0
 21 22  1  1
 23 22  2  0
M  END
$$$$
