VQP.pdb
     RDKit          3D

 24 24  0  0  1  0  0  0  0  0999 V2000
   18.4030  -12.1641  -19.6504 C   0  0  0  0  0  0  0  0  0  0  0  0
   18.1644  -10.9685  -18.7492 C   0  0  1  0  0  0  0  0  0  0  0  0
   16.6895  -10.6344  -18.7143 C   0  0  0  0  0  0  0  0  0  0  0  0
   18.6036  -11.2336  -17.3379 C   0  0  2  0  0  0  0  0  0  0  0  0
   17.9217  -12.3950  -16.8407 N   0  0  0  0  0  0  0  0  0  0  0  0
   18.2834  -10.0785  -16.4367 C   0  0  0  0  0  0  0  0  0  0  0  0
   17.2633  -10.0995  -15.7062 O   0  0  0  0  0  0  0  0  0  0  0  0
   21.5919   -7.9916  -12.3599 N   0  0  0  0  0  0  0  0  0  0  0  0
   20.3135   -8.5084  -12.0819 C   0  0  0  0  0  0  0  0  0  0  0  0
   20.0163   -8.9881  -10.9798 O   0  0  0  0  0  0  0  0  0  0  0  0
   19.2700   -8.4731  -13.1742 C   0  0  0  0  0  0  0  0  0  0  0  0
   19.8989   -7.9237  -14.4030 C   0  0  0  0  0  0  0  0  0  0  0  0
   18.9361   -7.8059  -15.5661 C   0  0  2  0  0  0  0  0  0  0  0  0
   19.1498   -8.9797  -16.4320 N   0  0  0  0  0  0  0  0  0  0  0  0
   18.9975   -6.5716  -16.3339 C   0  0  0  0  0  0  0  0  0  0  0  0
   19.9694   -6.4824  -17.1718 O   0  0  0  0  0  0  0  0  0  0  0  0
   18.1386   -5.4503  -16.3034 N   0  0  0  0  0  0  0  0  0  0  0  0
   16.9327   -5.3690  -15.4939 C   0  0  0  0  0  0  0  0  0  0  0  0
   16.0363   -4.4290  -16.3488 C   0  0  0  0  0  0  0  0  0  0  0  0
   17.0901   -3.3858  -16.6670 C   0  0  0  0  0  0  0  0  0  0  0  0
   18.2723   -4.2135  -17.0550 C   0  0  1  0  0  0  0  0  0  0  0  0
   19.5575   -3.5498  -16.8165 C   0  0  0  0  0  0  0  0  0  0  0  0
   20.3072   -3.9580  -15.9112 O   0  0  0  0  0  0  0  0  0  0  0  0
   19.9502   -2.4730  -17.5856 O   0  0  0  0  0  0  0  0  0  0  0  0
  2  3  1  1
  2  1  1  0
  4  6  1  0
  4  2  1  0
  4  5  1  1
  6  7  2  0
  8  9  1  0
  9 11  1  0
  9 10  2  0
 11 12  1  0
 13 12  1  1
 14  6  1  0
 14 13  1  0
 15 17  1  0
 15 13  1  0
 16 15  2  0
 17 18  1  0
 19 18  1  0
 20 19  1  0
 21 20  1  0
 21 17  1  0
 22 24  1  0
 21 22  1  1
 23 22  2  0
M  END
$$$$
