VQP.pdb
     RDKit          3D

 24 24  0  0  1  0  0  0  0  0999 V2000
   22.1736  -15.9240  -18.8494 C   0  0  0  0  0  0  0  0  0  0  0  0
   22.1173  -16.4108  -17.4147 C   0  0  1  0  0  0  0  0  0  0  0  0
   20.6908  -16.7450  -17.0385 C   0  0  0  0  0  0  0  0  0  0  0  0
   22.9428  -17.6483  -17.2098 C   0  0  2  0  0  0  0  0  0  0  0  0
   22.4411  -18.6965  -18.0528 N   0  0  0  0  0  0  0  0  0  0  0  0
   22.8827  -18.1196  -15.7873 C   0  0  0  0  0  0  0  0  0  0  0  0
   23.3042  -17.3945  -14.8540 O   0  0  0  0  0  0  0  0  0  0  0  0
   18.6435  -21.5950  -13.3071 N   0  0  0  0  0  0  0  0  0  0  0  0
   18.8201  -20.2625  -12.8924 C   0  0  0  0  0  0  0  0  0  0  0  0
   17.9296  -19.6222  -12.3176 O   0  0  0  0  0  0  0  0  0  0  0  0
   20.1486  -19.5950  -13.1620 C   0  0  0  0  0  0  0  0  0  0  0  0
   21.0105  -20.5527  -13.9018 C   0  0  0  0  0  0  0  0  0  0  0  0
   22.3936  -20.0096  -14.1945 C   0  0  2  0  0  0  0  0  0  0  0  0
   22.3455  -19.3857  -15.5292 N   0  0  0  0  0  0  0  0  0  0  0  0
   23.4938  -20.9569  -14.0994 C   0  0  0  0  0  0  0  0  0  0  0  0
   23.7717  -21.6007  -15.1778 O   0  0  0  0  0  0  0  0  0  0  0  0
   24.3151  -21.2727  -12.9941 N   0  0  0  0  0  0  0  0  0  0  0  0
   24.2650  -20.5787  -11.7167 C   0  0  0  0  0  0  0  0  0  0  0  0
   25.7319  -20.7173  -11.2196 C   0  0  0  0  0  0  0  0  0  0  0  0
   25.9128  -22.1877  -11.5436 C   0  0  0  0  0  0  0  0  0  0  0  0
   25.3420  -22.2986  -12.9203 C   0  0  1  0  0  0  0  0  0  0  0  0
   24.8237  -23.6332  -13.2354 C   0  0  0  0  0  0  0  0  0  0  0  0
   25.6139  -24.5696  -13.4520 O   0  0  0  0  0  0  0  0  0  0  0  0
   23.4649  -23.8675  -13.2956 O   0  0  0  0  0  0  0  0  0  0  0  0
  2  3  1  6
  2  1  1  0
  4  6  1  0
  4  2  1  0
  4  5  1  6
  6  7  2  0
  8  9  1  0
  9 11  1  0
  9 10  2  0
 11 12  1  0
 13 12  1  6
 14  6  1  0
 14 13  1  0
 15 17  1  0
 15 13  1  0
 16 15  2  0
 17 18  1  0
 19 18  1  0
 20 19  1  0
 21 20  1  0
 21 17  1  0
 22 24  1  0
 21 22  1  1
 23 22  2  0
M  END
$$$$
