VQP.pdb
     RDKit          3D

 24 24  0  0  1  0  0  0  0  0999 V2000
   28.0218  -18.0846  -17.4698 C   0  0  0  0  0  0  0  0  0  0  0  0
   26.8298  -18.1853  -18.4012 C   0  0  1  0  0  0  0  0  0  0  0  0
   26.3928  -19.6280  -18.5265 C   0  0  0  0  0  0  0  0  0  0  0  0
   25.6555  -17.3973  -17.8962 C   0  0  2  0  0  0  0  0  0  0  0  0
   25.9979  -16.0034  -17.8685 N   0  0  0  0  0  0  0  0  0  0  0  0
   25.2700  -17.8145  -16.5082 C   0  0  0  0  0  0  0  0  0  0  0  0
   25.9699  -17.4813  -15.5214 O   0  0  0  0  0  0  0  0  0  0  0  0
   19.5054  -19.0670  -15.1212 N   0  0  0  0  0  0  0  0  0  0  0  0
   20.0516  -19.4372  -13.8788 C   0  0  0  0  0  0  0  0  0  0  0  0
   19.3464  -19.7305  -12.9042 O   0  0  0  0  0  0  0  0  0  0  0  0
   21.5554  -19.4760  -13.7368 C   0  0  0  0  0  0  0  0  0  0  0  0
   22.1563  -18.9491  -14.9893 C   0  0  0  0  0  0  0  0  0  0  0  0
   23.6655  -19.0696  -15.0253 C   0  0  2  0  0  0  0  0  0  0  0  0
   24.1123  -18.5831  -16.3432 N   0  0  0  0  0  0  0  0  0  0  0  0
   24.2162  -20.3856  -14.7394 C   0  0  0  0  0  0  0  0  0  0  0  0
   24.1541  -21.2381  -15.7007 O   0  0  0  0  0  0  0  0  0  0  0  0
   24.8212  -20.8697  -13.5581 N   0  0  0  0  0  0  0  0  0  0  0  0
   25.1574  -20.0366  -12.4141 C   0  0  0  0  0  0  0  0  0  0  0  0
   26.3917  -20.7798  -11.8288 C   0  0  0  0  0  0  0  0  0  0  0  0
   25.8286  -22.1860  -11.9010 C   0  0  0  0  0  0  0  0  0  0  0  0
   25.2272  -22.2348  -13.2682 C   0  0  1  0  0  0  0  0  0  0  0  0
   24.1182  -23.1860  -13.3882 C   0  0  0  0  0  0  0  0  0  0  0  0
   22.9500  -22.7675  -13.4803 O   0  0  0  0  0  0  0  0  0  0  0  0
   24.3521  -24.5462  -13.4008 O   0  0  0  0  0  0  0  0  0  0  0  0
  2  3  1  1
  2  1  1  0
  4  6  1  0
  4  2  1  0
  4  5  1  1
  6  7  2  0
  8  9  1  0
  9 11  1  0
  9 10  2  0
 11 12  1  0
 13 12  1  6
 14  6  1  0
 14 13  1  0
 15 17  1  0
 15 13  1  0
 16 15  2  0
 17 18  1  0
 19 18  1  0
 20 19  1  0
 21 20  1  0
 21 17  1  0
 22 24  1  0
 21 22  1  1
 23 22  2  0
M  END
$$$$
