VQP.pdb
     RDKit          3D

 24 24  0  0  1  0  0  0  0  0999 V2000
   26.8187  -15.3041  -16.6346 C   0  0  0  0  0  0  0  0  0  0  0  0
   26.3045  -16.6072  -16.0547 C   0  0  1  0  0  0  0  0  0  0  0  0
   25.4478  -17.3239  -17.0748 C   0  0  0  0  0  0  0  0  0  0  0  0
   27.4245  -17.5314  -15.6724 C   0  0  2  0  0  0  0  0  0  0  0  0
   28.2238  -17.8108  -16.8318 N   0  0  0  0  0  0  0  0  0  0  0  0
   26.9049  -18.8315  -15.1350 C   0  0  0  0  0  0  0  0  0  0  0  0
   26.8677  -19.8552  -15.8598 O   0  0  0  0  0  0  0  0  0  0  0  0
   26.0189  -19.3862   -9.0596 N   0  0  0  0  0  0  0  0  0  0  0  0
   25.7321  -20.7192   -9.4055 C   0  0  0  0  0  0  0  0  0  0  0  0
   25.4762  -21.5850   -8.5580 O   0  0  0  0  0  0  0  0  0  0  0  0
   25.7387  -21.1006  -10.8676 C   0  0  0  0  0  0  0  0  0  0  0  0
   26.1305  -19.9063  -11.6598 C   0  0  0  0  0  0  0  0  0  0  0  0
   26.0296  -20.1214  -13.1555 C   0  0  2  0  0  0  0  0  0  0  0  0
   26.4639  -18.8727  -13.8076 N   0  0  0  0  0  0  0  0  0  0  0  0
   24.7353  -20.5527  -13.6609 C   0  0  0  0  0  0  0  0  0  0  0  0
   23.8915  -19.6141  -13.9095 O   0  0  0  0  0  0  0  0  0  0  0  0
   24.2646  -21.8573  -13.9299 N   0  0  0  0  0  0  0  0  0  0  0  0
   25.0453  -23.0658  -13.7158 C   0  0  0  0  0  0  0  0  0  0  0  0
   24.4755  -24.0128  -14.8097 C   0  0  0  0  0  0  0  0  0  0  0  0
   23.0051  -23.7264  -14.5732 C   0  0  0  0  0  0  0  0  0  0  0  0
   22.9684  -22.2362  -14.4673 C   0  0  1  0  0  0  0  0  0  0  0  0
   21.8568  -21.7324  -13.6552 C   0  0  0  0  0  0  0  0  0  0  0  0
   20.7180  -21.6458  -14.1491 O   0  0  0  0  0  0  0  0  0  0  0  0
   22.0558  -21.3509  -12.3438 O   0  0  0  0  0  0  0  0  0  0  0  0
  2  3  1  6
  2  1  1  0
  4  6  1  0
  4  2  1  0
  4  5  1  6
  6  7  2  0
  8  9  1  0
  9 11  1  0
  9 10  2  0
 11 12  1  0
 13 12  1  1
 14  6  1  0
 14 13  1  0
 15 17  1  0
 15 13  1  0
 16 15  2  0
 17 18  1  0
 19 18  1  0
 20 19  1  0
 21 20  1  0
 21 17  1  0
 22 24  1  0
 21 22  1  1
 23 22  2  0
M  END
$$$$
