VQP.pdb
     RDKit          3D

 24 24  0  0  1  0  0  0  0  0999 V2000
   17.8763  -13.5901  -16.2143 C   0  0  0  0  0  0  0  0  0  0  0  0
   18.2853  -15.0426  -16.3613 C   0  0  1  0  0  0  0  0  0  0  0  0
   17.3065  -15.7662  -17.2594 C   0  0  0  0  0  0  0  0  0  0  0  0
   19.6501  -15.1817  -16.9717 C   0  0  2  0  0  0  0  0  0  0  0  0
   19.9842  -16.5744  -17.0709 N   0  0  0  0  0  0  0  0  0  0  0  0
   20.6967  -14.5053  -16.1372 C   0  0  0  0  0  0  0  0  0  0  0  0
   21.5874  -15.1749  -15.5602 O   0  0  0  0  0  0  0  0  0  0  0  0
   24.6539  -12.3543  -18.3717 N   0  0  0  0  0  0  0  0  0  0  0  0
   25.1162  -11.8554  -17.1403 C   0  0  0  0  0  0  0  0  0  0  0  0
   26.1903  -11.2491  -17.0306 O   0  0  0  0  0  0  0  0  0  0  0  0
   24.2647  -12.0716  -15.9110 C   0  0  0  0  0  0  0  0  0  0  0  0
   23.0156  -12.7619  -16.3239 C   0  0  0  0  0  0  0  0  0  0  0  0
   21.8002  -12.3219  -15.5346 C   0  0  2  0  0  0  0  0  0  0  0  0
   20.6538  -13.1116  -16.0194 N   0  0  0  0  0  0  0  0  0  0  0  0
   21.4992  -10.8985  -15.5510 C   0  0  0  0  0  0  0  0  0  0  0  0
   20.9948  -10.4466  -16.6447 O   0  0  0  0  0  0  0  0  0  0  0  0
   21.6710   -9.9316  -14.5354 N   0  0  0  0  0  0  0  0  0  0  0  0
   22.1848  -10.2271  -13.2070 C   0  0  0  0  0  0  0  0  0  0  0  0
   21.4712   -9.1503  -12.3412 C   0  0  0  0  0  0  0  0  0  0  0  0
   21.7132   -7.9668  -13.2581 C   0  0  0  0  0  0  0  0  0  0  0  0
   21.3660   -8.5122  -14.6054 C   0  0  1  0  0  0  0  0  0  0  0  0
   22.0642   -7.8433  -15.7073 C   0  0  0  0  0  0  0  0  0  0  0  0
   23.0036   -8.4188  -16.2858 O   0  0  0  0  0  0  0  0  0  0  0  0
   21.6929   -6.5780  -16.1147 O   0  0  0  0  0  0  0  0  0  0  0  0
  2  3  1  6
  2  1  1  0
  4  6  1  0
  4  2  1  0
  4  5  1  1
  6  7  2  0
  8  9  1  0
  9 11  1  0
  9 10  2  0
 11 12  1  0
 13 12  1  6
 14  6  1  0
 14 13  1  0
 15 17  1  0
 15 13  1  0
 16 15  2  0
 17 18  1  0
 19 18  1  0
 20 19  1  0
 21 20  1  0
 21 17  1  0
 22 24  1  0
 21 22  1  6
 23 22  2  0
M  END
$$$$
