VQP.pdb
     RDKit          3D

 24 24  0  0  1  0  0  0  0  0999 V2000
   24.0011  -13.5398  -17.6414 C   0  0  0  0  0  0  0  0  0  0  0  0
   22.8985  -12.5004  -17.6934 C   0  0  1  0  0  0  0  0  0  0  0  0
   21.7004  -12.9787  -16.9033 C   0  0  0  0  0  0  0  0  0  0  0  0
   23.3358  -11.1894  -17.1062 C   0  0  2  0  0  0  0  0  0  0  0  0
   23.7353  -11.3918  -15.7422 N   0  0  0  0  0  0  0  0  0  0  0  0
   22.2260  -10.1809  -17.1264 C   0  0  0  0  0  0  0  0  0  0  0  0
   21.7203   -9.8064  -18.2121 O   0  0  0  0  0  0  0  0  0  0  0  0
   18.4473   -9.4520  -12.3506 N   0  0  0  0  0  0  0  0  0  0  0  0
   17.8623   -9.9589  -13.5252 C   0  0  0  0  0  0  0  0  0  0  0  0
   16.8002  -10.5953  -13.5169 O   0  0  0  0  0  0  0  0  0  0  0  0
   18.5624   -9.7135  -14.8415 C   0  0  0  0  0  0  0  0  0  0  0  0
   19.8687   -9.0634  -14.5613 C   0  0  0  0  0  0  0  0  0  0  0  0
   20.6468   -8.7202  -15.8145 C   0  0  2  0  0  0  0  0  0  0  0  0
   21.7705   -9.6699  -15.9059 N   0  0  0  0  0  0  0  0  0  0  0  0
   21.1122   -7.3466  -15.9308 C   0  0  0  0  0  0  0  0  0  0  0  0
   22.1663   -7.0545  -15.2538 O   0  0  0  0  0  0  0  0  0  0  0  0
   20.5812   -6.2787  -16.6881 N   0  0  0  0  0  0  0  0  0  0  0  0
   19.5079   -6.4227  -17.6592 C   0  0  0  0  0  0  0  0  0  0  0  0
   19.8416   -5.2933  -18.6748 C   0  0  0  0  0  0  0  0  0  0  0  0
   20.1265   -4.1975  -17.6657 C   0  0  0  0  0  0  0  0  0  0  0  0
   20.9944   -4.8855  -16.6624 C   0  0  1  0  0  0  0  0  0  0  0  0
   20.9150   -4.3027  -15.3196 C   0  0  0  0  0  0  0  0  0  0  0  0
   20.3000   -4.9023  -14.4193 O   0  0  0  0  0  0  0  0  0  0  0  0
   21.5156   -3.0924  -15.0378 O   0  0  0  0  0  0  0  0  0  0  0  0
  2  3  1  1
  2  1  1  0
  4  6  1  0
  4  2  1  0
  4  5  1  1
  6  7  2  0
  8  9  1  0
  9 11  1  0
  9 10  2  0
 11 12  1  0
 13 12  1  1
 14  6  1  0
 14 13  1  0
 15 17  1  0
 15 13  1  0
 16 15  2  0
 17 18  1  0
 19 18  1  0
 20 19  1  0
 21 20  1  0
 21 17  1  0
 22 24  1  0
 21 22  1  1
 23 22  2  0
M  END
$$$$
