VQP.pdb
     RDKit          3D

 24 24  0  0  1  0  0  0  0  0999 V2000
   20.9622  -33.9144   -2.7234 C   0  0  0  0  0  0  0  0  0  0  0  0
   22.0476  -33.7188   -3.7638 C   0  0  1  0  0  0  0  0  0  0  0  0
   22.6296  -35.0575   -4.1607 C   0  0  0  0  0  0  0  0  0  0  0  0
   21.5199  -33.0659   -5.0087 C   0  0  2  0  0  0  0  0  0  0  0  0
   22.5929  -32.9022   -5.9482 N   0  0  0  0  0  0  0  0  0  0  0  0
   20.9403  -31.7138   -4.7166 C   0  0  0  0  0  0  0  0  0  0  0  0
   21.6811  -30.7048   -4.6282 O   0  0  0  0  0  0  0  0  0  0  0  0
   17.1523  -28.8369   -7.1536 N   0  0  0  0  0  0  0  0  0  0  0  0
   16.7448  -28.2564   -5.9388 C   0  0  0  0  0  0  0  0  0  0  0  0
   16.3873  -27.0739   -5.8547 O   0  0  0  0  0  0  0  0  0  0  0  0
   16.7463  -29.1145   -4.6950 C   0  0  0  0  0  0  0  0  0  0  0  0
   17.5614  -30.3270   -4.9655 C   0  0  0  0  0  0  0  0  0  0  0  0
   18.8908  -30.3279   -4.2400 C   0  0  2  0  0  0  0  0  0  0  0  0
   19.5555  -31.6077   -4.5457 N   0  0  0  0  0  0  0  0  0  0  0  0
   18.8446  -30.0922   -2.8051 C   0  0  0  0  0  0  0  0  0  0  0  0
   18.5085  -31.1026   -2.0834 O   0  0  0  0  0  0  0  0  0  0  0  0
   19.1235  -28.9132   -2.0783 N   0  0  0  0  0  0  0  0  0  0  0  0
   19.6318  -27.6883   -2.6759 C   0  0  0  0  0  0  0  0  0  0  0  0
   20.4556  -27.0795   -1.5058 C   0  0  0  0  0  0  0  0  0  0  0  0
   19.4319  -27.2977   -0.4084 C   0  0  0  0  0  0  0  0  0  0  0  0
   18.9810  -28.7022   -0.6473 C   0  0  1  0  0  0  0  0  0  0  0  0
   17.6193  -28.9702   -0.1749 C   0  0  0  0  0  0  0  0  0  0  0  0
   16.6984  -29.1292   -0.9965 O   0  0  0  0  0  0  0  0  0  0  0  0
   17.3423  -29.0492    1.1749 O   0  0  0  0  0  0  0  0  0  0  0  0
  2  3  1  6
  2  1  1  0
  4  6  1  0
  4  2  1  0
  4  5  1  6
  6  7  2  0
  8  9  1  0
  9 11  1  0
  9 10  2  0
 11 12  1  0
 13 12  1  1
 14  6  1  0
 14 13  1  0
 15 17  1  0
 15 13  1  0
 16 15  2  0
 17 18  1  0
 19 18  1  0
 20 19  1  0
 21 20  1  0
 21 17  1  0
 22 24  1  0
 21 22  1  6
 23 22  2  0
M  END
$$$$
