VQP.pdb
     RDKit          3D

 24 24  0  0  1  0  0  0  0  0999 V2000
   17.7721  -16.7696  -17.0416 C   0  0  0  0  0  0  0  0  0  0  0  0
   18.3181  -15.4786  -17.6194 C   0  0  1  0  0  0  0  0  0  0  0  0
   17.1776  -14.5665  -18.0141 C   0  0  0  0  0  0  0  0  0  0  0  0
   19.1704  -14.7377  -16.6297 C   0  0  2  0  0  0  0  0  0  0  0  0
   18.5407  -14.7774  -15.3401 N   0  0  0  0  0  0  0  0  0  0  0  0
   19.3465  -13.3012  -17.0230 C   0  0  0  0  0  0  0  0  0  0  0  0
   19.9541  -12.9957  -18.0776 O   0  0  0  0  0  0  0  0  0  0  0  0
   15.6236   -9.7831  -18.4504 N   0  0  0  0  0  0  0  0  0  0  0  0
   16.2322   -8.6765  -17.8310 C   0  0  0  0  0  0  0  0  0  0  0  0
   15.9233   -7.5091  -18.1050 O   0  0  0  0  0  0  0  0  0  0  0  0
   17.3015   -8.9303  -16.7941 C   0  0  0  0  0  0  0  0  0  0  0  0
   17.4181  -10.3977  -16.5934 C   0  0  0  0  0  0  0  0  0  0  0  0
   18.8522  -10.8805  -16.5291 C   0  0  2  0  0  0  0  0  0  0  0  0
   18.8168  -12.3135  -16.1852 N   0  0  0  0  0  0  0  0  0  0  0  0
   19.7409  -10.1505  -15.6379 C   0  0  0  0  0  0  0  0  0  0  0  0
   19.6354  -10.4347  -14.3878 O   0  0  0  0  0  0  0  0  0  0  0  0
   20.7160   -9.1746  -15.9421 N   0  0  0  0  0  0  0  0  0  0  0  0
   20.9725   -8.6683  -17.2814 C   0  0  0  0  0  0  0  0  0  0  0  0
   22.4845   -8.3131  -17.2051 C   0  0  0  0  0  0  0  0  0  0  0  0
   22.4539   -7.6037  -15.8650 C   0  0  0  0  0  0  0  0  0  0  0  0
   21.6307   -8.5216  -15.0205 C   0  0  1  0  0  0  0  0  0  0  0  0
   20.9318   -7.8429  -13.9250 C   0  0  0  0  0  0  0  0  0  0  0  0
   19.7575   -7.4621  -14.0809 O   0  0  0  0  0  0  0  0  0  0  0  0
   21.5606   -7.6189  -12.7169 O   0  0  0  0  0  0  0  0  0  0  0  0
  2  3  1  1
  2  1  1  0
  4  6  1  0
  4  2  1  0
  4  5  1  1
  6  7  2  0
  8  9  1  0
  9 11  1  0
  9 10  2  0
 11 12  1  0
 13 12  1  1
 14  6  1  0
 14 13  1  0
 15 17  1  0
 15 13  1  0
 16 15  2  0
 17 18  1  0
 19 18  1  0
 20 19  1  0
 21 20  1  0
 21 17  1  0
 22 24  1  0
 21 22  1  1
 23 22  2  0
M  END
$$$$
