VQP.pdb
     RDKit          3D

 24 24  0  0  1  0  0  0  0  0999 V2000
   13.7893  -22.3083    1.6605 C   0  0  0  0  0  0  0  0  0  0  0  0
   14.8209  -21.4994    2.4222 C   0  0  1  0  0  0  0  0  0  0  0  0
   15.8192  -22.4254    3.0812 C   0  0  0  0  0  0  0  0  0  0  0  0
   15.5861  -20.5747    1.5199 C   0  0  2  0  0  0  0  0  0  0  0  0
   16.1512  -21.3301    0.4378 N   0  0  0  0  0  0  0  0  0  0  0  0
   16.7038  -19.8933    2.2517 C   0  0  0  0  0  0  0  0  0  0  0  0
   17.8970  -20.2263    2.0522 O   0  0  0  0  0  0  0  0  0  0  0  0
   15.9272  -14.1572    3.8916 N   0  0  0  0  0  0  0  0  0  0  0  0
   17.2135  -14.2965    4.4437 C   0  0  0  0  0  0  0  0  0  0  0  0
   17.8420  -13.3385    4.9133 O   0  0  0  0  0  0  0  0  0  0  0  0
   17.8446  -15.6693    4.4606 C   0  0  0  0  0  0  0  0  0  0  0  0
   16.8940  -16.6276    3.8397 C   0  0  0  0  0  0  0  0  0  0  0  0
   17.4076  -18.0522    3.8213 C   0  0  2  0  0  0  0  0  0  0  0  0
   16.3816  -18.8790    3.1604 N   0  0  0  0  0  0  0  0  0  0  0  0
   17.7881  -18.6190    5.1062 C   0  0  0  0  0  0  0  0  0  0  0  0
   16.8402  -19.1762    5.7739 O   0  0  0  0  0  0  0  0  0  0  0  0
   19.0539  -18.6572    5.7324 N   0  0  0  0  0  0  0  0  0  0  0  0
   20.2773  -18.1522    5.1291 C   0  0  0  0  0  0  0  0  0  0  0  0
   21.3537  -19.0748    5.7682 C   0  0  0  0  0  0  0  0  0  0  0  0
   20.8501  -19.0062    7.1971 C   0  0  0  0  0  0  0  0  0  0  0  0
   19.3767  -19.2007    7.0412 C   0  0  1  0  0  0  0  0  0  0  0  0
   18.5867  -18.5866    8.1126 C   0  0  0  0  0  0  0  0  0  0  0  0
   17.9897  -17.5147    7.9060 O   0  0  0  0  0  0  0  0  0  0  0  0
   18.4951  -19.1832    9.3539 O   0  0  0  0  0  0  0  0  0  0  0  0
  2  3  1  6
  2  1  1  0
  4  6  1  0
  4  2  1  0
  4  5  1  6
  6  7  2  0
  8  9  1  0
  9 11  1  0
  9 10  2  0
 11 12  1  0
 13 12  1  1
 14  6  1  0
 14 13  1  0
 15 17  1  0
 15 13  1  0
 16 15  2  0
 17 18  1  0
 19 18  1  0
 20 19  1  0
 21 20  1  0
 21 17  1  0
 22 24  1  0
 21 22  1  1
 23 22  2  0
M  END
$$$$
