EIP.pdb
     RDKit          3D

 25 25  0  0  1  0  0  0  0  0999 V2000
   20.3235  -15.8654  -17.9626 N   0  0  0  0  0  0  0  0  0  0  0  0
   19.9456  -14.5275  -18.2147 C   0  0  1  0  0  0  0  0  0  0  0  0
   18.6608  -14.1744  -17.5230 C   0  0  0  0  0  0  0  0  0  0  0  0
   18.2587  -15.0865  -16.4367 C   0  0  0  0  0  0  0  0  0  0  0  0
   17.0495  -14.8077  -15.6813 C   0  0  0  0  0  0  0  0  0  0  0  0
   15.8607  -14.9238  -16.0252 O   0  0  0  0  0  0  0  0  0  0  0  0
   20.9596  -13.5172  -17.7509 C   0  0  0  0  0  0  0  0  0  0  0  0
   21.8069  -13.8826  -16.9132 O   0  0  0  0  0  0  0  0  0  0  0  0
   17.2302  -14.3338  -14.3590 O   0  0  0  0  0  0  0  0  0  0  0  0
   22.6421  -11.2008  -21.3966 C   0  0  0  0  0  0  0  0  0  0  0  0
   23.2967  -11.2672  -20.0287 C   0  0  0  0  0  0  0  0  0  0  0  0
   22.4905  -10.5380  -19.0171 C   0  0  2  0  0  0  0  0  0  0  0  0
   23.3242   -9.3064  -18.6289 C   0  0  0  0  0  0  0  0  0  0  0  0
   22.1392  -11.2957  -17.7592 C   0  0  2  0  0  0  0  0  0  0  0  0
   21.0036  -12.1797  -18.2121 N   0  0  0  0  0  0  0  0  0  0  0  0
   21.5280  -10.4297  -16.7466 C   0  0  0  0  0  0  0  0  0  0  0  0
   20.5066   -9.7331  -17.1780 O   0  0  0  0  0  0  0  0  0  0  0  0
   21.8790  -10.2532  -15.3844 N   0  0  0  0  0  0  0  0  0  0  0  0
   22.8278  -10.8922  -14.5189 C   0  0  0  0  0  0  0  0  0  0  0  0
   23.2779   -9.7033  -13.6406 C   0  0  0  0  0  0  0  0  0  0  0  0
   21.8733   -9.2374  -13.2157 C   0  0  0  0  0  0  0  0  0  0  0  0
   21.1729   -9.2611  -14.5362 C   0  0  1  0  0  0  0  0  0  0  0  0
   21.3198   -7.9318  -15.1577 C   0  0  0  0  0  0  0  0  0  0  0  0
   22.1266   -7.7816  -16.1259 O   0  0  0  0  0  0  0  0  0  0  0  0
   20.6297   -6.8247  -14.7541 O   0  0  0  0  0  0  0  0  0  0  0  0
  2  1  1  1
  2  7  1  0
  3  2  1  0
  4  3  1  0
  5  4  1  0
  6  5  2  0
  7  8  2  0
  9  5  1  0
 11 10  1  0
 11 12  1  0
 12 13  1  1
 14 12  1  0
 15  7  1  0
 14 15  1  6
 16 14  1  0
 16 17  2  0
 18 16  1  0
 19 18  1  0
 20 19  1  0
 21 22  1  0
 21 20  1  0
 22 18  1  0
 22 23  1  6
 24 23  2  0
 25 23  1  0
M  END
$$$$
