EIP.pdb
     RDKit          3D

 25 25  0  0  1  0  0  0  0  0999 V2000
   20.3523  -19.7893  -13.3540 N   0  0  0  0  0  0  0  0  0  0  0  0
   21.3763  -20.6997  -13.6991 C   0  0  1  0  0  0  0  0  0  0  0  0
   21.3722  -21.0079  -15.1685 C   0  0  0  0  0  0  0  0  0  0  0  0
   20.4351  -22.0662  -15.5877 C   0  0  0  0  0  0  0  0  0  0  0  0
   19.6379  -22.7517  -14.5852 C   0  0  0  0  0  0  0  0  0  0  0  0
   18.6806  -22.3286  -13.9146 O   0  0  0  0  0  0  0  0  0  0  0  0
   22.7594  -20.1993  -13.3824 C   0  0  0  0  0  0  0  0  0  0  0  0
   22.9961  -18.9880  -13.5553 O   0  0  0  0  0  0  0  0  0  0  0  0
   19.9862  -24.0984  -14.3188 O   0  0  0  0  0  0  0  0  0  0  0  0
   24.0296  -20.6565   -9.8678 C   0  0  0  0  0  0  0  0  0  0  0  0
   25.5110  -20.7681  -10.1792 C   0  0  0  0  0  0  0  0  0  0  0  0
   25.7281  -21.2623  -11.5626 C   0  0  2  0  0  0  0  0  0  0  0  0
   27.2525  -21.3512  -11.7387 C   0  0  0  0  0  0  0  0  0  0  0  0
   25.1645  -20.4159  -12.6786 C   0  0  2  0  0  0  0  0  0  0  0  0
   23.8026  -21.0259  -12.9007 N   0  0  0  0  0  0  0  0  0  0  0  0
   25.8620  -20.6418  -13.9480 C   0  0  0  0  0  0  0  0  0  0  0  0
   25.9088  -21.8959  -14.3219 O   0  0  0  0  0  0  0  0  0  0  0  0
   26.4742  -19.7035  -14.8167 N   0  0  0  0  0  0  0  0  0  0  0  0
   26.7283  -18.2946  -14.7265 C   0  0  0  0  0  0  0  0  0  0  0  0
   28.0860  -18.1893  -15.4566 C   0  0  0  0  0  0  0  0  0  0  0  0
   27.6695  -18.9281  -16.7416 C   0  0  0  0  0  0  0  0  0  0  0  0
   26.9698  -20.1117  -16.1546 C   0  0  1  0  0  0  0  0  0  0  0  0
   27.9615  -21.1879  -15.9732 C   0  0  0  0  0  0  0  0  0  0  0  0
   28.4038  -21.4390  -14.8103 O   0  0  0  0  0  0  0  0  0  0  0  0
   28.4477  -21.9524  -16.9948 O   0  0  0  0  0  0  0  0  0  0  0  0
  2  1  1  6
  2  7  1  0
  3  2  1  0
  4  3  1  0
  5  4  1  0
  6  5  2  0
  7  8  2  0
  9  5  1  0
 11 10  1  0
 11 12  1  0
 12 13  1  6
 14 12  1  0
 15  7  1  0
 14 15  1  6
 16 14  1  0
 16 17  2  0
 18 16  1  0
 19 18  1  0
 20 19  1  0
 21 22  1  0
 21 20  1  0
 22 18  1  0
 22 23  1  1
 24 23  2  0
 25 23  1  0
M  END
$$$$
