EIP.pdb
     RDKit          3D

 25 25  0  0  1  0  0  0  0  0999 V2000
   23.4861  -23.0506  -17.4307 N   0  0  0  0  0  0  0  0  0  0  0  0
   24.3642  -24.0067  -16.8729 C   0  0  1  0  0  0  0  0  0  0  0  0
   23.7316  -25.3665  -16.8028 C   0  0  0  0  0  0  0  0  0  0  0  0
   23.3061  -25.7948  -15.4578 C   0  0  0  0  0  0  0  0  0  0  0  0
   22.7742  -24.8112  -14.5304 C   0  0  0  0  0  0  0  0  0  0  0  0
   23.0384  -24.6372  -13.3283 O   0  0  0  0  0  0  0  0  0  0  0  0
   25.6396  -24.1804  -17.6519 C   0  0  0  0  0  0  0  0  0  0  0  0
   25.5609  -24.2458  -18.8940 O   0  0  0  0  0  0  0  0  0  0  0  0
   21.8138  -23.9106  -15.0525 O   0  0  0  0  0  0  0  0  0  0  0  0
   29.3329  -20.6770  -16.9905 C   0  0  0  0  0  0  0  0  0  0  0  0
   28.4505  -21.7202  -17.6518 C   0  0  0  0  0  0  0  0  0  0  0  0
   28.9359  -23.0922  -17.3565 C   0  0  2  0  0  0  0  0  0  0  0  0
   30.3655  -23.1580  -17.9172 C   0  0  0  0  0  0  0  0  0  0  0  0
   28.1375  -24.2319  -17.9424 C   0  0  2  0  0  0  0  0  0  0  0  0
   26.9191  -24.2733  -17.0537 N   0  0  0  0  0  0  0  0  0  0  0  0
   28.7815  -25.5293  -17.7165 C   0  0  0  0  0  0  0  0  0  0  0  0
   29.3086  -25.6698  -16.5261 O   0  0  0  0  0  0  0  0  0  0  0  0
   28.9012  -26.6380  -18.5919 N   0  0  0  0  0  0  0  0  0  0  0  0
   28.3718  -26.9301  -19.8928 C   0  0  0  0  0  0  0  0  0  0  0  0
   29.5428  -27.7185  -20.5210 C   0  0  0  0  0  0  0  0  0  0  0  0
   29.7104  -28.7469  -19.3875 C   0  0  0  0  0  0  0  0  0  0  0  0
   29.6740  -27.8421  -18.1980 C   0  0  1  0  0  0  0  0  0  0  0  0
   31.0561  -27.4272  -17.8943 C   0  0  0  0  0  0  0  0  0  0  0  0
   31.4626  -26.2863  -18.2742 O   0  0  0  0  0  0  0  0  0  0  0  0
   31.9502  -28.2042  -17.2150 O   0  0  0  0  0  0  0  0  0  0  0  0
  2  1  1  6
  2  7  1  0
  3  2  1  0
  4  3  1  0
  5  4  1  0
  6  5  2  0
  7  8  2  0
  9  5  1  0
 11 10  1  0
 11 12  1  0
 12 13  1  6
 14 12  1  0
 15  7  1  0
 14 15  1  1
 16 14  1  0
 16 17  2  0
 18 16  1  0
 19 18  1  0
 20 19  1  0
 21 22  1  0
 21 20  1  0
 22 18  1  0
 22 23  1  6
 24 23  2  0
 25 23  1  0
M  END
$$$$
