EIP.pdb
     RDKit          3D

 25 25  0  0  1  0  0  0  0  0999 V2000
   27.5602  -24.5608  -17.2755 N   0  0  0  0  0  0  0  0  0  0  0  0
   26.6991  -23.4414  -17.2345 C   0  0  1  0  0  0  0  0  0  0  0  0
   25.2554  -23.8529  -17.2110 C   0  0  0  0  0  0  0  0  0  0  0  0
   24.5733  -23.8333  -18.5179 C   0  0  0  0  0  0  0  0  0  0  0  0
   24.5447  -22.6029  -19.2897 C   0  0  0  0  0  0  0  0  0  0  0  0
   24.0236  -21.5093  -19.0111 O   0  0  0  0  0  0  0  0  0  0  0  0
   26.9029  -22.5681  -16.0264 C   0  0  0  0  0  0  0  0  0  0  0  0
   27.6504  -22.9879  -15.1218 O   0  0  0  0  0  0  0  0  0  0  0  0
   25.2002  -22.6334  -20.5449 O   0  0  0  0  0  0  0  0  0  0  0  0
   27.6561  -18.6171  -17.4184 C   0  0  0  0  0  0  0  0  0  0  0  0
   27.9006  -18.6615  -15.9210 C   0  0  0  0  0  0  0  0  0  0  0  0
   26.6731  -19.0727  -15.1935 C   0  0  2  0  0  0  0  0  0  0  0  0
   26.5360  -18.0903  -14.0193 C   0  0  0  0  0  0  0  0  0  0  0  0
   26.6512  -20.4800  -14.6469 C   0  0  2  0  0  0  0  0  0  0  0  0
   26.2944  -21.3008  -15.8615 N   0  0  0  0  0  0  0  0  0  0  0  0
   25.5267  -20.6987  -13.7323 C   0  0  0  0  0  0  0  0  0  0  0  0
   24.3537  -20.7156  -14.3141 O   0  0  0  0  0  0  0  0  0  0  0  0
   25.5355  -20.9009  -12.3291 N   0  0  0  0  0  0  0  0  0  0  0  0
   26.5781  -20.9455  -11.3449 C   0  0  0  0  0  0  0  0  0  0  0  0
   25.8713  -20.2989  -10.1325 C   0  0  0  0  0  0  0  0  0  0  0  0
   24.6240  -21.2015  -10.1350 C   0  0  0  0  0  0  0  0  0  0  0  0
   24.2789  -21.1765  -11.5893 C   0  0  1  0  0  0  0  0  0  0  0  0
   23.3489  -20.0558  -11.8214 C   0  0  0  0  0  0  0  0  0  0  0  0
   23.7733  -18.9989  -12.3816 O   0  0  0  0  0  0  0  0  0  0  0  0
   22.0302  -20.0778  -11.4675 O   0  0  0  0  0  0  0  0  0  0  0  0
  2  1  1  1
  2  7  1  0
  3  2  1  0
  4  3  1  0
  5  4  1  0
  6  5  2  0
  7  8  2  0
  9  5  1  0
 11 10  1  0
 11 12  1  0
 12 13  1  1
 14 12  1  0
 15  7  1  0
 14 15  1  6
 16 14  1  0
 16 17  2  0
 18 16  1  0
 19 18  1  0
 20 19  1  0
 21 22  1  0
 21 20  1  0
 22 18  1  0
 22 23  1  1
 24 23  2  0
 25 23  1  0
M  END
$$$$
