EIP.pdb
     RDKit          3D

 25 25  0  0  1  0  0  0  0  0999 V2000
   18.6007  -15.7519  -17.7070 N   0  0  0  0  0  0  0  0  0  0  0  0
   18.1202  -14.6216  -17.0086 C   0  0  1  0  0  0  0  0  0  0  0  0
   17.9364  -14.9099  -15.5467 C   0  0  0  0  0  0  0  0  0  0  0  0
   16.9246  -15.9341  -15.2289 C   0  0  0  0  0  0  0  0  0  0  0  0
   16.7059  -16.3159  -13.8444 C   0  0  0  0  0  0  0  0  0  0  0  0
   17.2827  -15.9203  -12.8168 O   0  0  0  0  0  0  0  0  0  0  0  0
   19.0367  -13.4308  -17.0862 C   0  0  0  0  0  0  0  0  0  0  0  0
   20.2568  -13.6413  -17.2288 O   0  0  0  0  0  0  0  0  0  0  0  0
   15.6926  -17.2774  -13.6105 O   0  0  0  0  0  0  0  0  0  0  0  0
   17.4461  -10.4474  -20.2325 C   0  0  0  0  0  0  0  0  0  0  0  0
   18.8455  -10.5098  -19.6477 C   0  0  0  0  0  0  0  0  0  0  0  0
   18.8463  -10.0883  -18.2238 C   0  0  2  0  0  0  0  0  0  0  0  0
   19.5009   -8.6977  -18.2014 C   0  0  0  0  0  0  0  0  0  0  0  0
   19.5837  -10.9816  -17.2553 C   0  0  2  0  0  0  0  0  0  0  0  0
   18.5907  -12.0898  -17.0062 N   0  0  0  0  0  0  0  0  0  0  0  0
   19.7465  -10.3536  -15.9408 C   0  0  0  0  0  0  0  0  0  0  0  0
   18.6413   -9.8660  -15.4354 O   0  0  0  0  0  0  0  0  0  0  0  0
   20.9149  -10.2128  -15.1503 N   0  0  0  0  0  0  0  0  0  0  0  0
   22.2529  -10.7166  -15.2682 C   0  0  0  0  0  0  0  0  0  0  0  0
   23.0684   -9.5307  -14.7060 C   0  0  0  0  0  0  0  0  0  0  0  0
   22.2981   -9.3801  -13.3815 C   0  0  0  0  0  0  0  0  0  0  0  0
   20.8908   -9.4425  -13.8821 C   0  0  1  0  0  0  0  0  0  0  0  0
   20.4491   -8.0681  -14.1829 C   0  0  0  0  0  0  0  0  0  0  0  0
   20.4484   -7.6622  -15.3855 O   0  0  0  0  0  0  0  0  0  0  0  0
   20.0293   -7.1807  -13.2336 O   0  0  0  0  0  0  0  0  0  0  0  0
  2  1  1  6
  2  7  1  0
  3  2  1  0
  4  3  1  0
  5  4  1  0
  6  5  2  0
  7  8  2  0
  9  5  1  0
 11 10  1  0
 11 12  1  0
 12 13  1  6
 14 12  1  0
 15  7  1  0
 14 15  1  1
 16 14  1  0
 16 17  2  0
 18 16  1  0
 19 18  1  0
 20 19  1  0
 21 22  1  0
 21 20  1  0
 22 18  1  0
 22 23  1  6
 24 23  2  0
 25 23  1  0
M  END
$$$$
