EIP.pdb
     RDKit          3D

 25 25  0  0  1  0  0  0  0  0999 V2000
   20.3322  -11.2123  -19.3245 N   0  0  0  0  0  0  0  0  0  0  0  0
   21.2533  -10.2386  -18.8776 C   0  0  1  0  0  0  0  0  0  0  0  0
   21.3321   -9.0747  -19.8227 C   0  0  0  0  0  0  0  0  0  0  0  0
   21.8138   -9.3956  -21.1786 C   0  0  0  0  0  0  0  0  0  0  0  0
   22.0857   -8.3172  -22.1133 C   0  0  0  0  0  0  0  0  0  0  0  0
   21.9993   -7.0885  -21.9463 O   0  0  0  0  0  0  0  0  0  0  0  0
   20.9126   -9.6596  -17.5313 C   0  0  0  0  0  0  0  0  0  0  0  0
   19.7580   -9.8343  -17.0958 O   0  0  0  0  0  0  0  0  0  0  0  0
   22.5122   -8.7009  -23.4082 O   0  0  0  0  0  0  0  0  0  0  0  0
   21.5332  -11.1554  -13.7788 C   0  0  0  0  0  0  0  0  0  0  0  0
   22.7061  -10.4612  -14.4470 C   0  0  0  0  0  0  0  0  0  0  0  0
   22.5056   -8.9901  -14.4791 C   0  0  2  0  0  0  0  0  0  0  0  0
   22.2054   -8.5789  -13.0287 C   0  0  0  0  0  0  0  0  0  0  0  0
   21.3933   -8.4791  -15.3629 C   0  0  2  0  0  0  0  0  0  0  0  0
   21.8280   -8.9301  -16.7354 N   0  0  0  0  0  0  0  0  0  0  0  0
   21.3924   -7.0162  -15.4577 C   0  0  0  0  0  0  0  0  0  0  0  0
   22.5825   -6.4720  -15.4093 O   0  0  0  0  0  0  0  0  0  0  0  0
   20.2991   -6.1253  -15.6019 N   0  0  0  0  0  0  0  0  0  0  0  0
   18.8921   -6.3148  -15.8069 C   0  0  0  0  0  0  0  0  0  0  0  0
   18.3108   -5.1398  -14.9889 C   0  0  0  0  0  0  0  0  0  0  0  0
   19.1519   -4.0234  -15.6343 C   0  0  0  0  0  0  0  0  0  0  0  0
   20.5061   -4.6558  -15.6013 C   0  0  1  0  0  0  0  0  0  0  0  0
   21.1576   -4.2799  -14.3329 C   0  0  0  0  0  0  0  0  0  0  0  0
   21.1986   -5.1178  -13.3804 O   0  0  0  0  0  0  0  0  0  0  0  0
   21.7350   -3.0632  -14.1074 O   0  0  0  0  0  0  0  0  0  0  0  0
  2  1  1  6
  2  7  1  0
  3  2  1  0
  4  3  1  0
  5  4  1  0
  6  5  2  0
  7  8  2  0
  9  5  1  0
 11 10  1  0
 11 12  1  0
 12 13  1  1
 14 12  1  0
 15  7  1  0
 14 15  1  6
 16 14  1  0
 16 17  2  0
 18 16  1  0
 19 18  1  0
 20 19  1  0
 21 22  1  0
 21 20  1  0
 22 18  1  0
 22 23  1  1
 24 23  2  0
 25 23  1  0
M  END
$$$$
