EIP.pdb
     RDKit          3D

 25 25  0  0  1  0  0  0  0  0999 V2000
   18.9907  -15.2058  -18.0132 N   0  0  0  0  0  0  0  0  0  0  0  0
   18.3542  -14.1051  -17.3971 C   0  0  1  0  0  0  0  0  0  0  0  0
   18.0530  -14.3765  -15.9515 C   0  0  0  0  0  0  0  0  0  0  0  0
   17.0856  -15.4608  -15.7023 C   0  0  0  0  0  0  0  0  0  0  0  0
   16.6623  -15.7409  -14.3411 C   0  0  0  0  0  0  0  0  0  0  0  0
   17.1352  -15.3292  -13.2678 O   0  0  0  0  0  0  0  0  0  0  0  0
   19.1739  -12.8436  -17.4219 C   0  0  0  0  0  0  0  0  0  0  0  0
   20.4152  -12.9533  -17.4017 O   0  0  0  0  0  0  0  0  0  0  0  0
   15.5510  -16.6066  -14.1944 O   0  0  0  0  0  0  0  0  0  0  0  0
   18.0263   -9.6806  -21.0076 C   0  0  0  0  0  0  0  0  0  0  0  0
   19.1830  -10.0227  -20.0861 C   0  0  0  0  0  0  0  0  0  0  0  0
   18.9148   -9.5591  -18.7011 C   0  0  2  0  0  0  0  0  0  0  0  0
   19.4529   -8.1209  -18.6316 C   0  0  0  0  0  0  0  0  0  0  0  0
   19.5431  -10.3611  -17.5868 C   0  0  2  0  0  0  0  0  0  0  0  0
   18.6146  -11.5441  -17.4667 N   0  0  0  0  0  0  0  0  0  0  0  0
   19.4252   -9.6887  -16.2895 C   0  0  0  0  0  0  0  0  0  0  0  0
   18.2184   -9.2644  -16.0097 O   0  0  0  0  0  0  0  0  0  0  0  0
   20.4196   -9.4476  -15.3082 N   0  0  0  0  0  0  0  0  0  0  0  0
   21.7940   -9.8377  -15.1793 C   0  0  0  0  0  0  0  0  0  0  0  0
   22.3970   -8.5855  -14.5040 C   0  0  0  0  0  0  0  0  0  0  0  0
   21.3945   -8.4955  -13.3389 C   0  0  0  0  0  0  0  0  0  0  0  0
   20.1081   -8.6776  -14.0784 C   0  0  1  0  0  0  0  0  0  0  0  0
   19.6154   -7.3462  -14.4773 C   0  0  0  0  0  0  0  0  0  0  0  0
   19.0101   -6.6245  -13.6267 O   0  0  0  0  0  0  0  0  0  0  0  0
   19.7704   -6.8231  -15.7292 O   0  0  0  0  0  0  0  0  0  0  0  0
  2  1  1  1
  2  7  1  0
  3  2  1  0
  4  3  1  0
  5  4  1  0
  6  5  2  0
  7  8  2  0
  9  5  1  0
 11 10  1  0
 11 12  1  0
 12 13  1  6
 14 12  1  0
 15  7  1  0
 14 15  1  1
 16 14  1  0
 16 17  2  0
 18 16  1  0
 19 18  1  0
 20 19  1  0
 21 22  1  0
 21 20  1  0
 22 18  1  0
 22 23  1  6
 24 23  2  0
 25 23  1  0
M  END
$$$$
