EIP.pdb
     RDKit          3D

 25 25  0  0  1  0  0  0  0  0999 V2000
   17.4179  -18.2812  -16.8241 N   0  0  0  0  0  0  0  0  0  0  0  0
   16.7167  -17.2019  -16.2412 C   0  0  1  0  0  0  0  0  0  0  0  0
   16.9416  -17.1307  -14.7585 C   0  0  0  0  0  0  0  0  0  0  0  0
   18.2164  -17.7015  -14.2864 C   0  0  0  0  0  0  0  0  0  0  0  0
   18.4840  -17.7676  -12.8601 C   0  0  0  0  0  0  0  0  0  0  0  0
   17.7729  -17.4062  -11.9068 O   0  0  0  0  0  0  0  0  0  0  0  0
   17.1161  -15.8583  -16.7880 C   0  0  0  0  0  0  0  0  0  0  0  0
   18.2407  -15.7529  -17.3147 O   0  0  0  0  0  0  0  0  0  0  0  0
   19.7312  -18.3209  -12.4800 O   0  0  0  0  0  0  0  0  0  0  0  0
   13.6191  -14.1974  -19.1749 C   0  0  0  0  0  0  0  0  0  0  0  0
   15.0166  -13.6245  -19.3257 C   0  0  0  0  0  0  0  0  0  0  0  0
   15.4563  -12.9578  -18.0738 C   0  0  2  0  0  0  0  0  0  0  0  0
   15.6388  -11.4746  -18.4336 C   0  0  0  0  0  0  0  0  0  0  0  0
   16.7372  -13.4625  -17.4537 C   0  0  2  0  0  0  0  0  0  0  0  0
   16.2877  -14.7117  -16.7370 N   0  0  0  0  0  0  0  0  0  0  0  0
   17.2089  -12.5890  -16.3751 C   0  0  0  0  0  0  0  0  0  0  0  0
   16.3299  -12.3795  -15.4273 O   0  0  0  0  0  0  0  0  0  0  0  0
   18.4684  -11.9583  -16.2149 N   0  0  0  0  0  0  0  0  0  0  0  0
   19.6789  -11.9619  -16.9846 C   0  0  0  0  0  0  0  0  0  0  0  0
   20.1680  -10.5109  -16.7776 C   0  0  0  0  0  0  0  0  0  0  0  0
   20.1029  -10.5050  -15.2394 C   0  0  0  0  0  0  0  0  0  0  0  0
   18.7558  -11.1173  -15.0265 C   0  0  1  0  0  0  0  0  0  0  0  0
   17.7603  -10.0306  -14.9758 C   0  0  0  0  0  0  0  0  0  0  0  0
   17.0337   -9.8024  -15.9912 O   0  0  0  0  0  0  0  0  0  0  0  0
   17.5607   -9.2341  -13.8847 O   0  0  0  0  0  0  0  0  0  0  0  0
  2  1  1  6
  2  7  1  0
  3  2  1  0
  4  3  1  0
  5  4  1  0
  6  5  2  0
  7  8  2  0
  9  5  1  0
 11 10  1  0
 11 12  1  0
 12 13  1  6
 14 12  1  0
 15  7  1  0
 14 15  1  1
 16 14  1  0
 16 17  2  0
 18 16  1  0
 19 18  1  0
 20 19  1  0
 21 22  1  0
 21 20  1  0
 22 18  1  0
 22 23  1  6
 24 23  2  0
 25 23  1  0
M  END
$$$$
