EIP.pdb
     RDKit          3D

 25 25  0  0  1  0  0  0  0  0999 V2000
   20.6813  -17.7112  -16.2033 N   0  0  0  0  0  0  0  0  0  0  0  0
   20.0208  -16.5011  -15.8940 C   0  0  1  0  0  0  0  0  0  0  0  0
   19.3508  -16.5625  -14.5517 C   0  0  0  0  0  0  0  0  0  0  0  0
   18.3337  -17.6194  -14.4030 C   0  0  0  0  0  0  0  0  0  0  0  0
   18.3921  -18.5099  -13.2568 C   0  0  0  0  0  0  0  0  0  0  0  0
   19.0234  -18.3859  -12.1932 O   0  0  0  0  0  0  0  0  0  0  0  0
   20.9375  -15.3089  -15.8477 C   0  0  0  0  0  0  0  0  0  0  0  0
   22.1266  -15.4987  -15.5266 O   0  0  0  0  0  0  0  0  0  0  0  0
   17.6253  -19.6975  -13.3443 O   0  0  0  0  0  0  0  0  0  0  0  0
   23.4134  -11.9929  -19.0600 C   0  0  0  0  0  0  0  0  0  0  0  0
   22.1342  -11.4764  -18.4268 C   0  0  0  0  0  0  0  0  0  0  0  0
   21.3297  -12.5918  -17.8667 C   0  0  2  0  0  0  0  0  0  0  0  0
   19.8613  -12.1632  -18.0178 C   0  0  0  0  0  0  0  0  0  0  0  0
   21.5801  -12.9455  -16.4204 C   0  0  2  0  0  0  0  0  0  0  0  0
   20.5247  -13.9885  -16.1476 N   0  0  0  0  0  0  0  0  0  0  0  0
   21.2301  -11.8464  -15.5157 C   0  0  0  0  0  0  0  0  0  0  0  0
   19.9982  -11.4193  -15.6373 O   0  0  0  0  0  0  0  0  0  0  0  0
   22.0259  -11.1999  -14.5366 N   0  0  0  0  0  0  0  0  0  0  0  0
   23.3641  -11.4026  -14.0614 C   0  0  0  0  0  0  0  0  0  0  0  0
   23.8047   -9.9481  -13.7823 C   0  0  0  0  0  0  0  0  0  0  0  0
   22.6075   -9.5522  -12.8989 C   0  0  0  0  0  0  0  0  0  0  0  0
   21.4796  -10.0860  -13.7223 C   0  0  1  0  0  0  0  0  0  0  0  0
   21.0334   -9.0187  -14.6368 C   0  0  0  0  0  0  0  0  0  0  0  0
   21.3436   -9.0803  -15.8660 O   0  0  0  0  0  0  0  0  0  0  0  0
   20.2903   -7.9429  -14.2428 O   0  0  0  0  0  0  0  0  0  0  0  0
  2  1  1  1
  2  7  1  0
  3  2  1  0
  4  3  1  0
  5  4  1  0
  6  5  2  0
  7  8  2  0
  9  5  1  0
 11 10  1  0
 11 12  1  0
 12 13  1  1
 14 12  1  0
 15  7  1  0
 14 15  1  1
 16 14  1  0
 16 17  2  0
 18 16  1  0
 19 18  1  0
 20 19  1  0
 21 22  1  0
 21 20  1  0
 22 18  1  0
 22 23  1  6
 24 23  2  0
 25 23  1  0
M  END
$$$$
