EIP.pdb
     RDKit          3D

 25 25  0  0  1  0  0  0  0  0999 V2000
   19.8125  -14.1413  -17.6830 N   0  0  0  0  0  0  0  0  0  0  0  0
   20.3029  -12.8740  -18.0701 C   0  0  1  0  0  0  0  0  0  0  0  0
   19.5145  -12.2993  -19.2113 C   0  0  0  0  0  0  0  0  0  0  0  0
   19.5273  -13.0975  -20.4509 C   0  0  0  0  0  0  0  0  0  0  0  0
   18.8120  -12.6133  -21.6189 C   0  0  0  0  0  0  0  0  0  0  0  0
   18.1344  -11.5803  -21.7564 O   0  0  0  0  0  0  0  0  0  0  0  0
   20.2536  -11.8474  -16.9712 C   0  0  0  0  0  0  0  0  0  0  0  0
   19.3620  -11.9588  -16.1076 O   0  0  0  0  0  0  0  0  0  0  0  0
   18.8849  -13.4214  -22.7798 O   0  0  0  0  0  0  0  0  0  0  0  0
   24.4099  -11.1494  -14.1842 C   0  0  0  0  0  0  0  0  0  0  0  0
   22.9428  -11.2104  -14.5689 C   0  0  0  0  0  0  0  0  0  0  0  0
   22.4803   -9.9077  -15.1112 C   0  0  2  0  0  0  0  0  0  0  0  0
   22.5815   -8.9114  -13.9451 C   0  0  0  0  0  0  0  0  0  0  0  0
   21.0737   -9.8649  -15.6584 C   0  0  2  0  0  0  0  0  0  0  0  0
   21.1609  -10.7661  -16.8652 N   0  0  0  0  0  0  0  0  0  0  0  0
   20.7415   -8.5533  -16.2226 C   0  0  0  0  0  0  0  0  0  0  0  0
   21.7000   -8.0131  -16.9326 O   0  0  0  0  0  0  0  0  0  0  0  0
   19.5414   -7.8063  -16.1151 N   0  0  0  0  0  0  0  0  0  0  0  0
   18.2577   -8.0789  -15.5357 C   0  0  0  0  0  0  0  0  0  0  0  0
   17.8713   -6.6831  -14.9972 C   0  0  0  0  0  0  0  0  0  0  0  0
   18.0990   -5.9041  -16.3055 C   0  0  0  0  0  0  0  0  0  0  0  0
   19.4265   -6.4547  -16.7170 C   0  0  1  0  0  0  0  0  0  0  0  0
   20.4782   -5.5985  -16.1380 C   0  0  0  0  0  0  0  0  0  0  0  0
   21.1638   -6.0277  -15.1599 O   0  0  0  0  0  0  0  0  0  0  0  0
   20.7734   -4.3454  -16.5936 O   0  0  0  0  0  0  0  0  0  0  0  0
  2  1  1  1
  2  7  1  0
  3  2  1  0
  4  3  1  0
  5  4  1  0
  6  5  2  0
  7  8  2  0
  9  5  1  0
 11 10  1  0
 11 12  1  0
 12 13  1  1
 14 12  1  0
 15  7  1  0
 14 15  1  6
 16 14  1  0
 16 17  2  0
 18 16  1  0
 19 18  1  0
 20 19  1  0
 21 22  1  0
 21 20  1  0
 22 18  1  0
 22 23  1  1
 24 23  2  0
 25 23  1  0
M  END
$$$$
