EIP.pdb
     RDKit          3D

 25 25  0  0  1  0  0  0  0  0999 V2000
   31.6197  -19.3777  -21.3512 N   0  0  0  0  0  0  0  0  0  0  0  0
   30.6403  -20.3876  -21.2206 C   0  0  1  0  0  0  0  0  0  0  0  0
   30.9676  -21.5892  -22.0592 C   0  0  0  0  0  0  0  0  0  0  0  0
   30.6942  -21.4449  -23.5007 C   0  0  0  0  0  0  0  0  0  0  0  0
   30.8783  -22.5867  -24.3799 C   0  0  0  0  0  0  0  0  0  0  0  0
   31.2712  -23.7346  -24.1098 O   0  0  0  0  0  0  0  0  0  0  0  0
   30.4802  -20.8934  -19.8127 C   0  0  0  0  0  0  0  0  0  0  0  0
   31.4914  -20.9247  -19.0849 O   0  0  0  0  0  0  0  0  0  0  0  0
   30.5709  -22.3825  -25.7473 O   0  0  0  0  0  0  0  0  0  0  0  0
   28.5807  -19.1556  -16.1936 C   0  0  0  0  0  0  0  0  0  0  0  0
   27.6833  -19.7133  -17.2834 C   0  0  0  0  0  0  0  0  0  0  0  0
   27.8326  -21.1867  -17.3935 C   0  0  2  0  0  0  0  0  0  0  0  0
   27.5056  -21.7439  -15.9988 C   0  0  0  0  0  0  0  0  0  0  0  0
   29.1909  -21.6988  -17.8088 C   0  0  2  0  0  0  0  0  0  0  0  0
   29.2487  -21.3341  -19.2715 N   0  0  0  0  0  0  0  0  0  0  0  0
   29.2512  -23.1635  -17.8092 C   0  0  0  0  0  0  0  0  0  0  0  0
   28.2213  -23.7455  -18.3707 O   0  0  0  0  0  0  0  0  0  0  0  0
   30.2593  -24.0218  -17.3023 N   0  0  0  0  0  0  0  0  0  0  0  0
   31.5576  -23.7932  -16.7369 C   0  0  0  0  0  0  0  0  0  0  0  0
   31.6215  -24.9133  -15.6745 C   0  0  0  0  0  0  0  0  0  0  0  0
   31.2618  -26.0831  -16.6087 C   0  0  0  0  0  0  0  0  0  0  0  0
   30.0941  -25.4962  -17.3347 C   0  0  1  0  0  0  0  0  0  0  0  0
   28.8693  -25.8420  -16.5897 C   0  0  0  0  0  0  0  0  0  0  0  0
   28.2863  -24.9504  -15.8996 O   0  0  0  0  0  0  0  0  0  0  0  0
   28.3048  -27.0854  -16.5921 O   0  0  0  0  0  0  0  0  0  0  0  0
  2  1  1  1
  2  7  1  0
  3  2  1  0
  4  3  1  0
  5  4  1  0
  6  5  2  0
  7  8  2  0
  9  5  1  0
 11 10  1  0
 11 12  1  0
 12 13  1  1
 14 12  1  0
 15  7  1  0
 14 15  1  6
 16 14  1  0
 16 17  2  0
 18 16  1  0
 19 18  1  0
 20 19  1  0
 21 22  1  0
 21 20  1  0
 22 18  1  0
 22 23  1  1
 24 23  2  0
 25 23  1  0
M  END
$$$$
