WPH.pdb
     RDKit          3D

 32 35  0  0  1  0  0  0  0  0999 V2000
    6.6704  -17.1733   23.5288 N   0  0  0  0  0  0  0  0  0  0  0  0
    7.0467  -15.8676   22.9635 C   0  0  1  0  0  0  0  0  0  0  0  0
    7.9606  -15.2472   24.0159 C   0  0  0  0  0  0  0  0  0  0  0  0
    7.1847  -14.6014   25.1127 C   0  0  0  0  0  0  0  0  0  0  0  0
    6.2691  -15.3023   25.9078 C   0  0  0  0  0  0  0  0  0  0  0  0
    5.7658  -14.4796   26.8216 N   0  0  0  0  0  0  0  0  0  0  0  0
    6.3203  -13.2547   26.6559 C   0  0  0  0  0  0  0  0  0  0  0  0
    6.1070  -12.0890   27.3519 C   0  0  0  0  0  0  0  0  0  0  0  0
    6.8017  -10.9614   26.9661 C   0  0  0  0  0  0  0  0  0  0  0  0
    7.6766  -11.0311   25.9105 C   0  0  0  0  0  0  0  0  0  0  0  0
    7.8967  -12.2027   25.2045 C   0  0  0  0  0  0  0  0  0  0  0  0
    7.1974  -13.3243   25.6001 C   0  0  0  0  0  0  0  0  0  0  0  0
    7.7223  -16.0273   21.6748 C   0  0  0  0  0  0  0  0  0  0  0  0
    8.1108  -17.2149   21.3902 O   0  0  0  0  0  0  0  0  0  0  0  0
    7.9627  -14.9663   20.7468 N   0  0  0  0  0  0  0  0  0  0  0  0
    7.4792  -13.6439   20.8978 C   0  0  0  0  0  0  0  0  0  0  0  0
    8.0952  -12.8660   19.7493 C   0  0  0  0  0  0  0  0  0  0  0  0
    8.3400  -13.9522   18.6874 C   0  0  0  0  0  0  0  0  0  0  0  0
    8.7206  -15.0898   19.5492 C   0  0  1  0  0  0  0  0  0  0  0  0
   10.1796  -15.2196   19.7757 C   0  0  0  0  0  0  0  0  0  0  0  0
   10.6164  -14.8656   20.8972 O   0  0  0  0  0  0  0  0  0  0  0  0
   11.1097  -15.7093   18.8255 N   0  0  0  0  0  0  0  0  0  0  0  0
   12.1426  -16.6729   19.1473 C   0  0  1  0  0  0  0  0  0  0  0  0
   11.4934  -17.9775   19.5777 C   0  0  0  0  0  0  0  0  0  0  0  0
   11.5380  -18.1396   21.0569 C   0  0  0  0  0  0  0  0  0  0  0  0
   12.0260  -17.2389   21.9666 C   0  0  0  0  0  0  0  0  0  0  0  0
   11.8900  -17.7533   23.1978 N   0  0  0  0  0  0  0  0  0  0  0  0
   11.3179  -18.9685   23.0329 C   0  0  0  0  0  0  0  0  0  0  0  0
   11.1033  -19.2060   21.7381 N   0  0  0  0  0  0  0  0  0  0  0  0
   13.0272  -16.9585   18.0045 C   0  0  0  0  0  0  0  0  0  0  0  0
   14.3902  -16.7989   18.1715 O   0  0  0  0  0  0  0  0  0  0  0  0
   12.6037  -17.3385   16.8905 O   0  0  0  0  0  0  0  0  0  0  0  0
  2  3  1  0
  2  1  1  1
  4  5  2  0
  4  3  1  0
  6  5  1  0
  7 12  2  0
  7  6  1  0
  8  7  1  0
  9 10  1  0
  9  8  2  0
 10 11  2  0
 11 12  1  0
 12  4  1  0
 13  2  1  0
 14 13  2  0
 15 13  1  0
 16 15  1  0
 17 16  1  0
 18 19  1  0
 18 17  1  0
 19 15  1  0
 20 22  1  0
 19 20  1  1
 21 20  2  0
 23 22  1  0
 23 30  1  0
 23 24  1  6
 25 29  1  0
 25 24  1  0
 26 25  2  0
 27 26  1  0
 27 28  1  0
 28 29  2  0
 30 31  1  0
 32 30  2  0
M  END
$$$$
