WPH.pdb
     RDKit          3D

 32 35  0  0  1  0  0  0  0  0999 V2000
    8.0442  -18.5580   25.2816 N   0  0  0  0  0  0  0  0  0  0  0  0
    7.7027  -17.2865   24.6237 C   0  0  1  0  0  0  0  0  0  0  0  0
    8.3519  -16.2193   25.4997 C   0  0  0  0  0  0  0  0  0  0  0  0
    7.3595  -15.2138   25.9754 C   0  0  0  0  0  0  0  0  0  0  0  0
    6.0739  -15.5633   26.4076 C   0  0  0  0  0  0  0  0  0  0  0  0
    5.4360  -14.4688   26.8081 N   0  0  0  0  0  0  0  0  0  0  0  0
    6.2601  -13.4047   26.6542 C   0  0  0  0  0  0  0  0  0  0  0  0
    6.0418  -12.0746   26.9221 C   0  0  0  0  0  0  0  0  0  0  0  0
    7.0582  -11.1798   26.6591 C   0  0  0  0  0  0  0  0  0  0  0  0
    8.2463  -11.6346   26.1429 C   0  0  0  0  0  0  0  0  0  0  0  0
    8.4734  -12.9738   25.8706 C   0  0  0  0  0  0  0  0  0  0  0  0
    7.4503  -13.8596   26.1387 C   0  0  0  0  0  0  0  0  0  0  0  0
    8.2088  -17.2523   23.2505 C   0  0  0  0  0  0  0  0  0  0  0  0
    9.0421  -18.1744   22.9382 O   0  0  0  0  0  0  0  0  0  0  0  0
    7.8352  -16.2795   22.2713 N   0  0  0  0  0  0  0  0  0  0  0  0
    6.9512  -15.1995   22.5105 C   0  0  0  0  0  0  0  0  0  0  0  0
    6.9713  -14.3835   21.2308 C   0  0  0  0  0  0  0  0  0  0  0  0
    7.3514  -15.4239   20.1629 C   0  0  0  0  0  0  0  0  0  0  0  0
    8.3001  -16.2593   20.9268 C   0  0  1  0  0  0  0  0  0  0  0  0
    9.7178  -15.8491   20.7906 C   0  0  0  0  0  0  0  0  0  0  0  0
   10.1792  -15.0890   21.6755 O   0  0  0  0  0  0  0  0  0  0  0  0
   10.5827  -16.2487   19.7418 N   0  0  0  0  0  0  0  0  0  0  0  0
   11.9245  -15.7283   19.5758 C   0  0  1  0  0  0  0  0  0  0  0  0
   11.9188  -14.2333   19.8478 C   0  0  0  0  0  0  0  0  0  0  0  0
   10.8143  -13.5562   19.1146 C   0  0  0  0  0  0  0  0  0  0  0  0
    9.4878  -13.8983   19.1311 C   0  0  0  0  0  0  0  0  0  0  0  0
    8.8137  -13.0481   18.3425 N   0  0  0  0  0  0  0  0  0  0  0  0
    9.7346  -12.1888   17.8477 C   0  0  0  0  0  0  0  0  0  0  0  0
   10.9471  -12.4932   18.3128 N   0  0  0  0  0  0  0  0  0  0  0  0
   12.8930  -16.3552   20.4919 C   0  0  0  0  0  0  0  0  0  0  0  0
   12.7324  -16.1628   21.8514 O   0  0  0  0  0  0  0  0  0  0  0  0
   13.8536  -17.0529   20.0981 O   0  0  0  0  0  0  0  0  0  0  0  0
  2  3  1  0
  2  1  1  1
  4  5  2  0
  4  3  1  0
  6  5  1  0
  7 12  2  0
  7  6  1  0
  8  7  1  0
  9 10  1  0
  9  8  2  0
 10 11  2  0
 11 12  1  0
 12  4  1  0
 13  2  1  0
 14 13  2  0
 15 13  1  0
 16 15  1  0
 17 16  1  0
 18 19  1  0
 18 17  1  0
 19 15  1  0
 20 22  1  0
 19 20  1  1
 21 20  2  0
 23 22  1  0
 23 30  1  0
 23 24  1  1
 25 29  1  0
 25 24  1  0
 26 25  2  0
 27 26  1  0
 27 28  1  0
 28 29  2  0
 30 31  1  0
 32 30  2  0
M  END
$$$$
