WPH.pdb
     RDKit          3D

 32 35  0  0  1  0  0  0  0  0999 V2000
    6.5417  -17.7342   23.7910 N   0  0  0  0  0  0  0  0  0  0  0  0
    6.9721  -16.3731   23.4329 C   0  0  1  0  0  0  0  0  0  0  0  0
    7.7845  -15.9028   24.6356 C   0  0  0  0  0  0  0  0  0  0  0  0
    7.0335  -14.9127   25.4589 C   0  0  0  0  0  0  0  0  0  0  0  0
    5.7517  -15.1641   25.9644 C   0  0  0  0  0  0  0  0  0  0  0  0
    5.3567  -14.1228   26.6889 N   0  0  0  0  0  0  0  0  0  0  0  0
    6.3381  -13.1890   26.6786 C   0  0  0  0  0  0  0  0  0  0  0  0
    6.3838  -11.9515   27.2745 C   0  0  0  0  0  0  0  0  0  0  0  0
    7.5136  -11.1809   27.0942 C   0  0  0  0  0  0  0  0  0  0  0  0
    8.5500  -11.6631   26.3339 C   0  0  0  0  0  0  0  0  0  0  0  0
    8.5110  -12.9096   25.7304 C   0  0  0  0  0  0  0  0  0  0  0  0
    7.3766  -13.6719   25.9186 C   0  0  0  0  0  0  0  0  0  0  0  0
    7.7655  -16.3790   22.2027 C   0  0  0  0  0  0  0  0  0  0  0  0
    8.1053  -17.5332   21.7616 O   0  0  0  0  0  0  0  0  0  0  0  0
    8.1669  -15.2063   21.4896 N   0  0  0  0  0  0  0  0  0  0  0  0
    7.7507  -13.8912   21.8097 C   0  0  0  0  0  0  0  0  0  0  0  0
    8.5314  -12.9913   20.8694 C   0  0  0  0  0  0  0  0  0  0  0  0
    8.8221  -13.9118   19.6712 C   0  0  0  0  0  0  0  0  0  0  0  0
    9.0394  -15.1969   20.3658 C   0  0  1  0  0  0  0  0  0  0  0  0
   10.4554  -15.4726   20.7060 C   0  0  0  0  0  0  0  0  0  0  0  0
   11.0104  -14.6903   21.5145 O   0  0  0  0  0  0  0  0  0  0  0  0
   11.2222  -16.5457   20.1880 N   0  0  0  0  0  0  0  0  0  0  0  0
   12.6048  -16.4096   19.7775 C   0  0  1  0  0  0  0  0  0  0  0  0
   12.8106  -15.0368   19.1593 C   0  0  0  0  0  0  0  0  0  0  0  0
   14.1889  -14.8914   18.6161 C   0  0  0  0  0  0  0  0  0  0  0  0
   15.2195  -15.7850   18.7433 C   0  0  0  0  0  0  0  0  0  0  0  0
   16.2981  -15.2908   18.1175 N   0  0  0  0  0  0  0  0  0  0  0  0
   15.9193  -14.0950   17.6100 C   0  0  0  0  0  0  0  0  0  0  0  0
   14.6430  -13.8496   17.9098 N   0  0  0  0  0  0  0  0  0  0  0  0
   13.5464  -16.5495   20.9018 C   0  0  0  0  0  0  0  0  0  0  0  0
   13.1512  -16.1060   22.1502 O   0  0  0  0  0  0  0  0  0  0  0  0
   14.6862  -17.0503   20.7806 O   0  0  0  0  0  0  0  0  0  0  0  0
  2  3  1  0
  2  1  1  1
  4  5  2  0
  4  3  1  0
  6  5  1  0
  7 12  2  0
  7  6  1  0
  8  7  1  0
  9 10  1  0
  9  8  2  0
 10 11  2  0
 11 12  1  0
 12  4  1  0
 13  2  1  0
 14 13  2  0
 15 13  1  0
 16 15  1  0
 17 16  1  0
 18 19  1  0
 18 17  1  0
 19 15  1  0
 20 22  1  0
 19 20  1  1
 21 20  2  0
 23 22  1  0
 23 30  1  0
 23 24  1  1
 25 29  1  0
 25 24  1  0
 26 25  2  0
 27 26  1  0
 27 28  1  0
 28 29  2  0
 30 31  1  0
 32 30  2  0
M  END
$$$$
