WPH.pdb
     RDKit          3D

 32 35  0  0  1  0  0  0  0  0999 V2000
    6.4716  -18.6193   24.6703 N   0  0  0  0  0  0  0  0  0  0  0  0
    6.7991  -17.2192   24.3565 C   0  0  1  0  0  0  0  0  0  0  0  0
    7.5404  -16.7165   25.5915 C   0  0  0  0  0  0  0  0  0  0  0  0
    6.9705  -15.4351   26.0969 C   0  0  0  0  0  0  0  0  0  0  0  0
    5.6360  -15.3068   26.5024 C   0  0  0  0  0  0  0  0  0  0  0  0
    5.4302  -14.0692   26.9396 N   0  0  0  0  0  0  0  0  0  0  0  0
    6.5881  -13.3737   26.8359 C   0  0  0  0  0  0  0  0  0  0  0  0
    6.8619  -12.0650   27.1540 C   0  0  0  0  0  0  0  0  0  0  0  0
    8.1398  -11.5934   26.9364 C   0  0  0  0  0  0  0  0  0  0  0  0
    9.0931  -12.4320   26.4143 C   0  0  0  0  0  0  0  0  0  0  0  0
    8.8244  -13.7522   26.0915 C   0  0  0  0  0  0  0  0  0  0  0  0
    7.5433  -14.2132   26.3145 C   0  0  0  0  0  0  0  0  0  0  0  0
    7.6207  -17.1292   23.1483 C   0  0  0  0  0  0  0  0  0  0  0  0
    8.2832  -18.1827   22.8425 O   0  0  0  0  0  0  0  0  0  0  0  0
    7.7195  -15.9694   22.3179 N   0  0  0  0  0  0  0  0  0  0  0  0
    6.9210  -14.8089   22.4628 C   0  0  0  0  0  0  0  0  0  0  0  0
    7.4770  -13.8201   21.4544 C   0  0  0  0  0  0  0  0  0  0  0  0
    8.1063  -14.7316   20.3865 C   0  0  0  0  0  0  0  0  0  0  0  0
    8.6322  -15.8187   21.2369 C   0  0  1  0  0  0  0  0  0  0  0  0
   10.0389  -15.6305   21.6640 C   0  0  0  0  0  0  0  0  0  0  0  0
   10.2357  -14.9317   22.6871 O   0  0  0  0  0  0  0  0  0  0  0  0
   11.1686  -16.1766   21.0058 N   0  0  0  0  0  0  0  0  0  0  0  0
   12.2977  -16.7511   21.7086 C   0  0  1  0  0  0  0  0  0  0  0  0
   11.8173  -17.9116   22.5637 C   0  0  0  0  0  0  0  0  0  0  0  0
   12.9316  -18.4885   23.3647 C   0  0  0  0  0  0  0  0  0  0  0  0
   13.7666  -17.8125   24.2148 C   0  0  0  0  0  0  0  0  0  0  0  0
   14.6383  -18.6830   24.7452 N   0  0  0  0  0  0  0  0  0  0  0  0
   14.3300  -19.8892   24.2150 C   0  0  0  0  0  0  0  0  0  0  0  0
   13.2972  -19.7755   23.3786 N   0  0  0  0  0  0  0  0  0  0  0  0
   13.3366  -17.2569   20.7948 C   0  0  0  0  0  0  0  0  0  0  0  0
   14.6416  -16.8439   20.9890 O   0  0  0  0  0  0  0  0  0  0  0  0
   13.0940  -18.0419   19.8516 O   0  0  0  0  0  0  0  0  0  0  0  0
  2  3  1  0
  2  1  1  1
  4  5  2  0
  4  3  1  0
  6  5  1  0
  7 12  2  0
  7  6  1  0
  8  7  1  0
  9 10  1  0
  9  8  2  0
 10 11  2  0
 11 12  1  0
 12  4  1  0
 13  2  1  0
 14 13  2  0
 15 13  1  0
 16 15  1  0
 17 16  1  0
 18 19  1  0
 18 17  1  0
 19 15  1  0
 20 22  1  0
 19 20  1  1
 21 20  2  0
 23 22  1  0
 23 30  1  0
 23 24  1  6
 25 29  1  0
 25 24  1  0
 26 25  2  0
 27 26  1  0
 27 28  1  0
 28 29  2  0
 30 31  1  0
 32 30  2  0
M  END
$$$$
