WPH.pdb
     RDKit          3D

 32 35  0  0  1  0  0  0  0  0999 V2000
    6.8161  -17.5365   23.4785 N   0  0  0  0  0  0  0  0  0  0  0  0
    7.1423  -16.1689   23.0432 C   0  0  1  0  0  0  0  0  0  0  0  0
    7.8915  -15.5625   24.2258 C   0  0  0  0  0  0  0  0  0  0  0  0
    6.9946  -14.7410   25.0879 C   0  0  0  0  0  0  0  0  0  0  0  0
    5.7235  -15.1726   25.4874 C   0  0  0  0  0  0  0  0  0  0  0  0
    5.1796  -14.2539   26.2782 N   0  0  0  0  0  0  0  0  0  0  0  0
    6.0521  -13.2266   26.4146 C   0  0  0  0  0  0  0  0  0  0  0  0
    5.9309  -12.0552   27.1231 C   0  0  0  0  0  0  0  0  0  0  0  0
    6.9774  -11.1574   27.0849 C   0  0  0  0  0  0  0  0  0  0  0  0
    8.0986  -11.4526   26.3498 C   0  0  0  0  0  0  0  0  0  0  0  0
    8.2279  -12.6313   25.6334 C   0  0  0  0  0  0  0  0  0  0  0  0
    7.1754  -13.5222   25.6799 C   0  0  0  0  0  0  0  0  0  0  0  0
    7.9564  -16.1842   21.8268 C   0  0  0  0  0  0  0  0  0  0  0  0
    8.3802  -17.3339   21.4516 O   0  0  0  0  0  0  0  0  0  0  0  0
    8.2919  -15.0252   21.0594 N   0  0  0  0  0  0  0  0  0  0  0  0
    8.0089  -13.6943   21.4515 C   0  0  0  0  0  0  0  0  0  0  0  0
    8.6634  -12.8246   20.3937 C   0  0  0  0  0  0  0  0  0  0  0  0
    8.6928  -13.7434   19.1599 C   0  0  0  0  0  0  0  0  0  0  0  0
    8.9567  -15.0472   19.8018 C   0  0  1  0  0  0  0  0  0  0  0  0
   10.3931  -15.4015   19.8911 C   0  0  0  0  0  0  0  0  0  0  0  0
   11.0877  -15.2314   18.8603 O   0  0  0  0  0  0  0  0  0  0  0  0
   11.0337  -15.9153   21.0458 N   0  0  0  0  0  0  0  0  0  0  0  0
   12.4721  -16.0344   21.1706 C   0  0  1  0  0  0  0  0  0  0  0  0
   13.0978  -14.6521   21.0890 C   0  0  0  0  0  0  0  0  0  0  0  0
   13.7232  -14.4212   19.7580 C   0  0  0  0  0  0  0  0  0  0  0  0
   13.5870  -15.2024   18.6408 C   0  0  0  0  0  0  0  0  0  0  0  0
   14.3060  -14.6611   17.6463 N   0  0  0  0  0  0  0  0  0  0  0  0
   14.8786  -13.5491   18.1627 C   0  0  0  0  0  0  0  0  0  0  0  0
   14.5282  -13.4005   19.4410 N   0  0  0  0  0  0  0  0  0  0  0  0
   12.8817  -16.6462   22.4466 C   0  0  0  0  0  0  0  0  0  0  0  0
   14.2280  -16.8704   22.6667 O   0  0  0  0  0  0  0  0  0  0  0  0
   12.0694  -16.9724   23.3402 O   0  0  0  0  0  0  0  0  0  0  0  0
  2  3  1  0
  2  1  1  1
  4  5  2  0
  4  3  1  0
  6  5  1  0
  7 12  2  0
  7  6  1  0
  8  7  1  0
  9 10  1  0
  9  8  2  0
 10 11  2  0
 11 12  1  0
 12  4  1  0
 13  2  1  0
 14 13  2  0
 15 13  1  0
 16 15  1  0
 17 16  1  0
 18 19  1  0
 18 17  1  0
 19 15  1  0
 20 22  1  0
 19 20  1  1
 21 20  2  0
 23 22  1  0
 23 30  1  0
 23 24  1  1
 25 29  1  0
 25 24  1  0
 26 25  2  0
 27 26  1  0
 27 28  1  0
 28 29  2  0
 30 31  1  0
 32 30  2  0
M  END
$$$$
