WPH.pdb
     RDKit          3D

 32 35  0  0  1  0  0  0  0  0999 V2000
    6.6108  -17.2396   23.6698 N   0  0  0  0  0  0  0  0  0  0  0  0
    7.0572  -15.9328   23.1609 C   0  0  1  0  0  0  0  0  0  0  0  0
    7.8383  -15.3207   24.3196 C   0  0  0  0  0  0  0  0  0  0  0  0
    6.9418  -14.6253   25.2865 C   0  0  0  0  0  0  0  0  0  0  0  0
    5.8873  -15.2725   25.9428 C   0  0  0  0  0  0  0  0  0  0  0  0
    5.2954  -14.4155   26.7676 N   0  0  0  0  0  0  0  0  0  0  0  0
    5.9259  -13.2199   26.6775 C   0  0  0  0  0  0  0  0  0  0  0  0
    5.6688  -12.0364   27.3272 C   0  0  0  0  0  0  0  0  0  0  0  0
    6.4654  -10.9474   27.0406 C   0  0  0  0  0  0  0  0  0  0  0  0
    7.4811  -11.0713   26.1255 C   0  0  0  0  0  0  0  0  0  0  0  0
    7.7462  -12.2610   25.4668 C   0  0  0  0  0  0  0  0  0  0  0  0
    6.9439  -13.3438   25.7624 C   0  0  0  0  0  0  0  0  0  0  0  0
    7.8841  -16.0894   21.9631 C   0  0  0  0  0  0  0  0  0  0  0  0
    8.4114  -17.2451   21.7944 O   0  0  0  0  0  0  0  0  0  0  0  0
    8.1258  -15.0580   21.0026 N   0  0  0  0  0  0  0  0  0  0  0  0
    7.6442  -13.7309   21.1125 C   0  0  0  0  0  0  0  0  0  0  0  0
    8.2612  -12.9899   19.9403 C   0  0  0  0  0  0  0  0  0  0  0  0
    8.5043  -14.1089   18.9127 C   0  0  0  0  0  0  0  0  0  0  0  0
    8.8835  -15.2197   19.8093 C   0  0  1  0  0  0  0  0  0  0  0  0
   10.3423  -15.3445   20.0396 C   0  0  0  0  0  0  0  0  0  0  0  0
   11.0415  -14.3233   19.8349 O   0  0  0  0  0  0  0  0  0  0  0  0
   10.9997  -16.5238   20.4695 N   0  0  0  0  0  0  0  0  0  0  0  0
   12.3776  -16.8300   20.1434 C   0  0  1  0  0  0  0  0  0  0  0  0
   13.2071  -16.8212   21.4165 C   0  0  0  0  0  0  0  0  0  0  0  0
   12.3412  -16.7248   22.6235 C   0  0  0  0  0  0  0  0  0  0  0  0
   10.9855  -16.5283   22.6471 C   0  0  0  0  0  0  0  0  0  0  0  0
   10.5766  -16.4986   23.9242 N   0  0  0  0  0  0  0  0  0  0  0  0
   11.6877  -16.6780   24.6756 C   0  0  0  0  0  0  0  0  0  0  0  0
   12.7580  -16.8153   23.8917 N   0  0  0  0  0  0  0  0  0  0  0  0
   12.5299  -18.1506   19.5085 C   0  0  0  0  0  0  0  0  0  0  0  0
   11.3955  -18.9091   19.2872 O   0  0  0  0  0  0  0  0  0  0  0  0
   13.6367  -18.6181   19.1603 O   0  0  0  0  0  0  0  0  0  0  0  0
  2  3  1  0
  2  1  1  1
  4  5  2  0
  4  3  1  0
  6  5  1  0
  7 12  2  0
  7  6  1  0
  8  7  1  0
  9 10  1  0
  9  8  2  0
 10 11  2  0
 11 12  1  0
 12  4  1  0
 13  2  1  0
 14 13  2  0
 15 13  1  0
 16 15  1  0
 17 16  1  0
 18 19  1  0
 18 17  1  0
 19 15  1  0
 20 22  1  0
 19 20  1  1
 21 20  2  0
 23 22  1  0
 23 30  1  0
 23 24  1  1
 25 29  1  0
 25 24  1  0
 26 25  2  0
 27 26  1  0
 27 28  1  0
 28 29  2  0
 30 31  1  0
 32 30  2  0
M  END
$$$$
