WPH.pdb
     RDKit          3D

 32 35  0  0  1  0  0  0  0  0999 V2000
    6.9313  -18.1391   24.6779 N   0  0  0  0  0  0  0  0  0  0  0  0
    7.1409  -16.8213   24.0570 C   0  0  1  0  0  0  0  0  0  0  0  0
    7.9312  -16.0328   25.0969 C   0  0  0  0  0  0  0  0  0  0  0  0
    7.1121  -14.9494   25.7113 C   0  0  0  0  0  0  0  0  0  0  0  0
    5.7862  -15.1408   26.1200 C   0  0  0  0  0  0  0  0  0  0  0  0
    5.3313  -14.0174   26.6645 N   0  0  0  0  0  0  0  0  0  0  0  0
    6.3159  -13.0876   26.6287 C   0  0  0  0  0  0  0  0  0  0  0  0
    6.3133  -11.7838   27.0633 C   0  0  0  0  0  0  0  0  0  0  0  0
    7.4606  -11.0368   26.8948 C   0  0  0  0  0  0  0  0  0  0  0  0
    8.5614  -11.6069   26.3050 C   0  0  0  0  0  0  0  0  0  0  0  0
    8.5713  -12.9205   25.8647 C   0  0  0  0  0  0  0  0  0  0  0  0
    7.4187  -13.6583   26.0395 C   0  0  0  0  0  0  0  0  0  0  0  0
    7.8681  -16.9453   22.7926 C   0  0  0  0  0  0  0  0  0  0  0  0
    8.4453  -18.0708   22.5872 O   0  0  0  0  0  0  0  0  0  0  0  0
    7.9646  -15.9140   21.8067 N   0  0  0  0  0  0  0  0  0  0  0  0
    7.2038  -14.7198   21.8183 C   0  0  0  0  0  0  0  0  0  0  0  0
    7.7452  -13.8969   20.6636 C   0  0  0  0  0  0  0  0  0  0  0  0
    8.3069  -14.9659   19.7101 C   0  0  0  0  0  0  0  0  0  0  0  0
    8.8371  -15.9423   20.6833 C   0  0  1  0  0  0  0  0  0  0  0  0
   10.2643  -15.7423   21.0296 C   0  0  0  0  0  0  0  0  0  0  0  0
   10.5133  -15.0391   22.0382 O   0  0  0  0  0  0  0  0  0  0  0  0
   11.3590  -16.2818   20.3097 N   0  0  0  0  0  0  0  0  0  0  0  0
   12.4527  -16.9924   20.9404 C   0  0  1  0  0  0  0  0  0  0  0  0
   11.9169  -18.2520   21.6001 C   0  0  0  0  0  0  0  0  0  0  0  0
   12.9822  -18.9535   22.3676 C   0  0  0  0  0  0  0  0  0  0  0  0
   14.2848  -18.5555   22.5146 C   0  0  0  0  0  0  0  0  0  0  0  0
   14.9267  -19.4544   23.2756 N   0  0  0  0  0  0  0  0  0  0  0  0
   14.0101  -20.3987   23.5904 C   0  0  0  0  0  0  0  0  0  0  0  0
   12.8315  -20.0990   23.0425 N   0  0  0  0  0  0  0  0  0  0  0  0
   13.4988  -17.3888   19.9819 C   0  0  0  0  0  0  0  0  0  0  0  0
   13.1147  -18.0126   18.8094 O   0  0  0  0  0  0  0  0  0  0  0  0
   14.7177  -17.1880   20.1785 O   0  0  0  0  0  0  0  0  0  0  0  0
  2  3  1  0
  2  1  1  1
  4  5  2  0
  4  3  1  0
  6  5  1  0
  7 12  2  0
  7  6  1  0
  8  7  1  0
  9 10  1  0
  9  8  2  0
 10 11  2  0
 11 12  1  0
 12  4  1  0
 13  2  1  0
 14 13  2  0
 15 13  1  0
 16 15  1  0
 17 16  1  0
 18 19  1  0
 18 17  1  0
 19 15  1  0
 20 22  1  0
 19 20  1  1
 21 20  2  0
 23 22  1  0
 23 30  1  0
 23 24  1  6
 25 29  1  0
 25 24  1  0
 26 25  2  0
 27 26  1  0
 27 28  1  0
 28 29  2  0
 30 31  1  0
 32 30  2  0
M  END
$$$$
