WPH.pdb
     RDKit          3D

 32 35  0  0  1  0  0  0  0  0999 V2000
    6.8978  -16.9472   24.7502 N   0  0  0  0  0  0  0  0  0  0  0  0
    7.2754  -15.7390   23.9992 C   0  0  1  0  0  0  0  0  0  0  0  0
    8.4134  -15.1276   24.8107 C   0  0  0  0  0  0  0  0  0  0  0  0
    7.9189  -14.4833   26.0607 C   0  0  0  0  0  0  0  0  0  0  0  0
    8.0584  -15.0727   27.3236 C   0  0  0  0  0  0  0  0  0  0  0  0
    7.5636  -14.2527   28.2445 N   0  0  0  0  0  0  0  0  0  0  0  0
    7.1005  -13.1379   27.6299 C   0  0  0  0  0  0  0  0  0  0  0  0
    6.4988  -12.0229   28.1624 C   0  0  0  0  0  0  0  0  0  0  0  0
    6.1041  -11.0197   27.3020 C   0  0  0  0  0  0  0  0  0  0  0  0
    6.3192  -11.1585   25.9532 C   0  0  0  0  0  0  0  0  0  0  0  0
    6.9251  -12.2793   25.4093 C   0  0  0  0  0  0  0  0  0  0  0  0
    7.3167  -13.2757   26.2796 C   0  0  0  0  0  0  0  0  0  0  0  0
    7.6915  -16.0754   22.6366 C   0  0  0  0  0  0  0  0  0  0  0  0
    7.9815  -17.3060   22.4278 O   0  0  0  0  0  0  0  0  0  0  0  0
    7.7872  -15.1371   21.5618 N   0  0  0  0  0  0  0  0  0  0  0  0
    7.3046  -13.8068   21.6131 C   0  0  0  0  0  0  0  0  0  0  0  0
    7.7482  -13.1764   20.3056 C   0  0  0  0  0  0  0  0  0  0  0  0
    7.8687  -14.3855   19.3617 C   0  0  0  0  0  0  0  0  0  0  0  0
    8.3810  -15.4071   20.2973 C   0  0  1  0  0  0  0  0  0  0  0  0
    9.8592  -15.5061   20.3400 C   0  0  0  0  0  0  0  0  0  0  0  0
   10.4637  -14.6982   21.0853 O   0  0  0  0  0  0  0  0  0  0  0  0
   10.6333  -16.4383   19.6055 N   0  0  0  0  0  0  0  0  0  0  0  0
   11.5314  -17.3905   20.2264 C   0  0  1  0  0  0  0  0  0  0  0  0
   10.7310  -18.3265   21.1165 C   0  0  0  0  0  0  0  0  0  0  0  0
   11.6205  -19.2827   21.8311 C   0  0  0  0  0  0  0  0  0  0  0  0
   12.9846  -19.3639   21.7336 C   0  0  0  0  0  0  0  0  0  0  0  0
   13.4155  -20.3528   22.5309 N   0  0  0  0  0  0  0  0  0  0  0  0
   12.3092  -20.8713   23.1127 C   0  0  0  0  0  0  0  0  0  0  0  0
   11.2205  -20.2261   22.6915 N   0  0  0  0  0  0  0  0  0  0  0  0
   12.2594  -18.2088   19.2413 C   0  0  0  0  0  0  0  0  0  0  0  0
   11.5317  -19.0400   18.4100 O   0  0  0  0  0  0  0  0  0  0  0  0
   13.5043  -18.1875   19.1213 O   0  0  0  0  0  0  0  0  0  0  0  0
  2  3  1  0
  2  1  1  1
  4  5  2  0
  4  3  1  0
  6  5  1  0
  7 12  2  0
  7  6  1  0
  8  7  1  0
  9 10  1  0
  9  8  2  0
 10 11  2  0
 11 12  1  0
 12  4  1  0
 13  2  1  0
 14 13  2  0
 15 13  1  0
 16 15  1  0
 17 16  1  0
 18 19  1  0
 18 17  1  0
 19 15  1  0
 20 22  1  0
 19 20  1  1
 21 20  2  0
 23 22  1  0
 23 30  1  0
 23 24  1  1
 25 29  1  0
 25 24  1  0
 26 25  2  0
 27 26  1  0
 27 28  1  0
 28 29  2  0
 30 31  1  0
 32 30  2  0
M  END
$$$$
