WPH.pdb
     RDKit          3D

 32 35  0  0  1  0  0  0  0  0999 V2000
    6.1827  -18.4344   24.2733 N   0  0  0  0  0  0  0  0  0  0  0  0
    6.6916  -17.0627   24.1132 C   0  0  1  0  0  0  0  0  0  0  0  0
    7.2350  -16.6961   25.4909 C   0  0  0  0  0  0  0  0  0  0  0  0
    6.6290  -15.4363   26.0085 C   0  0  0  0  0  0  0  0  0  0  0  0
    5.2562  -15.2989   26.2499 C   0  0  0  0  0  0  0  0  0  0  0  0
    5.0191  -14.0882   26.7430 N   0  0  0  0  0  0  0  0  0  0  0  0
    6.1935  -13.4193   26.8356 C   0  0  0  0  0  0  0  0  0  0  0  0
    6.4486  -12.1429   27.2766 C   0  0  0  0  0  0  0  0  0  0  0  0
    7.7524  -11.6930   27.2560 C   0  0  0  0  0  0  0  0  0  0  0  0
    8.7490  -12.5205   26.8013 C   0  0  0  0  0  0  0  0  0  0  0  0
    8.4993  -13.8082   26.3555 C   0  0  0  0  0  0  0  0  0  0  0  0
    7.1918  -14.2478   26.3818 C   0  0  0  0  0  0  0  0  0  0  0  0
    7.7275  -17.0032   23.0807 C   0  0  0  0  0  0  0  0  0  0  0  0
    8.3682  -18.0924   22.8675 O   0  0  0  0  0  0  0  0  0  0  0  0
    8.0513  -15.8356   22.3214 N   0  0  0  0  0  0  0  0  0  0  0  0
    7.3753  -14.5960   22.4292 C   0  0  0  0  0  0  0  0  0  0  0  0
    8.1520  -13.6451   21.5369 C   0  0  0  0  0  0  0  0  0  0  0  0
    8.7968  -14.5873   20.5054 C   0  0  0  0  0  0  0  0  0  0  0  0
    9.0953  -15.7557   21.3582 C   0  0  1  0  0  0  0  0  0  0  0  0
   10.4545  -15.7460   21.9492 C   0  0  0  0  0  0  0  0  0  0  0  0
   10.5330  -15.6474   23.1973 O   0  0  0  0  0  0  0  0  0  0  0  0
   11.6618  -15.8379   21.2133 N   0  0  0  0  0  0  0  0  0  0  0  0
   12.7369  -16.7453   21.5594 C   0  0  1  0  0  0  0  0  0  0  0  0
   12.1794  -18.1520   21.6983 C   0  0  0  0  0  0  0  0  0  0  0  0
   11.9741  -18.5117   23.1282 C   0  0  0  0  0  0  0  0  0  0  0  0
   12.2169  -17.7168   24.2172 C   0  0  0  0  0  0  0  0  0  0  0  0
   11.9075  -18.4017   25.3282 N   0  0  0  0  0  0  0  0  0  0  0  0
   11.4760  -19.6143   24.9105 C   0  0  0  0  0  0  0  0  0  0  0  0
   11.5149  -19.6848   23.5791 N   0  0  0  0  0  0  0  0  0  0  0  0
   13.8029  -16.7751   20.5431 C   0  0  0  0  0  0  0  0  0  0  0  0
   15.0914  -16.4590   20.9315 O   0  0  0  0  0  0  0  0  0  0  0  0
   13.5975  -17.0727   19.3456 O   0  0  0  0  0  0  0  0  0  0  0  0
  2  3  1  0
  2  1  1  1
  4  5  2  0
  4  3  1  0
  6  5  1  0
  7 12  2  0
  7  6  1  0
  8  7  1  0
  9 10  1  0
  9  8  2  0
 10 11  2  0
 11 12  1  0
 12  4  1  0
 13  2  1  0
 14 13  2  0
 15 13  1  0
 16 15  1  0
 17 16  1  0
 18 19  1  0
 18 17  1  0
 19 15  1  0
 20 22  1  0
 19 20  1  1
 21 20  2  0
 23 22  1  0
 23 30  1  0
 23 24  1  6
 25 29  1  0
 25 24  1  0
 26 25  2  0
 27 26  1  0
 27 28  1  0
 28 29  2  0
 30 31  1  0
 32 30  2  0
M  END
$$$$
