WPH.pdb
     RDKit          3D

 32 35  0  0  1  0  0  0  0  0999 V2000
    6.0053  -17.6938   23.4982 N   0  0  0  0  0  0  0  0  0  0  0  0
    6.5947  -16.3852   23.1724 C   0  0  1  0  0  0  0  0  0  0  0  0
    7.5474  -16.0992   24.3293 C   0  0  0  0  0  0  0  0  0  0  0  0
    6.9324  -15.1965   25.3437 C   0  0  0  0  0  0  0  0  0  0  0  0
    5.8252  -15.5680   26.1169 C   0  0  0  0  0  0  0  0  0  0  0  0
    5.5288  -14.5817   26.9563 N   0  0  0  0  0  0  0  0  0  0  0  0
    6.4062  -13.5679   26.7625 C   0  0  0  0  0  0  0  0  0  0  0  0
    6.4924  -12.3456   27.3847 C   0  0  0  0  0  0  0  0  0  0  0  0
    7.4871  -11.4776   26.9848 C   0  0  0  0  0  0  0  0  0  0  0  0
    8.3542  -11.8516   25.9883 C   0  0  0  0  0  0  0  0  0  0  0  0
    8.2734  -13.0821   25.3568 C   0  0  0  0  0  0  0  0  0  0  0  0
    7.2754  -13.9424   25.7659 C   0  0  0  0  0  0  0  0  0  0  0  0
    7.2908  -16.4275   21.8854 C   0  0  0  0  0  0  0  0  0  0  0  0
    7.4141  -17.5870   21.3539 O   0  0  0  0  0  0  0  0  0  0  0  0
    7.8214  -15.2836   21.2110 N   0  0  0  0  0  0  0  0  0  0  0  0
    7.8653  -13.9785   21.7587 C   0  0  0  0  0  0  0  0  0  0  0  0
    8.6232  -13.1487   20.7386 C   0  0  0  0  0  0  0  0  0  0  0  0
    8.3672  -13.9013   19.4213 C   0  0  0  0  0  0  0  0  0  0  0  0
    8.3797  -15.2977   19.9025 C   0  0  1  0  0  0  0  0  0  0  0  0
    9.7055  -15.9558   19.8253 C   0  0  0  0  0  0  0  0  0  0  0  0
   10.3000  -15.9131   18.7215 O   0  0  0  0  0  0  0  0  0  0  0  0
   10.3448  -16.6252   20.8981 N   0  0  0  0  0  0  0  0  0  0  0  0
   11.6652  -17.2122   20.7953 C   0  0  1  0  0  0  0  0  0  0  0  0
   12.1339  -17.6354   22.1774 C   0  0  0  0  0  0  0  0  0  0  0  0
   11.7809  -16.6150   23.2022 C   0  0  0  0  0  0  0  0  0  0  0  0
   12.3444  -15.3756   23.3541 C   0  0  0  0  0  0  0  0  0  0  0  0
   11.7557  -14.7585   24.3893 N   0  0  0  0  0  0  0  0  0  0  0  0
   10.8331  -15.6266   24.8651 C   0  0  0  0  0  0  0  0  0  0  0  0
   10.8454  -16.7518   24.1490 N   0  0  0  0  0  0  0  0  0  0  0  0
   11.6920  -18.3979   19.9214 C   0  0  0  0  0  0  0  0  0  0  0  0
   12.9072  -19.0128   19.6837 O   0  0  0  0  0  0  0  0  0  0  0  0
   10.6678  -18.8745   19.3843 O   0  0  0  0  0  0  0  0  0  0  0  0
  2  3  1  0
  2  1  1  1
  4  5  2  0
  4  3  1  0
  6  5  1  0
  7 12  2  0
  7  6  1  0
  8  7  1  0
  9 10  1  0
  9  8  2  0
 10 11  2  0
 11 12  1  0
 12  4  1  0
 13  2  1  0
 14 13  2  0
 15 13  1  0
 16 15  1  0
 17 16  1  0
 18 19  1  0
 18 17  1  0
 19 15  1  0
 20 22  1  0
 19 20  1  1
 21 20  2  0
 23 22  1  0
 23 30  1  0
 23 24  1  1
 25 29  1  0
 25 24  1  0
 26 25  2  0
 27 26  1  0
 27 28  1  0
 28 29  2  0
 30 31  1  0
 32 30  2  0
M  END
$$$$
