WPH.pdb
     RDKit          3D

 32 35  0  0  1  0  0  0  0  0999 V2000
    6.2794  -17.1499   23.5254 N   0  0  0  0  0  0  0  0  0  0  0  0
    6.8545  -15.9124   22.9741 C   0  0  1  0  0  0  0  0  0  0  0  0
    7.9136  -15.4995   23.9917 C   0  0  0  0  0  0  0  0  0  0  0  0
    7.3117  -14.8162   25.1720 C   0  0  0  0  0  0  0  0  0  0  0  0
    6.5106  -15.4836   26.1071 C   0  0  0  0  0  0  0  0  0  0  0  0
    6.1545  -14.6321   27.0629 N   0  0  0  0  0  0  0  0  0  0  0  0
    6.6956  -13.4207   26.7891 C   0  0  0  0  0  0  0  0  0  0  0  0
    6.5998  -12.2361   27.4792 C   0  0  0  0  0  0  0  0  0  0  0  0
    7.2467  -11.1293   26.9701 C   0  0  0  0  0  0  0  0  0  0  0  0
    7.9600  -11.2374   25.8022 C   0  0  0  0  0  0  0  0  0  0  0  0
    8.0611  -12.4282   25.1013 C   0  0  0  0  0  0  0  0  0  0  0  0
    7.4111  -13.5288   25.6206 C   0  0  0  0  0  0  0  0  0  0  0  0
    7.4285  -16.1446   21.6477 C   0  0  0  0  0  0  0  0  0  0  0  0
    7.7707  -17.3522   21.3897 O   0  0  0  0  0  0  0  0  0  0  0  0
    7.6200  -15.1314   20.6570 N   0  0  0  0  0  0  0  0  0  0  0  0
    7.1112  -13.8131   20.7492 C   0  0  0  0  0  0  0  0  0  0  0  0
    7.6785  -13.0868   19.5433 C   0  0  0  0  0  0  0  0  0  0  0  0
    7.9190  -14.2244   18.5357 C   0  0  0  0  0  0  0  0  0  0  0  0
    8.3481  -15.3046   19.4470 C   0  0  1  0  0  0  0  0  0  0  0  0
    9.8152  -15.3912   19.6393 C   0  0  0  0  0  0  0  0  0  0  0  0
   10.2923  -14.8233   20.6510 O   0  0  0  0  0  0  0  0  0  0  0  0
   10.7110  -16.0622   18.7704 N   0  0  0  0  0  0  0  0  0  0  0  0
   11.7094  -17.0054   19.2313 C   0  0  1  0  0  0  0  0  0  0  0  0
   11.0147  -18.2215   19.8207 C   0  0  0  0  0  0  0  0  0  0  0  0
   12.0023  -19.2281   20.2976 C   0  0  0  0  0  0  0  0  0  0  0  0
   13.3675  -19.1236   20.2520 C   0  0  0  0  0  0  0  0  0  0  0  0
   13.9026  -20.2363   20.7761 N   0  0  0  0  0  0  0  0  0  0  0  0
   12.8584  -21.0162   21.1402 C   0  0  0  0  0  0  0  0  0  0  0  0
   11.7062  -20.4093   20.8521 N   0  0  0  0  0  0  0  0  0  0  0  0
   12.5962  -17.4662   18.1490 C   0  0  0  0  0  0  0  0  0  0  0  0
   12.0251  -18.0551   17.0362 O   0  0  0  0  0  0  0  0  0  0  0  0
   13.8410  -17.3503   18.1892 O   0  0  0  0  0  0  0  0  0  0  0  0
  2  3  1  0
  2  1  1  1
  4  5  2  0
  4  3  1  0
  6  5  1  0
  7 12  2  0
  7  6  1  0
  8  7  1  0
  9 10  1  0
  9  8  2  0
 10 11  2  0
 11 12  1  0
 12  4  1  0
 13  2  1  0
 14 13  2  0
 15 13  1  0
 16 15  1  0
 17 16  1  0
 18 19  1  0
 18 17  1  0
 19 15  1  0
 20 22  1  0
 19 20  1  1
 21 20  2  0
 23 22  1  0
 23 30  1  0
 23 24  1  6
 25 29  1  0
 25 24  1  0
 26 25  2  0
 27 26  1  0
 27 28  1  0
 28 29  2  0
 30 31  1  0
 32 30  2  0
M  END
$$$$
