WPH.pdb
     RDKit          3D

 32 35  0  0  1  0  0  0  0  0999 V2000
    6.4266  -17.3655   23.9663 N   0  0  0  0  0  0  0  0  0  0  0  0
    6.9150  -16.1088   23.3762 C   0  0  1  0  0  0  0  0  0  0  0  0
    7.7792  -15.4868   24.4689 C   0  0  0  0  0  0  0  0  0  0  0  0
    6.9974  -14.5553   25.3310 C   0  0  0  0  0  0  0  0  0  0  0  0
    5.8386  -14.9465   26.0137 C   0  0  0  0  0  0  0  0  0  0  0  0
    5.3866  -13.9218   26.7283 N   0  0  0  0  0  0  0  0  0  0  0  0
    6.2108  -12.8634   26.5397 C   0  0  0  0  0  0  0  0  0  0  0  0
    6.1465  -11.5924   27.0587 C   0  0  0  0  0  0  0  0  0  0  0  0
    7.1195  -10.6866   26.6908 C   0  0  0  0  0  0  0  0  0  0  0  0
    8.1143  -11.0722   25.8269 C   0  0  0  0  0  0  0  0  0  0  0  0
    8.1855  -12.3515   25.3000 C   0  0  0  0  0  0  0  0  0  0  0  0
    7.2077  -13.2493   25.6758 C   0  0  0  0  0  0  0  0  0  0  0  0
    7.6764  -16.3634   22.1522 C   0  0  0  0  0  0  0  0  0  0  0  0
    8.0105  -17.5830   21.9446 O   0  0  0  0  0  0  0  0  0  0  0  0
    8.0534  -15.3591   21.2066 N   0  0  0  0  0  0  0  0  0  0  0  0
    7.8425  -13.9703   21.3848 C   0  0  0  0  0  0  0  0  0  0  0  0
    8.5188  -13.3136   20.1952 C   0  0  0  0  0  0  0  0  0  0  0  0
    8.4812  -14.4166   19.1232 C   0  0  0  0  0  0  0  0  0  0  0  0
    8.6934  -15.6139   19.9617 C   0  0  1  0  0  0  0  0  0  0  0  0
   10.1124  -16.0219   20.0914 C   0  0  0  0  0  0  0  0  0  0  0  0
   10.7133  -16.3390   19.0369 O   0  0  0  0  0  0  0  0  0  0  0  0
   10.8335  -16.0807   21.3097 N   0  0  0  0  0  0  0  0  0  0  0  0
   12.2338  -16.4435   21.3881 C   0  0  1  0  0  0  0  0  0  0  0  0
   12.3676  -17.7675   22.1217 C   0  0  0  0  0  0  0  0  0  0  0  0
   11.7544  -17.6975   23.4764 C   0  0  0  0  0  0  0  0  0  0  0  0
   11.4564  -16.5632   24.1845 C   0  0  0  0  0  0  0  0  0  0  0  0
   10.9172  -16.9184   25.3602 N   0  0  0  0  0  0  0  0  0  0  0  0
   10.8885  -18.2713   25.3636 C   0  0  0  0  0  0  0  0  0  0  0  0
   11.3946  -18.7467   24.2247 N   0  0  0  0  0  0  0  0  0  0  0  0
   12.8561  -16.5921   20.0612 C   0  0  0  0  0  0  0  0  0  0  0  0
   13.8697  -15.7206   19.7084 O   0  0  0  0  0  0  0  0  0  0  0  0
   12.5110  -17.4690   19.2386 O   0  0  0  0  0  0  0  0  0  0  0  0
  2  3  1  0
  2  1  1  1
  4  5  2  0
  4  3  1  0
  6  5  1  0
  7 12  2  0
  7  6  1  0
  8  7  1  0
  9 10  1  0
  9  8  2  0
 10 11  2  0
 11 12  1  0
 12  4  1  0
 13  2  1  0
 14 13  2  0
 15 13  1  0
 16 15  1  0
 17 16  1  0
 18 19  1  0
 18 17  1  0
 19 15  1  0
 20 22  1  0
 19 20  1  1
 21 20  2  0
 23 22  1  0
 23 30  1  0
 23 24  1  6
 25 29  1  0
 25 24  1  0
 26 25  2  0
 27 26  1  0
 27 28  1  0
 28 29  2  0
 30 31  1  0
 32 30  2  0
M  END
$$$$
