WPH.pdb
     RDKit          3D

 32 35  0  0  1  0  0  0  0  0999 V2000
    6.8193  -17.1786   23.1732 N   0  0  0  0  0  0  0  0  0  0  0  0
    7.2219  -15.8046   22.8326 C   0  0  1  0  0  0  0  0  0  0  0  0
    8.0368  -15.3385   24.0352 C   0  0  0  0  0  0  0  0  0  0  0  0
    7.1830  -14.6700   25.0580 C   0  0  0  0  0  0  0  0  0  0  0  0
    6.0986  -15.3075   25.6741 C   0  0  0  0  0  0  0  0  0  0  0  0
    5.5569  -14.4835   26.5645 N   0  0  0  0  0  0  0  0  0  0  0  0
    6.2496  -13.3194   26.5569 C   0  0  0  0  0  0  0  0  0  0  0  0
    6.0588  -12.1751   27.2938 C   0  0  0  0  0  0  0  0  0  0  0  0
    6.9107  -11.1113   27.0810 C   0  0  0  0  0  0  0  0  0  0  0  0
    7.9142  -11.2209   26.1506 C   0  0  0  0  0  0  0  0  0  0  0  0
    8.1127  -12.3711   25.4043 C   0  0  0  0  0  0  0  0  0  0  0  0
    7.2553  -13.4290   25.6265 C   0  0  0  0  0  0  0  0  0  0  0  0
    8.0037  -15.7769   21.5953 C   0  0  0  0  0  0  0  0  0  0  0  0
    8.5478  -16.8853   21.2525 O   0  0  0  0  0  0  0  0  0  0  0  0
    8.1857  -14.6197   20.7753 N   0  0  0  0  0  0  0  0  0  0  0  0
    7.5197  -13.3854   20.9709 C   0  0  0  0  0  0  0  0  0  0  0  0
    8.1302  -12.4426   19.9500 C   0  0  0  0  0  0  0  0  0  0  0  0
    8.6128  -13.3963   18.8433 C   0  0  0  0  0  0  0  0  0  0  0  0
    9.0599  -14.5462   19.6553 C   0  0  1  0  0  0  0  0  0  0  0  0
   10.4963  -14.5119   20.0194 C   0  0  0  0  0  0  0  0  0  0  0  0
   10.7736  -14.4437   21.2409 O   0  0  0  0  0  0  0  0  0  0  0  0
   11.5703  -14.5488   19.0959 N   0  0  0  0  0  0  0  0  0  0  0  0
   12.8365  -15.1955   19.3743 C   0  0  1  0  0  0  0  0  0  0  0  0
   12.5945  -16.6687   19.6574 C   0  0  0  0  0  0  0  0  0  0  0  0
   12.5100  -16.9297   21.1205 C   0  0  0  0  0  0  0  0  0  0  0  0
   12.7672  -16.0388   22.1290 C   0  0  0  0  0  0  0  0  0  0  0  0
   12.5811  -16.6548   23.3059 N   0  0  0  0  0  0  0  0  0  0  0  0
   12.2100  -17.9218   23.0089 C   0  0  0  0  0  0  0  0  0  0  0  0
   12.1659  -18.0921   21.6868 N   0  0  0  0  0  0  0  0  0  0  0  0
   13.7830  -15.0963   18.2498 C   0  0  0  0  0  0  0  0  0  0  0  0
   13.2879  -14.7767   16.9992 O   0  0  0  0  0  0  0  0  0  0  0  0
   15.0131  -15.2876   18.3728 O   0  0  0  0  0  0  0  0  0  0  0  0
  2  3  1  0
  2  1  1  1
  4  5  2  0
  4  3  1  0
  6  5  1  0
  7 12  2  0
  7  6  1  0
  8  7  1  0
  9 10  1  0
  9  8  2  0
 10 11  2  0
 11 12  1  0
 12  4  1  0
 13  2  1  0
 14 13  2  0
 15 13  1  0
 16 15  1  0
 17 16  1  0
 18 19  1  0
 18 17  1  0
 19 15  1  0
 20 22  1  0
 19 20  1  1
 21 20  2  0
 23 22  1  0
 23 30  1  0
 23 24  1  6
 25 29  1  0
 25 24  1  0
 26 25  2  0
 27 26  1  0
 27 28  1  0
 28 29  2  0
 30 31  1  0
 32 30  2  0
M  END
$$$$
