WPH.pdb
     RDKit          3D

 32 35  0  0  1  0  0  0  0  0999 V2000
    6.4111  -18.1533   24.5355 N   0  0  0  0  0  0  0  0  0  0  0  0
    6.8245  -16.8473   23.9974 C   0  0  1  0  0  0  0  0  0  0  0  0
    7.6352  -16.2121   25.1230 C   0  0  0  0  0  0  0  0  0  0  0  0
    6.9589  -15.0067   25.6812 C   0  0  0  0  0  0  0  0  0  0  0  0
    5.6075  -14.9980   26.0493 C   0  0  0  0  0  0  0  0  0  0  0  0
    5.2993  -13.8061   26.5490 N   0  0  0  0  0  0  0  0  0  0  0  0
    6.4058  -13.0249   26.5231 C   0  0  0  0  0  0  0  0  0  0  0  0
    6.5739  -11.7211   26.9237 C   0  0  0  0  0  0  0  0  0  0  0  0
    7.8196  -11.1475   26.7754 C   0  0  0  0  0  0  0  0  0  0  0  0
    8.8463  -11.8837   26.2381 C   0  0  0  0  0  0  0  0  0  0  0  0
    8.6842  -13.1984   25.8322 C   0  0  0  0  0  0  0  0  0  0  0  0
    7.4343  -13.7619   25.9865 C   0  0  0  0  0  0  0  0  0  0  0  0
    7.6139  -17.0080   22.7752 C   0  0  0  0  0  0  0  0  0  0  0  0
    7.9846  -18.2038   22.5017 O   0  0  0  0  0  0  0  0  0  0  0  0
    7.9800  -15.9393   21.8984 N   0  0  0  0  0  0  0  0  0  0  0  0
    7.5562  -14.5967   22.0500 C   0  0  0  0  0  0  0  0  0  0  0  0
    8.2985  -13.8256   20.9738 C   0  0  0  0  0  0  0  0  0  0  0  0
    8.5669  -14.8974   19.9030 C   0  0  0  0  0  0  0  0  0  0  0  0
    8.8202  -16.0746   20.7583 C   0  0  1  0  0  0  0  0  0  0  0  0
   10.2487  -16.2890   21.0905 C   0  0  0  0  0  0  0  0  0  0  0  0
   10.7643  -15.5055   21.9235 O   0  0  0  0  0  0  0  0  0  0  0  0
   11.0680  -17.3052   20.5394 N   0  0  0  0  0  0  0  0  0  0  0  0
   12.4505  -17.5071   20.9225 C   0  0  1  0  0  0  0  0  0  0  0  0
   12.6385  -18.9439   21.3798 C   0  0  0  0  0  0  0  0  0  0  0  0
   11.9995  -19.1761   22.7041 C   0  0  0  0  0  0  0  0  0  0  0  0
   11.8761  -18.2714   23.7255 C   0  0  0  0  0  0  0  0  0  0  0  0
   11.2432  -18.8619   24.7501 N   0  0  0  0  0  0  0  0  0  0  0  0
   10.9825  -20.1273   24.3477 C   0  0  0  0  0  0  0  0  0  0  0  0
   11.4388  -20.3213   23.1095 N   0  0  0  0  0  0  0  0  0  0  0  0
   13.3884  -17.2542   19.8150 C   0  0  0  0  0  0  0  0  0  0  0  0
   12.8741  -16.8558   18.5952 O   0  0  0  0  0  0  0  0  0  0  0  0
   14.6277  -17.3830   19.9258 O   0  0  0  0  0  0  0  0  0  0  0  0
  2  3  1  0
  2  1  1  1
  4  5  2  0
  4  3  1  0
  6  5  1  0
  7 12  2  0
  7  6  1  0
  8  7  1  0
  9 10  1  0
  9  8  2  0
 10 11  2  0
 11 12  1  0
 12  4  1  0
 13  2  1  0
 14 13  2  0
 15 13  1  0
 16 15  1  0
 17 16  1  0
 18 19  1  0
 18 17  1  0
 19 15  1  0
 20 22  1  0
 19 20  1  1
 21 20  2  0
 23 22  1  0
 23 30  1  0
 23 24  1  6
 25 29  1  0
 25 24  1  0
 26 25  2  0
 27 26  1  0
 27 28  1  0
 28 29  2  0
 30 31  1  0
 32 30  2  0
M  END
$$$$
