WPH.pdb
     RDKit          3D

 32 35  0  0  1  0  0  0  0  0999 V2000
    5.1941  -17.6943   22.1079 N   0  0  0  0  0  0  0  0  0  0  0  0
    5.7741  -16.4433   22.6225 C   0  0  1  0  0  0  0  0  0  0  0  0
    5.6044  -16.5402   24.1356 C   0  0  0  0  0  0  0  0  0  0  0  0
    5.8063  -15.2219   24.8016 C   0  0  0  0  0  0  0  0  0  0  0  0
    4.8150  -14.2333   24.8418 C   0  0  0  0  0  0  0  0  0  0  0  0
    5.2654  -13.1921   25.5334 N   0  0  0  0  0  0  0  0  0  0  0  0
    6.5252  -13.4610   25.9525 C   0  0  0  0  0  0  0  0  0  0  0  0
    7.3935  -12.6894   26.6870 C   0  0  0  0  0  0  0  0  0  0  0  0
    8.6420  -13.2021   26.9718 C   0  0  0  0  0  0  0  0  0  0  0  0
    8.9813  -14.4534   26.5203 C   0  0  0  0  0  0  0  0  0  0  0  0
    8.1112  -15.2368   25.7797 C   0  0  0  0  0  0  0  0  0  0  0  0
    6.8649  -14.7142   25.5019 C   0  0  0  0  0  0  0  0  0  0  0  0
    7.1800  -16.3168   22.2346 C   0  0  0  0  0  0  0  0  0  0  0  0
    7.8737  -17.3930   22.2864 O   0  0  0  0  0  0  0  0  0  0  0  0
    7.7998  -15.0989   21.8136 N   0  0  0  0  0  0  0  0  0  0  0  0
    7.1501  -13.8414   21.7707 C   0  0  0  0  0  0  0  0  0  0  0  0
    8.2355  -12.8502   21.3924 C   0  0  0  0  0  0  0  0  0  0  0  0
    9.2443  -13.7191   20.6214 C   0  0  0  0  0  0  0  0  0  0  0  0
    9.1510  -14.9805   21.3841 C   0  0  1  0  0  0  0  0  0  0  0  0
   10.1399  -15.1024   22.4814 C   0  0  0  0  0  0  0  0  0  0  0  0
    9.7822  -14.7097   23.6178 O   0  0  0  0  0  0  0  0  0  0  0  0
   11.4496  -15.6246   22.3414 N   0  0  0  0  0  0  0  0  0  0  0  0
   11.9847  -16.6682   23.1919 C   0  0  1  0  0  0  0  0  0  0  0  0
   11.0160  -17.8386   23.2178 C   0  0  0  0  0  0  0  0  0  0  0  0
   10.4392  -18.0310   24.5766 C   0  0  0  0  0  0  0  0  0  0  0  0
    9.3076  -18.7344   24.8955 C   0  0  0  0  0  0  0  0  0  0  0  0
    9.1209  -18.6718   26.2223 N   0  0  0  0  0  0  0  0  0  0  0  0
   10.1424  -17.9288   26.7078 C   0  0  0  0  0  0  0  0  0  0  0  0
   10.9427  -17.5390   25.7145 N   0  0  0  0  0  0  0  0  0  0  0  0
   13.2901  -17.1664   22.7251 C   0  0  0  0  0  0  0  0  0  0  0  0
   14.3825  -17.0342   23.5620 O   0  0  0  0  0  0  0  0  0  0  0  0
   13.4570  -17.7032   21.6076 O   0  0  0  0  0  0  0  0  0  0  0  0
  2  3  1  0
  2  1  1  6
  4  5  2  0
  4  3  1  0
  6  5  1  0
  7 12  2  0
  7  6  1  0
  8  7  1  0
  9 10  1  0
  9  8  2  0
 10 11  2  0
 11 12  1  0
 12  4  1  0
 13  2  1  0
 14 13  2  0
 15 13  1  0
 16 15  1  0
 17 16  1  0
 18 19  1  0
 18 17  1  0
 19 15  1  0
 20 22  1  0
 19 20  1  1
 21 20  2  0
 23 22  1  0
 23 30  1  0
 23 24  1  6
 25 29  1  0
 25 24  1  0
 26 25  2  0
 27 26  1  0
 27 28  1  0
 28 29  2  0
 30 31  1  0
 32 30  2  0
M  END
$$$$
