KTT.pdb
     RDKit          3D

 24 23  0  0  1  0  0  0  0  0999 V2000
    8.8248  -16.6158   15.8150 N   0  0  0  0  0  0  0  0  0  0  0  0
    7.9728  -16.8703   16.9934 C   0  0  1  0  0  0  0  0  0  0  0  0
    7.8994  -18.3282   17.2223 C   0  0  0  0  0  0  0  0  0  0  0  0
    8.9390  -19.1481   16.5803 C   0  0  0  0  0  0  0  0  0  0  0  0
    8.9514  -20.6183   16.6469 C   0  0  0  0  0  0  0  0  0  0  0  0
    8.6922  -21.3247   17.9190 C   0  0  0  0  0  0  0  0  0  0  0  0
    8.8564  -22.7902   17.7430 N   0  0  0  0  0  0  0  0  0  0  0  0
    8.7567  -16.2031   18.1277 C   0  0  0  0  0  0  0  0  0  0  0  0
    9.9737  -16.0037   17.9825 O   0  0  0  0  0  0  0  0  0  0  0  0
    7.4210  -13.0631   19.7952 C   0  0  0  0  0  0  0  0  0  0  0  0
    7.8018  -14.0464   20.8445 C   0  0  1  0  0  0  0  0  0  0  0  0
    6.6703  -14.7555   21.3202 O   0  0  0  0  0  0  0  0  0  0  0  0
    8.7915  -15.1071   20.4073 C   0  0  2  0  0  0  0  0  0  0  0  0
    8.1005  -15.8197   19.3245 N   0  0  0  0  0  0  0  0  0  0  0  0
    9.1996  -16.0361   21.4628 C   0  0  0  0  0  0  0  0  0  0  0  0
    8.4020  -16.9625   21.8558 O   0  0  0  0  0  0  0  0  0  0  0  0
   11.6184  -18.6403   21.5906 C   0  0  0  0  0  0  0  0  0  0  0  0
   11.9621  -17.7484   22.7615 C   0  0  1  0  0  0  0  0  0  0  0  0
   12.9402  -16.8441   22.3730 O   0  0  0  0  0  0  0  0  0  0  0  0
   10.7370  -16.9620   23.2267 C   0  0  2  0  0  0  0  0  0  0  0  0
   10.4474  -16.0183   22.1262 N   0  0  0  0  0  0  0  0  0  0  0  0
   11.1242  -16.1922   24.4103 C   0  0  0  0  0  0  0  0  0  0  0  0
   11.1976  -14.9343   24.3873 O   0  0  0  0  0  0  0  0  0  0  0  0
   11.4321  -16.8016   25.6229 O   0  0  0  0  0  0  0  0  0  0  0  0
  2  1  1  6
  2  8  1  0
  3  2  1  0
  4  3  1  0
  5  6  1  0
  5  4  1  0
  7  6  1  0
  8 14  1  0
  8  9  2  0
 11 12  1  0
 11 10  1  6
 13 11  1  0
 13 14  1  6
 15 13  1  0
 15 16  2  0
 18 17  1  6
 18 20  1  0
 18 19  1  0
 20 21  1  6
 21 15  1  0
 22 20  1  0
 23 22  2  0
 24 22  1  0
M  END
$$$$
