KTT.pdb
     RDKit          3D

 24 23  0  0  1  0  0  0  0  0999 V2000
    8.6168  -16.8416   19.9903 N   0  0  0  0  0  0  0  0  0  0  0  0
    7.8079  -17.1345   21.1900 C   0  0  1  0  0  0  0  0  0  0  0  0
    7.7073  -18.5999   21.3505 C   0  0  0  0  0  0  0  0  0  0  0  0
    7.5244  -19.3856   20.1199 C   0  0  0  0  0  0  0  0  0  0  0  0
    8.6110  -20.1579   19.4962 C   0  0  0  0  0  0  0  0  0  0  0  0
    8.7902  -21.5949   19.7920 C   0  0  0  0  0  0  0  0  0  0  0  0
    7.8086  -22.4090   19.0310 N   0  0  0  0  0  0  0  0  0  0  0  0
    8.6544  -16.5427   22.3211 C   0  0  0  0  0  0  0  0  0  0  0  0
    9.8879  -16.4929   22.1874 O   0  0  0  0  0  0  0  0  0  0  0  0
    7.8940  -13.1831   23.7780 C   0  0  0  0  0  0  0  0  0  0  0  0
    8.0039  -14.1607   24.8939 C   0  0  1  0  0  0  0  0  0  0  0  0
    6.7265  -14.6137   25.3089 O   0  0  0  0  0  0  0  0  0  0  0  0
    8.7968  -15.4131   24.5800 C   0  0  2  0  0  0  0  0  0  0  0  0
    8.0366  -16.0597   23.5022 N   0  0  0  0  0  0  0  0  0  0  0  0
    8.9730  -16.3259   25.7111 C   0  0  0  0  0  0  0  0  0  0  0  0
    7.9818  -17.0148   26.1494 O   0  0  0  0  0  0  0  0  0  0  0  0
   10.7918  -19.4133   25.9399 C   0  0  0  0  0  0  0  0  0  0  0  0
   11.3263  -18.5339   27.0469 C   0  0  1  0  0  0  0  0  0  0  0  0
   12.4275  -17.8314   26.5785 O   0  0  0  0  0  0  0  0  0  0  0  0
   10.2707  -17.5266   27.5017 C   0  0  2  0  0  0  0  0  0  0  0  0
   10.1858  -16.5395   26.4045 N   0  0  0  0  0  0  0  0  0  0  0  0
   10.7830  -16.8523   28.6960 C   0  0  0  0  0  0  0  0  0  0  0  0
   11.0921  -15.6306   28.6855 O   0  0  0  0  0  0  0  0  0  0  0  0
   10.9574  -17.5178   29.9057 O   0  0  0  0  0  0  0  0  0  0  0  0
  2  1  1  6
  2  8  1  0
  3  2  1  0
  4  3  1  0
  5  6  1  0
  5  4  1  0
  7  6  1  0
  8 14  1  0
  8  9  2  0
 11 12  1  0
 11 10  1  6
 13 11  1  0
 13 14  1  6
 15 13  1  0
 15 16  2  0
 18 17  1  6
 18 20  1  0
 18 19  1  0
 20 21  1  6
 21 15  1  0
 22 20  1  0
 23 22  2  0
 24 22  1  0
M  END
$$$$
