KTT.pdb
     RDKit          3D

 24 23  0  0  1  0  0  0  0  0999 V2000
   10.1346  -15.3888   20.6269 N   0  0  0  0  0  0  0  0  0  0  0  0
    9.3961  -14.2688   21.2432 C   0  0  1  0  0  0  0  0  0  0  0  0
    8.2488  -13.9219   20.3791 C   0  0  0  0  0  0  0  0  0  0  0  0
    8.4901  -13.9368   18.9277 C   0  0  0  0  0  0  0  0  0  0  0  0
    7.4413  -13.6352   17.9402 C   0  0  0  0  0  0  0  0  0  0  0  0
    7.7401  -13.6214   16.4928 C   0  0  0  0  0  0  0  0  0  0  0  0
    6.4985  -13.4039   15.7074 N   0  0  0  0  0  0  0  0  0  0  0  0
    8.8948  -14.8767   22.5567 C   0  0  0  0  0  0  0  0  0  0  0  0
    8.0094  -14.2846   23.1950 O   0  0  0  0  0  0  0  0  0  0  0  0
    8.8151  -19.0312   25.2588 C   0  0  0  0  0  0  0  0  0  0  0  0
    9.0317  -18.1785   24.0591 C   0  0  1  0  0  0  0  0  0  0  0  0
    8.0234  -18.3933   23.0863 O   0  0  0  0  0  0  0  0  0  0  0  0
    9.0339  -16.6859   24.3193 C   0  0  2  0  0  0  0  0  0  0  0  0
    9.4351  -16.0972   23.0347 N   0  0  0  0  0  0  0  0  0  0  0  0
    9.9312  -16.2526   25.3920 C   0  0  0  0  0  0  0  0  0  0  0  0
   11.1906  -16.1290   25.1742 O   0  0  0  0  0  0  0  0  0  0  0  0
   10.0866  -13.0962   27.4121 C   0  0  0  0  0  0  0  0  0  0  0  0
    9.9600  -14.2672   28.3593 C   0  0  1  0  0  0  0  0  0  0  0  0
    8.6186  -14.4787   28.6447 O   0  0  0  0  0  0  0  0  0  0  0  0
   10.5252  -15.5409   27.7314 C   0  0  2  0  0  0  0  0  0  0  0  0
    9.5320  -15.9376   26.7107 N   0  0  0  0  0  0  0  0  0  0  0  0
   10.5621  -16.5718   28.7703 C   0  0  0  0  0  0  0  0  0  0  0  0
    9.8063  -17.5794   28.7306 O   0  0  0  0  0  0  0  0  0  0  0  0
   11.4296  -16.4992   29.8561 O   0  0  0  0  0  0  0  0  0  0  0  0
  2  1  1  6
  2  8  1  0
  3  2  1  0
  4  3  1  0
  5  6  1  0
  5  4  1  0
  7  6  1  0
  8 14  1  0
  8  9  2  0
 11 12  1  0
 11 10  1  1
 13 11  1  0
 13 14  1  6
 15 13  1  0
 15 16  2  0
 18 17  1  6
 18 20  1  0
 18 19  1  0
 20 21  1  6
 21 15  1  0
 22 20  1  0
 23 22  2  0
 24 22  1  0
M  END
$$$$
