KTT.pdb
     RDKit          3D

 24 23  0  0  1  0  0  0  0  0999 V2000
    8.0227  -17.8930   15.8604 N   0  0  0  0  0  0  0  0  0  0  0  0
    7.1978  -17.0477   16.7460 C   0  0  1  0  0  0  0  0  0  0  0  0
    6.2592  -17.9121   17.4909 C   0  0  0  0  0  0  0  0  0  0  0  0
    6.6435  -19.3245   17.6412 C   0  0  0  0  0  0  0  0  0  0  0  0
    7.3266  -19.8438   18.8369 C   0  0  0  0  0  0  0  0  0  0  0  0
    7.7091  -21.2679   18.9366 C   0  0  0  0  0  0  0  0  0  0  0  0
    8.4456  -21.5214   20.2011 N   0  0  0  0  0  0  0  0  0  0  0  0
    8.2329  -16.4530   17.7058 C   0  0  0  0  0  0  0  0  0  0  0  0
    9.4152  -16.8231   17.6212 O   0  0  0  0  0  0  0  0  0  0  0  0
    6.9350  -13.3351   20.3638 C   0  0  0  0  0  0  0  0  0  0  0  0
    8.2802  -13.4383   19.7371 C   0  0  1  0  0  0  0  0  0  0  0  0
    9.2573  -12.7507   20.4999 O   0  0  0  0  0  0  0  0  0  0  0  0
    8.8105  -14.8482   19.5740 C   0  0  2  0  0  0  0  0  0  0  0  0
    7.8447  -15.4944   18.6755 N   0  0  0  0  0  0  0  0  0  0  0  0
    8.9422  -15.6012   20.8228 C   0  0  0  0  0  0  0  0  0  0  0  0
    7.8970  -15.9930   21.4575 O   0  0  0  0  0  0  0  0  0  0  0  0
   10.1483  -18.9030   21.6107 C   0  0  0  0  0  0  0  0  0  0  0  0
   10.9588  -17.9586   22.4685 C   0  0  1  0  0  0  0  0  0  0  0  0
   12.1364  -17.6402   21.8073 O   0  0  0  0  0  0  0  0  0  0  0  0
   10.1897  -16.6644   22.7321 C   0  0  2  0  0  0  0  0  0  0  0  0
   10.1657  -15.9619   21.4316 N   0  0  0  0  0  0  0  0  0  0  0  0
   10.9714  -15.8659   23.6781 C   0  0  0  0  0  0  0  0  0  0  0  0
   11.5932  -14.8314   23.3160 O   0  0  0  0  0  0  0  0  0  0  0  0
   11.0724  -16.2013   25.0249 O   0  0  0  0  0  0  0  0  0  0  0  0
  2  1  1  6
  2  8  1  0
  3  2  1  0
  4  3  1  0
  5  6  1  0
  5  4  1  0
  7  6  1  0
  8 14  1  0
  8  9  2  0
 11 12  1  0
 11 10  1  1
 13 11  1  0
 13 14  1  6
 15 13  1  0
 15 16  2  0
 18 17  1  6
 18 20  1  0
 18 19  1  0
 20 21  1  6
 21 15  1  0
 22 20  1  0
 23 22  2  0
 24 22  1  0
M  END
$$$$
