KTT.pdb
     RDKit          3D

 24 23  0  0  1  0  0  0  0  0999 V2000
    7.6106  -14.0625   15.8075 N   0  0  0  0  0  0  0  0  0  0  0  0
    8.4296  -15.1268   16.4205 C   0  0  1  0  0  0  0  0  0  0  0  0
    9.6744  -15.2797   15.6393 C   0  0  0  0  0  0  0  0  0  0  0  0
    9.8727  -16.5717   14.9637 C   0  0  0  0  0  0  0  0  0  0  0  0
   10.5593  -17.7082   15.5986 C   0  0  0  0  0  0  0  0  0  0  0  0
   10.8051  -18.9611   14.8540 C   0  0  0  0  0  0  0  0  0  0  0  0
   12.1244  -18.9118   14.1740 N   0  0  0  0  0  0  0  0  0  0  0  0
    8.7492  -14.5527   17.8041 C   0  0  0  0  0  0  0  0  0  0  0  0
    8.6889  -13.3242   17.9749 O   0  0  0  0  0  0  0  0  0  0  0  0
    7.2830  -13.4079   19.5667 C   0  0  0  0  0  0  0  0  0  0  0  0
    7.7770  -14.4183   20.5406 C   0  0  1  0  0  0  0  0  0  0  0  0
    6.9317  -15.5556   20.5753 O   0  0  0  0  0  0  0  0  0  0  0  0
    9.1675  -14.9538   20.2665 C   0  0  2  0  0  0  0  0  0  0  0  0
    9.1082  -15.4128   18.8724 N   0  0  0  0  0  0  0  0  0  0  0  0
    9.5913  -16.0393   21.1530 C   0  0  0  0  0  0  0  0  0  0  0  0
    9.0598  -17.2039   21.0527 O   0  0  0  0  0  0  0  0  0  0  0  0
   13.2563  -16.9157   22.0288 C   0  0  0  0  0  0  0  0  0  0  0  0
   12.4345  -16.9065   23.2973 C   0  0  1  0  0  0  0  0  0  0  0  0
   12.5939  -15.6840   23.9340 O   0  0  0  0  0  0  0  0  0  0  0  0
   10.9501  -17.0980   22.9874 C   0  0  2  0  0  0  0  0  0  0  0  0
   10.5787  -15.9316   22.1585 N   0  0  0  0  0  0  0  0  0  0  0  0
   10.2171  -17.0223   24.2525 C   0  0  0  0  0  0  0  0  0  0  0  0
   10.3554  -17.8948   25.1513 O   0  0  0  0  0  0  0  0  0  0  0  0
    9.3297  -15.9880   24.5343 O   0  0  0  0  0  0  0  0  0  0  0  0
  2  1  1  6
  2  8  1  0
  3  2  1  0
  4  3  1  0
  5  6  1  0
  5  4  1  0
  7  6  1  0
  8 14  1  0
  8  9  2  0
 11 12  1  0
 11 10  1  6
 13 11  1  0
 13 14  1  6
 15 13  1  0
 15 16  2  0
 18 17  1  6
 18 20  1  0
 18 19  1  0
 20 21  1  6
 21 15  1  0
 22 20  1  0
 23 22  2  0
 24 22  1  0
M  END
$$$$
