KTT.pdb
     RDKit          3D

 24 23  0  0  1  0  0  0  0  0999 V2000
   14.0299  -14.1924   18.3974 N   0  0  0  0  0  0  0  0  0  0  0  0
   12.7387  -14.8866   18.2240 C   0  0  1  0  0  0  0  0  0  0  0  0
   12.9522  -16.3389   18.3924 C   0  0  0  0  0  0  0  0  0  0  0  0
   14.3263  -16.8286   18.1995 C   0  0  0  0  0  0  0  0  0  0  0  0
   14.6871  -18.2526   18.2896 C   0  0  0  0  0  0  0  0  0  0  0  0
   16.0606  -18.7100   17.9915 C   0  0  0  0  0  0  0  0  0  0  0  0
   16.1760  -20.1766   18.1947 N   0  0  0  0  0  0  0  0  0  0  0  0
   11.9041  -14.3437   19.3881 C   0  0  0  0  0  0  0  0  0  0  0  0
   12.4861  -13.9125   20.3966 O   0  0  0  0  0  0  0  0  0  0  0  0
    8.4581  -12.3475   18.6766 C   0  0  0  0  0  0  0  0  0  0  0  0
    8.3500  -13.4262   19.6954 C   0  0  1  0  0  0  0  0  0  0  0  0
    7.8722  -14.6306   19.1208 O   0  0  0  0  0  0  0  0  0  0  0  0
    9.6467  -13.7930   20.3880 C   0  0  2  0  0  0  0  0  0  0  0  0
   10.4884  -14.3346   19.3129 N   0  0  0  0  0  0  0  0  0  0  0  0
    9.5066  -14.7624   21.4763 C   0  0  0  0  0  0  0  0  0  0  0  0
    8.7547  -14.5023   22.4842 O   0  0  0  0  0  0  0  0  0  0  0  0
    8.2385  -18.3218   21.4487 C   0  0  0  0  0  0  0  0  0  0  0  0
    9.6286  -18.2945   22.0414 C   0  0  1  0  0  0  0  0  0  0  0  0
   10.5570  -18.5204   21.0351 O   0  0  0  0  0  0  0  0  0  0  0  0
    9.9257  -16.9354   22.6741 C   0  0  2  0  0  0  0  0  0  0  0  0
   10.1456  -16.0218   21.5328 N   0  0  0  0  0  0  0  0  0  0  0  0
   11.1786  -17.0558   23.4220 C   0  0  0  0  0  0  0  0  0  0  0  0
   12.2243  -16.4504   23.0641 O   0  0  0  0  0  0  0  0  0  0  0  0
   11.2867  -17.8416   24.5654 O   0  0  0  0  0  0  0  0  0  0  0  0
  2  1  1  1
  2  8  1  0
  3  2  1  0
  4  3  1  0
  5  6  1  0
  5  4  1  0
  7  6  1  0
  8 14  1  0
  8  9  2  0
 11 12  1  0
 11 10  1  6
 13 11  1  0
 13 14  1  6
 15 13  1  0
 15 16  2  0
 18 17  1  6
 18 20  1  0
 18 19  1  0
 20 21  1  6
 21 15  1  0
 22 20  1  0
 23 22  2  0
 24 22  1  0
M  END
$$$$
