KTT.pdb
     RDKit          3D

 24 23  0  0  1  0  0  0  0  0999 V2000
    9.5835  -17.6405   16.0697 N   0  0  0  0  0  0  0  0  0  0  0  0
   10.4974  -17.6489   17.2290 C   0  0  1  0  0  0  0  0  0  0  0  0
   11.4198  -16.5000   17.1169 C   0  0  0  0  0  0  0  0  0  0  0  0
   12.7558  -16.7801   16.5676 C   0  0  0  0  0  0  0  0  0  0  0  0
   13.0315  -17.9211   15.6798 C   0  0  0  0  0  0  0  0  0  0  0  0
   14.3791  -18.1350   15.1116 C   0  0  0  0  0  0  0  0  0  0  0  0
   14.3733  -19.2915   14.1800 N   0  0  0  0  0  0  0  0  0  0  0  0
    9.5459  -17.4404   18.4110 C   0  0  0  0  0  0  0  0  0  0  0  0
    8.4076  -16.9929   18.1961 O   0  0  0  0  0  0  0  0  0  0  0  0
    8.5184  -20.1242   20.4017 C   0  0  0  0  0  0  0  0  0  0  0  0
    8.9909  -19.1159   21.3882 C   0  0  1  0  0  0  0  0  0  0  0  0
   10.3026  -19.4108   21.8372 O   0  0  0  0  0  0  0  0  0  0  0  0
    9.0469  -17.6902   20.8784 C   0  0  2  0  0  0  0  0  0  0  0  0
    9.9605  -17.7542   19.7300 N   0  0  0  0  0  0  0  0  0  0  0  0
    9.5128  -16.7073   21.8585 C   0  0  0  0  0  0  0  0  0  0  0  0
   10.7303  -16.2994   21.8399 O   0  0  0  0  0  0  0  0  0  0  0  0
    8.1360  -13.2390   23.0016 C   0  0  0  0  0  0  0  0  0  0  0  0
    8.2620  -14.1828   24.1754 C   0  0  1  0  0  0  0  0  0  0  0  0
    7.0437  -14.8130   24.3856 O   0  0  0  0  0  0  0  0  0  0  0  0
    9.3175  -15.2542   23.9036 C   0  0  2  0  0  0  0  0  0  0  0  0
    8.7178  -16.1297   22.8743 N   0  0  0  0  0  0  0  0  0  0  0  0
    9.4909  -16.0313   25.1322 C   0  0  0  0  0  0  0  0  0  0  0  0
    9.1684  -17.2479   25.1974 O   0  0  0  0  0  0  0  0  0  0  0  0
   10.0192  -15.4747   26.2931 O   0  0  0  0  0  0  0  0  0  0  0  0
  2  1  1  6
  2  8  1  0
  3  2  1  0
  4  3  1  0
  5  6  1  0
  5  4  1  0
  7  6  1  0
  8 14  1  0
  8  9  2  0
 11 12  1  0
 11 10  1  6
 13 11  1  0
 13 14  1  6
 15 13  1  0
 15 16  2  0
 18 17  1  6
 18 20  1  0
 18 19  1  0
 20 21  1  6
 21 15  1  0
 22 20  1  0
 23 22  2  0
 24 22  1  0
M  END
$$$$
