KTT.pdb
     RDKit          3D

 24 23  0  0  1  0  0  0  0  0999 V2000
    8.6009  -17.2368   19.9745 N   0  0  0  0  0  0  0  0  0  0  0  0
    8.9904  -16.1207   20.8587 C   0  0  1  0  0  0  0  0  0  0  0  0
    8.1309  -14.9559   20.5625 C   0  0  0  0  0  0  0  0  0  0  0  0
    8.3423  -14.2954   19.2647 C   0  0  0  0  0  0  0  0  0  0  0  0
    7.6212  -13.0775   18.8612 C   0  0  0  0  0  0  0  0  0  0  0  0
    7.8396  -12.4689   17.5321 C   0  0  0  0  0  0  0  0  0  0  0  0
    7.8135  -13.5094   16.4729 N   0  0  0  0  0  0  0  0  0  0  0  0
    8.6676  -16.6659   22.2532 C   0  0  0  0  0  0  0  0  0  0  0  0
    7.7415  -17.4832   22.3807 O   0  0  0  0  0  0  0  0  0  0  0  0
    8.6066  -18.9599   23.4944 C   0  0  0  0  0  0  0  0  0  0  0  0
    9.4733  -18.3065   24.5117 C   0  0  1  0  0  0  0  0  0  0  0  0
   10.8441  -18.4202   24.1694 O   0  0  0  0  0  0  0  0  0  0  0  0
    9.2270  -16.8254   24.7151 C   0  0  2  0  0  0  0  0  0  0  0  0
    9.4163  -16.2424   23.3802 N   0  0  0  0  0  0  0  0  0  0  0  0
   10.1114  -16.1860   25.6912 C   0  0  0  0  0  0  0  0  0  0  0  0
   11.2686  -15.7578   25.3355 O   0  0  0  0  0  0  0  0  0  0  0  0
   10.0378  -13.0087   27.3204 C   0  0  0  0  0  0  0  0  0  0  0  0
   10.0659  -14.0418   28.4233 C   0  0  1  0  0  0  0  0  0  0  0  0
    8.7637  -14.3653   28.7772 O   0  0  0  0  0  0  0  0  0  0  0  0
   10.7694  -15.3167   27.9592 C   0  0  2  0  0  0  0  0  0  0  0  0
    9.8048  -15.9787   27.0553 N   0  0  0  0  0  0  0  0  0  0  0  0
   10.9679  -16.1691   29.1329 C   0  0  0  0  0  0  0  0  0  0  0  0
   10.3184  -17.2371   29.2932 O   0  0  0  0  0  0  0  0  0  0  0  0
   11.8805  -15.8511   30.1342 O   0  0  0  0  0  0  0  0  0  0  0  0
  2  1  1  6
  2  8  1  0
  3  2  1  0
  4  3  1  0
  5  6  1  0
  5  4  1  0
  7  6  1  0
  8 14  1  0
  8  9  2  0
 11 12  1  0
 11 10  1  6
 13 11  1  0
 13 14  1  6
 15 13  1  0
 15 16  2  0
 18 17  1  6
 18 20  1  0
 18 19  1  0
 20 21  1  6
 21 15  1  0
 22 20  1  0
 23 22  2  0
 24 22  1  0
M  END
$$$$
