KTT.pdb
     RDKit          3D

 24 23  0  0  1  0  0  0  0  0999 V2000
   10.4988  -18.7872   19.1057 N   0  0  0  0  0  0  0  0  0  0  0  0
    9.9910  -19.4861   20.3028 C   0  0  1  0  0  0  0  0  0  0  0  0
   10.4561  -20.8881   20.2690 C   0  0  0  0  0  0  0  0  0  0  0  0
   11.2821  -21.2797   19.1159 C   0  0  0  0  0  0  0  0  0  0  0  0
   11.6769  -22.6727   18.8521 C   0  0  0  0  0  0  0  0  0  0  0  0
   12.6009  -23.0058   17.7477 C   0  0  0  0  0  0  0  0  0  0  0  0
   12.8433  -24.4700   17.6959 N   0  0  0  0  0  0  0  0  0  0  0  0
   10.6774  -18.7363   21.4485 C   0  0  0  0  0  0  0  0  0  0  0  0
   11.7986  -18.2385   21.2560 O   0  0  0  0  0  0  0  0  0  0  0  0
    9.9949  -15.7448   22.8696 C   0  0  0  0  0  0  0  0  0  0  0  0
    9.9379  -16.6696   24.0336 C   0  0  1  0  0  0  0  0  0  0  0  0
    8.6024  -17.0384   24.3329 O   0  0  0  0  0  0  0  0  0  0  0  0
   10.6902  -17.9733   23.8603 C   0  0  2  0  0  0  0  0  0  0  0  0
   10.0404  -18.6137   22.7091 N   0  0  0  0  0  0  0  0  0  0  0  0
   10.6638  -18.8554   25.0286 C   0  0  0  0  0  0  0  0  0  0  0  0
    9.5935  -19.4961   25.3337 O   0  0  0  0  0  0  0  0  0  0  0  0
   12.7159  -21.9012   25.5869 C   0  0  0  0  0  0  0  0  0  0  0  0
   12.8924  -20.9899   26.7797 C   0  0  1  0  0  0  0  0  0  0  0  0
   13.9951  -20.1740   26.5698 O   0  0  0  0  0  0  0  0  0  0  0  0
   11.6651  -20.0998   26.9730 C   0  0  2  0  0  0  0  0  0  0  0  0
   11.7529  -19.0881   25.8987 N   0  0  0  0  0  0  0  0  0  0  0  0
   11.8045  -19.4221   28.2633 C   0  0  0  0  0  0  0  0  0  0  0  0
   11.9577  -18.1737   28.3424 O   0  0  0  0  0  0  0  0  0  0  0  0
   11.7761  -20.1134   29.4707 O   0  0  0  0  0  0  0  0  0  0  0  0
  2  1  1  6
  2  8  1  0
  3  2  1  0
  4  3  1  0
  5  6  1  0
  5  4  1  0
  7  6  1  0
  8 14  1  0
  8  9  2  0
 11 12  1  0
 11 10  1  6
 13 11  1  0
 13 14  1  6
 15 13  1  0
 15 16  2  0
 18 17  1  6
 18 20  1  0
 18 19  1  0
 20 21  1  6
 21 15  1  0
 22 20  1  0
 23 22  2  0
 24 22  1  0
M  END
$$$$
