KTT.pdb
     RDKit          3D

 24 23  0  0  1  0  0  0  0  0999 V2000
    6.5514  -15.8941   19.8355 N   0  0  0  0  0  0  0  0  0  0  0  0
    7.5443  -15.1693   20.6528 C   0  0  1  0  0  0  0  0  0  0  0  0
    7.2304  -13.7260   20.6148 C   0  0  0  0  0  0  0  0  0  0  0  0
    8.1174  -12.8810   19.7997 C   0  0  0  0  0  0  0  0  0  0  0  0
    9.5574  -13.1457   19.6500 C   0  0  0  0  0  0  0  0  0  0  0  0
   10.4123  -12.2622   18.8296 C   0  0  0  0  0  0  0  0  0  0  0  0
   11.8395  -12.6510   18.9611 N   0  0  0  0  0  0  0  0  0  0  0  0
    7.2919  -15.7212   22.0592 C   0  0  0  0  0  0  0  0  0  0  0  0
    6.2375  -16.3374   22.2840 O   0  0  0  0  0  0  0  0  0  0  0  0
    7.1953  -18.1558   23.0325 C   0  0  0  0  0  0  0  0  0  0  0  0
    8.2392  -17.7042   23.9915 C   0  0  1  0  0  0  0  0  0  0  0  0
    9.5408  -17.9055   23.4676 O   0  0  0  0  0  0  0  0  0  0  0  0
    8.1765  -16.2390   24.3719 C   0  0  2  0  0  0  0  0  0  0  0  0
    8.2491  -15.5301   23.0874 N   0  0  0  0  0  0  0  0  0  0  0  0
    9.2423  -15.7938   25.2717 C   0  0  0  0  0  0  0  0  0  0  0  0
   10.4249  -15.5783   24.8201 O   0  0  0  0  0  0  0  0  0  0  0  0
    9.3590  -12.6706   27.3389 C   0  0  0  0  0  0  0  0  0  0  0  0
    9.6076  -13.8556   28.2437 C   0  0  1  0  0  0  0  0  0  0  0  0
    8.4018  -14.2725   28.7892 O   0  0  0  0  0  0  0  0  0  0  0  0
   10.2112  -15.0220   27.4621 C   0  0  2  0  0  0  0  0  0  0  0  0
    9.0945  -15.5626   26.6582 N   0  0  0  0  0  0  0  0  0  0  0  0
   10.6244  -16.0406   28.4291 C   0  0  0  0  0  0  0  0  0  0  0  0
   11.5524  -15.8313   29.2557 O   0  0  0  0  0  0  0  0  0  0  0  0
   10.0195  -17.2924   28.4913 O   0  0  0  0  0  0  0  0  0  0  0  0
  2  1  1  6
  2  8  1  0
  3  2  1  0
  4  3  1  0
  5  6  1  0
  5  4  1  0
  7  6  1  0
  8 14  1  0
  8  9  2  0
 11 12  1  0
 11 10  1  6
 13 11  1  0
 13 14  1  6
 15 13  1  0
 15 16  2  0
 18 17  1  6
 18 20  1  0
 18 19  1  0
 20 21  1  6
 21 15  1  0
 22 20  1  0
 23 22  2  0
 24 22  1  0
M  END
$$$$
