KTT.pdb
     RDKit          3D

 24 23  0  0  1  0  0  0  0  0999 V2000
   11.6479  -25.3496   24.8968 N   0  0  0  0  0  0  0  0  0  0  0  0
   12.9011  -25.7366   25.5743 C   0  0  1  0  0  0  0  0  0  0  0  0
   13.9185  -26.0520   24.5503 C   0  0  0  0  0  0  0  0  0  0  0  0
   13.4463  -26.1417   23.1595 C   0  0  0  0  0  0  0  0  0  0  0  0
   14.3335  -26.4790   22.0347 C   0  0  0  0  0  0  0  0  0  0  0  0
   14.0877  -27.6766   21.2042 C   0  0  0  0  0  0  0  0  0  0  0  0
   15.1105  -27.7857   20.1330 N   0  0  0  0  0  0  0  0  0  0  0  0
   13.2911  -24.4569   26.3203 C   0  0  0  0  0  0  0  0  0  0  0  0
   14.4943  -24.1784   26.4498 O   0  0  0  0  0  0  0  0  0  0  0  0
   12.2128  -21.0770   25.3870 C   0  0  0  0  0  0  0  0  0  0  0  0
   11.8110  -21.3003   26.8018 C   0  0  1  0  0  0  0  0  0  0  0  0
   10.4607  -21.7218   26.8929 O   0  0  0  0  0  0  0  0  0  0  0  0
   12.6147  -22.3487   27.5438 C   0  0  2  0  0  0  0  0  0  0  0  0
   12.2917  -23.6047   26.8541 N   0  0  0  0  0  0  0  0  0  0  0  0
   12.3167  -22.4500   28.9737 C   0  0  0  0  0  0  0  0  0  0  0  0
   11.1169  -22.6748   29.3721 O   0  0  0  0  0  0  0  0  0  0  0  0
   13.8096  -24.7148   31.6699 C   0  0  0  0  0  0  0  0  0  0  0  0
   13.9273  -23.2708   32.1003 C   0  0  1  0  0  0  0  0  0  0  0  0
   15.1716  -22.7842   31.7257 O   0  0  0  0  0  0  0  0  0  0  0  0
   12.8537  -22.4126   31.4319 C   0  0  2  0  0  0  0  0  0  0  0  0
   13.2642  -22.3215   30.0146 N   0  0  0  0  0  0  0  0  0  0  0  0
   12.9204  -21.0747   32.0227 C   0  0  0  0  0  0  0  0  0  0  0  0
   13.2420  -20.0649   31.3408 O   0  0  0  0  0  0  0  0  0  0  0  0
   12.6338  -20.8417   33.3644 O   0  0  0  0  0  0  0  0  0  0  0  0
  2  1  1  6
  2  8  1  0
  3  2  1  0
  4  3  1  0
  5  6  1  0
  5  4  1  0
  7  6  1  0
  8 14  1  0
  8  9  2  0
 11 12  1  0
 11 10  1  6
 13 11  1  0
 13 14  1  6
 15 13  1  0
 15 16  2  0
 18 17  1  6
 18 20  1  0
 18 19  1  0
 20 21  1  6
 21 15  1  0
 22 20  1  0
 23 22  2  0
 24 22  1  0
M  END
$$$$
