VRP.pdb
     RDKit          3D

 26 26  0  0  1  0  0  0  0  0999 V2000
    8.8676  -13.1800   18.7312 C   0  0  0  0  0  0  0  0  0  0  0  0
    8.4450  -13.4464   20.1481 C   0  0  1  0  0  0  0  0  0  0  0  0
    7.1561  -12.6955   20.3981 C   0  0  0  0  0  0  0  0  0  0  0  0
    8.1587  -14.9360   20.3805 C   0  0  2  0  0  0  0  0  0  0  0  0
    7.3613  -15.4889   19.3371 N   0  0  0  0  0  0  0  0  0  0  0  0
    7.6451  -15.1887   21.7313 C   0  0  0  0  0  0  0  0  0  0  0  0
    6.3956  -15.1116   21.9029 O   0  0  0  0  0  0  0  0  0  0  0  0
    7.3300  -21.3870   23.4349 N   0  0  0  0  0  0  0  0  0  0  0  0
    6.1095  -20.9156   22.8281 C   0  0  0  0  0  0  0  0  0  0  0  0
    5.5387  -21.5679   21.8768 N   0  0  0  0  0  0  0  0  0  0  0  0
    5.5067  -19.7089   23.2689 N   0  0  0  0  0  0  0  0  0  0  0  0
    6.1147  -18.8408   24.2834 C   0  0  0  0  0  0  0  0  0  0  0  0
    7.2522  -18.0691   23.6878 C   0  0  0  0  0  0  0  0  0  0  0  0
    7.9607  -17.1494   24.6016 C   0  0  0  0  0  0  0  0  0  0  0  0
    7.8734  -15.7115   24.1904 C   0  0  2  0  0  0  0  0  0  0  0  0
    8.4203  -15.5117   22.8625 N   0  0  0  0  0  0  0  0  0  0  0  0
    8.4385  -14.8310   25.2174 C   0  0  0  0  0  0  0  0  0  0  0  0
    9.6906  -14.8840   25.4932 O   0  0  0  0  0  0  0  0  0  0  0  0
    4.6304  -21.2443   21.4533 N   0  0  0  0  0  0  0  0  0  0  0  0
    7.7162  -13.8550   26.0016 C   0  0  0  0  0  0  0  0  0  0  0  0
    6.3401  -13.4799   25.8846 C   0  0  0  0  0  0  0  0  0  0  0  0
    6.0459  -12.6950   27.1785 C   0  0  0  0  0  0  0  0  0  0  0  0
    7.3993  -12.0121   27.4257 C   0  0  1  0  0  0  0  0  0  0  0  0
    8.3450  -13.1031   27.0650 C   0  0  0  0  0  0  0  0  0  0  0  0
    8.7044  -13.9587   28.2134 O   0  0  0  0  0  0  0  0  0  0  0  0
    8.2932  -15.1315   28.2788 O   0  0  0  0  0  0  0  0  0  0  0  0
  2  3  1  6
  2  1  1  0
  4  2  1  0
  4  5  1  6
  6  7  2  0
  6  4  1  0
  9 10  2  0
  9  8  1  0
 11  9  1  0
 12 11  1  0
 13 12  1  0
 13 14  1  0
 15 14  1  1
 15 16  1  0
 16  6  1  0
 17 15  1  0
 18 17  2  0
 19 20  1  0
 19 17  1  0
 21 20  1  0
 22 23  1  0
 22 21  1  0
 23 19  1  0
 23 24  1  1
 25 24  2  0
 26 24  1  0
M  END
$$$$
