VRP.pdb
     RDKit          3D

 26 26  0  0  1  0  0  0  0  0999 V2000
   12.9028  -17.4414   20.1296 C   0  0  0  0  0  0  0  0  0  0  0  0
   12.2293  -16.9394   21.3752 C   0  0  1  0  0  0  0  0  0  0  0  0
   13.0705  -15.8156   21.9383 C   0  0  0  0  0  0  0  0  0  0  0  0
   10.8400  -16.3627   21.0716 C   0  0  2  0  0  0  0  0  0  0  0  0
   10.9107  -15.2673   20.1630 N   0  0  0  0  0  0  0  0  0  0  0  0
   10.0857  -16.0818   22.2983 C   0  0  0  0  0  0  0  0  0  0  0  0
   10.1617  -14.9135   22.7737 O   0  0  0  0  0  0  0  0  0  0  0  0
    6.7614  -21.4421   26.9079 N   0  0  0  0  0  0  0  0  0  0  0  0
    6.7006  -20.4706   27.9721 C   0  0  0  0  0  0  0  0  0  0  0  0
    6.9221  -20.8023   29.1956 N   0  0  0  0  0  0  0  0  0  0  0  0
    6.3893  -19.1148   27.6912 N   0  0  0  0  0  0  0  0  0  0  0  0
    6.0195  -18.6451   26.3515 C   0  0  0  0  0  0  0  0  0  0  0  0
    6.9584  -17.5664   25.9052 C   0  0  0  0  0  0  0  0  0  0  0  0
    7.6717  -17.8122   24.6349 C   0  0  0  0  0  0  0  0  0  0  0  0
    8.5632  -16.6819   24.2202 C   0  0  2  0  0  0  0  0  0  0  0  0
    9.2791  -16.9992   23.0000 N   0  0  0  0  0  0  0  0  0  0  0  0
    9.4180  -16.2465   25.3289 C   0  0  0  0  0  0  0  0  0  0  0  0
   10.5033  -16.8788   25.5919 O   0  0  0  0  0  0  0  0  0  0  0  0
    6.7981  -20.1159   29.9847 N   0  0  0  0  0  0  0  0  0  0  0  0
    9.1736  -15.1285   26.2118 C   0  0  0  0  0  0  0  0  0  0  0  0
    8.0427  -14.2516   26.2247 C   0  0  0  0  0  0  0  0  0  0  0  0
    8.1496  -13.5090   27.5716 C   0  0  0  0  0  0  0  0  0  0  0  0
    9.6735  -13.4110   27.7364 C   0  0  2  0  0  0  0  0  0  0  0  0
   10.1047  -14.7503   27.2518 C   0  0  0  0  0  0  0  0  0  0  0  0
   10.1751  -15.7586   28.3282 O   0  0  0  0  0  0  0  0  0  0  0  0
    9.3870  -16.7216   28.3424 O   0  0  0  0  0  0  0  0  0  0  0  0
  2  3  1  6
  2  1  1  0
  4  2  1  0
  4  5  1  1
  6  7  2  0
  6  4  1  0
  9 10  2  0
  9  8  1  0
 11  9  1  0
 12 11  1  0
 13 12  1  0
 13 14  1  0
 15 14  1  1
 15 16  1  0
 16  6  1  0
 17 15  1  0
 18 17  2  0
 19 20  1  0
 19 17  1  0
 21 20  1  0
 22 23  1  0
 22 21  1  0
 23 19  1  0
 23 24  1  1
 25 24  2  0
 26 24  1  0
M  END
$$$$
