VRP.pdb
     RDKit          3D

 26 26  0  0  1  0  0  0  0  0999 V2000
    8.2462  -11.8864   26.1189 C   0  0  0  0  0  0  0  0  0  0  0  0
    6.9174  -12.3041   26.6818 C   0  0  1  0  0  0  0  0  0  0  0  0
    6.2196  -11.0646   27.1960 C   0  0  0  0  0  0  0  0  0  0  0  0
    6.0171  -12.9214   25.6033 C   0  0  2  0  0  0  0  0  0  0  0  0
    4.7118  -13.2002   26.1021 N   0  0  0  0  0  0  0  0  0  0  0  0
    6.6640  -14.0571   24.9368 C   0  0  0  0  0  0  0  0  0  0  0  0
    6.7446  -15.1412   25.5810 O   0  0  0  0  0  0  0  0  0  0  0  0
   10.0001  -13.4189   18.6333 N   0  0  0  0  0  0  0  0  0  0  0  0
    8.8814  -13.9987   17.9316 C   0  0  0  0  0  0  0  0  0  0  0  0
    9.0317  -14.5750   16.7908 N   0  0  0  0  0  0  0  0  0  0  0  0
    7.5769  -13.9433   18.4876 N   0  0  0  0  0  0  0  0  0  0  0  0
    7.3061  -13.4139   19.8287 C   0  0  0  0  0  0  0  0  0  0  0  0
    7.1063  -14.5392   20.7973 C   0  0  0  0  0  0  0  0  0  0  0  0
    8.2771  -14.8994   21.6234 C   0  0  0  0  0  0  0  0  0  0  0  0
    7.9391  -15.1619   23.0591 C   0  0  2  0  0  0  0  0  0  0  0  0
    7.2071  -14.0517   23.6369 N   0  0  0  0  0  0  0  0  0  0  0  0
    9.1266  -15.5656   23.8182 C   0  0  0  0  0  0  0  0  0  0  0  0
   10.0255  -14.6997   24.1164 O   0  0  0  0  0  0  0  0  0  0  0  0
    8.2196  -15.0109   16.2813 N   0  0  0  0  0  0  0  0  0  0  0  0
    9.4253  -16.8956   24.2990 C   0  0  0  0  0  0  0  0  0  0  0  0
    8.6048  -18.0650   24.2118 C   0  0  0  0  0  0  0  0  0  0  0  0
    9.5597  -19.2283   24.5465 C   0  0  0  0  0  0  0  0  0  0  0  0
   10.4937  -18.5613   25.5671 C   0  0  2  0  0  0  0  0  0  0  0  0
   10.6710  -17.2137   24.9612 C   0  0  0  0  0  0  0  0  0  0  0  0
   11.8237  -17.1415   24.0412 O   0  0  0  0  0  0  0  0  0  0  0  0
   11.6458  -16.9998   22.8177 O   0  0  0  0  0  0  0  0  0  0  0  0
  2  3  1  6
  2  1  1  0
  4  2  1  0
  4  5  1  1
  6  7  2  0
  6  4  1  0
  9 10  2  0
  9  8  1  0
 11  9  1  0
 12 11  1  0
 13 12  1  0
 13 14  1  0
 15 14  1  6
 15 16  1  0
 16  6  1  0
 17 15  1  0
 18 17  2  0
 19 20  1  0
 19 17  1  0
 21 20  1  0
 22 23  1  0
 22 21  1  0
 23 19  1  0
 23 24  1  6
 25 24  2  0
 26 24  1  0
M  END
$$$$
