VRP.pdb
     RDKit          3D

 26 26  0  0  1  0  0  0  0  0999 V2000
    9.1443  -13.1371   18.4402 C   0  0  0  0  0  0  0  0  0  0  0  0
    8.6235  -13.3408   19.8346 C   0  0  1  0  0  0  0  0  0  0  0  0
    7.4936  -12.3603   20.0572 C   0  0  0  0  0  0  0  0  0  0  0  0
    8.0482  -14.7512   20.0212 C   0  0  2  0  0  0  0  0  0  0  0  0
    7.1511  -15.0982   18.9700 N   0  0  0  0  0  0  0  0  0  0  0  0
    7.5022  -14.9440   21.3692 C   0  0  0  0  0  0  0  0  0  0  0  0
    6.2776  -14.6858   21.5436 O   0  0  0  0  0  0  0  0  0  0  0  0
    9.5028  -19.8734   28.2761 N   0  0  0  0  0  0  0  0  0  0  0  0
    8.1955  -19.7084   27.6896 C   0  0  0  0  0  0  0  0  0  0  0  0
    7.1247  -19.9582   28.3583 N   0  0  0  0  0  0  0  0  0  0  0  0
    8.0599  -19.2654   26.3482 N   0  0  0  0  0  0  0  0  0  0  0  0
    6.7839  -18.8077   25.7873 C   0  0  0  0  0  0  0  0  0  0  0  0
    6.8775  -17.3625   25.4037 C   0  0  0  0  0  0  0  0  0  0  0  0
    7.5466  -17.0748   24.1183 C   0  0  0  0  0  0  0  0  0  0  0  0
    7.6288  -15.6131   23.8000 C   0  0  2  0  0  0  0  0  0  0  0  0
    8.2206  -15.3932   22.4947 N   0  0  0  0  0  0  0  0  0  0  0  0
    8.2684  -14.8684   24.8889 C   0  0  0  0  0  0  0  0  0  0  0  0
    9.5042  -15.0714   25.1688 O   0  0  0  0  0  0  0  0  0  0  0  0
    6.1683  -19.7749   27.9574 N   0  0  0  0  0  0  0  0  0  0  0  0
    7.6413  -13.8771   25.7333 C   0  0  0  0  0  0  0  0  0  0  0  0
    6.2907  -13.4067   25.6799 C   0  0  0  0  0  0  0  0  0  0  0  0
    6.0947  -12.6540   27.0111 C   0  0  0  0  0  0  0  0  0  0  0  0
    7.4991  -12.0731   27.2333 C   0  0  2  0  0  0  0  0  0  0  0  0
    8.3555  -13.2102   26.7995 C   0  0  0  0  0  0  0  0  0  0  0  0
    8.6944  -14.1313   27.9026 O   0  0  0  0  0  0  0  0  0  0  0  0
    8.2344  -15.2875   27.9222 O   0  0  0  0  0  0  0  0  0  0  0  0
  2  3  1  6
  2  1  1  0
  4  2  1  0
  4  5  1  6
  6  7  2  0
  6  4  1  0
  9 10  2  0
  9  8  1  0
 11  9  1  0
 12 11  1  0
 13 12  1  0
 13 14  1  0
 15 14  1  1
 15 16  1  0
 16  6  1  0
 17 15  1  0
 18 17  2  0
 19 20  1  0
 19 17  1  0
 21 20  1  0
 22 23  1  0
 22 21  1  0
 23 19  1  0
 23 24  1  1
 25 24  2  0
 26 24  1  0
M  END
$$$$
