VRP.pdb
     RDKit          3D

 26 26  0  0  1  0  0  0  0  0999 V2000
    9.2974  -12.9143   18.6621 C   0  0  0  0  0  0  0  0  0  0  0  0
    8.8143  -13.1723   20.0611 C   0  0  1  0  0  0  0  0  0  0  0  0
    7.5370  -12.3882   20.2644 C   0  0  0  0  0  0  0  0  0  0  0  0
    8.4804  -14.6544   20.2780 C   0  0  2  0  0  0  0  0  0  0  0  0
    7.6880  -15.1774   19.2155 N   0  0  0  0  0  0  0  0  0  0  0  0
    7.9331  -14.9002   21.6168 C   0  0  0  0  0  0  0  0  0  0  0  0
    6.7875  -14.4322   21.8724 O   0  0  0  0  0  0  0  0  0  0  0  0
    4.0095  -21.1245   23.0187 N   0  0  0  0  0  0  0  0  0  0  0  0
    3.4805  -19.8363   22.6433 C   0  0  0  0  0  0  0  0  0  0  0  0
    2.2619  -19.7003   22.2529 N   0  0  0  0  0  0  0  0  0  0  0  0
    4.3011  -18.6796   22.6940 N   0  0  0  0  0  0  0  0  0  0  0  0
    5.7543  -18.7434   22.8847 C   0  0  0  0  0  0  0  0  0  0  0  0
    6.3241  -17.3609   22.9764 C   0  0  0  0  0  0  0  0  0  0  0  0
    7.2973  -17.1315   24.0640 C   0  0  0  0  0  0  0  0  0  0  0  0
    8.0008  -15.8122   23.9697 C   0  0  2  0  0  0  0  0  0  0  0  0
    8.5699  -15.6144   22.6508 N   0  0  0  0  0  0  0  0  0  0  0  0
    8.9513  -15.6380   25.0723 C   0  0  0  0  0  0  0  0  0  0  0  0
   10.0898  -16.2293   25.0405 O   0  0  0  0  0  0  0  0  0  0  0  0
    1.9055  -18.7890   21.8636 N   0  0  0  0  0  0  0  0  0  0  0  0
    8.7511  -14.8360   26.2579 C   0  0  0  0  0  0  0  0  0  0  0  0
    7.5757  -14.1154   26.6417 C   0  0  0  0  0  0  0  0  0  0  0  0
    7.8091  -13.7642   28.1246 C   0  0  0  0  0  0  0  0  0  0  0  0
    9.3314  -13.5614   28.1456 C   0  0  1  0  0  0  0  0  0  0  0  0
    9.7836  -14.6655   27.2562 C   0  0  0  0  0  0  0  0  0  0  0  0
   10.0625  -15.9179   27.9868 O   0  0  0  0  0  0  0  0  0  0  0  0
    9.3193  -16.9067   27.8496 O   0  0  0  0  0  0  0  0  0  0  0  0
  2  3  1  6
  2  1  1  0
  4  2  1  0
  4  5  1  6
  6  7  2  0
  6  4  1  0
  9 10  2  0
  9  8  1  0
 11  9  1  0
 12 11  1  0
 13 12  1  0
 13 14  1  0
 15 14  1  6
 15 16  1  0
 16  6  1  0
 17 15  1  0
 18 17  2  0
 19 20  1  0
 19 17  1  0
 21 20  1  0
 22 23  1  0
 22 21  1  0
 23 19  1  0
 23 24  1  1
 25 24  2  0
 26 24  1  0
M  END
$$$$
