VRP.pdb
     RDKit          3D

 26 26  0  0  1  0  0  0  0  0999 V2000
    8.0078  -12.2011   20.3440 C   0  0  0  0  0  0  0  0  0  0  0  0
    7.7512  -13.2415   19.2910 C   0  0  1  0  0  0  0  0  0  0  0  0
    8.5616  -12.8750   18.0676 C   0  0  0  0  0  0  0  0  0  0  0  0
    8.2147  -14.6316   19.7469 C   0  0  2  0  0  0  0  0  0  0  0  0
    8.0284  -15.6101   18.7280 N   0  0  0  0  0  0  0  0  0  0  0  0
    7.6435  -14.9980   21.0476 C   0  0  0  0  0  0  0  0  0  0  0  0
    6.4184  -15.3060   21.0794 O   0  0  0  0  0  0  0  0  0  0  0  0
    8.7587  -19.4807   27.4403 N   0  0  0  0  0  0  0  0  0  0  0  0
    7.3216  -19.5627   27.5310 C   0  0  0  0  0  0  0  0  0  0  0  0
    6.7387  -19.9293   28.6182 N   0  0  0  0  0  0  0  0  0  0  0  0
    6.5109  -19.2406   26.4117 N   0  0  0  0  0  0  0  0  0  0  0  0
    7.0680  -18.9095   25.0955 C   0  0  0  0  0  0  0  0  0  0  0  0
    7.1655  -17.4231   24.9353 C   0  0  0  0  0  0  0  0  0  0  0  0
    7.7406  -16.9446   23.6613 C   0  0  0  0  0  0  0  0  0  0  0  0
    7.7437  -15.4523   23.5287 C   0  0  2  0  0  0  0  0  0  0  0  0
    8.3382  -15.0388   22.2726 N   0  0  0  0  0  0  0  0  0  0  0  0
    8.3267  -14.8159   24.7138 C   0  0  0  0  0  0  0  0  0  0  0  0
    9.5495  -15.0423   25.0305 O   0  0  0  0  0  0  0  0  0  0  0  0
    5.6891  -19.9689   28.6954 N   0  0  0  0  0  0  0  0  0  0  0  0
    7.6539  -13.9133   25.6203 C   0  0  0  0  0  0  0  0  0  0  0  0
    6.2786  -13.5177   25.6048 C   0  0  0  0  0  0  0  0  0  0  0  0
    6.0548  -12.8572   26.9798 C   0  0  0  0  0  0  0  0  0  0  0  0
    7.4267  -12.2120   27.2261 C   0  0  2  0  0  0  0  0  0  0  0  0
    8.3409  -13.2712   26.7191 C   0  0  0  0  0  0  0  0  0  0  0  0
    8.7425  -14.2352   27.7629 O   0  0  0  0  0  0  0  0  0  0  0  0
    8.3492  -15.4150   27.7164 O   0  0  0  0  0  0  0  0  0  0  0  0
  2  3  1  6
  2  1  1  0
  4  2  1  0
  4  5  1  6
  6  7  2  0
  6  4  1  0
  9 10  2  0
  9  8  1  0
 11  9  1  0
 12 11  1  0
 13 12  1  0
 13 14  1  0
 15 14  1  1
 15 16  1  0
 16  6  1  0
 17 15  1  0
 18 17  2  0
 19 20  1  0
 19 17  1  0
 21 20  1  0
 22 23  1  0
 22 21  1  0
 23 19  1  0
 23 24  1  1
 25 24  2  0
 26 24  1  0
M  END
$$$$
