VRP.pdb
     RDKit          3D

 26 26  0  0  1  0  0  0  0  0999 V2000
    9.2494  -13.6316   18.4875 C   0  0  0  0  0  0  0  0  0  0  0  0
    8.6837  -13.7206   19.8765 C   0  0  1  0  0  0  0  0  0  0  0  0
    7.5290  -12.7483   19.9717 C   0  0  0  0  0  0  0  0  0  0  0  0
    8.1281  -15.1205   20.1705 C   0  0  2  0  0  0  0  0  0  0  0  0
    7.2834  -15.5839   19.1206 N   0  0  0  0  0  0  0  0  0  0  0  0
    7.5287  -15.2002   21.5072 C   0  0  0  0  0  0  0  0  0  0  0  0
    6.3324  -14.8131   21.6327 O   0  0  0  0  0  0  0  0  0  0  0  0
    8.6640  -20.3072   24.7010 N   0  0  0  0  0  0  0  0  0  0  0  0
    7.7782  -20.7163   23.6390 C   0  0  0  0  0  0  0  0  0  0  0  0
    8.1850  -21.4739   22.6816 N   0  0  0  0  0  0  0  0  0  0  0  0
    6.4260  -20.2858   23.6245 N   0  0  0  0  0  0  0  0  0  0  0  0
    5.9625  -19.0964   24.3474 C   0  0  0  0  0  0  0  0  0  0  0  0
    6.4988  -17.8567   23.6993 C   0  0  0  0  0  0  0  0  0  0  0  0
    7.3720  -17.0116   24.5396 C   0  0  0  0  0  0  0  0  0  0  0  0
    7.5738  -15.6309   23.9941 C   0  0  2  0  0  0  0  0  0  0  0  0
    8.1668  -15.6712   22.6715 N   0  0  0  0  0  0  0  0  0  0  0  0
    8.2871  -14.7811   24.9525 C   0  0  0  0  0  0  0  0  0  0  0  0
    9.5436  -14.9492   25.1515 O   0  0  0  0  0  0  0  0  0  0  0  0
    7.5410  -21.7757   21.9048 N   0  0  0  0  0  0  0  0  0  0  0  0
    7.7150  -13.7166   25.7454 C   0  0  0  0  0  0  0  0  0  0  0  0
    6.3790  -13.2060   25.6955 C   0  0  0  0  0  0  0  0  0  0  0  0
    6.2436  -12.3621   26.9787 C   0  0  0  0  0  0  0  0  0  0  0  0
    7.6712  -11.8151   27.1263 C   0  0  1  0  0  0  0  0  0  0  0  0
    8.4791  -13.0059   26.7468 C   0  0  0  0  0  0  0  0  0  0  0  0
    8.8191  -13.8640   27.8992 O   0  0  0  0  0  0  0  0  0  0  0  0
    9.6120  -13.4638   28.7709 O   0  0  0  0  0  0  0  0  0  0  0  0
  2  3  1  6
  2  1  1  0
  4  2  1  0
  4  5  1  6
  6  7  2  0
  6  4  1  0
  9 10  2  0
  9  8  1  0
 11  9  1  0
 12 11  1  0
 13 12  1  0
 13 14  1  0
 15 14  1  1
 15 16  1  0
 16  6  1  0
 17 15  1  0
 18 17  2  0
 19 20  1  0
 19 17  1  0
 21 20  1  0
 22 23  1  0
 22 21  1  0
 23 19  1  0
 23 24  1  1
 25 24  2  0
 26 24  1  0
M  END
$$$$
