VRP.pdb
     RDKit          3D

 26 26  0  0  1  0  0  0  0  0999 V2000
    9.3496  -13.2100   18.4721 C   0  0  0  0  0  0  0  0  0  0  0  0
    8.7310  -13.4289   19.8237 C   0  0  1  0  0  0  0  0  0  0  0  0
    7.5306  -12.5161   19.9393 C   0  0  0  0  0  0  0  0  0  0  0  0
    8.2275  -14.8693   19.9867 C   0  0  2  0  0  0  0  0  0  0  0  0
    7.4466  -15.2847   18.8695 N   0  0  0  0  0  0  0  0  0  0  0  0
    7.5799  -15.0772   21.2866 C   0  0  0  0  0  0  0  0  0  0  0  0
    6.3597  -14.7640   21.3858 O   0  0  0  0  0  0  0  0  0  0  0  0
    8.3134  -20.9969   26.2986 N   0  0  0  0  0  0  0  0  0  0  0  0
    7.9544  -20.0321   27.3087 C   0  0  0  0  0  0  0  0  0  0  0  0
    8.5448  -20.0077   28.4520 N   0  0  0  0  0  0  0  0  0  0  0  0
    6.9302  -19.0810   27.0630 N   0  0  0  0  0  0  0  0  0  0  0  0
    6.3785  -18.8342   25.7263 C   0  0  0  0  0  0  0  0  0  0  0  0
    6.6040  -17.4072   25.3300 C   0  0  0  0  0  0  0  0  0  0  0  0
    7.3225  -17.1936   24.0568 C   0  0  0  0  0  0  0  0  0  0  0  0
    7.5265  -15.7482   23.7196 C   0  0  2  0  0  0  0  0  0  0  0  0
    8.1956  -15.5972   22.4422 N   0  0  0  0  0  0  0  0  0  0  0  0
    8.1650  -15.0303   24.8269 C   0  0  0  0  0  0  0  0  0  0  0  0
    9.3797  -15.2914   25.1484 O   0  0  0  0  0  0  0  0  0  0  0  0
    8.2480  -19.3422   29.2123 N   0  0  0  0  0  0  0  0  0  0  0  0
    7.5590  -14.0060   25.6472 C   0  0  0  0  0  0  0  0  0  0  0  0
    6.1995  -13.5593   25.6310 C   0  0  0  0  0  0  0  0  0  0  0  0
    6.0498  -12.7416   26.9295 C   0  0  0  0  0  0  0  0  0  0  0  0
    7.4524  -12.1290   27.0578 C   0  0  2  0  0  0  0  0  0  0  0  0
    8.3083  -13.2741   26.6444 C   0  0  0  0  0  0  0  0  0  0  0  0
    8.7118  -14.1316   27.7766 O   0  0  0  0  0  0  0  0  0  0  0  0
    9.4811  -13.6974   28.6533 O   0  0  0  0  0  0  0  0  0  0  0  0
  2  3  1  6
  2  1  1  0
  4  2  1  0
  4  5  1  6
  6  7  2  0
  6  4  1  0
  9 10  2  0
  9  8  1  0
 11  9  1  0
 12 11  1  0
 13 12  1  0
 13 14  1  0
 15 14  1  1
 15 16  1  0
 16  6  1  0
 17 15  1  0
 18 17  2  0
 19 20  1  0
 19 17  1  0
 21 20  1  0
 22 23  1  0
 22 21  1  0
 23 19  1  0
 23 24  1  1
 25 24  2  0
 26 24  1  0
M  END
$$$$
