VRP.pdb
     RDKit          3D

 26 26  0  0  1  0  0  0  0  0999 V2000
    8.9768  -11.3216   19.3236 C   0  0  0  0  0  0  0  0  0  0  0  0
    8.8517  -12.5852   20.1267 C   0  0  1  0  0  0  0  0  0  0  0  0
    7.5131  -12.5587   20.8303 C   0  0  0  0  0  0  0  0  0  0  0  0
    8.8712  -13.8288   19.2278 C   0  0  2  0  0  0  0  0  0  0  0  0
    7.8818  -13.7558   18.2050 N   0  0  0  0  0  0  0  0  0  0  0  0
    8.8395  -15.0689   20.0111 C   0  0  0  0  0  0  0  0  0  0  0  0
    7.7660  -15.7355   20.0026 O   0  0  0  0  0  0  0  0  0  0  0  0
   12.3029  -17.5022   16.0323 N   0  0  0  0  0  0  0  0  0  0  0  0
   11.0281  -18.1520   16.2139 C   0  0  0  0  0  0  0  0  0  0  0  0
   10.2602  -18.4119   15.2145 N   0  0  0  0  0  0  0  0  0  0  0  0
   10.5870  -18.5201   17.5114 N   0  0  0  0  0  0  0  0  0  0  0  0
   10.9155  -17.7445   18.7126 C   0  0  0  0  0  0  0  0  0  0  0  0
   10.4234  -18.4549   19.9364 C   0  0  0  0  0  0  0  0  0  0  0  0
   10.7534  -17.8224   21.2301 C   0  0  0  0  0  0  0  0  0  0  0  0
    9.7880  -16.7513   21.6366 C   0  0  2  0  0  0  0  0  0  0  0  0
    9.9014  -15.5893   20.7768 N   0  0  0  0  0  0  0  0  0  0  0  0
    9.8936  -16.4580   23.0692 C   0  0  0  0  0  0  0  0  0  0  0  0
   10.9748  -15.9577   23.5460 O   0  0  0  0  0  0  0  0  0  0  0  0
    9.3068  -18.8391   15.3474 N   0  0  0  0  0  0  0  0  0  0  0  0
    8.8703  -16.6759   24.0664 C   0  0  0  0  0  0  0  0  0  0  0  0
    7.5717  -17.2481   23.8806 C   0  0  0  0  0  0  0  0  0  0  0  0
    7.0823  -17.5584   25.3093 C   0  0  0  0  0  0  0  0  0  0  0  0
    7.7208  -16.4060   26.0987 C   0  0  1  0  0  0  0  0  0  0  0  0
    9.0600  -16.3204   25.4553 C   0  0  0  0  0  0  0  0  0  0  0  0
   10.0720  -17.1706   26.1134 O   0  0  0  0  0  0  0  0  0  0  0  0
   10.4835  -18.2055   25.5580 O   0  0  0  0  0  0  0  0  0  0  0  0
  2  3  1  6
  2  1  1  0
  4  2  1  0
  4  5  1  6
  6  7  2  0
  6  4  1  0
  9 10  2  0
  9  8  1  0
 11  9  1  0
 12 11  1  0
 13 12  1  0
 13 14  1  0
 15 14  1  6
 15 16  1  0
 16  6  1  0
 17 15  1  0
 18 17  2  0
 19 20  1  0
 19 17  1  0
 21 20  1  0
 22 23  1  0
 22 21  1  0
 23 19  1  0
 23 24  1  1
 25 24  2  0
 26 24  1  0
M  END
$$$$
