VRP.pdb
     RDKit          3D

 26 26  0  0  1  0  0  0  0  0999 V2000
    9.0621  -13.1791   18.4775 C   0  0  0  0  0  0  0  0  0  0  0  0
    8.5232  -13.3963   19.8630 C   0  0  1  0  0  0  0  0  0  0  0  0
    7.3454  -12.4670   20.0551 C   0  0  0  0  0  0  0  0  0  0  0  0
    8.0095  -14.8302   20.0498 C   0  0  2  0  0  0  0  0  0  0  0  0
    7.1622  -15.2309   18.9765 N   0  0  0  0  0  0  0  0  0  0  0  0
    7.4321  -15.0337   21.3831 C   0  0  0  0  0  0  0  0  0  0  0  0
    6.2213  -14.7121   21.5483 O   0  0  0  0  0  0  0  0  0  0  0  0
    8.4605  -20.5271   24.2808 N   0  0  0  0  0  0  0  0  0  0  0  0
    8.6748  -20.2776   25.6850 C   0  0  0  0  0  0  0  0  0  0  0  0
    9.6609  -20.8103   26.3174 N   0  0  0  0  0  0  0  0  0  0  0  0
    7.7928  -19.4331   26.4082 N   0  0  0  0  0  0  0  0  0  0  0  0
    6.5585  -18.8909   25.8296 C   0  0  0  0  0  0  0  0  0  0  0  0
    6.7512  -17.4526   25.4574 C   0  0  0  0  0  0  0  0  0  0  0  0
    7.3589  -17.2010   24.1344 C   0  0  0  0  0  0  0  0  0  0  0  0
    7.4931  -15.7459   23.8041 C   0  0  2  0  0  0  0  0  0  0  0  0
    8.1061  -15.5578   22.5036 N   0  0  0  0  0  0  0  0  0  0  0  0
    8.1454  -15.0128   24.8934 C   0  0  0  0  0  0  0  0  0  0  0  0
    9.3754  -15.2424   25.1781 O   0  0  0  0  0  0  0  0  0  0  0  0
    9.7844  -20.6829   27.3555 N   0  0  0  0  0  0  0  0  0  0  0  0
    7.5374  -14.0057   25.7333 C   0  0  0  0  0  0  0  0  0  0  0  0
    6.1650  -13.6011   25.7647 C   0  0  0  0  0  0  0  0  0  0  0  0
    6.0362  -12.7854   27.0667 C   0  0  0  0  0  0  0  0  0  0  0  0
    7.4229  -12.1296   27.1444 C   0  0  2  0  0  0  0  0  0  0  0  0
    8.2985  -13.2487   26.7024 C   0  0  0  0  0  0  0  0  0  0  0  0
    8.7681  -14.0907   27.8207 O   0  0  0  0  0  0  0  0  0  0  0  0
    9.5376  -13.6247   28.6807 O   0  0  0  0  0  0  0  0  0  0  0  0
  2  3  1  6
  2  1  1  0
  4  2  1  0
  4  5  1  6
  6  7  2  0
  6  4  1  0
  9 10  2  0
  9  8  1  0
 11  9  1  0
 12 11  1  0
 13 12  1  0
 13 14  1  0
 15 14  1  1
 15 16  1  0
 16  6  1  0
 17 15  1  0
 18 17  2  0
 19 20  1  0
 19 17  1  0
 21 20  1  0
 22 23  1  0
 22 21  1  0
 23 19  1  0
 23 24  1  1
 25 24  2  0
 26 24  1  0
M  END
$$$$
