VRP.pdb
     RDKit          3D

 26 26  0  0  1  0  0  0  0  0999 V2000
    9.0624  -13.5110   18.5070 C   0  0  0  0  0  0  0  0  0  0  0  0
    8.6352  -13.6091   19.9441 C   0  0  1  0  0  0  0  0  0  0  0  0
    8.0120  -12.2877   20.3355 C   0  0  0  0  0  0  0  0  0  0  0  0
    7.5684  -14.6943   20.1424 C   0  0  2  0  0  0  0  0  0  0  0  0
    6.4657  -14.5177   19.2574 N   0  0  0  0  0  0  0  0  0  0  0  0
    7.1931  -14.8393   21.5532 C   0  0  0  0  0  0  0  0  0  0  0  0
    6.4195  -13.9680   22.0423 O   0  0  0  0  0  0  0  0  0  0  0  0
    7.0132  -21.6187   27.2230 N   0  0  0  0  0  0  0  0  0  0  0  0
    8.1065  -20.8616   26.6647 C   0  0  0  0  0  0  0  0  0  0  0  0
    9.2960  -21.3488   26.6025 N   0  0  0  0  0  0  0  0  0  0  0  0
    7.8932  -19.5489   26.1695 N   0  0  0  0  0  0  0  0  0  0  0  0
    6.5845  -18.8870   26.2091 C   0  0  0  0  0  0  0  0  0  0  0  0
    6.6971  -17.4886   25.6837 C   0  0  0  0  0  0  0  0  0  0  0  0
    7.1656  -17.3557   24.2888 C   0  0  0  0  0  0  0  0  0  0  0  0
    7.2732  -15.9349   23.8260 C   0  0  2  0  0  0  0  0  0  0  0  0
    7.6174  -15.8663   22.4192 N   0  0  0  0  0  0  0  0  0  0  0  0
    8.1522  -15.1564   24.7038 C   0  0  0  0  0  0  0  0  0  0  0  0
    9.4103  -15.4066   24.7415 O   0  0  0  0  0  0  0  0  0  0  0  0
   10.0940  -20.8047   26.1825 N   0  0  0  0  0  0  0  0  0  0  0  0
    7.7519  -14.0801   25.5817 C   0  0  0  0  0  0  0  0  0  0  0  0
    6.4435  -13.5252   25.7495 C   0  0  0  0  0  0  0  0  0  0  0  0
    6.5454  -12.6880   27.0401 C   0  0  0  0  0  0  0  0  0  0  0  0
    7.9958  -12.1897   26.9569 C   0  0  2  0  0  0  0  0  0  0  0  0
    8.6911  -13.4033   26.4486 C   0  0  0  0  0  0  0  0  0  0  0  0
    9.1830  -14.2817   27.5287 O   0  0  0  0  0  0  0  0  0  0  0  0
    8.6809  -15.4068   27.7041 O   0  0  0  0  0  0  0  0  0  0  0  0
  2  3  1  6
  2  1  1  0
  4  2  1  0
  4  5  1  6
  6  7  2  0
  6  4  1  0
  9 10  2  0
  9  8  1  0
 11  9  1  0
 12 11  1  0
 13 12  1  0
 13 14  1  0
 15 14  1  1
 15 16  1  0
 16  6  1  0
 17 15  1  0
 18 17  2  0
 19 20  1  0
 19 17  1  0
 21 20  1  0
 22 23  1  0
 22 21  1  0
 23 19  1  0
 23 24  1  1
 25 24  2  0
 26 24  1  0
M  END
$$$$
