HNN.pdb
     RDKit          3D

 27 27  0  0  1  0  0  0  0  0999 V2000
   28.7902  -21.1851  -16.7525 N   0  0  0  0  0  0  0  0  0  0  0  0
   28.1948  -20.1795  -15.9159 C   0  0  1  0  0  0  0  0  0  0  0  0
   27.4128  -19.1986  -16.7654 C   0  0  0  0  0  0  0  0  0  0  0  0
   28.3906  -18.4125  -17.5430 C   0  0  0  0  0  0  0  0  0  0  0  0
   28.4718  -18.3627  -18.9088 C   0  0  0  0  0  0  0  0  0  0  0  0
   29.4834  -17.5442  -19.2301 N   0  0  0  0  0  0  0  0  0  0  0  0
   30.0083  -17.1035  -18.0763 C   0  0  0  0  0  0  0  0  0  0  0  0
   29.3433  -17.6318  -17.0412 N   0  0  0  0  0  0  0  0  0  0  0  0
   27.2254  -20.7835  -14.9467 C   0  0  0  0  0  0  0  0  0  0  0  0
   26.4736  -21.7364  -15.2719 O   0  0  0  0  0  0  0  0  0  0  0  0
   24.5920  -21.7402  -10.4313 N   0  0  0  0  0  0  0  0  0  0  0  0
   25.6741  -20.8454  -10.2285 C   0  0  0  0  0  0  0  0  0  0  0  0
   25.9114  -20.4677   -9.0551 O   0  0  0  0  0  0  0  0  0  0  0  0
   26.5050  -20.3603  -11.3265 C   0  0  0  0  0  0  0  0  0  0  0  0
   26.1747  -20.9347  -12.6794 C   0  0  2  0  0  0  0  0  0  0  0  0
   27.1132  -20.3031  -13.6127 N   0  0  0  0  0  0  0  0  0  0  0  0
   24.8256  -20.4715  -13.0938 C   0  0  0  0  0  0  0  0  0  0  0  0
   24.6050  -19.2347  -13.3387 O   0  0  0  0  0  0  0  0  0  0  0  0
   20.6709  -20.4469  -16.7150 N   0  0  0  0  0  0  0  0  0  0  0  0
   20.7459  -21.2345  -15.5441 C   0  0  0  0  0  0  0  0  0  0  0  0
   19.6831  -21.5862  -14.9935 O   0  0  0  0  0  0  0  0  0  0  0  0
   22.0312  -21.6257  -14.9936 C   0  0  0  0  0  0  0  0  0  0  0  0
   22.4569  -20.8412  -13.7810 C   0  0  2  0  0  0  0  0  0  0  0  0
   23.7099  -21.3347  -13.2463 N   0  0  0  0  0  0  0  0  0  0  0  0
   21.3933  -20.8238  -12.7330 C   0  0  0  0  0  0  0  0  0  0  0  0
   20.3791  -19.8814  -12.7173 O   0  0  0  0  0  0  0  0  0  0  0  0
   21.3822  -21.6865  -11.8047 O   0  0  0  0  0  0  0  0  0  0  0  0
  2  1  1  6
  2  9  1  0
  3  2  1  0
  3  4  1  0
  4  5  2  0
  4  8  1  0
  5  6  1  0
  6  7  1  0
  8  7  2  0
  9 10  2  0
 11 12  1  0
 12 14  1  0
 13 12  2  0
 15 14  1  1
 15 17  1  0
 16  9  1  0
 16 15  1  0
 17 18  2  0
 19 20  1  0
 20 22  1  0
 21 20  2  0
 23 22  1  6
 23 25  1  0
 24 17  1  0
 24 23  1  0
 25 27  2  0
 25 26  1  0
M  END
$$$$
