HNN.pdb
     RDKit          3D

 27 27  0  0  1  0  0  0  0  0999 V2000
   25.7545  -34.4176  -11.6648 N   0  0  0  0  0  0  0  0  0  0  0  0
   26.0735  -33.0555  -11.3356 C   0  0  1  0  0  0  0  0  0  0  0  0
   25.4040  -32.1168  -12.3185 C   0  0  0  0  0  0  0  0  0  0  0  0
   26.0995  -32.2645  -13.6119 C   0  0  0  0  0  0  0  0  0  0  0  0
   27.4238  -32.5700  -13.7776 C   0  0  0  0  0  0  0  0  0  0  0  0
   27.6733  -32.6135  -15.0938 N   0  0  0  0  0  0  0  0  0  0  0  0
   26.5174  -32.3385  -15.7178 C   0  0  0  0  0  0  0  0  0  0  0  0
   25.5514  -32.1242  -14.8156 N   0  0  0  0  0  0  0  0  0  0  0  0
   25.5656  -32.6927   -9.9739 C   0  0  0  0  0  0  0  0  0  0  0  0
   25.6775  -31.5278   -9.5161 O   0  0  0  0  0  0  0  0  0  0  0  0
   23.1460  -32.9195   -5.2892 N   0  0  0  0  0  0  0  0  0  0  0  0
   22.4327  -33.4506   -6.3945 C   0  0  0  0  0  0  0  0  0  0  0  0
   21.2131  -33.7039   -6.2392 O   0  0  0  0  0  0  0  0  0  0  0  0
   23.0658  -33.7059   -7.6850 C   0  0  0  0  0  0  0  0  0  0  0  0
   24.5088  -33.2849   -7.7829 C   0  0  2  0  0  0  0  0  0  0  0  0
   24.9334  -33.6537   -9.1374 N   0  0  0  0  0  0  0  0  0  0  0  0
   25.3273  -34.1191   -6.8661 C   0  0  0  0  0  0  0  0  0  0  0  0
   25.5939  -35.3377   -7.1526 O   0  0  0  0  0  0  0  0  0  0  0  0
   29.8754  -35.5363   -4.2358 N   0  0  0  0  0  0  0  0  0  0  0  0
   28.9108  -34.6541   -3.6990 C   0  0  0  0  0  0  0  0  0  0  0  0
   28.8211  -34.5526   -2.4588 O   0  0  0  0  0  0  0  0  0  0  0  0
   28.0431  -33.8830   -4.5710 C   0  0  0  0  0  0  0  0  0  0  0  0
   26.6917  -34.5010   -4.8137 C   0  0  2  0  0  0  0  0  0  0  0  0
   25.8616  -33.6473   -5.6392 N   0  0  0  0  0  0  0  0  0  0  0  0
   26.0044  -34.8464   -3.5338 C   0  0  0  0  0  0  0  0  0  0  0  0
   25.0835  -34.0050   -2.9328 O   0  0  0  0  0  0  0  0  0  0  0  0
   26.2449  -35.9412   -2.9424 O   0  0  0  0  0  0  0  0  0  0  0  0
  2  1  1  6
  2  9  1  0
  3  2  1  0
  3  4  1  0
  4  5  2  0
  4  8  1  0
  5  6  1  0
  6  7  1  0
  8  7  2  0
  9 10  2  0
 11 12  1  0
 12 14  1  0
 13 12  2  0
 15 14  1  6
 15 17  1  0
 16  9  1  0
 16 15  1  0
 17 18  2  0
 19 20  1  0
 20 22  1  0
 21 20  2  0
 23 22  1  1
 23 25  1  0
 24 17  1  0
 24 23  1  0
 25 27  2  0
 25 26  1  0
M  END
$$$$
