HNN.pdb
     RDKit          3D

 27 27  0  0  1  0  0  0  0  0999 V2000
   19.3373  -10.3015  -17.3087 N   0  0  0  0  0  0  0  0  0  0  0  0
   20.2463  -10.7678  -16.2979 C   0  0  1  0  0  0  0  0  0  0  0  0
   21.5236  -11.2659  -16.9428 C   0  0  0  0  0  0  0  0  0  0  0  0
   21.2039  -12.5306  -17.6334 C   0  0  0  0  0  0  0  0  0  0  0  0
   19.9718  -13.1255  -17.6829 C   0  0  0  0  0  0  0  0  0  0  0  0
   20.0886  -14.2520  -18.3999 N   0  0  0  0  0  0  0  0  0  0  0  0
   21.3727  -14.3393  -18.7800 C   0  0  0  0  0  0  0  0  0  0  0  0
   22.0592  -13.2886  -18.3136 N   0  0  0  0  0  0  0  0  0  0  0  0
   20.6339   -9.6622  -15.3643 C   0  0  0  0  0  0  0  0  0  0  0  0
   21.4690   -9.8389  -14.4422 O   0  0  0  0  0  0  0  0  0  0  0  0
   21.5213   -3.6977  -15.3950 N   0  0  0  0  0  0  0  0  0  0  0  0
   21.2321   -4.9135  -14.7235 C   0  0  0  0  0  0  0  0  0  0  0  0
   21.2867   -4.9186  -13.4694 O   0  0  0  0  0  0  0  0  0  0  0  0
   20.8788   -6.1370  -15.4371 C   0  0  0  0  0  0  0  0  0  0  0  0
   20.4825   -7.2961  -14.5604 C   0  0  2  0  0  0  0  0  0  0  0  0
   20.0715   -8.3610  -15.4811 N   0  0  0  0  0  0  0  0  0  0  0  0
   19.2621   -6.9372  -13.7934 C   0  0  0  0  0  0  0  0  0  0  0  0
   18.1187   -6.8916  -14.3667 O   0  0  0  0  0  0  0  0  0  0  0  0
   15.6320   -6.1352  -10.1141 N   0  0  0  0  0  0  0  0  0  0  0  0
   16.9142   -6.1745   -9.5214 C   0  0  0  0  0  0  0  0  0  0  0  0
   17.0309   -5.8229   -8.3301 O   0  0  0  0  0  0  0  0  0  0  0  0
   18.0704   -6.6141  -10.2816 C   0  0  0  0  0  0  0  0  0  0  0  0
   18.0486   -6.2223  -11.7353 C   0  0  2  0  0  0  0  0  0  0  0  0
   19.2661   -6.6263  -12.4089 N   0  0  0  0  0  0  0  0  0  0  0  0
   17.7957   -4.7610  -11.9097 C   0  0  0  0  0  0  0  0  0  0  0  0
   16.5525   -4.1900  -11.6965 O   0  0  0  0  0  0  0  0  0  0  0  0
   18.7272   -3.9787  -12.2657 O   0  0  0  0  0  0  0  0  0  0  0  0
  2  1  1  6
  2  9  1  0
  3  2  1  0
  3  4  1  0
  4  5  2  0
  4  8  1  0
  5  6  1  0
  6  7  1  0
  8  7  2  0
  9 10  2  0
 11 12  1  0
 12 14  1  0
 13 12  2  0
 15 14  1  6
 15 17  1  0
 16  9  1  0
 16 15  1  0
 17 18  2  0
 19 20  1  0
 20 22  1  0
 21 20  2  0
 23 22  1  1
 23 25  1  0
 24 17  1  0
 24 23  1  0
 25 27  2  0
 25 26  1  0
M  END
$$$$
