HNN.pdb
     RDKit          3D

 27 27  0  0  1  0  0  0  0  0999 V2000
   27.2031  -14.5737  -19.6549 N   0  0  0  0  0  0  0  0  0  0  0  0
   26.7833  -15.7168  -18.8916 C   0  0  1  0  0  0  0  0  0  0  0  0
   27.8159  -16.0355  -17.8296 C   0  0  0  0  0  0  0  0  0  0  0  0
   28.8903  -16.8115  -18.4792 C   0  0  0  0  0  0  0  0  0  0  0  0
   28.9073  -17.2140  -19.7877 C   0  0  0  0  0  0  0  0  0  0  0  0
   30.0453  -17.8915  -19.9938 N   0  0  0  0  0  0  0  0  0  0  0  0
   30.7093  -17.8999  -18.8276 C   0  0  0  0  0  0  0  0  0  0  0  0
   30.0070  -17.2405  -17.8977 N   0  0  0  0  0  0  0  0  0  0  0  0
   25.4942  -15.4490  -18.1772 C   0  0  0  0  0  0  0  0  0  0  0  0
   25.3177  -14.4035  -17.5027 O   0  0  0  0  0  0  0  0  0  0  0  0
   20.1500  -14.3449  -18.2323 N   0  0  0  0  0  0  0  0  0  0  0  0
   20.7807  -15.6107  -18.3450 C   0  0  0  0  0  0  0  0  0  0  0  0
   20.0940  -16.6325  -18.1000 O   0  0  0  0  0  0  0  0  0  0  0  0
   22.1810  -15.7558  -18.7316 C   0  0  0  0  0  0  0  0  0  0  0  0
   23.1310  -16.0374  -17.5969 C   0  0  2  0  0  0  0  0  0  0  0  0
   24.4110  -16.3693  -18.2310 N   0  0  0  0  0  0  0  0  0  0  0  0
   22.7018  -17.2724  -16.8918 C   0  0  0  0  0  0  0  0  0  0  0  0
   22.9662  -18.4275  -17.3754 O   0  0  0  0  0  0  0  0  0  0  0  0
   20.8513  -20.7851  -13.5627 N   0  0  0  0  0  0  0  0  0  0  0  0
   20.8194  -19.5325  -12.9093 C   0  0  0  0  0  0  0  0  0  0  0  0
   20.4043  -19.4842  -11.7338 O   0  0  0  0  0  0  0  0  0  0  0  0
   21.2596  -18.3283  -13.5905 C   0  0  0  0  0  0  0  0  0  0  0  0
   21.5572  -18.5118  -15.0551 C   0  0  2  0  0  0  0  0  0  0  0  0
   21.9875  -17.2703  -15.6657 N   0  0  0  0  0  0  0  0  0  0  0  0
   20.3940  -19.0970  -15.7859 C   0  0  0  0  0  0  0  0  0  0  0  0
   20.3798  -20.4064  -16.2358 O   0  0  0  0  0  0  0  0  0  0  0  0
   19.3609  -18.4027  -16.0244 O   0  0  0  0  0  0  0  0  0  0  0  0
  2  1  1  1
  2  9  1  0
  3  2  1  0
  3  4  1  0
  4  5  2  0
  4  8  1  0
  5  6  1  0
  6  7  1  0
  8  7  2  0
  9 10  2  0
 11 12  1  0
 12 14  1  0
 13 12  2  0
 15 14  1  6
 15 17  1  0
 16  9  1  0
 16 15  1  0
 17 18  2  0
 19 20  1  0
 20 22  1  0
 21 20  2  0
 23 22  1  1
 23 25  1  0
 24 17  1  0
 24 23  1  0
 25 27  2  0
 25 26  1  0
M  END
$$$$
