HNN.pdb
     RDKit          3D

 27 27  0  0  1  0  0  0  0  0999 V2000
   24.5216  -20.9611  -17.4538 N   0  0  0  0  0  0  0  0  0  0  0  0
   23.3630  -20.1106  -17.4591 C   0  0  1  0  0  0  0  0  0  0  0  0
   22.6746  -20.1850  -18.8067 C   0  0  0  0  0  0  0  0  0  0  0  0
   23.5962  -19.6069  -19.8043 C   0  0  0  0  0  0  0  0  0  0  0  0
   23.8013  -18.2712  -20.0242 C   0  0  0  0  0  0  0  0  0  0  0  0
   24.7065  -18.1513  -21.0054 N   0  0  0  0  0  0  0  0  0  0  0  0
   25.0459  -19.3958  -21.3754 C   0  0  0  0  0  0  0  0  0  0  0  0
   24.3694  -20.2900  -20.6436 N   0  0  0  0  0  0  0  0  0  0  0  0
   22.3619  -20.5505  -16.4353 C   0  0  0  0  0  0  0  0  0  0  0  0
   21.9868  -21.7467  -16.3497 O   0  0  0  0  0  0  0  0  0  0  0  0
   19.3980  -17.9433  -12.1484 N   0  0  0  0  0  0  0  0  0  0  0  0
   20.4404  -18.0454  -13.1054 C   0  0  0  0  0  0  0  0  0  0  0  0
   20.6462  -17.0609  -13.8564 O   0  0  0  0  0  0  0  0  0  0  0  0
   21.2662  -19.2419  -13.2385 C   0  0  0  0  0  0  0  0  0  0  0  0
   20.9393  -20.1152  -14.4217 C   0  0  2  0  0  0  0  0  0  0  0  0
   21.7904  -19.6305  -15.5133 N   0  0  0  0  0  0  0  0  0  0  0  0
   19.5433  -19.8520  -14.8558 C   0  0  0  0  0  0  0  0  0  0  0  0
   19.2403  -18.7667  -15.4627 O   0  0  0  0  0  0  0  0  0  0  0  0
   16.6195  -24.0295  -15.9371 N   0  0  0  0  0  0  0  0  0  0  0  0
   16.6581  -22.6408  -16.1956 C   0  0  0  0  0  0  0  0  0  0  0  0
   17.0271  -22.2547  -17.3230 O   0  0  0  0  0  0  0  0  0  0  0  0
   16.2769  -21.6842  -15.1721 C   0  0  0  0  0  0  0  0  0  0  0  0
   17.1363  -20.4490  -15.1195 C   0  0  2  0  0  0  0  0  0  0  0  0
   18.4690  -20.7533  -14.6393 N   0  0  0  0  0  0  0  0  0  0  0  0
   16.5031  -19.3699  -14.3044 C   0  0  0  0  0  0  0  0  0  0  0  0
   15.5441  -18.5139  -14.8189 O   0  0  0  0  0  0  0  0  0  0  0  0
   16.8277  -19.1969  -13.0916 O   0  0  0  0  0  0  0  0  0  0  0  0
  2  1  1  6
  2  9  1  0
  3  2  1  0
  3  4  1  0
  4  5  2  0
  4  8  1  0
  5  6  1  0
  6  7  1  0
  8  7  2  0
  9 10  2  0
 11 12  1  0
 12 14  1  0
 13 12  2  0
 15 14  1  1
 15 17  1  0
 16  9  1  0
 16 15  1  0
 17 18  2  0
 19 20  1  0
 20 22  1  0
 21 20  2  0
 23 22  1  1
 23 25  1  0
 24 17  1  0
 24 23  1  0
 25 27  2  0
 25 26  1  0
M  END
$$$$
