HNN.pdb
     RDKit          3D

 27 27  0  0  1  0  0  0  0  0999 V2000
   18.7428  -12.8878  -15.7173 N   0  0  0  0  0  0  0  0  0  0  0  0
   18.3789  -11.6581  -16.3661 C   0  0  1  0  0  0  0  0  0  0  0  0
   16.8702  -11.5278  -16.4157 C   0  0  0  0  0  0  0  0  0  0  0  0
   16.3656  -12.5909  -17.3066 C   0  0  0  0  0  0  0  0  0  0  0  0
   15.6103  -13.6659  -16.9213 C   0  0  0  0  0  0  0  0  0  0  0  0
   15.3535  -14.3995  -18.0132 N   0  0  0  0  0  0  0  0  0  0  0  0
   15.9441  -13.7788  -19.0462 C   0  0  0  0  0  0  0  0  0  0  0  0
   16.5647  -12.6719  -18.6192 N   0  0  0  0  0  0  0  0  0  0  0  0
   18.8924  -10.4720  -15.6089 C   0  0  0  0  0  0  0  0  0  0  0  0
   18.5577  -10.2535  -14.4176 O   0  0  0  0  0  0  0  0  0  0  0  0
   23.0579  -10.7191  -14.8692 N   0  0  0  0  0  0  0  0  0  0  0  0
   22.3148   -9.5793  -14.4675 C   0  0  0  0  0  0  0  0  0  0  0  0
   22.0944   -9.4244  -13.2415 O   0  0  0  0  0  0  0  0  0  0  0  0
   21.8085   -8.5985  -15.4230 C   0  0  0  0  0  0  0  0  0  0  0  0
   20.3129   -8.4189  -15.4221 C   0  0  2  0  0  0  0  0  0  0  0  0
   19.7833   -9.5386  -16.2073 N   0  0  0  0  0  0  0  0  0  0  0  0
   19.9646   -7.1940  -16.1868 C   0  0  0  0  0  0  0  0  0  0  0  0
   20.0398   -7.1766  -17.4643 O   0  0  0  0  0  0  0  0  0  0  0  0
   18.1691   -2.5772  -17.7180 N   0  0  0  0  0  0  0  0  0  0  0  0
   17.6762   -2.8341  -16.4187 C   0  0  0  0  0  0  0  0  0  0  0  0
   16.8481   -2.0405  -15.9280 O   0  0  0  0  0  0  0  0  0  0  0  0
   18.1235   -3.9956  -15.6712 C   0  0  0  0  0  0  0  0  0  0  0  0
   19.1309   -4.8524  -16.3910 C   0  0  2  0  0  0  0  0  0  0  0  0
   19.5348   -5.9845  -15.5820 N   0  0  0  0  0  0  0  0  0  0  0  0
   20.3147   -4.0579  -16.8353 C   0  0  0  0  0  0  0  0  0  0  0  0
   20.4377   -3.5618  -18.1220 O   0  0  0  0  0  0  0  0  0  0  0  0
   21.2650   -3.8060  -16.0355 O   0  0  0  0  0  0  0  0  0  0  0  0
  2  1  1  1
  2  9  1  0
  3  2  1  0
  3  4  1  0
  4  5  2  0
  4  8  1  0
  5  6  1  0
  6  7  1  0
  8  7  2  0
  9 10  2  0
 11 12  1  0
 12 14  1  0
 13 12  2  0
 15 14  1  6
 15 17  1  0
 16  9  1  0
 16 15  1  0
 17 18  2  0
 19 20  1  0
 20 22  1  0
 21 20  2  0
 23 22  1  1
 23 25  1  0
 24 17  1  0
 24 23  1  0
 25 27  2  0
 25 26  1  0
M  END
$$$$
