HNN.pdb
     RDKit          3D

 27 27  0  0  1  0  0  0  0  0999 V2000
   21.3761  -16.1653  -17.5451 N   0  0  0  0  0  0  0  0  0  0  0  0
   20.6699  -14.9173  -17.4488 C   0  0  1  0  0  0  0  0  0  0  0  0
   19.6889  -14.9674  -16.2953 C   0  0  0  0  0  0  0  0  0  0  0  0
   18.9506  -16.2411  -16.4003 C   0  0  0  0  0  0  0  0  0  0  0  0
   19.1624  -17.2132  -17.3409 C   0  0  0  0  0  0  0  0  0  0  0  0
   18.2970  -18.2090  -17.1039 N   0  0  0  0  0  0  0  0  0  0  0  0
   17.5708  -17.8466  -16.0352 C   0  0  0  0  0  0  0  0  0  0  0  0
   17.9667  -16.6435  -15.6009 N   0  0  0  0  0  0  0  0  0  0  0  0
   21.6078  -13.7825  -17.1721 C   0  0  0  0  0  0  0  0  0  0  0  0
   22.8152  -13.9788  -16.8846 O   0  0  0  0  0  0  0  0  0  0  0  0
   24.3546   -9.5381  -16.9966 N   0  0  0  0  0  0  0  0  0  0  0  0
   24.1224  -10.3599  -18.1295 C   0  0  0  0  0  0  0  0  0  0  0  0
   24.8718  -10.2118  -19.1256 O   0  0  0  0  0  0  0  0  0  0  0  0
   23.0556  -11.3557  -18.1687 C   0  0  0  0  0  0  0  0  0  0  0  0
   22.1231  -11.3397  -16.9857 C   0  0  2  0  0  0  0  0  0  0  0  0
   21.1712  -12.4298  -17.2225 N   0  0  0  0  0  0  0  0  0  0  0  0
   21.3173  -10.0921  -17.0121 C   0  0  0  0  0  0  0  0  0  0  0  0
   20.3208   -9.9734  -17.8065 O   0  0  0  0  0  0  0  0  0  0  0  0
   17.7435   -7.7069  -15.6947 N   0  0  0  0  0  0  0  0  0  0  0  0
   18.1555   -8.8555  -14.9821 C   0  0  0  0  0  0  0  0  0  0  0  0
   17.2810   -9.5991  -14.4936 O   0  0  0  0  0  0  0  0  0  0  0  0
   19.5652   -9.1637  -14.8217 C   0  0  0  0  0  0  0  0  0  0  0  0
   20.4955   -8.2384  -15.5603 C   0  0  2  0  0  0  0  0  0  0  0  0
   21.5792   -8.9687  -16.1859 N   0  0  0  0  0  0  0  0  0  0  0  0
   21.0164   -7.1557  -14.6736 C   0  0  0  0  0  0  0  0  0  0  0  0
   20.3156   -5.9852  -14.4375 O   0  0  0  0  0  0  0  0  0  0  0  0
   22.1386   -7.2728  -14.0963 O   0  0  0  0  0  0  0  0  0  0  0  0
  2  1  1  1
  2  9  1  0
  3  2  1  0
  3  4  1  0
  4  5  2  0
  4  8  1  0
  5  6  1  0
  6  7  1  0
  8  7  2  0
  9 10  2  0
 11 12  1  0
 12 14  1  0
 13 12  2  0
 15 14  1  6
 15 17  1  0
 16  9  1  0
 16 15  1  0
 17 18  2  0
 19 20  1  0
 20 22  1  0
 21 20  2  0
 23 22  1  1
 23 25  1  0
 24 17  1  0
 24 23  1  0
 25 27  2  0
 25 26  1  0
M  END
$$$$
