HNN.pdb
     RDKit          3D

 27 27  0  0  1  0  0  0  0  0999 V2000
   23.2035  -20.9715  -15.1433 N   0  0  0  0  0  0  0  0  0  0  0  0
   22.0015  -20.2697  -14.7855 C   0  0  1  0  0  0  0  0  0  0  0  0
   21.4522  -19.5383  -15.9934 C   0  0  0  0  0  0  0  0  0  0  0  0
   22.4466  -18.5185  -16.3803 C   0  0  0  0  0  0  0  0  0  0  0  0
   23.2082  -18.5351  -17.5179 C   0  0  0  0  0  0  0  0  0  0  0  0
   23.9850  -17.4429  -17.5076 N   0  0  0  0  0  0  0  0  0  0  0  0
   23.6990  -16.7731  -16.3804 C   0  0  0  0  0  0  0  0  0  0  0  0
   22.7584  -17.4270  -15.6872 N   0  0  0  0  0  0  0  0  0  0  0  0
   20.9346  -21.2173  -14.3296 C   0  0  0  0  0  0  0  0  0  0  0  0
   20.5107  -22.1401  -15.0697 O   0  0  0  0  0  0  0  0  0  0  0  0
   17.7185  -23.9612  -11.1727 N   0  0  0  0  0  0  0  0  0  0  0  0
   18.5843  -23.1047  -10.4451 C   0  0  0  0  0  0  0  0  0  0  0  0
   18.6052  -23.2157   -9.1949 O   0  0  0  0  0  0  0  0  0  0  0  0
   19.4370  -22.1156  -11.0977 C   0  0  0  0  0  0  0  0  0  0  0  0
   19.3455  -22.0860  -12.6011 C   0  0  2  0  0  0  0  0  0  0  0  0
   20.3532  -21.1132  -13.0357 N   0  0  0  0  0  0  0  0  0  0  0  0
   18.0357  -21.5116  -13.0024 C   0  0  0  0  0  0  0  0  0  0  0  0
   17.8114  -20.2561  -12.8954 O   0  0  0  0  0  0  0  0  0  0  0  0
   16.7736  -22.4297  -17.2483 N   0  0  0  0  0  0  0  0  0  0  0  0
   16.1412  -21.5495  -16.3415 C   0  0  0  0  0  0  0  0  0  0  0  0
   16.3305  -20.3233  -16.4714 O   0  0  0  0  0  0  0  0  0  0  0  0
   15.2903  -22.0605  -15.2820 C   0  0  0  0  0  0  0  0  0  0  0  0
   15.7110  -21.6583  -13.8933 C   0  0  2  0  0  0  0  0  0  0  0  0
   16.9634  -22.2837  -13.5195 N   0  0  0  0  0  0  0  0  0  0  0  0
   14.6444  -21.9449  -12.8883 C   0  0  0  0  0  0  0  0  0  0  0  0
   14.8787  -22.6929  -11.7469 O   0  0  0  0  0  0  0  0  0  0  0  0
   13.4664  -21.5058  -13.0485 O   0  0  0  0  0  0  0  0  0  0  0  0
  2  1  1  6
  2  9  1  0
  3  2  1  0
  3  4  1  0
  4  5  2  0
  4  8  1  0
  5  6  1  0
  6  7  1  0
  8  7  2  0
  9 10  2  0
 11 12  1  0
 12 14  1  0
 13 12  2  0
 15 14  1  1
 15 17  1  0
 16  9  1  0
 16 15  1  0
 17 18  2  0
 19 20  1  0
 20 22  1  0
 21 20  2  0
 23 22  1  6
 23 25  1  0
 24 17  1  0
 24 23  1  0
 25 27  2  0
 25 26  1  0
M  END
$$$$
