HNN.pdb
     RDKit          3D

 27 27  0  0  1  0  0  0  0  0999 V2000
   28.1205  -22.1233  -16.7046 N   0  0  0  0  0  0  0  0  0  0  0  0
   27.7604  -20.9331  -15.9839 C   0  0  1  0  0  0  0  0  0  0  0  0
   27.0920  -19.9461  -16.9191 C   0  0  0  0  0  0  0  0  0  0  0  0
   28.1365  -19.4115  -17.8146 C   0  0  0  0  0  0  0  0  0  0  0  0
   28.3283  -19.7685  -19.1224 C   0  0  0  0  0  0  0  0  0  0  0  0
   29.3699  -19.0669  -19.5908 N   0  0  0  0  0  0  0  0  0  0  0  0
   29.8038  -18.2954  -18.5821 C   0  0  0  0  0  0  0  0  0  0  0  0
   29.0526  -18.5024  -17.4932 N   0  0  0  0  0  0  0  0  0  0  0  0
   26.7766  -21.2343  -14.8952 C   0  0  0  0  0  0  0  0  0  0  0  0
   25.7633  -21.9488  -15.0999 O   0  0  0  0  0  0  0  0  0  0  0  0
   24.6193  -21.5597  -10.0542 N   0  0  0  0  0  0  0  0  0  0  0  0
   25.8719  -20.8942  -10.0246 C   0  0  0  0  0  0  0  0  0  0  0  0
   26.3178  -20.5319   -8.9086 O   0  0  0  0  0  0  0  0  0  0  0  0
   26.6434  -20.6240  -11.2342 C   0  0  0  0  0  0  0  0  0  0  0  0
   26.0114  -21.1024  -12.5151 C   0  0  2  0  0  0  0  0  0  0  0  0
   26.9467  -20.7229  -13.5790 N   0  0  0  0  0  0  0  0  0  0  0  0
   24.7738  -20.3227  -12.7735 C   0  0  0  0  0  0  0  0  0  0  0  0
   24.8352  -19.0862  -13.0982 O   0  0  0  0  0  0  0  0  0  0  0  0
   21.3163  -18.0085  -15.6592 N   0  0  0  0  0  0  0  0  0  0  0  0
   21.3724  -19.4015  -15.4282 C   0  0  0  0  0  0  0  0  0  0  0  0
   20.4208  -20.1086  -15.8165 O   0  0  0  0  0  0  0  0  0  0  0  0
   22.5119  -19.9969  -14.7537 C   0  0  0  0  0  0  0  0  0  0  0  0
   22.3339  -20.1815  -13.2700 C   0  0  2  0  0  0  0  0  0  0  0  0
   23.4670  -20.8683  -12.6839 N   0  0  0  0  0  0  0  0  0  0  0  0
   21.0546  -20.8822  -12.9502 C   0  0  0  0  0  0  0  0  0  0  0  0
   20.9565  -22.2620  -12.8903 O   0  0  0  0  0  0  0  0  0  0  0  0
   19.9952  -20.2263  -12.7187 O   0  0  0  0  0  0  0  0  0  0  0  0
  2  1  1  6
  2  9  1  0
  3  2  1  0
  3  4  1  0
  4  5  2  0
  4  8  1  0
  5  6  1  0
  6  7  1  0
  8  7  2  0
  9 10  2  0
 11 12  1  0
 12 14  1  0
 13 12  2  0
 15 14  1  1
 15 17  1  0
 16  9  1  0
 16 15  1  0
 17 18  2  0
 19 20  1  0
 20 22  1  0
 21 20  2  0
 23 22  1  6
 23 25  1  0
 24 17  1  0
 24 23  1  0
 25 27  2  0
 25 26  1  0
M  END
$$$$
