HNN.pdb
     RDKit          3D

 27 27  0  0  1  0  0  0  0  0999 V2000
   18.6365  -11.3242  -19.8372 N   0  0  0  0  0  0  0  0  0  0  0  0
   19.3596  -10.6012  -18.8272 C   0  0  1  0  0  0  0  0  0  0  0  0
   20.0780   -9.4223  -19.4514 C   0  0  0  0  0  0  0  0  0  0  0  0
   21.0780   -9.9640  -20.3921 C   0  0  0  0  0  0  0  0  0  0  0  0
   22.3308  -10.4060  -20.0609 C   0  0  0  0  0  0  0  0  0  0  0  0
   22.9312  -10.8186  -21.1860 N   0  0  0  0  0  0  0  0  0  0  0  0
   22.0556  -10.6300  -22.1853 C   0  0  0  0  0  0  0  0  0  0  0  0
   20.9203  -10.1073  -21.7050 N   0  0  0  0  0  0  0  0  0  0  0  0
   18.4335  -10.0453  -17.7893 C   0  0  0  0  0  0  0  0  0  0  0  0
   17.2956   -9.6037  -18.0881 O   0  0  0  0  0  0  0  0  0  0  0  0
   15.8874  -11.6141  -15.6490 N   0  0  0  0  0  0  0  0  0  0  0  0
   16.7963  -11.6411  -14.5600 C   0  0  0  0  0  0  0  0  0  0  0  0
   16.7126  -12.5956  -13.7491 O   0  0  0  0  0  0  0  0  0  0  0  0
   17.8086  -10.6085  -14.3596 C   0  0  0  0  0  0  0  0  0  0  0  0
   17.8393   -9.5313  -15.4122 C   0  0  2  0  0  0  0  0  0  0  0  0
   18.8030   -9.9926  -16.4168 N   0  0  0  0  0  0  0  0  0  0  0  0
   18.4257   -8.2953  -14.8334 C   0  0  0  0  0  0  0  0  0  0  0  0
   17.8115   -7.6468  -13.9167 O   0  0  0  0  0  0  0  0  0  0  0  0
   21.3000   -4.0019  -14.0913 N   0  0  0  0  0  0  0  0  0  0  0  0
   22.1614   -5.0971  -14.3264 C   0  0  0  0  0  0  0  0  0  0  0  0
   23.3875   -4.9371  -14.1605 O   0  0  0  0  0  0  0  0  0  0  0  0
   21.6317   -6.3803  -14.7517 C   0  0  0  0  0  0  0  0  0  0  0  0
   20.1294   -6.4775  -14.7219 C   0  0  2  0  0  0  0  0  0  0  0  0
   19.6728   -7.7523  -15.2374 N   0  0  0  0  0  0  0  0  0  0  0  0
   19.4880   -5.3414  -15.4483 C   0  0  0  0  0  0  0  0  0  0  0  0
   19.1973   -4.1348  -14.8347 O   0  0  0  0  0  0  0  0  0  0  0  0
   19.1816   -5.4445  -16.6738 O   0  0  0  0  0  0  0  0  0  0  0  0
  2  1  1  6
  2  9  1  0
  3  2  1  0
  3  4  1  0
  4  5  2  0
  4  8  1  0
  5  6  1  0
  6  7  1  0
  8  7  2  0
  9 10  2  0
 11 12  1  0
 12 14  1  0
 13 12  2  0
 15 14  1  1
 15 17  1  0
 16  9  1  0
 16 15  1  0
 17 18  2  0
 19 20  1  0
 20 22  1  0
 21 20  2  0
 23 22  1  6
 23 25  1  0
 24 17  1  0
 24 23  1  0
 25 27  2  0
 25 26  1  0
M  END
$$$$
