EHE.pdb
     RDKit          3D

 29 29  0  0  1  0  0  0  0  0999 V2000
   28.9807  -36.8985   -8.3045 N   0  0  0  0  0  0  0  0  0  0  0  0
   27.6855  -37.1715   -7.8186 C   0  0  1  0  0  0  0  0  0  0  0  0
   27.3238  -38.5774   -7.5256 C   0  0  0  0  0  0  0  0  0  0  0  0
   28.4166  -39.4336   -6.9727 C   0  0  0  0  0  0  0  0  0  0  0  0
   28.0896  -40.2241   -5.7788 C   0  0  0  0  0  0  0  0  0  0  0  0
   27.0003  -40.2841   -5.1850 O   0  0  0  0  0  0  0  0  0  0  0  0
   27.3437  -36.2613   -6.6597 C   0  0  0  0  0  0  0  0  0  0  0  0
   28.2155  -35.8498   -5.8713 O   0  0  0  0  0  0  0  0  0  0  0  0
   29.1397  -40.9960   -5.2598 O   0  0  0  0  0  0  0  0  0  0  0  0
   26.0005  -35.8354   -6.4208 N   0  0  0  0  0  0  0  0  0  0  0  0
   25.6243  -34.9546   -5.3397 C   0  0  1  0  0  0  0  0  0  0  0  0
   24.4215  -34.1129   -5.6844 C   0  0  0  0  0  0  0  0  0  0  0  0
   24.7356  -33.1332   -6.7736 C   0  0  0  0  0  0  0  0  0  0  0  0
   25.9310  -33.0162   -7.4077 C   0  0  0  0  0  0  0  0  0  0  0  0
   25.8439  -32.0398   -8.3140 N   0  0  0  0  0  0  0  0  0  0  0  0
   24.5964  -31.5595   -8.2349 C   0  0  0  0  0  0  0  0  0  0  0  0
   23.9110  -32.2220   -7.2950 N   0  0  0  0  0  0  0  0  0  0  0  0
   25.5355  -35.6107   -4.0347 C   0  0  0  0  0  0  0  0  0  0  0  0
   25.1240  -36.7754   -3.8305 O   0  0  0  0  0  0  0  0  0  0  0  0
   25.9501  -34.8948   -2.8483 N   0  0  0  0  0  0  0  0  0  0  0  0
   25.9172  -35.4680   -1.5301 C   0  0  1  0  0  0  0  0  0  0  0  0
   26.6054  -34.6656   -0.4897 C   0  0  0  0  0  0  0  0  0  0  0  0
   26.7830  -35.2244    0.8618 C   0  0  0  0  0  0  0  0  0  0  0  0
   27.5193  -34.3878    1.7929 C   0  0  0  0  0  0  0  0  0  0  0  0
   27.9933  -33.2839    1.4942 O   0  0  0  0  0  0  0  0  0  0  0  0
   24.5184  -35.6699   -1.0711 C   0  0  0  0  0  0  0  0  0  0  0  0
   23.6098  -34.9841   -1.5714 O   0  0  0  0  0  0  0  0  0  0  0  0
   27.7327  -34.8161    3.1296 O   0  0  0  0  0  0  0  0  0  0  0  0
   24.1834  -36.6003   -0.0960 O   0  0  0  0  0  0  0  0  0  0  0  0
  2  1  1  1
  2  7  1  0
  2  3  1  0
  4  3  1  0
  4  5  1  0
  5  6  2  0
  5  9  1  0
  7  8  2  0
 10 11  1  0
 10  7  1  0
 11 12  1  6
 12 13  1  0
 13 14  2  0
 14 15  1  0
 16 15  1  0
 17 13  1  0
 17 16  2  0
 18 20  1  0
 18 11  1  0
 19 18  2  0
 21 22  1  1
 21 20  1  0
 22 23  1  0
 23 24  1  0
 24 28  1  0
 24 25  2  0
 26 21  1  0
 27 26  2  0
 29 26  1  0
M  END
$$$$
