EHE.pdb
     RDKit          3D

 29 29  0  0  1  0  0  0  0  0999 V2000
   14.4815  -21.7689    0.6373 N   0  0  0  0  0  0  0  0  0  0  0  0
   14.3072  -21.8398    2.0348 C   0  0  1  0  0  0  0  0  0  0  0  0
   14.4147  -23.1622    2.6929 C   0  0  0  0  0  0  0  0  0  0  0  0
   15.7578  -23.8147    2.6369 C   0  0  0  0  0  0  0  0  0  0  0  0
   15.8481  -25.1766    3.1795 C   0  0  0  0  0  0  0  0  0  0  0  0
   16.8608  -25.8895    3.2720 O   0  0  0  0  0  0  0  0  0  0  0  0
   15.1586  -20.8044    2.7355 C   0  0  0  0  0  0  0  0  0  0  0  0
   16.3898  -20.7408    2.5586 O   0  0  0  0  0  0  0  0  0  0  0  0
   14.6420  -25.7225    3.6434 O   0  0  0  0  0  0  0  0  0  0  0  0
   14.5828  -19.8535    3.6337 N   0  0  0  0  0  0  0  0  0  0  0  0
   15.3351  -18.7907    4.2588 C   0  0  1  0  0  0  0  0  0  0  0  0
   14.5312  -17.5208    4.3809 C   0  0  0  0  0  0  0  0  0  0  0  0
   14.4510  -16.7981    3.0709 C   0  0  0  0  0  0  0  0  0  0  0  0
   15.4873  -16.1805    2.4468 C   0  0  0  0  0  0  0  0  0  0  0  0
   15.0452  -15.6428    1.3076 N   0  0  0  0  0  0  0  0  0  0  0  0
   13.7395  -15.9308    1.2344 C   0  0  0  0  0  0  0  0  0  0  0  0
   13.3669  -16.6372    2.3088 N   0  0  0  0  0  0  0  0  0  0  0  0
   16.0158  -19.1834    5.4933 C   0  0  0  0  0  0  0  0  0  0  0  0
   15.7061  -20.1554    6.2193 O   0  0  0  0  0  0  0  0  0  0  0  0
   17.1519  -18.4166    5.9547 N   0  0  0  0  0  0  0  0  0  0  0  0
   17.8673  -18.7181    7.1648 C   0  0  1  0  0  0  0  0  0  0  0  0
   19.2917  -18.3045    7.1604 C   0  0  0  0  0  0  0  0  0  0  0  0
   20.1285  -18.5626    8.3450 C   0  0  0  0  0  0  0  0  0  0  0  0
   21.4802  -18.0350    8.2832 C   0  0  0  0  0  0  0  0  0  0  0  0
   21.9528  -17.4782    7.2837 O   0  0  0  0  0  0  0  0  0  0  0  0
   17.2281  -18.0680    8.3383 C   0  0  0  0  0  0  0  0  0  0  0  0
   16.6987  -16.9513    8.2007 O   0  0  0  0  0  0  0  0  0  0  0  0
   22.3441  -18.1394    9.4050 O   0  0  0  0  0  0  0  0  0  0  0  0
   17.2000  -18.6625    9.5931 O   0  0  0  0  0  0  0  0  0  0  0  0
  2  1  1  6
  2  7  1  0
  2  3  1  0
  4  3  1  0
  4  5  1  0
  5  6  2  0
  5  9  1  0
  7  8  2  0
 10 11  1  0
 10  7  1  0
 11 12  1  1
 12 13  1  0
 13 14  2  0
 14 15  1  0
 16 15  1  0
 17 13  1  0
 17 16  2  0
 18 20  1  0
 18 11  1  0
 19 18  2  0
 21 22  1  6
 21 20  1  0
 22 23  1  0
 23 24  1  0
 24 28  1  0
 24 25  2  0
 26 21  1  0
 27 26  2  0
 29 26  1  0
M  END
$$$$
