EHE.pdb
     RDKit          3D

 29 29  0  0  1  0  0  0  0  0999 V2000
   20.8940  -10.4604  -19.4586 N   0  0  0  0  0  0  0  0  0  0  0  0
   20.1745  -10.2893  -18.2581 C   0  0  1  0  0  0  0  0  0  0  0  0
   19.6077  -11.4879  -17.5983 C   0  0  0  0  0  0  0  0  0  0  0  0
   20.5919  -12.5286  -17.1726 C   0  0  0  0  0  0  0  0  0  0  0  0
   20.0611  -13.6507  -16.3876 C   0  0  0  0  0  0  0  0  0  0  0  0
   20.6741  -14.6566  -15.9937 O   0  0  0  0  0  0  0  0  0  0  0  0
   20.9554   -9.4392  -17.2804 C   0  0  0  0  0  0  0  0  0  0  0  0
   20.4745   -9.0923  -16.1852 O   0  0  0  0  0  0  0  0  0  0  0  0
   18.7021  -13.5623  -16.0510 O   0  0  0  0  0  0  0  0  0  0  0  0
   22.2820   -8.9968  -17.5752 N   0  0  0  0  0  0  0  0  0  0  0  0
   23.0777   -8.2038  -16.6675 C   0  0  1  0  0  0  0  0  0  0  0  0
   24.5536   -8.4714  -16.8227 C   0  0  0  0  0  0  0  0  0  0  0  0
   24.9010   -9.8684  -16.4072 C   0  0  0  0  0  0  0  0  0  0  0  0
   24.0261  -10.7868  -15.9217 C   0  0  0  0  0  0  0  0  0  0  0  0
   24.6890  -11.9149  -15.6562 N   0  0  0  0  0  0  0  0  0  0  0  0
   25.9685  -11.6872  -15.9789 C   0  0  0  0  0  0  0  0  0  0  0  0
   26.1080  -10.4378  -16.4390 N   0  0  0  0  0  0  0  0  0  0  0  0
   22.7307   -6.7822  -16.6508 C   0  0  0  0  0  0  0  0  0  0  0  0
   22.9121   -5.9762  -17.5916 O   0  0  0  0  0  0  0  0  0  0  0  0
   22.1202   -6.2122  -15.4700 N   0  0  0  0  0  0  0  0  0  0  0  0
   21.6916   -4.8423  -15.3875 C   0  0  1  0  0  0  0  0  0  0  0  0
   20.2426   -4.6325  -15.6252 C   0  0  0  0  0  0  0  0  0  0  0  0
   19.6931   -3.2657  -15.6127 C   0  0  0  0  0  0  0  0  0  0  0  0
   18.2745   -3.1590  -15.9047 C   0  0  0  0  0  0  0  0  0  0  0  0
   17.5793   -4.1118  -16.2806 O   0  0  0  0  0  0  0  0  0  0  0  0
   22.0028   -4.2655  -14.0539 C   0  0  0  0  0  0  0  0  0  0  0  0
   22.1733   -5.0282  -13.0867 O   0  0  0  0  0  0  0  0  0  0  0  0
   17.6040   -1.9152  -15.7660 O   0  0  0  0  0  0  0  0  0  0  0  0
   22.1099   -2.8970  -13.8429 O   0  0  0  0  0  0  0  0  0  0  0  0
  2  1  1  6
  2  7  1  0
  2  3  1  0
  4  3  1  0
  4  5  1  0
  5  6  2  0
  5  9  1  0
  7  8  2  0
 10 11  1  0
 10  7  1  0
 11 12  1  6
 12 13  1  0
 13 14  2  0
 14 15  1  0
 16 15  1  0
 17 13  1  0
 17 16  2  0
 18 20  1  0
 18 11  1  0
 19 18  2  0
 21 22  1  1
 21 20  1  0
 22 23  1  0
 23 24  1  0
 24 28  1  0
 24 25  2  0
 26 21  1  0
 27 26  2  0
 29 26  1  0
M  END
$$$$
