EHE.pdb
     RDKit          3D

 29 29  0  0  1  0  0  0  0  0999 V2000
   18.1096  -10.0333  -12.0391 N   0  0  0  0  0  0  0  0  0  0  0  0
   17.1067   -9.5103  -12.8812 C   0  0  1  0  0  0  0  0  0  0  0  0
   16.0034  -10.4035  -13.3032 C   0  0  0  0  0  0  0  0  0  0  0  0
   16.3875  -11.8101  -13.6302 C   0  0  0  0  0  0  0  0  0  0  0  0
   15.3032  -12.7026  -14.0602 C   0  0  0  0  0  0  0  0  0  0  0  0
   14.7107  -13.5567  -13.3805 O   0  0  0  0  0  0  0  0  0  0  0  0
   16.5790   -8.2006  -12.3387 C   0  0  0  0  0  0  0  0  0  0  0  0
   15.7456   -7.5204  -12.9663 O   0  0  0  0  0  0  0  0  0  0  0  0
   14.9006  -12.5628  -15.3967 O   0  0  0  0  0  0  0  0  0  0  0  0
   17.0179   -7.6876  -11.0790 N   0  0  0  0  0  0  0  0  0  0  0  0
   16.5033   -6.4732  -10.4902 C   0  0  1  0  0  0  0  0  0  0  0  0
   16.4075   -6.5658   -8.9882 C   0  0  0  0  0  0  0  0  0  0  0  0
   15.1701   -7.2968   -8.5647 C   0  0  0  0  0  0  0  0  0  0  0  0
   14.2270   -7.8006   -9.4022 C   0  0  0  0  0  0  0  0  0  0  0  0
   13.2700   -8.3805   -8.6739 N   0  0  0  0  0  0  0  0  0  0  0  0
   13.6268   -8.2317   -7.3919 C   0  0  0  0  0  0  0  0  0  0  0  0
   14.7879   -7.5697   -7.3151 N   0  0  0  0  0  0  0  0  0  0  0  0
   17.1522   -5.2523  -10.9696 C   0  0  0  0  0  0  0  0  0  0  0  0
   18.3403   -4.9237  -10.7504 O   0  0  0  0  0  0  0  0  0  0  0  0
   16.3994   -4.3141  -11.7726 N   0  0  0  0  0  0  0  0  0  0  0  0
   16.9576   -3.0947  -12.2907 C   0  0  1  0  0  0  0  0  0  0  0  0
   16.9868   -3.0081  -13.7711 C   0  0  0  0  0  0  0  0  0  0  0  0
   17.5906   -1.8313  -14.4199 C   0  0  0  0  0  0  0  0  0  0  0  0
   17.7145   -1.9082  -15.8648 C   0  0  0  0  0  0  0  0  0  0  0  0
   16.7488   -1.8642  -16.6381 O   0  0  0  0  0  0  0  0  0  0  0  0
   16.2037   -1.9121  -11.7995 C   0  0  0  0  0  0  0  0  0  0  0  0
   16.8282   -0.8932  -11.4556 O   0  0  0  0  0  0  0  0  0  0  0  0
   18.9917   -2.0412  -16.4703 O   0  0  0  0  0  0  0  0  0  0  0  0
   14.8180   -1.9004  -11.7067 O   0  0  0  0  0  0  0  0  0  0  0  0
  2  1  1  1
  2  7  1  0
  2  3  1  0
  4  3  1  0
  4  5  1  0
  5  6  2  0
  5  9  1  0
  7  8  2  0
 10 11  1  0
 10  7  1  0
 11 12  1  1
 12 13  1  0
 13 14  2  0
 14 15  1  0
 16 15  1  0
 17 13  1  0
 17 16  2  0
 18 20  1  0
 18 11  1  0
 19 18  2  0
 21 22  1  6
 21 20  1  0
 22 23  1  0
 23 24  1  0
 24 28  1  0
 24 25  2  0
 26 21  1  0
 27 26  2  0
 29 26  1  0
M  END
$$$$
