EHE.pdb
     RDKit          3D

 29 29  0  0  1  0  0  0  0  0999 V2000
   18.0616   -9.5350  -15.6462 N   0  0  0  0  0  0  0  0  0  0  0  0
   18.3942   -8.9979  -14.3855 C   0  0  1  0  0  0  0  0  0  0  0  0
   19.1169   -7.7061  -14.3375 C   0  0  0  0  0  0  0  0  0  0  0  0
   20.4398   -7.6692  -15.0315 C   0  0  0  0  0  0  0  0  0  0  0  0
   21.6012   -8.1189  -14.2530 C   0  0  0  0  0  0  0  0  0  0  0  0
   21.8843   -7.8291  -13.0789 O   0  0  0  0  0  0  0  0  0  0  0  0
   17.1900   -8.9903  -13.4702 C   0  0  0  0  0  0  0  0  0  0  0  0
   16.0564   -8.6801  -13.8824 O   0  0  0  0  0  0  0  0  0  0  0  0
   22.4849   -8.9747  -14.9272 O   0  0  0  0  0  0  0  0  0  0  0  0
   17.3045   -9.3393  -12.0890 N   0  0  0  0  0  0  0  0  0  0  0  0
   16.2382   -9.1614  -11.1311 C   0  0  1  0  0  0  0  0  0  0  0  0
   15.7455  -10.4749  -10.5782 C   0  0  0  0  0  0  0  0  0  0  0  0
   15.8847  -11.5766  -11.5841 C   0  0  0  0  0  0  0  0  0  0  0  0
   16.2976  -11.4229  -12.8689 C   0  0  0  0  0  0  0  0  0  0  0  0
   16.2957  -12.6164  -13.4674 N   0  0  0  0  0  0  0  0  0  0  0  0
   15.8820  -13.4997  -12.5499 C   0  0  0  0  0  0  0  0  0  0  0  0
   15.6280  -12.8728  -11.3946 N   0  0  0  0  0  0  0  0  0  0  0  0
   16.5136   -8.1523  -10.1076 C   0  0  0  0  0  0  0  0  0  0  0  0
   17.6352   -7.6561   -9.8558 O   0  0  0  0  0  0  0  0  0  0  0  0
   15.4291   -7.6505   -9.2928 N   0  0  0  0  0  0  0  0  0  0  0  0
   15.5279   -6.4567   -8.4976 C   0  0  1  0  0  0  0  0  0  0  0  0
   16.0119   -5.2626   -9.2323 C   0  0  0  0  0  0  0  0  0  0  0  0
   16.1495   -3.9782   -8.5241 C   0  0  0  0  0  0  0  0  0  0  0  0
   17.5032   -3.4623   -8.4214 C   0  0  0  0  0  0  0  0  0  0  0  0
   18.4578   -4.1248   -7.9943 O   0  0  0  0  0  0  0  0  0  0  0  0
   14.2128   -6.1006   -7.9045 C   0  0  0  0  0  0  0  0  0  0  0  0
   13.1710   -6.5085   -8.4473 O   0  0  0  0  0  0  0  0  0  0  0  0
   17.7973   -2.1320   -8.8205 O   0  0  0  0  0  0  0  0  0  0  0  0
   14.1002   -5.3223   -6.7598 O   0  0  0  0  0  0  0  0  0  0  0  0
  2  1  1  6
  2  7  1  0
  2  3  1  0
  4  3  1  0
  4  5  1  0
  5  6  2  0
  5  9  1  0
  7  8  2  0
 10 11  1  0
 10  7  1  0
 11 12  1  1
 12 13  1  0
 13 14  2  0
 14 15  1  0
 16 15  1  0
 17 13  1  0
 17 16  2  0
 18 20  1  0
 18 11  1  0
 19 18  2  0
 21 22  1  6
 21 20  1  0
 22 23  1  0
 23 24  1  0
 24 28  1  0
 24 25  2  0
 26 21  1  0
 27 26  2  0
 29 26  1  0
M  END
$$$$
