EHE.pdb
     RDKit          3D

 29 29  0  0  1  0  0  0  0  0999 V2000
   16.1157  -12.5353  -18.2230 N   0  0  0  0  0  0  0  0  0  0  0  0
   16.0584  -12.0191  -16.9121 C   0  0  1  0  0  0  0  0  0  0  0  0
   15.4804  -12.8673  -15.8445 C   0  0  0  0  0  0  0  0  0  0  0  0
   16.2211  -14.1279  -15.5360 C   0  0  0  0  0  0  0  0  0  0  0  0
   15.6836  -14.9543  -14.4473 C   0  0  0  0  0  0  0  0  0  0  0  0
   16.1009  -16.0567  -14.0562 O   0  0  0  0  0  0  0  0  0  0  0  0
   17.3982  -11.4505  -16.4997 C   0  0  0  0  0  0  0  0  0  0  0  0
   17.5654  -10.9066  -15.3919 O   0  0  0  0  0  0  0  0  0  0  0  0
   14.5690  -14.4238  -13.7808 O   0  0  0  0  0  0  0  0  0  0  0  0
   18.5311  -11.5136  -17.3686 N   0  0  0  0  0  0  0  0  0  0  0  0
   19.8319  -10.9908  -17.0211 C   0  0  1  0  0  0  0  0  0  0  0  0
   20.9297  -11.5925  -17.8618 C   0  0  0  0  0  0  0  0  0  0  0  0
   21.1179  -13.0466  -17.5533 C   0  0  0  0  0  0  0  0  0  0  0  0
   20.4506  -13.7419  -16.5962 C   0  0  0  0  0  0  0  0  0  0  0  0
   20.8787  -15.0065  -16.6054 N   0  0  0  0  0  0  0  0  0  0  0  0
   21.8073  -15.0851  -17.5671 C   0  0  0  0  0  0  0  0  0  0  0  0
   21.9606  -13.8909  -18.1523 N   0  0  0  0  0  0  0  0  0  0  0  0
   19.8868   -9.5313  -16.9292 C   0  0  0  0  0  0  0  0  0  0  0  0
   19.2307   -8.7310  -17.6340 O   0  0  0  0  0  0  0  0  0  0  0  0
   20.7562   -8.9117  -15.9534 N   0  0  0  0  0  0  0  0  0  0  0  0
   20.8960   -7.4875  -15.8142 C   0  0  1  0  0  0  0  0  0  0  0  0
   21.4603   -7.0457  -14.5156 C   0  0  0  0  0  0  0  0  0  0  0  0
   21.7069   -5.6128  -14.2786 C   0  0  0  0  0  0  0  0  0  0  0  0
   22.2291   -5.2766  -12.9658 C   0  0  0  0  0  0  0  0  0  0  0  0
   21.8777   -5.8440  -11.9232 O   0  0  0  0  0  0  0  0  0  0  0  0
   21.7678   -6.9304  -16.8807 C   0  0  0  0  0  0  0  0  0  0  0  0
   22.7220   -7.6079  -17.3013 O   0  0  0  0  0  0  0  0  0  0  0  0
   23.1972   -4.2485  -12.8195 O   0  0  0  0  0  0  0  0  0  0  0  0
   21.5586   -5.6719  -17.4296 O   0  0  0  0  0  0  0  0  0  0  0  0
  2  1  1  6
  2  7  1  0
  2  3  1  0
  4  3  1  0
  4  5  1  0
  5  6  2  0
  5  9  1  0
  7  8  2  0
 10 11  1  0
 10  7  1  0
 11 12  1  6
 12 13  1  0
 13 14  2  0
 14 15  1  0
 16 15  1  0
 17 13  1  0
 17 16  2  0
 18 20  1  0
 18 11  1  0
 19 18  2  0
 21 22  1  1
 21 20  1  0
 22 23  1  0
 23 24  1  0
 24 28  1  0
 24 25  2  0
 26 21  1  0
 27 26  2  0
 29 26  1  0
M  END
$$$$
