EHE.pdb
     RDKit          3D

 29 29  0  0  1  0  0  0  0  0999 V2000
   22.0466   -9.0258  -20.3528 N   0  0  0  0  0  0  0  0  0  0  0  0
   21.1874   -9.3525  -19.2836 C   0  0  1  0  0  0  0  0  0  0  0  0
   20.6556  -10.7323  -19.2022 C   0  0  0  0  0  0  0  0  0  0  0  0
   21.6465  -11.8301  -19.4167 C   0  0  0  0  0  0  0  0  0  0  0  0
   21.1389  -13.2034  -19.2998 C   0  0  0  0  0  0  0  0  0  0  0  0
   19.9735  -13.5627  -19.0643 O   0  0  0  0  0  0  0  0  0  0  0  0
   21.7805   -8.9114  -17.9638 C   0  0  0  0  0  0  0  0  0  0  0  0
   21.1174   -8.9287  -16.9098 O   0  0  0  0  0  0  0  0  0  0  0  0
   22.0929  -14.2165  -19.4769 O   0  0  0  0  0  0  0  0  0  0  0  0
   23.1315   -8.4541  -17.8724 N   0  0  0  0  0  0  0  0  0  0  0  0
   23.7580   -8.0630  -16.6312 C   0  0  1  0  0  0  0  0  0  0  0  0
   25.1556   -8.6142  -16.5013 C   0  0  0  0  0  0  0  0  0  0  0  0
   25.1473  -10.1110  -16.4341 C   0  0  0  0  0  0  0  0  0  0  0  0
   24.0455  -10.8984  -16.5375 C   0  0  0  0  0  0  0  0  0  0  0  0
   24.4175  -12.1760  -16.4287 N   0  0  0  0  0  0  0  0  0  0  0  0
   25.7457  -12.1707  -16.2588 C   0  0  0  0  0  0  0  0  0  0  0  0
   26.2011  -10.9118  -16.2604 N   0  0  0  0  0  0  0  0  0  0  0  0
   23.6529   -6.6348  -16.3302 C   0  0  0  0  0  0  0  0  0  0  0  0
   24.1627   -5.7086  -17.0009 O   0  0  0  0  0  0  0  0  0  0  0  0
   22.9031   -6.2050  -15.1704 N   0  0  0  0  0  0  0  0  0  0  0  0
   22.5625   -4.8314  -14.9167 C   0  0  1  0  0  0  0  0  0  0  0  0
   21.7801   -4.1791  -15.9948 C   0  0  0  0  0  0  0  0  0  0  0  0
   21.3532   -2.7777  -15.8388 C   0  0  0  0  0  0  0  0  0  0  0  0
   20.5475   -2.2448  -16.9231 C   0  0  0  0  0  0  0  0  0  0  0  0
   19.5257   -1.5681  -16.7483 O   0  0  0  0  0  0  0  0  0  0  0  0
   21.7733   -4.7002  -13.6645 C   0  0  0  0  0  0  0  0  0  0  0  0
   21.1405   -5.6825  -13.2393 O   0  0  0  0  0  0  0  0  0  0  0  0
   20.9112   -2.4860  -18.2741 O   0  0  0  0  0  0  0  0  0  0  0  0
   21.7124   -3.5135  -12.9455 O   0  0  0  0  0  0  0  0  0  0  0  0
  2  1  1  6
  2  7  1  0
  2  3  1  0
  4  3  1  0
  4  5  1  0
  5  6  2  0
  5  9  1  0
  7  8  2  0
 10 11  1  0
 10  7  1  0
 11 12  1  6
 12 13  1  0
 13 14  2  0
 14 15  1  0
 16 15  1  0
 17 13  1  0
 17 16  2  0
 18 20  1  0
 18 11  1  0
 19 18  2  0
 21 22  1  6
 21 20  1  0
 22 23  1  0
 23 24  1  0
 24 28  1  0
 24 25  2  0
 26 21  1  0
 27 26  2  0
 29 26  1  0
M  END
$$$$
