EHE.pdb
     RDKit          3D

 29 29  0  0  1  0  0  0  0  0999 V2000
   20.1925  -33.6721   -5.6432 N   0  0  0  0  0  0  0  0  0  0  0  0
   20.8474  -33.3917   -4.4263 C   0  0  1  0  0  0  0  0  0  0  0  0
   20.1360  -33.6799   -3.1597 C   0  0  0  0  0  0  0  0  0  0  0  0
   18.8716  -32.9173   -2.9302 C   0  0  0  0  0  0  0  0  0  0  0  0
   18.9108  -31.8809   -1.8903 C   0  0  0  0  0  0  0  0  0  0  0  0
   17.9919  -31.1205   -1.5437 O   0  0  0  0  0  0  0  0  0  0  0  0
   22.2427  -33.9759   -4.4202 C   0  0  0  0  0  0  0  0  0  0  0  0
   22.4401  -35.2005   -4.5320 O   0  0  0  0  0  0  0  0  0  0  0  0
   20.1351  -31.7455   -1.2189 O   0  0  0  0  0  0  0  0  0  0  0  0
   23.3961  -33.1431   -4.2843 N   0  0  0  0  0  0  0  0  0  0  0  0
   24.7500  -33.6452   -4.3178 C   0  0  1  0  0  0  0  0  0  0  0  0
   25.6962  -32.6845   -4.9929 C   0  0  0  0  0  0  0  0  0  0  0  0
   25.5415  -32.7231   -6.4827 C   0  0  0  0  0  0  0  0  0  0  0  0
   24.6994  -33.5404   -7.1666 C   0  0  0  0  0  0  0  0  0  0  0  0
   24.8328  -33.3001   -8.4731 N   0  0  0  0  0  0  0  0  0  0  0  0
   25.7558  -32.3369   -8.5889 C   0  0  0  0  0  0  0  0  0  0  0  0
   26.1953  -31.9777   -7.3765 N   0  0  0  0  0  0  0  0  0  0  0  0
   25.2341  -34.1509   -3.0328 C   0  0  0  0  0  0  0  0  0  0  0  0
   25.0766  -33.5926   -1.9232 O   0  0  0  0  0  0  0  0  0  0  0  0
   25.9597  -35.4012   -2.9875 N   0  0  0  0  0  0  0  0  0  0  0  0
   26.4461  -35.9865   -1.7677 C   0  0  1  0  0  0  0  0  0  0  0  0
   27.1638  -37.2727   -1.9422 C   0  0  0  0  0  0  0  0  0  0  0  0
   27.5215  -38.0735   -0.7585 C   0  0  0  0  0  0  0  0  0  0  0  0
   28.2262  -39.3136   -1.0317 C   0  0  0  0  0  0  0  0  0  0  0  0
   28.5580  -39.6766   -2.1677 O   0  0  0  0  0  0  0  0  0  0  0  0
   27.3729  -35.0618   -1.0649 C   0  0  0  0  0  0  0  0  0  0  0  0
   28.0713  -34.2785   -1.7320 O   0  0  0  0  0  0  0  0  0  0  0  0
   28.5757  -40.1900    0.0292 O   0  0  0  0  0  0  0  0  0  0  0  0
   27.4923  -35.0389    0.3186 O   0  0  0  0  0  0  0  0  0  0  0  0
  2  1  1  6
  2  7  1  0
  2  3  1  0
  4  3  1  0
  4  5  1  0
  5  6  2  0
  5  9  1  0
  7  8  2  0
 10 11  1  0
 10  7  1  0
 11 12  1  1
 12 13  1  0
 13 14  2  0
 14 15  1  0
 16 15  1  0
 17 13  1  0
 17 16  2  0
 18 20  1  0
 18 11  1  0
 19 18  2  0
 21 22  1  6
 21 20  1  0
 22 23  1  0
 23 24  1  0
 24 28  1  0
 24 25  2  0
 26 21  1  0
 27 26  2  0
 29 26  1  0
M  END
$$$$
