EHE.pdb
     RDKit          3D

 29 29  0  0  1  0  0  0  0  0999 V2000
   21.6310   -7.1882  -17.2486 N   0  0  0  0  0  0  0  0  0  0  0  0
   21.3156   -8.1827  -16.3000 C   0  0  1  0  0  0  0  0  0  0  0  0
   21.3679   -7.8288  -14.8629 C   0  0  0  0  0  0  0  0  0  0  0  0
   21.8136   -6.4381  -14.5464 C   0  0  0  0  0  0  0  0  0  0  0  0
   21.8748   -6.0771  -13.1240 C   0  0  0  0  0  0  0  0  0  0  0  0
   21.7041   -6.8225  -12.1453 O   0  0  0  0  0  0  0  0  0  0  0  0
   20.0134   -8.8673  -16.6522 C   0  0  0  0  0  0  0  0  0  0  0  0
   19.0604   -8.2424  -17.1546 O   0  0  0  0  0  0  0  0  0  0  0  0
   22.1601   -4.7302  -12.8549 O   0  0  0  0  0  0  0  0  0  0  0  0
   19.8225  -10.2646  -16.4209 N   0  0  0  0  0  0  0  0  0  0  0  0
   18.6138  -10.9727  -16.7728 C   0  0  1  0  0  0  0  0  0  0  0  0
   18.8917  -12.1789  -17.6340 C   0  0  0  0  0  0  0  0  0  0  0  0
   19.2673  -11.7787  -19.0282 C   0  0  0  0  0  0  0  0  0  0  0  0
   19.2928  -10.5065  -19.5030 C   0  0  0  0  0  0  0  0  0  0  0  0
   19.6697  -10.5322  -20.7835 N   0  0  0  0  0  0  0  0  0  0  0  0
   19.8746  -11.8190  -21.0923 C   0  0  0  0  0  0  0  0  0  0  0  0
   19.6307  -12.5891  -20.0247 N   0  0  0  0  0  0  0  0  0  0  0  0
   17.7259  -11.2429  -15.6414 C   0  0  0  0  0  0  0  0  0  0  0  0
   18.0923  -11.5037  -14.4729 O   0  0  0  0  0  0  0  0  0  0  0  0
   16.2933  -11.2145  -15.8381 N   0  0  0  0  0  0  0  0  0  0  0  0
   15.3484  -11.4992  -14.7925 C   0  0  1  0  0  0  0  0  0  0  0  0
   13.9541  -11.0909  -15.0911 C   0  0  0  0  0  0  0  0  0  0  0  0
   12.8983  -11.3183  -14.0892 C   0  0  0  0  0  0  0  0  0  0  0  0
   11.5695  -10.8713  -14.4681 C   0  0  0  0  0  0  0  0  0  0  0  0
   11.2352   -9.6803  -14.5152 O   0  0  0  0  0  0  0  0  0  0  0  0
   15.3201  -12.9517  -14.4802 C   0  0  0  0  0  0  0  0  0  0  0  0
   14.9243  -13.3253  -13.3621 O   0  0  0  0  0  0  0  0  0  0  0  0
   10.5653  -11.8142  -14.8119 O   0  0  0  0  0  0  0  0  0  0  0  0
   15.7235  -13.9162  -15.3944 O   0  0  0  0  0  0  0  0  0  0  0  0
  2  1  1  6
  2  7  1  0
  2  3  1  0
  4  3  1  0
  4  5  1  0
  5  6  2  0
  5  9  1  0
  7  8  2  0
 10 11  1  0
 10  7  1  0
 11 12  1  1
 12 13  1  0
 13 14  2  0
 14 15  1  0
 16 15  1  0
 17 13  1  0
 17 16  2  0
 18 20  1  0
 18 11  1  0
 19 18  2  0
 21 22  1  6
 21 20  1  0
 22 23  1  0
 23 24  1  0
 24 28  1  0
 24 25  2  0
 26 21  1  0
 27 26  2  0
 29 26  1  0
M  END
$$$$
