EHE.pdb
     RDKit          3D

 29 29  0  0  1  0  0  0  0  0999 V2000
   23.5856  -11.6345  -17.3364 N   0  0  0  0  0  0  0  0  0  0  0  0
   22.7826  -10.8774  -18.2140 C   0  0  1  0  0  0  0  0  0  0  0  0
   21.9769  -11.5946  -19.2288 C   0  0  0  0  0  0  0  0  0  0  0  0
   22.0826  -13.0851  -19.2158 C   0  0  0  0  0  0  0  0  0  0  0  0
   21.2384  -13.8105  -20.1740 C   0  0  0  0  0  0  0  0  0  0  0  0
   21.3670  -13.8635  -21.4082 O   0  0  0  0  0  0  0  0  0  0  0  0
   21.9429   -9.8794  -17.4479 C   0  0  0  0  0  0  0  0  0  0  0  0
   21.2616   -9.0142  -18.0294 O   0  0  0  0  0  0  0  0  0  0  0  0
   20.1659  -14.5217  -19.6156 O   0  0  0  0  0  0  0  0  0  0  0  0
   21.8976   -9.8882  -16.0194 N   0  0  0  0  0  0  0  0  0  0  0  0
   21.1551   -8.9255  -15.2398 C   0  0  1  0  0  0  0  0  0  0  0  0
   20.3397   -9.5808  -14.1537 C   0  0  0  0  0  0  0  0  0  0  0  0
   19.0857  -10.1882  -14.7046 C   0  0  0  0  0  0  0  0  0  0  0  0
   18.7153  -10.1823  -16.0113 C   0  0  0  0  0  0  0  0  0  0  0  0
   17.5432  -10.8104  -16.1294 N   0  0  0  0  0  0  0  0  0  0  0  0
   17.1962  -11.2002  -14.8962 C   0  0  0  0  0  0  0  0  0  0  0  0
   18.1337  -10.8238  -14.0178 N   0  0  0  0  0  0  0  0  0  0  0  0
   21.9491   -7.7855  -14.7800 C   0  0  0  0  0  0  0  0  0  0  0  0
   22.9424   -7.8476  -14.0202 O   0  0  0  0  0  0  0  0  0  0  0  0
   21.5986   -6.4517  -15.2158 N   0  0  0  0  0  0  0  0  0  0  0  0
   22.3589   -5.2828  -14.8655 C   0  0  1  0  0  0  0  0  0  0  0  0
   22.1982   -4.1389  -15.7960 C   0  0  0  0  0  0  0  0  0  0  0  0
   20.9430   -3.3678  -15.7919 C   0  0  0  0  0  0  0  0  0  0  0  0
   20.8522   -2.3151  -16.7883 C   0  0  0  0  0  0  0  0  0  0  0  0
   21.1035   -1.1261  -16.5530 O   0  0  0  0  0  0  0  0  0  0  0  0
   21.9948   -4.7964  -13.5094 C   0  0  0  0  0  0  0  0  0  0  0  0
   22.6599   -3.8812  -12.9933 O   0  0  0  0  0  0  0  0  0  0  0  0
   20.4583   -2.6171  -18.1185 O   0  0  0  0  0  0  0  0  0  0  0  0
   20.9337   -5.3291  -12.7891 O   0  0  0  0  0  0  0  0  0  0  0  0
  2  1  1  1
  2  7  1  0
  2  3  1  0
  4  3  1  0
  4  5  1  0
  5  6  2  0
  5  9  1  0
  7  8  2  0
 10 11  1  0
 10  7  1  0
 11 12  1  1
 12 13  1  0
 13 14  2  0
 14 15  1  0
 16 15  1  0
 17 13  1  0
 17 16  2  0
 18 20  1  0
 18 11  1  0
 19 18  2  0
 21 22  1  6
 21 20  1  0
 22 23  1  0
 23 24  1  0
 24 28  1  0
 24 25  2  0
 26 21  1  0
 27 26  2  0
 29 26  1  0
M  END
$$$$
