EHE.pdb
     RDKit          3D

 29 29  0  0  1  0  0  0  0  0999 V2000
   27.3703  -34.0980   -7.0868 N   0  0  0  0  0  0  0  0  0  0  0  0
   26.8956  -34.9138   -6.0393 C   0  0  1  0  0  0  0  0  0  0  0  0
   26.0959  -36.1115   -6.3848 C   0  0  0  0  0  0  0  0  0  0  0  0
   26.5689  -36.8971   -7.5647 C   0  0  0  0  0  0  0  0  0  0  0  0
   25.6831  -37.9698   -8.0357 C   0  0  0  0  0  0  0  0  0  0  0  0
   24.5458  -38.2493   -7.6223 O   0  0  0  0  0  0  0  0  0  0  0  0
   28.0111  -35.2547   -5.0762 C   0  0  0  0  0  0  0  0  0  0  0  0
   27.7974  -35.8852   -4.0237 O   0  0  0  0  0  0  0  0  0  0  0  0
   26.1947  -38.7627   -9.0737 O   0  0  0  0  0  0  0  0  0  0  0  0
   29.3614  -34.8647   -5.3354 N   0  0  0  0  0  0  0  0  0  0  0  0
   30.4681  -35.2017   -4.4707 C   0  0  1  0  0  0  0  0  0  0  0  0
   31.6490  -34.2866   -4.6757 C   0  0  0  0  0  0  0  0  0  0  0  0
   32.8707  -34.8095   -3.9836 C   0  0  0  0  0  0  0  0  0  0  0  0
   32.9278  -35.9393   -3.2320 C   0  0  0  0  0  0  0  0  0  0  0  0
   34.1724  -36.0883   -2.7724 N   0  0  0  0  0  0  0  0  0  0  0  0
   34.8765  -35.0507   -3.2421 C   0  0  0  0  0  0  0  0  0  0  0  0
   34.0885  -34.2627   -3.9840 N   0  0  0  0  0  0  0  0  0  0  0  0
   30.0978  -35.3876   -3.0672 C   0  0  0  0  0  0  0  0  0  0  0  0
   29.3636  -34.6242   -2.3994 O   0  0  0  0  0  0  0  0  0  0  0  0
   30.5944  -36.5390   -2.3464 N   0  0  0  0  0  0  0  0  0  0  0  0
   30.2723  -36.8069   -0.9710 C   0  0  1  0  0  0  0  0  0  0  0  0
   30.3578  -38.2359   -0.5830 C   0  0  0  0  0  0  0  0  0  0  0  0
   30.0586  -38.6330    0.8037 C   0  0  0  0  0  0  0  0  0  0  0  0
   30.2003  -40.0491    1.0934 C   0  0  0  0  0  0  0  0  0  0  0  0
   31.1668  -40.7298    0.7260 O   0  0  0  0  0  0  0  0  0  0  0  0
   31.1684  -36.0524   -0.0568 C   0  0  0  0  0  0  0  0  0  0  0  0
   32.3801  -35.9706   -0.3243 O   0  0  0  0  0  0  0  0  0  0  0  0
   29.2022  -40.7339    1.8353 O   0  0  0  0  0  0  0  0  0  0  0  0
   30.7027  -35.4316    1.0950 O   0  0  0  0  0  0  0  0  0  0  0  0
  2  1  1  6
  2  7  1  0
  2  3  1  0
  4  3  1  0
  4  5  1  0
  5  6  2  0
  5  9  1  0
  7  8  2  0
 10 11  1  0
 10  7  1  0
 11 12  1  1
 12 13  1  0
 13 14  2  0
 14 15  1  0
 16 15  1  0
 17 13  1  0
 17 16  2  0
 18 20  1  0
 18 11  1  0
 19 18  2  0
 21 22  1  1
 21 20  1  0
 22 23  1  0
 23 24  1  0
 24 28  1  0
 24 25  2  0
 26 21  1  0
 27 26  2  0
 29 26  1  0
M  END
$$$$
