EHE.pdb
     RDKit          3D

 29 29  0  0  1  0  0  0  0  0999 V2000
   26.9960  -18.3840  -18.7780 N   0  0  0  0  0  0  0  0  0  0  0  0
   26.1577  -19.4232  -19.2316 C   0  0  1  0  0  0  0  0  0  0  0  0
   26.7272  -20.4417  -20.1435 C   0  0  0  0  0  0  0  0  0  0  0  0
   27.8611  -21.2482  -19.5989 C   0  0  0  0  0  0  0  0  0  0  0  0
   29.2138  -20.7457  -19.8725 C   0  0  0  0  0  0  0  0  0  0  0  0
   29.8079  -19.8184  -19.2983 O   0  0  0  0  0  0  0  0  0  0  0  0
   25.4259  -20.0667  -18.0746 C   0  0  0  0  0  0  0  0  0  0  0  0
   24.5550  -20.9386  -18.2546 O   0  0  0  0  0  0  0  0  0  0  0  0
   29.9028  -21.3988  -20.9054 O   0  0  0  0  0  0  0  0  0  0  0  0
   25.7044  -19.6981  -16.7222 N   0  0  0  0  0  0  0  0  0  0  0  0
   24.9775  -20.2197  -15.5883 C   0  0  1  0  0  0  0  0  0  0  0  0
   25.8313  -20.2856  -14.3471 C   0  0  0  0  0  0  0  0  0  0  0  0
   25.0728  -20.8686  -13.1939 C   0  0  0  0  0  0  0  0  0  0  0  0
   25.0196  -22.1869  -12.8716 C   0  0  0  0  0  0  0  0  0  0  0  0
   24.2498  -22.3352  -11.7908 N   0  0  0  0  0  0  0  0  0  0  0  0
   23.8322  -21.1088  -11.4520 C   0  0  0  0  0  0  0  0  0  0  0  0
   24.3304  -20.2051  -12.3048 N   0  0  0  0  0  0  0  0  0  0  0  0
   23.6696  -19.5983  -15.3769 C   0  0  0  0  0  0  0  0  0  0  0  0
   23.4390  -18.3677  -15.3725 O   0  0  0  0  0  0  0  0  0  0  0  0
   22.5116  -20.4354  -15.1528 N   0  0  0  0  0  0  0  0  0  0  0  0
   21.2077  -19.9119  -14.8480 C   0  0  1  0  0  0  0  0  0  0  0  0
   20.2629  -19.9016  -15.9913 C   0  0  0  0  0  0  0  0  0  0  0  0
   18.8923  -19.3969  -15.7988 C   0  0  0  0  0  0  0  0  0  0  0  0
   18.0423  -19.4298  -16.9759 C   0  0  0  0  0  0  0  0  0  0  0  0
   18.3600  -19.9874  -18.0344 O   0  0  0  0  0  0  0  0  0  0  0  0
   20.5633  -20.6876  -13.7566 C   0  0  0  0  0  0  0  0  0  0  0  0
   20.8994  -21.8704  -13.5715 O   0  0  0  0  0  0  0  0  0  0  0  0
   16.7687  -18.8026  -16.9601 O   0  0  0  0  0  0  0  0  0  0  0  0
   19.5911  -20.1399  -12.9297 O   0  0  0  0  0  0  0  0  0  0  0  0
  2  1  1  1
  2  7  1  0
  2  3  1  0
  4  3  1  0
  4  5  1  0
  5  6  2  0
  5  9  1  0
  7  8  2  0
 10 11  1  0
 10  7  1  0
 11 12  1  1
 12 13  1  0
 13 14  2  0
 14 15  1  0
 16 15  1  0
 17 13  1  0
 17 16  2  0
 18 20  1  0
 18 11  1  0
 19 18  2  0
 21 22  1  6
 21 20  1  0
 22 23  1  0
 23 24  1  0
 24 28  1  0
 24 25  2  0
 26 21  1  0
 27 26  2  0
 29 26  1  0
M  END
$$$$
