EHE.pdb
     RDKit          3D

 29 29  0  0  1  0  0  0  0  0999 V2000
   17.3650  -10.5039  -12.5711 N   0  0  0  0  0  0  0  0  0  0  0  0
   16.1894   -9.9687  -13.1366 C   0  0  1  0  0  0  0  0  0  0  0  0
   15.1369  -10.9049  -13.5938 C   0  0  0  0  0  0  0  0  0  0  0  0
   15.5654  -12.3211  -13.8026 C   0  0  0  0  0  0  0  0  0  0  0  0
   15.0907  -12.9757  -15.0287 C   0  0  0  0  0  0  0  0  0  0  0  0
   15.4106  -12.7135  -16.1998 O   0  0  0  0  0  0  0  0  0  0  0  0
   15.6155   -8.8822  -12.2543 C   0  0  0  0  0  0  0  0  0  0  0  0
   14.5668   -8.2811  -12.5545 O   0  0  0  0  0  0  0  0  0  0  0  0
   14.1690  -14.0161  -14.8394 O   0  0  0  0  0  0  0  0  0  0  0  0
   16.2563   -8.4989  -11.0358 N   0  0  0  0  0  0  0  0  0  0  0  0
   15.6640   -7.6006  -10.0723 C   0  0  1  0  0  0  0  0  0  0  0  0
   15.2531   -8.3130   -8.8083 C   0  0  0  0  0  0  0  0  0  0  0  0
   14.0210   -9.1380   -9.0233 C   0  0  0  0  0  0  0  0  0  0  0  0
   13.9945  -10.4853   -9.1930 C   0  0  0  0  0  0  0  0  0  0  0  0
   12.7280  -10.8733   -9.3603 N   0  0  0  0  0  0  0  0  0  0  0  0
   11.9800   -9.7647   -9.2932 C   0  0  0  0  0  0  0  0  0  0  0  0
   12.7623   -8.6980   -9.0875 N   0  0  0  0  0  0  0  0  0  0  0  0
   16.4329   -6.3772   -9.8410 C   0  0  0  0  0  0  0  0  0  0  0  0
   17.5660   -6.3171   -9.3117 O   0  0  0  0  0  0  0  0  0  0  0  0
   15.8810   -5.1025  -10.2441 N   0  0  0  0  0  0  0  0  0  0  0  0
   16.5552   -3.8500  -10.0345 C   0  0  1  0  0  0  0  0  0  0  0  0
   16.3720   -2.8596  -11.1233 C   0  0  0  0  0  0  0  0  0  0  0  0
   16.8071   -3.1921  -12.4909 C   0  0  0  0  0  0  0  0  0  0  0  0
   16.4982   -2.1991  -13.5046 C   0  0  0  0  0  0  0  0  0  0  0  0
   15.8805   -1.1519  -13.2714 O   0  0  0  0  0  0  0  0  0  0  0  0
   16.1007   -3.2038   -8.7760 C   0  0  0  0  0  0  0  0  0  0  0  0
   15.1424   -3.6936   -8.1530 O   0  0  0  0  0  0  0  0  0  0  0  0
   16.9060   -2.3952  -14.8503 O   0  0  0  0  0  0  0  0  0  0  0  0
   16.7076   -2.0639   -8.2649 O   0  0  0  0  0  0  0  0  0  0  0  0
  2  1  1  1
  2  7  1  0
  2  3  1  0
  4  3  1  0
  4  5  1  0
  5  6  2  0
  5  9  1  0
  7  8  2  0
 10 11  1  0
 10  7  1  0
 11 12  1  1
 12 13  1  0
 13 14  2  0
 14 15  1  0
 16 15  1  0
 17 13  1  0
 17 16  2  0
 18 20  1  0
 18 11  1  0
 19 18  2  0
 21 22  1  6
 21 20  1  0
 22 23  1  0
 23 24  1  0
 24 28  1  0
 24 25  2  0
 26 21  1  0
 27 26  2  0
 29 26  1  0
M  END
$$$$
