EHE.pdb
     RDKit          3D

 29 29  0  0  1  0  0  0  0  0999 V2000
   15.1911  -25.8772    0.3226 N   0  0  0  0  0  0  0  0  0  0  0  0
   16.5744  -26.0838    0.5026 C   0  0  1  0  0  0  0  0  0  0  0  0
   17.4699  -25.9204   -0.6655 C   0  0  0  0  0  0  0  0  0  0  0  0
   17.1034  -26.7003   -1.8863 C   0  0  0  0  0  0  0  0  0  0  0  0
   17.7390  -28.0155   -2.0394 C   0  0  0  0  0  0  0  0  0  0  0  0
   18.6472  -28.5031   -1.3467 O   0  0  0  0  0  0  0  0  0  0  0  0
   17.0819  -25.3095    1.6990 C   0  0  0  0  0  0  0  0  0  0  0  0
   18.2709  -25.3737    2.0637 O   0  0  0  0  0  0  0  0  0  0  0  0
   17.2534  -28.8012   -3.0953 O   0  0  0  0  0  0  0  0  0  0  0  0
   16.2137  -24.4701    2.4632 N   0  0  0  0  0  0  0  0  0  0  0  0
   16.6497  -23.7047    3.6079 C   0  0  1  0  0  0  0  0  0  0  0  0
   16.0003  -22.3449    3.6635 C   0  0  0  0  0  0  0  0  0  0  0  0
   16.5420  -21.5279    4.7966 C   0  0  0  0  0  0  0  0  0  0  0  0
   17.8398  -21.1587    4.9520 C   0  0  0  0  0  0  0  0  0  0  0  0
   17.9526  -20.4431    6.0734 N   0  0  0  0  0  0  0  0  0  0  0  0
   16.7251  -20.3744    6.6041 C   0  0  0  0  0  0  0  0  0  0  0  0
   15.8555  -21.0353    5.8301 N   0  0  0  0  0  0  0  0  0  0  0  0
   16.6014  -24.4379    4.8734 C   0  0  0  0  0  0  0  0  0  0  0  0
   15.6858  -25.2125    5.2330 O   0  0  0  0  0  0  0  0  0  0  0  0
   17.6826  -24.2913    5.8229 N   0  0  0  0  0  0  0  0  0  0  0  0
   17.6928  -24.9307    7.1106 C   0  0  1  0  0  0  0  0  0  0  0  0
   19.0002  -25.5115    7.5021 C   0  0  0  0  0  0  0  0  0  0  0  0
   19.1086  -26.2852    8.7510 C   0  0  0  0  0  0  0  0  0  0  0  0
   20.4278  -26.8163    9.0456 C   0  0  0  0  0  0  0  0  0  0  0  0
   21.4730  -26.3586    8.5654 O   0  0  0  0  0  0  0  0  0  0  0  0
   17.3002  -23.9787    8.1819 C   0  0  0  0  0  0  0  0  0  0  0  0
   17.7132  -22.8068    8.1347 O   0  0  0  0  0  0  0  0  0  0  0  0
   20.5779  -27.9194    9.9266 O   0  0  0  0  0  0  0  0  0  0  0  0
   16.4850  -24.3497    9.2434 O   0  0  0  0  0  0  0  0  0  0  0  0
  2  1  1  6
  2  7  1  0
  2  3  1  0
  4  3  1  0
  4  5  1  0
  5  6  2  0
  5  9  1  0
  7  8  2  0
 10 11  1  0
 10  7  1  0
 11 12  1  1
 12 13  1  0
 13 14  2  0
 14 15  1  0
 16 15  1  0
 17 13  1  0
 17 16  2  0
 18 20  1  0
 18 11  1  0
 19 18  2  0
 21 22  1  1
 21 20  1  0
 22 23  1  0
 23 24  1  0
 24 28  1  0
 24 25  2  0
 26 21  1  0
 27 26  2  0
 29 26  1  0
M  END
$$$$
