IWG.pdb
     RDKit          3D

 27 28  0  0  1  0  0  0  0  0999 V2000
    7.4789  -12.2899   20.4033 C   0  0  0  0  0  0  0  0  0  0  0  0
    7.7536  -13.6392   21.0654 C   0  0  0  0  0  0  0  0  0  0  0  0
    8.6621  -14.4819   20.2134 C   0  0  2  0  0  0  0  0  0  0  0  0
    7.9915  -14.6906   18.8663 C   0  0  0  0  0  0  0  0  0  0  0  0
    9.0035  -15.7970   20.8364 C   0  0  2  0  0  0  0  0  0  0  0  0
    7.7732  -16.5443   21.0436 N   0  0  0  0  0  0  0  0  0  0  0  0
    9.6523  -15.5991   22.1332 C   0  0  0  0  0  0  0  0  0  0  0  0
   10.7010  -14.9087   22.2122 O   0  0  0  0  0  0  0  0  0  0  0  0
    9.1754  -16.1506   23.3782 N   0  0  0  0  0  0  0  0  0  0  0  0
    9.9074  -16.0238   24.5895 C   0  0  1  0  0  0  0  0  0  0  0  0
    9.1540  -15.9908   25.8578 C   0  0  0  0  0  0  0  0  0  0  0  0
    7.8917  -15.2487   25.8576 C   0  0  0  0  0  0  0  0  0  0  0  0
    6.6153  -15.7064   25.6656 C   0  0  0  0  0  0  0  0  0  0  0  0
    5.7377  -14.6793   25.7610 N   0  0  0  0  0  0  0  0  0  0  0  0
    6.4390  -13.5405   26.0171 C   0  0  0  0  0  0  0  0  0  0  0  0
    6.0261  -12.2360   26.2044 C   0  0  0  0  0  0  0  0  0  0  0  0
    6.9416  -11.2420   26.4585 C   0  0  0  0  0  0  0  0  0  0  0  0
    8.2751  -11.5756   26.5216 C   0  0  0  0  0  0  0  0  0  0  0  0
    8.6745  -12.8764   26.3333 C   0  0  0  0  0  0  0  0  0  0  0  0
    7.7553  -13.8922   26.0753 C   0  0  0  0  0  0  0  0  0  0  0  0
   11.0180  -17.0361   24.6861 C   0  0  0  0  0  0  0  0  0  0  0  0
   11.6257  -17.0875   25.7840 O   0  0  0  0  0  0  0  0  0  0  0  0
   11.3653  -17.8780   23.6230 N   0  0  0  0  0  0  0  0  0  0  0  0
   12.4633  -18.8045   23.7019 C   0  0  0  0  0  0  0  0  0  0  0  0
   13.7716  -18.1470   23.5696 C   0  0  0  0  0  0  0  0  0  0  0  0
   14.4176  -17.5308   24.6240 O   0  0  0  0  0  0  0  0  0  0  0  0
   14.3332  -18.1428   22.4457 O   0  0  0  0  0  0  0  0  0  0  0  0
  1  2  1  0
  3  2  1  0
  3  4  1  6
  5  3  1  0
  5  6  1  1
  7  5  1  0
  7  8  2  0
  9  7  1  0
 10 21  1  0
 10  9  1  0
 10 11  1  1
 12 13  2  0
 12 11  1  0
 14 13  1  0
 15 20  2  0
 15 14  1  0
 16 15  1  0
 17 18  1  0
 17 16  2  0
 18 19  2  0
 19 20  1  0
 20 12  1  0
 21 23  1  0
 22 21  2  0
 23 24  1  0
 24 25  1  0
 25 27  2  0
 25 26  1  0
M  END
$$$$
