IWG.pdb
     RDKit          3D

 27 28  0  0  1  0  0  0  0  0999 V2000
    7.3733  -12.4168   18.5340 C   0  0  0  0  0  0  0  0  0  0  0  0
    7.3314  -13.8046   19.1716 C   0  0  0  0  0  0  0  0  0  0  0  0
    8.0344  -13.8078   20.5010 C   0  0  2  0  0  0  0  0  0  0  0  0
    9.4828  -13.4098   20.2733 C   0  0  0  0  0  0  0  0  0  0  0  0
    7.9587  -15.1238   21.2056 C   0  0  2  0  0  0  0  0  0  0  0  0
    6.5647  -15.5325   21.2744 N   0  0  0  0  0  0  0  0  0  0  0  0
    8.4779  -15.0082   22.5690 C   0  0  0  0  0  0  0  0  0  0  0  0
    8.4720  -13.8928   23.1509 O   0  0  0  0  0  0  0  0  0  0  0  0
    9.0191  -16.1057   23.3333 N   0  0  0  0  0  0  0  0  0  0  0  0
    9.7319  -15.9023   24.5456 C   0  0  1  0  0  0  0  0  0  0  0  0
    9.0072  -16.0846   25.8179 C   0  0  0  0  0  0  0  0  0  0  0  0
    7.7483  -15.3527   25.9723 C   0  0  0  0  0  0  0  0  0  0  0  0
    6.4623  -15.7905   25.7989 C   0  0  0  0  0  0  0  0  0  0  0  0
    5.5935  -14.7849   26.0600 N   0  0  0  0  0  0  0  0  0  0  0  0
    6.3104  -13.6803   26.4070 C   0  0  0  0  0  0  0  0  0  0  0  0
    5.9111  -12.4079   26.7659 C   0  0  0  0  0  0  0  0  0  0  0  0
    6.8414  -11.4460   27.0826 C   0  0  0  0  0  0  0  0  0  0  0  0
    8.1756  -11.7792   27.0338 C   0  0  0  0  0  0  0  0  0  0  0  0
    8.5613  -13.0479   26.6752 C   0  0  0  0  0  0  0  0  0  0  0  0
    7.6271  -14.0310   26.3522 C   0  0  0  0  0  0  0  0  0  0  0  0
   11.0201  -16.6813   24.5801 C   0  0  0  0  0  0  0  0  0  0  0  0
   11.0159  -17.7267   25.2762 O   0  0  0  0  0  0  0  0  0  0  0  0
   12.1645  -16.2771   23.8828 N   0  0  0  0  0  0  0  0  0  0  0  0
   13.4011  -17.0104   23.9418 C   0  0  0  0  0  0  0  0  0  0  0  0
   14.4958  -16.3357   23.2292 C   0  0  0  0  0  0  0  0  0  0  0  0
   15.8108  -16.7546   23.2938 O   0  0  0  0  0  0  0  0  0  0  0  0
   14.2276  -15.3294   22.5264 O   0  0  0  0  0  0  0  0  0  0  0  0
  1  2  1  0
  3  2  1  0
  3  4  1  6
  5  3  1  0
  5  6  1  1
  7  5  1  0
  7  8  2  0
  9  7  1  0
 10 21  1  0
 10  9  1  0
 10 11  1  1
 12 13  2  0
 12 11  1  0
 14 13  1  0
 15 20  2  0
 15 14  1  0
 16 15  1  0
 17 18  1  0
 17 16  2  0
 18 19  2  0
 19 20  1  0
 20 12  1  0
 21 23  1  0
 22 21  2  0
 23 24  1  0
 24 25  1  0
 25 27  2  0
 25 26  1  0
M  END
$$$$
