IWG.pdb
     RDKit          3D

 27 28  0  0  1  0  0  0  0  0999 V2000
   10.2451  -14.6319   29.4344 C   0  0  0  0  0  0  0  0  0  0  0  0
   11.5327  -15.4339   29.2520 C   0  0  0  0  0  0  0  0  0  0  0  0
   11.4193  -16.3760   28.0854 C   0  0  2  0  0  0  0  0  0  0  0  0
   12.0419  -15.7068   26.8720 C   0  0  0  0  0  0  0  0  0  0  0  0
   10.0120  -16.7852   27.7917 C   0  0  2  0  0  0  0  0  0  0  0  0
    9.7440  -18.0424   28.4720 N   0  0  0  0  0  0  0  0  0  0  0  0
    9.8232  -16.9840   26.3542 C   0  0  0  0  0  0  0  0  0  0  0  0
    9.6352  -18.1418   25.8995 O   0  0  0  0  0  0  0  0  0  0  0  0
    9.8362  -15.9253   25.3741 N   0  0  0  0  0  0  0  0  0  0  0  0
    9.4010  -16.1292   24.0368 C   0  0  1  0  0  0  0  0  0  0  0  0
    8.3267  -15.2630   23.5149 C   0  0  0  0  0  0  0  0  0  0  0  0
    7.2993  -14.8373   24.4675 C   0  0  0  0  0  0  0  0  0  0  0  0
    6.3941  -15.5931   25.1639 C   0  0  0  0  0  0  0  0  0  0  0  0
    5.6333  -14.7940   25.9493 N   0  0  0  0  0  0  0  0  0  0  0  0
    6.0392  -13.5067   25.7695 C   0  0  0  0  0  0  0  0  0  0  0  0
    5.5987  -12.3234   26.3290 C   0  0  0  0  0  0  0  0  0  0  0  0
    6.1817  -11.1268   25.9842 C   0  0  0  0  0  0  0  0  0  0  0  0
    7.2113  -11.1350   25.0712 C   0  0  0  0  0  0  0  0  0  0  0  0
    7.6410  -12.3179   24.5207 C   0  0  0  0  0  0  0  0  0  0  0  0
    7.0575  -13.5369   24.8630 C   0  0  0  0  0  0  0  0  0  0  0  0
   10.5519  -16.1499   23.0660 C   0  0  0  0  0  0  0  0  0  0  0  0
   11.4094  -15.2430   23.2052 O   0  0  0  0  0  0  0  0  0  0  0  0
   10.6733  -17.1169   22.0611 N   0  0  0  0  0  0  0  0  0  0  0  0
   11.6960  -17.0532   21.0510 C   0  0  0  0  0  0  0  0  0  0  0  0
   12.9521  -17.6894   21.4739 C   0  0  0  0  0  0  0  0  0  0  0  0
   13.7226  -17.2192   22.5199 O   0  0  0  0  0  0  0  0  0  0  0  0
   13.3480  -18.7102   20.8576 O   0  0  0  0  0  0  0  0  0  0  0  0
  1  2  1  0
  3  2  1  0
  3  4  1  6
  5  3  1  0
  5  6  1  1
  7  5  1  0
  7  8  2  0
  9  7  1  0
 10 21  1  0
 10  9  1  0
 10 11  1  6
 12 13  2  0
 12 11  1  0
 14 13  1  0
 15 20  2  0
 15 14  1  0
 16 15  1  0
 17 18  1  0
 17 16  2  0
 18 19  2  0
 19 20  1  0
 20 12  1  0
 21 23  1  0
 22 21  2  0
 23 24  1  0
 24 25  1  0
 25 27  2  0
 25 26  1  0
M  END
$$$$
