IWG.pdb
     RDKit          3D

 27 28  0  0  1  0  0  0  0  0999 V2000
    7.6533  -13.8393   18.0933 C   0  0  0  0  0  0  0  0  0  0  0  0
    6.7203  -14.0188   19.2899 C   0  0  0  0  0  0  0  0  0  0  0  0
    7.4636  -13.8360   20.5843 C   0  0  2  0  0  0  0  0  0  0  0  0
    8.1929  -12.5045   20.5293 C   0  0  0  0  0  0  0  0  0  0  0  0
    8.4223  -14.9451   20.8761 C   0  0  2  0  0  0  0  0  0  0  0  0
    7.6988  -16.2059   20.8316 N   0  0  0  0  0  0  0  0  0  0  0  0
    9.0010  -14.7872   22.2110 C   0  0  0  0  0  0  0  0  0  0  0  0
    9.3767  -13.6522   22.6025 O   0  0  0  0  0  0  0  0  0  0  0  0
    9.1870  -15.8634   23.1537 N   0  0  0  0  0  0  0  0  0  0  0  0
    9.9112  -15.6901   24.3639 C   0  0  1  0  0  0  0  0  0  0  0  0
    9.1955  -15.8924   25.6383 C   0  0  0  0  0  0  0  0  0  0  0  0
    7.8658  -15.2900   25.7525 C   0  0  0  0  0  0  0  0  0  0  0  0
    6.6345  -15.8638   25.5783 C   0  0  0  0  0  0  0  0  0  0  0  0
    5.6629  -14.9454   25.7946 N   0  0  0  0  0  0  0  0  0  0  0  0
    6.2567  -13.7620   26.1127 C   0  0  0  0  0  0  0  0  0  0  0  0
    5.7231  -12.5267   26.4234 C   0  0  0  0  0  0  0  0  0  0  0  0
    6.5444  -11.4641   26.7187 C   0  0  0  0  0  0  0  0  0  0  0  0
    7.9064  -11.6589   26.6975 C   0  0  0  0  0  0  0  0  0  0  0  0
    8.4261  -12.8919   26.3867 C   0  0  0  0  0  0  0  0  0  0  0  0
    7.6032  -13.9762   26.0859 C   0  0  0  0  0  0  0  0  0  0  0  0
   11.1934  -16.4796   24.3720 C   0  0  0  0  0  0  0  0  0  0  0  0
   11.9654  -16.2711   25.3405 O   0  0  0  0  0  0  0  0  0  0  0  0
   11.5208  -17.3962   23.3659 N   0  0  0  0  0  0  0  0  0  0  0  0
   12.7610  -18.1257   23.3630 C   0  0  0  0  0  0  0  0  0  0  0  0
   12.8344  -19.1249   24.4389 C   0  0  0  0  0  0  0  0  0  0  0  0
   11.8150  -19.3330   25.3478 O   0  0  0  0  0  0  0  0  0  0  0  0
   13.8722  -19.8258   24.5407 O   0  0  0  0  0  0  0  0  0  0  0  0
  1  2  1  0
  3  2  1  0
  3  4  1  6
  5  3  1  0
  5  6  1  1
  7  5  1  0
  7  8  2  0
  9  7  1  0
 10 21  1  0
 10  9  1  0
 10 11  1  1
 12 13  2  0
 12 11  1  0
 14 13  1  0
 15 20  2  0
 15 14  1  0
 16 15  1  0
 17 18  1  0
 17 16  2  0
 18 19  2  0
 19 20  1  0
 20 12  1  0
 21 23  1  0
 22 21  2  0
 23 24  1  0
 24 25  1  0
 25 27  2  0
 25 26  1  0
M  END
$$$$
