IWG.pdb
     RDKit          3D

 27 28  0  0  1  0  0  0  0  0999 V2000
    6.5283  -12.5252   19.3271 C   0  0  0  0  0  0  0  0  0  0  0  0
    7.2242  -13.8729   19.5107 C   0  0  0  0  0  0  0  0  0  0  0  0
    8.0505  -13.8853   20.7671 C   0  0  2  0  0  0  0  0  0  0  0  0
    9.0843  -12.7767   20.6668 C   0  0  0  0  0  0  0  0  0  0  0  0
    8.7163  -15.1990   21.0228 C   0  0  2  0  0  0  0  0  0  0  0  0
    7.6955  -16.2337   21.0702 N   0  0  0  0  0  0  0  0  0  0  0  0
    9.4188  -15.1786   22.3064 C   0  0  0  0  0  0  0  0  0  0  0  0
   10.3446  -14.3498   22.5028 O   0  0  0  0  0  0  0  0  0  0  0  0
    9.1314  -16.0630   23.4095 N   0  0  0  0  0  0  0  0  0  0  0  0
    9.8040  -15.9574   24.6568 C   0  0  1  0  0  0  0  0  0  0  0  0
    9.0083  -16.1016   25.8910 C   0  0  0  0  0  0  0  0  0  0  0  0
    7.7396  -15.3728   25.9485 C   0  0  0  0  0  0  0  0  0  0  0  0
    6.4623  -15.8386   25.7842 C   0  0  0  0  0  0  0  0  0  0  0  0
    5.5784  -14.8233   25.9327 N   0  0  0  0  0  0  0  0  0  0  0  0
    6.2765  -13.6842   26.1960 C   0  0  0  0  0  0  0  0  0  0  0  0
    5.8572  -12.3891   26.4292 C   0  0  0  0  0  0  0  0  0  0  0  0
    6.7707  -11.3925   26.6803 C   0  0  0  0  0  0  0  0  0  0  0  0
    8.1087  -11.7139   26.6939 C   0  0  0  0  0  0  0  0  0  0  0  0
    8.5143  -13.0053   26.4603 C   0  0  0  0  0  0  0  0  0  0  0  0
    7.5972  -14.0237   26.2048 C   0  0  0  0  0  0  0  0  0  0  0  0
   11.0112  -16.8549   24.7244 C   0  0  0  0  0  0  0  0  0  0  0  0
   11.2927  -17.3191   25.8569 O   0  0  0  0  0  0  0  0  0  0  0  0
   11.7853  -17.1633   23.5996 N   0  0  0  0  0  0  0  0  0  0  0  0
   12.9051  -18.0649   23.6594 C   0  0  0  0  0  0  0  0  0  0  0  0
   13.5101  -18.3071   22.3415 C   0  0  0  0  0  0  0  0  0  0  0  0
   13.0196  -17.7579   21.1725 O   0  0  0  0  0  0  0  0  0  0  0  0
   14.5219  -19.0483   22.2699 O   0  0  0  0  0  0  0  0  0  0  0  0
  1  2  1  0
  3  2  1  0
  3  4  1  6
  5  3  1  0
  5  6  1  1
  7  5  1  0
  7  8  2  0
  9  7  1  0
 10 21  1  0
 10  9  1  0
 10 11  1  1
 12 13  2  0
 12 11  1  0
 14 13  1  0
 15 20  2  0
 15 14  1  0
 16 15  1  0
 17 18  1  0
 17 16  2  0
 18 19  2  0
 19 20  1  0
 20 12  1  0
 21 23  1  0
 22 21  2  0
 23 24  1  0
 24 25  1  0
 25 27  2  0
 25 26  1  0
M  END
$$$$
