IWG.pdb
     RDKit          3D

 27 28  0  0  1  0  0  0  0  0999 V2000
    6.6900  -12.6245   19.1074 C   0  0  0  0  0  0  0  0  0  0  0  0
    7.2287  -14.0241   19.3997 C   0  0  0  0  0  0  0  0  0  0  0  0
    8.0804  -14.0251   20.6391 C   0  0  2  0  0  0  0  0  0  0  0  0
    9.1867  -13.0001   20.4561 C   0  0  0  0  0  0  0  0  0  0  0  0
    8.6583  -15.3664   20.9571 C   0  0  2  0  0  0  0  0  0  0  0  0
    7.5682  -16.3191   21.0954 N   0  0  0  0  0  0  0  0  0  0  0  0
    9.4002  -15.3213   22.2177 C   0  0  0  0  0  0  0  0  0  0  0  0
   10.3960  -14.5614   22.3338 O   0  0  0  0  0  0  0  0  0  0  0  0
    9.0767  -16.1054   23.3849 N   0  0  0  0  0  0  0  0  0  0  0  0
    9.8390  -16.0275   24.5816 C   0  0  1  0  0  0  0  0  0  0  0  0
    9.1145  -15.9707   25.8657 C   0  0  0  0  0  0  0  0  0  0  0  0
    7.8153  -15.2951   25.8624 C   0  0  0  0  0  0  0  0  0  0  0  0
    6.5667  -15.8149   25.6470 C   0  0  0  0  0  0  0  0  0  0  0  0
    5.6359  -14.8364   25.7488 N   0  0  0  0  0  0  0  0  0  0  0  0
    6.2742  -13.6674   26.0325 C   0  0  0  0  0  0  0  0  0  0  0  0
    5.7918  -12.3895   26.2366 C   0  0  0  0  0  0  0  0  0  0  0  0
    6.6515  -11.3540   26.5186 C   0  0  0  0  0  0  0  0  0  0  0  0
    7.9997  -11.6192   26.5926 C   0  0  0  0  0  0  0  0  0  0  0  0
    8.4684  -12.8941   26.3875 C   0  0  0  0  0  0  0  0  0  0  0  0
    7.6062  -13.9515   26.1011 C   0  0  0  0  0  0  0  0  0  0  0  0
   10.8999  -17.0942   24.6451 C   0  0  0  0  0  0  0  0  0  0  0  0
   10.6269  -18.1054   25.3382 O   0  0  0  0  0  0  0  0  0  0  0  0
   12.1245  -16.9805   23.9765 N   0  0  0  0  0  0  0  0  0  0  0  0
   13.0910  -18.0461   23.9537 C   0  0  0  0  0  0  0  0  0  0  0  0
   14.2835  -17.7141   23.1606 C   0  0  0  0  0  0  0  0  0  0  0  0
   15.5727  -17.8809   23.6285 O   0  0  0  0  0  0  0  0  0  0  0  0
   14.1279  -17.2564   22.0009 O   0  0  0  0  0  0  0  0  0  0  0  0
  1  2  1  0
  3  2  1  0
  3  4  1  6
  5  3  1  0
  5  6  1  1
  7  5  1  0
  7  8  2  0
  9  7  1  0
 10 21  1  0
 10  9  1  0
 10 11  1  1
 12 13  2  0
 12 11  1  0
 14 13  1  0
 15 20  2  0
 15 14  1  0
 16 15  1  0
 17 18  1  0
 17 16  2  0
 18 19  2  0
 19 20  1  0
 20 12  1  0
 21 23  1  0
 22 21  2  0
 23 24  1  0
 24 25  1  0
 25 27  2  0
 25 26  1  0
M  END
$$$$
