IWG.pdb
     RDKit          3D

 27 28  0  0  1  0  0  0  0  0999 V2000
    6.6868  -12.3395   19.2190 C   0  0  0  0  0  0  0  0  0  0  0  0
    7.2435  -13.7505   19.4021 C   0  0  0  0  0  0  0  0  0  0  0  0
    8.1293  -13.8265   20.6149 C   0  0  2  0  0  0  0  0  0  0  0  0
    9.2708  -12.8408   20.4319 C   0  0  0  0  0  0  0  0  0  0  0  0
    8.6609  -15.1996   20.8725 C   0  0  2  0  0  0  0  0  0  0  0  0
    7.5371  -16.1101   21.0239 N   0  0  0  0  0  0  0  0  0  0  0  0
    9.4490  -15.2234   22.1054 C   0  0  0  0  0  0  0  0  0  0  0  0
   10.5003  -14.5380   22.1923 O   0  0  0  0  0  0  0  0  0  0  0  0
    9.1122  -15.9968   23.2759 N   0  0  0  0  0  0  0  0  0  0  0  0
    9.8945  -15.9518   24.4613 C   0  0  1  0  0  0  0  0  0  0  0  0
    9.1928  -15.9682   25.7592 C   0  0  0  0  0  0  0  0  0  0  0  0
    7.8919  -15.2984   25.8158 C   0  0  0  0  0  0  0  0  0  0  0  0
    6.6392  -15.8161   25.6203 C   0  0  0  0  0  0  0  0  0  0  0  0
    5.7086  -14.8454   25.7811 N   0  0  0  0  0  0  0  0  0  0  0  0
    6.3511  -13.6836   26.0839 C   0  0  0  0  0  0  0  0  0  0  0  0
    5.8707  -12.4150   26.3435 C   0  0  0  0  0  0  0  0  0  0  0  0
    6.7349  -11.3856   26.6338 C   0  0  0  0  0  0  0  0  0  0  0  0
    8.0856  -11.6473   26.6596 C   0  0  0  0  0  0  0  0  0  0  0  0
    8.5522  -12.9129   26.3995 C   0  0  0  0  0  0  0  0  0  0  0  0
    7.6855  -13.9641   26.1042 C   0  0  0  0  0  0  0  0  0  0  0  0
   10.9815  -16.9938   24.4597 C   0  0  0  0  0  0  0  0  0  0  0  0
   10.6910  -18.0955   23.9313 O   0  0  0  0  0  0  0  0  0  0  0  0
   12.2473  -16.7637   25.0113 N   0  0  0  0  0  0  0  0  0  0  0  0
   13.4183  -16.5717   24.1976 C   0  0  0  0  0  0  0  0  0  0  0  0
   14.0471  -17.8396   23.7993 C   0  0  0  0  0  0  0  0  0  0  0  0
   14.2569  -18.1978   22.4816 O   0  0  0  0  0  0  0  0  0  0  0  0
   14.4129  -18.6390   24.6969 O   0  0  0  0  0  0  0  0  0  0  0  0
  1  2  1  0
  3  2  1  0
  3  4  1  6
  5  3  1  0
  5  6  1  1
  7  5  1  0
  7  8  2  0
  9  7  1  0
 10 21  1  0
 10  9  1  0
 10 11  1  1
 12 13  2  0
 12 11  1  0
 14 13  1  0
 15 20  2  0
 15 14  1  0
 16 15  1  0
 17 18  1  0
 17 16  2  0
 18 19  2  0
 19 20  1  0
 20 12  1  0
 21 23  1  0
 22 21  2  0
 23 24  1  0
 24 25  1  0
 25 27  2  0
 25 26  1  0
M  END
$$$$
