IWG.pdb
     RDKit          3D

 27 28  0  0  1  0  0  0  0  0999 V2000
   36.3596 -114.0850    0.4645 C   0  0  0  0  0  0  0  0  0  0  0  0
   36.9154 -114.7828   -0.7759 C   0  0  0  0  0  0  0  0  0  0  0  0
   36.8679 -113.8728   -1.9722 C   0  0  2  0  0  0  0  0  0  0  0  0
   36.5098 -114.7075   -3.1900 C   0  0  0  0  0  0  0  0  0  0  0  0
   38.1465 -113.1338   -2.2029 C   0  0  2  0  0  0  0  0  0  0  0  0
   38.2766 -112.1047   -1.1836 N   0  0  0  0  0  0  0  0  0  0  0  0
   38.1386 -112.4896   -3.5169 C   0  0  0  0  0  0  0  0  0  0  0  0
   37.5719 -111.3765   -3.6674 O   0  0  0  0  0  0  0  0  0  0  0  0
   38.7471 -113.0431   -4.7021 N   0  0  0  0  0  0  0  0  0  0  0  0
   40.0460 -113.6191   -4.6852 C   0  0  1  0  0  0  0  0  0  0  0  0
   40.3378 -114.6479   -3.6686 C   0  0  0  0  0  0  0  0  0  0  0  0
   41.7416 -114.8256   -3.2920 C   0  0  0  0  0  0  0  0  0  0  0  0
   42.3885 -115.9521   -2.8583 C   0  0  0  0  0  0  0  0  0  0  0  0
   43.6951 -115.6758   -2.6328 N   0  0  0  0  0  0  0  0  0  0  0  0
   43.9095 -114.3620   -2.9194 C   0  0  0  0  0  0  0  0  0  0  0  0
   45.0525 -113.5891   -2.8610 C   0  0  0  0  0  0  0  0  0  0  0  0
   45.0170 -112.2599   -3.2118 C   0  0  0  0  0  0  0  0  0  0  0  0
   43.8198 -111.7188   -3.6210 C   0  0  0  0  0  0  0  0  0  0  0  0
   42.6890 -112.4970   -3.6750 C   0  0  0  0  0  0  0  0  0  0  0  0
   42.7133 -113.8454   -3.3219 C   0  0  0  0  0  0  0  0  0  0  0  0
   40.4595 -114.1180   -6.0444 C   0  0  0  0  0  0  0  0  0  0  0  0
   41.5189 -113.6327   -6.5131 O   0  0  0  0  0  0  0  0  0  0  0  0
   39.7174 -115.0670   -6.7572 N   0  0  0  0  0  0  0  0  0  0  0  0
   38.5470 -114.7164   -7.5171 C   0  0  0  0  0  0  0  0  0  0  0  0
   38.3576 -115.5741   -8.6961 C   0  0  0  0  0  0  0  0  0  0  0  0
   39.0719 -116.7378   -8.9066 O   0  0  0  0  0  0  0  0  0  0  0  0
   37.5062 -115.2368   -9.5563 O   0  0  0  0  0  0  0  0  0  0  0  0
  1  2  1  0
  3  2  1  0
  3  4  1  6
  5  3  1  0
  5  6  1  1
  7  5  1  0
  7  8  2  0
  9  7  1  0
 10 21  1  0
 10  9  1  0
 10 11  1  1
 12 13  2  0
 12 11  1  0
 14 13  1  0
 15 20  2  0
 15 14  1  0
 16 15  1  0
 17 18  1  0
 17 16  2  0
 18 19  2  0
 19 20  1  0
 20 12  1  0
 21 23  1  0
 22 21  2  0
 23 24  1  0
 24 25  1  0
 25 27  2  0
 25 26  1  0
M  END
$$$$
