IWG.pdb
     RDKit          3D

 27 28  0  0  1  0  0  0  0  0999 V2000
    5.5618  -21.2683   19.2436 C   0  0  0  0  0  0  0  0  0  0  0  0
    5.0351  -21.0978   20.6676 C   0  0  0  0  0  0  0  0  0  0  0  0
    5.5465  -19.8240   21.2818 C   0  0  2  0  0  0  0  0  0  0  0  0
    7.0650  -19.8615   21.2585 C   0  0  0  0  0  0  0  0  0  0  0  0
    5.0507  -19.5993   22.6739 C   0  0  2  0  0  0  0  0  0  0  0  0
    3.6056  -19.4411   22.6306 N   0  0  0  0  0  0  0  0  0  0  0  0
    5.6357  -18.3824   23.2384 C   0  0  0  0  0  0  0  0  0  0  0  0
    5.1722  -17.2568   22.9209 O   0  0  0  0  0  0  0  0  0  0  0  0
    6.7431  -18.3608   24.1629 N   0  0  0  0  0  0  0  0  0  0  0  0
    7.3725  -17.1499   24.5587 C   0  0  1  0  0  0  0  0  0  0  0  0
    7.1745  -16.6832   25.9444 C   0  0  0  0  0  0  0  0  0  0  0  0
    7.8174  -15.4208   26.3149 C   0  0  0  0  0  0  0  0  0  0  0  0
    9.0793  -15.1978   26.7978 C   0  0  0  0  0  0  0  0  0  0  0  0
    9.2698  -13.8716   26.9958 N   0  0  0  0  0  0  0  0  0  0  0  0
    8.1286  -13.2186   26.6416 C   0  0  0  0  0  0  0  0  0  0  0  0
    7.8044  -11.8761   26.6496 C   0  0  0  0  0  0  0  0  0  0  0  0
    6.5639  -11.4535   26.2332 C   0  0  0  0  0  0  0  0  0  0  0  0
    5.6552  -12.3961   25.8097 C   0  0  0  0  0  0  0  0  0  0  0  0
    5.9884  -13.7287   25.8064 C   0  0  0  0  0  0  0  0  0  0  0  0
    7.2429  -14.1686   26.2261 C   0  0  0  0  0  0  0  0  0  0  0  0
    8.8413  -17.1429   24.2266 C   0  0  0  0  0  0  0  0  0  0  0  0
    9.4822  -18.1792   24.5310 O   0  0  0  0  0  0  0  0  0  0  0  0
    9.4707  -16.0526   23.6146 N   0  0  0  0  0  0  0  0  0  0  0  0
   10.7525  -16.1656   22.9709 C   0  0  0  0  0  0  0  0  0  0  0  0
   11.8642  -16.2465   23.9296 C   0  0  0  0  0  0  0  0  0  0  0  0
   12.1093  -17.3598   24.7102 O   0  0  0  0  0  0  0  0  0  0  0  0
   12.6309  -15.2583   24.0482 O   0  0  0  0  0  0  0  0  0  0  0  0
  1  2  1  0
  3  2  1  0
  3  4  1  1
  5  3  1  0
  5  6  1  6
  7  5  1  0
  7  8  2  0
  9  7  1  0
 10 21  1  0
 10  9  1  0
 10 11  1  1
 12 13  2  0
 12 11  1  0
 14 13  1  0
 15 20  2  0
 15 14  1  0
 16 15  1  0
 17 18  1  0
 17 16  2  0
 18 19  2  0
 19 20  1  0
 20 12  1  0
 21 23  1  0
 22 21  2  0
 23 24  1  0
 24 25  1  0
 25 27  2  0
 25 26  1  0
M  END
$$$$
