IWG.pdb
     RDKit          3D

 27 28  0  0  1  0  0  0  0  0999 V2000
    6.9365  -12.5121   20.3971 C   0  0  0  0  0  0  0  0  0  0  0  0
    7.3709  -13.8302   21.0361 C   0  0  0  0  0  0  0  0  0  0  0  0
    8.4647  -14.4817   20.2357 C   0  0  2  0  0  0  0  0  0  0  0  0
    7.9210  -14.7899   18.8510 C   0  0  0  0  0  0  0  0  0  0  0  0
    9.0042  -15.7214   20.8731 C   0  0  2  0  0  0  0  0  0  0  0  0
    7.9097  -16.6611   21.0571 N   0  0  0  0  0  0  0  0  0  0  0  0
    9.5820  -15.4171   22.1827 C   0  0  0  0  0  0  0  0  0  0  0  0
   10.4729  -14.5349   22.2867 O   0  0  0  0  0  0  0  0  0  0  0  0
    9.2047  -16.0681   23.4137 N   0  0  0  0  0  0  0  0  0  0  0  0
    9.9094  -15.8522   24.6286 C   0  0  1  0  0  0  0  0  0  0  0  0
    9.1491  -15.9011   25.8923 C   0  0  0  0  0  0  0  0  0  0  0  0
    7.8623  -15.2028   25.9169 C   0  0  0  0  0  0  0  0  0  0  0  0
    6.6052  -15.6898   25.6760 C   0  0  0  0  0  0  0  0  0  0  0  0
    5.6917  -14.7003   25.8200 N   0  0  0  0  0  0  0  0  0  0  0  0
    6.3500  -13.5570   26.1573 C   0  0  0  0  0  0  0  0  0  0  0  0
    5.8901  -12.2810   26.4178 C   0  0  0  0  0  0  0  0  0  0  0  0
    6.7674  -11.2749   26.7478 C   0  0  0  0  0  0  0  0  0  0  0  0
    8.1104  -11.5674   26.8123 C   0  0  0  0  0  0  0  0  0  0  0  0
    8.5567  -12.8400   26.5509 C   0  0  0  0  0  0  0  0  0  0  0  0
    7.6765  -13.8677   26.2155 C   0  0  0  0  0  0  0  0  0  0  0  0
   11.1289  -16.7289   24.7368 C   0  0  0  0  0  0  0  0  0  0  0  0
   11.0347  -17.7149   25.5089 O   0  0  0  0  0  0  0  0  0  0  0  0
   12.3069  -16.4731   24.0250 N   0  0  0  0  0  0  0  0  0  0  0  0
   13.4543  -17.3380   24.0992 C   0  0  0  0  0  0  0  0  0  0  0  0
   14.6074  -16.8168   23.3507 C   0  0  0  0  0  0  0  0  0  0  0  0
   14.5002  -16.2528   22.0941 O   0  0  0  0  0  0  0  0  0  0  0  0
   15.7471  -16.8854   23.8750 O   0  0  0  0  0  0  0  0  0  0  0  0
  1  2  1  0
  3  2  1  0
  3  4  1  6
  5  3  1  0
  5  6  1  1
  7  5  1  0
  7  8  2  0
  9  7  1  0
 10 21  1  0
 10  9  1  0
 10 11  1  1
 12 13  2  0
 12 11  1  0
 14 13  1  0
 15 20  2  0
 15 14  1  0
 16 15  1  0
 17 18  1  0
 17 16  2  0
 18 19  2  0
 19 20  1  0
 20 12  1  0
 21 23  1  0
 22 21  2  0
 23 24  1  0
 24 25  1  0
 25 27  2  0
 25 26  1  0
M  END
$$$$
