IWG.pdb
     RDKit          3D

 27 28  0  0  1  0  0  0  0  0999 V2000
    7.6266  -12.1015   20.4463 C   0  0  0  0  0  0  0  0  0  0  0  0
    7.7808  -13.4826   21.0813 C   0  0  0  0  0  0  0  0  0  0  0  0
    8.6319  -14.3775   20.2234 C   0  0  2  0  0  0  0  0  0  0  0  0
    7.9649  -14.5076   18.8647 C   0  0  0  0  0  0  0  0  0  0  0  0
    8.8614  -15.7269   20.8240 C   0  0  2  0  0  0  0  0  0  0  0  0
    7.5705  -16.3523   21.0641 N   0  0  0  0  0  0  0  0  0  0  0  0
    9.5663  -15.6086   22.1011 C   0  0  0  0  0  0  0  0  0  0  0  0
   10.6729  -15.0128   22.1550 O   0  0  0  0  0  0  0  0  0  0  0  0
    9.0836  -16.1386   23.3532 N   0  0  0  0  0  0  0  0  0  0  0  0
    9.8144  -15.9991   24.5638 C   0  0  1  0  0  0  0  0  0  0  0  0
    9.0703  -16.0582   25.8366 C   0  0  0  0  0  0  0  0  0  0  0  0
    7.7911  -15.3474   25.8881 C   0  0  0  0  0  0  0  0  0  0  0  0
    6.5209  -15.8324   25.7242 C   0  0  0  0  0  0  0  0  0  0  0  0
    5.6223  -14.8291   25.8658 N   0  0  0  0  0  0  0  0  0  0  0  0
    6.3035  -13.6787   26.1243 C   0  0  0  0  0  0  0  0  0  0  0  0
    5.8652  -12.3886   26.3499 C   0  0  0  0  0  0  0  0  0  0  0  0
    6.7638  -11.3777   26.5974 C   0  0  0  0  0  0  0  0  0  0  0  0
    8.1062  -11.6797   26.6149 C   0  0  0  0  0  0  0  0  0  0  0  0
    8.5308  -12.9664   26.3888 C   0  0  0  0  0  0  0  0  0  0  0  0
    7.6289  -13.9992   26.1371 C   0  0  0  0  0  0  0  0  0  0  0  0
   10.9932  -16.9342   24.6221 C   0  0  0  0  0  0  0  0  0  0  0  0
   11.6852  -16.8874   25.6691 O   0  0  0  0  0  0  0  0  0  0  0  0
   11.3128  -17.8105   23.5783 N   0  0  0  0  0  0  0  0  0  0  0  0
   12.4144  -18.7326   23.6573 C   0  0  0  0  0  0  0  0  0  0  0  0
   13.6534  -18.1876   23.0834 C   0  0  0  0  0  0  0  0  0  0  0  0
   14.5596  -17.4418   23.8123 O   0  0  0  0  0  0  0  0  0  0  0  0
   13.9046  -18.4081   21.8723 O   0  0  0  0  0  0  0  0  0  0  0  0
  1  2  1  0
  3  2  1  0
  3  4  1  6
  5  3  1  0
  5  6  1  1
  7  5  1  0
  7  8  2  0
  9  7  1  0
 10 21  1  0
 10  9  1  0
 10 11  1  1
 12 13  2  0
 12 11  1  0
 14 13  1  0
 15 20  2  0
 15 14  1  0
 16 15  1  0
 17 18  1  0
 17 16  2  0
 18 19  2  0
 19 20  1  0
 20 12  1  0
 21 23  1  0
 22 21  2  0
 23 24  1  0
 24 25  1  0
 25 27  2  0
 25 26  1  0
M  END
$$$$
