IWG.pdb
     RDKit          3D

 27 28  0  0  1  0  0  0  0  0999 V2000
    6.6640  -12.7321   19.2023 C   0  0  0  0  0  0  0  0  0  0  0  0
    7.2562  -14.1068   19.5083 C   0  0  0  0  0  0  0  0  0  0  0  0
    8.1244  -14.0581   20.7353 C   0  0  2  0  0  0  0  0  0  0  0  0
    9.1830  -12.9887   20.5260 C   0  0  0  0  0  0  0  0  0  0  0  0
    8.7637  -15.3700   21.0585 C   0  0  2  0  0  0  0  0  0  0  0  0
    7.7273  -16.3887   21.1139 N   0  0  0  0  0  0  0  0  0  0  0  0
    9.4290  -15.3112   22.3607 C   0  0  0  0  0  0  0  0  0  0  0  0
   10.3387  -14.4662   22.5637 O   0  0  0  0  0  0  0  0  0  0  0  0
    9.1210  -16.1736   23.4755 N   0  0  0  0  0  0  0  0  0  0  0  0
    9.8759  -16.1501   24.6792 C   0  0  1  0  0  0  0  0  0  0  0  0
    9.1463  -16.0283   25.9559 C   0  0  0  0  0  0  0  0  0  0  0  0
    7.8673  -15.3163   25.9210 C   0  0  0  0  0  0  0  0  0  0  0  0
    6.6191  -15.7876   25.6121 C   0  0  0  0  0  0  0  0  0  0  0  0
    5.7099  -14.7894   25.7180 N   0  0  0  0  0  0  0  0  0  0  0  0
    6.3620  -13.6561   26.0984 C   0  0  0  0  0  0  0  0  0  0  0  0
    5.9027  -12.3774   26.3462 C   0  0  0  0  0  0  0  0  0  0  0  0
    6.7724  -11.3837   26.7293 C   0  0  0  0  0  0  0  0  0  0  0  0
    8.1073  -11.6912   26.8596 C   0  0  0  0  0  0  0  0  0  0  0  0
    8.5531  -12.9664   26.6102 C   0  0  0  0  0  0  0  0  0  0  0  0
    7.6805  -13.9817   26.2214 C   0  0  0  0  0  0  0  0  0  0  0  0
   10.8474  -17.2979   24.7582 C   0  0  0  0  0  0  0  0  0  0  0  0
   10.4890  -18.2790   25.4555 O   0  0  0  0  0  0  0  0  0  0  0  0
   12.0823  -17.2872   24.0990 N   0  0  0  0  0  0  0  0  0  0  0  0
   12.9829  -18.4087   24.1333 C   0  0  0  0  0  0  0  0  0  0  0  0
   14.1480  -18.2283   23.2550 C   0  0  0  0  0  0  0  0  0  0  0  0
   15.3052  -18.9739   23.3721 O   0  0  0  0  0  0  0  0  0  0  0  0
   14.0934  -17.3554   22.3530 O   0  0  0  0  0  0  0  0  0  0  0  0
  1  2  1  0
  3  2  1  0
  3  4  1  6
  5  3  1  0
  5  6  1  1
  7  5  1  0
  7  8  2  0
  9  7  1  0
 10 21  1  0
 10  9  1  0
 10 11  1  1
 12 13  2  0
 12 11  1  0
 14 13  1  0
 15 20  2  0
 15 14  1  0
 16 15  1  0
 17 18  1  0
 17 16  2  0
 18 19  2  0
 19 20  1  0
 20 12  1  0
 21 23  1  0
 22 21  2  0
 23 24  1  0
 24 25  1  0
 25 27  2  0
 25 26  1  0
M  END
$$$$
