IWG.pdb
     RDKit          3D

 27 28  0  0  1  0  0  0  0  0999 V2000
    6.7057  -12.8728   18.7963 C   0  0  0  0  0  0  0  0  0  0  0  0
    7.3631  -14.2024   19.1625 C   0  0  0  0  0  0  0  0  0  0  0  0
    8.0893  -14.1003   20.4754 C   0  0  2  0  0  0  0  0  0  0  0  0
    9.1075  -12.9779   20.3690 C   0  0  0  0  0  0  0  0  0  0  0  0
    8.7569  -15.3746   20.8813 C   0  0  2  0  0  0  0  0  0  0  0  0
    7.7634  -16.4366   20.8856 N   0  0  0  0  0  0  0  0  0  0  0  0
    9.3173  -15.2556   22.2280 C   0  0  0  0  0  0  0  0  0  0  0  0
   10.1671  -14.3624   22.4782 O   0  0  0  0  0  0  0  0  0  0  0  0
    8.9669  -16.1090   23.3373 N   0  0  0  0  0  0  0  0  0  0  0  0
    9.6623  -16.0610   24.5756 C   0  0  1  0  0  0  0  0  0  0  0  0
    8.8777  -16.1817   25.8194 C   0  0  0  0  0  0  0  0  0  0  0  0
    7.6837  -15.3415   25.9320 C   0  0  0  0  0  0  0  0  0  0  0  0
    6.3696  -15.6679   25.7269 C   0  0  0  0  0  0  0  0  0  0  0  0
    5.5850  -14.5877   25.9544 N   0  0  0  0  0  0  0  0  0  0  0  0
    6.3858  -13.5456   26.3109 C   0  0  0  0  0  0  0  0  0  0  0  0
    6.0894  -12.2391   26.6467 C   0  0  0  0  0  0  0  0  0  0  0  0
    7.0911  -11.3581   26.9802 C   0  0  0  0  0  0  0  0  0  0  0  0
    8.3921  -11.8064   26.9716 C   0  0  0  0  0  0  0  0  0  0  0  0
    8.6752  -13.1079   26.6356 C   0  0  0  0  0  0  0  0  0  0  0  0
    7.6679  -14.0098   26.2960 C   0  0  0  0  0  0  0  0  0  0  0  0
   10.8190  -17.0244   24.6107 C   0  0  0  0  0  0  0  0  0  0  0  0
   10.7188  -17.9800   25.4195 O   0  0  0  0  0  0  0  0  0  0  0  0
   11.9478  -16.8773   23.7959 N   0  0  0  0  0  0  0  0  0  0  0  0
   13.0546  -17.7954   23.8409 C   0  0  0  0  0  0  0  0  0  0  0  0
   14.1799  -17.3700   22.9958 C   0  0  0  0  0  0  0  0  0  0  0  0
   15.3948  -18.0272   22.9680 O   0  0  0  0  0  0  0  0  0  0  0  0
   14.0344  -16.3609   22.2616 O   0  0  0  0  0  0  0  0  0  0  0  0
  1  2  1  0
  3  2  1  0
  3  4  1  6
  5  3  1  0
  5  6  1  1
  7  5  1  0
  7  8  2  0
  9  7  1  0
 10 21  1  0
 10  9  1  0
 10 11  1  1
 12 13  2  0
 12 11  1  0
 14 13  1  0
 15 20  2  0
 15 14  1  0
 16 15  1  0
 17 18  1  0
 17 16  2  0
 18 19  2  0
 19 20  1  0
 20 12  1  0
 21 23  1  0
 22 21  2  0
 23 24  1  0
 24 25  1  0
 25 27  2  0
 25 26  1  0
M  END
$$$$
