IWG.pdb
     RDKit          3D

 27 28  0  0  1  0  0  0  0  0999 V2000
    6.4836  -12.8138   18.8549 C   0  0  0  0  0  0  0  0  0  0  0  0
    7.1798  -14.1305   19.1953 C   0  0  0  0  0  0  0  0  0  0  0  0
    7.9651  -14.0098   20.4722 C   0  0  2  0  0  0  0  0  0  0  0  0
    8.9312  -12.8464   20.3275 C   0  0  0  0  0  0  0  0  0  0  0  0
    8.7021  -15.2594   20.8322 C   0  0  2  0  0  0  0  0  0  0  0  0
    7.7449  -16.3502   20.9273 N   0  0  0  0  0  0  0  0  0  0  0  0
    9.3674  -15.1094   22.1270 C   0  0  0  0  0  0  0  0  0  0  0  0
   10.2356  -14.2132   22.2871 O   0  0  0  0  0  0  0  0  0  0  0  0
    9.1046  -15.9342   23.2813 N   0  0  0  0  0  0  0  0  0  0  0  0
    9.8905  -15.8523   24.4623 C   0  0  1  0  0  0  0  0  0  0  0  0
    9.1982  -15.9075   25.7641 C   0  0  0  0  0  0  0  0  0  0  0  0
    7.9035  -15.2294   25.8536 C   0  0  0  0  0  0  0  0  0  0  0  0
    6.6451  -15.7299   25.6500 C   0  0  0  0  0  0  0  0  0  0  0  0
    5.7239  -14.7576   25.8510 N   0  0  0  0  0  0  0  0  0  0  0  0
    6.3784  -13.6122   26.1885 C   0  0  0  0  0  0  0  0  0  0  0  0
    5.9107  -12.3494   26.4951 C   0  0  0  0  0  0  0  0  0  0  0  0
    6.7857  -11.3377   26.8139 C   0  0  0  0  0  0  0  0  0  0  0  0
    8.1343  -11.6112   26.8205 C   0  0  0  0  0  0  0  0  0  0  0  0
    8.5882  -12.8709   26.5136 C   0  0  0  0  0  0  0  0  0  0  0  0
    7.7105  -13.9042   26.1891 C   0  0  0  0  0  0  0  0  0  0  0  0
   11.0292  -16.8376   24.4517 C   0  0  0  0  0  0  0  0  0  0  0  0
   10.7303  -18.0311   24.7040 O   0  0  0  0  0  0  0  0  0  0  0  0
   12.3495  -16.4612   24.1786 N   0  0  0  0  0  0  0  0  0  0  0  0
   13.4329  -17.4079   24.1656 C   0  0  0  0  0  0  0  0  0  0  0  0
   14.7450  -16.7669   23.9958 C   0  0  0  0  0  0  0  0  0  0  0  0
   15.5612  -16.4236   25.0564 O   0  0  0  0  0  0  0  0  0  0  0  0
   15.1479  -16.5174   22.8322 O   0  0  0  0  0  0  0  0  0  0  0  0
  1  2  1  0
  3  2  1  0
  3  4  1  6
  5  3  1  0
  5  6  1  1
  7  5  1  0
  7  8  2  0
  9  7  1  0
 10 21  1  0
 10  9  1  0
 10 11  1  1
 12 13  2  0
 12 11  1  0
 14 13  1  0
 15 20  2  0
 15 14  1  0
 16 15  1  0
 17 18  1  0
 17 16  2  0
 18 19  2  0
 19 20  1  0
 20 12  1  0
 21 23  1  0
 22 21  2  0
 23 24  1  0
 24 25  1  0
 25 27  2  0
 25 26  1  0
M  END
$$$$
