WRD.pdb
     RDKit          3D

 34 35  0  0  1  0  0  0  0  0999 V2000
    6.3936  -18.5071   24.8903 N   0  0  0  0  0  0  0  0  0  0  0  0
    6.7084  -17.1134   24.7617 C   0  0  1  0  0  0  0  0  0  0  0  0
    7.5045  -16.6219   25.9463 C   0  0  0  0  0  0  0  0  0  0  0  0
    6.9243  -15.3301   26.3829 C   0  0  0  0  0  0  0  0  0  0  0  0
    5.6066  -15.1355   26.7595 C   0  0  0  0  0  0  0  0  0  0  0  0
    5.4417  -13.8607   27.0867 N   0  0  0  0  0  0  0  0  0  0  0  0
    6.6181  -13.2275   26.9311 C   0  0  0  0  0  0  0  0  0  0  0  0
    7.0084  -11.9164   27.1260 C   0  0  0  0  0  0  0  0  0  0  0  0
    8.2976  -11.5105   26.8909 C   0  0  0  0  0  0  0  0  0  0  0  0
    9.2522  -12.4066   26.4489 C   0  0  0  0  0  0  0  0  0  0  0  0
    8.8731  -13.7162   26.2515 C   0  0  0  0  0  0  0  0  0  0  0  0
    7.5716  -14.1171   26.4908 C   0  0  0  0  0  0  0  0  0  0  0  0
    7.4489  -16.8667   23.4895 C   0  0  0  0  0  0  0  0  0  0  0  0
    8.2163  -17.7817   23.0826 O   0  0  0  0  0  0  0  0  0  0  0  0
    7.2562  -15.4887   16.8967 N   0  0  0  0  0  0  0  0  0  0  0  0
    8.3266  -14.6043   16.5517 C   0  0  0  0  0  0  0  0  0  0  0  0
    8.9189  -14.8189   15.4220 N   0  0  0  0  0  0  0  0  0  0  0  0
    8.6663  -13.5703   17.4455 N   0  0  0  0  0  0  0  0  0  0  0  0
    7.8414  -13.4010   18.6366 C   0  0  0  0  0  0  0  0  0  0  0  0
    8.6814  -13.7527   19.8377 C   0  0  0  0  0  0  0  0  0  0  0  0
    7.8391  -14.0336   21.0354 C   0  0  0  0  0  0  0  0  0  0  0  0
    8.0684  -15.4089   21.5761 C   0  0  2  0  0  0  0  0  0  0  0  0
    7.3055  -15.6631   22.7616 N   0  0  0  0  0  0  0  0  0  0  0  0
    9.5217  -15.6663   21.7956 C   0  0  0  0  0  0  0  0  0  0  0  0
   10.0910  -15.0991   22.7530 O   0  0  0  0  0  0  0  0  0  0  0  0
    9.7018  -14.2082   15.1072 N   0  0  0  0  0  0  0  0  0  0  0  0
   10.2721  -16.5241   20.9631 C   0  0  2  0  0  0  0  0  0  0  0  0
   11.6922  -16.7128   21.1569 C   0  0  0  0  0  0  0  0  0  0  0  0
   12.1489  -17.7959   20.1870 C   0  0  0  0  0  0  0  0  0  0  0  0
   11.5422  -19.0870   20.5888 O   0  0  0  0  0  0  0  0  0  0  0  0
   11.5691  -19.4259   21.7985 C   0  0  0  0  0  0  0  0  0  0  0  0
   12.4275  -15.4509   20.8434 O   0  0  0  0  0  0  0  0  0  0  0  0
   13.7600  -15.3130   21.2203 O   0  0  0  0  0  0  0  0  0  0  0  0
   10.9353  -19.9612   19.6965 O   0  0  0  0  0  0  0  0  0  0  0  0
  2  1  1  1
  3  2  1  0
  4  3  1  0
  5  4  2  0
  6  5  1  0
  7  6  1  0
  7 12  2  0
  8  7  1  0
  9  8  2  0
  9 10  1  0
 10 11  2  0
 11 12  1  0
 12  4  1  0
 13 14  2  0
 13  2  1  0
 16 15  1  0
 16 18  1  0
 17 16  2  0
 18 19  1  0
 19 20  1  0
 20 21  1  0
 22 21  1  1
 22 24  1  0
 22 23  1  0
 23 13  1  0
 24 25  2  0
 26 27  1  0
 26 24  1  0
 27 28  1  6
 28 29  1  0
 29 33  1  0
 30 29  2  0
 31 27  1  0
 32 31  1  0
 34 31  2  0
M  END
$$$$
