WRD.pdb
     RDKit          3D

 34 35  0  0  1  0  0  0  0  0999 V2000
    6.5697  -18.5856   25.1607 N   0  0  0  0  0  0  0  0  0  0  0  0
    6.7378  -17.1791   24.9341 C   0  0  1  0  0  0  0  0  0  0  0  0
    7.3829  -16.5078   26.1224 C   0  0  0  0  0  0  0  0  0  0  0  0
    6.7789  -15.1628   26.2713 C   0  0  0  0  0  0  0  0  0  0  0  0
    5.4207  -14.8960   26.2791 C   0  0  0  0  0  0  0  0  0  0  0  0
    5.2448  -13.5901   26.4303 N   0  0  0  0  0  0  0  0  0  0  0  0
    6.4535  -13.0070   26.5202 C   0  0  0  0  0  0  0  0  0  0  0  0
    6.8493  -11.6932   26.6823 C   0  0  0  0  0  0  0  0  0  0  0  0
    8.1753  -11.3474   26.7462 C   0  0  0  0  0  0  0  0  0  0  0  0
    9.1630  -12.3092   26.6497 C   0  0  0  0  0  0  0  0  0  0  0  0
    8.7787  -13.6222   26.4880 C   0  0  0  0  0  0  0  0  0  0  0  0
    7.4399  -13.9622   26.4246 C   0  0  0  0  0  0  0  0  0  0  0  0
    7.5409  -16.9479   23.6974 C   0  0  0  0  0  0  0  0  0  0  0  0
    8.4238  -17.8037   23.4153 O   0  0  0  0  0  0  0  0  0  0  0  0
    7.2251  -14.1647   15.8917 N   0  0  0  0  0  0  0  0  0  0  0  0
    8.6223  -14.0359   16.1713 C   0  0  0  0  0  0  0  0  0  0  0  0
    9.4183  -13.9853   15.1529 N   0  0  0  0  0  0  0  0  0  0  0  0
    9.0419  -13.9725   17.5142 N   0  0  0  0  0  0  0  0  0  0  0  0
    8.0470  -14.2226   18.5512 C   0  0  0  0  0  0  0  0  0  0  0  0
    8.7046  -14.0016   19.8893 C   0  0  0  0  0  0  0  0  0  0  0  0
    7.7777  -14.3093   21.0159 C   0  0  0  0  0  0  0  0  0  0  0  0
    8.1310  -15.5896   21.7033 C   0  0  2  0  0  0  0  0  0  0  0  0
    7.3311  -15.8217   22.8687 N   0  0  0  0  0  0  0  0  0  0  0  0
    9.5880  -15.6469   22.0200 C   0  0  0  0  0  0  0  0  0  0  0  0
   10.0203  -14.9604   22.9708 O   0  0  0  0  0  0  0  0  0  0  0  0
   10.4485  -13.9087   15.2861 N   0  0  0  0  0  0  0  0  0  0  0  0
   10.4907  -16.4461   21.2860 C   0  0  2  0  0  0  0  0  0  0  0  0
   11.8924  -16.5152   21.6327 C   0  0  0  0  0  0  0  0  0  0  0  0
   12.3282  -17.9694   21.4987 C   0  0  0  0  0  0  0  0  0  0  0  0
   13.7781  -18.0649   21.7911 O   0  0  0  0  0  0  0  0  0  0  0  0
   14.2859  -17.2810   22.6317 C   0  0  0  0  0  0  0  0  0  0  0  0
   12.6989  -15.6866   20.6869 O   0  0  0  0  0  0  0  0  0  0  0  0
   13.9967  -15.3144   21.0247 O   0  0  0  0  0  0  0  0  0  0  0  0
   14.6254  -18.9823   21.1836 O   0  0  0  0  0  0  0  0  0  0  0  0
  2  1  1  1
  3  2  1  0
  4  3  1  0
  5  4  2  0
  6  5  1  0
  7  6  1  0
  7 12  2  0
  8  7  1  0
  9  8  2  0
  9 10  1  0
 10 11  2  0
 11 12  1  0
 12  4  1  0
 13 14  2  0
 13  2  1  0
 16 15  1  0
 16 18  1  0
 17 16  2  0
 18 19  1  0
 19 20  1  0
 20 21  1  0
 22 21  1  1
 22 24  1  0
 22 23  1  0
 23 13  1  0
 24 25  2  0
 26 27  1  0
 26 24  1  0
 27 28  1  6
 28 29  1  0
 29 33  1  0
 30 29  2  0
 31 27  1  0
 32 31  1  0
 34 31  2  0
M  END
$$$$
