WRD.pdb
     RDKit          3D

 34 35  0  0  1  0  0  0  0  0999 V2000
    6.1034  -17.3829   25.0602 N   0  0  0  0  0  0  0  0  0  0  0  0
    6.8558  -16.2160   24.6998 C   0  0  1  0  0  0  0  0  0  0  0  0
    7.7925  -15.8057   25.8101 C   0  0  0  0  0  0  0  0  0  0  0  0
    7.1367  -14.7272   26.5865 C   0  0  0  0  0  0  0  0  0  0  0  0
    6.4477  -14.9063   27.7736 C   0  0  0  0  0  0  0  0  0  0  0  0
    5.9958  -13.7290   28.1847 N   0  0  0  0  0  0  0  0  0  0  0  0
    6.3749  -12.7949   27.2943 C   0  0  0  0  0  0  0  0  0  0  0  0
    6.1786  -11.4288   27.2301 C   0  0  0  0  0  0  0  0  0  0  0  0
    6.6783  -10.6814   26.1937 C   0  0  0  0  0  0  0  0  0  0  0  0
    7.3982  -11.2762   25.1751 C   0  0  0  0  0  0  0  0  0  0  0  0
    7.5995  -12.6379   25.2299 C   0  0  0  0  0  0  0  0  0  0  0  0
    7.0925  -13.3838   26.2781 C   0  0  0  0  0  0  0  0  0  0  0  0
    7.6108  -16.4589   23.4353 C   0  0  0  0  0  0  0  0  0  0  0  0
    8.2729  -17.5298   23.3561 O   0  0  0  0  0  0  0  0  0  0  0  0
    6.7885  -15.2306   16.0320 N   0  0  0  0  0  0  0  0  0  0  0  0
    7.4866  -14.0293   16.3733 C   0  0  0  0  0  0  0  0  0  0  0  0
    7.5803  -13.1275   15.4507 N   0  0  0  0  0  0  0  0  0  0  0  0
    8.0207  -13.9008   17.6701 N   0  0  0  0  0  0  0  0  0  0  0  0
    9.1840  -14.7121   18.0111 C   0  0  0  0  0  0  0  0  0  0  0  0
    9.5937  -14.3682   19.4203 C   0  0  0  0  0  0  0  0  0  0  0  0
    8.4406  -14.4430   20.3626 C   0  0  0  0  0  0  0  0  0  0  0  0
    8.5582  -15.5962   21.3074 C   0  0  2  0  0  0  0  0  0  0  0  0
    7.5933  -15.5359   22.3643 N   0  0  0  0  0  0  0  0  0  0  0  0
    9.9466  -15.7164   21.8409 C   0  0  0  0  0  0  0  0  0  0  0  0
   10.3087  -14.9338   22.7457 O   0  0  0  0  0  0  0  0  0  0  0  0
    8.1462  -12.2665   15.6037 N   0  0  0  0  0  0  0  0  0  0  0  0
   10.8606  -16.6788   21.3609 C   0  0  2  0  0  0  0  0  0  0  0  0
   12.1931  -16.7944   21.9094 C   0  0  0  0  0  0  0  0  0  0  0  0
   12.4857  -18.2781   22.0982 C   0  0  0  0  0  0  0  0  0  0  0  0
   13.8783  -18.4352   22.5806 O   0  0  0  0  0  0  0  0  0  0  0  0
   14.5541  -17.4092   22.8444 C   0  0  0  0  0  0  0  0  0  0  0  0
   13.1941  -16.2286   20.9558 O   0  0  0  0  0  0  0  0  0  0  0  0
   14.3623  -15.6479   21.4405 O   0  0  0  0  0  0  0  0  0  0  0  0
   14.4940  -19.6667   22.7625 O   0  0  0  0  0  0  0  0  0  0  0  0
  2  1  1  1
  3  2  1  0
  4  3  1  0
  5  4  2  0
  6  5  1  0
  7  6  1  0
  7 12  2  0
  8  7  1  0
  9  8  2  0
  9 10  1  0
 10 11  2  0
 11 12  1  0
 12  4  1  0
 13 14  2  0
 13  2  1  0
 16 15  1  0
 16 18  1  0
 17 16  2  0
 18 19  1  0
 19 20  1  0
 20 21  1  0
 22 21  1  1
 22 24  1  0
 22 23  1  0
 23 13  1  0
 24 25  2  0
 26 27  1  0
 26 24  1  0
 27 28  1  6
 28 29  1  0
 29 33  1  0
 30 29  2  0
 31 27  1  0
 32 31  1  0
 34 31  2  0
M  END
$$$$
