WRD.pdb
     RDKit          3D

 34 35  0  0  1  0  0  0  0  0999 V2000
    6.5031  -18.2287   25.2032 N   0  0  0  0  0  0  0  0  0  0  0  0
    7.1223  -17.0043   24.7843 C   0  0  1  0  0  0  0  0  0  0  0  0
    7.7485  -16.2817   25.9523 C   0  0  0  0  0  0  0  0  0  0  0  0
    6.8809  -15.1307   26.2963 C   0  0  0  0  0  0  0  0  0  0  0  0
    5.5741  -15.2238   26.7431 C   0  0  0  0  0  0  0  0  0  0  0  0
    5.1076  -13.9997   26.9510 N   0  0  0  0  0  0  0  0  0  0  0  0
    6.0787  -13.1191   26.6503 C   0  0  0  0  0  0  0  0  0  0  0  0
    6.1341  -11.7389   26.6844 C   0  0  0  0  0  0  0  0  0  0  0  0
    7.2682  -11.0585   26.3196 C   0  0  0  0  0  0  0  0  0  0  0  0
    8.3979  -11.7373   25.9041 C   0  0  0  0  0  0  0  0  0  0  0  0
    8.3528  -13.1137   25.8666 C   0  0  0  0  0  0  0  0  0  0  0  0
    7.2057  -13.7918   26.2359 C   0  0  0  0  0  0  0  0  0  0  0  0
    8.1387  -17.2758   23.7255 C   0  0  0  0  0  0  0  0  0  0  0  0
    8.7750  -18.3624   23.8026 O   0  0  0  0  0  0  0  0  0  0  0  0
    9.4948  -13.4379   18.1343 N   0  0  0  0  0  0  0  0  0  0  0  0
    8.2694  -13.0015   18.7299 C   0  0  0  0  0  0  0  0  0  0  0  0
    8.1571  -11.7357   18.9714 N   0  0  0  0  0  0  0  0  0  0  0  0
    7.2750  -13.9578   19.0130 N   0  0  0  0  0  0  0  0  0  0  0  0
    7.5068  -15.3308   18.5784 C   0  0  0  0  0  0  0  0  0  0  0  0
    7.7729  -16.1676   19.8034 C   0  0  0  0  0  0  0  0  0  0  0  0
    9.1010  -15.8561   20.4051 C   0  0  0  0  0  0  0  0  0  0  0  0
    9.3524  -16.6399   21.6537 C   0  0  2  0  0  0  0  0  0  0  0  0
    8.3875  -16.3623   22.6754 N   0  0  0  0  0  0  0  0  0  0  0  0
   10.7456  -16.4350   22.1473 C   0  0  0  0  0  0  0  0  0  0  0  0
   10.9955  -15.4147   22.8247 O   0  0  0  0  0  0  0  0  0  0  0  0
    7.3161  -11.3592   19.4572 N   0  0  0  0  0  0  0  0  0  0  0  0
   11.7860  -17.3495   21.8766 C   0  0  1  0  0  0  0  0  0  0  0  0
   13.1506  -17.0791   22.2698 C   0  0  0  0  0  0  0  0  0  0  0  0
   13.9184  -18.3937   22.2006 C   0  0  0  0  0  0  0  0  0  0  0  0
   13.5565  -19.2234   23.3741 O   0  0  0  0  0  0  0  0  0  0  0  0
   12.7871  -18.7475   24.2463 C   0  0  0  0  0  0  0  0  0  0  0  0
   13.7780  -16.1100   21.3218 O   0  0  0  0  0  0  0  0  0  0  0  0
   15.0317  -15.5762   21.6046 O   0  0  0  0  0  0  0  0  0  0  0  0
   14.0226  -20.5162   23.5740 O   0  0  0  0  0  0  0  0  0  0  0  0
  2  1  1  1
  3  2  1  0
  4  3  1  0
  5  4  2  0
  6  5  1  0
  7  6  1  0
  7 12  2  0
  8  7  1  0
  9  8  2  0
  9 10  1  0
 10 11  2  0
 11 12  1  0
 12  4  1  0
 13 14  2  0
 13  2  1  0
 16 15  1  0
 16 18  1  0
 17 16  2  0
 18 19  1  0
 19 20  1  0
 20 21  1  0
 22 21  1  6
 22 24  1  0
 22 23  1  0
 23 13  1  0
 24 25  2  0
 26 27  1  0
 26 24  1  0
 27 28  1  1
 28 29  1  0
 29 33  1  0
 30 29  2  0
 31 27  1  0
 32 31  1  0
 34 31  2  0
M  END
$$$$
