WRD.pdb
     RDKit          3D

 34 35  0  0  1  0  0  0  0  0999 V2000
    6.5927  -17.2354   24.9718 N   0  0  0  0  0  0  0  0  0  0  0  0
    7.1511  -16.0000   24.5028 C   0  0  1  0  0  0  0  0  0  0  0  0
    8.4041  -15.6430   25.2651 C   0  0  0  0  0  0  0  0  0  0  0  0
    8.0104  -14.8180   26.4314 C   0  0  0  0  0  0  0  0  0  0  0  0
    7.9395  -15.2688   27.7383 C   0  0  0  0  0  0  0  0  0  0  0  0
    7.5543  -14.2643   28.5142 N   0  0  0  0  0  0  0  0  0  0  0  0
    7.3746  -13.1774   27.7427 C   0  0  0  0  0  0  0  0  0  0  0  0
    6.9835  -11.8828   28.0259 C   0  0  0  0  0  0  0  0  0  0  0  0
    6.8732  -10.9360   27.0393 C   0  0  0  0  0  0  0  0  0  0  0  0
    7.1518  -11.2500   25.7226 C   0  0  0  0  0  0  0  0  0  0  0  0
    7.5425  -12.5382   25.4298 C   0  0  0  0  0  0  0  0  0  0  0  0
    7.6512  -13.4865   26.4303 C   0  0  0  0  0  0  0  0  0  0  0  0
    7.4297  -16.0824   23.0388 C   0  0  0  0  0  0  0  0  0  0  0  0
    7.6339  -17.2294   22.5546 O   0  0  0  0  0  0  0  0  0  0  0  0
    7.9734  -13.1351   15.1195 N   0  0  0  0  0  0  0  0  0  0  0  0
    8.3970  -14.4742   15.3916 C   0  0  0  0  0  0  0  0  0  0  0  0
    8.5543  -15.2544   14.3719 N   0  0  0  0  0  0  0  0  0  0  0  0
    8.6146  -14.8579   16.7291 N   0  0  0  0  0  0  0  0  0  0  0  0
    7.6243  -14.4570   17.7224 C   0  0  0  0  0  0  0  0  0  0  0  0
    8.3355  -13.6803   18.8006 C   0  0  0  0  0  0  0  0  0  0  0  0
    7.6049  -13.7448   20.0987 C   0  0  0  0  0  0  0  0  0  0  0  0
    7.9163  -14.9940   20.8597 C   0  0  2  0  0  0  0  0  0  0  0  0
    7.4662  -14.9316   22.2181 N   0  0  0  0  0  0  0  0  0  0  0  0
    9.3689  -15.3256   20.7798 C   0  0  0  0  0  0  0  0  0  0  0  0
   10.1415  -14.5013   20.2450 O   0  0  0  0  0  0  0  0  0  0  0  0
    8.8820  -16.2351   14.4977 N   0  0  0  0  0  0  0  0  0  0  0  0
    9.8980  -16.5327   21.2849 C   0  0  1  0  0  0  0  0  0  0  0  0
   11.2977  -16.8635   21.1387 C   0  0  0  0  0  0  0  0  0  0  0  0
   12.0959  -15.8618   21.9644 C   0  0  0  0  0  0  0  0  0  0  0  0
   13.5399  -16.1631   21.8200 O   0  0  0  0  0  0  0  0  0  0  0  0
   14.0321  -16.2630   20.6682 C   0  0  0  0  0  0  0  0  0  0  0  0
   11.5613  -18.2353   21.6680 O   0  0  0  0  0  0  0  0  0  0  0  0
   12.8248  -18.8016   21.5278 O   0  0  0  0  0  0  0  0  0  0  0  0
   14.3979  -16.3452   22.8967 O   0  0  0  0  0  0  0  0  0  0  0  0
  2  1  1  1
  3  2  1  0
  4  3  1  0
  5  4  2  0
  6  5  1  0
  7  6  1  0
  7 12  2  0
  8  7  1  0
  9  8  2  0
  9 10  1  0
 10 11  2  0
 11 12  1  0
 12  4  1  0
 13 14  2  0
 13  2  1  0
 16 15  1  0
 16 18  1  0
 17 16  2  0
 18 19  1  0
 19 20  1  0
 20 21  1  0
 22 21  1  1
 22 24  1  0
 22 23  1  0
 23 13  1  0
 24 25  2  0
 26 27  1  0
 26 24  1  0
 27 28  1  6
 28 29  1  0
 29 33  1  0
 30 29  2  0
 31 27  1  0
 32 31  1  0
 34 31  2  0
M  END
$$$$
