WRD.pdb
     RDKit          3D

 34 35  0  0  1  0  0  0  0  0999 V2000
    6.3830  -18.1294   25.4437 N   0  0  0  0  0  0  0  0  0  0  0  0
    6.6815  -16.7778   25.0671 C   0  0  1  0  0  0  0  0  0  0  0  0
    7.4655  -16.0708   26.1460 C   0  0  0  0  0  0  0  0  0  0  0  0
    6.7194  -14.8484   26.5269 C   0  0  0  0  0  0  0  0  0  0  0  0
    5.4084  -14.8211   26.9702 C   0  0  0  0  0  0  0  0  0  0  0  0
    5.0692  -13.5629   27.2175 N   0  0  0  0  0  0  0  0  0  0  0  0
    6.1266  -12.7775   26.9455 C   0  0  0  0  0  0  0  0  0  0  0  0
    6.3233  -11.4121   27.0242 C   0  0  0  0  0  0  0  0  0  0  0  0
    7.5224  -10.8404   26.6818 C   0  0  0  0  0  0  0  0  0  0  0  0
    8.5780  -11.6179   26.2447 C   0  0  0  0  0  0  0  0  0  0  0  0
    8.3921  -12.9805   26.1628 C   0  0  0  0  0  0  0  0  0  0  0  0
    7.1801  -13.5487   26.5098 C   0  0  0  0  0  0  0  0  0  0  0  0
    7.4256  -16.7548   23.7734 C   0  0  0  0  0  0  0  0  0  0  0  0
    8.2405  -17.6940   23.5605 O   0  0  0  0  0  0  0  0  0  0  0  0
    8.4637  -12.8506   16.9504 N   0  0  0  0  0  0  0  0  0  0  0  0
    8.0453  -14.1652   16.5713 C   0  0  0  0  0  0  0  0  0  0  0  0
    8.1859  -14.4850   15.3259 N   0  0  0  0  0  0  0  0  0  0  0  0
    7.5148  -15.0187   17.5580 N   0  0  0  0  0  0  0  0  0  0  0  0
    8.4077  -15.4707   18.6192 C   0  0  0  0  0  0  0  0  0  0  0  0
    8.5747  -14.3384   19.6000 C   0  0  0  0  0  0  0  0  0  0  0  0
    7.6650  -14.4863   20.7719 C   0  0  0  0  0  0  0  0  0  0  0  0
    8.0617  -15.6273   21.6535 C   0  0  2  0  0  0  0  0  0  0  0  0
    7.2346  -15.7296   22.8185 N   0  0  0  0  0  0  0  0  0  0  0  0
    9.5076  -15.5517   22.0145 C   0  0  0  0  0  0  0  0  0  0  0  0
    9.8494  -14.8085   22.9596 O   0  0  0  0  0  0  0  0  0  0  0  0
    8.0307  -15.4645   15.0072 N   0  0  0  0  0  0  0  0  0  0  0  0
   10.4979  -16.2872   21.3285 C   0  0  2  0  0  0  0  0  0  0  0  0
   11.8852  -16.2457   21.7327 C   0  0  0  0  0  0  0  0  0  0  0  0
   12.2451  -17.6202   22.2839 C   0  0  0  0  0  0  0  0  0  0  0  0
   13.6841  -17.6334   22.6387 O   0  0  0  0  0  0  0  0  0  0  0  0
   14.2246  -18.7204   22.9630 C   0  0  0  0  0  0  0  0  0  0  0  0
   12.7574  -15.9613   20.5538 O   0  0  0  0  0  0  0  0  0  0  0  0
   12.1941  -15.8446   19.2866 O   0  0  0  0  0  0  0  0  0  0  0  0
   14.4865  -16.4999   22.6353 O   0  0  0  0  0  0  0  0  0  0  0  0
  2  1  1  1
  3  2  1  0
  4  3  1  0
  5  4  2  0
  6  5  1  0
  7  6  1  0
  7 12  2  0
  8  7  1  0
  9  8  2  0
  9 10  1  0
 10 11  2  0
 11 12  1  0
 12  4  1  0
 13 14  2  0
 13  2  1  0
 16 15  1  0
 16 18  1  0
 17 16  2  0
 18 19  1  0
 19 20  1  0
 20 21  1  0
 22 21  1  1
 22 24  1  0
 22 23  1  0
 23 13  1  0
 24 25  2  0
 26 27  1  0
 26 24  1  0
 27 28  1  1
 28 29  1  0
 29 33  1  0
 30 29  2  0
 31 27  1  0
 32 31  1  0
 34 31  2  0
M  END
$$$$
