WRD.pdb
     RDKit          3D

 34 35  0  0  1  0  0  0  0  0999 V2000
    6.5212  -17.9725   24.7156 N   0  0  0  0  0  0  0  0  0  0  0  0
    6.8294  -16.6348   24.2992 C   0  0  1  0  0  0  0  0  0  0  0  0
    7.9044  -16.0268   25.1672 C   0  0  0  0  0  0  0  0  0  0  0  0
    7.2502  -15.1111   26.1312 C   0  0  0  0  0  0  0  0  0  0  0  0
    6.5882  -15.5056   27.2810 C   0  0  0  0  0  0  0  0  0  0  0  0
    6.1289  -14.4256   27.8990 N   0  0  0  0  0  0  0  0  0  0  0  0
    6.4769  -13.3446   27.1784 C   0  0  0  0  0  0  0  0  0  0  0  0
    6.2608  -11.9916   27.3568 C   0  0  0  0  0  0  0  0  0  0  0  0
    6.7288  -11.0670   26.4578 C   0  0  0  0  0  0  0  0  0  0  0  0
    7.4357  -11.4632   25.3384 C   0  0  0  0  0  0  0  0  0  0  0  0
    7.6565  -12.8101   25.1515 C   0  0  0  0  0  0  0  0  0  0  0  0
    7.1813  -13.7354   26.0625 C   0  0  0  0  0  0  0  0  0  0  0  0
    7.2403  -16.6227   22.8643 C   0  0  0  0  0  0  0  0  0  0  0  0
    7.9126  -17.6061   22.4490 O   0  0  0  0  0  0  0  0  0  0  0  0
    7.1039  -14.9859   15.3961 N   0  0  0  0  0  0  0  0  0  0  0  0
    8.4648  -14.6808   15.7149 C   0  0  0  0  0  0  0  0  0  0  0  0
    9.3287  -14.8032   14.7599 N   0  0  0  0  0  0  0  0  0  0  0  0
    8.7789  -14.2723   17.0256 N   0  0  0  0  0  0  0  0  0  0  0  0
    7.6756  -13.9171   17.9111 C   0  0  0  0  0  0  0  0  0  0  0  0
    8.2614  -13.4399   19.2154 C   0  0  0  0  0  0  0  0  0  0  0  0
    7.4044  -13.8187   20.3752 C   0  0  0  0  0  0  0  0  0  0  0  0
    7.7533  -15.1681   20.9173 C   0  0  2  0  0  0  0  0  0  0  0  0
    6.8972  -15.5602   21.9968 N   0  0  0  0  0  0  0  0  0  0  0  0
    9.1918  -15.2365   21.3078 C   0  0  0  0  0  0  0  0  0  0  0  0
    9.5116  -14.9075   22.4705 O   0  0  0  0  0  0  0  0  0  0  0  0
   10.3263  -14.5429   14.9082 N   0  0  0  0  0  0  0  0  0  0  0  0
   10.1991  -15.6579   20.4134 C   0  0  2  0  0  0  0  0  0  0  0  0
   11.4316  -16.2466   20.8870 C   0  0  0  0  0  0  0  0  0  0  0  0
   11.0697  -17.4999   21.6749 C   0  0  0  0  0  0  0  0  0  0  0  0
   12.3158  -18.1353   22.1650 O   0  0  0  0  0  0  0  0  0  0  0  0
   13.4226  -17.6149   21.8766 C   0  0  0  0  0  0  0  0  0  0  0  0
   12.2917  -16.6417   19.7313 O   0  0  0  0  0  0  0  0  0  0  0  0
   13.6046  -16.1863   19.6565 O   0  0  0  0  0  0  0  0  0  0  0  0
   12.3373  -19.2901   22.9362 O   0  0  0  0  0  0  0  0  0  0  0  0
  2  1  1  1
  3  2  1  0
  4  3  1  0
  5  4  2  0
  6  5  1  0
  7  6  1  0
  7 12  2  0
  8  7  1  0
  9  8  2  0
  9 10  1  0
 10 11  2  0
 11 12  1  0
 12  4  1  0
 13 14  2  0
 13  2  1  0
 16 15  1  0
 16 18  1  0
 17 16  2  0
 18 19  1  0
 19 20  1  0
 20 21  1  0
 22 21  1  1
 22 24  1  0
 22 23  1  0
 23 13  1  0
 24 25  2  0
 26 27  1  0
 26 24  1  0
 27 28  1  6
 28 29  1  0
 29 33  1  0
 30 29  2  0
 31 27  1  0
 32 31  1  0
 34 31  2  0
M  END
$$$$
