WRD.pdb
     RDKit          3D

 34 35  0  0  1  0  0  0  0  0999 V2000
    6.4991  -17.5471   24.5561 N   0  0  0  0  0  0  0  0  0  0  0  0
    7.3113  -16.4383   24.1454 C   0  0  1  0  0  0  0  0  0  0  0  0
    8.0059  -15.8034   25.3257 C   0  0  0  0  0  0  0  0  0  0  0  0
    7.0999  -14.7761   25.8911 C   0  0  0  0  0  0  0  0  0  0  0  0
    5.9546  -15.0398   26.6225 C   0  0  0  0  0  0  0  0  0  0  0  0
    5.3946  -13.8874   26.9657 N   0  0  0  0  0  0  0  0  0  0  0  0
    6.1482  -12.8871   26.4753 C   0  0  0  0  0  0  0  0  0  0  0  0
    6.0313  -11.5117   26.5342 C   0  0  0  0  0  0  0  0  0  0  0  0
    6.9531  -10.6885   25.9386 C   0  0  0  0  0  0  0  0  0  0  0  0
    8.0344  -11.2132   25.2567 C   0  0  0  0  0  0  0  0  0  0  0  0
    8.1600  -12.5836   25.1922 C   0  0  0  0  0  0  0  0  0  0  0  0
    7.2264  -13.4062   25.7953 C   0  0  0  0  0  0  0  0  0  0  0  0
    8.3052  -16.8775   23.1221 C   0  0  0  0  0  0  0  0  0  0  0  0
    8.8193  -18.0199   23.2712 O   0  0  0  0  0  0  0  0  0  0  0  0
    7.1965  -14.3134   14.7039 N   0  0  0  0  0  0  0  0  0  0  0  0
    7.5337  -13.8336   16.0088 C   0  0  0  0  0  0  0  0  0  0  0  0
    7.6354  -12.5519   16.1502 N   0  0  0  0  0  0  0  0  0  0  0  0
    7.7312  -14.7675   17.0444 N   0  0  0  0  0  0  0  0  0  0  0  0
    8.8549  -14.5534   17.9495 C   0  0  0  0  0  0  0  0  0  0  0  0
    8.7855  -15.5996   19.0323 C   0  0  0  0  0  0  0  0  0  0  0  0
    9.8928  -15.4453   20.0188 C   0  0  0  0  0  0  0  0  0  0  0  0
    9.7602  -16.3927   21.1682 C   0  0  2  0  0  0  0  0  0  0  0  0
    8.6642  -16.0577   22.0275 N   0  0  0  0  0  0  0  0  0  0  0  0
   11.0392  -16.4984   21.9296 C   0  0  0  0  0  0  0  0  0  0  0  0
   11.2781  -15.6512   22.8170 O   0  0  0  0  0  0  0  0  0  0  0  0
    7.9840  -12.1408   17.0416 N   0  0  0  0  0  0  0  0  0  0  0  0
   11.9841  -17.5175   21.6831 C   0  0  1  0  0  0  0  0  0  0  0  0
   13.2794  -17.5179   22.3250 C   0  0  0  0  0  0  0  0  0  0  0  0
   13.7290  -18.9684   22.4528 C   0  0  0  0  0  0  0  0  0  0  0  0
   12.9822  -19.6066   23.5626 O   0  0  0  0  0  0  0  0  0  0  0  0
   12.7126  -18.9309   24.5871 C   0  0  0  0  0  0  0  0  0  0  0  0
   14.2717  -16.7833   21.4842 O   0  0  0  0  0  0  0  0  0  0  0  0
   15.5854  -16.6460   21.9227 O   0  0  0  0  0  0  0  0  0  0  0  0
   12.5542  -20.9275   23.5409 O   0  0  0  0  0  0  0  0  0  0  0  0
  2  1  1  1
  3  2  1  0
  4  3  1  0
  5  4  2  0
  6  5  1  0
  7  6  1  0
  7 12  2  0
  8  7  1  0
  9  8  2  0
  9 10  1  0
 10 11  2  0
 11 12  1  0
 12  4  1  0
 13 14  2  0
 13  2  1  0
 16 15  1  0
 16 18  1  0
 17 16  2  0
 18 19  1  0
 19 20  1  0
 20 21  1  0
 22 21  1  6
 22 24  1  0
 22 23  1  0
 23 13  1  0
 24 25  2  0
 26 27  1  0
 26 24  1  0
 27 28  1  1
 28 29  1  0
 29 33  1  0
 30 29  2  0
 31 27  1  0
 32 31  1  0
 34 31  2  0
M  END
$$$$
