WRD.pdb
     RDKit          3D

 34 35  0  0  1  0  0  0  0  0999 V2000
    6.1065  -17.5028   24.3260 N   0  0  0  0  0  0  0  0  0  0  0  0
    6.8283  -16.2831   24.1043 C   0  0  1  0  0  0  0  0  0  0  0  0
    7.7118  -15.9497   25.2820 C   0  0  0  0  0  0  0  0  0  0  0  0
    7.0270  -14.9116   26.0879 C   0  0  0  0  0  0  0  0  0  0  0  0
    6.0135  -15.1510   26.9997 C   0  0  0  0  0  0  0  0  0  0  0  0
    5.6391  -13.9954   27.5325 N   0  0  0  0  0  0  0  0  0  0  0  0
    6.3841  -13.0166   26.9885 C   0  0  0  0  0  0  0  0  0  0  0  0
    6.4133  -11.6481   27.1766 C   0  0  0  0  0  0  0  0  0  0  0  0
    7.2868  -10.8485   26.4840 C   0  0  0  0  0  0  0  0  0  0  0  0
    8.1705  -11.3909   25.5704 C   0  0  0  0  0  0  0  0  0  0  0  0
    8.1493  -12.7545   25.3757 C   0  0  0  0  0  0  0  0  0  0  0  0
    7.2657  -13.5533   26.0780 C   0  0  0  0  0  0  0  0  0  0  0  0
    7.6338  -16.3805   22.8515 C   0  0  0  0  0  0  0  0  0  0  0  0
    8.1615  -17.4963   22.5909 O   0  0  0  0  0  0  0  0  0  0  0  0
    9.0567  -13.9927   14.8705 N   0  0  0  0  0  0  0  0  0  0  0  0
    7.6884  -14.2725   15.1806 C   0  0  0  0  0  0  0  0  0  0  0  0
    6.9076  -14.5385   14.1841 N   0  0  0  0  0  0  0  0  0  0  0  0
    7.2788  -14.2430   16.5277 N   0  0  0  0  0  0  0  0  0  0  0  0
    8.3147  -14.2314   17.5546 C   0  0  0  0  0  0  0  0  0  0  0  0
    7.6355  -14.2298   18.9001 C   0  0  0  0  0  0  0  0  0  0  0  0
    8.6196  -14.1058   20.0134 C   0  0  0  0  0  0  0  0  0  0  0  0
    8.6806  -15.3422   20.8525 C   0  0  2  0  0  0  0  0  0  0  0  0
    7.8061  -15.2765   21.9850 N   0  0  0  0  0  0  0  0  0  0  0  0
   10.0829  -15.6470   21.2616 C   0  0  0  0  0  0  0  0  0  0  0  0
   10.5769  -15.0138   22.2194 O   0  0  0  0  0  0  0  0  0  0  0  0
    5.9111  -14.7966   14.3431 N   0  0  0  0  0  0  0  0  0  0  0  0
   10.8669  -16.6212   20.6071 C   0  0  2  0  0  0  0  0  0  0  0  0
   12.2089  -16.9306   21.0464 C   0  0  0  0  0  0  0  0  0  0  0  0
   12.2367  -18.4031   21.4383 C   0  0  0  0  0  0  0  0  0  0  0  0
   13.6234  -18.7761   21.8053 O   0  0  0  0  0  0  0  0  0  0  0  0
   14.5140  -17.8898   21.8127 C   0  0  0  0  0  0  0  0  0  0  0  0
   13.1791  -16.7157   19.9310 O   0  0  0  0  0  0  0  0  0  0  0  0
   14.5372  -16.5901   20.2078 O   0  0  0  0  0  0  0  0  0  0  0  0
   14.0067  -20.0663   22.1475 O   0  0  0  0  0  0  0  0  0  0  0  0
  2  1  1  1
  3  2  1  0
  4  3  1  0
  5  4  2  0
  6  5  1  0
  7  6  1  0
  7 12  2  0
  8  7  1  0
  9  8  2  0
  9 10  1  0
 10 11  2  0
 11 12  1  0
 12  4  1  0
 13 14  2  0
 13  2  1  0
 16 15  1  0
 16 18  1  0
 17 16  2  0
 18 19  1  0
 19 20  1  0
 20 21  1  0
 22 21  1  1
 22 24  1  0
 22 23  1  0
 23 13  1  0
 24 25  2  0
 26 27  1  0
 26 24  1  0
 27 28  1  6
 28 29  1  0
 29 33  1  0
 30 29  2  0
 31 27  1  0
 32 31  1  0
 34 31  2  0
M  END
$$$$
