WRD.pdb
     RDKit          3D

 34 35  0  0  1  0  0  0  0  0999 V2000
    6.2329  -16.3278   25.1584 N   0  0  0  0  0  0  0  0  0  0  0  0
    7.6019  -16.0278   24.8521 C   0  0  1  0  0  0  0  0  0  0  0  0
    8.4645  -16.0898   26.0892 C   0  0  0  0  0  0  0  0  0  0  0  0
    8.4467  -14.7521   26.7265 C   0  0  0  0  0  0  0  0  0  0  0  0
    9.3020  -14.3378   27.7330 C   0  0  0  0  0  0  0  0  0  0  0  0
    8.9997  -13.0886   28.0605 N   0  0  0  0  0  0  0  0  0  0  0  0
    7.9719  -12.6857   27.2921 C   0  0  0  0  0  0  0  0  0  0  0  0
    7.2706  -11.4977   27.2147 C   0  0  0  0  0  0  0  0  0  0  0  0
    6.2385  -11.3321   26.3262 C   0  0  0  0  0  0  0  0  0  0  0  0
    5.8660  -12.3553   25.4754 C   0  0  0  0  0  0  0  0  0  0  0  0
    6.5591  -13.5438   25.5447 C   0  0  0  0  0  0  0  0  0  0  0  0
    7.5982  -13.7025   26.4431 C   0  0  0  0  0  0  0  0  0  0  0  0
    8.1129  -16.9611   23.8053 C   0  0  0  0  0  0  0  0  0  0  0  0
    8.1293  -18.1906   24.0877 O   0  0  0  0  0  0  0  0  0  0  0  0
    8.8948  -12.6787   17.8852 N   0  0  0  0  0  0  0  0  0  0  0  0
    7.8365  -12.7359   18.8463 C   0  0  0  0  0  0  0  0  0  0  0  0
    7.7235  -11.7282   19.6494 N   0  0  0  0  0  0  0  0  0  0  0  0
    6.9947  -13.8648   18.8613 N   0  0  0  0  0  0  0  0  0  0  0  0
    7.6178  -15.1804   18.7667 C   0  0  0  0  0  0  0  0  0  0  0  0
    7.9917  -15.6189   20.1595 C   0  0  0  0  0  0  0  0  0  0  0  0
    8.6296  -16.9665   20.1598 C   0  0  0  0  0  0  0  0  0  0  0  0
    9.0178  -17.4064   21.5354 C   0  0  2  0  0  0  0  0  0  0  0  0
    8.5627  -16.4998   22.5467 N   0  0  0  0  0  0  0  0  0  0  0  0
   10.4886  -17.6392   21.6316 C   0  0  0  0  0  0  0  0  0  0  0  0
   11.0067  -18.5019   20.8903 O   0  0  0  0  0  0  0  0  0  0  0  0
    7.0108  -11.7305   20.4090 N   0  0  0  0  0  0  0  0  0  0  0  0
   11.3108  -16.9221   22.5271 C   0  0  2  0  0  0  0  0  0  0  0  0
   12.7365  -17.1525   22.5929 C   0  0  0  0  0  0  0  0  0  0  0  0
   13.4260  -15.7961   22.5072 C   0  0  0  0  0  0  0  0  0  0  0  0
   14.8479  -16.0026   22.1434 O   0  0  0  0  0  0  0  0  0  0  0  0
   15.2799  -17.1742   22.0033 C   0  0  0  0  0  0  0  0  0  0  0  0
   13.0963  -17.7888   23.8956 O   0  0  0  0  0  0  0  0  0  0  0  0
   14.3337  -18.4075   24.0466 O   0  0  0  0  0  0  0  0  0  0  0  0
   15.7484  -14.9643   21.9444 O   0  0  0  0  0  0  0  0  0  0  0  0
  2  1  1  1
  3  2  1  0
  4  3  1  0
  5  4  2  0
  6  5  1  0
  7  6  1  0
  7 12  2  0
  8  7  1  0
  9  8  2  0
  9 10  1  0
 10 11  2  0
 11 12  1  0
 12  4  1  0
 13 14  2  0
 13  2  1  0
 16 15  1  0
 16 18  1  0
 17 16  2  0
 18 19  1  0
 19 20  1  0
 20 21  1  0
 22 21  1  6
 22 24  1  0
 22 23  1  0
 23 13  1  0
 24 25  2  0
 26 27  1  0
 26 24  1  0
 27 28  1  6
 28 29  1  0
 29 33  1  0
 30 29  2  0
 31 27  1  0
 32 31  1  0
 34 31  2  0
M  END
$$$$
