WRD.pdb
     RDKit          3D

 34 35  0  0  1  0  0  0  0  0999 V2000
    5.6946  -17.4252   24.5887 N   0  0  0  0  0  0  0  0  0  0  0  0
    6.6989  -16.4301   24.8317 C   0  0  1  0  0  0  0  0  0  0  0  0
    7.0449  -16.3504   26.2989 C   0  0  0  0  0  0  0  0  0  0  0  0
    7.4579  -14.9587   26.5964 C   0  0  0  0  0  0  0  0  0  0  0  0
    8.6214  -14.5962   27.2528 C   0  0  0  0  0  0  0  0  0  0  0  0
    8.6637  -13.2737   27.3442 N   0  0  0  0  0  0  0  0  0  0  0  0
    7.5583  -12.7730   26.7641 C   0  0  0  0  0  0  0  0  0  0  0  0
    7.1006  -11.4825   26.5798 C   0  0  0  0  0  0  0  0  0  0  0  0
    5.9130  -11.2281   25.9419 C   0  0  0  0  0  0  0  0  0  0  0  0
    5.1324  -12.2619   25.4608 C   0  0  0  0  0  0  0  0  0  0  0  0
    5.5800  -13.5525   25.6396 C   0  0  0  0  0  0  0  0  0  0  0  0
    6.7783  -13.8002   26.2836 C   0  0  0  0  0  0  0  0  0  0  0  0
    7.9165  -16.7160   24.0173 C   0  0  0  0  0  0  0  0  0  0  0  0
    8.4373  -17.8584   24.1409 O   0  0  0  0  0  0  0  0  0  0  0  0
    8.7002  -13.0568   16.2783 N   0  0  0  0  0  0  0  0  0  0  0  0
    7.5646  -13.3180   17.1085 C   0  0  0  0  0  0  0  0  0  0  0  0
    6.4853  -12.6554   16.8451 N   0  0  0  0  0  0  0  0  0  0  0  0
    7.6857  -14.2641   18.1447 N   0  0  0  0  0  0  0  0  0  0  0  0
    8.7247  -14.0489   19.1456 C   0  0  0  0  0  0  0  0  0  0  0  0
    8.6958  -15.2124   20.1033 C   0  0  0  0  0  0  0  0  0  0  0  0
    9.7269  -15.0724   21.1711 C   0  0  0  0  0  0  0  0  0  0  0  0
    9.5532  -16.0836   22.2590 C   0  0  2  0  0  0  0  0  0  0  0  0
    8.4729  -15.7561   23.1408 N   0  0  0  0  0  0  0  0  0  0  0  0
   10.8264  -16.2928   23.0086 C   0  0  0  0  0  0  0  0  0  0  0  0
   10.9760  -15.7128   24.1057 O   0  0  0  0  0  0  0  0  0  0  0  0
    5.6120  -12.8237   17.3873 N   0  0  0  0  0  0  0  0  0  0  0  0
   11.8627  -17.1191   22.5235 C   0  0  2  0  0  0  0  0  0  0  0  0
   13.1437  -17.1937   23.1894 C   0  0  0  0  0  0  0  0  0  0  0  0
   13.3520  -18.6390   23.6253 C   0  0  0  0  0  0  0  0  0  0  0  0
   14.7013  -18.7700   24.2244 O   0  0  0  0  0  0  0  0  0  0  0  0
   15.4052  -17.7405   24.3784 C   0  0  0  0  0  0  0  0  0  0  0  0
   14.2384  -16.8180   22.2450 O   0  0  0  0  0  0  0  0  0  0  0  0
   15.4736  -16.4123   22.7414 O   0  0  0  0  0  0  0  0  0  0  0  0
   15.2461  -19.9802   24.6332 O   0  0  0  0  0  0  0  0  0  0  0  0
  2  1  1  1
  3  2  1  0
  4  3  1  0
  5  4  2  0
  6  5  1  0
  7  6  1  0
  7 12  2  0
  8  7  1  0
  9  8  2  0
  9 10  1  0
 10 11  2  0
 11 12  1  0
 12  4  1  0
 13 14  2  0
 13  2  1  0
 16 15  1  0
 16 18  1  0
 17 16  2  0
 18 19  1  0
 19 20  1  0
 20 21  1  0
 22 21  1  6
 22 24  1  0
 22 23  1  0
 23 13  1  0
 24 25  2  0
 26 27  1  0
 26 24  1  0
 27 28  1  6
 28 29  1  0
 29 33  1  0
 30 29  2  0
 31 27  1  0
 32 31  1  0
 34 31  2  0
M  END
$$$$
