WRD.pdb
     RDKit          3D

 34 35  0  0  1  0  0  0  0  0999 V2000
    6.7624  -16.7149   26.0936 N   0  0  0  0  0  0  0  0  0  0  0  0
    7.1479  -16.0641   24.8747 C   0  0  1  0  0  0  0  0  0  0  0  0
    8.4160  -15.2664   25.0590 C   0  0  0  0  0  0  0  0  0  0  0  0
    8.2148  -14.3456   26.2026 C   0  0  0  0  0  0  0  0  0  0  0  0
    8.9431  -14.3662   27.3795 C   0  0  0  0  0  0  0  0  0  0  0  0
    8.4927  -13.4052   28.1751 N   0  0  0  0  0  0  0  0  0  0  0  0
    7.4931  -12.7650   27.5428 C   0  0  0  0  0  0  0  0  0  0  0  0
    6.6847  -11.7043   27.9038 C   0  0  0  0  0  0  0  0  0  0  0  0
    5.7139  -11.2247   27.0615 C   0  0  0  0  0  0  0  0  0  0  0  0
    5.5132  -11.7916   25.8173 C   0  0  0  0  0  0  0  0  0  0  0  0
    6.3141  -12.8498   25.4478 C   0  0  0  0  0  0  0  0  0  0  0  0
    7.2904  -13.3271   26.3029 C   0  0  0  0  0  0  0  0  0  0  0  0
    7.3105  -17.0684   23.7825 C   0  0  0  0  0  0  0  0  0  0  0  0
    6.3025  -17.7673   23.4874 O   0  0  0  0  0  0  0  0  0  0  0  0
    8.2041  -12.4226   18.4783 N   0  0  0  0  0  0  0  0  0  0  0  0
    8.0390  -13.5267   17.5836 C   0  0  0  0  0  0  0  0  0  0  0  0
    8.6001  -13.4249   16.4225 N   0  0  0  0  0  0  0  0  0  0  0  0
    7.2895  -14.6397   18.0112 N   0  0  0  0  0  0  0  0  0  0  0  0
    6.9113  -14.7062   19.4184 C   0  0  0  0  0  0  0  0  0  0  0  0
    8.1723  -14.8431   20.2327 C   0  0  0  0  0  0  0  0  0  0  0  0
    7.9047  -15.4629   21.5621 C   0  0  0  0  0  0  0  0  0  0  0  0
    8.7613  -16.6639   21.8073 C   0  0  2  0  0  0  0  0  0  0  0  0
    8.5369  -17.2393   23.0997 N   0  0  0  0  0  0  0  0  0  0  0  0
   10.2041  -16.3497   21.5919 C   0  0  0  0  0  0  0  0  0  0  0  0
   10.5892  -16.0736   20.4353 O   0  0  0  0  0  0  0  0  0  0  0  0
    8.6039  -14.2294   15.7609 N   0  0  0  0  0  0  0  0  0  0  0  0
   11.1443  -16.3537   22.6445 C   0  0  1  0  0  0  0  0  0  0  0  0
   12.2861  -17.2403   22.6340 C   0  0  0  0  0  0  0  0  0  0  0  0
   13.5315  -16.3891   22.8508 C   0  0  0  0  0  0  0  0  0  0  0  0
   13.7400  -15.5314   21.6602 O   0  0  0  0  0  0  0  0  0  0  0  0
   12.9485  -15.6292   20.6892 C   0  0  0  0  0  0  0  0  0  0  0  0
   12.1828  -18.2273   23.7504 O   0  0  0  0  0  0  0  0  0  0  0  0
   11.1298  -18.1417   24.6564 O   0  0  0  0  0  0  0  0  0  0  0  0
   14.7736  -14.6106   21.5484 O   0  0  0  0  0  0  0  0  0  0  0  0
  2  1  1  1
  3  2  1  0
  4  3  1  0
  5  4  2  0
  6  5  1  0
  7  6  1  0
  7 12  2  0
  8  7  1  0
  9  8  2  0
  9 10  1  0
 10 11  2  0
 11 12  1  0
 12  4  1  0
 13 14  2  0
 13  2  1  0
 16 15  1  0
 16 18  1  0
 17 16  2  0
 18 19  1  0
 19 20  1  0
 20 21  1  0
 22 21  1  1
 22 24  1  0
 22 23  1  0
 23 13  1  0
 24 25  2  0
 26 27  1  0
 26 24  1  0
 27 28  1  6
 28 29  1  0
 29 33  1  0
 30 29  2  0
 31 27  1  0
 32 31  1  0
 34 31  2  0
M  END
$$$$
