WRD.pdb
     RDKit          3D

 34 35  0  0  1  0  0  0  0  0999 V2000
    7.2529  -18.0169   24.9851 N   0  0  0  0  0  0  0  0  0  0  0  0
    7.4834  -16.6775   24.5261 C   0  0  1  0  0  0  0  0  0  0  0  0
    8.1837  -15.8525   25.5785 C   0  0  0  0  0  0  0  0  0  0  0  0
    7.2155  -14.8592   26.0999 C   0  0  0  0  0  0  0  0  0  0  0  0
    5.9605  -15.1576   26.6017 C   0  0  0  0  0  0  0  0  0  0  0  0
    5.3726  -14.0288   26.9754 N   0  0  0  0  0  0  0  0  0  0  0  0
    6.2149  -13.0099   26.7280 C   0  0  0  0  0  0  0  0  0  0  0  0
    6.1150  -11.6453   26.9197 C   0  0  0  0  0  0  0  0  0  0  0  0
    7.1375  -10.7972   26.5768 C   0  0  0  0  0  0  0  0  0  0  0  0
    8.3069  -11.2851   26.0255 C   0  0  0  0  0  0  0  0  0  0  0  0
    8.4164  -12.6445   25.8304 C   0  0  0  0  0  0  0  0  0  0  0  0
    7.3811  -13.4923   26.1787 C   0  0  0  0  0  0  0  0  0  0  0  0
    8.2714  -16.6947   23.2586 C   0  0  0  0  0  0  0  0  0  0  0  0
    9.0425  -17.6757   23.0727 O   0  0  0  0  0  0  0  0  0  0  0  0
    7.5137  -12.7034   15.3819 N   0  0  0  0  0  0  0  0  0  0  0  0
    8.4822  -13.7423   15.2100 C   0  0  0  0  0  0  0  0  0  0  0  0
    8.9397  -13.9204   14.0133 N   0  0  0  0  0  0  0  0  0  0  0  0
    8.8740  -14.4965   16.3331 N   0  0  0  0  0  0  0  0  0  0  0  0
    8.2746  -14.1628   17.6204 C   0  0  0  0  0  0  0  0  0  0  0  0
    8.8869  -15.0607   18.6649 C   0  0  0  0  0  0  0  0  0  0  0  0
    8.2134  -14.9071   19.9862 C   0  0  0  0  0  0  0  0  0  0  0  0
    8.8716  -15.7228   21.0529 C   0  0  2  0  0  0  0  0  0  0  0  0
    8.1673  -15.6617   22.2988 N   0  0  0  0  0  0  0  0  0  0  0  0
   10.3049  -15.3412   21.2159 C   0  0  0  0  0  0  0  0  0  0  0  0
   10.5736  -14.2073   21.6681 O   0  0  0  0  0  0  0  0  0  0  0  0
    9.5942  -14.7035   13.8049 N   0  0  0  0  0  0  0  0  0  0  0  0
   11.3626  -16.2125   20.8782 C   0  0  2  0  0  0  0  0  0  0  0  0
   12.7414  -15.7803   20.9249 C   0  0  0  0  0  0  0  0  0  0  0  0
   13.6167  -17.0253   20.8443 C   0  0  0  0  0  0  0  0  0  0  0  0
   13.6988  -17.6422   22.1894 O   0  0  0  0  0  0  0  0  0  0  0  0
   13.6475  -16.9045   23.2053 C   0  0  0  0  0  0  0  0  0  0  0  0
   13.0474  -14.9056   19.7533 O   0  0  0  0  0  0  0  0  0  0  0  0
   14.3125  -14.3408   19.6214 O   0  0  0  0  0  0  0  0  0  0  0  0
   13.8314  -19.0083   22.4012 O   0  0  0  0  0  0  0  0  0  0  0  0
  2  1  1  1
  3  2  1  0
  4  3  1  0
  5  4  2  0
  6  5  1  0
  7  6  1  0
  7 12  2  0
  8  7  1  0
  9  8  2  0
  9 10  1  0
 10 11  2  0
 11 12  1  0
 12  4  1  0
 13 14  2  0
 13  2  1  0
 16 15  1  0
 16 18  1  0
 17 16  2  0
 18 19  1  0
 19 20  1  0
 20 21  1  0
 22 21  1  6
 22 24  1  0
 22 23  1  0
 23 13  1  0
 24 25  2  0
 26 27  1  0
 26 24  1  0
 27 28  1  6
 28 29  1  0
 29 33  1  0
 30 29  2  0
 31 27  1  0
 32 31  1  0
 34 31  2  0
M  END
$$$$
