ATD.pdb
     RDKit          3D

 21 20  0  0  1  0  0  0  0  0999 V2000
   20.2143  -13.9651  -16.9159 C   0  0  0  0  0  0  0  0  0  0  0  0
   20.2442  -12.5657  -17.4287 C   0  0  2  0  0  0  0  0  0  0  0  0
   20.9943  -12.3725  -18.6255 N   0  0  0  0  0  0  0  0  0  0  0  0
   20.8027  -11.6469  -16.3864 C   0  0  0  0  0  0  0  0  0  0  0  0
   20.2377  -11.6420  -15.2560 O   0  0  0  0  0  0  0  0  0  0  0  0
   24.5881  -11.2349  -15.3180 C   0  0  0  0  0  0  0  0  0  0  0  0
   23.9598   -9.9035  -15.6414 C   0  0  1  0  0  0  0  0  0  0  0  0
   24.4187   -9.5324  -16.9078 O   0  0  0  0  0  0  0  0  0  0  0  0
   22.4649   -9.9342  -15.6144 C   0  0  2  0  0  0  0  0  0  0  0  0
   21.9142  -10.8063  -16.6224 N   0  0  0  0  0  0  0  0  0  0  0  0
   21.9970   -8.5278  -15.8776 C   0  0  0  0  0  0  0  0  0  0  0  0
   21.5165   -8.2304  -17.0095 O   0  0  0  0  0  0  0  0  0  0  0  0
   22.0760   -7.5267  -14.9018 N   0  0  0  0  0  0  0  0  0  0  0  0
   21.4825   -6.2177  -15.1749 C   0  0  1  0  0  0  0  0  0  0  0  0
   20.0209   -6.4392  -15.4460 C   0  0  0  0  0  0  0  0  0  0  0  0
   19.3531   -5.1473  -15.6392 C   0  0  0  0  0  0  0  0  0  0  0  0
   19.8361   -4.2822  -16.3814 O   0  0  0  0  0  0  0  0  0  0  0  0
   21.7521   -5.2997  -14.0468 C   0  0  0  0  0  0  0  0  0  0  0  0
   21.7531   -3.9062  -14.2582 O   0  0  0  0  0  0  0  0  0  0  0  0
   18.1463   -4.9111  -14.9602 O   0  0  0  0  0  0  0  0  0  0  0  0
   21.9886   -5.6665  -12.8754 O   0  0  0  0  0  0  0  0  0  0  0  0
  2  1  1  1
  3  2  1  0
  4 10  1  0
  4  2  1  0
  5  4  2  0
  7  9  1  0
  7  6  1  6
  8  7  1  0
  9 11  1  0
  9 10  1  6
 11 13  1  0
 12 11  2  0
 13 14  1  0
 14 18  1  0
 14 15  1  1
 16 15  1  0
 16 20  1  0
 17 16  2  0
 18 19  1  0
 21 18  2  0
M  END
$$$$
