ATD.pdb
     RDKit          3D

 21 20  0  0  1  0  0  0  0  0999 V2000
   17.1226  -10.5219  -17.2966 C   0  0  0  0  0  0  0  0  0  0  0  0
   18.1752  -11.4763  -16.8458 C   0  0  2  0  0  0  0  0  0  0  0  0
   17.7063  -12.5778  -16.0720 N   0  0  0  0  0  0  0  0  0  0  0  0
   19.2100  -10.7573  -16.0365 C   0  0  0  0  0  0  0  0  0  0  0  0
   18.9914  -10.6301  -14.7984 O   0  0  0  0  0  0  0  0  0  0  0  0
   23.8300   -8.9562  -15.6503 C   0  0  0  0  0  0  0  0  0  0  0  0
   22.7803   -9.7787  -16.3529 C   0  0  1  0  0  0  0  0  0  0  0  0
   23.1488  -11.1188  -16.2101 O   0  0  0  0  0  0  0  0  0  0  0  0
   21.4010   -9.5553  -15.8202 C   0  0  2  0  0  0  0  0  0  0  0  0
   20.3936  -10.2300  -16.6010 N   0  0  0  0  0  0  0  0  0  0  0  0
   21.1491   -8.0721  -15.8758 C   0  0  0  0  0  0  0  0  0  0  0  0
   20.8582   -7.5286  -16.9804 O   0  0  0  0  0  0  0  0  0  0  0  0
   21.2265   -7.2650  -14.7342 N   0  0  0  0  0  0  0  0  0  0  0  0
   20.9774   -5.8288  -14.8595 C   0  0  1  0  0  0  0  0  0  0  0  0
   19.4995   -5.6165  -14.6879 C   0  0  0  0  0  0  0  0  0  0  0  0
   19.1988   -4.1811  -14.7282 C   0  0  0  0  0  0  0  0  0  0  0  0
   19.6237   -3.4639  -15.6435 O   0  0  0  0  0  0  0  0  0  0  0  0
   21.8081   -5.0890  -13.8843 C   0  0  0  0  0  0  0  0  0  0  0  0
   22.6226   -5.7942  -12.9757 O   0  0  0  0  0  0  0  0  0  0  0  0
   18.4136   -3.6340  -13.6999 O   0  0  0  0  0  0  0  0  0  0  0  0
   21.8524   -3.8431  -13.7920 O   0  0  0  0  0  0  0  0  0  0  0  0
  2  1  1  1
  3  2  1  0
  4 10  1  0
  4  2  1  0
  5  4  2  0
  7  9  1  0
  7  6  1  1
  8  7  1  0
  9 11  1  0
  9 10  1  6
 11 13  1  0
 12 11  2  0
 13 14  1  0
 14 18  1  0
 14 15  1  1
 16 15  1  0
 16 20  1  0
 17 16  2  0
 18 19  1  0
 21 18  2  0
M  END
$$$$
