ATD.pdb
     RDKit          3D

 21 20  0  0  1  0  0  0  0  0999 V2000
   14.4612   -8.5900   -8.0275 C   0  0  0  0  0  0  0  0  0  0  0  0
   14.8316   -7.1536   -8.1745 C   0  0  2  0  0  0  0  0  0  0  0  0
   13.7736   -6.2262   -7.9453 N   0  0  0  0  0  0  0  0  0  0  0  0
   15.3727   -6.8990   -9.5475 C   0  0  0  0  0  0  0  0  0  0  0  0
   14.5533   -6.5205  -10.4319 O   0  0  0  0  0  0  0  0  0  0  0  0
   19.2532   -6.2285  -12.5827 C   0  0  0  0  0  0  0  0  0  0  0  0
   18.6748   -6.3916  -11.2004 C   0  0  1  0  0  0  0  0  0  0  0  0
   18.7806   -5.1518  -10.5649 O   0  0  0  0  0  0  0  0  0  0  0  0
   17.2538   -6.8575  -11.2064 C   0  0  2  0  0  0  0  0  0  0  0  0
   16.7373   -7.0651   -9.8759 N   0  0  0  0  0  0  0  0  0  0  0  0
   17.2293   -8.1668  -11.9490 C   0  0  0  0  0  0  0  0  0  0  0  0
   17.5506   -9.2325  -11.3477 O   0  0  0  0  0  0  0  0  0  0  0  0
   16.8589   -8.2462  -13.2970 N   0  0  0  0  0  0  0  0  0  0  0  0
   16.7143   -9.5623  -13.9193 C   0  0  1  0  0  0  0  0  0  0  0  0
   15.6648  -10.3085  -13.1442 C   0  0  0  0  0  0  0  0  0  0  0  0
   15.4474  -11.6268  -13.7502 C   0  0  0  0  0  0  0  0  0  0  0  0
   16.3509  -12.2029  -14.3700 O   0  0  0  0  0  0  0  0  0  0  0  0
   16.4020   -9.4057  -15.3567 C   0  0  0  0  0  0  0  0  0  0  0  0
   16.3067   -8.1172  -15.9198 O   0  0  0  0  0  0  0  0  0  0  0  0
   14.1842  -12.2255  -13.6113 O   0  0  0  0  0  0  0  0  0  0  0  0
   16.2076  -10.3543  -16.1472 O   0  0  0  0  0  0  0  0  0  0  0  0
  2  1  1  6
  3  2  1  0
  4 10  1  0
  4  2  1  0
  5  4  2  0
  7  9  1  0
  7  6  1  6
  8  7  1  0
  9 11  1  0
  9 10  1  1
 11 13  1  0
 12 11  2  0
 13 14  1  0
 14 18  1  0
 14 15  1  1
 16 15  1  0
 16 20  1  0
 17 16  2  0
 18 19  1  0
 21 18  2  0
M  END
$$$$
