ATD.pdb
     RDKit          3D

 21 20  0  0  1  0  0  0  0  0999 V2000
   19.2565  -13.2599  -16.9388 C   0  0  0  0  0  0  0  0  0  0  0  0
   19.4328  -11.8186  -17.2761 C   0  0  2  0  0  0  0  0  0  0  0  0
   20.1651  -11.5588  -18.4712 N   0  0  0  0  0  0  0  0  0  0  0  0
   20.1234  -11.1077  -16.1535 C   0  0  0  0  0  0  0  0  0  0  0  0
   19.6223  -11.2236  -14.9992 O   0  0  0  0  0  0  0  0  0  0  0  0
   23.7244  -11.2519  -14.8395 C   0  0  0  0  0  0  0  0  0  0  0  0
   23.3809   -9.8261  -15.1872 C   0  0  1  0  0  0  0  0  0  0  0  0
   24.0006   -9.5428  -16.4069 O   0  0  0  0  0  0  0  0  0  0  0  0
   21.9088   -9.5788  -15.2777 C   0  0  2  0  0  0  0  0  0  0  0  0
   21.2890  -10.3306  -16.3410 N   0  0  0  0  0  0  0  0  0  0  0  0
   21.7316   -8.1092  -15.5517 C   0  0  0  0  0  0  0  0  0  0  0  0
   21.3341   -7.7294  -16.6910 O   0  0  0  0  0  0  0  0  0  0  0  0
   21.9942   -7.1379  -14.5780 N   0  0  0  0  0  0  0  0  0  0  0  0
   21.6722   -5.7394  -14.8624 C   0  0  1  0  0  0  0  0  0  0  0  0
   20.2063   -5.6772  -15.1881 C   0  0  0  0  0  0  0  0  0  0  0  0
   19.8162   -4.2866  -15.4457 C   0  0  0  0  0  0  0  0  0  0  0  0
   20.3756   -3.6175  -16.3243 O   0  0  0  0  0  0  0  0  0  0  0  0
   22.0701   -4.8906  -13.7180 C   0  0  0  0  0  0  0  0  0  0  0  0
   22.3698   -3.5287  -13.9227 O   0  0  0  0  0  0  0  0  0  0  0  0
   18.7878   -3.7267  -14.6696 O   0  0  0  0  0  0  0  0  0  0  0  0
   22.1676   -5.2918  -12.5381 O   0  0  0  0  0  0  0  0  0  0  0  0
  2  1  1  1
  3  2  1  0
  4 10  1  0
  4  2  1  0
  5  4  2  0
  7  9  1  0
  7  6  1  6
  8  7  1  0
  9 11  1  0
  9 10  1  6
 11 13  1  0
 12 11  2  0
 13 14  1  0
 14 18  1  0
 14 15  1  1
 16 15  1  0
 16 20  1  0
 17 16  2  0
 18 19  1  0
 21 18  2  0
M  END
$$$$
