ATD.pdb
     RDKit          3D

 21 20  0  0  1  0  0  0  0  0999 V2000
   16.7227   -9.2921  -17.7419 C   0  0  0  0  0  0  0  0  0  0  0  0
   17.5757  -10.4550  -17.3648 C   0  0  2  0  0  0  0  0  0  0  0  0
   16.8667  -11.6220  -16.9557 N   0  0  0  0  0  0  0  0  0  0  0  0
   18.5057  -10.0731  -16.2548 C   0  0  0  0  0  0  0  0  0  0  0  0
   18.0169   -9.9902  -15.0925 O   0  0  0  0  0  0  0  0  0  0  0  0
   23.0836   -9.4753  -14.4744 C   0  0  0  0  0  0  0  0  0  0  0  0
   22.0967  -10.0344  -15.4670 C   0  0  1  0  0  0  0  0  0  0  0  0
   21.9746  -11.3997  -15.1964 O   0  0  0  0  0  0  0  0  0  0  0  0
   20.7595   -9.3674  -15.4095 C   0  0  2  0  0  0  0  0  0  0  0  0
   19.8786   -9.8092  -16.4625 N   0  0  0  0  0  0  0  0  0  0  0  0
   21.0041   -7.8903  -15.5656 C   0  0  0  0  0  0  0  0  0  0  0  0
   21.3274   -7.4264  -16.6973 O   0  0  0  0  0  0  0  0  0  0  0  0
   20.8844   -7.0025  -14.4894 N   0  0  0  0  0  0  0  0  0  0  0  0
   21.1971   -5.5881  -14.6950 C   0  0  1  0  0  0  0  0  0  0  0  0
   19.8914   -4.8449  -14.7368 C   0  0  0  0  0  0  0  0  0  0  0  0
   20.1437   -3.4148  -14.9454 C   0  0  0  0  0  0  0  0  0  0  0  0
   20.5198   -2.9851  -16.0437 O   0  0  0  0  0  0  0  0  0  0  0  0
   22.1213   -5.1203  -13.6390 C   0  0  0  0  0  0  0  0  0  0  0  0
   22.8782   -3.9477  -13.8352 O   0  0  0  0  0  0  0  0  0  0  0  0
   19.9481   -2.5377  -13.8656 O   0  0  0  0  0  0  0  0  0  0  0  0
   22.2967   -5.6973  -12.5440 O   0  0  0  0  0  0  0  0  0  0  0  0
  2  1  1  1
  3  2  1  0
  4 10  1  0
  4  2  1  0
  5  4  2  0
  7  9  1  0
  7  6  1  1
  8  7  1  0
  9 11  1  0
  9 10  1  6
 11 13  1  0
 12 11  2  0
 13 14  1  0
 14 18  1  0
 14 15  1  1
 16 15  1  0
 16 20  1  0
 17 16  2  0
 18 19  1  0
 21 18  2  0
M  END
$$$$
