ATD.pdb
     RDKit          3D

 21 20  0  0  1  0  0  0  0  0999 V2000
   16.3520  -11.8921  -14.6226 C   0  0  0  0  0  0  0  0  0  0  0  0
   17.1287  -12.5155  -15.7318 C   0  0  2  0  0  0  0  0  0  0  0  0
   17.3770  -13.9121  -15.5903 N   0  0  0  0  0  0  0  0  0  0  0  0
   18.4513  -11.8297  -15.8834 C   0  0  0  0  0  0  0  0  0  0  0  0
   19.4263  -12.3013  -15.2323 O   0  0  0  0  0  0  0  0  0  0  0  0
   20.3759  -11.0841  -19.1951 C   0  0  0  0  0  0  0  0  0  0  0  0
   20.1906   -9.8284  -18.3822 C   0  0  1  0  0  0  0  0  0  0  0  0
   19.1243   -9.1275  -18.9513 O   0  0  0  0  0  0  0  0  0  0  0  0
   19.9282  -10.0958  -16.9344 C   0  0  2  0  0  0  0  0  0  0  0  0
   18.6376  -10.6995  -16.7114 N   0  0  0  0  0  0  0  0  0  0  0  0
   19.9722   -8.7649  -16.2323 C   0  0  0  0  0  0  0  0  0  0  0  0
   18.8952   -8.1394  -16.0104 O   0  0  0  0  0  0  0  0  0  0  0  0
   21.1774   -8.1896  -15.8116 N   0  0  0  0  0  0  0  0  0  0  0  0
   21.1430   -6.9373  -15.0559 C   0  0  1  0  0  0  0  0  0  0  0  0
   22.5009   -6.7520  -14.4390 C   0  0  0  0  0  0  0  0  0  0  0  0
   22.5154   -5.5237  -13.6367 C   0  0  0  0  0  0  0  0  0  0  0  0
   22.7970   -4.4308  -14.1453 O   0  0  0  0  0  0  0  0  0  0  0  0
   20.7293   -5.8279  -15.9426 C   0  0  0  0  0  0  0  0  0  0  0  0
   19.9185   -4.7904  -15.4401 O   0  0  0  0  0  0  0  0  0  0  0  0
   22.2011   -5.6145  -12.2706 O   0  0  0  0  0  0  0  0  0  0  0  0
   21.0489   -5.7261  -17.1468 O   0  0  0  0  0  0  0  0  0  0  0  0
  2  1  1  1
  3  2  1  0
  4 10  1  0
  4  2  1  0
  5  4  2  0
  7  9  1  0
  7  6  1  6
  8  7  1  0
  9 11  1  0
  9 10  1  6
 11 13  1  0
 12 11  2  0
 13 14  1  0
 14 18  1  0
 14 15  1  6
 16 15  1  0
 16 20  1  0
 17 16  2  0
 18 19  1  0
 21 18  2  0
M  END
$$$$
