ATD.pdb
     RDKit          3D

 21 20  0  0  1  0  0  0  0  0999 V2000
   15.0174  -16.7051  -15.8421 C   0  0  0  0  0  0  0  0  0  0  0  0
   15.8635  -15.7175  -15.1135 C   0  0  2  0  0  0  0  0  0  0  0  0
   15.6672  -15.6724  -13.7023 N   0  0  0  0  0  0  0  0  0  0  0  0
   15.6270  -14.3402  -15.6518 C   0  0  0  0  0  0  0  0  0  0  0  0
   15.8276  -14.1586  -16.8862 O   0  0  0  0  0  0  0  0  0  0  0  0
   12.4206  -12.3322  -15.7066 C   0  0  0  0  0  0  0  0  0  0  0  0
   13.4925  -11.5257  -15.0192 C   0  0  1  0  0  0  0  0  0  0  0  0
   13.2770  -11.6485  -13.6442 O   0  0  0  0  0  0  0  0  0  0  0  0
   14.8782  -11.9625  -15.3733 C   0  0  2  0  0  0  0  0  0  0  0  0
   15.1973  -13.2647  -14.8418 N   0  0  0  0  0  0  0  0  0  0  0  0
   15.8183  -10.9487  -14.7778 C   0  0  0  0  0  0  0  0  0  0  0  0
   16.2453  -11.1097  -13.5979 O   0  0  0  0  0  0  0  0  0  0  0  0
   16.2411   -9.8216  -15.4930 N   0  0  0  0  0  0  0  0  0  0  0  0
   17.1322   -8.8596  -14.8442 C   0  0  1  0  0  0  0  0  0  0  0  0
   18.4758   -8.9801  -15.5067 C   0  0  0  0  0  0  0  0  0  0  0  0
   19.3821   -7.9560  -14.9754 C   0  0  0  0  0  0  0  0  0  0  0  0
   19.8329   -8.0353  -13.8252 O   0  0  0  0  0  0  0  0  0  0  0  0
   16.5452   -7.5038  -14.9179 C   0  0  0  0  0  0  0  0  0  0  0  0
   16.8894   -6.5346  -13.9542 O   0  0  0  0  0  0  0  0  0  0  0  0
   19.7298   -6.8767  -15.8045 O   0  0  0  0  0  0  0  0  0  0  0  0
   15.7384   -7.1275  -15.7954 O   0  0  0  0  0  0  0  0  0  0  0  0
  2  1  1  6
  3  2  1  0
  4 10  1  0
  4  2  1  0
  5  4  2  0
  7  9  1  0
  7  6  1  6
  8  7  1  0
  9 11  1  0
  9 10  1  1
 11 13  1  0
 12 11  2  0
 13 14  1  0
 14 18  1  0
 14 15  1  6
 16 15  1  0
 16 20  1  0
 17 16  2  0
 18 19  1  0
 21 18  2  0
M  END
$$$$
