ATD.pdb
     RDKit          3D

 21 20  0  0  1  0  0  0  0  0999 V2000
   18.1524  -15.8145  -17.6438 C   0  0  0  0  0  0  0  0  0  0  0  0
   18.7513  -14.8769  -16.6516 C   0  0  2  0  0  0  0  0  0  0  0  0
   18.1348  -14.8764  -15.3663 N   0  0  0  0  0  0  0  0  0  0  0  0
   18.7114  -13.4755  -17.1779 C   0  0  0  0  0  0  0  0  0  0  0  0
   19.4456  -13.2088  -18.1713 O   0  0  0  0  0  0  0  0  0  0  0  0
   15.7435  -11.3341  -18.4315 C   0  0  0  0  0  0  0  0  0  0  0  0
   16.4693  -10.6190  -17.3207 C   0  0  1  0  0  0  0  0  0  0  0  0
   15.7101  -10.7906  -16.1604 O   0  0  0  0  0  0  0  0  0  0  0  0
   17.8645  -11.1153  -17.1119 C   0  0  2  0  0  0  0  0  0  0  0  0
   17.8983  -12.4675  -16.6117 N   0  0  0  0  0  0  0  0  0  0  0  0
   18.5022  -10.2038  -16.0977 C   0  0  0  0  0  0  0  0  0  0  0  0
   19.0766  -10.6997  -15.0855 O   0  0  0  0  0  0  0  0  0  0  0  0
   18.4813   -8.8108  -16.2380 N   0  0  0  0  0  0  0  0  0  0  0  0
   19.3366   -7.9954  -15.3754 C   0  0  1  0  0  0  0  0  0  0  0  0
   20.7445   -8.4930  -15.5457 C   0  0  0  0  0  0  0  0  0  0  0  0
   21.6669   -7.6301  -14.7994 C   0  0  0  0  0  0  0  0  0  0  0  0
   21.3707   -7.1949  -13.6790 O   0  0  0  0  0  0  0  0  0  0  0  0
   19.1612   -6.5638  -15.7044 C   0  0  0  0  0  0  0  0  0  0  0  0
   19.3777   -5.5830  -14.7158 O   0  0  0  0  0  0  0  0  0  0  0  0
   22.9012   -7.3061  -15.3866 O   0  0  0  0  0  0  0  0  0  0  0  0
   18.8243   -6.1308  -16.8276 O   0  0  0  0  0  0  0  0  0  0  0  0
  2  1  1  6
  3  2  1  0
  4 10  1  0
  4  2  1  0
  5  4  2  0
  7  9  1  0
  7  6  1  6
  8  7  1  0
  9 11  1  0
  9 10  1  1
 11 13  1  0
 12 11  2  0
 13 14  1  0
 14 18  1  0
 14 15  1  6
 16 15  1  0
 16 20  1  0
 17 16  2  0
 18 19  1  0
 21 18  2  0
M  END
$$$$
