ATD.pdb
     RDKit          3D

 21 20  0  0  1  0  0  0  0  0999 V2000
   24.3335  -12.2388  -15.2954 C   0  0  0  0  0  0  0  0  0  0  0  0
   22.9789  -12.7285  -15.6792 C   0  0  2  0  0  0  0  0  0  0  0  0
   22.9551  -13.6871  -16.7341 N   0  0  0  0  0  0  0  0  0  0  0  0
   22.1119  -11.5780  -16.0879 C   0  0  0  0  0  0  0  0  0  0  0  0
   22.4546  -10.9322  -17.1187 O   0  0  0  0  0  0  0  0  0  0  0  0
   17.7253   -9.3336  -16.0537 C   0  0  0  0  0  0  0  0  0  0  0  0
   18.6417  -10.4517  -15.6270 C   0  0  1  0  0  0  0  0  0  0  0  0
   18.3050  -11.5703  -16.3934 O   0  0  0  0  0  0  0  0  0  0  0  0
   20.0911  -10.1219  -15.7905 C   0  0  2  0  0  0  0  0  0  0  0  0
   20.9515  -11.2019  -15.3741 N   0  0  0  0  0  0  0  0  0  0  0  0
   20.3631   -8.9202  -14.9255 C   0  0  0  0  0  0  0  0  0  0  0  0
   20.4730   -9.0634  -13.6734 O   0  0  0  0  0  0  0  0  0  0  0  0
   20.5004   -7.6356  -15.4653 N   0  0  0  0  0  0  0  0  0  0  0  0
   20.7524   -6.5088  -14.5667 C   0  0  1  0  0  0  0  0  0  0  0  0
   22.1358   -6.0025  -14.8644 C   0  0  0  0  0  0  0  0  0  0  0  0
   22.4275   -4.8379  -14.0213 C   0  0  0  0  0  0  0  0  0  0  0  0
   22.1598   -4.8400  -12.8126 O   0  0  0  0  0  0  0  0  0  0  0  0
   19.6918   -5.4906  -14.7298 C   0  0  0  0  0  0  0  0  0  0  0  0
   19.2730   -4.7271  -13.6217 O   0  0  0  0  0  0  0  0  0  0  0  0
   23.0209   -3.7132  -14.6180 O   0  0  0  0  0  0  0  0  0  0  0  0
   19.1113   -5.2381  -15.8078 O   0  0  0  0  0  0  0  0  0  0  0  0
  2  1  1  6
  3  2  1  0
  4 10  1  0
  4  2  1  0
  5  4  2  0
  7  9  1  0
  7  6  1  6
  8  7  1  0
  9 11  1  0
  9 10  1  1
 11 13  1  0
 12 11  2  0
 13 14  1  0
 14 18  1  0
 14 15  1  6
 16 15  1  0
 16 20  1  0
 17 16  2  0
 18 19  1  0
 21 18  2  0
M  END
$$$$
