ATD.pdb
     RDKit          3D

 21 20  0  0  1  0  0  0  0  0999 V2000
   18.2633  -11.1637  -18.2691 C   0  0  0  0  0  0  0  0  0  0  0  0
   19.5082  -11.8080  -17.7621 C   0  0  2  0  0  0  0  0  0  0  0  0
   19.3782  -13.1804  -17.3989 N   0  0  0  0  0  0  0  0  0  0  0  0
   20.0223  -11.0661  -16.5671 C   0  0  0  0  0  0  0  0  0  0  0  0
   19.4263  -11.2534  -15.4687 O   0  0  0  0  0  0  0  0  0  0  0  0
   23.3705  -11.3894  -15.0405 C   0  0  0  0  0  0  0  0  0  0  0  0
   23.1427   -9.9186  -15.2789 C   0  0  1  0  0  0  0  0  0  0  0  0
   23.8778   -9.5706  -16.4149 O   0  0  0  0  0  0  0  0  0  0  0  0
   21.7007   -9.5663  -15.4600 C   0  0  2  0  0  0  0  0  0  0  0  0
   21.1258  -10.1851  -16.6290 N   0  0  0  0  0  0  0  0  0  0  0  0
   21.6358   -8.0706  -15.6180 C   0  0  0  0  0  0  0  0  0  0  0  0
   21.3227   -7.5734  -16.7383 O   0  0  0  0  0  0  0  0  0  0  0  0
   21.9129   -7.2015  -14.5556 N   0  0  0  0  0  0  0  0  0  0  0  0
   21.8098   -5.7581  -14.7711 C   0  0  1  0  0  0  0  0  0  0  0  0
   20.3830   -5.4637  -15.1405 C   0  0  0  0  0  0  0  0  0  0  0  0
   20.2206   -4.0248  -15.3759 C   0  0  0  0  0  0  0  0  0  0  0  0
   21.0828   -3.3742  -15.9807 O   0  0  0  0  0  0  0  0  0  0  0  0
   22.2803   -5.0368  -13.5684 C   0  0  0  0  0  0  0  0  0  0  0  0
   22.5542   -3.6560  -13.6382 O   0  0  0  0  0  0  0  0  0  0  0  0
   19.0588   -3.3967  -14.8975 O   0  0  0  0  0  0  0  0  0  0  0  0
   22.4635   -5.5661  -12.4509 O   0  0  0  0  0  0  0  0  0  0  0  0
  2  1  1  1
  3  2  1  0
  4 10  1  0
  4  2  1  0
  5  4  2  0
  7  9  1  0
  7  6  1  6
  8  7  1  0
  9 11  1  0
  9 10  1  6
 11 13  1  0
 12 11  2  0
 13 14  1  0
 14 18  1  0
 14 15  1  1
 16 15  1  0
 16 20  1  0
 17 16  2  0
 18 19  1  0
 21 18  2  0
M  END
$$$$
