ATD.pdb
     RDKit          3D

 21 20  0  0  1  0  0  0  0  0999 V2000
   17.3534  -12.3402  -16.0793 C   0  0  0  0  0  0  0  0  0  0  0  0
   17.8441  -11.0077  -16.5328 C   0  0  2  0  0  0  0  0  0  0  0  0
   18.3126  -10.9578  -17.8782 N   0  0  0  0  0  0  0  0  0  0  0  0
   18.9547  -10.5381  -15.6447 C   0  0  0  0  0  0  0  0  0  0  0  0
   18.7189  -10.4790  -14.4046 O   0  0  0  0  0  0  0  0  0  0  0  0
   23.7459   -9.4802  -14.9250 C   0  0  0  0  0  0  0  0  0  0  0  0
   22.6256  -10.1408  -15.6869 C   0  0  1  0  0  0  0  0  0  0  0  0
   22.7270  -11.5144  -15.4523 O   0  0  0  0  0  0  0  0  0  0  0  0
   21.2712   -9.6414  -15.2961 C   0  0  2  0  0  0  0  0  0  0  0  0
   20.2263  -10.1684  -16.1388 N   0  0  0  0  0  0  0  0  0  0  0  0
   21.3034   -8.1430  -15.4381 C   0  0  0  0  0  0  0  0  0  0  0  0
   21.2395   -7.6228  -16.5895 O   0  0  0  0  0  0  0  0  0  0  0  0
   21.4026   -7.2963  -14.3273 N   0  0  0  0  0  0  0  0  0  0  0  0
   21.4448   -5.8490  -14.5368 C   0  0  1  0  0  0  0  0  0  0  0  0
   20.0323   -5.3913  -14.7698 C   0  0  0  0  0  0  0  0  0  0  0  0
   20.0086   -3.9359  -14.9528 C   0  0  0  0  0  0  0  0  0  0  0  0
   20.9397   -3.3468  -15.5172 O   0  0  0  0  0  0  0  0  0  0  0  0
   22.1064   -5.1950  -13.3867 C   0  0  0  0  0  0  0  0  0  0  0  0
   22.3979   -3.8169  -13.4329 O   0  0  0  0  0  0  0  0  0  0  0  0
   18.9000   -3.2202  -14.4711 O   0  0  0  0  0  0  0  0  0  0  0  0
   22.4430   -5.7814  -12.3353 O   0  0  0  0  0  0  0  0  0  0  0  0
  2  1  1  1
  3  2  1  0
  4 10  1  0
  4  2  1  0
  5  4  2  0
  7  9  1  0
  7  6  1  1
  8  7  1  0
  9 11  1  0
  9 10  1  6
 11 13  1  0
 12 11  2  0
 13 14  1  0
 14 18  1  0
 14 15  1  1
 16 15  1  0
 16 20  1  0
 17 16  2  0
 18 19  1  0
 21 18  2  0
M  END
$$$$
