ATD.pdb
     RDKit          3D

 21 20  0  0  1  0  0  0  0  0999 V2000
   17.7566  -11.0846  -18.1123 C   0  0  0  0  0  0  0  0  0  0  0  0
   19.0907  -11.6364  -17.7410 C   0  0  2  0  0  0  0  0  0  0  0  0
   19.1135  -13.0331  -17.4569 N   0  0  0  0  0  0  0  0  0  0  0  0
   19.6301  -10.9177  -16.5430 C   0  0  0  0  0  0  0  0  0  0  0  0
   19.0690  -11.1405  -15.4329 O   0  0  0  0  0  0  0  0  0  0  0  0
   23.0435  -11.2514  -15.1511 C   0  0  0  0  0  0  0  0  0  0  0  0
   22.7875   -9.7779  -15.3383 C   0  0  1  0  0  0  0  0  0  0  0  0
   23.4671   -9.3893  -16.4955 O   0  0  0  0  0  0  0  0  0  0  0  0
   21.3346   -9.4402  -15.4459 C   0  0  2  0  0  0  0  0  0  0  0  0
   20.7199  -10.0206  -16.6143 N   0  0  0  0  0  0  0  0  0  0  0  0
   21.2434   -7.9406  -15.5408 C   0  0  0  0  0  0  0  0  0  0  0  0
   20.7742   -7.4079  -16.5879 O   0  0  0  0  0  0  0  0  0  0  0  0
   21.6645   -7.1061  -14.4981 N   0  0  0  0  0  0  0  0  0  0  0  0
   21.4994   -5.6588  -14.6337 C   0  0  1  0  0  0  0  0  0  0  0  0
   20.0263   -5.3882  -14.7581 C   0  0  0  0  0  0  0  0  0  0  0  0
   19.7960   -3.9425  -14.8542 C   0  0  0  0  0  0  0  0  0  0  0  0
   20.6345   -3.1943  -15.3735 O   0  0  0  0  0  0  0  0  0  0  0  0
   22.1422   -4.9718  -13.4922 C   0  0  0  0  0  0  0  0  0  0  0  0
   22.4135   -3.5906  -13.5642 O   0  0  0  0  0  0  0  0  0  0  0  0
   18.5964   -3.4217  -14.3414 O   0  0  0  0  0  0  0  0  0  0  0  0
   22.4793   -5.5317  -12.4265 O   0  0  0  0  0  0  0  0  0  0  0  0
  2  1  1  1
  3  2  1  0
  4 10  1  0
  4  2  1  0
  5  4  2  0
  7  9  1  0
  7  6  1  6
  8  7  1  0
  9 11  1  0
  9 10  1  6
 11 13  1  0
 12 11  2  0
 13 14  1  0
 14 18  1  0
 14 15  1  1
 16 15  1  0
 16 20  1  0
 17 16  2  0
 18 19  1  0
 21 18  2  0
M  END
$$$$
