ATD.pdb
     RDKit          3D

 21 20  0  0  1  0  0  0  0  0999 V2000
   14.4624  -12.1029  -10.5064 C   0  0  0  0  0  0  0  0  0  0  0  0
   13.8024  -11.2010   -9.5199 C   0  0  2  0  0  0  0  0  0  0  0  0
   12.4001  -11.3990   -9.3580 N   0  0  0  0  0  0  0  0  0  0  0  0
   14.0202   -9.7700   -9.9041 C   0  0  0  0  0  0  0  0  0  0  0  0
   13.1921   -9.2535  -10.7068 O   0  0  0  0  0  0  0  0  0  0  0  0
   14.3824   -6.6265   -7.6528 C   0  0  0  0  0  0  0  0  0  0  0  0
   15.5680   -6.7533   -8.5749 C   0  0  1  0  0  0  0  0  0  0  0  0
   16.6195   -7.2766   -7.8182 O   0  0  0  0  0  0  0  0  0  0  0  0
   15.2996   -7.6169   -9.7660 C   0  0  2  0  0  0  0  0  0  0  0  0
   15.0964   -8.9993   -9.4088 N   0  0  0  0  0  0  0  0  0  0  0  0
   16.5090   -7.5158  -10.6567 C   0  0  0  0  0  0  0  0  0  0  0  0
   17.3656   -8.4467  -10.6556 O   0  0  0  0  0  0  0  0  0  0  0  0
   16.7203   -6.4149  -11.4957 N   0  0  0  0  0  0  0  0  0  0  0  0
   17.7757   -6.4823  -12.5066 C   0  0  1  0  0  0  0  0  0  0  0  0
   17.5428   -7.7302  -13.3112 C   0  0  0  0  0  0  0  0  0  0  0  0
   18.4655   -7.7623  -14.4513 C   0  0  0  0  0  0  0  0  0  0  0  0
   19.6730   -7.5332  -14.3036 O   0  0  0  0  0  0  0  0  0  0  0  0
   17.7797   -5.2408  -13.3109 C   0  0  0  0  0  0  0  0  0  0  0  0
   18.9406   -4.8619  -14.0146 O   0  0  0  0  0  0  0  0  0  0  0  0
   17.9466   -8.0603  -15.7222 O   0  0  0  0  0  0  0  0  0  0  0  0
   16.8043   -4.4675  -13.4256 O   0  0  0  0  0  0  0  0  0  0  0  0
  2  1  1  6
  3  2  1  0
  4 10  1  0
  4  2  1  0
  5  4  2  0
  7  9  1  0
  7  6  1  1
  8  7  1  0
  9 11  1  0
  9 10  1  1
 11 13  1  0
 12 11  2  0
 13 14  1  0
 14 18  1  0
 14 15  1  6
 16 15  1  0
 16 20  1  0
 17 16  2  0
 18 19  1  0
 21 18  2  0
M  END
$$$$
