AKL.pdb
     RDKit          3D

 23 22  0  0  1  0  0  0  0  0999 V2000
   11.4768  -11.2031  -14.7852 C   0  0  0  0  0  0  0  0  0  0  0  0
   11.8563  -10.1151  -15.8073 C   0  0  2  0  0  0  0  0  0  0  0  0
   11.7704  -10.7886  -17.0957 N   0  0  0  0  0  0  0  0  0  0  0  0
   13.2874   -9.7798  -15.6084 C   0  0  0  0  0  0  0  0  0  0  0  0
   13.5791   -9.2314  -14.5105 O   0  0  0  0  0  0  0  0  0  0  0  0
   14.2974  -10.0460  -16.5676 N   0  0  0  0  0  0  0  0  0  0  0  0
   15.6951   -9.7148  -16.3164 C   0  0  1  0  0  0  0  0  0  0  0  0
   16.4838  -10.6904  -17.1846 C   0  0  0  0  0  0  0  0  0  0  0  0
   17.9481  -10.4191  -17.2053 C   0  0  0  0  0  0  0  0  0  0  0  0
   18.7194  -11.6497  -16.7814 C   0  0  0  0  0  0  0  0  0  0  0  0
   20.2181  -11.4881  -16.8680 C   0  0  0  0  0  0  0  0  0  0  0  0
   20.8559  -12.7894  -16.7782 N   0  0  0  0  0  0  0  0  0  0  0  0
   16.0561   -8.3337  -16.5544 C   0  0  0  0  0  0  0  0  0  0  0  0
   15.8749   -7.8311  -17.7002 O   0  0  0  0  0  0  0  0  0  0  0  0
   14.6736   -3.1922  -16.1751 C   0  0  0  0  0  0  0  0  0  0  0  0
   16.0328   -3.7295  -15.6235 C   0  0  1  0  0  0  0  0  0  0  0  0
   16.2679   -2.9068  -14.3767 C   0  0  0  0  0  0  0  0  0  0  0  0
   15.8939   -5.1886  -15.4439 C   0  0  0  0  0  0  0  0  0  0  0  0
   16.9926   -6.0722  -15.8802 C   0  0  2  0  0  0  0  0  0  0  0  0
   16.6071   -7.4936  -15.5683 N   0  0  0  0  0  0  0  0  0  0  0  0
   18.3288   -5.9126  -15.3658 C   0  0  0  0  0  0  0  0  0  0  0  0
   19.1238   -4.8266  -15.7839 O   0  0  0  0  0  0  0  0  0  0  0  0
   18.8674   -6.6737  -14.5529 O   0  0  0  0  0  0  0  0  0  0  0  0
  2  1  1  1
  2  3  1  0
  2  4  1  0
  4  5  2  0
  6  4  1  0
  6  7  1  0
  7 13  1  0
  7  8  1  6
  9  8  1  0
  9 10  1  0
 10 11  1  0
 11 12  1  0
 13 14  2  0
 16 15  1  1
 16 18  1  0
 17 16  1  0
 19 18  1  1
 19 21  1  0
 20 19  1  0
 20 13  1  0
 21 23  2  0
 21 22  1  0
M  END
$$$$
