AKL.pdb
     RDKit          3D

 23 22  0  0  1  0  0  0  0  0999 V2000
   26.5026  -18.6505  -21.4988 C   0  0  0  0  0  0  0  0  0  0  0  0
   25.5658  -18.1206  -20.3969 C   0  0  2  0  0  0  0  0  0  0  0  0
   26.4592  -17.4659  -19.4514 N   0  0  0  0  0  0  0  0  0  0  0  0
   24.9905  -19.2879  -19.6852 C   0  0  0  0  0  0  0  0  0  0  0  0
   23.7377  -19.4160  -19.7562 O   0  0  0  0  0  0  0  0  0  0  0  0
   25.7675  -20.2274  -18.9609 N   0  0  0  0  0  0  0  0  0  0  0  0
   25.1486  -21.3212  -18.2212 C   0  0  1  0  0  0  0  0  0  0  0  0
   26.2693  -22.3385  -18.0292 C   0  0  0  0  0  0  0  0  0  0  0  0
   25.8440  -23.5605  -17.2918 C   0  0  0  0  0  0  0  0  0  0  0  0
   26.9877  -24.5466  -17.1991 C   0  0  0  0  0  0  0  0  0  0  0  0
   26.6057  -25.8639  -16.5679 C   0  0  0  0  0  0  0  0  0  0  0  0
   27.7665  -26.7343  -16.5131 N   0  0  0  0  0  0  0  0  0  0  0  0
   24.5133  -20.9447  -16.9766 C   0  0  0  0  0  0  0  0  0  0  0  0
   25.0740  -20.0999  -16.2215 O   0  0  0  0  0  0  0  0  0  0  0  0
   19.9158  -18.8387  -15.5448 C   0  0  0  0  0  0  0  0  0  0  0  0
   21.3954  -18.4124  -15.2810 C   0  0  1  0  0  0  0  0  0  0  0  0
   21.5156  -18.4369  -13.7738 C   0  0  0  0  0  0  0  0  0  0  0  0
   22.2654  -19.3371  -16.0350 C   0  0  0  0  0  0  0  0  0  0  0  0
   22.4183  -20.7258  -15.5591 C   0  0  2  0  0  0  0  0  0  0  0  0
   23.2810  -21.4696  -16.5434 N   0  0  0  0  0  0  0  0  0  0  0  0
   21.2721  -21.5693  -15.3353 C   0  0  0  0  0  0  0  0  0  0  0  0
   20.6841  -21.6409  -14.0566 O   0  0  0  0  0  0  0  0  0  0  0  0
   20.7301  -22.2674  -16.2010 O   0  0  0  0  0  0  0  0  0  0  0  0
  2  1  1  6
  2  3  1  0
  2  4  1  0
  4  5  2  0
  6  4  1  0
  6  7  1  0
  7 13  1  0
  7  8  1  1
  9  8  1  0
  9 10  1  0
 10 11  1  0
 11 12  1  0
 13 14  2  0
 16 15  1  1
 16 18  1  0
 17 16  1  0
 19 18  1  6
 19 21  1  0
 20 19  1  0
 20 13  1  0
 21 23  2  0
 21 22  1  0
M  END
$$$$
