AKL.pdb
     RDKit          3D

 23 22  0  0  1  0  0  0  0  0999 V2000
   28.6069  -21.6443  -16.5980 C   0  0  0  0  0  0  0  0  0  0  0  0
   27.3706  -20.7389  -16.7539 C   0  0  2  0  0  0  0  0  0  0  0  0
   27.8181  -19.4368  -16.2793 N   0  0  0  0  0  0  0  0  0  0  0  0
   26.3411  -21.2006  -15.7911 C   0  0  0  0  0  0  0  0  0  0  0  0
   25.7779  -22.2951  -16.0669 O   0  0  0  0  0  0  0  0  0  0  0  0
   25.9851  -20.4864  -14.6189 N   0  0  0  0  0  0  0  0  0  0  0  0
   24.9135  -20.9439  -13.7420 C   0  0  1  0  0  0  0  0  0  0  0  0
   25.3768  -20.5658  -12.3385 C   0  0  0  0  0  0  0  0  0  0  0  0
   24.4436  -21.0064  -11.2647 C   0  0  0  0  0  0  0  0  0  0  0  0
   25.0235  -20.6987   -9.9016 C   0  0  0  0  0  0  0  0  0  0  0  0
   24.2110  -21.2522   -8.7557 C   0  0  0  0  0  0  0  0  0  0  0  0
   24.8533  -20.9208   -7.4964 N   0  0  0  0  0  0  0  0  0  0  0  0
   23.5967  -20.4317  -14.0553 C   0  0  0  0  0  0  0  0  0  0  0  0
   23.4379  -19.1906  -14.2363 O   0  0  0  0  0  0  0  0  0  0  0  0
   19.2642  -21.4560  -17.7111 C   0  0  0  0  0  0  0  0  0  0  0  0
   19.9789  -20.3216  -16.9093 C   0  0  1  0  0  0  0  0  0  0  0  0
   18.8609  -19.6752  -16.1226 C   0  0  0  0  0  0  0  0  0  0  0  0
   21.0682  -20.9455  -16.1317 C   0  0  0  0  0  0  0  0  0  0  0  0
   21.1496  -20.6903  -14.6803 C   0  0  2  0  0  0  0  0  0  0  0  0
   22.4548  -21.2459  -14.1761 N   0  0  0  0  0  0  0  0  0  0  0  0
   20.1435  -21.1873  -13.7768 C   0  0  0  0  0  0  0  0  0  0  0  0
   19.0959  -20.3461  -13.3511 O   0  0  0  0  0  0  0  0  0  0  0  0
   20.1109  -22.3366  -13.3203 O   0  0  0  0  0  0  0  0  0  0  0  0
  2  1  1  1
  2  3  1  0
  2  4  1  0
  4  5  2  0
  6  4  1  0
  6  7  1  0
  7 13  1  0
  7  8  1  1
  9  8  1  0
  9 10  1  0
 10 11  1  0
 11 12  1  0
 13 14  2  0
 16 15  1  1
 16 18  1  0
 17 16  1  0
 19 18  1  6
 19 21  1  0
 20 19  1  0
 20 13  1  0
 21 23  2  0
 21 22  1  0
M  END
$$$$
