AKL.pdb
     RDKit          3D

 23 22  0  0  1  0  0  0  0  0999 V2000
   26.8307  -20.6811  -14.6884 C   0  0  0  0  0  0  0  0  0  0  0  0
   26.7529  -22.0241  -15.4386 C   0  0  2  0  0  0  0  0  0  0  0  0
   27.1936  -21.7057  -16.7896 N   0  0  0  0  0  0  0  0  0  0  0  0
   25.3236  -22.4054  -15.5469 C   0  0  0  0  0  0  0  0  0  0  0  0
   24.6271  -21.7185  -16.3431 O   0  0  0  0  0  0  0  0  0  0  0  0
   24.7381  -23.4728  -14.8197 N   0  0  0  0  0  0  0  0  0  0  0  0
   23.3046  -23.7355  -14.8709 C   0  0  1  0  0  0  0  0  0  0  0  0
   23.1879  -25.2535  -14.7722 C   0  0  0  0  0  0  0  0  0  0  0  0
   23.5334  -25.9605  -16.0367 C   0  0  0  0  0  0  0  0  0  0  0  0
   23.4670  -27.4590  -15.8394 C   0  0  0  0  0  0  0  0  0  0  0  0
   23.9977  -28.2510  -17.0101 C   0  0  0  0  0  0  0  0  0  0  0  0
   23.9159  -29.6707  -16.7170 N   0  0  0  0  0  0  0  0  0  0  0  0
   22.5133  -23.0460  -13.8744 C   0  0  0  0  0  0  0  0  0  0  0  0
   22.7964  -23.1832  -12.6500 O   0  0  0  0  0  0  0  0  0  0  0  0
   20.8838  -19.2344  -10.9009 C   0  0  0  0  0  0  0  0  0  0  0  0
   20.2094  -19.1329  -12.3063 C   0  0  1  0  0  0  0  0  0  0  0  0
   20.2891  -17.6602  -12.6403 C   0  0  0  0  0  0  0  0  0  0  0  0
   20.9200  -20.0612  -13.2083 C   0  0  0  0  0  0  0  0  0  0  0  0
   20.6435  -21.5077  -13.1106 C   0  0  2  0  0  0  0  0  0  0  0  0
   21.4243  -22.2111  -14.1885 N   0  0  0  0  0  0  0  0  0  0  0  0
   19.3007  -22.0199  -13.2095 C   0  0  0  0  0  0  0  0  0  0  0  0
   18.8719  -22.6602  -14.3895 O   0  0  0  0  0  0  0  0  0  0  0  0
   18.4505  -21.9485  -12.3137 O   0  0  0  0  0  0  0  0  0  0  0  0
  2  1  1  1
  2  3  1  0
  2  4  1  0
  4  5  2  0
  6  4  1  0
  6  7  1  0
  7 13  1  0
  7  8  1  1
  9  8  1  0
  9 10  1  0
 10 11  1  0
 11 12  1  0
 13 14  2  0
 16 15  1  1
 16 18  1  0
 17 16  1  0
 19 18  1  6
 19 21  1  0
 20 19  1  0
 20 13  1  0
 21 23  2  0
 21 22  1  0
M  END
$$$$
