AKL.pdb
     RDKit          3D

 23 22  0  0  1  0  0  0  0  0999 V2000
   29.0340  -19.3730  -14.5412 C   0  0  0  0  0  0  0  0  0  0  0  0
   27.5772  -19.1850  -15.0050 C   0  0  2  0  0  0  0  0  0  0  0  0
   27.5300  -17.8124  -15.4893 N   0  0  0  0  0  0  0  0  0  0  0  0
   26.7056  -19.2327  -13.8058 C   0  0  0  0  0  0  0  0  0  0  0  0
   26.6207  -18.1639  -13.1414 O   0  0  0  0  0  0  0  0  0  0  0  0
   25.9916  -20.3884  -13.3991 N   0  0  0  0  0  0  0  0  0  0  0  0
   25.1907  -20.4015  -12.1805 C   0  0  1  0  0  0  0  0  0  0  0  0
   24.0469  -21.3651  -12.4821 C   0  0  0  0  0  0  0  0  0  0  0  0
   22.6978  -20.7502  -12.3409 C   0  0  0  0  0  0  0  0  0  0  0  0
   21.9630  -20.7790  -13.6631 C   0  0  0  0  0  0  0  0  0  0  0  0
   20.6440  -20.0446  -13.6423 C   0  0  0  0  0  0  0  0  0  0  0  0
   19.9993  -20.1611  -14.9380 N   0  0  0  0  0  0  0  0  0  0  0  0
   25.9090  -20.7441  -10.9718 C   0  0  0  0  0  0  0  0  0  0  0  0
   26.7058  -21.7256  -10.9776 O   0  0  0  0  0  0  0  0  0  0  0  0
   29.0978  -20.4418   -6.7640 C   0  0  0  0  0  0  0  0  0  0  0  0
   27.7431  -19.7034   -6.5193 C   0  0  1  0  0  0  0  0  0  0  0  0
   28.1364  -18.4812   -5.7203 C   0  0  0  0  0  0  0  0  0  0  0  0
   27.1214  -19.4671   -7.8378 C   0  0  0  0  0  0  0  0  0  0  0  0
   26.3689  -20.5614   -8.4816 C   0  0  2  0  0  0  0  0  0  0  0  0
   25.7760  -20.0367   -9.7620 N   0  0  0  0  0  0  0  0  0  0  0  0
   25.2883  -21.2270   -7.7999 C   0  0  0  0  0  0  0  0  0  0  0  0
   23.9538  -20.8473   -8.0475 O   0  0  0  0  0  0  0  0  0  0  0  0
   25.4288  -22.1438   -6.9812 O   0  0  0  0  0  0  0  0  0  0  0  0
  2  1  1  1
  2  3  1  0
  2  4  1  0
  4  5  2  0
  6  4  1  0
  6  7  1  0
  7 13  1  0
  7  8  1  6
  9  8  1  0
  9 10  1  0
 10 11  1  0
 11 12  1  0
 13 14  2  0
 16 15  1  6
 16 18  1  0
 17 16  1  0
 19 18  1  1
 19 21  1  0
 20 19  1  0
 20 13  1  0
 21 23  2  0
 21 22  1  0
M  END
$$$$
