AKL.pdb
     RDKit          3D

 23 22  0  0  1  0  0  0  0  0999 V2000
   15.2119  -12.2958  -16.0236 C   0  0  0  0  0  0  0  0  0  0  0  0
   15.8806  -12.5935  -17.3789 C   0  0  2  0  0  0  0  0  0  0  0  0
   16.2065  -14.0113  -17.3137 N   0  0  0  0  0  0  0  0  0  0  0  0
   17.1753  -11.8709  -17.4187 C   0  0  0  0  0  0  0  0  0  0  0  0
   18.1461  -12.4447  -16.8535 O   0  0  0  0  0  0  0  0  0  0  0  0
   17.3534  -10.6119  -18.0465 N   0  0  0  0  0  0  0  0  0  0  0  0
   18.6471   -9.9391  -18.0547 C   0  0  1  0  0  0  0  0  0  0  0  0
   18.5537   -8.9394  -19.2034 C   0  0  0  0  0  0  0  0  0  0  0  0
   19.8096   -8.1706  -19.4270 C   0  0  0  0  0  0  0  0  0  0  0  0
   19.6568   -7.2420  -20.6116 C   0  0  0  0  0  0  0  0  0  0  0  0
   20.9067   -6.4602  -20.9370 C   0  0  0  0  0  0  0  0  0  0  0  0
   20.7098   -5.7134  -22.1665 N   0  0  0  0  0  0  0  0  0  0  0  0
   19.0312   -9.3217  -16.8034 C   0  0  0  0  0  0  0  0  0  0  0  0
   18.1415   -8.8265  -16.0541 O   0  0  0  0  0  0  0  0  0  0  0  0
   23.0357   -7.8921  -13.2599 C   0  0  0  0  0  0  0  0  0  0  0  0
   22.2734   -9.2416  -13.0642 C   0  0  1  0  0  0  0  0  0  0  0  0
   21.3117   -8.9531  -11.9334 C   0  0  0  0  0  0  0  0  0  0  0  0
   21.6818   -9.6106  -14.3658 C   0  0  0  0  0  0  0  0  0  0  0  0
   20.6939   -8.7063  -14.9860 C   0  0  2  0  0  0  0  0  0  0  0  0
   20.3631   -9.2370  -16.3555 N   0  0  0  0  0  0  0  0  0  0  0  0
   20.9766   -7.3060  -15.1723 C   0  0  0  0  0  0  0  0  0  0  0  0
   20.6405   -6.3758  -14.1683 O   0  0  0  0  0  0  0  0  0  0  0  0
   21.5128   -6.8219  -16.1766 O   0  0  0  0  0  0  0  0  0  0  0  0
  2  1  1  1
  2  3  1  0
  2  4  1  0
  4  5  2  0
  6  4  1  0
  6  7  1  0
  7 13  1  0
  7  8  1  6
  9  8  1  0
  9 10  1  0
 10 11  1  0
 11 12  1  0
 13 14  2  0
 16 15  1  6
 16 18  1  0
 17 16  1  0
 19 18  1  6
 19 21  1  0
 20 19  1  0
 20 13  1  0
 21 23  2  0
 21 22  1  0
M  END
$$$$
