AKL.pdb
     RDKit          3D

 23 22  0  0  1  0  0  0  0  0999 V2000
   18.6607  -15.1162  -15.3449 C   0  0  0  0  0  0  0  0  0  0  0  0
   18.0977  -14.6133  -16.6875 C   0  0  2  0  0  0  0  0  0  0  0  0
   18.4825  -15.6412  -17.6447 N   0  0  0  0  0  0  0  0  0  0  0  0
   18.8456  -13.3903  -17.0680 C   0  0  0  0  0  0  0  0  0  0  0  0
   20.0016  -13.5733  -17.5383 O   0  0  0  0  0  0  0  0  0  0  0  0
   18.3270  -12.0776  -16.9304 N   0  0  0  0  0  0  0  0  0  0  0  0
   19.1007  -10.9060  -17.3244 C   0  0  1  0  0  0  0  0  0  0  0  0
   18.0536   -9.8617  -17.6996 C   0  0  0  0  0  0  0  0  0  0  0  0
   17.3569  -10.1519  -18.9835 C   0  0  0  0  0  0  0  0  0  0  0  0
   16.3105   -9.0967  -19.2671 C   0  0  0  0  0  0  0  0  0  0  0  0
   15.4811   -9.3773  -20.4971 C   0  0  0  0  0  0  0  0  0  0  0  0
   14.3818   -8.4317  -20.5715 N   0  0  0  0  0  0  0  0  0  0  0  0
   20.0430  -10.4260  -16.3364 C   0  0  0  0  0  0  0  0  0  0  0  0
   19.7054  -10.3919  -15.1186 O   0  0  0  0  0  0  0  0  0  0  0  0
   24.3797  -10.3657  -13.4732 C   0  0  0  0  0  0  0  0  0  0  0  0
   24.6980   -9.7380  -14.8680 C   0  0  1  0  0  0  0  0  0  0  0  0
   26.0673  -10.2832  -15.2060 C   0  0  0  0  0  0  0  0  0  0  0  0
   23.5930  -10.0970  -15.7794 C   0  0  0  0  0  0  0  0  0  0  0  0
   22.2716   -9.4689  -15.5857 C   0  0  2  0  0  0  0  0  0  0  0  0
   21.3426   -9.9862  -16.6515 N   0  0  0  0  0  0  0  0  0  0  0  0
   22.1158   -8.0368  -15.5993 C   0  0  0  0  0  0  0  0  0  0  0  0
   22.0074   -7.3245  -14.3881 O   0  0  0  0  0  0  0  0  0  0  0  0
   22.0677   -7.3421  -16.6218 O   0  0  0  0  0  0  0  0  0  0  0  0
  2  1  1  1
  2  3  1  0
  2  4  1  0
  4  5  2  0
  6  4  1  0
  6  7  1  0
  7 13  1  0
  7  8  1  1
  9  8  1  0
  9 10  1  0
 10 11  1  0
 11 12  1  0
 13 14  2  0
 16 15  1  1
 16 18  1  0
 17 16  1  0
 19 18  1  6
 19 21  1  0
 20 19  1  0
 20 13  1  0
 21 23  2  0
 21 22  1  0
M  END
$$$$
