AKL.pdb
     RDKit          3D

 23 22  0  0  1  0  0  0  0  0999 V2000
   18.8802  -15.1655  -19.8171 C   0  0  0  0  0  0  0  0  0  0  0  0
   19.5718  -14.8333  -18.4815 C   0  0  2  0  0  0  0  0  0  0  0  0
   18.7918  -15.5545  -17.4853 N   0  0  0  0  0  0  0  0  0  0  0  0
   19.3656  -13.3906  -18.2060 C   0  0  0  0  0  0  0  0  0  0  0  0
   20.1056  -12.5945  -18.8461 O   0  0  0  0  0  0  0  0  0  0  0  0
   18.4038  -12.8954  -17.2892 N   0  0  0  0  0  0  0  0  0  0  0  0
   18.2651  -11.4681  -17.0247 C   0  0  1  0  0  0  0  0  0  0  0  0
   16.7920  -11.2831  -16.6734 C   0  0  0  0  0  0  0  0  0  0  0  0
   15.8746  -11.4849  -17.8291 C   0  0  0  0  0  0  0  0  0  0  0  0
   14.7081  -12.3623  -17.4307 C   0  0  0  0  0  0  0  0  0  0  0  0
   13.7395  -12.6348  -18.5563 C   0  0  0  0  0  0  0  0  0  0  0  0
   12.5688  -13.3200  -18.0385 N   0  0  0  0  0  0  0  0  0  0  0  0
   19.1541  -10.9370  -16.0137 C   0  0  0  0  0  0  0  0  0  0  0  0
   19.1866  -11.4729  -14.8691 O   0  0  0  0  0  0  0  0  0  0  0  0
   23.1099  -10.3776  -13.1244 C   0  0  0  0  0  0  0  0  0  0  0  0
   23.4238   -9.8206  -14.5498 C   0  0  1  0  0  0  0  0  0  0  0  0
   24.7341  -10.4809  -14.9157 C   0  0  0  0  0  0  0  0  0  0  0  0
   22.2619  -10.1211  -15.4101 C   0  0  0  0  0  0  0  0  0  0  0  0
   20.9949   -9.3996  -15.1809 C   0  0  2  0  0  0  0  0  0  0  0  0
   20.0065   -9.8375  -16.2285 N   0  0  0  0  0  0  0  0  0  0  0  0
   20.9447   -7.9598  -15.1802 C   0  0  0  0  0  0  0  0  0  0  0  0
   20.5858   -7.2630  -16.3514 O   0  0  0  0  0  0  0  0  0  0  0  0
   21.1971   -7.2455  -14.2022 O   0  0  0  0  0  0  0  0  0  0  0  0
  2  1  1  6
  2  3  1  0
  2  4  1  0
  4  5  2  0
  6  4  1  0
  6  7  1  0
  7 13  1  0
  7  8  1  1
  9  8  1  0
  9 10  1  0
 10 11  1  0
 11 12  1  0
 13 14  2  0
 16 15  1  1
 16 18  1  0
 17 16  1  0
 19 18  1  6
 19 21  1  0
 20 19  1  0
 20 13  1  0
 21 23  2  0
 21 22  1  0
M  END
$$$$
