AKL.pdb
     RDKit          3D

 23 22  0  0  1  0  0  0  0  0999 V2000
   20.1598  -19.6945  -19.2003 C   0  0  0  0  0  0  0  0  0  0  0  0
   19.5814  -19.0725  -17.9153 C   0  0  2  0  0  0  0  0  0  0  0  0
   19.0210  -17.8017  -18.3535 N   0  0  0  0  0  0  0  0  0  0  0  0
   20.7145  -18.7396  -17.0180 C   0  0  0  0  0  0  0  0  0  0  0  0
   21.3289  -17.6690  -17.2775 O   0  0  0  0  0  0  0  0  0  0  0  0
   21.1125  -19.5472  -15.9225 N   0  0  0  0  0  0  0  0  0  0  0  0
   22.2257  -19.1689  -15.0598 C   0  0  1  0  0  0  0  0  0  0  0  0
   21.9973  -19.9524  -13.7708 C   0  0  0  0  0  0  0  0  0  0  0  0
   23.0650  -19.7480  -12.7528 C   0  0  0  0  0  0  0  0  0  0  0  0
   22.7641  -20.5470  -11.5038 C   0  0  0  0  0  0  0  0  0  0  0  0
   23.7898  -20.3745  -10.4094 C   0  0  0  0  0  0  0  0  0  0  0  0
   23.4619  -21.2410   -9.2914 N   0  0  0  0  0  0  0  0  0  0  0  0
   23.5429  -19.3823  -15.6203 C   0  0  0  0  0  0  0  0  0  0  0  0
   23.8130  -20.4865  -16.1735 O   0  0  0  0  0  0  0  0  0  0  0  0
   27.4611  -18.1139  -18.7869 C   0  0  0  0  0  0  0  0  0  0  0  0
   27.7285  -17.3774  -17.4354 C   0  0  1  0  0  0  0  0  0  0  0  0
   28.2624  -16.0273  -17.8586 C   0  0  0  0  0  0  0  0  0  0  0  0
   26.4671  -17.3855  -16.6677 C   0  0  0  0  0  0  0  0  0  0  0  0
   25.9054  -18.6769  -16.2259 C   0  0  2  0  0  0  0  0  0  0  0  0
   24.5660  -18.4160  -15.5900 N   0  0  0  0  0  0  0  0  0  0  0  0
   26.6146  -19.5223  -15.2998 C   0  0  0  0  0  0  0  0  0  0  0  0
   26.2994  -19.4895  -13.9266 O   0  0  0  0  0  0  0  0  0  0  0  0
   27.5144  -20.3118  -15.6120 O   0  0  0  0  0  0  0  0  0  0  0  0
  2  1  1  6
  2  3  1  0
  2  4  1  0
  4  5  2  0
  6  4  1  0
  6  7  1  0
  7 13  1  0
  7  8  1  1
  9  8  1  0
  9 10  1  0
 10 11  1  0
 11 12  1  0
 13 14  2  0
 16 15  1  6
 16 18  1  0
 17 16  1  0
 19 18  1  1
 19 21  1  0
 20 19  1  0
 20 13  1  0
 21 23  2  0
 21 22  1  0
M  END
$$$$
