AKL.pdb
     RDKit          3D

 23 22  0  0  1  0  0  0  0  0999 V2000
   18.9650  -14.1632  -19.8637 C   0  0  0  0  0  0  0  0  0  0  0  0
   18.8954  -13.7098  -18.3932 C   0  0  2  0  0  0  0  0  0  0  0  0
   17.4849  -13.8245  -18.0496 N   0  0  0  0  0  0  0  0  0  0  0  0
   19.2186  -12.2630  -18.3449 C   0  0  0  0  0  0  0  0  0  0  0  0
   20.4453  -11.9718  -18.3063 O   0  0  0  0  0  0  0  0  0  0  0  0
   18.2381  -11.2386  -18.3440 N   0  0  0  0  0  0  0  0  0  0  0  0
   18.6037   -9.8320  -18.2250 C   0  0  1  0  0  0  0  0  0  0  0  0
   17.3928   -9.0730  -18.7592 C   0  0  0  0  0  0  0  0  0  0  0  0
   17.5031   -7.5953  -18.6099 C   0  0  0  0  0  0  0  0  0  0  0  0
   17.5049   -6.9259  -19.9667 C   0  0  0  0  0  0  0  0  0  0  0  0
   17.6322   -5.4227  -19.9033 C   0  0  0  0  0  0  0  0  0  0  0  0
   17.7302   -4.8835  -21.2478 N   0  0  0  0  0  0  0  0  0  0  0  0
   18.9935   -9.4042  -16.8985 C   0  0  0  0  0  0  0  0  0  0  0  0
   18.2502   -9.6763  -15.9127 O   0  0  0  0  0  0  0  0  0  0  0  0
   21.2699   -9.2229  -12.3988 C   0  0  0  0  0  0  0  0  0  0  0  0
   22.3365   -8.9422  -13.5052 C   0  0  1  0  0  0  0  0  0  0  0  0
   23.4882   -9.8498  -13.1360 C   0  0  0  0  0  0  0  0  0  0  0  0
   21.6930   -9.1788  -14.8131 C   0  0  0  0  0  0  0  0  0  0  0  0
   20.5622   -8.3224  -15.2207 C   0  0  2  0  0  0  0  0  0  0  0  0
   20.1759   -8.6896  -16.6287 N   0  0  0  0  0  0  0  0  0  0  0  0
   20.6721   -6.8860  -15.2125 C   0  0  0  0  0  0  0  0  0  0  0  0
   20.1942   -6.1453  -14.1129 O   0  0  0  0  0  0  0  0  0  0  0  0
   21.1711   -6.2113  -16.1214 O   0  0  0  0  0  0  0  0  0  0  0  0
  2  1  1  6
  2  3  1  0
  2  4  1  0
  4  5  2  0
  6  4  1  0
  6  7  1  0
  7 13  1  0
  7  8  1  1
  9  8  1  0
  9 10  1  0
 10 11  1  0
 11 12  1  0
 13 14  2  0
 16 15  1  1
 16 18  1  0
 17 16  1  0
 19 18  1  6
 19 21  1  0
 20 19  1  0
 20 13  1  0
 21 23  2  0
 21 22  1  0
M  END
$$$$
