AKL.pdb
     RDKit          3D

 23 22  0  0  1  0  0  0  0  0999 V2000
   20.5167  -15.5281  -15.5711 C   0  0  0  0  0  0  0  0  0  0  0  0
   19.3441  -15.0103  -16.4252 C   0  0  2  0  0  0  0  0  0  0  0  0
   19.5397  -15.6422  -17.7226 N   0  0  0  0  0  0  0  0  0  0  0  0
   19.5402  -13.5556  -16.6376 C   0  0  0  0  0  0  0  0  0  0  0  0
   20.4538  -13.2333  -17.4455 O   0  0  0  0  0  0  0  0  0  0  0  0
   18.7668  -12.5563  -15.9940 N   0  0  0  0  0  0  0  0  0  0  0  0
   19.0344  -11.1369  -16.1943 C   0  0  1  0  0  0  0  0  0  0  0  0
   17.7218  -10.4442  -15.8411 C   0  0  0  0  0  0  0  0  0  0  0  0
   16.6167  -10.7413  -16.7944 C   0  0  0  0  0  0  0  0  0  0  0  0
   16.5360   -9.6704  -17.8600 C   0  0  0  0  0  0  0  0  0  0  0  0
   15.4092   -9.8748  -18.8439 C   0  0  0  0  0  0  0  0  0  0  0  0
   15.4925   -8.8780  -19.8963 N   0  0  0  0  0  0  0  0  0  0  0  0
   20.1629  -10.6101  -15.4570 C   0  0  0  0  0  0  0  0  0  0  0  0
   20.1782  -10.6967  -14.1958 O   0  0  0  0  0  0  0  0  0  0  0  0
   25.3228  -10.8164  -14.0296 C   0  0  0  0  0  0  0  0  0  0  0  0
   24.9341   -9.7138  -15.0658 C   0  0  1  0  0  0  0  0  0  0  0  0
   26.1370   -9.6352  -15.9788 C   0  0  0  0  0  0  0  0  0  0  0  0
   23.6535  -10.1147  -15.6820 C   0  0  0  0  0  0  0  0  0  0  0  0
   22.4102   -9.4471  -15.2499 C   0  0  2  0  0  0  0  0  0  0  0  0
   21.2716   -9.9948  -16.0684 N   0  0  0  0  0  0  0  0  0  0  0  0
   22.2729   -8.0141  -15.3074 C   0  0  0  0  0  0  0  0  0  0  0  0
   21.7127   -7.4013  -16.4461 O   0  0  0  0  0  0  0  0  0  0  0  0
   22.6149   -7.2360  -14.4086 O   0  0  0  0  0  0  0  0  0  0  0  0
  2  1  1  1
  2  3  1  0
  2  4  1  0
  4  5  2  0
  6  4  1  0
  6  7  1  0
  7 13  1  0
  7  8  1  1
  9  8  1  0
  9 10  1  0
 10 11  1  0
 11 12  1  0
 13 14  2  0
 16 15  1  1
 16 18  1  0
 17 16  1  0
 19 18  1  6
 19 21  1  0
 20 19  1  0
 20 13  1  0
 21 23  2  0
 21 22  1  0
M  END
$$$$
