AKL.pdb
     RDKit          3D

 23 22  0  0  1  0  0  0  0  0999 V2000
   29.0069  -26.3348  -18.7321 C   0  0  0  0  0  0  0  0  0  0  0  0
   27.9787  -26.7154  -17.6501 C   0  0  2  0  0  0  0  0  0  0  0  0
   28.0694  -25.6376  -16.6749 N   0  0  0  0  0  0  0  0  0  0  0  0
   28.4662  -27.9375  -16.9654 C   0  0  0  0  0  0  0  0  0  0  0  0
   29.2782  -27.7534  -16.0179 O   0  0  0  0  0  0  0  0  0  0  0  0
   28.0655  -29.2503  -17.3215 N   0  0  0  0  0  0  0  0  0  0  0  0
   28.5951  -30.4228  -16.6349 C   0  0  1  0  0  0  0  0  0  0  0  0
   27.3664  -31.2680  -16.3132 C   0  0  0  0  0  0  0  0  0  0  0  0
   27.6818  -32.5156  -15.5634 C   0  0  0  0  0  0  0  0  0  0  0  0
   26.4111  -33.2625  -15.2220 C   0  0  0  0  0  0  0  0  0  0  0  0
   26.6426  -34.5267  -14.4297 C   0  0  0  0  0  0  0  0  0  0  0  0
   25.3736  -35.0383  -13.9441 N   0  0  0  0  0  0  0  0  0  0  0  0
   29.6084  -31.1590  -17.3599 C   0  0  0  0  0  0  0  0  0  0  0  0
   29.5058  -31.2908  -18.6130 O   0  0  0  0  0  0  0  0  0  0  0  0
   34.6550  -31.2280  -18.8628 C   0  0  0  0  0  0  0  0  0  0  0  0
   34.3281  -32.3487  -17.8246 C   0  0  1  0  0  0  0  0  0  0  0  0
   35.5997  -32.4748  -17.0161 C   0  0  0  0  0  0  0  0  0  0  0  0
   33.1116  -31.9378  -17.0955 C   0  0  0  0  0  0  0  0  0  0  0  0
   31.7987  -32.4276  -17.5587 C   0  0  2  0  0  0  0  0  0  0  0  0
   30.7285  -31.7500  -16.7451 N   0  0  0  0  0  0  0  0  0  0  0  0
   31.4733  -33.8308  -17.5329 C   0  0  0  0  0  0  0  0  0  0  0  0
   31.9588  -34.6892  -18.5396 O   0  0  0  0  0  0  0  0  0  0  0  0
   30.7769  -34.3778  -16.6690 O   0  0  0  0  0  0  0  0  0  0  0  0
  2  1  1  6
  2  3  1  0
  2  4  1  0
  4  5  2  0
  6  4  1  0
  6  7  1  0
  7 13  1  0
  7  8  1  6
  9  8  1  0
  9 10  1  0
 10 11  1  0
 11 12  1  0
 13 14  2  0
 16 15  1  6
 16 18  1  0
 17 16  1  0
 19 18  1  1
 19 21  1  0
 20 19  1  0
 20 13  1  0
 21 23  2  0
 21 22  1  0
M  END
$$$$
