AKL.pdb
     RDKit          3D

 23 22  0  0  1  0  0  0  0  0999 V2000
   29.0254  -17.9998  -15.1532 C   0  0  0  0  0  0  0  0  0  0  0  0
   28.0221  -19.0982  -15.5527 C   0  0  2  0  0  0  0  0  0  0  0  0
   27.3256  -18.5448  -16.7057 N   0  0  0  0  0  0  0  0  0  0  0  0
   27.0125  -19.2105  -14.4719 C   0  0  0  0  0  0  0  0  0  0  0  0
   26.2124  -18.2418  -14.3601 O   0  0  0  0  0  0  0  0  0  0  0  0
   26.9170  -20.3238  -13.5987 N   0  0  0  0  0  0  0  0  0  0  0  0
   25.8634  -20.4186  -12.5950 C   0  0  1  0  0  0  0  0  0  0  0  0
   24.8573  -21.4021  -13.1850 C   0  0  0  0  0  0  0  0  0  0  0  0
   23.5319  -20.7913  -13.4823 C   0  0  0  0  0  0  0  0  0  0  0  0
   22.5655  -21.8428  -13.9816 C   0  0  0  0  0  0  0  0  0  0  0  0
   21.2321  -21.2854  -14.4184 C   0  0  0  0  0  0  0  0  0  0  0  0
   20.4351  -22.3396  -15.0197 N   0  0  0  0  0  0  0  0  0  0  0  0
   26.3043  -20.7948  -11.2689 C   0  0  0  0  0  0  0  0  0  0  0  0
   27.0622  -21.7964  -11.1252 O   0  0  0  0  0  0  0  0  0  0  0  0
   28.9043  -20.6267   -6.7523 C   0  0  0  0  0  0  0  0  0  0  0  0
   27.5580  -19.8389   -6.6660 C   0  0  1  0  0  0  0  0  0  0  0  0
   27.9010  -18.6274   -5.8285 C   0  0  0  0  0  0  0  0  0  0  0  0
   27.1008  -19.5876   -8.0474 C   0  0  0  0  0  0  0  0  0  0  0  0
   26.3005  -20.6188   -8.7361 C   0  0  2  0  0  0  0  0  0  0  0  0
   25.9364  -20.0995  -10.1015 N   0  0  0  0  0  0  0  0  0  0  0  0
   25.0711  -21.1121   -8.1699 C   0  0  0  0  0  0  0  0  0  0  0  0
   25.0960  -22.1538   -7.2210 O   0  0  0  0  0  0  0  0  0  0  0  0
   23.9442  -20.6860   -8.4506 O   0  0  0  0  0  0  0  0  0  0  0  0
  2  1  1  1
  2  3  1  0
  2  4  1  0
  4  5  2  0
  6  4  1  0
  6  7  1  0
  7 13  1  0
  7  8  1  6
  9  8  1  0
  9 10  1  0
 10 11  1  0
 11 12  1  0
 13 14  2  0
 16 15  1  6
 16 18  1  0
 17 16  1  0
 19 18  1  1
 19 21  1  0
 20 19  1  0
 20 13  1  0
 21 23  2  0
 21 22  1  0
M  END
$$$$
