AKL.pdb
     RDKit          3D

 23 22  0  0  1  0  0  0  0  0999 V2000
   21.6987   -8.1976  -21.5250 C   0  0  0  0  0  0  0  0  0  0  0  0
   20.1674   -8.3426  -21.6056 C   0  0  2  0  0  0  0  0  0  0  0  0
   19.7419   -7.2058  -22.4102 N   0  0  0  0  0  0  0  0  0  0  0  0
   19.6147   -8.1204  -20.2473 C   0  0  0  0  0  0  0  0  0  0  0  0
   19.3749   -6.9214  -19.9375 O   0  0  0  0  0  0  0  0  0  0  0  0
   19.3540   -9.1652  -19.3246 N   0  0  0  0  0  0  0  0  0  0  0  0
   18.8755   -8.8900  -17.9748 C   0  0  1  0  0  0  0  0  0  0  0  0
   18.1563  -10.1678  -17.5535 C   0  0  0  0  0  0  0  0  0  0  0  0
   17.5779  -10.1009  -16.1826 C   0  0  0  0  0  0  0  0  0  0  0  0
   16.8424  -11.3822  -15.8564 C   0  0  0  0  0  0  0  0  0  0  0  0
   16.2275  -11.3965  -14.4776 C   0  0  0  0  0  0  0  0  0  0  0  0
   15.4858  -12.6300  -14.2861 N   0  0  0  0  0  0  0  0  0  0  0  0
   19.8921   -8.4806  -17.0296 C   0  0  0  0  0  0  0  0  0  0  0  0
   20.9546   -9.1576  -16.9253 O   0  0  0  0  0  0  0  0  0  0  0  0
   23.3688   -4.1150  -16.1109 C   0  0  0  0  0  0  0  0  0  0  0  0
   22.7252   -5.1806  -15.1670 C   0  0  1  0  0  0  0  0  0  0  0  0
   22.3423   -4.3897  -13.9364 C   0  0  0  0  0  0  0  0  0  0  0  0
   21.6274   -5.8289  -15.9120 C   0  0  0  0  0  0  0  0  0  0  0  0
   20.8864   -6.9361  -15.2769 C   0  0  2  0  0  0  0  0  0  0  0  0
   19.7719   -7.3491  -16.2008 N   0  0  0  0  0  0  0  0  0  0  0  0
   20.2764   -6.7805  -13.9811 C   0  0  0  0  0  0  0  0  0  0  0  0
   21.0570   -6.8902  -12.8129 O   0  0  0  0  0  0  0  0  0  0  0  0
   19.0767   -6.5472  -13.7895 O   0  0  0  0  0  0  0  0  0  0  0  0
  2  1  1  1
  2  3  1  0
  2  4  1  0
  4  5  2  0
  6  4  1  0
  6  7  1  0
  7 13  1  0
  7  8  1  1
  9  8  1  0
  9 10  1  0
 10 11  1  0
 11 12  1  0
 13 14  2  0
 16 15  1  6
 16 18  1  0
 17 16  1  0
 19 18  1  6
 19 21  1  0
 20 19  1  0
 20 13  1  0
 21 23  2  0
 21 22  1  0
M  END
$$$$
