SYY.pdb
     RDKit          3D

 31 32  0  0  1  0  0  0  0  0999 V2000
   21.6563   -3.2450  -14.5826 O   0  0  0  0  0  0  0  0  0  0  0  0
   22.1732   -4.2188  -15.4193 C   0  0  0  0  0  0  0  0  0  0  0  0
   21.7626   -3.9881  -16.8689 C   0  0  2  0  0  0  0  0  0  0  0  0
   20.3573   -4.2102  -17.0217 N   0  0  0  0  0  0  0  0  0  0  0  0
   22.5572   -4.8754  -17.7404 C   0  0  0  0  0  0  0  0  0  0  0  0
   22.0510   -5.9608  -18.1679 O   0  0  0  0  0  0  0  0  0  0  0  0
   27.9332   -8.7333  -23.2630 O   0  0  0  0  0  0  0  0  0  0  0  0
   27.3357   -7.7630  -22.4596 C   0  0  0  0  0  0  0  0  0  0  0  0
   27.9973   -7.2072  -21.3723 C   0  0  0  0  0  0  0  0  0  0  0  0
   27.4342   -6.2513  -20.5646 C   0  0  0  0  0  0  0  0  0  0  0  0
   26.1490   -5.8126  -20.8353 C   0  0  0  0  0  0  0  0  0  0  0  0
   25.4810   -4.7805  -20.0039 C   0  0  0  0  0  0  0  0  0  0  0  0
   24.6070   -5.5124  -19.0089 C   0  0  2  0  0  0  0  0  0  0  0  0
   23.8841   -4.6056  -18.1531 N   0  0  0  0  0  0  0  0  0  0  0  0
   25.4500   -6.3850  -18.1125 C   0  0  0  0  0  0  0  0  0  0  0  0
   26.4214   -5.9035  -17.4746 O   0  0  0  0  0  0  0  0  0  0  0  0
   25.4406   -6.3394  -21.9165 C   0  0  0  0  0  0  0  0  0  0  0  0
   26.0581   -7.2986  -22.6941 C   0  0  0  0  0  0  0  0  0  0  0  0
   20.1768  -10.8759  -15.7615 O   0  0  0  0  0  0  0  0  0  0  0  0
   21.4340  -10.2708  -15.7480 C   0  0  0  0  0  0  0  0  0  0  0  0
   22.5029  -10.8799  -15.1259 C   0  0  0  0  0  0  0  0  0  0  0  0
   23.7486  -10.2843  -15.1106 C   0  0  0  0  0  0  0  0  0  0  0  0
   24.0079   -9.0666  -15.7015 C   0  0  0  0  0  0  0  0  0  0  0  0
   25.3380   -8.4195  -15.6825 C   0  0  0  0  0  0  0  0  0  0  0  0
   25.9648   -8.5661  -17.0732 C   0  0  2  0  0  0  0  0  0  0  0  0
   25.1534   -7.7646  -17.9799 N   0  0  0  0  0  0  0  0  0  0  0  0
   26.0632   -9.9581  -17.5231 C   0  0  0  0  0  0  0  0  0  0  0  0
   26.9499  -10.8383  -16.8852 O   0  0  0  0  0  0  0  0  0  0  0  0
   22.9120   -8.4601  -16.3299 C   0  0  0  0  0  0  0  0  0  0  0  0
   21.6677   -9.0521  -16.3470 C   0  0  0  0  0  0  0  0  0  0  0  0
   25.3824  -10.4168  -18.4695 O   0  0  0  0  0  0  0  0  0  0  0  0
  2  1  1  0
  3  5  1  0
  3  2  1  0
  3  4  1  1
  5  6  2  0
  8  7  1  0
  8  9  2  0
 10  9  1  0
 11 10  2  0
 12 11  1  0
 13 12  1  6
 14 13  1  0
 14  5  1  0
 15 16  2  0
 15 13  1  0
 17 18  2  0
 17 11  1  0
 18  8  1  0
 19 20  1  0
 20 30  2  0
 21 22  2  0
 21 20  1  0
 22 23  1  0
 23 24  1  0
 23 29  2  0
 25 24  1  1
 25 27  1  0
 25 26  1  0
 26 15  1  0
 27 28  1  0
 30 29  1  0
 31 27  2  0
M  END
$$$$
