SYY.pdb
     RDKit          3D

 31 32  0  0  1  0  0  0  0  0999 V2000
   28.6473  -19.0139  -14.7712 O   0  0  0  0  0  0  0  0  0  0  0  0
   28.2843  -20.2604  -15.2508 C   0  0  0  0  0  0  0  0  0  0  0  0
   26.7824  -20.3521  -15.4934 C   0  0  2  0  0  0  0  0  0  0  0  0
   26.3898  -19.4128  -16.4989 N   0  0  0  0  0  0  0  0  0  0  0  0
   26.0748  -20.1209  -14.2191 C   0  0  0  0  0  0  0  0  0  0  0  0
   25.6848  -18.9491  -13.9158 O   0  0  0  0  0  0  0  0  0  0  0  0
   19.8428  -19.3285  -15.2769 O   0  0  0  0  0  0  0  0  0  0  0  0
   20.8139  -19.9186  -14.4691 C   0  0  0  0  0  0  0  0  0  0  0  0
   21.6298  -20.9405  -14.9370 C   0  0  0  0  0  0  0  0  0  0  0  0
   22.5933  -21.5395  -14.1648 C   0  0  0  0  0  0  0  0  0  0  0  0
   22.7700  -21.1149  -12.8588 C   0  0  0  0  0  0  0  0  0  0  0  0
   23.7943  -21.7176  -11.9697 C   0  0  0  0  0  0  0  0  0  0  0  0
   25.0337  -20.8563  -12.0762 C   0  0  2  0  0  0  0  0  0  0  0  0
   25.7853  -21.1344  -13.2742 N   0  0  0  0  0  0  0  0  0  0  0  0
   25.9544  -21.1156  -10.9097 C   0  0  0  0  0  0  0  0  0  0  0  0
   26.4484  -22.2570  -10.7212 O   0  0  0  0  0  0  0  0  0  0  0  0
   21.9758  -20.0910  -12.3399 C   0  0  0  0  0  0  0  0  0  0  0  0
   21.0226  -19.5258  -13.1632 C   0  0  0  0  0  0  0  0  0  0  0  0
   29.2212  -20.2430   -2.8187 O   0  0  0  0  0  0  0  0  0  0  0  0
   28.8285  -19.9940   -4.1343 C   0  0  0  0  0  0  0  0  0  0  0  0
   27.7752  -19.1475   -4.4072 C   0  0  0  0  0  0  0  0  0  0  0  0
   27.3837  -18.8984   -5.7078 C   0  0  0  0  0  0  0  0  0  0  0  0
   28.0021  -19.4646   -6.8015 C   0  0  0  0  0  0  0  0  0  0  0  0
   27.5831  -19.2080   -8.1968 C   0  0  0  0  0  0  0  0  0  0  0  0
   26.7812  -20.4175   -8.6889 C   0  0  2  0  0  0  0  0  0  0  0  0
   26.2735  -20.0685  -10.0093 N   0  0  0  0  0  0  0  0  0  0  0  0
   25.6993  -20.8073   -7.7793 C   0  0  0  0  0  0  0  0  0  0  0  0
   25.9471  -21.7308   -6.7529 O   0  0  0  0  0  0  0  0  0  0  0  0
   29.0707  -20.3224   -6.5082 C   0  0  0  0  0  0  0  0  0  0  0  0
   29.4640  -20.5727   -5.2113 C   0  0  0  0  0  0  0  0  0  0  0  0
   24.5364  -20.3500   -7.8703 O   0  0  0  0  0  0  0  0  0  0  0  0
  2  1  1  0
  3  5  1  0
  3  2  1  0
  3  4  1  6
  5  6  2  0
  8  7  1  0
  8  9  2  0
 10  9  1  0
 11 10  2  0
 12 11  1  0
 13 12  1  1
 14 13  1  0
 14  5  1  0
 15 16  2  0
 15 13  1  0
 17 18  2  0
 17 11  1  0
 18  8  1  0
 19 20  1  0
 20 30  2  0
 21 22  2  0
 21 20  1  0
 22 23  1  0
 23 24  1  0
 23 29  2  0
 25 24  1  1
 25 27  1  0
 25 26  1  0
 26 15  1  0
 27 28  1  0
 30 29  1  0
 31 27  2  0
M  END
$$$$
