SYY.pdb
     RDKit          3D

 31 32  0  0  1  0  0  0  0  0999 V2000
   16.7702  -11.3887  -13.8353 O   0  0  0  0  0  0  0  0  0  0  0  0
   16.1794  -11.3115  -15.0846 C   0  0  0  0  0  0  0  0  0  0  0  0
   17.0099  -12.0278  -16.1428 C   0  0  2  0  0  0  0  0  0  0  0  0
   17.2896  -13.3669  -15.7231 N   0  0  0  0  0  0  0  0  0  0  0  0
   18.2458  -11.2586  -16.3857 C   0  0  0  0  0  0  0  0  0  0  0  0
   19.3648  -11.7198  -15.9955 O   0  0  0  0  0  0  0  0  0  0  0  0
   20.1658  -13.2231  -22.2830 O   0  0  0  0  0  0  0  0  0  0  0  0
   20.0081  -12.1388  -21.4209 C   0  0  0  0  0  0  0  0  0  0  0  0
   18.7517  -11.6599  -21.0730 C   0  0  0  0  0  0  0  0  0  0  0  0
   18.5665  -10.5950  -20.2275 C   0  0  0  0  0  0  0  0  0  0  0  0
   19.6740   -9.9608  -19.6902 C   0  0  0  0  0  0  0  0  0  0  0  0
   19.5457   -8.8050  -18.7680 C   0  0  0  0  0  0  0  0  0  0  0  0
   19.5363   -9.3613  -17.3610 C   0  0  2  0  0  0  0  0  0  0  0  0
   18.2868  -10.0046  -17.0412 N   0  0  0  0  0  0  0  0  0  0  0  0
   19.7291   -8.2519  -16.3571 C   0  0  0  0  0  0  0  0  0  0  0  0
   18.7453   -7.6005  -15.9212 O   0  0  0  0  0  0  0  0  0  0  0  0
   20.9592  -10.4032  -20.0081 C   0  0  0  0  0  0  0  0  0  0  0  0
   21.0841  -11.4790  -20.8642 C   0  0  0  0  0  0  0  0  0  0  0  0
   26.5559  -10.0568  -16.1343 O   0  0  0  0  0  0  0  0  0  0  0  0
   25.4521   -9.4269  -15.5584 C   0  0  0  0  0  0  0  0  0  0  0  0
   25.2904   -8.0612  -15.6544 C   0  0  0  0  0  0  0  0  0  0  0  0
   24.1993   -7.4341  -15.0860 C   0  0  0  0  0  0  0  0  0  0  0  0
   23.2163   -8.1114  -14.3973 C   0  0  0  0  0  0  0  0  0  0  0  0
   22.0490   -7.4452  -13.7796 C   0  0  0  0  0  0  0  0  0  0  0  0
   21.1718   -6.8750  -14.8993 C   0  0  2  0  0  0  0  0  0  0  0  0
   21.0292   -7.9313  -15.8926 N   0  0  0  0  0  0  0  0  0  0  0  0
   21.7094   -5.6457  -15.4907 C   0  0  0  0  0  0  0  0  0  0  0  0
   21.7655   -4.4693  -14.7286 O   0  0  0  0  0  0  0  0  0  0  0  0
   23.3945   -9.4985  -14.3083 C   0  0  0  0  0  0  0  0  0  0  0  0
   24.4821  -10.1272  -14.8748 C   0  0  0  0  0  0  0  0  0  0  0  0
   22.1321   -5.5860  -16.6686 O   0  0  0  0  0  0  0  0  0  0  0  0
  2  1  1  0
  3  5  1  0
  3  2  1  0
  3  4  1  1
  5  6  2  0
  8  7  1  0
  8  9  2  0
 10  9  1  0
 11 10  2  0
 12 11  1  0
 13 12  1  6
 14 13  1  0
 14  5  1  0
 15 16  2  0
 15 13  1  0
 17 18  2  0
 17 11  1  0
 18  8  1  0
 19 20  1  0
 20 30  2  0
 21 22  2  0
 21 20  1  0
 22 23  1  0
 23 24  1  0
 23 29  2  0
 25 24  1  1
 25 27  1  0
 25 26  1  0
 26 15  1  0
 27 28  1  0
 30 29  1  0
 31 27  2  0
M  END
$$$$
