SYY.pdb
     RDKit          3D

 31 32  0  0  1  0  0  0  0  0999 V2000
   26.8330  -20.9560  -18.5133 O   0  0  0  0  0  0  0  0  0  0  0  0
   28.1309  -20.7088  -18.1010 C   0  0  0  0  0  0  0  0  0  0  0  0
   28.6519  -21.8177  -17.1945 C   0  0  2  0  0  0  0  0  0  0  0  0
   28.7226  -23.0501  -17.9183 N   0  0  0  0  0  0  0  0  0  0  0  0
   27.7746  -21.9242  -16.0125 C   0  0  0  0  0  0  0  0  0  0  0  0
   27.0275  -22.9432  -15.8691 O   0  0  0  0  0  0  0  0  0  0  0  0
   23.3005  -21.0365   -8.6365 O   0  0  0  0  0  0  0  0  0  0  0  0
   24.2554  -20.8435   -9.6339 C   0  0  0  0  0  0  0  0  0  0  0  0
   24.0343  -19.9796  -10.6986 C   0  0  0  0  0  0  0  0  0  0  0  0
   24.9556  -19.7704  -11.6940 C   0  0  0  0  0  0  0  0  0  0  0  0
   26.1639  -20.4449  -11.6461 C   0  0  0  0  0  0  0  0  0  0  0  0
   27.2051  -20.2640  -12.6883 C   0  0  0  0  0  0  0  0  0  0  0  0
   26.7803  -21.0871  -13.8847 C   0  0  2  0  0  0  0  0  0  0  0  0
   27.6953  -20.9487  -14.9897 N   0  0  0  0  0  0  0  0  0  0  0  0
   25.4266  -20.6384  -14.3762 C   0  0  0  0  0  0  0  0  0  0  0  0
   25.3121  -19.6207  -15.1066 O   0  0  0  0  0  0  0  0  0  0  0  0
   26.4357  -21.3247  -10.5971 C   0  0  0  0  0  0  0  0  0  0  0  0
   25.4712  -21.4953   -9.6242 C   0  0  0  0  0  0  0  0  0  0  0  0
   17.7350  -19.9692  -18.0240 O   0  0  0  0  0  0  0  0  0  0  0  0
   18.9683  -20.3609  -17.5020 C   0  0  0  0  0  0  0  0  0  0  0  0
   20.1172  -19.6636  -17.8091 C   0  0  0  0  0  0  0  0  0  0  0  0
   21.3396  -20.0480  -17.2944 C   0  0  0  0  0  0  0  0  0  0  0  0
   21.4965  -21.1310  -16.4567 C   0  0  0  0  0  0  0  0  0  0  0  0
   22.8038  -21.5527  -15.9078 C   0  0  0  0  0  0  0  0  0  0  0  0
   22.9760  -20.9108  -14.5270 C   0  0  2  0  0  0  0  0  0  0  0  0
   24.2633  -21.3642  -14.0171 N   0  0  0  0  0  0  0  0  0  0  0  0
   21.8855  -21.2259  -13.5989 C   0  0  0  0  0  0  0  0  0  0  0  0
   20.8370  -20.3122  -13.4157 O   0  0  0  0  0  0  0  0  0  0  0  0
   20.3200  -21.8295  -16.1536 C   0  0  0  0  0  0  0  0  0  0  0  0
   19.0986  -21.4481  -16.6656 C   0  0  0  0  0  0  0  0  0  0  0  0
   21.8369  -22.2928  -12.9438 O   0  0  0  0  0  0  0  0  0  0  0  0
  2  1  1  0
  3  5  1  0
  3  2  1  0
  3  4  1  6
  5  6  2  0
  8  7  1  0
  8  9  2  0
 10  9  1  0
 11 10  2  0
 12 11  1  0
 13 12  1  1
 14 13  1  0
 14  5  1  0
 15 16  2  0
 15 13  1  0
 17 18  2  0
 17 11  1  0
 18  8  1  0
 19 20  1  0
 20 30  2  0
 21 22  2  0
 21 20  1  0
 22 23  1  0
 23 24  1  0
 23 29  2  0
 25 24  1  6
 25 27  1  0
 25 26  1  0
 26 15  1  0
 27 28  1  0
 30 29  1  0
 31 27  2  0
M  END
$$$$
