SYY.pdb
     RDKit          3D

 31 32  0  0  1  0  0  0  0  0999 V2000
   24.3978  -10.2407  -20.2582 O   0  0  0  0  0  0  0  0  0  0  0  0
   23.2666  -10.0772  -21.0387 C   0  0  0  0  0  0  0  0  0  0  0  0
   22.2877   -9.0938  -20.4082 C   0  0  2  0  0  0  0  0  0  0  0  0
   22.9199   -7.8236  -20.2225 N   0  0  0  0  0  0  0  0  0  0  0  0
   21.7966   -9.6546  -19.1345 C   0  0  0  0  0  0  0  0  0  0  0  0
   22.1759   -9.1471  -18.0319 O   0  0  0  0  0  0  0  0  0  0  0  0
   15.3390  -10.7549  -21.4621 O   0  0  0  0  0  0  0  0  0  0  0  0
   16.2892  -10.6704  -20.4453 C   0  0  0  0  0  0  0  0  0  0  0  0
   17.2647   -9.6820  -20.4384 C   0  0  0  0  0  0  0  0  0  0  0  0
   18.2120   -9.5748  -19.4513 C   0  0  0  0  0  0  0  0  0  0  0  0
   18.2057  -10.4871  -18.4096 C   0  0  0  0  0  0  0  0  0  0  0  0
   19.1996  -10.4280  -17.3090 C   0  0  0  0  0  0  0  0  0  0  0  0
   20.4112  -11.2111  -17.7653 C   0  0  2  0  0  0  0  0  0  0  0  0
   20.9059  -10.7506  -19.0384 N   0  0  0  0  0  0  0  0  0  0  0  0
   20.0614  -12.6692  -17.9310 C   0  0  0  0  0  0  0  0  0  0  0  0
   19.8478  -13.1540  -19.0719 O   0  0  0  0  0  0  0  0  0  0  0  0
   17.2462  -11.5000  -18.3695 C   0  0  0  0  0  0  0  0  0  0  0  0
   16.3183  -11.5586  -19.3900 C   0  0  0  0  0  0  0  0  0  0  0  0
   19.3499  -21.2650  -16.8762 O   0  0  0  0  0  0  0  0  0  0  0  0
   19.6523  -19.9148  -16.6957 C   0  0  0  0  0  0  0  0  0  0  0  0
   19.1028  -19.2030  -15.6507 C   0  0  0  0  0  0  0  0  0  0  0  0
   19.3998  -17.8668  -15.4687 C   0  0  0  0  0  0  0  0  0  0  0  0
   20.2463  -17.1641  -16.2986 C   0  0  0  0  0  0  0  0  0  0  0  0
   20.5629  -15.7310  -16.1137 C   0  0  0  0  0  0  0  0  0  0  0  0
   19.6141  -14.9108  -16.9942 C   0  0  2  0  0  0  0  0  0  0  0  0
   19.9696  -13.5119  -16.7951 N   0  0  0  0  0  0  0  0  0  0  0  0
   18.1972  -15.1547  -16.7070 C   0  0  0  0  0  0  0  0  0  0  0  0
   17.5134  -16.1785  -17.3794 O   0  0  0  0  0  0  0  0  0  0  0  0
   20.7970  -17.9010  -17.3557 C   0  0  0  0  0  0  0  0  0  0  0  0
   20.5027  -19.2346  -17.5399 C   0  0  0  0  0  0  0  0  0  0  0  0
   17.5466  -14.4826  -15.8735 O   0  0  0  0  0  0  0  0  0  0  0  0
  2  1  1  0
  3  5  1  0
  3  2  1  0
  3  4  1  1
  5  6  2  0
  8  7  1  0
  8  9  2  0
 10  9  1  0
 11 10  2  0
 12 11  1  0
 13 12  1  6
 14 13  1  0
 14  5  1  0
 15 16  2  0
 15 13  1  0
 17 18  2  0
 17 11  1  0
 18  8  1  0
 19 20  1  0
 20 30  2  0
 21 22  2  0
 21 20  1  0
 22 23  1  0
 23 24  1  0
 23 29  2  0
 25 24  1  1
 25 27  1  0
 25 26  1  0
 26 15  1  0
 27 28  1  0
 30 29  1  0
 31 27  2  0
M  END
$$$$
