SYY.pdb
     RDKit          3D

 31 32  0  0  1  0  0  0  0  0999 V2000
   21.1479  -19.6288  -15.3103 O   0  0  0  0  0  0  0  0  0  0  0  0
   22.2379  -20.1692  -14.6504 C   0  0  0  0  0  0  0  0  0  0  0  0
   23.5004  -20.0974  -15.5012 C   0  0  2  0  0  0  0  0  0  0  0  0
   23.2476  -20.6407  -16.8006 N   0  0  0  0  0  0  0  0  0  0  0  0
   24.5884  -20.8141  -14.8079 C   0  0  0  0  0  0  0  0  0  0  0  0
   24.6960  -22.0749  -14.9340 O   0  0  0  0  0  0  0  0  0  0  0  0
   27.4799  -16.1080  -17.1843 O   0  0  0  0  0  0  0  0  0  0  0  0
   27.5979  -17.2252  -16.3585 C   0  0  0  0  0  0  0  0  0  0  0  0
   27.9494  -18.4709  -16.8620 C   0  0  0  0  0  0  0  0  0  0  0  0
   28.0728  -19.5872  -16.0733 C   0  0  0  0  0  0  0  0  0  0  0  0
   27.8390  -19.4799  -14.7127 C   0  0  0  0  0  0  0  0  0  0  0  0
   27.9564  -20.6460  -13.8022 C   0  0  0  0  0  0  0  0  0  0  0  0
   26.5644  -20.9515  -13.2937 C   0  0  2  0  0  0  0  0  0  0  0  0
   25.5557  -20.1887  -13.9852 N   0  0  0  0  0  0  0  0  0  0  0  0
   26.4525  -20.6033  -11.8302 C   0  0  0  0  0  0  0  0  0  0  0  0
   26.2171  -19.4226  -11.4658 O   0  0  0  0  0  0  0  0  0  0  0  0
   27.4829  -18.2502  -14.1564 C   0  0  0  0  0  0  0  0  0  0  0  0
   27.3738  -17.1618  -14.9988 C   0  0  0  0  0  0  0  0  0  0  0  0
   27.9424  -18.8874   -3.6756 O   0  0  0  0  0  0  0  0  0  0  0  0
   27.8946  -19.2273   -5.0280 C   0  0  0  0  0  0  0  0  0  0  0  0
   28.7118  -20.2143   -5.5361 C   0  0  0  0  0  0  0  0  0  0  0  0
   28.6673  -20.5536   -6.8739 C   0  0  0  0  0  0  0  0  0  0  0  0
   27.8232  -19.9446   -7.7771 C   0  0  0  0  0  0  0  0  0  0  0  0
   27.7756  -20.2979   -9.2128 C   0  0  0  0  0  0  0  0  0  0  0  0
   26.5748  -21.2220   -9.4417 C   0  0  2  0  0  0  0  0  0  0  0  0
   26.6125  -21.6102  -10.8455 N   0  0  0  0  0  0  0  0  0  0  0  0
   25.2920  -20.6081   -9.0848 C   0  0  0  0  0  0  0  0  0  0  0  0
   24.5432  -19.9345  -10.0612 O   0  0  0  0  0  0  0  0  0  0  0  0
   26.9987  -18.9437   -7.2459 C   0  0  0  0  0  0  0  0  0  0  0  0
   27.0408  -18.6030   -5.9112 C   0  0  0  0  0  0  0  0  0  0  0  0
   24.8154  -20.6528   -7.9269 O   0  0  0  0  0  0  0  0  0  0  0  0
  2  1  1  0
  3  5  1  0
  3  2  1  0
  3  4  1  6
  5  6  2  0
  8  7  1  0
  8  9  2  0
 10  9  1  0
 11 10  2  0
 12 11  1  0
 13 12  1  6
 14 13  1  0
 14  5  1  0
 15 16  2  0
 15 13  1  0
 17 18  2  0
 17 11  1  0
 18  8  1  0
 19 20  1  0
 20 30  2  0
 21 22  2  0
 21 20  1  0
 22 23  1  0
 23 24  1  0
 23 29  2  0
 25 24  1  6
 25 27  1  0
 25 26  1  0
 26 15  1  0
 27 28  1  0
 30 29  1  0
 31 27  2  0
M  END
$$$$
