SYY.pdb
     RDKit          3D

 31 32  0  0  1  0  0  0  0  0999 V2000
   28.5395  -22.3120  -16.9190 O   0  0  0  0  0  0  0  0  0  0  0  0
   28.5086  -21.3943  -17.9546 C   0  0  0  0  0  0  0  0  0  0  0  0
   27.1513  -21.3766  -18.6476 C   0  0  2  0  0  0  0  0  0  0  0  0
   27.1700  -20.4513  -19.7390 N   0  0  0  0  0  0  0  0  0  0  0  0
   26.1106  -21.0375  -17.6575 C   0  0  0  0  0  0  0  0  0  0  0  0
   25.9571  -19.8300  -17.2897 O   0  0  0  0  0  0  0  0  0  0  0  0
   19.1512  -20.0856  -12.7269 O   0  0  0  0  0  0  0  0  0  0  0  0
   20.0848  -20.6496  -13.5954 C   0  0  0  0  0  0  0  0  0  0  0  0
   20.7871  -21.8011  -13.2642 C   0  0  0  0  0  0  0  0  0  0  0  0
   21.7114  -22.3778  -14.0987 C   0  0  0  0  0  0  0  0  0  0  0  0
   21.9642  -21.7952  -15.3292 C   0  0  0  0  0  0  0  0  0  0  0  0
   22.9492  -22.3673  -16.2805 C   0  0  0  0  0  0  0  0  0  0  0  0
   24.2332  -21.5850  -16.1109 C   0  0  2  0  0  0  0  0  0  0  0  0
   25.2392  -21.9819  -17.0637 N   0  0  0  0  0  0  0  0  0  0  0  0
   24.8121  -21.8185  -14.7375 C   0  0  0  0  0  0  0  0  0  0  0  0
   25.2820  -22.9412  -14.4197 O   0  0  0  0  0  0  0  0  0  0  0  0
   21.2851  -20.6368  -15.7102 C   0  0  0  0  0  0  0  0  0  0  0  0
   20.3665  -20.1013  -14.8295 C   0  0  0  0  0  0  0  0  0  0  0  0
   28.2630  -20.7392   -6.8062 O   0  0  0  0  0  0  0  0  0  0  0  0
   27.8042  -20.5460   -8.1097 C   0  0  0  0  0  0  0  0  0  0  0  0
   26.6863  -19.7781   -8.3569 C   0  0  0  0  0  0  0  0  0  0  0  0
   26.2292  -19.5844   -9.6455 C   0  0  0  0  0  0  0  0  0  0  0  0
   26.8423  -20.1318  -10.7517 C   0  0  0  0  0  0  0  0  0  0  0  0
   26.3538  -19.9345  -12.1340 C   0  0  0  0  0  0  0  0  0  0  0  0
   25.3494  -21.0469  -12.4531 C   0  0  2  0  0  0  0  0  0  0  0  0
   24.8320  -20.7679  -13.7863 N   0  0  0  0  0  0  0  0  0  0  0  0
   24.2704  -21.1570  -11.4665 C   0  0  0  0  0  0  0  0  0  0  0  0
   23.1175  -20.3689  -11.6000 O   0  0  0  0  0  0  0  0  0  0  0  0
   27.9771  -20.9093  -10.4845 C   0  0  0  0  0  0  0  0  0  0  0  0
   28.4358  -21.1043   -9.1997 C   0  0  0  0  0  0  0  0  0  0  0  0
   24.3220  -21.9352  -10.4861 O   0  0  0  0  0  0  0  0  0  0  0  0
  2  1  1  0
  3  5  1  0
  3  2  1  0
  3  4  1  6
  5  6  2  0
  8  7  1  0
  8  9  2  0
 10  9  1  0
 11 10  2  0
 12 11  1  0
 13 12  1  6
 14 13  1  0
 14  5  1  0
 15 16  2  0
 15 13  1  0
 17 18  2  0
 17 11  1  0
 18  8  1  0
 19 20  1  0
 20 30  2  0
 21 22  2  0
 21 20  1  0
 22 23  1  0
 23 24  1  0
 23 29  2  0
 25 24  1  1
 25 27  1  0
 25 26  1  0
 26 15  1  0
 27 28  1  0
 30 29  1  0
 31 27  2  0
M  END
$$$$
