SYY.pdb
     RDKit          3D

 31 32  0  0  1  0  0  0  0  0999 V2000
   23.2152  -11.5203  -21.9669 O   0  0  0  0  0  0  0  0  0  0  0  0
   22.4080  -10.9931  -20.9738 C   0  0  0  0  0  0  0  0  0  0  0  0
   21.9171  -12.0738  -20.0178 C   0  0  2  0  0  0  0  0  0  0  0  0
   21.0792  -13.0012  -20.7146 N   0  0  0  0  0  0  0  0  0  0  0  0
   21.2104  -11.4339  -18.8912 C   0  0  0  0  0  0  0  0  0  0  0  0
   20.0521  -10.9404  -19.0696 O   0  0  0  0  0  0  0  0  0  0  0  0
   16.4393  -14.7779  -16.4631 O   0  0  0  0  0  0  0  0  0  0  0  0
   17.5076  -13.9281  -16.1798 C   0  0  0  0  0  0  0  0  0  0  0  0
   17.3108  -12.6626  -15.6426 C   0  0  0  0  0  0  0  0  0  0  0  0
   18.3428  -11.8052  -15.3541 C   0  0  0  0  0  0  0  0  0  0  0  0
   19.6436  -12.2082  -15.6051 C   0  0  0  0  0  0  0  0  0  0  0  0
   20.8060  -11.3321  -15.3152 C   0  0  0  0  0  0  0  0  0  0  0  0
   21.0806  -10.5326  -16.5701 C   0  0  2  0  0  0  0  0  0  0  0  0
   21.7371  -11.3215  -17.5821 N   0  0  0  0  0  0  0  0  0  0  0  0
   21.9891   -9.3685  -16.2621 C   0  0  0  0  0  0  0  0  0  0  0  0
   23.2102   -9.4085  -16.5617 O   0  0  0  0  0  0  0  0  0  0  0  0
   19.8956  -13.4706  -16.1445 C   0  0  0  0  0  0  0  0  0  0  0  0
   18.8180  -14.2902  -16.4146 C   0  0  0  0  0  0  0  0  0  0  0  0
   25.5428   -1.6420  -16.4572 O   0  0  0  0  0  0  0  0  0  0  0  0
   24.8703   -2.8608  -16.5525 C   0  0  0  0  0  0  0  0  0  0  0  0
   25.5580   -4.0531  -16.4762 C   0  0  0  0  0  0  0  0  0  0  0  0
   24.8961   -5.2614  -16.5699 C   0  0  0  0  0  0  0  0  0  0  0  0
   23.5326   -5.3611  -16.7430 C   0  0  0  0  0  0  0  0  0  0  0  0
   22.8181   -6.6518  -16.8516 C   0  0  0  0  0  0  0  0  0  0  0  0
   22.3518   -7.0634  -15.4511 C   0  0  2  0  0  0  0  0  0  0  0  0
   21.4719   -8.2112  -15.6281 N   0  0  0  0  0  0  0  0  0  0  0  0
   21.6880   -5.9813  -14.7175 C   0  0  0  0  0  0  0  0  0  0  0  0
   22.4313   -5.1632  -13.8538 O   0  0  0  0  0  0  0  0  0  0  0  0
   22.8474   -4.1410  -16.8186 C   0  0  0  0  0  0  0  0  0  0  0  0
   23.5052   -2.9336  -16.7251 C   0  0  0  0  0  0  0  0  0  0  0  0
   20.4629   -5.7407  -14.8217 O   0  0  0  0  0  0  0  0  0  0  0  0
  2  1  1  0
  3  5  1  0
  3  2  1  0
  3  4  1  6
  5  6  2  0
  8  7  1  0
  8  9  2  0
 10  9  1  0
 11 10  2  0
 12 11  1  0
 13 12  1  1
 14 13  1  0
 14  5  1  0
 15 16  2  0
 15 13  1  0
 17 18  2  0
 17 11  1  0
 18  8  1  0
 19 20  1  0
 20 30  2  0
 21 22  2  0
 21 20  1  0
 22 23  1  0
 23 24  1  0
 23 29  2  0
 25 24  1  6
 25 27  1  0
 25 26  1  0
 26 15  1  0
 27 28  1  0
 30 29  1  0
 31 27  2  0
M  END
$$$$
