SYY.pdb
     RDKit          3D

 31 32  0  0  1  0  0  0  0  0999 V2000
   26.3898   -3.9387  -21.6884 O   0  0  0  0  0  0  0  0  0  0  0  0
   25.7330   -4.9347  -20.9868 C   0  0  0  0  0  0  0  0  0  0  0  0
   26.7109   -5.8258  -20.2302 C   0  0  2  0  0  0  0  0  0  0  0  0
   27.4361   -6.6488  -21.1491 N   0  0  0  0  0  0  0  0  0  0  0  0
   25.9638   -6.6300  -19.2438 C   0  0  0  0  0  0  0  0  0  0  0  0
   25.9730   -7.8990  -19.3251 O   0  0  0  0  0  0  0  0  0  0  0  0
   21.4036   -9.7161  -12.5466 O   0  0  0  0  0  0  0  0  0  0  0  0
   22.1739   -8.8780  -13.3517 C   0  0  0  0  0  0  0  0  0  0  0  0
   21.7406   -7.6074  -13.7074 C   0  0  0  0  0  0  0  0  0  0  0  0
   22.4772   -6.7615  -14.4981 C   0  0  0  0  0  0  0  0  0  0  0  0
   23.7097   -7.1819  -14.9688 C   0  0  0  0  0  0  0  0  0  0  0  0
   24.5583   -6.3175  -15.8264 C   0  0  0  0  0  0  0  0  0  0  0  0
   24.5479   -6.9240  -17.2126 C   0  0  2  0  0  0  0  0  0  0  0  0
   25.2114   -6.0829  -18.1768 N   0  0  0  0  0  0  0  0  0  0  0  0
   23.1302   -7.1098  -17.6932 C   0  0  0  0  0  0  0  0  0  0  0  0
   22.5046   -6.1617  -18.2337 O   0  0  0  0  0  0  0  0  0  0  0  0
   24.1912   -8.4502  -14.6403 C   0  0  0  0  0  0  0  0  0  0  0  0
   23.4064   -9.2576  -13.8415 C   0  0  0  0  0  0  0  0  0  0  0  0
   18.6604   -3.4732  -21.0413 O   0  0  0  0  0  0  0  0  0  0  0  0
   19.2797   -4.6692  -20.6769 C   0  0  0  0  0  0  0  0  0  0  0  0
   18.5351   -5.8048  -20.4394 C   0  0  0  0  0  0  0  0  0  0  0  0
   19.1443   -6.9904  -20.0787 C   0  0  0  0  0  0  0  0  0  0  0  0
   20.5083   -7.1216  -19.9329 C   0  0  0  0  0  0  0  0  0  0  0  0
   21.1669   -8.3865  -19.5396 C   0  0  0  0  0  0  0  0  0  0  0  0
   21.1146   -8.5020  -18.0125 C   0  0  2  0  0  0  0  0  0  0  0  0
   22.4856   -8.3627  -17.5393 N   0  0  0  0  0  0  0  0  0  0  0  0
   20.5053   -9.7506  -17.5440 C   0  0  0  0  0  0  0  0  0  0  0  0
   21.2430  -10.6291  -16.7367 O   0  0  0  0  0  0  0  0  0  0  0  0
   21.2517   -5.9592  -20.1777 C   0  0  0  0  0  0  0  0  0  0  0  0
   20.6466   -4.7746  -20.5380 C   0  0  0  0  0  0  0  0  0  0  0  0
   19.3328  -10.0852  -17.8321 O   0  0  0  0  0  0  0  0  0  0  0  0
  2  1  1  0
  3  5  1  0
  3  2  1  0
  3  4  1  6
  5  6  2  0
  8  7  1  0
  8  9  2  0
 10  9  1  0
 11 10  2  0
 12 11  1  0
 13 12  1  1
 14 13  1  0
 14  5  1  0
 15 16  2  0
 15 13  1  0
 17 18  2  0
 17 11  1  0
 18  8  1  0
 19 20  1  0
 20 30  2  0
 21 22  2  0
 21 20  1  0
 22 23  1  0
 23 24  1  0
 23 29  2  0
 25 24  1  6
 25 27  1  0
 25 26  1  0
 26 15  1  0
 27 28  1  0
 30 29  1  0
 31 27  2  0
M  END
$$$$
