SYY.pdb
     RDKit          3D

 31 32  0  0  1  0  0  0  0  0999 V2000
   37.1894    2.1298   -8.4399 O   0  0  0  0  0  0  0  0  0  0  0  0
   37.6546    2.1477   -9.7433 C   0  0  0  0  0  0  0  0  0  0  0  0
   37.5436    0.7754  -10.3971 C   0  0  2  0  0  0  0  0  0  0  0  0
   38.0681    0.8223  -11.7276 N   0  0  0  0  0  0  0  0  0  0  0  0
   36.1315    0.3468  -10.3778 C   0  0  0  0  0  0  0  0  0  0  0  0
   35.2982    0.8784  -11.1780 O   0  0  0  0  0  0  0  0  0  0  0  0
   35.2975   -4.7421  -14.4346 O   0  0  0  0  0  0  0  0  0  0  0  0
   34.9709   -4.1839  -13.1994 C   0  0  0  0  0  0  0  0  0  0  0  0
   33.7178   -3.6378  -12.9538 C   0  0  0  0  0  0  0  0  0  0  0  0
   33.3689   -3.0820  -11.7486 C   0  0  0  0  0  0  0  0  0  0  0  0
   34.2990   -3.0584  -10.7231 C   0  0  0  0  0  0  0  0  0  0  0  0
   33.9875   -2.4745   -9.3946 C   0  0  0  0  0  0  0  0  0  0  0  0
   34.2111   -0.9821   -9.5045 C   0  0  2  0  0  0  0  0  0  0  0  0
   35.6120   -0.6433   -9.5097 N   0  0  0  0  0  0  0  0  0  0  0  0
   33.5912   -0.2708   -8.3275 C   0  0  0  0  0  0  0  0  0  0  0  0
   34.1696   -0.2501   -7.2107 O   0  0  0  0  0  0  0  0  0  0  0  0
   35.5730   -3.5943  -10.9184 C   0  0  0  0  0  0  0  0  0  0  0  0
   35.8675   -4.1402  -12.1519 C   0  0  0  0  0  0  0  0  0  0  0  0
   30.8422    5.3287   -2.6428 O   0  0  0  0  0  0  0  0  0  0  0  0
   31.3237    4.5746   -3.7134 C   0  0  0  0  0  0  0  0  0  0  0  0
   31.9286    3.3543   -3.5005 C   0  0  0  0  0  0  0  0  0  0  0  0
   32.4063    2.6049   -4.5574 C   0  0  0  0  0  0  0  0  0  0  0  0
   32.3158    3.0128   -5.8707 C   0  0  0  0  0  0  0  0  0  0  0  0
   32.8319    2.2186   -7.0070 C   0  0  0  0  0  0  0  0  0  0  0  0
   31.8111    1.1228   -7.3316 C   0  0  2  0  0  0  0  0  0  0  0  0
   32.3430    0.3853   -8.4701 N   0  0  0  0  0  0  0  0  0  0  0  0
   30.4671    1.6419   -7.6039 C   0  0  0  0  0  0  0  0  0  0  0  0
   29.5583    1.8173   -6.5498 O   0  0  0  0  0  0  0  0  0  0  0  0
   31.6985    4.2548   -6.0712 C   0  0  0  0  0  0  0  0  0  0  0  0
   31.2206    5.0048   -5.0184 C   0  0  0  0  0  0  0  0  0  0  0  0
   30.0753    1.9450   -8.7547 O   0  0  0  0  0  0  0  0  0  0  0  0
  2  1  1  0
  3  5  1  0
  3  2  1  0
  3  4  1  6
  5  6  2  0
  8  7  1  0
  8  9  2  0
 10  9  1  0
 11 10  2  0
 12 11  1  0
 13 12  1  1
 14 13  1  0
 14  5  1  0
 15 16  2  0
 15 13  1  0
 17 18  2  0
 17 11  1  0
 18  8  1  0
 19 20  1  0
 20 30  2  0
 21 22  2  0
 21 20  1  0
 22 23  1  0
 23 24  1  0
 23 29  2  0
 25 24  1  6
 25 27  1  0
 25 26  1  0
 26 15  1  0
 27 28  1  0
 30 29  1  0
 31 27  2  0
M  END
$$$$
