SYY.pdb
     RDKit          3D

 31 32  0  0  1  0  0  0  0  0999 V2000
   27.0408  -20.5443  -19.3540 O   0  0  0  0  0  0  0  0  0  0  0  0
   26.6047  -21.1904  -18.2103 C   0  0  0  0  0  0  0  0  0  0  0  0
   27.7717  -21.7274  -17.3902 C   0  0  2  0  0  0  0  0  0  0  0  0
   28.1527  -23.0212  -17.8684 N   0  0  0  0  0  0  0  0  0  0  0  0
   27.3840  -21.7600  -15.9666 C   0  0  0  0  0  0  0  0  0  0  0  0
   26.6761  -22.7200  -15.5257 O   0  0  0  0  0  0  0  0  0  0  0  0
   26.1876  -20.6569   -7.4618 O   0  0  0  0  0  0  0  0  0  0  0  0
   26.6578  -20.4718   -8.7613 C   0  0  0  0  0  0  0  0  0  0  0  0
   26.1672  -19.4612   -9.5778 C   0  0  0  0  0  0  0  0  0  0  0  0
   26.6110  -19.2558  -10.8600 C   0  0  0  0  0  0  0  0  0  0  0  0
   27.5919  -20.0866  -11.3746 C   0  0  0  0  0  0  0  0  0  0  0  0
   28.1183  -19.9193  -12.7522 C   0  0  0  0  0  0  0  0  0  0  0  0
   27.3364  -20.8613  -13.6414 C   0  0  2  0  0  0  0  0  0  0  0  0
   27.7497  -20.7737  -15.0194 N   0  0  0  0  0  0  0  0  0  0  0  0
   25.8670  -20.5223  -13.6008 C   0  0  0  0  0  0  0  0  0  0  0  0
   25.4096  -19.5615  -14.2716 O   0  0  0  0  0  0  0  0  0  0  0  0
   28.1185  -21.1176  -10.5949 C   0  0  0  0  0  0  0  0  0  0  0  0
   27.6335  -21.2766   -9.3122 C   0  0  0  0  0  0  0  0  0  0  0  0
   17.2921  -20.6078  -13.7528 O   0  0  0  0  0  0  0  0  0  0  0  0
   18.6504  -20.9270  -13.7453 C   0  0  0  0  0  0  0  0  0  0  0  0
   19.1547  -21.8409  -12.8449 C   0  0  0  0  0  0  0  0  0  0  0  0
   20.4983  -22.1595  -12.8344 C   0  0  0  0  0  0  0  0  0  0  0  0
   21.4112  -21.6003  -13.7022 C   0  0  0  0  0  0  0  0  0  0  0  0
   22.8529  -21.9314  -13.6917 C   0  0  0  0  0  0  0  0  0  0  0  0
   23.5710  -20.9270  -12.7841 C   0  0  2  0  0  0  0  0  0  0  0  0
   24.9823  -21.2885  -12.8013 N   0  0  0  0  0  0  0  0  0  0  0  0
   23.0383  -20.8926  -11.4185 C   0  0  0  0  0  0  0  0  0  0  0  0
   22.0581  -19.9503  -11.0735 O   0  0  0  0  0  0  0  0  0  0  0  0
   20.8836  -20.6735  -14.6114 C   0  0  0  0  0  0  0  0  0  0  0  0
   19.5432  -20.3537  -14.6244 C   0  0  0  0  0  0  0  0  0  0  0  0
   23.4197  -21.6778  -10.5197 O   0  0  0  0  0  0  0  0  0  0  0  0
  2  1  1  0
  3  5  1  0
  3  2  1  0
  3  4  1  6
  5  6  2  0
  8  7  1  0
  8  9  2  0
 10  9  1  0
 11 10  2  0
 12 11  1  0
 13 12  1  1
 14 13  1  0
 14  5  1  0
 15 16  2  0
 15 13  1  0
 17 18  2  0
 17 11  1  0
 18  8  1  0
 19 20  1  0
 20 30  2  0
 21 22  2  0
 21 20  1  0
 22 23  1  0
 23 24  1  0
 23 29  2  0
 25 24  1  6
 25 27  1  0
 25 26  1  0
 26 15  1  0
 27 28  1  0
 30 29  1  0
 31 27  2  0
M  END
$$$$
