YPK.pdb
     RDKit          3D

 29 30  0  0  1  0  0  0  0  0999 V2000
    7.2998  -13.6784   13.8934 O   0  0  0  0  0  0  0  0  0  0  0  0
    7.5518  -14.0924   15.2054 C   0  0  0  0  0  0  0  0  0  0  0  0
    7.6411  -13.1965   16.2456 C   0  0  0  0  0  0  0  0  0  0  0  0
    7.8929  -13.6408   17.5393 C   0  0  0  0  0  0  0  0  0  0  0  0
    8.0595  -14.9807   17.8184 C   0  0  0  0  0  0  0  0  0  0  0  0
    8.3284  -15.4847   19.1828 C   0  0  0  0  0  0  0  0  0  0  0  0
    9.6816  -15.0560   19.7022 C   0  0  2  0  0  0  0  0  0  0  0  0
   10.7045  -15.6392   18.8446 N   0  0  0  0  0  0  0  0  0  0  0  0
    9.8068  -15.6120   21.0933 C   0  0  0  0  0  0  0  0  0  0  0  0
   10.2657  -16.7656   21.2083 O   0  0  0  0  0  0  0  0  0  0  0  0
    7.9646  -15.8557   16.7564 C   0  0  0  0  0  0  0  0  0  0  0  0
    7.7149  -15.4313   15.4641 C   0  0  0  0  0  0  0  0  0  0  0  0
    9.4311  -14.8847   22.2339 N   0  0  0  0  0  0  0  0  0  0  0  0
    9.3503  -13.3897   22.3122 C   0  0  0  0  0  0  0  0  0  0  0  0
    7.9238  -13.2525   22.7842 C   0  0  0  0  0  0  0  0  0  0  0  0
    7.7115  -14.4922   23.6669 C   0  0  0  0  0  0  0  0  0  0  0  0
    9.0595  -15.1974   23.5786 C   0  0  1  0  0  0  0  0  0  0  0  0
    9.0272  -16.5636   24.0237 C   0  0  0  0  0  0  0  0  0  0  0  0
    8.1098  -17.3903   24.0404 O   0  0  0  0  0  0  0  0  0  0  0  0
   10.2857  -17.0852   24.5511 N   0  0  0  0  0  0  0  0  0  0  0  0
   10.3756  -18.3800   25.1352 C   0  0  1  0  0  0  0  0  0  0  0  0
   11.5828  -19.0838   24.5551 C   0  0  0  0  0  0  0  0  0  0  0  0
   11.5205  -19.1491   23.0446 C   0  0  0  0  0  0  0  0  0  0  0  0
   12.7870  -19.8222   22.5541 C   0  0  0  0  0  0  0  0  0  0  0  0
   12.7897  -19.9613   21.0474 C   0  0  0  0  0  0  0  0  0  0  0  0
   14.0524  -20.6045   20.6833 N   0  0  0  0  0  0  0  0  0  0  0  0
   10.4844  -18.3679   26.6078 C   0  0  0  0  0  0  0  0  0  0  0  0
   10.7532  -17.1473   27.2129 O   0  0  0  0  0  0  0  0  0  0  0  0
   10.3540  -19.3651   27.3458 O   0  0  0  0  0  0  0  0  0  0  0  0
  2  3  2  0
  2  1  1  0
  4  3  1  0
  5  4  2  0
  6  5  1  0
  7  6  1  0
  7  8  1  6
  9  7  1  0
 10  9  2  0
 11  5  1  0
 11 12  2  0
 12  2  1  0
 13 17  1  0
 13  9  1  0
 14 15  1  0
 14 13  1  0
 15 16  1  0
 17 16  1  0
 18 20  1  0
 17 18  1  6
 19 18  2  0
 21 27  1  0
 21 20  1  0
 21 22  1  6
 23 22  1  0
 24 23  1  0
 25 24  1  0
 25 26  1  0
 27 28  1  0
 29 27  2  0
M  END
$$$$
