YPK.pdb
     RDKit          3D

 29 30  0  0  1  0  0  0  0  0999 V2000
    7.7639  -11.1485   26.7839 O   0  0  0  0  0  0  0  0  0  0  0  0
    7.3255  -12.4339   26.4495 C   0  0  0  0  0  0  0  0  0  0  0  0
    6.0357  -12.6776   26.0378 C   0  0  0  0  0  0  0  0  0  0  0  0
    5.6312  -13.9680   25.7124 C   0  0  0  0  0  0  0  0  0  0  0  0
    6.5016  -15.0344   25.7912 C   0  0  0  0  0  0  0  0  0  0  0  0
    6.1023  -16.4178   25.4525 C   0  0  0  0  0  0  0  0  0  0  0  0
    5.9641  -16.6323   23.9626 C   0  0  2  0  0  0  0  0  0  0  0  0
    5.3771  -17.9475   23.7441 N   0  0  0  0  0  0  0  0  0  0  0  0
    7.3533  -16.5938   23.3895 C   0  0  0  0  0  0  0  0  0  0  0  0
    8.2142  -17.3165   23.9293 O   0  0  0  0  0  0  0  0  0  0  0  0
    7.7879  -14.7603   26.2068 C   0  0  0  0  0  0  0  0  0  0  0  0
    8.2069  -13.4837   26.5341 C   0  0  0  0  0  0  0  0  0  0  0  0
    7.6956  -15.7878   22.2923 N   0  0  0  0  0  0  0  0  0  0  0  0
    6.7383  -15.3194   21.2377 C   0  0  0  0  0  0  0  0  0  0  0  0
    6.9839  -13.8339   21.3356 C   0  0  0  0  0  0  0  0  0  0  0  0
    8.4723  -13.7345   21.7043 C   0  0  0  0  0  0  0  0  0  0  0  0
    8.8935  -15.1970   21.7821 C   0  0  1  0  0  0  0  0  0  0  0  0
   10.1472  -15.4023   22.4541 C   0  0  0  0  0  0  0  0  0  0  0  0
   10.8361  -14.6388   23.1380 O   0  0  0  0  0  0  0  0  0  0  0  0
   10.7245  -16.7374   22.3182 N   0  0  0  0  0  0  0  0  0  0  0  0
   11.9207  -17.1102   22.9935 C   0  0  1  0  0  0  0  0  0  0  0  0
   11.5991  -18.2384   23.9488 C   0  0  0  0  0  0  0  0  0  0  0  0
   12.8100  -18.6489   24.7583 C   0  0  0  0  0  0  0  0  0  0  0  0
   12.4212  -19.8439   25.6060 C   0  0  0  0  0  0  0  0  0  0  0  0
   13.5550  -20.2685   26.5137 C   0  0  0  0  0  0  0  0  0  0  0  0
   13.1061  -21.4689   27.2195 N   0  0  0  0  0  0  0  0  0  0  0  0
   13.0108  -17.5355   22.0927 C   0  0  0  0  0  0  0  0  0  0  0  0
   14.3119  -17.3353   22.5347 O   0  0  0  0  0  0  0  0  0  0  0  0
   12.8531  -18.0579   20.9710 O   0  0  0  0  0  0  0  0  0  0  0  0
  2  3  2  0
  2  1  1  0
  4  3  1  0
  5  4  2  0
  6  5  1  0
  7  6  1  0
  7  8  1  1
  9  7  1  0
 10  9  2  0
 11  5  1  0
 11 12  2  0
 12  2  1  0
 13 17  1  0
 13  9  1  0
 14 15  1  0
 14 13  1  0
 15 16  1  0
 17 16  1  0
 18 20  1  0
 17 18  1  1
 19 18  2  0
 21 27  1  0
 21 20  1  0
 21 22  1  1
 23 22  1  0
 24 23  1  0
 25 24  1  0
 25 26  1  0
 27 28  1  0
 29 27  2  0
M  END
$$$$
