YPK.pdb
     RDKit          3D

 29 30  0  0  1  0  0  0  0  0999 V2000
    7.7308  -10.8989   26.8797 O   0  0  0  0  0  0  0  0  0  0  0  0
    7.3914  -12.2462   26.7185 C   0  0  0  0  0  0  0  0  0  0  0  0
    6.0827  -12.6596   26.6234 C   0  0  0  0  0  0  0  0  0  0  0  0
    5.7788  -14.0074   26.4634 C   0  0  0  0  0  0  0  0  0  0  0  0
    6.7698  -14.9636   26.3955 C   0  0  0  0  0  0  0  0  0  0  0  0
    6.4793  -16.4040   26.2261 C   0  0  0  0  0  0  0  0  0  0  0  0
    6.3064  -16.7931   24.7758 C   0  0  2  0  0  0  0  0  0  0  0  0
    5.8685  -18.1816   24.7256 N   0  0  0  0  0  0  0  0  0  0  0  0
    7.6571  -16.6621   24.1289 C   0  0  0  0  0  0  0  0  0  0  0  0
    8.6137  -17.2397   24.6820 O   0  0  0  0  0  0  0  0  0  0  0  0
    8.0722  -14.5202   26.4936 C   0  0  0  0  0  0  0  0  0  0  0  0
    8.3923  -13.1843   26.6529 C   0  0  0  0  0  0  0  0  0  0  0  0
    7.8620  -15.9271   22.9505 N   0  0  0  0  0  0  0  0  0  0  0  0
    6.8093  -15.6398   21.9224 C   0  0  0  0  0  0  0  0  0  0  0  0
    6.9185  -14.1354   21.8835 C   0  0  0  0  0  0  0  0  0  0  0  0
    8.4087  -13.8715   22.1503 C   0  0  0  0  0  0  0  0  0  0  0  0
    8.9695  -15.2781   22.3209 C   0  0  1  0  0  0  0  0  0  0  0  0
   10.2715  -15.3113   22.9288 C   0  0  0  0  0  0  0  0  0  0  0  0
   10.8234  -14.5285   23.7085 O   0  0  0  0  0  0  0  0  0  0  0  0
   11.1025  -16.4604   22.5777 N   0  0  0  0  0  0  0  0  0  0  0  0
   12.3178  -16.7447   23.2617 C   0  0  1  0  0  0  0  0  0  0  0  0
   12.1154  -17.9877   24.1002 C   0  0  0  0  0  0  0  0  0  0  0  0
   13.3564  -18.3366   24.8927 C   0  0  0  0  0  0  0  0  0  0  0  0
   13.0770  -19.6147   25.6583 C   0  0  0  0  0  0  0  0  0  0  0  0
   14.2031  -19.9424   26.6144 C   0  0  0  0  0  0  0  0  0  0  0  0
   13.8699  -21.2228   27.2391 N   0  0  0  0  0  0  0  0  0  0  0  0
   13.4761  -16.9475   22.3685 C   0  0  0  0  0  0  0  0  0  0  0  0
   13.2072  -17.3112   21.0556 O   0  0  0  0  0  0  0  0  0  0  0  0
   14.6712  -16.8178   22.7014 O   0  0  0  0  0  0  0  0  0  0  0  0
  2  3  2  0
  2  1  1  0
  4  3  1  0
  5  4  2  0
  6  5  1  0
  7  6  1  0
  7  8  1  1
  9  7  1  0
 10  9  2  0
 11  5  1  0
 11 12  2  0
 12  2  1  0
 13 17  1  0
 13  9  1  0
 14 15  1  0
 14 13  1  0
 15 16  1  0
 17 16  1  0
 18 20  1  0
 17 18  1  1
 19 18  2  0
 21 27  1  0
 21 20  1  0
 21 22  1  6
 23 22  1  0
 24 23  1  0
 25 24  1  0
 25 26  1  0
 27 28  1  0
 29 27  2  0
M  END
$$$$
