YPK.pdb
     RDKit          3D

 29 30  0  0  1  0  0  0  0  0999 V2000
    6.8939  -13.1335   14.0310 O   0  0  0  0  0  0  0  0  0  0  0  0
    7.5020  -13.9271   15.0091 C   0  0  0  0  0  0  0  0  0  0  0  0
    7.9970  -15.1788   14.7250 C   0  0  0  0  0  0  0  0  0  0  0  0
    8.5962  -15.9429   15.7208 C   0  0  0  0  0  0  0  0  0  0  0  0
    8.7124  -15.4750   17.0125 C   0  0  0  0  0  0  0  0  0  0  0  0
    9.3437  -16.2630   18.0934 C   0  0  0  0  0  0  0  0  0  0  0  0
    8.3329  -17.0173   18.9264 C   0  0  2  0  0  0  0  0  0  0  0  0
    7.6038  -16.0543   19.7406 N   0  0  0  0  0  0  0  0  0  0  0  0
    9.1119  -17.9474   19.8141 C   0  0  0  0  0  0  0  0  0  0  0  0
    9.7760  -17.4343   20.7363 O   0  0  0  0  0  0  0  0  0  0  0  0
    8.2074  -14.2172   17.2681 C   0  0  0  0  0  0  0  0  0  0  0  0
    7.6087  -13.4441   16.2903 C   0  0  0  0  0  0  0  0  0  0  0  0
    9.1097  -19.3399   19.6361 N   0  0  0  0  0  0  0  0  0  0  0  0
    7.9144  -20.1542   19.2411 C   0  0  0  0  0  0  0  0  0  0  0  0
    8.4860  -20.8429   18.0264 C   0  0  0  0  0  0  0  0  0  0  0  0
    9.9717  -21.0228   18.3753 C   0  0  0  0  0  0  0  0  0  0  0  0
   10.0655  -20.3958   19.7611 C   0  0  1  0  0  0  0  0  0  0  0  0
   11.4116  -20.1108   20.1764 C   0  0  0  0  0  0  0  0  0  0  0  0
   12.3345  -19.5305   19.5960 O   0  0  0  0  0  0  0  0  0  0  0  0
   11.7722  -20.5794   21.5123 N   0  0  0  0  0  0  0  0  0  0  0  0
   13.0617  -20.3451   22.0672 C   0  0  1  0  0  0  0  0  0  0  0  0
   12.9399  -20.3406   23.5753 C   0  0  0  0  0  0  0  0  0  0  0  0
   12.8082  -21.7422   24.1305 C   0  0  0  0  0  0  0  0  0  0  0  0
   12.7152  -21.6393   25.6399 C   0  0  0  0  0  0  0  0  0  0  0  0
   12.6275  -23.0068   26.2817 C   0  0  0  0  0  0  0  0  0  0  0  0
   12.4310  -22.7905   27.7153 N   0  0  0  0  0  0  0  0  0  0  0  0
   14.0771  -21.3398   21.6672 C   0  0  0  0  0  0  0  0  0  0  0  0
   15.3940  -20.9058   21.5931 O   0  0  0  0  0  0  0  0  0  0  0  0
   13.8434  -22.5339   21.3923 O   0  0  0  0  0  0  0  0  0  0  0  0
  2  3  2  0
  2  1  1  0
  4  3  1  0
  5  4  2  0
  6  5  1  0
  7  6  1  0
  7  8  1  1
  9  7  1  0
 10  9  2  0
 11  5  1  0
 11 12  2  0
 12  2  1  0
 13 17  1  0
 13  9  1  0
 14 15  1  0
 14 13  1  0
 15 16  1  0
 17 16  1  0
 18 20  1  0
 17 18  1  6
 19 18  2  0
 21 27  1  0
 21 20  1  0
 21 22  1  1
 23 22  1  0
 24 23  1  0
 25 24  1  0
 25 26  1  0
 27 28  1  0
 29 27  2  0
M  END
$$$$
