YPK.pdb
     RDKit          3D

 29 30  0  0  1  0  0  0  0  0999 V2000
    9.4833  -13.2791   29.1907 O   0  0  0  0  0  0  0  0  0  0  0  0
    8.7165  -13.4616   28.0353 C   0  0  0  0  0  0  0  0  0  0  0  0
    7.4536  -12.9308   27.9098 C   0  0  0  0  0  0  0  0  0  0  0  0
    6.7168  -13.1308   26.7471 C   0  0  0  0  0  0  0  0  0  0  0  0
    7.2237  -13.8605   25.6928 C   0  0  0  0  0  0  0  0  0  0  0  0
    6.4655  -14.0912   24.4438 C   0  0  0  0  0  0  0  0  0  0  0  0
    6.2514  -15.5601   24.1593 C   0  0  2  0  0  0  0  0  0  0  0  0
    6.2275  -16.2717   25.4301 N   0  0  0  0  0  0  0  0  0  0  0  0
    7.4272  -16.0181   23.3421 C   0  0  0  0  0  0  0  0  0  0  0  0
    8.2662  -16.7473   23.9070 O   0  0  0  0  0  0  0  0  0  0  0  0
    8.4919  -14.3805   25.8466 C   0  0  0  0  0  0  0  0  0  0  0  0
    9.2382  -14.1915   26.9954 C   0  0  0  0  0  0  0  0  0  0  0  0
    7.5987  -15.6561   21.9966 N   0  0  0  0  0  0  0  0  0  0  0  0
    6.4847  -15.3841   21.0307 C   0  0  0  0  0  0  0  0  0  0  0  0
    6.8905  -14.0019   20.5819 C   0  0  0  0  0  0  0  0  0  0  0  0
    8.4260  -14.0397   20.6299 C   0  0  0  0  0  0  0  0  0  0  0  0
    8.7081  -15.4558   21.1172 C   0  0  1  0  0  0  0  0  0  0  0  0
   10.0521  -15.6475   21.5891 C   0  0  0  0  0  0  0  0  0  0  0  0
   10.7931  -14.9125   22.2493 O   0  0  0  0  0  0  0  0  0  0  0  0
   10.6674  -16.9253   21.2387 N   0  0  0  0  0  0  0  0  0  0  0  0
   11.9946  -17.2529   21.6349 C   0  0  1  0  0  0  0  0  0  0  0  0
   11.9647  -18.5846   22.3525 C   0  0  0  0  0  0  0  0  0  0  0  0
   11.2739  -18.4817   23.6949 C   0  0  0  0  0  0  0  0  0  0  0  0
   11.1843  -19.8765   24.2816 C   0  0  0  0  0  0  0  0  0  0  0  0
   10.5430  -19.8583   25.6520 C   0  0  0  0  0  0  0  0  0  0  0  0
   10.4396  -21.2504   26.0902 N   0  0  0  0  0  0  0  0  0  0  0  0
   12.9538  -17.3288   20.5148 C   0  0  0  0  0  0  0  0  0  0  0  0
   14.3047  -17.2904   20.8343 O   0  0  0  0  0  0  0  0  0  0  0  0
   12.6451  -17.4243   19.3099 O   0  0  0  0  0  0  0  0  0  0  0  0
  2  3  2  0
  2  1  1  0
  4  3  1  0
  5  4  2  0
  6  5  1  0
  7  6  1  0
  7  8  1  1
  9  7  1  0
 10  9  2  0
 11  5  1  0
 11 12  2  0
 12  2  1  0
 13 17  1  0
 13  9  1  0
 14 15  1  0
 14 13  1  0
 15 16  1  0
 17 16  1  0
 18 20  1  0
 17 18  1  1
 19 18  2  0
 21 27  1  0
 21 20  1  0
 21 22  1  6
 23 22  1  0
 24 23  1  0
 25 24  1  0
 25 26  1  0
 27 28  1  0
 29 27  2  0
M  END
$$$$
