YPK.pdb
     RDKit          3D

 29 30  0  0  1  0  0  0  0  0999 V2000
    5.5163  -11.3003   28.6717 O   0  0  0  0  0  0  0  0  0  0  0  0
    6.0689  -12.0206   27.6078 C   0  0  0  0  0  0  0  0  0  0  0  0
    5.3435  -12.3189   26.4776 C   0  0  0  0  0  0  0  0  0  0  0  0
    5.9228  -13.0373   25.4370 C   0  0  0  0  0  0  0  0  0  0  0  0
    7.2303  -13.4696   25.5039 C   0  0  0  0  0  0  0  0  0  0  0  0
    7.8749  -14.2353   24.4148 C   0  0  0  0  0  0  0  0  0  0  0  0
    6.9614  -15.2861   23.8265 C   0  0  2  0  0  0  0  0  0  0  0  0
    6.6811  -16.2756   24.8582 N   0  0  0  0  0  0  0  0  0  0  0  0
    7.7145  -15.9297   22.6958 C   0  0  0  0  0  0  0  0  0  0  0  0
    8.2717  -17.0206   22.9284 O   0  0  0  0  0  0  0  0  0  0  0  0
    7.9332  -13.1561   26.6485 C   0  0  0  0  0  0  0  0  0  0  0  0
    7.3730  -12.4429   27.6925 C   0  0  0  0  0  0  0  0  0  0  0  0
    7.8027  -15.3498   21.4203 N   0  0  0  0  0  0  0  0  0  0  0  0
    6.6742  -14.6691   20.7055 C   0  0  0  0  0  0  0  0  0  0  0  0
    7.3313  -13.3379   20.4358 C   0  0  0  0  0  0  0  0  0  0  0  0
    8.8110  -13.6975   20.2295 C   0  0  0  0  0  0  0  0  0  0  0  0
    8.8149  -15.2094   20.4205 C   0  0  1  0  0  0  0  0  0  0  0  0
   10.1250  -15.7617   20.6314 C   0  0  0  0  0  0  0  0  0  0  0  0
   11.1317  -15.2831   21.1631 O   0  0  0  0  0  0  0  0  0  0  0  0
   10.3220  -17.1233   20.1398 N   0  0  0  0  0  0  0  0  0  0  0  0
   11.5684  -17.7971   20.2753 C   0  0  1  0  0  0  0  0  0  0  0  0
   11.3492  -19.0476   21.0984 C   0  0  0  0  0  0  0  0  0  0  0  0
   12.0972  -18.9909   22.4127 C   0  0  0  0  0  0  0  0  0  0  0  0
   11.8272  -20.2822   23.1592 C   0  0  0  0  0  0  0  0  0  0  0  0
   12.5798  -20.3287   24.4711 C   0  0  0  0  0  0  0  0  0  0  0  0
   12.1323  -21.5312   25.1742 N   0  0  0  0  0  0  0  0  0  0  0  0
   12.1930  -18.1679   18.9897 C   0  0  0  0  0  0  0  0  0  0  0  0
   11.3810  -18.1524   17.8634 O   0  0  0  0  0  0  0  0  0  0  0  0
   13.3880  -18.4924   18.8390 O   0  0  0  0  0  0  0  0  0  0  0  0
  2  3  2  0
  2  1  1  0
  4  3  1  0
  5  4  2  0
  6  5  1  0
  7  6  1  0
  7  8  1  1
  9  7  1  0
 10  9  2  0
 11  5  1  0
 11 12  2  0
 12  2  1  0
 13 17  1  0
 13  9  1  0
 14 15  1  0
 14 13  1  0
 15 16  1  0
 17 16  1  0
 18 20  1  0
 17 18  1  1
 19 18  2  0
 21 27  1  0
 21 20  1  0
 21 22  1  1
 23 22  1  0
 24 23  1  0
 25 24  1  0
 25 26  1  0
 27 28  1  0
 29 27  2  0
M  END
$$$$
