YPK.pdb
     RDKit          3D

 29 30  0  0  1  0  0  0  0  0999 V2000
    5.1947  -10.6147   28.0183 O   0  0  0  0  0  0  0  0  0  0  0  0
    5.8827  -11.5430   27.2302 C   0  0  0  0  0  0  0  0  0  0  0  0
    7.2416  -11.4624   27.0320 C   0  0  0  0  0  0  0  0  0  0  0  0
    7.8961  -12.4019   26.2423 C   0  0  0  0  0  0  0  0  0  0  0  0
    7.2105  -13.4345   25.6384 C   0  0  0  0  0  0  0  0  0  0  0  0
    7.8771  -14.4489   24.7930 C   0  0  0  0  0  0  0  0  0  0  0  0
    6.8918  -15.3421   24.0747 C   0  0  2  0  0  0  0  0  0  0  0  0
    6.3706  -16.3083   25.0322 N   0  0  0  0  0  0  0  0  0  0  0  0
    7.6609  -16.0567   22.9986 C   0  0  0  0  0  0  0  0  0  0  0  0
    8.2692  -17.0951   23.3248 O   0  0  0  0  0  0  0  0  0  0  0  0
    5.8494  -13.4903   25.8547 C   0  0  0  0  0  0  0  0  0  0  0  0
    5.1828  -12.5649   26.6367 C   0  0  0  0  0  0  0  0  0  0  0  0
    7.7091  -15.5972   21.6729 N   0  0  0  0  0  0  0  0  0  0  0  0
    6.5233  -15.1396   20.8779 C   0  0  0  0  0  0  0  0  0  0  0  0
    7.0143  -13.7679   20.4856 C   0  0  0  0  0  0  0  0  0  0  0  0
    8.5324  -13.9533   20.3370 C   0  0  0  0  0  0  0  0  0  0  0  0
    8.7218  -15.4264   20.6782 C   0  0  1  0  0  0  0  0  0  0  0  0
   10.0850  -15.7832   20.9616 C   0  0  0  0  0  0  0  0  0  0  0  0
   10.9654  -15.1890   21.5917 O   0  0  0  0  0  0  0  0  0  0  0  0
   10.5267  -17.0664   20.4204 N   0  0  0  0  0  0  0  0  0  0  0  0
   11.7971  -17.6202   20.7445 C   0  0  1  0  0  0  0  0  0  0  0  0
   11.5920  -18.7308   21.7514 C   0  0  0  0  0  0  0  0  0  0  0  0
   12.9003  -19.3878   22.1343 C   0  0  0  0  0  0  0  0  0  0  0  0
   12.5917  -20.5126   23.1024 C   0  0  0  0  0  0  0  0  0  0  0  0
   13.8463  -21.2612   23.4963 C   0  0  0  0  0  0  0  0  0  0  0  0
   13.4283  -22.3614   24.3655 N   0  0  0  0  0  0  0  0  0  0  0  0
   12.5341  -18.1527   19.5809 C   0  0  0  0  0  0  0  0  0  0  0  0
   11.7810  -18.7001   18.5507 O   0  0  0  0  0  0  0  0  0  0  0  0
   13.7750  -18.1485   19.4535 O   0  0  0  0  0  0  0  0  0  0  0  0
  2  3  2  0
  2  1  1  0
  4  3  1  0
  5  4  2  0
  6  5  1  0
  7  6  1  0
  7  8  1  1
  9  7  1  0
 10  9  2  0
 11  5  1  0
 11 12  2  0
 12  2  1  0
 13 17  1  0
 13  9  1  0
 14 15  1  0
 14 13  1  0
 15 16  1  0
 17 16  1  0
 18 20  1  0
 17 18  1  1
 19 18  2  0
 21 27  1  0
 21 20  1  0
 21 22  1  1
 23 22  1  0
 24 23  1  0
 25 24  1  0
 25 26  1  0
 27 28  1  0
 29 27  2  0
M  END
$$$$
