YPK.pdb
     RDKit          3D

 29 30  0  0  1  0  0  0  0  0999 V2000
    5.3251  -10.3639   27.7895 O   0  0  0  0  0  0  0  0  0  0  0  0
    5.9048  -11.4030   27.0544 C   0  0  0  0  0  0  0  0  0  0  0  0
    5.1451  -12.3805   26.4545 C   0  0  0  0  0  0  0  0  0  0  0  0
    5.7528  -13.4007   25.7302 C   0  0  0  0  0  0  0  0  0  0  0  0
    7.1231  -13.4646   25.5913 C   0  0  0  0  0  0  0  0  0  0  0  0
    7.7992  -14.5362   24.8281 C   0  0  0  0  0  0  0  0  0  0  0  0
    6.8292  -15.3856   24.0393 C   0  0  2  0  0  0  0  0  0  0  0  0
    6.2005  -16.3285   24.9545 N   0  0  0  0  0  0  0  0  0  0  0  0
    7.6406  -16.1327   23.0177 C   0  0  0  0  0  0  0  0  0  0  0  0
    8.2365  -17.1588   23.4007 O   0  0  0  0  0  0  0  0  0  0  0  0
    7.8590  -12.4715   26.2033 C   0  0  0  0  0  0  0  0  0  0  0  0
    7.2715  -11.4501   26.9270 C   0  0  0  0  0  0  0  0  0  0  0  0
    7.7404  -15.7159   21.6808 N   0  0  0  0  0  0  0  0  0  0  0  0
    6.6014  -15.1992   20.8541 C   0  0  0  0  0  0  0  0  0  0  0  0
    7.1937  -13.8771   20.4323 C   0  0  0  0  0  0  0  0  0  0  0  0
    8.6970  -14.1728   20.3139 C   0  0  0  0  0  0  0  0  0  0  0  0
    8.7769  -15.6451   20.6987 C   0  0  1  0  0  0  0  0  0  0  0  0
   10.1072  -16.0885   21.0142 C   0  0  0  0  0  0  0  0  0  0  0  0
   11.0303  -15.5254   21.6110 O   0  0  0  0  0  0  0  0  0  0  0  0
   10.4479  -17.4345   20.5600 N   0  0  0  0  0  0  0  0  0  0  0  0
   11.7539  -17.9751   20.7273 C   0  0  1  0  0  0  0  0  0  0  0  0
   11.6224  -19.4244   21.1411 C   0  0  0  0  0  0  0  0  0  0  0  0
   11.0921  -19.5578   22.5521 C   0  0  0  0  0  0  0  0  0  0  0  0
   10.9363  -21.0350   22.8542 C   0  0  0  0  0  0  0  0  0  0  0  0
   10.5188  -21.2632   24.2906 C   0  0  0  0  0  0  0  0  0  0  0  0
   10.2947  -22.7009   24.4437 N   0  0  0  0  0  0  0  0  0  0  0  0
   12.5972  -17.8923   19.5179 C   0  0  0  0  0  0  0  0  0  0  0  0
   13.9725  -17.9541   19.6995 O   0  0  0  0  0  0  0  0  0  0  0  0
   12.1708  -17.7716   18.3518 O   0  0  0  0  0  0  0  0  0  0  0  0
  2  3  2  0
  2  1  1  0
  4  3  1  0
  5  4  2  0
  6  5  1  0
  7  6  1  0
  7  8  1  1
  9  7  1  0
 10  9  2  0
 11  5  1  0
 11 12  2  0
 12  2  1  0
 13 17  1  0
 13  9  1  0
 14 15  1  0
 14 13  1  0
 15 16  1  0
 17 16  1  0
 18 20  1  0
 17 18  1  1
 19 18  2  0
 21 27  1  0
 21 20  1  0
 21 22  1  6
 23 22  1  0
 24 23  1  0
 25 24  1  0
 25 26  1  0
 27 28  1  0
 29 27  2  0
M  END
$$$$
