YPK.pdb
     RDKit          3D

 29 30  0  0  1  0  0  0  0  0999 V2000
   10.8353  -14.8591   29.9305 O   0  0  0  0  0  0  0  0  0  0  0  0
   10.1980  -14.6238   28.7079 C   0  0  0  0  0  0  0  0  0  0  0  0
   10.3824  -15.4478   27.6218 C   0  0  0  0  0  0  0  0  0  0  0  0
    9.7337  -15.1858   26.4197 C   0  0  0  0  0  0  0  0  0  0  0  0
    8.8929  -14.1022   26.2790 C   0  0  0  0  0  0  0  0  0  0  0  0
    8.1890  -13.7966   25.0145 C   0  0  0  0  0  0  0  0  0  0  0  0
    7.0450  -14.7468   24.7443 C   0  0  2  0  0  0  0  0  0  0  0  0
    6.8434  -15.5666   25.9314 N   0  0  0  0  0  0  0  0  0  0  0  0
    7.4673  -15.6154   23.5922 C   0  0  0  0  0  0  0  0  0  0  0  0
    7.8459  -16.7732   23.8584 O   0  0  0  0  0  0  0  0  0  0  0  0
    8.7270  -13.2937   27.3842 C   0  0  0  0  0  0  0  0  0  0  0  0
    9.3641  -13.5393   28.5867 C   0  0  0  0  0  0  0  0  0  0  0  0
    7.4458  -15.1681   22.2617 N   0  0  0  0  0  0  0  0  0  0  0  0
    6.3612  -14.3305   21.6536 C   0  0  0  0  0  0  0  0  0  0  0  0
    7.2018  -13.1866   21.1422 C   0  0  0  0  0  0  0  0  0  0  0  0
    8.5307  -13.8551   20.7570 C   0  0  0  0  0  0  0  0  0  0  0  0
    8.2822  -15.3162   21.1116 C   0  0  1  0  0  0  0  0  0  0  0  0
    9.4813  -16.1054   21.1831 C   0  0  0  0  0  0  0  0  0  0  0  0
   10.5428  -15.9163   21.7854 O   0  0  0  0  0  0  0  0  0  0  0  0
    9.4636  -17.3503   20.4188 N   0  0  0  0  0  0  0  0  0  0  0  0
   10.5556  -18.2628   20.4450 C   0  0  1  0  0  0  0  0  0  0  0  0
   10.3626  -19.2720   19.3345 C   0  0  0  0  0  0  0  0  0  0  0  0
   10.5885  -18.6546   17.9715 C   0  0  0  0  0  0  0  0  0  0  0  0
   10.5017  -19.7604   16.9383 C   0  0  0  0  0  0  0  0  0  0  0  0
   10.6642  -19.2181   15.5350 C   0  0  0  0  0  0  0  0  0  0  0  0
   10.5256  -20.3537   14.6230 N   0  0  0  0  0  0  0  0  0  0  0  0
   11.8771  -17.6219   20.2915 C   0  0  0  0  0  0  0  0  0  0  0  0
   11.9142  -16.3949   19.6425 O   0  0  0  0  0  0  0  0  0  0  0  0
   12.9569  -18.0961   20.6981 O   0  0  0  0  0  0  0  0  0  0  0  0
  2  3  2  0
  2  1  1  0
  4  3  1  0
  5  4  2  0
  6  5  1  0
  7  6  1  0
  7  8  1  1
  9  7  1  0
 10  9  2  0
 11  5  1  0
 11 12  2  0
 12  2  1  0
 13 17  1  0
 13  9  1  0
 14 15  1  0
 14 13  1  0
 15 16  1  0
 17 16  1  0
 18 20  1  0
 17 18  1  1
 19 18  2  0
 21 27  1  0
 21 20  1  0
 21 22  1  6
 23 22  1  0
 24 23  1  0
 25 24  1  0
 25 26  1  0
 27 28  1  0
 29 27  2  0
M  END
$$$$
