YPK.pdb
     RDKit          3D

 29 30  0  0  1  0  0  0  0  0999 V2000
    5.7146  -10.3544   27.8385 O   0  0  0  0  0  0  0  0  0  0  0  0
    6.2115  -11.5150   27.2365 C   0  0  0  0  0  0  0  0  0  0  0  0
    5.6731  -12.7546   27.4934 C   0  0  0  0  0  0  0  0  0  0  0  0
    6.1907  -13.8896   26.8781 C   0  0  0  0  0  0  0  0  0  0  0  0
    7.2500  -13.8097   25.9992 C   0  0  0  0  0  0  0  0  0  0  0  0
    7.8229  -14.9974   25.3292 C   0  0  0  0  0  0  0  0  0  0  0  0
    6.8591  -15.6333   24.3538 C   0  0  2  0  0  0  0  0  0  0  0  0
    6.0332  -16.5853   25.0844 N   0  0  0  0  0  0  0  0  0  0  0  0
    7.6918  -16.3598   23.3346 C   0  0  0  0  0  0  0  0  0  0  0  0
    8.1960  -17.4469   23.6788 O   0  0  0  0  0  0  0  0  0  0  0  0
    7.7694  -12.5543   25.7608 C   0  0  0  0  0  0  0  0  0  0  0  0
    7.2673  -11.4157   26.3637 C   0  0  0  0  0  0  0  0  0  0  0  0
    7.9089  -15.8590   22.0412 N   0  0  0  0  0  0  0  0  0  0  0  0
    6.8466  -15.2868   21.1512 C   0  0  0  0  0  0  0  0  0  0  0  0
    7.4709  -13.9425   20.8688 C   0  0  0  0  0  0  0  0  0  0  0  0
    8.9794  -14.2350   20.8657 C   0  0  0  0  0  0  0  0  0  0  0  0
    9.0284  -15.7292   21.1614 C   0  0  1  0  0  0  0  0  0  0  0  0
   10.3265  -16.1961   21.5648 C   0  0  0  0  0  0  0  0  0  0  0  0
   11.1512  -15.7215   22.3522 O   0  0  0  0  0  0  0  0  0  0  0  0
   10.7665  -17.4460   20.9498 N   0  0  0  0  0  0  0  0  0  0  0  0
   12.0638  -17.9822   21.1847 C   0  0  1  0  0  0  0  0  0  0  0  0
   11.9135  -19.4200   21.6313 C   0  0  0  0  0  0  0  0  0  0  0  0
   11.8386  -19.5331   23.1385 C   0  0  0  0  0  0  0  0  0  0  0  0
   11.5835  -20.9865   23.4852 C   0  0  0  0  0  0  0  0  0  0  0  0
   11.4799  -21.1867   24.9814 C   0  0  0  0  0  0  0  0  0  0  0  0
   11.0311  -22.5628   25.1950 N   0  0  0  0  0  0  0  0  0  0  0  0
   12.9560  -17.9319   20.0092 C   0  0  0  0  0  0  0  0  0  0  0  0
   14.3045  -17.7011   20.2471 O   0  0  0  0  0  0  0  0  0  0  0  0
   12.5928  -18.0801   18.8250 O   0  0  0  0  0  0  0  0  0  0  0  0
  2  3  2  0
  2  1  1  0
  4  3  1  0
  5  4  2  0
  6  5  1  0
  7  6  1  0
  7  8  1  1
  9  7  1  0
 10  9  2  0
 11  5  1  0
 11 12  2  0
 12  2  1  0
 13 17  1  0
 13  9  1  0
 14 15  1  0
 14 13  1  0
 15 16  1  0
 17 16  1  0
 18 20  1  0
 17 18  1  1
 19 18  2  0
 21 27  1  0
 21 20  1  0
 21 22  1  6
 23 22  1  0
 24 23  1  0
 25 24  1  0
 25 26  1  0
 27 28  1  0
 29 27  2  0
M  END
$$$$
