YPK.pdb
     RDKit          3D

 29 30  0  0  1  0  0  0  0  0999 V2000
    5.2442  -10.4928   27.7839 O   0  0  0  0  0  0  0  0  0  0  0  0
    5.8789  -11.5676   27.1529 C   0  0  0  0  0  0  0  0  0  0  0  0
    5.1795  -12.6662   26.7098 C   0  0  0  0  0  0  0  0  0  0  0  0
    5.8410  -13.7187   26.0858 C   0  0  0  0  0  0  0  0  0  0  0  0
    7.2060  -13.6951   25.8930 C   0  0  0  0  0  0  0  0  0  0  0  0
    7.9384  -14.7981   25.2336 C   0  0  0  0  0  0  0  0  0  0  0  0
    7.0125  -15.8053   24.5909 C   0  0  2  0  0  0  0  0  0  0  0  0
    6.5642  -16.7336   25.6201 N   0  0  0  0  0  0  0  0  0  0  0  0
    7.8226  -16.5412   23.5602 C   0  0  0  0  0  0  0  0  0  0  0  0
    8.3640  -17.6072   23.9137 O   0  0  0  0  0  0  0  0  0  0  0  0
    7.8810  -12.5814   26.3473 C   0  0  0  0  0  0  0  0  0  0  0  0
    7.2394  -11.5262   26.9697 C   0  0  0  0  0  0  0  0  0  0  0  0
    7.9793  -16.0715   22.2466 N   0  0  0  0  0  0  0  0  0  0  0  0
    6.8562  -15.6814   21.3333 C   0  0  0  0  0  0  0  0  0  0  0  0
    7.3008  -14.2802   20.9936 C   0  0  0  0  0  0  0  0  0  0  0  0
    8.8346  -14.3727   21.0027 C   0  0  0  0  0  0  0  0  0  0  0  0
    9.0770  -15.8337   21.3619 C   0  0  1  0  0  0  0  0  0  0  0  0
   10.4227  -16.1093   21.7846 C   0  0  0  0  0  0  0  0  0  0  0  0
   11.2225  -15.4330   22.4390 O   0  0  0  0  0  0  0  0  0  0  0  0
   10.9570  -17.4079   21.3817 N   0  0  0  0  0  0  0  0  0  0  0  0
   12.2454  -17.8502   21.7943 C   0  0  1  0  0  0  0  0  0  0  0  0
   12.0687  -18.9220   22.8475 C   0  0  0  0  0  0  0  0  0  0  0  0
   13.3951  -19.3555   23.4330 C   0  0  0  0  0  0  0  0  0  0  0  0
   13.1213  -20.4401   24.4559 C   0  0  0  0  0  0  0  0  0  0  0  0
   14.4027  -20.9391   25.0872 C   0  0  0  0  0  0  0  0  0  0  0  0
   14.0307  -22.0099   26.0122 N   0  0  0  0  0  0  0  0  0  0  0  0
   13.0769  -18.3835   20.6967 C   0  0  0  0  0  0  0  0  0  0  0  0
   14.4416  -18.1338   20.7572 O   0  0  0  0  0  0  0  0  0  0  0  0
   12.6494  -19.0376   19.7243 O   0  0  0  0  0  0  0  0  0  0  0  0
  2  3  2  0
  2  1  1  0
  4  3  1  0
  5  4  2  0
  6  5  1  0
  7  6  1  0
  7  8  1  1
  9  7  1  0
 10  9  2  0
 11  5  1  0
 11 12  2  0
 12  2  1  0
 13 17  1  0
 13  9  1  0
 14 15  1  0
 14 13  1  0
 15 16  1  0
 17 16  1  0
 18 20  1  0
 17 18  1  1
 19 18  2  0
 21 27  1  0
 21 20  1  0
 21 22  1  1
 23 22  1  0
 24 23  1  0
 25 24  1  0
 25 26  1  0
 27 28  1  0
 29 27  2  0
M  END
$$$$
