YPK.pdb
     RDKit          3D

 29 30  0  0  1  0  0  0  0  0999 V2000
    5.8594  -11.2280   28.9519 O   0  0  0  0  0  0  0  0  0  0  0  0
    6.3642  -11.9613   27.8732 C   0  0  0  0  0  0  0  0  0  0  0  0
    5.6026  -12.2353   26.7608 C   0  0  0  0  0  0  0  0  0  0  0  0
    6.1347  -12.9675   25.7047 C   0  0  0  0  0  0  0  0  0  0  0  0
    7.4303  -13.4378   25.7382 C   0  0  0  0  0  0  0  0  0  0  0  0
    8.0250  -14.2191   24.6319 C   0  0  0  0  0  0  0  0  0  0  0  0
    7.0404  -15.1814   24.0080 C   0  0  2  0  0  0  0  0  0  0  0  0
    6.6926  -16.1866   25.0033 N   0  0  0  0  0  0  0  0  0  0  0  0
    7.7464  -15.8334   22.8519 C   0  0  0  0  0  0  0  0  0  0  0  0
    8.3827  -16.8795   23.0876 O   0  0  0  0  0  0  0  0  0  0  0  0
    8.1702  -13.1481   26.8656 C   0  0  0  0  0  0  0  0  0  0  0  0
    7.6571  -12.4217   27.9246 C   0  0  0  0  0  0  0  0  0  0  0  0
    7.7075  -15.3089   21.5503 N   0  0  0  0  0  0  0  0  0  0  0  0
    6.4865  -14.7476   20.8857 C   0  0  0  0  0  0  0  0  0  0  0  0
    7.0208  -13.3857   20.5166 C   0  0  0  0  0  0  0  0  0  0  0  0
    8.5073  -13.6443   20.2258 C   0  0  0  0  0  0  0  0  0  0  0  0
    8.6395  -15.1412   20.4791 C   0  0  1  0  0  0  0  0  0  0  0  0
    9.9989  -15.5849   20.6237 C   0  0  0  0  0  0  0  0  0  0  0  0
   11.0545  -14.9503   20.7154 O   0  0  0  0  0  0  0  0  0  0  0  0
   10.1881  -17.0327   20.6730 N   0  0  0  0  0  0  0  0  0  0  0  0
   11.4545  -17.6148   20.9613 C   0  0  1  0  0  0  0  0  0  0  0  0
   11.2326  -18.8458   21.8125 C   0  0  0  0  0  0  0  0  0  0  0  0
   12.5408  -19.4888   22.2187 C   0  0  0  0  0  0  0  0  0  0  0  0
   12.2199  -20.7083   23.0599 C   0  0  0  0  0  0  0  0  0  0  0  0
   13.4802  -21.3982   23.5344 C   0  0  0  0  0  0  0  0  0  0  0  0
   13.0584  -22.5448   24.3395 N   0  0  0  0  0  0  0  0  0  0  0  0
   12.2297  -17.9899   19.7618 C   0  0  0  0  0  0  0  0  0  0  0  0
   11.5169  -18.4757   18.6736 O   0  0  0  0  0  0  0  0  0  0  0  0
   13.4693  -17.9041   19.6519 O   0  0  0  0  0  0  0  0  0  0  0  0
  2  3  2  0
  2  1  1  0
  4  3  1  0
  5  4  2  0
  6  5  1  0
  7  6  1  0
  7  8  1  1
  9  7  1  0
 10  9  2  0
 11  5  1  0
 11 12  2  0
 12  2  1  0
 13 17  1  0
 13  9  1  0
 14 15  1  0
 14 13  1  0
 15 16  1  0
 17 16  1  0
 18 20  1  0
 17 18  1  1
 19 18  2  0
 21 27  1  0
 21 20  1  0
 21 22  1  1
 23 22  1  0
 24 23  1  0
 25 24  1  0
 25 26  1  0
 27 28  1  0
 29 27  2  0
M  END
$$$$
