LKK.pdb
     RDKit          3D

 27 26  0  0  1  0  0  0  0  0999 V2000
    8.2923  -14.7094   17.1120 C   0  0  0  0  0  0  0  0  0  0  0  0
    7.8211  -13.7627   18.1598 C   0  0  2  0  0  0  0  0  0  0  0  0
    7.8994  -12.3491   17.5622 C   0  0  0  0  0  0  0  0  0  0  0  0
    8.5940  -13.7270   19.4214 C   0  0  0  0  0  0  0  0  0  0  0  0
    8.4981  -14.9161   20.3166 C   0  0  2  0  0  0  0  0  0  0  0  0
    7.2703  -15.6265   20.3085 N   0  0  0  0  0  0  0  0  0  0  0  0
    8.9240  -14.6345   21.7071 C   0  0  0  0  0  0  0  0  0  0  0  0
   10.0699  -14.1787   21.9660 O   0  0  0  0  0  0  0  0  0  0  0  0
    8.0355  -14.8799   22.7602 N   0  0  0  0  0  0  0  0  0  0  0  0
    8.3016  -14.5636   24.1561 C   0  0  1  0  0  0  0  0  0  0  0  0
    7.1177  -13.8528   24.7573 C   0  0  0  0  0  0  0  0  0  0  0  0
    7.3380  -13.4064   26.1571 C   0  0  0  0  0  0  0  0  0  0  0  0
    6.2094  -12.4823   26.6233 C   0  0  0  0  0  0  0  0  0  0  0  0
    6.4844  -12.1140   28.0636 C   0  0  0  0  0  0  0  0  0  0  0  0
    5.5059  -11.1648   28.5578 N   0  0  0  0  0  0  0  0  0  0  0  0
    8.6585  -15.7962   24.8676 C   0  0  0  0  0  0  0  0  0  0  0  0
    7.8414  -16.7082   25.1489 O   0  0  0  0  0  0  0  0  0  0  0  0
   10.0098  -16.0605   25.3091 N   0  0  0  0  0  0  0  0  0  0  0  0
   10.3811  -17.2594   26.0284 C   0  0  1  0  0  0  0  0  0  0  0  0
   11.8100  -17.6627   25.7249 C   0  0  0  0  0  0  0  0  0  0  0  0
   11.9133  -18.7485   24.7010 C   0  0  0  0  0  0  0  0  0  0  0  0
   12.0797  -18.2370   23.2893 C   0  0  0  0  0  0  0  0  0  0  0  0
   12.2923  -19.3960   22.3273 C   0  0  0  0  0  0  0  0  0  0  0  0
   12.2758  -18.8729   20.9763 N   0  0  0  0  0  0  0  0  0  0  0  0
   10.3447  -16.9483   27.4805 C   0  0  0  0  0  0  0  0  0  0  0  0
   10.5306  -17.9676   28.4024 O   0  0  0  0  0  0  0  0  0  0  0  0
   10.1498  -15.7833   27.9183 O   0  0  0  0  0  0  0  0  0  0  0  0
  2  1  1  6
  3  2  1  0
  4  5  1  0
  4  2  1  0
  5  6  1  1
  7  5  1  0
  7  8  2  0
  9  7  1  0
 10  9  1  0
 10 11  1  1
 12 11  1  0
 12 13  1  0
 14 13  1  0
 15 14  1  0
 16 10  1  0
 17 16  2  0
 18 16  1  0
 19 18  1  0
 19 20  1  6
 20 21  1  0
 21 22  1  0
 22 23  1  0
 23 24  1  0
 25 19  1  0
 26 25  1  0
 27 25  2  0
M  END
$$$$
