LKK.pdb
     RDKit          3D

 27 26  0  0  1  0  0  0  0  0999 V2000
    7.0285  -11.0256   25.3846 C   0  0  0  0  0  0  0  0  0  0  0  0
    6.3174  -12.2576   25.8237 C   0  0  2  0  0  0  0  0  0  0  0  0
    6.2146  -12.2001   27.3559 C   0  0  0  0  0  0  0  0  0  0  0  0
    6.9596  -13.5498   25.4956 C   0  0  0  0  0  0  0  0  0  0  0  0
    7.3932  -13.7597   24.0841 C   0  0  2  0  0  0  0  0  0  0  0  0
    6.3867  -13.6867   23.0872 N   0  0  0  0  0  0  0  0  0  0  0  0
    8.2146  -14.9789   23.9019 C   0  0  0  0  0  0  0  0  0  0  0  0
    8.3811  -15.8073   24.8368 O   0  0  0  0  0  0  0  0  0  0  0  0
    8.8216  -15.2190   22.6639 N   0  0  0  0  0  0  0  0  0  0  0  0
    9.6132  -16.3991   22.3472 C   0  0  1  0  0  0  0  0  0  0  0  0
    9.7654  -16.5310   20.8546 C   0  0  0  0  0  0  0  0  0  0  0  0
   10.5218  -17.7395   20.4369 C   0  0  0  0  0  0  0  0  0  0  0  0
   10.5773  -17.8529   18.9108 C   0  0  0  0  0  0  0  0  0  0  0  0
   11.3063  -19.1335   18.5727 C   0  0  0  0  0  0  0  0  0  0  0  0
   11.2367  -19.4170   17.1524 N   0  0  0  0  0  0  0  0  0  0  0  0
   10.8962  -16.3199   23.0545 C   0  0  0  0  0  0  0  0  0  0  0  0
   11.7066  -15.3669   22.9379 O   0  0  0  0  0  0  0  0  0  0  0  0
   11.3352  -17.3576   23.9608 N   0  0  0  0  0  0  0  0  0  0  0  0
   12.6592  -17.3839   24.5430 C   0  0  1  0  0  0  0  0  0  0  0  0
   12.7958  -18.5098   25.5482 C   0  0  0  0  0  0  0  0  0  0  0  0
   12.0655  -18.2518   26.8281 C   0  0  0  0  0  0  0  0  0  0  0  0
   12.1771  -19.3788   27.8278 C   0  0  0  0  0  0  0  0  0  0  0  0
   11.6362  -18.9424   29.1809 C   0  0  0  0  0  0  0  0  0  0  0  0
   11.6160  -20.0976   30.0552 N   0  0  0  0  0  0  0  0  0  0  0  0
   13.6275  -17.6863   23.4578 C   0  0  0  0  0  0  0  0  0  0  0  0
   14.8827  -17.0970   23.4784 O   0  0  0  0  0  0  0  0  0  0  0  0
   13.3555  -18.4652   22.5059 O   0  0  0  0  0  0  0  0  0  0  0  0
  2  1  1  1
  3  2  1  0
  4  5  1  0
  4  2  1  0
  5  6  1  6
  7  5  1  0
  7  8  2  0
  9  7  1  0
 10  9  1  0
 10 11  1  6
 12 11  1  0
 12 13  1  0
 14 13  1  0
 15 14  1  0
 16 10  1  0
 17 16  2  0
 18 16  1  0
 19 18  1  0
 19 20  1  1
 20 21  1  0
 21 22  1  0
 22 23  1  0
 23 24  1  0
 25 19  1  0
 26 25  1  0
 27 25  2  0
M  END
$$$$
