LKK.pdb
     RDKit          3D

 27 26  0  0  1  0  0  0  0  0999 V2000
    5.4895  -12.2034   26.7869 C   0  0  0  0  0  0  0  0  0  0  0  0
    6.6868  -12.9553   27.2532 C   0  0  2  0  0  0  0  0  0  0  0  0
    7.7146  -11.9187   27.7335 C   0  0  0  0  0  0  0  0  0  0  0  0
    7.3776  -13.7959   26.2502 C   0  0  0  0  0  0  0  0  0  0  0  0
    6.5801  -14.8705   25.5917 C   0  0  2  0  0  0  0  0  0  0  0  0
    6.0852  -15.9043   26.4275 N   0  0  0  0  0  0  0  0  0  0  0  0
    7.2467  -15.4434   24.3994 C   0  0  0  0  0  0  0  0  0  0  0  0
    7.7316  -16.6065   24.4104 O   0  0  0  0  0  0  0  0  0  0  0  0
    7.3421  -14.6775   23.2319 N   0  0  0  0  0  0  0  0  0  0  0  0
    8.0774  -15.0762   22.0403 C   0  0  1  0  0  0  0  0  0  0  0  0
    7.8515  -14.0755   20.9376 C   0  0  0  0  0  0  0  0  0  0  0  0
    8.4400  -14.4805   19.6350 C   0  0  0  0  0  0  0  0  0  0  0  0
    8.0503  -13.4984   18.5267 C   0  0  0  0  0  0  0  0  0  0  0  0
    8.5272  -14.0766   17.2137 C   0  0  0  0  0  0  0  0  0  0  0  0
    8.1139  -13.2502   16.0961 N   0  0  0  0  0  0  0  0  0  0  0  0
    9.4933  -15.2468   22.3851 C   0  0  0  0  0  0  0  0  0  0  0  0
   10.1144  -14.5121   23.1932 O   0  0  0  0  0  0  0  0  0  0  0  0
   10.2998  -16.2987   21.8071 N   0  0  0  0  0  0  0  0  0  0  0  0
   11.6038  -16.6600   22.3186 C   0  0  1  0  0  0  0  0  0  0  0  0
   11.5704  -18.0103   23.0057 C   0  0  0  0  0  0  0  0  0  0  0  0
   12.8925  -18.4166   23.5759 C   0  0  0  0  0  0  0  0  0  0  0  0
   12.8586  -19.7412   24.3015 C   0  0  0  0  0  0  0  0  0  0  0  0
   14.2319  -20.0711   24.8665 C   0  0  0  0  0  0  0  0  0  0  0  0
   14.1488  -21.3498   25.5428 N   0  0  0  0  0  0  0  0  0  0  0  0
   12.5202  -16.8146   21.1597 C   0  0  0  0  0  0  0  0  0  0  0  0
   13.8817  -16.6166   21.3342 O   0  0  0  0  0  0  0  0  0  0  0  0
   12.1100  -17.1221   20.0090 O   0  0  0  0  0  0  0  0  0  0  0  0
  2  1  1  6
  3  2  1  0
  4  5  1  0
  4  2  1  0
  5  6  1  1
  7  5  1  0
  7  8  2  0
  9  7  1  0
 10  9  1  0
 10 11  1  6
 12 11  1  0
 12 13  1  0
 14 13  1  0
 15 14  1  0
 16 10  1  0
 17 16  2  0
 18 16  1  0
 19 18  1  0
 19 20  1  6
 20 21  1  0
 21 22  1  0
 22 23  1  0
 23 24  1  0
 25 19  1  0
 26 25  1  0
 27 25  2  0
M  END
$$$$
