LKK.pdb
     RDKit          3D

 27 26  0  0  1  0  0  0  0  0999 V2000
    7.6564  -11.3149   25.9175 C   0  0  0  0  0  0  0  0  0  0  0  0
    6.5532  -12.3141   25.9458 C   0  0  2  0  0  0  0  0  0  0  0  0
    5.9428  -12.2759   27.3556 C   0  0  0  0  0  0  0  0  0  0  0  0
    6.9243  -13.7234   25.6885 C   0  0  0  0  0  0  0  0  0  0  0  0
    7.9400  -13.9808   24.6271 C   0  0  2  0  0  0  0  0  0  0  0  0
    7.5655  -13.6730   23.2940 N   0  0  0  0  0  0  0  0  0  0  0  0
    8.5270  -15.3389   24.6993 C   0  0  0  0  0  0  0  0  0  0  0  0
    8.4720  -16.0256   25.7546 O   0  0  0  0  0  0  0  0  0  0  0  0
    9.1585  -15.8747   23.5711 N   0  0  0  0  0  0  0  0  0  0  0  0
    9.8132  -17.1744   23.5301 C   0  0  1  0  0  0  0  0  0  0  0  0
   10.2778  -17.4724   22.1288 C   0  0  0  0  0  0  0  0  0  0  0  0
   10.8435  -18.8363   21.9656 C   0  0  0  0  0  0  0  0  0  0  0  0
   11.3075  -19.0702   20.5251 C   0  0  0  0  0  0  0  0  0  0  0  0
   11.8479  -20.4796   20.4409 C   0  0  0  0  0  0  0  0  0  0  0  0
   12.2688  -20.7998   19.0908 N   0  0  0  0  0  0  0  0  0  0  0  0
   10.8995  -17.1955   24.5163 C   0  0  0  0  0  0  0  0  0  0  0  0
   11.8225  -16.3445   24.5649 O   0  0  0  0  0  0  0  0  0  0  0  0
   10.9916  -18.2218   25.5307 N   0  0  0  0  0  0  0  0  0  0  0  0
   12.0135  -18.2250   26.5546 C   0  0  1  0  0  0  0  0  0  0  0  0
   11.5054  -18.8530   27.8368 C   0  0  0  0  0  0  0  0  0  0  0  0
   12.5730  -19.0370   28.8686 C   0  0  0  0  0  0  0  0  0  0  0  0
   12.0967  -19.7468   30.1141 C   0  0  0  0  0  0  0  0  0  0  0  0
   13.2538  -19.9587   31.0786 C   0  0  0  0  0  0  0  0  0  0  0  0
   12.7812  -20.7689   32.1829 N   0  0  0  0  0  0  0  0  0  0  0  0
   13.1236  -19.0941   26.0867 C   0  0  0  0  0  0  0  0  0  0  0  0
   12.8396  -20.2035   25.3044 O   0  0  0  0  0  0  0  0  0  0  0  0
   14.3289  -18.8652   26.3729 O   0  0  0  0  0  0  0  0  0  0  0  0
  2  1  1  1
  3  2  1  0
  4  5  1  0
  4  2  1  0
  5  6  1  6
  7  5  1  0
  7  8  2  0
  9  7  1  0
 10  9  1  0
 10 11  1  6
 12 11  1  0
 12 13  1  0
 14 13  1  0
 15 14  1  0
 16 10  1  0
 17 16  2  0
 18 16  1  0
 19 18  1  0
 19 20  1  1
 20 21  1  0
 21 22  1  0
 22 23  1  0
 23 24  1  0
 25 19  1  0
 26 25  1  0
 27 25  2  0
M  END
$$$$
