LKK.pdb
     RDKit          3D

 27 26  0  0  1  0  0  0  0  0999 V2000
    9.6833  -13.9076   17.8314 C   0  0  0  0  0  0  0  0  0  0  0  0
    8.2960  -13.8180   18.3639 C   0  0  2  0  0  0  0  0  0  0  0  0
    7.9530  -12.3251   18.4869 C   0  0  0  0  0  0  0  0  0  0  0  0
    8.0545  -14.4141   19.6967 C   0  0  0  0  0  0  0  0  0  0  0  0
    8.3446  -15.8680   19.8589 C   0  0  2  0  0  0  0  0  0  0  0  0
    7.6677  -16.7576   18.9856 N   0  0  0  0  0  0  0  0  0  0  0  0
    8.2303  -16.3322   21.2610 C   0  0  0  0  0  0  0  0  0  0  0  0
    7.1584  -16.2069   21.9116 O   0  0  0  0  0  0  0  0  0  0  0  0
    9.3371  -16.9238   21.8806 N   0  0  0  0  0  0  0  0  0  0  0  0
    9.3906  -17.3082   23.2837 C   0  0  1  0  0  0  0  0  0  0  0  0
   10.4903  -18.3142   23.4999 C   0  0  0  0  0  0  0  0  0  0  0  0
   10.6403  -18.7388   24.9157 C   0  0  0  0  0  0  0  0  0  0  0  0
   11.2228  -20.1520   25.0069 C   0  0  0  0  0  0  0  0  0  0  0  0
   11.3598  -20.4973   26.4724 C   0  0  0  0  0  0  0  0  0  0  0  0
   11.9412  -21.8140   26.6486 N   0  0  0  0  0  0  0  0  0  0  0  0
    9.5401  -16.1023   24.1060 C   0  0  0  0  0  0  0  0  0  0  0  0
   10.5377  -15.3398   24.0623 O   0  0  0  0  0  0  0  0  0  0  0  0
    8.5262  -15.6908   25.0514 N   0  0  0  0  0  0  0  0  0  0  0  0
    8.6300  -14.4811   25.8379 C   0  0  1  0  0  0  0  0  0  0  0  0
    7.2632  -13.8937   26.1266 C   0  0  0  0  0  0  0  0  0  0  0  0
    7.3179  -12.6447   26.9483 C   0  0  0  0  0  0  0  0  0  0  0  0
    5.9580  -12.0739   27.2751 C   0  0  0  0  0  0  0  0  0  0  0  0
    6.1017  -10.7703   28.0458 C   0  0  0  0  0  0  0  0  0  0  0  0
    4.7782  -10.3206   28.4272 N   0  0  0  0  0  0  0  0  0  0  0  0
    9.2049  -14.8450   27.1585 C   0  0  0  0  0  0  0  0  0  0  0  0
    9.9560  -13.9118   27.8572 O   0  0  0  0  0  0  0  0  0  0  0  0
    9.0381  -15.9797   27.6795 O   0  0  0  0  0  0  0  0  0  0  0  0
  2  1  1  1
  3  2  1  0
  4  5  1  0
  4  2  1  0
  5  6  1  6
  7  5  1  0
  7  8  2  0
  9  7  1  0
 10  9  1  0
 10 11  1  6
 12 11  1  0
 12 13  1  0
 14 13  1  0
 15 14  1  0
 16 10  1  0
 17 16  2  0
 18 16  1  0
 19 18  1  0
 19 20  1  1
 20 21  1  0
 21 22  1  0
 22 23  1  0
 23 24  1  0
 25 19  1  0
 26 25  1  0
 27 25  2  0
M  END
$$$$
