LKK.pdb
     RDKit          3D

 27 26  0  0  1  0  0  0  0  0999 V2000
    7.1317  -11.6456   24.6191 C   0  0  0  0  0  0  0  0  0  0  0  0
    6.8468  -12.6885   25.6425 C   0  0  2  0  0  0  0  0  0  0  0  0
    7.1734  -12.0786   27.0147 C   0  0  0  0  0  0  0  0  0  0  0  0
    7.6234  -13.9446   25.5473 C   0  0  0  0  0  0  0  0  0  0  0  0
    7.3374  -14.8401   24.3894 C   0  0  2  0  0  0  0  0  0  0  0  0
    5.9885  -15.2392   24.2064 N   0  0  0  0  0  0  0  0  0  0  0  0
    8.2380  -16.0143   24.3244 C   0  0  0  0  0  0  0  0  0  0  0  0
    8.0150  -17.0544   25.0000 O   0  0  0  0  0  0  0  0  0  0  0  0
    9.3641  -15.9706   23.4944 N   0  0  0  0  0  0  0  0  0  0  0  0
   10.3185  -17.0589   23.3391 C   0  0  1  0  0  0  0  0  0  0  0  0
   11.0211  -16.9415   22.0121 C   0  0  0  0  0  0  0  0  0  0  0  0
   12.0146  -18.0183   21.7662 C   0  0  0  0  0  0  0  0  0  0  0  0
   12.6833  -17.8475   20.3992 C   0  0  0  0  0  0  0  0  0  0  0  0
   13.6738  -18.9769   20.2293 C   0  0  0  0  0  0  0  0  0  0  0  0
   14.3444  -18.8974   18.9461 N   0  0  0  0  0  0  0  0  0  0  0  0
   11.2380  -17.0573   24.4825 C   0  0  0  0  0  0  0  0  0  0  0  0
   11.8834  -16.0496   24.8651 O   0  0  0  0  0  0  0  0  0  0  0  0
   11.4763  -18.2438   25.2739 N   0  0  0  0  0  0  0  0  0  0  0  0
   12.3414  -18.2543   26.4332 C   0  0  1  0  0  0  0  0  0  0  0  0
   11.8470  -19.2325   27.4797 C   0  0  0  0  0  0  0  0  0  0  0  0
   12.7823  -19.3826   28.6377 C   0  0  0  0  0  0  0  0  0  0  0  0
   12.3396  -20.4180   29.6446 C   0  0  0  0  0  0  0  0  0  0  0  0
   13.4188  -20.6309   30.6953 C   0  0  0  0  0  0  0  0  0  0  0  0
   12.9269  -21.5908   31.6627 N   0  0  0  0  0  0  0  0  0  0  0  0
   13.6723  -18.7549   26.0032 C   0  0  0  0  0  0  0  0  0  0  0  0
   13.7482  -19.8005   25.0953 O   0  0  0  0  0  0  0  0  0  0  0  0
   14.7505  -18.2652   26.4326 O   0  0  0  0  0  0  0  0  0  0  0  0
  2  1  1  6
  3  2  1  0
  4  5  1  0
  4  2  1  0
  5  6  1  1
  7  5  1  0
  7  8  2  0
  9  7  1  0
 10  9  1  0
 10 11  1  6
 12 11  1  0
 12 13  1  0
 14 13  1  0
 15 14  1  0
 16 10  1  0
 17 16  2  0
 18 16  1  0
 19 18  1  0
 19 20  1  1
 20 21  1  0
 21 22  1  0
 22 23  1  0
 23 24  1  0
 25 19  1  0
 26 25  1  0
 27 25  2  0
M  END
$$$$
