LKK.pdb
     RDKit          3D

 27 26  0  0  1  0  0  0  0  0999 V2000
    9.6765  -12.8627   19.0202 C   0  0  0  0  0  0  0  0  0  0  0  0
    8.2439  -13.2643   18.9722 C   0  0  2  0  0  0  0  0  0  0  0  0
    7.4235  -12.0842   19.5161 C   0  0  0  0  0  0  0  0  0  0  0  0
    7.8566  -14.4472   19.7727 C   0  0  0  0  0  0  0  0  0  0  0  0
    8.6094  -15.7122   19.5327 C   0  0  2  0  0  0  0  0  0  0  0  0
    8.1416  -16.5472   18.4858 N   0  0  0  0  0  0  0  0  0  0  0  0
    8.8291  -16.5026   20.7661 C   0  0  0  0  0  0  0  0  0  0  0  0
    7.9668  -16.5451   21.6841 O   0  0  0  0  0  0  0  0  0  0  0  0
   10.0213  -17.2196   20.9188 N   0  0  0  0  0  0  0  0  0  0  0  0
   10.3519  -18.0352   22.0785 C   0  0  1  0  0  0  0  0  0  0  0  0
   11.3144  -19.1243   21.6839 C   0  0  0  0  0  0  0  0  0  0  0  0
   10.6520  -20.3345   21.1327 C   0  0  0  0  0  0  0  0  0  0  0  0
   11.6846  -21.3313   20.5989 C   0  0  0  0  0  0  0  0  0  0  0  0
   10.9439  -22.5854   20.1935 C   0  0  0  0  0  0  0  0  0  0  0  0
   11.8565  -23.5939   19.6911 N   0  0  0  0  0  0  0  0  0  0  0  0
   10.8658  -17.1675   23.1443 C   0  0  0  0  0  0  0  0  0  0  0  0
   11.8076  -16.3496   22.9933 O   0  0  0  0  0  0  0  0  0  0  0  0
   10.3139  -17.1888   24.4806 N   0  0  0  0  0  0  0  0  0  0  0  0
   10.7663  -16.3038   25.5317 C   0  0  1  0  0  0  0  0  0  0  0  0
    9.6128  -15.5209   26.1260 C   0  0  0  0  0  0  0  0  0  0  0  0
   10.0132  -14.6689   27.2887 C   0  0  0  0  0  0  0  0  0  0  0  0
    8.8643  -13.9067   27.9060 C   0  0  0  0  0  0  0  0  0  0  0  0
    9.3592  -13.0407   29.0546 C   0  0  0  0  0  0  0  0  0  0  0  0
    8.2350  -12.2864   29.5709 N   0  0  0  0  0  0  0  0  0  0  0  0
   11.3007  -17.1432   26.6347 C   0  0  0  0  0  0  0  0  0  0  0  0
   10.7237  -18.3771   26.8954 O   0  0  0  0  0  0  0  0  0  0  0  0
   12.2685  -16.7791   27.3541 O   0  0  0  0  0  0  0  0  0  0  0  0
  2  1  1  1
  3  2  1  0
  4  5  1  0
  4  2  1  0
  5  6  1  6
  7  5  1  0
  7  8  2  0
  9  7  1  0
 10  9  1  0
 10 11  1  6
 12 11  1  0
 12 13  1  0
 14 13  1  0
 15 14  1  0
 16 10  1  0
 17 16  2  0
 18 16  1  0
 19 18  1  0
 19 20  1  1
 20 21  1  0
 21 22  1  0
 22 23  1  0
 23 24  1  0
 25 19  1  0
 26 25  1  0
 27 25  2  0
M  END
$$$$
