LKK.pdb
     RDKit          3D

 27 26  0  0  1  0  0  0  0  0999 V2000
    9.1064  -13.4880   17.3831 C   0  0  0  0  0  0  0  0  0  0  0  0
    7.9305  -13.5796   18.2914 C   0  0  2  0  0  0  0  0  0  0  0  0
    7.6290  -12.1569   18.7879 C   0  0  0  0  0  0  0  0  0  0  0  0
    8.0861  -14.4202   19.4995 C   0  0  0  0  0  0  0  0  0  0  0  0
    8.3464  -15.8741   19.2928 C   0  0  2  0  0  0  0  0  0  0  0  0
    7.4286  -16.5788   18.4723 N   0  0  0  0  0  0  0  0  0  0  0  0
    8.5811  -16.6096   20.5569 C   0  0  0  0  0  0  0  0  0  0  0  0
    7.6257  -16.9882   21.2863 O   0  0  0  0  0  0  0  0  0  0  0  0
    9.8933  -16.8919   20.9535 N   0  0  0  0  0  0  0  0  0  0  0  0
   10.2651  -17.4336   22.2527 C   0  0  1  0  0  0  0  0  0  0  0  0
   11.6120  -18.1017   22.1650 C   0  0  0  0  0  0  0  0  0  0  0  0
   11.5484  -19.5841   22.2412 C   0  0  0  0  0  0  0  0  0  0  0  0
   12.2565  -20.2268   21.0452 C   0  0  0  0  0  0  0  0  0  0  0  0
   12.1388  -21.7266   21.1949 C   0  0  0  0  0  0  0  0  0  0  0  0
   12.8312  -22.4162   20.1237 N   0  0  0  0  0  0  0  0  0  0  0  0
   10.2158  -16.3603   23.2518 C   0  0  0  0  0  0  0  0  0  0  0  0
   10.8624  -15.2866   23.1638 O   0  0  0  0  0  0  0  0  0  0  0  0
    9.4000  -16.4598   24.4415 N   0  0  0  0  0  0  0  0  0  0  0  0
    9.3407  -15.4175   25.4430 C   0  0  1  0  0  0  0  0  0  0  0  0
    7.9884  -14.7336   25.4458 C   0  0  0  0  0  0  0  0  0  0  0  0
    7.8799  -13.6419   26.4629 C   0  0  0  0  0  0  0  0  0  0  0  0
    6.5228  -12.9793   26.4990 C   0  0  0  0  0  0  0  0  0  0  0  0
    6.4818  -11.9143   27.5843 C   0  0  0  0  0  0  0  0  0  0  0  0
    5.1391  -11.3724   27.6374 N   0  0  0  0  0  0  0  0  0  0  0  0
    9.4761  -16.0592   26.7759 C   0  0  0  0  0  0  0  0  0  0  0  0
   10.0873  -15.3651   27.8094 O   0  0  0  0  0  0  0  0  0  0  0  0
    9.0545  -17.2224   27.0129 O   0  0  0  0  0  0  0  0  0  0  0  0
  2  1  1  1
  3  2  1  0
  4  5  1  0
  4  2  1  0
  5  6  1  1
  7  5  1  0
  7  8  2  0
  9  7  1  0
 10  9  1  0
 10 11  1  6
 12 11  1  0
 12 13  1  0
 14 13  1  0
 15 14  1  0
 16 10  1  0
 17 16  2  0
 18 16  1  0
 19 18  1  0
 19 20  1  1
 20 21  1  0
 21 22  1  0
 22 23  1  0
 23 24  1  0
 25 19  1  0
 26 25  1  0
 27 25  2  0
M  END
$$$$
