LKK.pdb
     RDKit          3D

 27 26  0  0  1  0  0  0  0  0999 V2000
    8.8830  -12.4891   19.4747 C   0  0  0  0  0  0  0  0  0  0  0  0
    7.8648  -13.2356   20.2635 C   0  0  2  0  0  0  0  0  0  0  0  0
    7.1729  -12.2208   21.1870 C   0  0  0  0  0  0  0  0  0  0  0  0
    8.3634  -14.3226   21.1352 C   0  0  0  0  0  0  0  0  0  0  0  0
    9.2539  -15.3447   20.5134 C   0  0  2  0  0  0  0  0  0  0  0  0
    8.7627  -16.0039   19.3573 N   0  0  0  0  0  0  0  0  0  0  0  0
    9.7793  -16.3297   21.4869 C   0  0  0  0  0  0  0  0  0  0  0  0
    9.2012  -16.5428   22.5862 O   0  0  0  0  0  0  0  0  0  0  0  0
   10.9451  -17.0416   21.1820 N   0  0  0  0  0  0  0  0  0  0  0  0
   11.4661  -18.1496   21.9697 C   0  0  1  0  0  0  0  0  0  0  0  0
   12.4382  -18.9533   21.1467 C   0  0  0  0  0  0  0  0  0  0  0  0
   11.7842  -19.8543   20.1630 C   0  0  0  0  0  0  0  0  0  0  0  0
   12.8243  -20.5649   19.2922 C   0  0  0  0  0  0  0  0  0  0  0  0
   12.0798  -21.4585   18.3264 C   0  0  0  0  0  0  0  0  0  0  0  0
   12.9718  -22.0005   17.3198 N   0  0  0  0  0  0  0  0  0  0  0  0
   12.0528  -17.6239   23.2075 C   0  0  0  0  0  0  0  0  0  0  0  0
   12.8487  -16.6529   23.2522 O   0  0  0  0  0  0  0  0  0  0  0  0
   11.7518  -18.1977   24.5002 N   0  0  0  0  0  0  0  0  0  0  0  0
   12.3770  -17.7473   25.7245 C   0  0  1  0  0  0  0  0  0  0  0  0
   11.7415  -18.3961   26.9377 C   0  0  0  0  0  0  0  0  0  0  0  0
   12.4138  -18.0318   28.2235 C   0  0  0  0  0  0  0  0  0  0  0  0
   11.7890  -18.6764   29.4385 C   0  0  0  0  0  0  0  0  0  0  0  0
   12.5697  -18.3121   30.6921 C   0  0  0  0  0  0  0  0  0  0  0  0
   11.9167  -18.9297   31.8286 N   0  0  0  0  0  0  0  0  0  0  0  0
   13.7897  -18.2064   25.7096 C   0  0  0  0  0  0  0  0  0  0  0  0
   14.1006  -19.4428   25.1637 O   0  0  0  0  0  0  0  0  0  0  0  0
   14.7315  -17.5128   26.1774 O   0  0  0  0  0  0  0  0  0  0  0  0
  2  1  1  1
  3  2  1  0
  4  5  1  0
  4  2  1  0
  5  6  1  6
  7  5  1  0
  7  8  2  0
  9  7  1  0
 10  9  1  0
 10 11  1  6
 12 11  1  0
 12 13  1  0
 14 13  1  0
 15 14  1  0
 16 10  1  0
 17 16  2  0
 18 16  1  0
 19 18  1  0
 19 20  1  1
 20 21  1  0
 21 22  1  0
 22 23  1  0
 23 24  1  0
 25 19  1  0
 26 25  1  0
 27 25  2  0
M  END
$$$$
