LKK.pdb
     RDKit          3D

 27 26  0  0  1  0  0  0  0  0999 V2000
    3.7122  -21.8272   23.5717 C   0  0  0  0  0  0  0  0  0  0  0  0
    3.9903  -21.2229   22.2399 C   0  0  2  0  0  0  0  0  0  0  0  0
    3.9935  -22.3672   21.2143 C   0  0  0  0  0  0  0  0  0  0  0  0
    5.2825  -20.5184   22.0849 C   0  0  0  0  0  0  0  0  0  0  0  0
    5.5139  -19.3174   22.9384 C   0  0  2  0  0  0  0  0  0  0  0  0
    4.3710  -18.5592   23.3006 N   0  0  0  0  0  0  0  0  0  0  0  0
    6.5803  -18.4301   22.4191 C   0  0  0  0  0  0  0  0  0  0  0  0
    7.6747  -18.8916   21.9979 O   0  0  0  0  0  0  0  0  0  0  0  0
    6.3708  -17.0465   22.3947 N   0  0  0  0  0  0  0  0  0  0  0  0
    7.3694  -16.0670   21.9911 C   0  0  1  0  0  0  0  0  0  0  0  0
    6.6922  -14.8141   21.5012 C   0  0  0  0  0  0  0  0  0  0  0  0
    7.6336  -13.7999   20.9605 C   0  0  0  0  0  0  0  0  0  0  0  0
    7.5475  -13.7291   19.4332 C   0  0  0  0  0  0  0  0  0  0  0  0
    8.5237  -12.6726   18.9679 C   0  0  0  0  0  0  0  0  0  0  0  0
    8.4456  -12.4828   17.5324 N   0  0  0  0  0  0  0  0  0  0  0  0
    8.2871  -15.8283   23.1107 C   0  0  0  0  0  0  0  0  0  0  0  0
    7.9154  -15.5645   24.2815 O   0  0  0  0  0  0  0  0  0  0  0  0
    9.7229  -15.8801   22.9470 N   0  0  0  0  0  0  0  0  0  0  0  0
   10.6371  -15.9948   24.0622 C   0  0  1  0  0  0  0  0  0  0  0  0
   10.5203  -17.3491   24.7322 C   0  0  0  0  0  0  0  0  0  0  0  0
   11.4164  -17.5002   25.9206 C   0  0  0  0  0  0  0  0  0  0  0  0
   11.3530  -18.8684   26.5579 C   0  0  0  0  0  0  0  0  0  0  0  0
   12.2245  -18.9136   27.8038 C   0  0  0  0  0  0  0  0  0  0  0  0
   12.0202  -20.1922   28.4540 N   0  0  0  0  0  0  0  0  0  0  0  0
   12.0205  -15.9233   23.5255 C   0  0  0  0  0  0  0  0  0  0  0  0
   12.2188  -15.8550   22.1546 O   0  0  0  0  0  0  0  0  0  0  0  0
   13.0361  -15.9219   24.2708 O   0  0  0  0  0  0  0  0  0  0  0  0
  2  1  1  1
  3  2  1  0
  4  5  1  0
  4  2  1  0
  5  6  1  6
  7  5  1  0
  7  8  2  0
  9  7  1  0
 10  9  1  0
 10 11  1  1
 12 11  1  0
 12 13  1  0
 14 13  1  0
 15 14  1  0
 16 10  1  0
 17 16  2  0
 18 16  1  0
 19 18  1  0
 19 20  1  6
 20 21  1  0
 21 22  1  0
 22 23  1  0
 23 24  1  0
 25 19  1  0
 26 25  1  0
 27 25  2  0
M  END
$$$$
