GVR.pdb
     RDKit          3D

 23 22  0  0  1  0  0  0  0  0999 V2000
   25.7692  -20.7221   -9.2649 N   0  0  0  0  0  0  0  0  0  0  0  0
   26.3493  -21.1546  -10.5143 C   0  0  0  0  0  0  0  0  0  0  0  0
   25.8504  -20.2373  -11.5975 C   0  0  0  0  0  0  0  0  0  0  0  0
   24.8615  -19.4921  -11.4079 O   0  0  0  0  0  0  0  0  0  0  0  0
   26.8459  -17.3772  -15.3832 C   0  0  0  0  0  0  0  0  0  0  0  0
   27.2084  -18.5564  -14.5536 C   0  0  2  0  0  0  0  0  0  0  0  0
   28.0484  -19.5091  -15.3760 C   0  0  0  0  0  0  0  0  0  0  0  0
   26.0978  -19.2805  -13.8928 C   0  0  2  0  0  0  0  0  0  0  0  0
   26.4925  -20.1934  -12.8729 N   0  0  0  0  0  0  0  0  0  0  0  0
   25.0397  -19.7617  -14.8073 C   0  0  0  0  0  0  0  0  0  0  0  0
   25.2903  -20.7666  -15.5075 O   0  0  0  0  0  0  0  0  0  0  0  0
   17.9549  -21.9809  -11.9082 N   0  0  0  0  0  0  0  0  0  0  0  0
   18.7165  -22.7322  -12.8520 C   0  0  0  0  0  0  0  0  0  0  0  0
   18.2857  -23.8865  -13.2438 N   0  0  0  0  0  0  0  0  0  0  0  0
   19.9404  -22.2763  -13.3919 N   0  0  0  0  0  0  0  0  0  0  0  0
   20.4389  -20.9877  -13.0461 C   0  0  0  0  0  0  0  0  0  0  0  0
   21.7052  -20.6101  -13.7646 C   0  0  0  0  0  0  0  0  0  0  0  0
   21.4735  -20.0010  -15.1218 C   0  0  0  0  0  0  0  0  0  0  0  0
   22.7620  -19.6614  -15.8204 C   0  0  2  0  0  0  0  0  0  0  0  0
   23.7755  -19.1409  -14.9256 N   0  0  0  0  0  0  0  0  0  0  0  0
   22.4333  -18.6670  -16.9015 C   0  0  0  0  0  0  0  0  0  0  0  0
   21.7671  -19.0418  -18.0500 O   0  0  0  0  0  0  0  0  0  0  0  0
   22.7727  -17.4691  -16.7575 O   0  0  0  0  0  0  0  0  0  0  0  0
  2  3  1  0
  2  1  1  0
  3  9  1  0
  4  3  2  0
  6  5  1  6
  6  7  1  0
  6  8  1  0
  8 10  1  0
  8  9  1  6
 10 11  2  0
 10 20  1  0
 13 12  1  0
 14 13  2  0
 15 13  1  0
 16 15  1  0
 17 16  1  0
 19 18  1  1
 18 17  1  0
 19 21  1  0
 20 19  1  0
 21 23  2  0
 21 22  1  0
M  END
$$$$
