GVR.pdb
     RDKit          3D

 23 22  0  0  1  0  0  0  0  0999 V2000
   28.7028  -21.5206  -15.4867 N   0  0  0  0  0  0  0  0  0  0  0  0
   28.0470  -20.5886  -14.6002 C   0  0  0  0  0  0  0  0  0  0  0  0
   26.8482  -21.2790  -14.0088 C   0  0  0  0  0  0  0  0  0  0  0  0
   26.3432  -22.2832  -14.5617 O   0  0  0  0  0  0  0  0  0  0  0  0
   24.2773  -20.5601   -9.9996 C   0  0  0  0  0  0  0  0  0  0  0  0
   25.0528  -21.5492  -10.7937 C   0  0  2  0  0  0  0  0  0  0  0  0
   26.4667  -21.6230  -10.2599 C   0  0  0  0  0  0  0  0  0  0  0  0
   25.0611  -21.3725  -12.2644 C   0  0  2  0  0  0  0  0  0  0  0  0
   26.2534  -20.8055  -12.7993 N   0  0  0  0  0  0  0  0  0  0  0  0
   23.7969  -20.8588  -12.8349 C   0  0  0  0  0  0  0  0  0  0  0  0
   23.6370  -19.6194  -12.8697 O   0  0  0  0  0  0  0  0  0  0  0  0
   17.6050  -24.0775  -17.3538 N   0  0  0  0  0  0  0  0  0  0  0  0
   17.3617  -22.7178  -17.7106 C   0  0  0  0  0  0  0  0  0  0  0  0
   16.1794  -22.3615  -18.0941 N   0  0  0  0  0  0  0  0  0  0  0  0
   18.3612  -21.7196  -17.6688 N   0  0  0  0  0  0  0  0  0  0  0  0
   19.6746  -22.0408  -17.2210 C   0  0  0  0  0  0  0  0  0  0  0  0
   20.1079  -21.2750  -16.0012 C   0  0  0  0  0  0  0  0  0  0  0  0
   21.2375  -21.9247  -15.2471 C   0  0  0  0  0  0  0  0  0  0  0  0
   21.6179  -21.1507  -14.0144 C   0  0  2  0  0  0  0  0  0  0  0  0
   22.7733  -21.6970  -13.3322 N   0  0  0  0  0  0  0  0  0  0  0  0
   20.4145  -21.1341  -13.1103 C   0  0  0  0  0  0  0  0  0  0  0  0
   19.3587  -20.2731  -13.3282 O   0  0  0  0  0  0  0  0  0  0  0  0
   20.3684  -21.9199  -12.1351 O   0  0  0  0  0  0  0  0  0  0  0  0
  2  3  1  0
  2  1  1  0
  3  9  1  0
  4  3  2  0
  6  5  1  1
  6  7  1  0
  6  8  1  0
  8 10  1  0
  8  9  1  1
 10 11  2  0
 10 20  1  0
 13 12  1  0
 14 13  2  0
 15 13  1  0
 16 15  1  0
 17 16  1  0
 19 18  1  6
 18 17  1  0
 19 21  1  0
 20 19  1  0
 21 23  2  0
 21 22  1  0
M  END
$$$$
