GVR.pdb
     RDKit          3D

 23 22  0  0  1  0  0  0  0  0999 V2000
   18.2819  -16.0540  -16.9617 N   0  0  0  0  0  0  0  0  0  0  0  0
   18.0467  -14.7957  -17.6295 C   0  0  0  0  0  0  0  0  0  0  0  0
   18.1313  -13.7028  -16.5990 C   0  0  0  0  0  0  0  0  0  0  0  0
   18.0310  -13.9584  -15.3768 O   0  0  0  0  0  0  0  0  0  0  0  0
   19.2681   -9.0671  -15.3016 C   0  0  0  0  0  0  0  0  0  0  0  0
   19.2875  -10.2078  -16.2549 C   0  0  2  0  0  0  0  0  0  0  0  0
   19.2326   -9.6787  -17.6714 C   0  0  0  0  0  0  0  0  0  0  0  0
   18.2715  -11.2674  -16.0561 C   0  0  2  0  0  0  0  0  0  0  0  0
   18.3277  -12.3425  -16.9890 N   0  0  0  0  0  0  0  0  0  0  0  0
   16.9159  -10.7741  -15.7297 C   0  0  0  0  0  0  0  0  0  0  0  0
   16.1426  -10.5291  -16.6810 O   0  0  0  0  0  0  0  0  0  0  0  0
   10.4542  -12.4887   -9.9573 N   0  0  0  0  0  0  0  0  0  0  0  0
    9.9715  -11.5440  -10.9112 C   0  0  0  0  0  0  0  0  0  0  0  0
    8.7175  -11.2293  -10.9178 N   0  0  0  0  0  0  0  0  0  0  0  0
   10.8040  -10.9221  -11.8690 N   0  0  0  0  0  0  0  0  0  0  0  0
   12.1825  -11.2706  -11.9525 C   0  0  0  0  0  0  0  0  0  0  0  0
   12.9573  -10.4604  -12.9552 C   0  0  0  0  0  0  0  0  0  0  0  0
   14.3665  -10.9459  -13.1679 C   0  0  0  0  0  0  0  0  0  0  0  0
   15.1262  -10.0803  -14.1360 C   0  0  2  0  0  0  0  0  0  0  0  0
   16.4638  -10.5664  -14.4068 N   0  0  0  0  0  0  0  0  0  0  0  0
   15.1630   -8.6914  -13.5569 C   0  0  0  0  0  0  0  0  0  0  0  0
   14.2577   -7.7239  -13.9413 O   0  0  0  0  0  0  0  0  0  0  0  0
   16.0366   -8.4043  -12.7054 O   0  0  0  0  0  0  0  0  0  0  0  0
  2  3  1  0
  2  1  1  0
  3  9  1  0
  4  3  2  0
  6  5  1  1
  6  7  1  0
  6  8  1  0
  8 10  1  0
  8  9  1  6
 10 11  2  0
 10 20  1  0
 13 12  1  0
 14 13  2  0
 15 13  1  0
 16 15  1  0
 17 16  1  0
 19 18  1  1
 18 17  1  0
 19 21  1  0
 20 19  1  0
 21 23  2  0
 21 22  1  0
M  END
$$$$
