GVR.pdb
     RDKit          3D

 23 22  0  0  1  0  0  0  0  0999 V2000
   10.7351  -18.0111   -0.0795 N   0  0  0  0  0  0  0  0  0  0  0  0
   11.4304  -18.4414    1.1105 C   0  0  0  0  0  0  0  0  0  0  0  0
   12.5018  -19.4120    0.6941 C   0  0  0  0  0  0  0  0  0  0  0  0
   12.5474  -19.8615   -0.4743 O   0  0  0  0  0  0  0  0  0  0  0  0
   16.9718  -21.3879    1.6946 C   0  0  0  0  0  0  0  0  0  0  0  0
   15.7950  -20.5677    2.0852 C   0  0  2  0  0  0  0  0  0  0  0  0
   15.4537  -20.8384    3.5342 C   0  0  0  0  0  0  0  0  0  0  0  0
   14.5859  -20.6799    1.2367 C   0  0  2  0  0  0  0  0  0  0  0  0
   13.4961  -19.8476    1.6228 N   0  0  0  0  0  0  0  0  0  0  0  0
   14.2286  -22.0606    0.8449 C   0  0  0  0  0  0  0  0  0  0  0  0
   13.4410  -22.6887    1.5853 O   0  0  0  0  0  0  0  0  0  0  0  0
   16.1652  -24.9088   -7.0537 N   0  0  0  0  0  0  0  0  0  0  0  0
   17.2454  -24.8856   -6.1222 C   0  0  0  0  0  0  0  0  0  0  0  0
   18.4627  -24.9016   -6.5577 N   0  0  0  0  0  0  0  0  0  0  0  0
   17.0550  -24.8469   -4.7223 N   0  0  0  0  0  0  0  0  0  0  0  0
   15.7443  -24.7083   -4.1823 C   0  0  0  0  0  0  0  0  0  0  0  0
   15.7098  -24.6082   -2.6820 C   0  0  0  0  0  0  0  0  0  0  0  0
   14.3414  -24.3180   -2.1252 C   0  0  0  0  0  0  0  0  0  0  0  0
   14.3737  -24.0574   -0.6437 C   0  0  2  0  0  0  0  0  0  0  0  0
   14.7351  -22.6941   -0.3125 N   0  0  0  0  0  0  0  0  0  0  0  0
   15.3459  -25.0357   -0.0409 C   0  0  0  0  0  0  0  0  0  0  0  0
   15.0076  -26.3575    0.1642 O   0  0  0  0  0  0  0  0  0  0  0  0
   16.4906  -24.6424    0.2841 O   0  0  0  0  0  0  0  0  0  0  0  0
  2  3  1  0
  2  1  1  0
  3  9  1  0
  4  3  2  0
  6  5  1  6
  6  7  1  0
  6  8  1  0
  8 10  1  0
  8  9  1  1
 10 11  2  0
 10 20  1  0
 13 12  1  0
 14 13  2  0
 15 13  1  0
 16 15  1  0
 17 16  1  0
 19 18  1  6
 18 17  1  0
 19 21  1  0
 20 19  1  0
 21 23  2  0
 21 22  1  0
M  END
$$$$
