GVR.pdb
     RDKit          3D

 23 22  0  0  1  0  0  0  0  0999 V2000
   29.2654  -20.8266  -11.6317 N   0  0  0  0  0  0  0  0  0  0  0  0
   28.9353  -20.7147  -13.0328 C   0  0  0  0  0  0  0  0  0  0  0  0
   27.6400  -19.9575  -13.1434 C   0  0  0  0  0  0  0  0  0  0  0  0
   27.0067  -19.6083  -12.1206 O   0  0  0  0  0  0  0  0  0  0  0  0
   25.9355  -17.6881  -16.7912 C   0  0  0  0  0  0  0  0  0  0  0  0
   26.0029  -17.6097  -15.3081 C   0  0  2  0  0  0  0  0  0  0  0  0
   27.2590  -16.8707  -14.9015 C   0  0  0  0  0  0  0  0  0  0  0  0
   25.8846  -18.8838  -14.5615 C   0  0  2  0  0  0  0  0  0  0  0  0
   27.0976  -19.6175  -14.4205 N   0  0  0  0  0  0  0  0  0  0  0  0
   24.6862  -19.6862  -14.8892 C   0  0  0  0  0  0  0  0  0  0  0  0
   24.7847  -20.5280  -15.8082 O   0  0  0  0  0  0  0  0  0  0  0  0
   18.2935  -23.4556  -12.2145 N   0  0  0  0  0  0  0  0  0  0  0  0
   18.5935  -24.0720  -13.4656 C   0  0  0  0  0  0  0  0  0  0  0  0
   17.6974  -24.7990  -14.0489 N   0  0  0  0  0  0  0  0  0  0  0  0
   19.8408  -23.9304  -14.1149 N   0  0  0  0  0  0  0  0  0  0  0  0
   20.7789  -22.9609  -13.6582 C   0  0  0  0  0  0  0  0  0  0  0  0
   20.2715  -21.5462  -13.7157 C   0  0  0  0  0  0  0  0  0  0  0  0
   21.3264  -20.5116  -13.4267 C   0  0  0  0  0  0  0  0  0  0  0  0
   22.3108  -20.3722  -14.5560 C   0  0  2  0  0  0  0  0  0  0  0  0
   23.4496  -19.5419  -14.2202 N   0  0  0  0  0  0  0  0  0  0  0  0
   21.5605  -19.8098  -15.7334 C   0  0  0  0  0  0  0  0  0  0  0  0
   20.9781  -20.6298  -16.6779 O   0  0  0  0  0  0  0  0  0  0  0  0
   21.4618  -18.5670  -15.8617 O   0  0  0  0  0  0  0  0  0  0  0  0
  2  3  1  0
  2  1  1  0
  3  9  1  0
  4  3  2  0
  6  5  1  6
  6  7  1  0
  6  8  1  0
  8 10  1  0
  8  9  1  6
 10 11  2  0
 10 20  1  0
 13 12  1  0
 14 13  2  0
 15 13  1  0
 16 15  1  0
 17 16  1  0
 19 18  1  1
 18 17  1  0
 19 21  1  0
 20 19  1  0
 21 23  2  0
 21 22  1  0
M  END
$$$$
