GVR.pdb
     RDKit          3D

 23 22  0  0  1  0  0  0  0  0999 V2000
   23.8970  -10.9887  -15.0396 N   0  0  0  0  0  0  0  0  0  0  0  0
   22.6274  -10.8545  -15.7139 C   0  0  0  0  0  0  0  0  0  0  0  0
   21.9433   -9.6293  -15.1713 C   0  0  0  0  0  0  0  0  0  0  0  0
   22.3981   -9.0244  -14.1730 O   0  0  0  0  0  0  0  0  0  0  0  0
   19.1970   -5.6838  -16.0309 C   0  0  0  0  0  0  0  0  0  0  0  0
   20.1482   -6.7994  -16.2775 C   0  0  2  0  0  0  0  0  0  0  0  0
   19.9877   -7.2903  -17.6998 C   0  0  0  0  0  0  0  0  0  0  0  0
   20.1121   -7.9360  -15.3282 C   0  0  2  0  0  0  0  0  0  0  0  0
   20.7545   -9.1239  -15.7814 N   0  0  0  0  0  0  0  0  0  0  0  0
   18.8159   -8.1314  -14.6431 C   0  0  0  0  0  0  0  0  0  0  0  0
   17.9561   -8.8344  -15.2172 O   0  0  0  0  0  0  0  0  0  0  0  0
   15.0919   -6.0535   -6.6322 N   0  0  0  0  0  0  0  0  0  0  0  0
   14.0652   -6.2530   -7.6024 C   0  0  0  0  0  0  0  0  0  0  0  0
   12.8466   -5.9294   -7.3162 N   0  0  0  0  0  0  0  0  0  0  0  0
   14.3109   -6.7967   -8.8836 N   0  0  0  0  0  0  0  0  0  0  0  0
   15.6447   -6.9034   -9.3716 C   0  0  0  0  0  0  0  0  0  0  0  0
   15.7365   -7.3545  -10.8034 C   0  0  0  0  0  0  0  0  0  0  0  0
   17.1416   -7.3746  -11.3438 C   0  0  0  0  0  0  0  0  0  0  0  0
   17.1790   -7.6581  -12.8209 C   0  0  2  0  0  0  0  0  0  0  0  0
   18.5094   -7.5625  -13.3862 N   0  0  0  0  0  0  0  0  0  0  0  0
   16.2391   -6.6874  -13.4842 C   0  0  0  0  0  0  0  0  0  0  0  0
   14.9195   -7.0097  -13.7260 O   0  0  0  0  0  0  0  0  0  0  0  0
   16.6631   -5.5589  -13.8268 O   0  0  0  0  0  0  0  0  0  0  0  0
  2  3  1  0
  2  1  1  0
  3  9  1  0
  4  3  2  0
  6  5  1  1
  6  7  1  0
  6  8  1  0
  8 10  1  0
  8  9  1  6
 10 11  2  0
 10 20  1  0
 13 12  1  0
 14 13  2  0
 15 13  1  0
 16 15  1  0
 17 16  1  0
 19 18  1  1
 18 17  1  0
 19 21  1  0
 20 19  1  0
 21 23  2  0
 21 22  1  0
M  END
$$$$
