GVR.pdb
     RDKit          3D

 23 22  0  0  1  0  0  0  0  0999 V2000
   13.3879  -21.0757   -0.5468 N   0  0  0  0  0  0  0  0  0  0  0  0
   14.4782  -21.8554   -0.0104 C   0  0  0  0  0  0  0  0  0  0  0  0
   14.5740  -21.5635    1.4625 C   0  0  0  0  0  0  0  0  0  0  0  0
   13.7604  -20.7931    2.0224 O   0  0  0  0  0  0  0  0  0  0  0  0
   15.7891  -22.9787    5.9696 C   0  0  0  0  0  0  0  0  0  0  0  0
   15.7081  -23.1629    4.4966 C   0  0  2  0  0  0  0  0  0  0  0  0
   16.8108  -24.0961    4.0465 C   0  0  0  0  0  0  0  0  0  0  0  0
   15.6933  -21.9367    3.6655 C   0  0  2  0  0  0  0  0  0  0  0  0
   15.5981  -22.1582    2.2615 N   0  0  0  0  0  0  0  0  0  0  0  0
   16.6520  -20.8914    4.0845 C   0  0  0  0  0  0  0  0  0  0  0  0
   17.7749  -20.8796    3.5350 O   0  0  0  0  0  0  0  0  0  0  0  0
   16.7584  -12.2093    4.9811 N   0  0  0  0  0  0  0  0  0  0  0  0
   18.0883  -12.6940    5.1591 C   0  0  0  0  0  0  0  0  0  0  0  0
   19.0788  -11.8636    5.1270 N   0  0  0  0  0  0  0  0  0  0  0  0
   18.3891  -14.0585    5.3710 N   0  0  0  0  0  0  0  0  0  0  0  0
   17.3714  -15.0453    5.2324 C   0  0  0  0  0  0  0  0  0  0  0  0
   17.8520  -16.4532    5.4539 C   0  0  0  0  0  0  0  0  0  0  0  0
   16.7931  -17.4984    5.2238 C   0  0  0  0  0  0  0  0  0  0  0  0
   17.3189  -18.8940    5.4224 C   0  0  2  0  0  0  0  0  0  0  0  0
   16.3595  -19.9203    5.0690 N   0  0  0  0  0  0  0  0  0  0  0  0
   17.7307  -19.0133    6.8653 C   0  0  0  0  0  0  0  0  0  0  0  0
   18.9156  -18.4768    7.3255 O   0  0  0  0  0  0  0  0  0  0  0  0
   16.9812  -19.6145    7.6700 O   0  0  0  0  0  0  0  0  0  0  0  0
  2  3  1  0
  2  1  1  0
  3  9  1  0
  4  3  2  0
  6  5  1  1
  6  7  1  0
  6  8  1  0
  8 10  1  0
  8  9  1  6
 10 11  2  0
 10 20  1  0
 13 12  1  0
 14 13  2  0
 15 13  1  0
 16 15  1  0
 17 16  1  0
 19 18  1  1
 18 17  1  0
 19 21  1  0
 20 19  1  0
 21 23  2  0
 21 22  1  0
M  END
$$$$
