GVR.pdb
     RDKit          3D

 23 22  0  0  1  0  0  0  0  0999 V2000
   22.0300  -22.1703   -5.4090 N   0  0  0  0  0  0  0  0  0  0  0  0
   23.4442  -22.4484   -5.3231 C   0  0  0  0  0  0  0  0  0  0  0  0
   24.1474  -21.5835   -6.3334 C   0  0  0  0  0  0  0  0  0  0  0  0
   23.5996  -21.2830   -7.4192 O   0  0  0  0  0  0  0  0  0  0  0  0
   27.9289  -18.4798   -7.3185 C   0  0  0  0  0  0  0  0  0  0  0  0
   27.3281  -19.5386   -6.4651 C   0  0  2  0  0  0  0  0  0  0  0  0
   28.4037  -20.5184   -6.0496 C   0  0  0  0  0  0  0  0  0  0  0  0
   26.1538  -20.2571   -7.0121 C   0  0  2  0  0  0  0  0  0  0  0  0
   25.4611  -21.0824   -6.0802 N   0  0  0  0  0  0  0  0  0  0  0  0
   26.3535  -20.8394   -8.3569 C   0  0  0  0  0  0  0  0  0  0  0  0
   26.9035  -21.9598   -8.4285 O   0  0  0  0  0  0  0  0  0  0  0  0
   24.1435  -23.9077  -14.9693 N   0  0  0  0  0  0  0  0  0  0  0  0
   23.8224  -22.6256  -15.5063 C   0  0  0  0  0  0  0  0  0  0  0  0
   22.8001  -22.5000  -16.2879 N   0  0  0  0  0  0  0  0  0  0  0  0
   24.5753  -21.4627  -15.2270 N   0  0  0  0  0  0  0  0  0  0  0  0
   25.4983  -21.4515  -14.1423 C   0  0  0  0  0  0  0  0  0  0  0  0
   24.8548  -21.6071  -12.7917 C   0  0  0  0  0  0  0  0  0  0  0  0
   25.1278  -20.4609  -11.8546 C   0  0  0  0  0  0  0  0  0  0  0  0
   26.1942  -20.7922  -10.8462 C   0  0  2  0  0  0  0  0  0  0  0  0
   25.9587  -20.1912   -9.5492 N   0  0  0  0  0  0  0  0  0  0  0  0
   27.5081  -20.3367  -11.4222 C   0  0  0  0  0  0  0  0  0  0  0  0
   28.4123  -21.2317  -11.9560 O   0  0  0  0  0  0  0  0  0  0  0  0
   27.7903  -19.1156  -11.4173 O   0  0  0  0  0  0  0  0  0  0  0  0
  2  3  1  0
  2  1  1  0
  3  9  1  0
  4  3  2  0
  6  5  1  6
  6  7  1  0
  6  8  1  0
  8 10  1  0
  8  9  1  1
 10 11  2  0
 10 20  1  0
 13 12  1  0
 14 13  2  0
 15 13  1  0
 16 15  1  0
 17 16  1  0
 19 18  1  6
 18 17  1  0
 19 21  1  0
 20 19  1  0
 21 23  2  0
 21 22  1  0
M  END
$$$$
