GVR.pdb
     RDKit          3D

 23 22  0  0  1  0  0  0  0  0999 V2000
   31.2663  -21.9869  -11.2626 N   0  0  0  0  0  0  0  0  0  0  0  0
   30.6382  -20.8513  -10.6298 C   0  0  0  0  0  0  0  0  0  0  0  0
   29.2495  -21.2602  -10.2203 C   0  0  0  0  0  0  0  0  0  0  0  0
   28.7664  -22.3580  -10.5818 O   0  0  0  0  0  0  0  0  0  0  0  0
   26.3340  -19.1221   -7.2693 C   0  0  0  0  0  0  0  0  0  0  0  0
   26.7172  -20.5020   -7.6682 C   0  0  2  0  0  0  0  0  0  0  0  0
   27.8108  -21.0039   -6.7507 C   0  0  0  0  0  0  0  0  0  0  0  0
   27.0909  -20.7127   -9.0861 C   0  0  2  0  0  0  0  0  0  0  0  0
   28.4441  -20.4047   -9.4076 N   0  0  0  0  0  0  0  0  0  0  0  0
   26.0814  -20.2602  -10.0677 C   0  0  0  0  0  0  0  0  0  0  0  0
   26.0764  -19.0494  -10.3790 O   0  0  0  0  0  0  0  0  0  0  0  0
   26.3027  -24.9371  -15.2804 N   0  0  0  0  0  0  0  0  0  0  0  0
   27.0128  -23.7826  -15.7253 C   0  0  0  0  0  0  0  0  0  0  0  0
   28.1625  -23.9238  -16.2996 N   0  0  0  0  0  0  0  0  0  0  0  0
   26.5203  -22.4672  -15.5687 N   0  0  0  0  0  0  0  0  0  0  0  0
   25.2578  -22.2454  -14.9477 C   0  0  0  0  0  0  0  0  0  0  0  0
   25.3359  -21.4514  -13.6727 C   0  0  0  0  0  0  0  0  0  0  0  0
   24.0731  -21.4935  -12.8540 C   0  0  0  0  0  0  0  0  0  0  0  0
   24.1657  -20.6363  -11.6210 C   0  0  2  0  0  0  0  0  0  0  0  0
   25.1321  -21.1247  -10.6586 N   0  0  0  0  0  0  0  0  0  0  0  0
   22.7878  -20.5731  -11.0185 C   0  0  0  0  0  0  0  0  0  0  0  0
   22.5360  -21.0287   -9.7408 O   0  0  0  0  0  0  0  0  0  0  0  0
   21.8445  -20.0963  -11.6921 O   0  0  0  0  0  0  0  0  0  0  0  0
  2  3  1  0
  2  1  1  0
  3  9  1  0
  4  3  2  0
  6  5  1  6
  6  7  1  0
  6  8  1  0
  8 10  1  0
  8  9  1  6
 10 11  2  0
 10 20  1  0
 13 12  1  0
 14 13  2  0
 15 13  1  0
 16 15  1  0
 17 16  1  0
 19 18  1  6
 18 17  1  0
 19 21  1  0
 20 19  1  0
 21 23  2  0
 21 22  1  0
M  END
$$$$
