GVR.pdb
     RDKit          3D

 23 22  0  0  1  0  0  0  0  0999 V2000
   28.5607  -21.9087  -15.8109 N   0  0  0  0  0  0  0  0  0  0  0  0
   28.2901  -20.8770  -14.8378 C   0  0  0  0  0  0  0  0  0  0  0  0
   27.0518  -21.2707  -14.0794 C   0  0  0  0  0  0  0  0  0  0  0  0
   26.1981  -22.0334  -14.5879 O   0  0  0  0  0  0  0  0  0  0  0  0
   24.6114  -21.5523   -9.7578 C   0  0  0  0  0  0  0  0  0  0  0  0
   25.7998  -21.1508  -10.5558 C   0  0  2  0  0  0  0  0  0  0  0  0
   26.3314  -19.8332  -10.0356 C   0  0  0  0  0  0  0  0  0  0  0  0
   25.6358  -21.1007  -12.0272 C   0  0  2  0  0  0  0  0  0  0  0  0
   26.8170  -20.7828  -12.7573 N   0  0  0  0  0  0  0  0  0  0  0  0
   24.3987  -20.4363  -12.4915 C   0  0  0  0  0  0  0  0  0  0  0  0
   24.3890  -19.1866  -12.5266 O   0  0  0  0  0  0  0  0  0  0  0  0
   21.6445  -18.4341  -18.8778 N   0  0  0  0  0  0  0  0  0  0  0  0
   20.9194  -17.5585  -18.0160 C   0  0  0  0  0  0  0  0  0  0  0  0
   20.1883  -16.6226  -18.5274 N   0  0  0  0  0  0  0  0  0  0  0  0
   20.9578  -17.6582  -16.6068 N   0  0  0  0  0  0  0  0  0  0  0  0
   21.7108  -18.6940  -15.9834 C   0  0  0  0  0  0  0  0  0  0  0  0
   20.8773  -19.8503  -15.5034 C   0  0  0  0  0  0  0  0  0  0  0  0
   21.6655  -20.9022  -14.7693 C   0  0  0  0  0  0  0  0  0  0  0  0
   22.0725  -20.4508  -13.3930 C   0  0  2  0  0  0  0  0  0  0  0  0
   23.2409  -21.1430  -12.8883 N   0  0  0  0  0  0  0  0  0  0  0  0
   20.8880  -20.6595  -12.4879 C   0  0  0  0  0  0  0  0  0  0  0  0
   19.8382  -19.7650  -12.4537 O   0  0  0  0  0  0  0  0  0  0  0  0
   20.8526  -21.6689  -11.7459 O   0  0  0  0  0  0  0  0  0  0  0  0
  2  3  1  0
  2  1  1  0
  3  9  1  0
  4  3  2  0
  6  5  1  1
  6  7  1  0
  6  8  1  0
  8 10  1  0
  8  9  1  6
 10 11  2  0
 10 20  1  0
 13 12  1  0
 14 13  2  0
 15 13  1  0
 16 15  1  0
 17 16  1  0
 19 18  1  6
 18 17  1  0
 19 21  1  0
 20 19  1  0
 21 23  2  0
 21 22  1  0
M  END
$$$$
