GVR.pdb
     RDKit          3D

 23 22  0  0  1  0  0  0  0  0999 V2000
   31.7756  -22.5562   -9.7457 N   0  0  0  0  0  0  0  0  0  0  0  0
   31.3839  -21.2211   -9.3601 C   0  0  0  0  0  0  0  0  0  0  0  0
   30.0888  -21.3207   -8.6011 C   0  0  0  0  0  0  0  0  0  0  0  0
   29.2060  -22.1443   -8.9352 O   0  0  0  0  0  0  0  0  0  0  0  0
   27.4020  -20.2487   -4.5746 C   0  0  0  0  0  0  0  0  0  0  0  0
   28.6209  -20.0188   -5.3941 C   0  0  2  0  0  0  0  0  0  0  0  0
   29.0144  -18.5603   -5.3096 C   0  0  0  0  0  0  0  0  0  0  0  0
   28.5754  -20.4639   -6.8063 C   0  0  2  0  0  0  0  0  0  0  0  0
   29.8316  -20.4760   -7.4780 N   0  0  0  0  0  0  0  0  0  0  0  0
   27.4374  -19.9332   -7.5879 C   0  0  0  0  0  0  0  0  0  0  0  0
   27.4106  -18.7037   -7.8125 O   0  0  0  0  0  0  0  0  0  0  0  0
   26.0556  -22.7296  -15.2899 N   0  0  0  0  0  0  0  0  0  0  0  0
   25.2580  -23.2328  -14.2195 C   0  0  0  0  0  0  0  0  0  0  0  0
   24.7442  -24.4159  -14.3093 N   0  0  0  0  0  0  0  0  0  0  0  0
   24.9919  -22.4948  -13.0439 N   0  0  0  0  0  0  0  0  0  0  0  0
   25.3968  -21.1327  -12.9475 C   0  0  0  0  0  0  0  0  0  0  0  0
   25.0647  -20.4891  -11.6293 C   0  0  0  0  0  0  0  0  0  0  0  0
   25.8582  -21.0340  -10.4717 C   0  0  0  0  0  0  0  0  0  0  0  0
   25.5598  -20.3104   -9.1867 C   0  0  2  0  0  0  0  0  0  0  0  0
   26.3906  -20.7441   -8.0820 N   0  0  0  0  0  0  0  0  0  0  0  0
   24.1013  -20.5260   -8.8831 C   0  0  0  0  0  0  0  0  0  0  0  0
   23.1104  -19.9919   -9.6808 O   0  0  0  0  0  0  0  0  0  0  0  0
   23.7767  -21.2060   -7.8816 O   0  0  0  0  0  0  0  0  0  0  0  0
  2  3  1  0
  2  1  1  0
  3  9  1  0
  4  3  2  0
  6  5  1  6
  6  7  1  0
  6  8  1  0
  8 10  1  0
  8  9  1  6
 10 11  2  0
 10 20  1  0
 13 12  1  0
 14 13  2  0
 15 13  1  0
 16 15  1  0
 17 16  1  0
 19 18  1  6
 18 17  1  0
 19 21  1  0
 20 19  1  0
 21 23  2  0
 21 22  1  0
M  END
$$$$
