GVR.pdb
     RDKit          3D

 23 22  0  0  1  0  0  0  0  0999 V2000
   20.4886  -27.9751  -11.8411 N   0  0  0  0  0  0  0  0  0  0  0  0
   20.5871  -27.1040  -10.6939 C   0  0  0  0  0  0  0  0  0  0  0  0
   19.1906  -26.7919  -10.2295 C   0  0  0  0  0  0  0  0  0  0  0  0
   18.1919  -27.1980  -10.8674 O   0  0  0  0  0  0  0  0  0  0  0  0
   17.8956  -24.8491   -6.1750 C   0  0  0  0  0  0  0  0  0  0  0  0
   17.5747  -26.0239   -7.0276 C   0  0  2  0  0  0  0  0  0  0  0  0
   18.4127  -27.2053   -6.5898 C   0  0  0  0  0  0  0  0  0  0  0  0
   17.6676  -25.8357   -8.4941 C   0  0  2  0  0  0  0  0  0  0  0  0
   18.9672  -26.0219   -9.0471 N   0  0  0  0  0  0  0  0  0  0  0  0
   16.9077  -24.6814   -9.0210 C   0  0  0  0  0  0  0  0  0  0  0  0
   17.5039  -23.5862   -9.1110 O   0  0  0  0  0  0  0  0  0  0  0  0
   15.0559  -20.8727  -15.3469 N   0  0  0  0  0  0  0  0  0  0  0  0
   13.9636  -20.3475  -14.5944 C   0  0  0  0  0  0  0  0  0  0  0  0
   13.4442  -19.2127  -14.9325 N   0  0  0  0  0  0  0  0  0  0  0  0
   13.4079  -21.0109  -13.4771 N   0  0  0  0  0  0  0  0  0  0  0  0
   14.0895  -22.1145  -12.8887 C   0  0  0  0  0  0  0  0  0  0  0  0
   13.3305  -22.7749  -11.7707 C   0  0  0  0  0  0  0  0  0  0  0  0
   14.0294  -23.9751  -11.1896 C   0  0  0  0  0  0  0  0  0  0  0  0
   14.8703  -23.6199   -9.9936 C   0  0  2  0  0  0  0  0  0  0  0  0
   15.5537  -24.7604   -9.4183 N   0  0  0  0  0  0  0  0  0  0  0  0
   13.9593  -22.9714   -8.9860 C   0  0  0  0  0  0  0  0  0  0  0  0
   13.7231  -21.6120   -8.9949 O   0  0  0  0  0  0  0  0  0  0  0  0
   13.4012  -23.6809   -8.1167 O   0  0  0  0  0  0  0  0  0  0  0  0
  2  3  1  0
  2  1  1  0
  3  9  1  0
  4  3  2  0
  6  5  1  1
  6  7  1  0
  6  8  1  0
  8 10  1  0
  8  9  1  1
 10 11  2  0
 10 20  1  0
 13 12  1  0
 14 13  2  0
 15 13  1  0
 16 15  1  0
 17 16  1  0
 19 18  1  6
 18 17  1  0
 19 21  1  0
 20 19  1  0
 21 23  2  0
 21 22  1  0
M  END
$$$$
