GVR.pdb
     RDKit          3D

 23 22  0  0  1  0  0  0  0  0999 V2000
   25.9104  -22.7783  -11.9544 N   0  0  0  0  0  0  0  0  0  0  0  0
   25.3088  -22.6306  -13.2586 C   0  0  0  0  0  0  0  0  0  0  0  0
   24.0272  -21.8604  -13.0916 C   0  0  0  0  0  0  0  0  0  0  0  0
   23.5972  -21.5610  -11.9538 O   0  0  0  0  0  0  0  0  0  0  0  0
   20.9633  -18.7942  -15.3085 C   0  0  0  0  0  0  0  0  0  0  0  0
   22.0853  -19.3158  -14.4843 C   0  0  2  0  0  0  0  0  0  0  0  0
   23.3985  -18.9935  -15.1632 C   0  0  0  0  0  0  0  0  0  0  0  0
   22.0331  -20.7473  -14.1065 C   0  0  2  0  0  0  0  0  0  0  0  0
   23.2657  -21.4509  -14.2289 N   0  0  0  0  0  0  0  0  0  0  0  0
   20.8337  -21.4710  -14.5809 C   0  0  0  0  0  0  0  0  0  0  0  0
   20.8048  -21.8234  -15.7801 O   0  0  0  0  0  0  0  0  0  0  0  0
   19.1801  -23.6380   -8.1593 N   0  0  0  0  0  0  0  0  0  0  0  0
   18.9598  -24.9038   -8.7794 C   0  0  0  0  0  0  0  0  0  0  0  0
   19.0274  -25.9818   -8.0687 N   0  0  0  0  0  0  0  0  0  0  0  0
   18.6674  -25.0476  -10.1546 N   0  0  0  0  0  0  0  0  0  0  0  0
   18.9042  -23.9680  -11.0529 C   0  0  0  0  0  0  0  0  0  0  0  0
   18.5472  -24.2734  -12.4817 C   0  0  0  0  0  0  0  0  0  0  0  0
   17.7850  -23.1695  -13.1652 C   0  0  0  0  0  0  0  0  0  0  0  0
   18.5900  -22.5111  -14.2525 C   0  0  2  0  0  0  0  0  0  0  0  0
   19.7315  -21.7742  -13.7498 N   0  0  0  0  0  0  0  0  0  0  0  0
   17.6561  -21.6081  -15.0128 C   0  0  0  0  0  0  0  0  0  0  0  0
   16.7937  -22.1013  -15.9702 O   0  0  0  0  0  0  0  0  0  0  0  0
   17.6606  -20.3780  -14.7727 O   0  0  0  0  0  0  0  0  0  0  0  0
  2  3  1  0
  2  1  1  0
  3  9  1  0
  4  3  2  0
  6  5  1  6
  6  7  1  0
  6  8  1  0
  8 10  1  0
  8  9  1  6
 10 11  2  0
 10 20  1  0
 13 12  1  0
 14 13  2  0
 15 13  1  0
 16 15  1  0
 17 16  1  0
 19 18  1  1
 18 17  1  0
 19 21  1  0
 20 19  1  0
 21 23  2  0
 21 22  1  0
M  END
$$$$
