GFH.pdb
     RDKit          3D

 26 27  0  0  1  0  0  0  0  0999 V2000
    5.4140  -19.1195   20.6389 N   0  0  0  0  0  0  0  0  0  0  0  0
    5.1040  -18.7972   21.9959 C   0  0  0  0  0  0  0  0  0  0  0  0
    6.0210  -17.7327   22.5350 C   0  0  0  0  0  0  0  0  0  0  0  0
    7.0016  -17.3514   21.8482 O   0  0  0  0  0  0  0  0  0  0  0  0
    5.8150  -17.1368   23.8072 N   0  0  0  0  0  0  0  0  0  0  0  0
    6.7114  -16.2039   24.4425 C   0  0  1  0  0  0  0  0  0  0  0  0
    5.9973  -15.4249   25.5186 C   0  0  0  0  0  0  0  0  0  0  0  0
    6.6803  -14.1892   25.9054 C   0  0  0  0  0  0  0  0  0  0  0  0
    6.5825  -13.0148   25.1809 C   0  0  0  0  0  0  0  0  0  0  0  0
    7.2504  -11.8626   25.5869 C   0  0  0  0  0  0  0  0  0  0  0  0
    8.0264  -11.8776   26.7290 C   0  0  0  0  0  0  0  0  0  0  0  0
    8.1363  -13.0471   27.4687 C   0  0  0  0  0  0  0  0  0  0  0  0
    7.4570  -14.1795   27.0361 C   0  0  0  0  0  0  0  0  0  0  0  0
    7.9575  -16.8255   24.9179 C   0  0  0  0  0  0  0  0  0  0  0  0
    7.9300  -17.9578   25.4364 O   0  0  0  0  0  0  0  0  0  0  0  0
    9.2582  -16.2045   24.8278 N   0  0  0  0  0  0  0  0  0  0  0  0
   10.4639  -17.0088   24.8546 C   0  0  1  0  0  0  0  0  0  0  0  0
   10.8356  -17.5845   23.5425 C   0  0  0  0  0  0  0  0  0  0  0  0
   10.0655  -18.7408   23.0719 C   0  0  0  0  0  0  0  0  0  0  0  0
    9.2463  -19.6492   23.6998 C   0  0  0  0  0  0  0  0  0  0  0  0
    8.7740  -20.4866   22.7667 N   0  0  0  0  0  0  0  0  0  0  0  0
    9.2786  -20.1177   21.5883 C   0  0  0  0  0  0  0  0  0  0  0  0
   10.0743  -19.0526   21.7313 N   0  0  0  0  0  0  0  0  0  0  0  0
   11.5555  -16.2580   25.5070 C   0  0  0  0  0  0  0  0  0  0  0  0
   11.6416  -14.8902   25.3512 O   0  0  0  0  0  0  0  0  0  0  0  0
   12.4120  -16.8410   26.2043 O   0  0  0  0  0  0  0  0  0  0  0  0
  2  1  1  0
  3  2  1  0
  3  4  2  0
  5  3  1  0
  6  5  1  0
  6  7  1  1
  8  7  1  0
  8 13  1  0
  9  8  2  0
 10  9  1  0
 10 11  2  0
 11 12  1  0
 12 13  2  0
 14  6  1  0
 14 16  1  0
 15 14  2  0
 17 16  1  0
 17 24  1  0
 17 18  1  6
 19 18  1  0
 19 23  1  0
 20 21  1  0
 20 19  2  0
 21 22  1  0
 22 23  2  0
 24 26  2  0
 24 25  1  0
M  END
$$$$
