GFH.pdb
     RDKit          3D

 26 27  0  0  1  0  0  0  0  0999 V2000
    5.8063  -19.1217   20.8352 N   0  0  0  0  0  0  0  0  0  0  0  0
    5.7548  -19.0481   22.2612 C   0  0  0  0  0  0  0  0  0  0  0  0
    6.4797  -17.8352   22.7790 C   0  0  0  0  0  0  0  0  0  0  0  0
    7.3064  -17.2433   22.0409 O   0  0  0  0  0  0  0  0  0  0  0  0
    6.2599  -17.3298   24.0876 N   0  0  0  0  0  0  0  0  0  0  0  0
    7.0215  -16.2764   24.7100 C   0  0  1  0  0  0  0  0  0  0  0  0
    6.2370  -15.6396   25.8298 C   0  0  0  0  0  0  0  0  0  0  0  0
    6.8286  -14.3995   26.3348 C   0  0  0  0  0  0  0  0  0  0  0  0
    7.8179  -14.3746   27.3014 C   0  0  0  0  0  0  0  0  0  0  0  0
    8.3518  -13.1703   27.7520 C   0  0  0  0  0  0  0  0  0  0  0  0
    7.8962  -11.9737   27.2348 C   0  0  0  0  0  0  0  0  0  0  0  0
    6.9039  -11.9792   26.2641 C   0  0  0  0  0  0  0  0  0  0  0  0
    6.3923  -13.1982   25.8362 C   0  0  0  0  0  0  0  0  0  0  0  0
    8.3690  -16.6986   25.1237 C   0  0  0  0  0  0  0  0  0  0  0  0
    8.5211  -17.7573   25.7623 O   0  0  0  0  0  0  0  0  0  0  0  0
    9.5741  -15.9558   24.8379 N   0  0  0  0  0  0  0  0  0  0  0  0
   10.8773  -16.5632   25.0230 C   0  0  1  0  0  0  0  0  0  0  0  0
   11.8995  -16.1073   24.0543 C   0  0  0  0  0  0  0  0  0  0  0  0
   11.6795  -16.4308   22.6406 C   0  0  0  0  0  0  0  0  0  0  0  0
   10.8150  -17.2786   21.9890 C   0  0  0  0  0  0  0  0  0  0  0  0
   11.0310  -17.1498   20.6730 N   0  0  0  0  0  0  0  0  0  0  0  0
   11.9998  -16.2493   20.5004 C   0  0  0  0  0  0  0  0  0  0  0  0
   12.4242  -15.7846   21.6803 N   0  0  0  0  0  0  0  0  0  0  0  0
   11.2952  -16.4382   26.4339 C   0  0  0  0  0  0  0  0  0  0  0  0
   12.4829  -16.9997   26.8542 O   0  0  0  0  0  0  0  0  0  0  0  0
   10.5890  -15.8284   27.2639 O   0  0  0  0  0  0  0  0  0  0  0  0
  2  1  1  0
  3  2  1  0
  3  4  2  0
  5  3  1  0
  6  5  1  0
  6  7  1  1
  8  7  1  0
  8 13  1  0
  9  8  2  0
 10  9  1  0
 10 11  2  0
 11 12  1  0
 12 13  2  0
 14  6  1  0
 14 16  1  0
 15 14  2  0
 17 16  1  0
 17 24  1  0
 17 18  1  6
 19 18  1  0
 19 23  1  0
 20 21  1  0
 20 19  2  0
 21 22  1  0
 22 23  2  0
 24 26  2  0
 24 25  1  0
M  END
$$$$
