GFH.pdb
     RDKit          3D

 26 27  0  0  1  0  0  0  0  0999 V2000
    5.4045  -19.4310   21.0085 N   0  0  0  0  0  0  0  0  0  0  0  0
    5.6101  -19.3708   22.4212 C   0  0  0  0  0  0  0  0  0  0  0  0
    6.3376  -18.1155   22.8211 C   0  0  0  0  0  0  0  0  0  0  0  0
    7.0644  -17.5250   21.9835 O   0  0  0  0  0  0  0  0  0  0  0  0
    6.2305  -17.5684   24.1269 N   0  0  0  0  0  0  0  0  0  0  0  0
    6.9922  -16.4504   24.6242 C   0  0  1  0  0  0  0  0  0  0  0  0
    6.2960  -15.8093   25.7985 C   0  0  0  0  0  0  0  0  0  0  0  0
    6.7935  -14.4710   26.1217 C   0  0  0  0  0  0  0  0  0  0  0  0
    6.3944  -13.3337   25.4429 C   0  0  0  0  0  0  0  0  0  0  0  0
    6.8945  -12.0803   25.7853 C   0  0  0  0  0  0  0  0  0  0  0  0
    7.8040  -11.9552   26.8167 C   0  0  0  0  0  0  0  0  0  0  0  0
    8.2161  -13.0855   27.5092 C   0  0  0  0  0  0  0  0  0  0  0  0
    7.6978  -14.3215   27.1425 C   0  0  0  0  0  0  0  0  0  0  0  0
    8.3981  -16.7823   24.9043 C   0  0  0  0  0  0  0  0  0  0  0  0
    8.6805  -17.8305   25.5152 O   0  0  0  0  0  0  0  0  0  0  0  0
    9.5182  -15.9591   24.5130 N   0  0  0  0  0  0  0  0  0  0  0  0
   10.8737  -16.4651   24.6034 C   0  0  1  0  0  0  0  0  0  0  0  0
   11.8147  -15.8470   23.6424 C   0  0  0  0  0  0  0  0  0  0  0  0
   11.5390  -16.0351   22.2140 C   0  0  0  0  0  0  0  0  0  0  0  0
   10.6384  -16.8078   21.5194 C   0  0  0  0  0  0  0  0  0  0  0  0
   10.8091  -16.5600   20.2138 N   0  0  0  0  0  0  0  0  0  0  0  0
   11.7852  -15.6596   20.0893 C   0  0  0  0  0  0  0  0  0  0  0  0
   12.2589  -15.3118   21.2904 N   0  0  0  0  0  0  0  0  0  0  0  0
   11.3364  -16.4179   26.0050 C   0  0  0  0  0  0  0  0  0  0  0  0
   10.5361  -15.8552   26.9774 O   0  0  0  0  0  0  0  0  0  0  0  0
   12.4487  -16.8815   26.3327 O   0  0  0  0  0  0  0  0  0  0  0  0
  2  1  1  0
  3  2  1  0
  3  4  2  0
  5  3  1  0
  6  5  1  0
  6  7  1  1
  8  7  1  0
  8 13  1  0
  9  8  2  0
 10  9  1  0
 10 11  2  0
 11 12  1  0
 12 13  2  0
 14  6  1  0
 14 16  1  0
 15 14  2  0
 17 16  1  0
 17 24  1  0
 17 18  1  6
 19 18  1  0
 19 23  1  0
 20 21  1  0
 20 19  2  0
 21 22  1  0
 22 23  2  0
 24 26  2  0
 24 25  1  0
M  END
$$$$
