GFH.pdb
     RDKit          3D

 26 27  0  0  1  0  0  0  0  0999 V2000
    9.1111  -17.3607   19.2806 N   0  0  0  0  0  0  0  0  0  0  0  0
    7.9721  -16.9361   20.0316 C   0  0  0  0  0  0  0  0  0  0  0  0
    8.3761  -16.1967   21.2786 C   0  0  0  0  0  0  0  0  0  0  0  0
    9.5845  -16.1705   21.6213 O   0  0  0  0  0  0  0  0  0  0  0  0
    7.4288  -15.5196   22.0912 N   0  0  0  0  0  0  0  0  0  0  0  0
    7.7296  -14.8365   23.3241 C   0  0  1  0  0  0  0  0  0  0  0  0
    6.6945  -13.7790   23.6154 C   0  0  0  0  0  0  0  0  0  0  0  0
    6.9085  -13.0756   24.8813 C   0  0  0  0  0  0  0  0  0  0  0  0
    7.9325  -12.1659   25.0750 C   0  0  0  0  0  0  0  0  0  0  0  0
    8.0979  -11.5201   26.2973 C   0  0  0  0  0  0  0  0  0  0  0  0
    7.2336  -11.7819   27.3419 C   0  0  0  0  0  0  0  0  0  0  0  0
    6.2002  -12.6918   27.1660 C   0  0  0  0  0  0  0  0  0  0  0  0
    6.0628  -13.3192   25.9337 C   0  0  0  0  0  0  0  0  0  0  0  0
    7.9491  -15.7495   24.4570 C   0  0  0  0  0  0  0  0  0  0  0  0
    7.1188  -16.6442   24.7054 O   0  0  0  0  0  0  0  0  0  0  0  0
    9.0928  -15.6886   25.3366 N   0  0  0  0  0  0  0  0  0  0  0  0
    9.8284  -16.8909   25.6756 C   0  0  1  0  0  0  0  0  0  0  0  0
   10.2598  -17.6860   24.5040 C   0  0  0  0  0  0  0  0  0  0  0  0
   11.0297  -18.9069   24.7651 C   0  0  0  0  0  0  0  0  0  0  0  0
   11.4267  -19.5454   25.9163 C   0  0  0  0  0  0  0  0  0  0  0  0
   12.0900  -20.6538   25.5608 N   0  0  0  0  0  0  0  0  0  0  0  0
   12.1100  -20.7128   24.2284 C   0  0  0  0  0  0  0  0  0  0  0  0
   11.4715  -19.6621   23.7025 N   0  0  0  0  0  0  0  0  0  0  0  0
   10.9239  -16.5641   26.6104 C   0  0  0  0  0  0  0  0  0  0  0  0
   11.2189  -15.2470   26.8946 O   0  0  0  0  0  0  0  0  0  0  0  0
   11.5966  -17.4642   27.1552 O   0  0  0  0  0  0  0  0  0  0  0  0
  2  1  1  0
  3  2  1  0
  3  4  2  0
  5  3  1  0
  6  5  1  0
  6  7  1  1
  8  7  1  0
  8 13  1  0
  9  8  2  0
 10  9  1  0
 10 11  2  0
 11 12  1  0
 12 13  2  0
 14  6  1  0
 14 16  1  0
 15 14  2  0
 17 16  1  0
 17 24  1  0
 17 18  1  6
 19 18  1  0
 19 23  1  0
 20 21  1  0
 20 19  2  0
 21 22  1  0
 22 23  2  0
 24 26  2  0
 24 25  1  0
M  END
$$$$
