GFH.pdb
     RDKit          3D

 26 27  0  0  1  0  0  0  0  0999 V2000
    9.2567  -16.8277   18.7095 N   0  0  0  0  0  0  0  0  0  0  0  0
    8.1591  -16.7067   19.6162 C   0  0  0  0  0  0  0  0  0  0  0  0
    8.5560  -15.9764   20.8708 C   0  0  0  0  0  0  0  0  0  0  0  0
    9.7686  -15.9080   21.1926 O   0  0  0  0  0  0  0  0  0  0  0  0
    7.5975  -15.3546   21.7138 N   0  0  0  0  0  0  0  0  0  0  0  0
    7.8723  -14.7973   23.0142 C   0  0  1  0  0  0  0  0  0  0  0  0
    6.7528  -13.8866   23.4528 C   0  0  0  0  0  0  0  0  0  0  0  0
    6.9348  -13.3306   24.7947 C   0  0  0  0  0  0  0  0  0  0  0  0
    6.3274  -13.8598   25.9192 C   0  0  0  0  0  0  0  0  0  0  0  0
    6.5295  -13.2975   27.1767 C   0  0  0  0  0  0  0  0  0  0  0  0
    7.3469  -12.1936   27.3188 C   0  0  0  0  0  0  0  0  0  0  0  0
    7.9649  -11.6488   26.2015 C   0  0  0  0  0  0  0  0  0  0  0  0
    7.7422  -12.2341   24.9610 C   0  0  0  0  0  0  0  0  0  0  0  0
    8.2117  -15.8132   24.0232 C   0  0  0  0  0  0  0  0  0  0  0  0
    7.5044  -16.8314   24.1439 O   0  0  0  0  0  0  0  0  0  0  0  0
    9.3415  -15.7204   24.9179 N   0  0  0  0  0  0  0  0  0  0  0  0
    9.7546  -16.8642   25.7068 C   0  0  1  0  0  0  0  0  0  0  0  0
    9.9277  -18.1080   24.9231 C   0  0  0  0  0  0  0  0  0  0  0  0
   10.9857  -18.1221   23.9071 C   0  0  0  0  0  0  0  0  0  0  0  0
   11.5574  -17.1465   23.1249 C   0  0  0  0  0  0  0  0  0  0  0  0
   12.5145  -17.7239   22.3862 N   0  0  0  0  0  0  0  0  0  0  0  0
   12.5457  -19.0215   22.6932 C   0  0  0  0  0  0  0  0  0  0  0  0
   11.6256  -19.3066   23.6207 N   0  0  0  0  0  0  0  0  0  0  0  0
   10.9281  -16.5104   26.5305 C   0  0  0  0  0  0  0  0  0  0  0  0
   11.4758  -17.4419   27.3877 O   0  0  0  0  0  0  0  0  0  0  0  0
   11.4411  -15.3736   26.4672 O   0  0  0  0  0  0  0  0  0  0  0  0
  2  1  1  0
  3  2  1  0
  3  4  2  0
  5  3  1  0
  6  5  1  0
  6  7  1  1
  8  7  1  0
  8 13  1  0
  9  8  2  0
 10  9  1  0
 10 11  2  0
 11 12  1  0
 12 13  2  0
 14  6  1  0
 14 16  1  0
 15 14  2  0
 17 16  1  0
 17 24  1  0
 17 18  1  6
 19 18  1  0
 19 23  1  0
 20 21  1  0
 20 19  2  0
 21 22  1  0
 22 23  2  0
 24 26  2  0
 24 25  1  0
M  END
$$$$
