GFH.pdb
     RDKit          3D

 26 27  0  0  1  0  0  0  0  0999 V2000
    9.7607  -16.6319   19.1537 N   0  0  0  0  0  0  0  0  0  0  0  0
    8.7184  -16.8298   20.1108 C   0  0  0  0  0  0  0  0  0  0  0  0
    8.9470  -16.0134   21.3541 C   0  0  0  0  0  0  0  0  0  0  0  0
   10.1194  -15.7210   21.6986 O   0  0  0  0  0  0  0  0  0  0  0  0
    7.8721  -15.5563   22.1614 N   0  0  0  0  0  0  0  0  0  0  0  0
    8.0121  -14.8901   23.4317 C   0  0  1  0  0  0  0  0  0  0  0  0
    6.7119  -14.2464   23.8439 C   0  0  0  0  0  0  0  0  0  0  0  0
    6.7935  -13.5029   25.1023 C   0  0  0  0  0  0  0  0  0  0  0  0
    6.2043  -13.9388   26.2755 C   0  0  0  0  0  0  0  0  0  0  0  0
    6.3081  -13.1981   27.4498 C   0  0  0  0  0  0  0  0  0  0  0  0
    7.0073  -12.0074   27.4585 C   0  0  0  0  0  0  0  0  0  0  0  0
    7.6053  -11.5542   26.2905 C   0  0  0  0  0  0  0  0  0  0  0  0
    7.4827  -12.3173   25.1357 C   0  0  0  0  0  0  0  0  0  0  0  0
    8.5823  -15.7503   24.4806 C   0  0  0  0  0  0  0  0  0  0  0  0
    7.9898  -16.7915   24.8221 O   0  0  0  0  0  0  0  0  0  0  0  0
    9.8199  -15.4734   25.1714 N   0  0  0  0  0  0  0  0  0  0  0  0
   10.3658  -16.4254   26.1186 C   0  0  1  0  0  0  0  0  0  0  0  0
   11.7371  -16.8801   25.7960 C   0  0  0  0  0  0  0  0  0  0  0  0
   11.9170  -17.6565   24.5646 C   0  0  0  0  0  0  0  0  0  0  0  0
   11.2457  -18.7222   24.0131 C   0  0  0  0  0  0  0  0  0  0  0  0
   11.8307  -19.0124   22.8433 N   0  0  0  0  0  0  0  0  0  0  0  0
   12.8379  -18.1568   22.6626 C   0  0  0  0  0  0  0  0  0  0  0  0
   12.9248  -17.3098   23.6937 N   0  0  0  0  0  0  0  0  0  0  0  0
   10.2171  -15.9089   27.4941 C   0  0  0  0  0  0  0  0  0  0  0  0
   10.4851  -16.7274   28.5714 O   0  0  0  0  0  0  0  0  0  0  0  0
    9.8499  -14.7341   27.7054 O   0  0  0  0  0  0  0  0  0  0  0  0
  2  1  1  0
  3  2  1  0
  3  4  2  0
  5  3  1  0
  6  5  1  0
  6  7  1  1
  8  7  1  0
  8 13  1  0
  9  8  2  0
 10  9  1  0
 10 11  2  0
 11 12  1  0
 12 13  2  0
 14  6  1  0
 14 16  1  0
 15 14  2  0
 17 16  1  0
 17 24  1  0
 17 18  1  6
 19 18  1  0
 19 23  1  0
 20 21  1  0
 20 19  2  0
 21 22  1  0
 22 23  2  0
 24 26  2  0
 24 25  1  0
M  END
$$$$
