GFH.pdb
     RDKit          3D

 26 27  0  0  1  0  0  0  0  0999 V2000
    5.8982  -19.4695   22.0216 N   0  0  0  0  0  0  0  0  0  0  0  0
    5.8066  -18.2496   22.7600 C   0  0  0  0  0  0  0  0  0  0  0  0
    7.0370  -17.4016   22.5818 C   0  0  0  0  0  0  0  0  0  0  0  0
    8.0296  -17.8680   21.9686 O   0  0  0  0  0  0  0  0  0  0  0  0
    7.1171  -16.0774   23.0880 N   0  0  0  0  0  0  0  0  0  0  0  0
    8.2514  -15.2000   22.9435 C   0  0  1  0  0  0  0  0  0  0  0  0
    7.8482  -13.7641   23.1676 C   0  0  0  0  0  0  0  0  0  0  0  0
    7.4967  -13.4588   24.5555 C   0  0  0  0  0  0  0  0  0  0  0  0
    8.3287  -12.7538   25.4067 C   0  0  0  0  0  0  0  0  0  0  0  0
    7.9525  -12.4864   26.7202 C   0  0  0  0  0  0  0  0  0  0  0  0
    6.7324  -12.9257   27.1947 C   0  0  0  0  0  0  0  0  0  0  0  0
    5.8844  -13.6346   26.3549 C   0  0  0  0  0  0  0  0  0  0  0  0
    6.2899  -13.8847   25.0496 C   0  0  0  0  0  0  0  0  0  0  0  0
    9.4074  -15.6036   23.7595 C   0  0  0  0  0  0  0  0  0  0  0  0
   10.4746  -14.9654   23.6858 O   0  0  0  0  0  0  0  0  0  0  0  0
    9.4031  -16.7221   24.6730 N   0  0  0  0  0  0  0  0  0  0  0  0
   10.1091  -16.6459   25.9369 C   0  0  1  0  0  0  0  0  0  0  0  0
    9.9692  -15.3453   26.6298 C   0  0  0  0  0  0  0  0  0  0  0  0
   10.5962  -15.2144   27.9494 C   0  0  0  0  0  0  0  0  0  0  0  0
   10.1849  -14.6637   29.1402 C   0  0  0  0  0  0  0  0  0  0  0  0
   11.1611  -14.8554   30.0377 N   0  0  0  0  0  0  0  0  0  0  0  0
   12.1555  -15.5066   29.4324 C   0  0  0  0  0  0  0  0  0  0  0  0
   11.8495  -15.7457   28.1528 N   0  0  0  0  0  0  0  0  0  0  0  0
    9.7632  -17.8096   26.7777 C   0  0  0  0  0  0  0  0  0  0  0  0
    8.7406  -18.6546   26.3998 O   0  0  0  0  0  0  0  0  0  0  0  0
   10.3831  -18.0479   27.8353 O   0  0  0  0  0  0  0  0  0  0  0  0
  2  1  1  0
  3  2  1  0
  3  4  2  0
  5  3  1  0
  6  5  1  0
  6  7  1  1
  8  7  1  0
  8 13  1  0
  9  8  2  0
 10  9  1  0
 10 11  2  0
 11 12  1  0
 12 13  2  0
 14  6  1  0
 14 16  1  0
 15 14  2  0
 17 16  1  0
 17 24  1  0
 17 18  1  1
 19 18  1  0
 19 23  1  0
 20 21  1  0
 20 19  2  0
 21 22  1  0
 22 23  2  0
 24 26  2  0
 24 25  1  0
M  END
$$$$
