GFH.pdb
     RDKit          3D

 26 27  0  0  1  0  0  0  0  0999 V2000
    6.2722  -19.2617   20.7372 N   0  0  0  0  0  0  0  0  0  0  0  0
    6.0802  -19.1400   22.1479 C   0  0  0  0  0  0  0  0  0  0  0  0
    6.7785  -17.9260   22.6985 C   0  0  0  0  0  0  0  0  0  0  0  0
    7.7460  -17.4276   22.0706 O   0  0  0  0  0  0  0  0  0  0  0  0
    6.3781  -17.3164   23.9167 N   0  0  0  0  0  0  0  0  0  0  0  0
    7.1152  -16.2939   24.6155 C   0  0  1  0  0  0  0  0  0  0  0  0
    6.2483  -15.6240   25.6521 C   0  0  0  0  0  0  0  0  0  0  0  0
    6.7342  -14.3068   26.0668 C   0  0  0  0  0  0  0  0  0  0  0  0
    6.3942  -13.1368   25.4117 C   0  0  0  0  0  0  0  0  0  0  0  0
    6.8805  -11.9053   25.8421 C   0  0  0  0  0  0  0  0  0  0  0  0
    7.7164  -11.8353   26.9389 C   0  0  0  0  0  0  0  0  0  0  0  0
    8.0684  -12.9990   27.6089 C   0  0  0  0  0  0  0  0  0  0  0  0
    7.5659  -14.2119   27.1537 C   0  0  0  0  0  0  0  0  0  0  0  0
    8.3959  -16.7698   25.1619 C   0  0  0  0  0  0  0  0  0  0  0  0
    8.4930  -17.9327   25.5977 O   0  0  0  0  0  0  0  0  0  0  0  0
    9.5936  -15.9664   25.2361 N   0  0  0  0  0  0  0  0  0  0  0  0
   10.8617  -16.4860   24.7634 C   0  0  1  0  0  0  0  0  0  0  0  0
   11.3296  -15.8783   23.4974 C   0  0  0  0  0  0  0  0  0  0  0  0
   12.6423  -16.2968   22.9942 C   0  0  0  0  0  0  0  0  0  0  0  0
   13.6125  -17.1438   23.4757 C   0  0  0  0  0  0  0  0  0  0  0  0
   14.6067  -17.1784   22.5782 N   0  0  0  0  0  0  0  0  0  0  0  0
   14.2737  -16.3797   21.5632 C   0  0  0  0  0  0  0  0  0  0  0  0
   13.0782  -15.8207   21.7785 N   0  0  0  0  0  0  0  0  0  0  0  0
   11.8604  -16.4422   25.8505 C   0  0  0  0  0  0  0  0  0  0  0  0
   11.5050  -15.9664   27.0954 O   0  0  0  0  0  0  0  0  0  0  0  0
   13.0326  -16.8309   25.6651 O   0  0  0  0  0  0  0  0  0  0  0  0
  2  1  1  0
  3  2  1  0
  3  4  2  0
  5  3  1  0
  6  5  1  0
  6  7  1  1
  8  7  1  0
  8 13  1  0
  9  8  2  0
 10  9  1  0
 10 11  2  0
 11 12  1  0
 12 13  2  0
 14  6  1  0
 14 16  1  0
 15 14  2  0
 17 16  1  0
 17 24  1  0
 17 18  1  6
 19 18  1  0
 19 23  1  0
 20 21  1  0
 20 19  2  0
 21 22  1  0
 22 23  2  0
 24 26  2  0
 24 25  1  0
M  END
$$$$
