GFH.pdb
     RDKit          3D

 26 27  0  0  1  0  0  0  0  0999 V2000
    6.5768  -18.7502   20.4267 N   0  0  0  0  0  0  0  0  0  0  0  0
    6.2831  -18.7535   21.8250 C   0  0  0  0  0  0  0  0  0  0  0  0
    6.9493  -17.6045   22.5327 C   0  0  0  0  0  0  0  0  0  0  0  0
    7.8788  -16.9792   21.9638 O   0  0  0  0  0  0  0  0  0  0  0  0
    6.5600  -17.1971   23.8360 N   0  0  0  0  0  0  0  0  0  0  0  0
    7.2226  -16.1880   24.6234 C   0  0  1  0  0  0  0  0  0  0  0  0
    6.2627  -15.5572   25.6009 C   0  0  0  0  0  0  0  0  0  0  0  0
    6.7647  -14.3244   26.2100 C   0  0  0  0  0  0  0  0  0  0  0  0
    7.6486  -14.3145   27.2742 C   0  0  0  0  0  0  0  0  0  0  0  0
    8.0998  -13.1167   27.8219 C   0  0  0  0  0  0  0  0  0  0  0  0
    7.6669  -11.9116   27.3050 C   0  0  0  0  0  0  0  0  0  0  0  0
    6.7800  -11.9021   26.2372 C   0  0  0  0  0  0  0  0  0  0  0  0
    6.3489  -13.1150   25.7137 C   0  0  0  0  0  0  0  0  0  0  0  0
    8.4581  -16.6668   25.2633 C   0  0  0  0  0  0  0  0  0  0  0  0
    8.4536  -17.7348   25.9045 O   0  0  0  0  0  0  0  0  0  0  0  0
    9.7225  -15.9716   25.2049 N   0  0  0  0  0  0  0  0  0  0  0  0
   10.9430  -16.6209   25.6408 C   0  0  1  0  0  0  0  0  0  0  0  0
   12.1558  -16.1755   24.9183 C   0  0  0  0  0  0  0  0  0  0  0  0
   12.1547  -16.3043   23.4572 C   0  0  0  0  0  0  0  0  0  0  0  0
   11.3079  -16.9165   22.5634 C   0  0  0  0  0  0  0  0  0  0  0  0
   11.7803  -16.6878   21.3307 N   0  0  0  0  0  0  0  0  0  0  0  0
   12.8887  -15.9543   21.4435 C   0  0  0  0  0  0  0  0  0  0  0  0
   13.1528  -15.6976   22.7290 N   0  0  0  0  0  0  0  0  0  0  0  0
   11.0604  -16.5376   27.1106 C   0  0  0  0  0  0  0  0  0  0  0  0
   12.1351  -17.1183   27.7512 O   0  0  0  0  0  0  0  0  0  0  0  0
   10.1983  -15.9463   27.7937 O   0  0  0  0  0  0  0  0  0  0  0  0
  2  1  1  0
  3  2  1  0
  3  4  2  0
  5  3  1  0
  6  5  1  0
  6  7  1  1
  8  7  1  0
  8 13  1  0
  9  8  2  0
 10  9  1  0
 10 11  2  0
 11 12  1  0
 12 13  2  0
 14  6  1  0
 14 16  1  0
 15 14  2  0
 17 16  1  0
 17 24  1  0
 17 18  1  6
 19 18  1  0
 19 23  1  0
 20 21  1  0
 20 19  2  0
 21 22  1  0
 22 23  2  0
 24 26  2  0
 24 25  1  0
M  END
$$$$
