KND.pdb
     RDKit          3D

 26 25  0  0  1  0  0  0  0  0999 V2000
    7.6544  -15.9743   20.0117 N   0  0  0  0  0  0  0  0  0  0  0  0
    8.5169  -14.8173   20.0982 C   0  0  1  0  0  0  0  0  0  0  0  0
    8.0114  -13.6675   19.2617 C   0  0  0  0  0  0  0  0  0  0  0  0
    7.5608  -14.1234   17.9028 C   0  0  0  0  0  0  0  0  0  0  0  0
    8.5407  -13.7405   16.8216 C   0  0  0  0  0  0  0  0  0  0  0  0
    8.1682  -14.2479   15.4676 C   0  0  0  0  0  0  0  0  0  0  0  0
    9.1828  -13.8578   14.5143 N   0  0  0  0  0  0  0  0  0  0  0  0
    8.7355  -14.3923   21.5055 C   0  0  0  0  0  0  0  0  0  0  0  0
    9.5046  -13.4387   21.7279 O   0  0  0  0  0  0  0  0  0  0  0  0
    5.8857  -16.2301   26.1569 N   0  0  0  0  0  0  0  0  0  0  0  0
    6.4575  -15.8172   24.9118 C   0  0  0  0  0  0  0  0  0  0  0  0
    6.3546  -16.6136   23.9270 O   0  0  0  0  0  0  0  0  0  0  0  0
    7.1395  -14.5214   24.7714 C   0  0  0  0  0  0  0  0  0  0  0  0
    8.4282  -14.6965   24.0056 C   0  0  2  0  0  0  0  0  0  0  0  0
    8.1103  -15.0215   22.6011 N   0  0  0  0  0  0  0  0  0  0  0  0
    9.3411  -15.7113   24.5609 C   0  0  0  0  0  0  0  0  0  0  0  0
    9.6894  -15.5803   25.7821 O   0  0  0  0  0  0  0  0  0  0  0  0
    9.8758  -16.8226   23.8953 N   0  0  0  0  0  0  0  0  0  0  0  0
   11.0473  -17.5470   24.3460 C   0  0  1  0  0  0  0  0  0  0  0  0
   10.7010  -19.0216   24.5929 C   0  0  0  0  0  0  0  0  0  0  0  0
    9.7388  -19.2029   25.6771 C   0  0  0  0  0  0  0  0  0  0  0  0
   10.0060  -18.7925   26.8259 O   0  0  0  0  0  0  0  0  0  0  0  0
   12.1890  -17.4725   23.4104 C   0  0  0  0  0  0  0  0  0  0  0  0
   13.3428  -17.8990   23.6578 O   0  0  0  0  0  0  0  0  0  0  0  0
    8.5262  -19.8242   25.4626 O   0  0  0  0  0  0  0  0  0  0  0  0
   12.0270  -16.8967   22.1494 O   0  0  0  0  0  0  0  0  0  0  0  0
  2  3  1  0
  2  1  1  1
  4  3  1  0
  5  4  1  0
  6  5  1  0
  7  6  1  0
  8  9  2  0
  8  2  1  0
 10 11  1  0
 11 12  2  0
 11 13  1  0
 14 13  1  1
 14 15  1  0
 15  8  1  0
 16 17  2  0
 16 14  1  0
 18 16  1  0
 19 20  1  6
 19 18  1  0
 21 20  1  0
 21 22  2  0
 23 19  1  0
 24 23  2  0
 25 21  1  0
 26 23  1  0
M  END
$$$$
