KND.pdb
     RDKit          3D

 26 25  0  0  1  0  0  0  0  0999 V2000
    7.8882  -12.6180   17.4640 N   0  0  0  0  0  0  0  0  0  0  0  0
    7.6338  -13.8666   18.1467 C   0  0  1  0  0  0  0  0  0  0  0  0
    7.9835  -15.0619   17.2945 C   0  0  0  0  0  0  0  0  0  0  0  0
    8.1477  -14.6864   15.8490 C   0  0  0  0  0  0  0  0  0  0  0  0
    8.3658  -15.8929   14.9700 C   0  0  0  0  0  0  0  0  0  0  0  0
    8.6522  -15.5526   13.5447 C   0  0  0  0  0  0  0  0  0  0  0  0
    8.8285  -16.7716   12.7875 N   0  0  0  0  0  0  0  0  0  0  0  0
    8.3263  -13.9319   19.4601 C   0  0  0  0  0  0  0  0  0  0  0  0
    9.3862  -13.2953   19.6078 O   0  0  0  0  0  0  0  0  0  0  0  0
    8.0538  -13.5796   25.0415 N   0  0  0  0  0  0  0  0  0  0  0  0
    7.8768  -14.7760   24.2768 C   0  0  0  0  0  0  0  0  0  0  0  0
    8.2266  -15.8726   24.8150 O   0  0  0  0  0  0  0  0  0  0  0  0
    7.3119  -14.7438   22.9189 C   0  0  0  0  0  0  0  0  0  0  0  0
    8.4195  -14.6151   21.9019 C   0  0  2  0  0  0  0  0  0  0  0  0
    7.8362  -14.6833   20.5474 N   0  0  0  0  0  0  0  0  0  0  0  0
    9.4963  -15.6121   22.0350 C   0  0  0  0  0  0  0  0  0  0  0  0
    9.2786  -16.7765   21.5591 O   0  0  0  0  0  0  0  0  0  0  0  0
   10.7522  -15.4264   22.6284 N   0  0  0  0  0  0  0  0  0  0  0  0
   11.7382  -16.4780   22.7775 C   0  0  1  0  0  0  0  0  0  0  0  0
   13.1446  -15.9361   22.4886 C   0  0  0  0  0  0  0  0  0  0  0  0
   13.3318  -15.5667   21.0877 C   0  0  0  0  0  0  0  0  0  0  0  0
   13.8867  -14.4872   20.7940 O   0  0  0  0  0  0  0  0  0  0  0  0
   11.7335  -17.1128   24.1123 C   0  0  0  0  0  0  0  0  0  0  0  0
   12.5073  -18.0348   24.4663 O   0  0  0  0  0  0  0  0  0  0  0  0
   12.9058  -16.3900   20.0663 O   0  0  0  0  0  0  0  0  0  0  0  0
   10.8244  -16.6947   25.0853 O   0  0  0  0  0  0  0  0  0  0  0  0
  2  3  1  0
  2  1  1  6
  4  3  1  0
  5  4  1  0
  6  5  1  0
  7  6  1  0
  8  9  2  0
  8  2  1  0
 10 11  1  0
 11 12  2  0
 11 13  1  0
 14 13  1  1
 14 15  1  0
 15  8  1  0
 16 17  2  0
 16 14  1  0
 18 16  1  0
 19 20  1  1
 19 18  1  0
 21 20  1  0
 21 22  2  0
 23 19  1  0
 24 23  2  0
 25 21  1  0
 26 23  1  0
M  END
$$$$
