KND.pdb
     RDKit          3D

 26 25  0  0  1  0  0  0  0  0999 V2000
    7.2760  -15.3967   20.9776 N   0  0  0  0  0  0  0  0  0  0  0  0
    8.3144  -14.4020   21.1267 C   0  0  1  0  0  0  0  0  0  0  0  0
    7.8754  -13.0440   20.6365 C   0  0  0  0  0  0  0  0  0  0  0  0
    7.2668  -13.1171   19.2648 C   0  0  0  0  0  0  0  0  0  0  0  0
    8.2634  -13.5644   18.2244 C   0  0  0  0  0  0  0  0  0  0  0  0
    7.7164  -13.5744   16.8351 C   0  0  0  0  0  0  0  0  0  0  0  0
    8.7147  -14.1006   15.9312 N   0  0  0  0  0  0  0  0  0  0  0  0
    8.8119  -14.3247   22.5251 C   0  0  0  0  0  0  0  0  0  0  0  0
    9.7313  -13.5273   22.7880 O   0  0  0  0  0  0  0  0  0  0  0  0
    5.5390  -13.9298   25.4551 N   0  0  0  0  0  0  0  0  0  0  0  0
    6.8896  -13.9652   25.9265 C   0  0  0  0  0  0  0  0  0  0  0  0
    7.3891  -12.8783   26.3554 O   0  0  0  0  0  0  0  0  0  0  0  0
    7.6745  -15.2092   25.9174 C   0  0  0  0  0  0  0  0  0  0  0  0
    8.8222  -15.0884   24.9447 C   0  0  2  0  0  0  0  0  0  0  0  0
    8.2885  -15.1150   23.5686 N   0  0  0  0  0  0  0  0  0  0  0  0
    9.8686  -16.1147   25.0968 C   0  0  0  0  0  0  0  0  0  0  0  0
   10.3029  -16.3382   26.2763 O   0  0  0  0  0  0  0  0  0  0  0  0
   10.4478  -16.8888   24.0824 N   0  0  0  0  0  0  0  0  0  0  0  0
   11.5234  -17.8347   24.3029 C   0  0  1  0  0  0  0  0  0  0  0  0
   11.2428  -19.1458   23.5563 C   0  0  0  0  0  0  0  0  0  0  0  0
   10.0962  -19.8710   24.0981 C   0  0  0  0  0  0  0  0  0  0  0  0
    9.4780  -19.4176   25.0838 O   0  0  0  0  0  0  0  0  0  0  0  0
   12.8524  -17.3284   23.9004 C   0  0  0  0  0  0  0  0  0  0  0  0
   13.9346  -17.9327   24.0949 O   0  0  0  0  0  0  0  0  0  0  0  0
    9.6724  -21.0600   23.5420 O   0  0  0  0  0  0  0  0  0  0  0  0
   12.9684  -16.0964   23.2550 O   0  0  0  0  0  0  0  0  0  0  0  0
  2  3  1  0
  2  1  1  1
  4  3  1  0
  5  4  1  0
  6  5  1  0
  7  6  1  0
  8  9  2  0
  8  2  1  0
 10 11  1  0
 11 12  2  0
 11 13  1  0
 14 13  1  1
 14 15  1  0
 15  8  1  0
 16 17  2  0
 16 14  1  0
 18 16  1  0
 19 20  1  6
 19 18  1  0
 21 20  1  0
 21 22  2  0
 23 19  1  0
 24 23  2  0
 25 21  1  0
 26 23  1  0
M  END
$$$$
