KND.pdb
     RDKit          3D

 26 25  0  0  1  0  0  0  0  0999 V2000
    8.1966  -16.6601   19.2558 N   0  0  0  0  0  0  0  0  0  0  0  0
    9.2379  -15.6642   19.3737 C   0  0  1  0  0  0  0  0  0  0  0  0
    9.1598  -14.6279   18.2795 C   0  0  0  0  0  0  0  0  0  0  0  0
    8.3092  -15.0930   17.1316 C   0  0  0  0  0  0  0  0  0  0  0  0
    8.2786  -14.0905   16.0047 C   0  0  0  0  0  0  0  0  0  0  0  0
    7.4401  -14.5171   14.8453 C   0  0  0  0  0  0  0  0  0  0  0  0
    7.4720  -13.4903   13.8278 N   0  0  0  0  0  0  0  0  0  0  0  0
    9.2408  -15.0205   20.7133 C   0  0  0  0  0  0  0  0  0  0  0  0
   10.1079  -14.1619   20.9607 O   0  0  0  0  0  0  0  0  0  0  0  0
    8.0658  -13.3885   25.4434 N   0  0  0  0  0  0  0  0  0  0  0  0
    6.8929  -14.0053   24.9035 C   0  0  0  0  0  0  0  0  0  0  0  0
    5.8271  -13.9407   25.5923 O   0  0  0  0  0  0  0  0  0  0  0  0
    6.9143  -14.6891   23.6013 C   0  0  0  0  0  0  0  0  0  0  0  0
    8.3227  -14.7253   23.0602 C   0  0  2  0  0  0  0  0  0  0  0  0
    8.3044  -15.3391   21.7177 N   0  0  0  0  0  0  0  0  0  0  0  0
    9.2942  -15.4257   23.9187 C   0  0  0  0  0  0  0  0  0  0  0  0
    9.8513  -14.7484   24.8464 O   0  0  0  0  0  0  0  0  0  0  0  0
    9.6799  -16.7705   23.8367 N   0  0  0  0  0  0  0  0  0  0  0  0
   10.7411  -17.3560   24.6314 C   0  0  1  0  0  0  0  0  0  0  0  0
   10.4771  -18.8509   24.8561 C   0  0  0  0  0  0  0  0  0  0  0  0
   11.4916  -19.4848   25.6947 C   0  0  0  0  0  0  0  0  0  0  0  0
   12.4168  -18.8018   26.1815 O   0  0  0  0  0  0  0  0  0  0  0  0
   12.0863  -17.1896   24.0422 C   0  0  0  0  0  0  0  0  0  0  0  0
   13.1027  -16.8199   24.6782 O   0  0  0  0  0  0  0  0  0  0  0  0
   11.4541  -20.8365   25.9667 O   0  0  0  0  0  0  0  0  0  0  0  0
   12.2962  -17.4488   22.6869 O   0  0  0  0  0  0  0  0  0  0  0  0
  2  3  1  0
  2  1  1  1
  4  3  1  0
  5  4  1  0
  6  5  1  0
  7  6  1  0
  8  9  2  0
  8  2  1  0
 10 11  1  0
 11 12  2  0
 11 13  1  0
 14 13  1  1
 14 15  1  0
 15  8  1  0
 16 17  2  0
 16 14  1  0
 18 16  1  0
 19 20  1  6
 19 18  1  0
 21 20  1  0
 21 22  2  0
 23 19  1  0
 24 23  2  0
 25 21  1  0
 26 23  1  0
M  END
$$$$
