KND.pdb
     RDKit          3D

 26 25  0  0  1  0  0  0  0  0999 V2000
   10.3173  -14.0222   18.1484 N   0  0  0  0  0  0  0  0  0  0  0  0
    9.5362  -13.5726   19.2787 C   0  0  1  0  0  0  0  0  0  0  0  0
    8.0680  -13.4634   18.9478 C   0  0  0  0  0  0  0  0  0  0  0  0
    7.8482  -13.0464   17.5211 C   0  0  0  0  0  0  0  0  0  0  0  0
    7.3959  -14.1968   16.6564 C   0  0  0  0  0  0  0  0  0  0  0  0
    6.9931  -13.7886   15.2779 C   0  0  0  0  0  0  0  0  0  0  0  0
    6.5541  -14.9535   14.5425 N   0  0  0  0  0  0  0  0  0  0  0  0
    9.7471  -14.4293   20.4747 C   0  0  0  0  0  0  0  0  0  0  0  0
    9.1194  -14.1638   21.5168 O   0  0  0  0  0  0  0  0  0  0  0  0
   11.1199  -18.2078   23.6988 N   0  0  0  0  0  0  0  0  0  0  0  0
   10.1614  -18.5100   22.6802 C   0  0  0  0  0  0  0  0  0  0  0  0
    9.4922  -19.5830   22.8052 O   0  0  0  0  0  0  0  0  0  0  0  0
    9.9542  -17.6164   21.5303 C   0  0  0  0  0  0  0  0  0  0  0  0
   10.8283  -16.3932   21.6630 C   0  0  2  0  0  0  0  0  0  0  0  0
   10.6272  -15.5305   20.4821 N   0  0  0  0  0  0  0  0  0  0  0  0
   12.2635  -16.6782   21.8374 C   0  0  0  0  0  0  0  0  0  0  0  0
   12.6938  -16.8087   23.0322 O   0  0  0  0  0  0  0  0  0  0  0  0
   13.2244  -16.8292   20.8286 N   0  0  0  0  0  0  0  0  0  0  0  0
   14.4699  -16.0898   20.7827 C   0  0  1  0  0  0  0  0  0  0  0  0
   14.9354  -15.9175   19.3305 C   0  0  0  0  0  0  0  0  0  0  0  0
   15.3277  -17.1798   18.7087 C   0  0  0  0  0  0  0  0  0  0  0  0
   15.4404  -18.2113   19.4036 O   0  0  0  0  0  0  0  0  0  0  0  0
   14.3962  -14.7601   21.4238 C   0  0  0  0  0  0  0  0  0  0  0  0
   14.9366  -13.7207   20.9744 O   0  0  0  0  0  0  0  0  0  0  0  0
   15.5807  -17.2639   17.3553 O   0  0  0  0  0  0  0  0  0  0  0  0
   13.6880  -14.5932   22.6148 O   0  0  0  0  0  0  0  0  0  0  0  0
  2  3  1  0
  2  1  1  6
  4  3  1  0
  5  4  1  0
  6  5  1  0
  7  6  1  0
  8  9  2  0
  8  2  1  0
 10 11  1  0
 11 12  2  0
 11 13  1  0
 14 13  1  6
 14 15  1  0
 15  8  1  0
 16 17  2  0
 16 14  1  0
 18 16  1  0
 19 20  1  6
 19 18  1  0
 21 20  1  0
 21 22  2  0
 23 19  1  0
 24 23  2  0
 25 21  1  0
 26 23  1  0
M  END
$$$$
