KND.pdb
     RDKit          3D

 26 25  0  0  1  0  0  0  0  0999 V2000
    6.9560  -18.3969   18.7960 N   0  0  0  0  0  0  0  0  0  0  0  0
    8.3310  -18.1551   18.4208 C   0  0  1  0  0  0  0  0  0  0  0  0
    8.4698  -17.8177   16.9565 C   0  0  0  0  0  0  0  0  0  0  0  0
    7.4939  -18.5876   16.1127 C   0  0  0  0  0  0  0  0  0  0  0  0
    7.4834  -18.1131   14.6807 C   0  0  0  0  0  0  0  0  0  0  0  0
    8.3562  -18.9185   13.7757 C   0  0  0  0  0  0  0  0  0  0  0  0
    8.1709  -18.4748   12.4121 N   0  0  0  0  0  0  0  0  0  0  0  0
    8.9613  -17.1087   19.2674 C   0  0  0  0  0  0  0  0  0  0  0  0
   10.1822  -16.8975   19.1446 O   0  0  0  0  0  0  0  0  0  0  0  0
    6.7533  -12.6119   19.8740 N   0  0  0  0  0  0  0  0  0  0  0  0
    7.9186  -13.3713   20.2102 C   0  0  0  0  0  0  0  0  0  0  0  0
    8.9284  -13.2640   19.4463 O   0  0  0  0  0  0  0  0  0  0  0  0
    7.9520  -14.2444   21.3936 C   0  0  0  0  0  0  0  0  0  0  0  0
    8.8801  -15.4093   21.1497 C   0  0  2  0  0  0  0  0  0  0  0  0
    8.2376  -16.3437   20.2045 N   0  0  0  0  0  0  0  0  0  0  0  0
    9.2940  -16.1316   22.3656 C   0  0  0  0  0  0  0  0  0  0  0  0
    8.4125  -16.8454   22.9516 O   0  0  0  0  0  0  0  0  0  0  0  0
   10.5631  -16.1294   22.9599 N   0  0  0  0  0  0  0  0  0  0  0  0
   10.8876  -16.8519   24.1735 C   0  0  1  0  0  0  0  0  0  0  0  0
   12.4094  -16.9469   24.3475 C   0  0  0  0  0  0  0  0  0  0  0  0
   13.1014  -17.2786   23.1044 C   0  0  0  0  0  0  0  0  0  0  0  0
   12.7880  -18.3070   22.4690 O   0  0  0  0  0  0  0  0  0  0  0  0
   10.3014  -16.2586   25.3937 C   0  0  0  0  0  0  0  0  0  0  0  0
   10.3989  -16.7507   26.5437 O   0  0  0  0  0  0  0  0  0  0  0  0
   14.1057  -16.4747   22.6068 O   0  0  0  0  0  0  0  0  0  0  0  0
    9.5785  -15.0671   25.3175 O   0  0  0  0  0  0  0  0  0  0  0  0
  2  3  1  0
  2  1  1  1
  4  3  1  0
  5  4  1  0
  6  5  1  0
  7  6  1  0
  8  9  2  0
  8  2  1  0
 10 11  1  0
 11 12  2  0
 11 13  1  0
 14 13  1  1
 14 15  1  0
 15  8  1  0
 16 17  2  0
 16 14  1  0
 18 16  1  0
 19 20  1  1
 19 18  1  0
 21 20  1  0
 21 22  2  0
 23 19  1  0
 24 23  2  0
 25 21  1  0
 26 23  1  0
M  END
$$$$
