KND.pdb
     RDKit          3D

 26 25  0  0  1  0  0  0  0  0999 V2000
    8.7834  -16.3579   20.1728 N   0  0  0  0  0  0  0  0  0  0  0  0
    9.4490  -15.1286   20.5412 C   0  0  1  0  0  0  0  0  0  0  0  0
    8.5530  -13.9256   20.3766 C   0  0  0  0  0  0  0  0  0  0  0  0
    7.7335  -14.0093   19.1200 C   0  0  0  0  0  0  0  0  0  0  0  0
    8.2398  -13.0757   18.0486 C   0  0  0  0  0  0  0  0  0  0  0  0
    7.4495  -13.1307   16.7830 C   0  0  0  0  0  0  0  0  0  0  0  0
    7.6502  -14.4143   16.1486 N   0  0  0  0  0  0  0  0  0  0  0  0
   10.0054  -15.1901   21.9180 C   0  0  0  0  0  0  0  0  0  0  0  0
   10.6226  -14.2016   22.3566 O   0  0  0  0  0  0  0  0  0  0  0  0
   10.3875  -16.7686   27.2238 N   0  0  0  0  0  0  0  0  0  0  0  0
   10.5815  -17.6904   26.1467 C   0  0  0  0  0  0  0  0  0  0  0  0
   11.3770  -18.6617   26.3429 O   0  0  0  0  0  0  0  0  0  0  0  0
    9.8892  -17.5251   24.8594 C   0  0  0  0  0  0  0  0  0  0  0  0
   10.5797  -16.4670   24.0340 C   0  0  2  0  0  0  0  0  0  0  0  0
    9.8653  -16.3189   22.7506 N   0  0  0  0  0  0  0  0  0  0  0  0
   12.0106  -16.7165   23.7857 C   0  0  0  0  0  0  0  0  0  0  0  0
   12.7766  -16.7959   24.8038 O   0  0  0  0  0  0  0  0  0  0  0  0
   12.6368  -16.8836   22.5432 N   0  0  0  0  0  0  0  0  0  0  0  0
   14.0496  -17.1633   22.3822 C   0  0  1  0  0  0  0  0  0  0  0  0
   14.3416  -17.6298   20.9496 C   0  0  0  0  0  0  0  0  0  0  0  0
   15.7601  -17.8911   20.7178 C   0  0  0  0  0  0  0  0  0  0  0  0
   16.4819  -18.2991   21.6517 O   0  0  0  0  0  0  0  0  0  0  0  0
   14.9234  -16.0144   22.7001 C   0  0  0  0  0  0  0  0  0  0  0  0
   14.7531  -14.8483   22.2695 O   0  0  0  0  0  0  0  0  0  0  0  0
   16.3314  -17.6964   19.4776 O   0  0  0  0  0  0  0  0  0  0  0  0
   16.0300  -16.1835   23.5336 O   0  0  0  0  0  0  0  0  0  0  0  0
  2  3  1  0
  2  1  1  1
  4  3  1  0
  5  4  1  0
  6  5  1  0
  7  6  1  0
  8  9  2  0
  8  2  1  0
 10 11  1  0
 11 12  2  0
 11 13  1  0
 14 13  1  6
 14 15  1  0
 15  8  1  0
 16 17  2  0
 16 14  1  0
 18 16  1  0
 19 20  1  6
 19 18  1  0
 21 20  1  0
 21 22  2  0
 23 19  1  0
 24 23  2  0
 25 21  1  0
 26 23  1  0
M  END
$$$$
