KND.pdb
     RDKit          3D

 26 25  0  0  1  0  0  0  0  0999 V2000
    7.7857  -16.2141   19.3533 N   0  0  0  0  0  0  0  0  0  0  0  0
    8.7364  -15.2367   19.8339 C   0  0  1  0  0  0  0  0  0  0  0  0
    8.3026  -13.8239   19.5289 C   0  0  0  0  0  0  0  0  0  0  0  0
    7.5369  -13.7428   18.2387 C   0  0  0  0  0  0  0  0  0  0  0  0
    8.4184  -13.3503   17.0790 C   0  0  0  0  0  0  0  0  0  0  0  0
    7.6889  -13.2439   15.7805 C   0  0  0  0  0  0  0  0  0  0  0  0
    8.6139  -12.8461   14.7429 N   0  0  0  0  0  0  0  0  0  0  0  0
    9.0180  -15.4028   21.2837 C   0  0  0  0  0  0  0  0  0  0  0  0
    9.7441  -14.5649   21.8502 O   0  0  0  0  0  0  0  0  0  0  0  0
    5.6137  -17.5706   23.2394 N   0  0  0  0  0  0  0  0  0  0  0  0
    6.6619  -17.1836   24.1335 C   0  0  0  0  0  0  0  0  0  0  0  0
    6.3870  -16.3118   25.0161 O   0  0  0  0  0  0  0  0  0  0  0  0
    8.0079  -17.7694   24.0392 C   0  0  0  0  0  0  0  0  0  0  0  0
    8.9597  -16.7784   23.4149 C   0  0  2  0  0  0  0  0  0  0  0  0
    8.4989  -16.4681   22.0472 N   0  0  0  0  0  0  0  0  0  0  0  0
   10.3674  -17.2128   23.3835 C   0  0  0  0  0  0  0  0  0  0  0  0
   10.6321  -18.2970   22.7636 O   0  0  0  0  0  0  0  0  0  0  0  0
   11.4664  -16.5620   23.9599 N   0  0  0  0  0  0  0  0  0  0  0  0
   12.8309  -17.0403   23.8614 C   0  0  1  0  0  0  0  0  0  0  0  0
   13.7352  -15.9550   23.2620 C   0  0  0  0  0  0  0  0  0  0  0  0
   15.1255  -16.3847   23.1331 C   0  0  0  0  0  0  0  0  0  0  0  0
   15.4617  -17.5322   23.4933 O   0  0  0  0  0  0  0  0  0  0  0  0
   13.4012  -17.4811   25.1518 C   0  0  0  0  0  0  0  0  0  0  0  0
   12.9867  -17.1132   26.2775 O   0  0  0  0  0  0  0  0  0  0  0  0
   16.0902  -15.5448   22.6168 O   0  0  0  0  0  0  0  0  0  0  0  0
   14.4778  -18.3689   25.1769 O   0  0  0  0  0  0  0  0  0  0  0  0
  2  3  1  0
  2  1  1  1
  4  3  1  0
  5  4  1  0
  6  5  1  0
  7  6  1  0
  8  9  2  0
  8  2  1  0
 10 11  1  0
 11 12  2  0
 11 13  1  0
 14 13  1  6
 14 15  1  0
 15  8  1  0
 16 17  2  0
 16 14  1  0
 18 16  1  0
 19 20  1  1
 19 18  1  0
 21 20  1  0
 21 22  2  0
 23 19  1  0
 24 23  2  0
 25 21  1  0
 26 23  1  0
M  END
$$$$
