KND.pdb
     RDKit          3D

 26 25  0  0  1  0  0  0  0  0999 V2000
    7.9012  -16.4197   22.0165 N   0  0  0  0  0  0  0  0  0  0  0  0
    9.1373  -15.6994   21.8088 C   0  0  1  0  0  0  0  0  0  0  0  0
    8.9521  -14.4985   20.9140 C   0  0  0  0  0  0  0  0  0  0  0  0
    8.3350  -14.8754   19.5969 C   0  0  0  0  0  0  0  0  0  0  0  0
    8.2410  -13.6994   18.6567 C   0  0  0  0  0  0  0  0  0  0  0  0
    7.7072  -14.0516   17.3074 C   0  0  0  0  0  0  0  0  0  0  0  0
    7.6343  -12.8580   16.4948 N   0  0  0  0  0  0  0  0  0  0  0  0
    9.7746  -15.3092   23.0936 C   0  0  0  0  0  0  0  0  0  0  0  0
   10.9243  -14.8319   23.0684 O   0  0  0  0  0  0  0  0  0  0  0  0
   10.1011  -13.2233   28.1185 N   0  0  0  0  0  0  0  0  0  0  0  0
    9.4323  -14.4740   27.9285 C   0  0  0  0  0  0  0  0  0  0  0  0
    9.4255  -15.2889   28.9035 O   0  0  0  0  0  0  0  0  0  0  0  0
    8.7760  -14.8090   26.6554 C   0  0  0  0  0  0  0  0  0  0  0  0
    9.8105  -15.1995   25.6282 C   0  0  2  0  0  0  0  0  0  0  0  0
    9.1346  -15.4555   24.3410 N   0  0  0  0  0  0  0  0  0  0  0  0
   10.6388  -16.3604   25.9993 C   0  0  0  0  0  0  0  0  0  0  0  0
   11.8924  -16.2825   25.7709 O   0  0  0  0  0  0  0  0  0  0  0  0
   10.2042  -17.5561   26.5868 N   0  0  0  0  0  0  0  0  0  0  0  0
   11.0926  -18.6301   26.9839 C   0  0  1  0  0  0  0  0  0  0  0  0
   12.1710  -18.8538   25.9151 C   0  0  0  0  0  0  0  0  0  0  0  0
   11.6995  -19.6679   24.7975 C   0  0  0  0  0  0  0  0  0  0  0  0
   10.5146  -20.0609   24.7657 O   0  0  0  0  0  0  0  0  0  0  0  0
   11.7496  -18.4067   28.2889 C   0  0  0  0  0  0  0  0  0  0  0  0
   12.5199  -19.2237   28.8486 O   0  0  0  0  0  0  0  0  0  0  0  0
   12.5403  -20.0190   23.7619 O   0  0  0  0  0  0  0  0  0  0  0  0
   11.5319  -17.2200   28.9905 O   0  0  0  0  0  0  0  0  0  0  0  0
  2  3  1  0
  2  1  1  1
  4  3  1  0
  5  4  1  0
  6  5  1  0
  7  6  1  0
  8  9  2  0
  8  2  1  0
 10 11  1  0
 11 12  2  0
 11 13  1  0
 14 13  1  1
 14 15  1  0
 15  8  1  0
 16 17  2  0
 16 14  1  0
 18 16  1  0
 19 20  1  6
 19 18  1  0
 21 20  1  0
 21 22  2  0
 23 19  1  0
 24 23  2  0
 25 21  1  0
 26 23  1  0
M  END
$$$$
