KND.pdb
     RDKit          3D

 26 25  0  0  1  0  0  0  0  0999 V2000
    8.8111  -16.9301   19.8237 N   0  0  0  0  0  0  0  0  0  0  0  0
    9.3031  -15.7539   20.5050 C   0  0  1  0  0  0  0  0  0  0  0  0
    8.7726  -14.4798   19.8947 C   0  0  0  0  0  0  0  0  0  0  0  0
    8.4597  -14.6497   18.4350 C   0  0  0  0  0  0  0  0  0  0  0  0
    7.9462  -13.3752   17.8122 C   0  0  0  0  0  0  0  0  0  0  0  0
    7.7162  -13.4774   16.3404 C   0  0  0  0  0  0  0  0  0  0  0  0
    7.1135  -12.2525   15.8639 N   0  0  0  0  0  0  0  0  0  0  0  0
    9.0219  -15.7994   21.9637 C   0  0  0  0  0  0  0  0  0  0  0  0
    9.4112  -14.8551   22.6759 O   0  0  0  0  0  0  0  0  0  0  0  0
    6.8309  -18.9448   26.5356 N   0  0  0  0  0  0  0  0  0  0  0  0
    6.5908  -17.7740   25.7488 C   0  0  0  0  0  0  0  0  0  0  0  0
    6.1256  -16.7527   26.3450 O   0  0  0  0  0  0  0  0  0  0  0  0
    6.8702  -17.7476   24.3049 C   0  0  0  0  0  0  0  0  0  0  0  0
    8.1276  -16.9573   24.0366 C   0  0  2  0  0  0  0  0  0  0  0  0
    8.3333  -16.8651   22.5777 N   0  0  0  0  0  0  0  0  0  0  0  0
    9.3400  -17.4920   24.6812 C   0  0  0  0  0  0  0  0  0  0  0  0
    9.3848  -17.4668   25.9569 O   0  0  0  0  0  0  0  0  0  0  0  0
   10.4646  -18.0372   24.0472 N   0  0  0  0  0  0  0  0  0  0  0  0
   11.6628  -18.4550   24.7472 C   0  0  1  0  0  0  0  0  0  0  0  0
   11.9908  -19.9177   24.4181 C   0  0  0  0  0  0  0  0  0  0  0  0
   10.9323  -20.8396   24.8229 C   0  0  0  0  0  0  0  0  0  0  0  0
   10.4741  -20.7954   25.9838 O   0  0  0  0  0  0  0  0  0  0  0  0
   12.8459  -17.6199   24.4516 C   0  0  0  0  0  0  0  0  0  0  0  0
   12.8602  -16.6667   23.6359 O   0  0  0  0  0  0  0  0  0  0  0  0
   10.4185  -21.7708   23.9447 O   0  0  0  0  0  0  0  0  0  0  0  0
   14.0582  -17.8661   25.0979 O   0  0  0  0  0  0  0  0  0  0  0  0
  2  3  1  0
  2  1  1  6
  4  3  1  0
  5  4  1  0
  6  5  1  0
  7  6  1  0
  8  9  2  0
  8  2  1  0
 10 11  1  0
 11 12  2  0
 11 13  1  0
 14 13  1  6
 14 15  1  0
 15  8  1  0
 16 17  2  0
 16 14  1  0
 18 16  1  0
 19 20  1  6
 19 18  1  0
 21 20  1  0
 21 22  2  0
 23 19  1  0
 24 23  2  0
 25 21  1  0
 26 23  1  0
M  END
$$$$
