FQL.pdb
     RDKit          3D

 29 29  0  0  1  0  0  0  0  0999 V2000
    5.8326  -18.3062   23.6813 N   0  0  0  0  0  0  0  0  0  0  0  0
    6.8506  -17.2722   23.6645 C   0  0  1  0  0  0  0  0  0  0  0  0
    6.4099  -16.1027   24.5293 C   0  0  0  0  0  0  0  0  0  0  0  0
    6.8157  -14.8451   23.8559 C   0  0  0  0  0  0  0  0  0  0  0  0
    6.6939  -13.6415   24.4781 C   0  0  0  0  0  0  0  0  0  0  0  0
    7.0512  -12.4376   23.9101 C   0  0  0  0  0  0  0  0  0  0  0  0
    7.5652  -12.4482   22.6307 C   0  0  0  0  0  0  0  0  0  0  0  0
    7.7068  -13.6490   21.9603 C   0  0  0  0  0  0  0  0  0  0  0  0
    7.3341  -14.8453   22.5684 C   0  0  0  0  0  0  0  0  0  0  0  0
    8.1131  -17.8618   24.1507 C   0  0  0  0  0  0  0  0  0  0  0  0
    8.0707  -18.7390   25.0384 O   0  0  0  0  0  0  0  0  0  0  0  0
   13.1640  -17.7561   20.8405 N   0  0  0  0  0  0  0  0  0  0  0  0
   12.2212  -16.6972   21.0578 C   0  0  0  0  0  0  0  0  0  0  0  0
   12.2947  -15.7019   20.3312 O   0  0  0  0  0  0  0  0  0  0  0  0
   11.2251  -16.8539   22.1296 C   0  0  0  0  0  0  0  0  0  0  0  0
   11.6379  -17.8533   23.1443 C   0  0  0  0  0  0  0  0  0  0  0  0
   10.5931  -18.0368   24.2148 C   0  0  2  0  0  0  0  0  0  0  0  0
    9.3573  -17.4552   23.6342 N   0  0  0  0  0  0  0  0  0  0  0  0
   10.8903  -17.2529   25.4331 C   0  0  0  0  0  0  0  0  0  0  0  0
   11.8513  -16.4294   25.4070 O   0  0  0  0  0  0  0  0  0  0  0  0
    8.1038  -13.6226   27.6470 C   0  0  0  0  0  0  0  0  0  0  0  0
    9.5067  -14.2317   27.3044 C   0  0  1  0  0  0  0  0  0  0  0  0
   10.4433  -13.0954   27.4441 C   0  0  0  0  0  0  0  0  0  0  0  0
    9.6504  -15.4425   28.0826 C   0  0  0  0  0  0  0  0  0  0  0  0
   10.6279  -16.5003   27.7984 C   0  0  2  0  0  0  0  0  0  0  0  0
   10.1984  -17.3157   26.6565 N   0  0  0  0  0  0  0  0  0  0  0  0
   10.9095  -17.4389   28.8828 C   0  0  0  0  0  0  0  0  0  0  0  0
   10.4663  -18.6140   28.8200 O   0  0  0  0  0  0  0  0  0  0  0  0
   11.6495  -17.1588   30.0191 O   0  0  0  0  0  0  0  0  0  0  0  0
  2  1  1  1
  2  3  1  0
  3  4  1  0
  4  9  2  0
  5  4  1  0
  5  6  2  0
  6  7  1  0
  7  8  2  0
  9  8  1  0
 10 18  1  0
 10  2  1  0
 11 10  2  0
 13 12  1  0
 13 15  1  0
 14 13  2  0
 16 15  1  0
 17 16  1  6
 17 18  1  0
 19 26  1  0
 19 17  1  0
 20 19  2  0
 22 21  1  1
 22 24  1  0
 23 22  1  0
 25 24  1  1
 25 26  1  0
 25 27  1  0
 27 29  1  0
 28 27  2  0
M  END
$$$$
