FQL.pdb
     RDKit          3D

 29 29  0  0  1  0  0  0  0  0999 V2000
    5.6976  -17.5889   24.4890 N   0  0  0  0  0  0  0  0  0  0  0  0
    6.7273  -16.5664   24.4798 C   0  0  1  0  0  0  0  0  0  0  0  0
    6.7744  -15.8721   25.8309 C   0  0  0  0  0  0  0  0  0  0  0  0
    6.6466  -14.4111   25.6098 C   0  0  0  0  0  0  0  0  0  0  0  0
    7.5767  -13.7224   24.8947 C   0  0  0  0  0  0  0  0  0  0  0  0
    7.5181  -12.3668   24.6527 C   0  0  0  0  0  0  0  0  0  0  0  0
    6.4515  -11.6593   25.1655 C   0  0  0  0  0  0  0  0  0  0  0  0
    5.4824  -12.3184   25.8986 C   0  0  0  0  0  0  0  0  0  0  0  0
    5.5768  -13.6899   26.1217 C   0  0  0  0  0  0  0  0  0  0  0  0
    8.0141  -17.2125   24.1560 C   0  0  0  0  0  0  0  0  0  0  0  0
    8.2574  -18.3460   24.6198 O   0  0  0  0  0  0  0  0  0  0  0  0
   11.3604  -18.1175   19.7472 N   0  0  0  0  0  0  0  0  0  0  0  0
   12.4993  -17.8282   20.5696 C   0  0  0  0  0  0  0  0  0  0  0  0
   13.5880  -18.3042   20.2347 O   0  0  0  0  0  0  0  0  0  0  0  0
   12.3084  -16.9860   21.7612 C   0  0  0  0  0  0  0  0  0  0  0  0
   10.8905  -16.6005   21.9606 C   0  0  0  0  0  0  0  0  0  0  0  0
   10.3248  -17.1664   23.2376 C   0  0  2  0  0  0  0  0  0  0  0  0
    8.9664  -16.5770   23.3379 N   0  0  0  0  0  0  0  0  0  0  0  0
   11.0662  -16.7108   24.4334 C   0  0  0  0  0  0  0  0  0  0  0  0
   11.4590  -15.5084   24.4837 O   0  0  0  0  0  0  0  0  0  0  0  0
   12.0610  -14.1517   28.4171 C   0  0  0  0  0  0  0  0  0  0  0  0
   10.7280  -14.9721   28.3350 C   0  0  1  0  0  0  0  0  0  0  0  0
    9.6680  -13.9767   28.6062 C   0  0  0  0  0  0  0  0  0  0  0  0
   10.7675  -15.7327   27.1054 C   0  0  0  0  0  0  0  0  0  0  0  0
   11.6916  -16.8436   26.8461 C   0  0  2  0  0  0  0  0  0  0  0  0
   11.3892  -17.4862   25.5620 N   0  0  0  0  0  0  0  0  0  0  0  0
   11.7199  -17.9160   27.8386 C   0  0  0  0  0  0  0  0  0  0  0  0
   12.7855  -18.1620   28.4592 O   0  0  0  0  0  0  0  0  0  0  0  0
   10.6483  -18.7214   28.1853 O   0  0  0  0  0  0  0  0  0  0  0  0
  2  1  1  1
  2  3  1  0
  3  4  1  0
  4  9  2  0
  5  4  1  0
  5  6  2  0
  6  7  1  0
  7  8  2  0
  9  8  1  0
 10 18  1  0
 10  2  1  0
 11 10  2  0
 13 12  1  0
 13 15  1  0
 14 13  2  0
 16 15  1  0
 17 16  1  6
 17 18  1  0
 19 26  1  0
 19 17  1  0
 20 19  2  0
 22 21  1  6
 22 24  1  0
 23 22  1  0
 25 24  1  1
 25 26  1  0
 25 27  1  0
 27 29  1  0
 28 27  2  0
M  END
$$$$
