FQL.pdb
     RDKit          3D

 29 29  0  0  1  0  0  0  0  0999 V2000
    8.6555  -16.9213   20.4323 N   0  0  0  0  0  0  0  0  0  0  0  0
    8.5174  -15.8830   21.4365 C   0  0  1  0  0  0  0  0  0  0  0  0
    7.1698  -15.1968   21.2847 C   0  0  0  0  0  0  0  0  0  0  0  0
    7.3328  -14.0466   20.3626 C   0  0  0  0  0  0  0  0  0  0  0  0
    6.9288  -14.1203   19.0657 C   0  0  0  0  0  0  0  0  0  0  0  0
    7.0510  -13.0905   18.1578 C   0  0  0  0  0  0  0  0  0  0  0  0
    7.6179  -11.9088   18.5860 C   0  0  0  0  0  0  0  0  0  0  0  0
    8.0428  -11.7891   19.8961 C   0  0  0  0  0  0  0  0  0  0  0  0
    7.9021  -12.8529   20.7839 C   0  0  0  0  0  0  0  0  0  0  0  0
    8.6624  -16.5068   22.7662 C   0  0  0  0  0  0  0  0  0  0  0  0
    7.7132  -16.4394   23.5746 O   0  0  0  0  0  0  0  0  0  0  0  0
   11.3097  -21.3102   24.5637 N   0  0  0  0  0  0  0  0  0  0  0  0
   11.5564  -20.6242   25.7989 C   0  0  0  0  0  0  0  0  0  0  0  0
   11.7929  -21.3067   26.8000 O   0  0  0  0  0  0  0  0  0  0  0  0
   11.5129  -19.1532   25.8051 C   0  0  0  0  0  0  0  0  0  0  0  0
   11.1894  -18.5909   24.4718 C   0  0  0  0  0  0  0  0  0  0  0  0
    9.9393  -17.7497   24.5010 C   0  0  2  0  0  0  0  0  0  0  0  0
    9.8452  -17.1729   23.1367 N   0  0  0  0  0  0  0  0  0  0  0  0
   10.0515  -16.6050   25.4307 C   0  0  0  0  0  0  0  0  0  0  0  0
   11.0126  -15.7943   25.2838 O   0  0  0  0  0  0  0  0  0  0  0  0
    6.3228  -13.1310   26.9796 C   0  0  0  0  0  0  0  0  0  0  0  0
    7.7452  -13.5781   26.4963 C   0  0  1  0  0  0  0  0  0  0  0  0
    8.3474  -12.3463   25.9413 C   0  0  0  0  0  0  0  0  0  0  0  0
    8.3586  -14.3071   27.5846 C   0  0  0  0  0  0  0  0  0  0  0  0
    9.4967  -15.2220   27.4331 C   0  0  2  0  0  0  0  0  0  0  0  0
    9.1780  -16.3009   26.4909 N   0  0  0  0  0  0  0  0  0  0  0  0
    9.9770  -15.8754   28.6490 C   0  0  0  0  0  0  0  0  0  0  0  0
    9.7827  -17.1069   28.8123 O   0  0  0  0  0  0  0  0  0  0  0  0
   10.6572  -15.2539   29.6827 O   0  0  0  0  0  0  0  0  0  0  0  0
  2  1  1  6
  2  3  1  0
  3  4  1  0
  4  9  2  0
  5  4  1  0
  5  6  2  0
  6  7  1  0
  7  8  2  0
  9  8  1  0
 10 18  1  0
 10  2  1  0
 11 10  2  0
 13 12  1  0
 13 15  1  0
 14 13  2  0
 16 15  1  0
 17 16  1  6
 17 18  1  0
 19 26  1  0
 19 17  1  0
 20 19  2  0
 22 21  1  1
 22 24  1  0
 23 22  1  0
 25 24  1  1
 25 26  1  0
 25 27  1  0
 27 29  1  0
 28 27  2  0
M  END
$$$$
