FQL.pdb
     RDKit          3D

 29 29  0  0  1  0  0  0  0  0999 V2000
    7.0043  -17.7387   20.4698 N   0  0  0  0  0  0  0  0  0  0  0  0
    7.6203  -16.6019   21.1287 C   0  0  1  0  0  0  0  0  0  0  0  0
    6.6005  -15.4867   21.2902 C   0  0  0  0  0  0  0  0  0  0  0  0
    7.2385  -14.2090   20.8899 C   0  0  0  0  0  0  0  0  0  0  0  0
    7.6363  -13.2984   21.8190 C   0  0  0  0  0  0  0  0  0  0  0  0
    8.2340  -12.0942   21.5153 C   0  0  0  0  0  0  0  0  0  0  0  0
    8.4443  -11.7881   20.1875 C   0  0  0  0  0  0  0  0  0  0  0  0
    8.0558  -12.6843   19.2091 C   0  0  0  0  0  0  0  0  0  0  0  0
    7.4545  -13.8917   19.5561 C   0  0  0  0  0  0  0  0  0  0  0  0
    8.1422  -17.0536   22.4331 C   0  0  0  0  0  0  0  0  0  0  0  0
    7.3410  -17.4692   23.2961 O   0  0  0  0  0  0  0  0  0  0  0  0
   13.0633  -20.7053   24.5374 N   0  0  0  0  0  0  0  0  0  0  0  0
   11.9878  -19.9634   25.1292 C   0  0  0  0  0  0  0  0  0  0  0  0
   11.0831  -20.5988   25.6785 O   0  0  0  0  0  0  0  0  0  0  0  0
   12.0211  -18.4944   25.0483 C   0  0  0  0  0  0  0  0  0  0  0  0
   11.3903  -17.9814   23.8083 C   0  0  0  0  0  0  0  0  0  0  0  0
    9.9803  -17.5055   24.0463 C   0  0  2  0  0  0  0  0  0  0  0  0
    9.5195  -17.0248   22.7199 N   0  0  0  0  0  0  0  0  0  0  0  0
    9.9243  -16.3399   24.9547 C   0  0  0  0  0  0  0  0  0  0  0  0
   10.5020  -15.2688   24.6058 O   0  0  0  0  0  0  0  0  0  0  0  0
    5.8048  -13.8364   26.6660 C   0  0  0  0  0  0  0  0  0  0  0  0
    7.3141  -13.7764   26.2477 C   0  0  1  0  0  0  0  0  0  0  0  0
    7.5522  -12.3496   25.9390 C   0  0  0  0  0  0  0  0  0  0  0  0
    8.0691  -14.4763   27.2637 C   0  0  0  0  0  0  0  0  0  0  0  0
    9.3860  -15.0874   27.0455 C   0  0  2  0  0  0  0  0  0  0  0  0
    9.2742  -16.2823   26.2010 N   0  0  0  0  0  0  0  0  0  0  0  0
   10.1201  -15.5027   28.2391 C   0  0  0  0  0  0  0  0  0  0  0  0
   10.4430  -14.6459   29.1009 O   0  0  0  0  0  0  0  0  0  0  0  0
   10.5102  -16.7979   28.5352 O   0  0  0  0  0  0  0  0  0  0  0  0
  2  1  1  1
  2  3  1  0
  3  4  1  0
  4  9  2  0
  5  4  1  0
  5  6  2  0
  6  7  1  0
  7  8  2  0
  9  8  1  0
 10 18  1  0
 10  2  1  0
 11 10  2  0
 13 12  1  0
 13 15  1  0
 14 13  2  0
 16 15  1  0
 17 16  1  6
 17 18  1  0
 19 26  1  0
 19 17  1  0
 20 19  2  0
 22 21  1  1
 22 24  1  0
 23 22  1  0
 25 24  1  1
 25 26  1  0
 25 27  1  0
 27 29  1  0
 28 27  2  0
M  END
$$$$
