FQL.pdb
     RDKit          3D

 29 29  0  0  1  0  0  0  0  0999 V2000
    6.6959  -16.9536   21.1413 N   0  0  0  0  0  0  0  0  0  0  0  0
    8.0009  -16.4674   21.5490 C   0  0  1  0  0  0  0  0  0  0  0  0
    7.8965  -15.0136   21.9797 C   0  0  0  0  0  0  0  0  0  0  0  0
    7.9389  -14.1627   20.7657 C   0  0  0  0  0  0  0  0  0  0  0  0
    7.0162  -13.1849   20.5578 C   0  0  0  0  0  0  0  0  0  0  0  0
    6.9984  -12.3606   19.4533 C   0  0  0  0  0  0  0  0  0  0  0  0
    7.9750  -12.5338   18.4956 C   0  0  0  0  0  0  0  0  0  0  0  0
    8.9333  -13.5157   18.6656 C   0  0  0  0  0  0  0  0  0  0  0  0
    8.9179  -14.3291   19.7959 C   0  0  0  0  0  0  0  0  0  0  0  0
    8.4892  -17.3251   22.6462 C   0  0  0  0  0  0  0  0  0  0  0  0
    7.7050  -17.6387   23.5659 O   0  0  0  0  0  0  0  0  0  0  0  0
   10.7674  -22.0234   23.8762 N   0  0  0  0  0  0  0  0  0  0  0  0
   11.4302  -21.2745   24.9043 C   0  0  0  0  0  0  0  0  0  0  0  0
   11.3776  -21.7088   26.0588 O   0  0  0  0  0  0  0  0  0  0  0  0
   12.1311  -20.0361   24.5291 C   0  0  0  0  0  0  0  0  0  0  0  0
   11.4627  -19.3231   23.4139 C   0  0  0  0  0  0  0  0  0  0  0  0
   10.2976  -18.4944   23.8902 C   0  0  2  0  0  0  0  0  0  0  0  0
    9.8157  -17.7936   22.6738 N   0  0  0  0  0  0  0  0  0  0  0  0
   10.7075  -17.4406   24.8435 C   0  0  0  0  0  0  0  0  0  0  0  0
   11.4400  -16.4958   24.4274 O   0  0  0  0  0  0  0  0  0  0  0  0
    9.0487  -12.9311   27.4687 C   0  0  0  0  0  0  0  0  0  0  0  0
   10.2375  -13.9040   27.7799 C   0  0  1  0  0  0  0  0  0  0  0  0
   10.3547  -13.8795   29.2542 C   0  0  0  0  0  0  0  0  0  0  0  0
    9.9911  -15.1292   27.0516 C   0  0  0  0  0  0  0  0  0  0  0  0
   10.8910  -16.2891   27.0503 C   0  0  2  0  0  0  0  0  0  0  0  0
   10.3582  -17.3630   26.2041 N   0  0  0  0  0  0  0  0  0  0  0  0
   11.1736  -16.8990   28.3481 C   0  0  0  0  0  0  0  0  0  0  0  0
   12.1168  -16.4562   29.0519 O   0  0  0  0  0  0  0  0  0  0  0  0
   10.4782  -17.9563   28.9101 O   0  0  0  0  0  0  0  0  0  0  0  0
  2  1  1  1
  2  3  1  0
  3  4  1  0
  4  9  2  0
  5  4  1  0
  5  6  2  0
  6  7  1  0
  7  8  2  0
  9  8  1  0
 10 18  1  0
 10  2  1  0
 11 10  2  0
 13 12  1  0
 13 15  1  0
 14 13  2  0
 16 15  1  0
 17 16  1  6
 17 18  1  0
 19 26  1  0
 19 17  1  0
 20 19  2  0
 22 21  1  1
 22 24  1  0
 23 22  1  0
 25 24  1  1
 25 26  1  0
 25 27  1  0
 27 29  1  0
 28 27  2  0
M  END
$$$$
