FQL.pdb
     RDKit          3D

 29 29  0  0  1  0  0  0  0  0999 V2000
    5.6312  -17.2326   24.4972 N   0  0  0  0  0  0  0  0  0  0  0  0
    6.6109  -16.1644   24.5673 C   0  0  1  0  0  0  0  0  0  0  0  0
    6.6557  -15.5995   25.9775 C   0  0  0  0  0  0  0  0  0  0  0  0
    6.2861  -14.1644   25.9176 C   0  0  0  0  0  0  0  0  0  0  0  0
    5.2225  -13.6808   26.6143 C   0  0  0  0  0  0  0  0  0  0  0  0
    4.8256  -12.3609   26.6024 C   0  0  0  0  0  0  0  0  0  0  0  0
    5.5489  -11.4703   25.8377 C   0  0  0  0  0  0  0  0  0  0  0  0
    6.6379  -11.9178   25.1131 C   0  0  0  0  0  0  0  0  0  0  0  0
    7.0078  -13.2600   25.1509 C   0  0  0  0  0  0  0  0  0  0  0  0
    7.9192  -16.7128   24.1602 C   0  0  0  0  0  0  0  0  0  0  0  0
    8.2049  -17.8897   24.4645 O   0  0  0  0  0  0  0  0  0  0  0  0
   11.8968  -14.2117   20.0736 N   0  0  0  0  0  0  0  0  0  0  0  0
   12.7206  -15.2279   20.6618 C   0  0  0  0  0  0  0  0  0  0  0  0
   13.8616  -15.3757   20.2142 O   0  0  0  0  0  0  0  0  0  0  0  0
   12.1632  -16.0347   21.7590 C   0  0  0  0  0  0  0  0  0  0  0  0
   10.7875  -15.6194   22.1247 C   0  0  0  0  0  0  0  0  0  0  0  0
   10.2093  -16.4791   23.2191 C   0  0  2  0  0  0  0  0  0  0  0  0
    8.8452  -15.9371   23.4386 N   0  0  0  0  0  0  0  0  0  0  0  0
   10.9314  -16.3225   24.5002 C   0  0  0  0  0  0  0  0  0  0  0  0
   11.6030  -15.2672   24.6945 O   0  0  0  0  0  0  0  0  0  0  0  0
   10.2733  -14.1124   28.6456 C   0  0  0  0  0  0  0  0  0  0  0  0
   11.1153  -14.6833   27.4533 C   0  0  1  0  0  0  0  0  0  0  0  0
   12.2811  -13.7776   27.3614 C   0  0  0  0  0  0  0  0  0  0  0  0
   11.2656  -16.1045   27.6760 C   0  0  0  0  0  0  0  0  0  0  0  0
   11.8514  -17.0390   26.7070 C   0  0  2  0  0  0  0  0  0  0  0  0
   10.9514  -17.2409   25.5658 N   0  0  0  0  0  0  0  0  0  0  0  0
   12.1819  -18.3735   27.2028 C   0  0  0  0  0  0  0  0  0  0  0  0
   13.0257  -18.5034   28.1260 O   0  0  0  0  0  0  0  0  0  0  0  0
   11.6358  -19.5610   26.7457 O   0  0  0  0  0  0  0  0  0  0  0  0
  2  1  1  1
  2  3  1  0
  3  4  1  0
  4  9  2  0
  5  4  1  0
  5  6  2  0
  6  7  1  0
  7  8  2  0
  9  8  1  0
 10 18  1  0
 10  2  1  0
 11 10  2  0
 13 12  1  0
 13 15  1  0
 14 13  2  0
 16 15  1  0
 17 16  1  6
 17 18  1  0
 19 26  1  0
 19 17  1  0
 20 19  2  0
 22 21  1  1
 22 24  1  0
 23 22  1  0
 25 24  1  1
 25 26  1  0
 25 27  1  0
 27 29  1  0
 28 27  2  0
M  END
$$$$
