FQL.pdb
     RDKit          3D

 29 29  0  0  1  0  0  0  0  0999 V2000
    6.0506  -18.1637   22.6183 N   0  0  0  0  0  0  0  0  0  0  0  0
    6.6945  -16.9834   23.1643 C   0  0  1  0  0  0  0  0  0  0  0  0
    6.0023  -16.5695   24.4524 C   0  0  0  0  0  0  0  0  0  0  0  0
    6.5049  -15.2299   24.8429 C   0  0  0  0  0  0  0  0  0  0  0  0
    6.4336  -14.7983   26.1311 C   0  0  0  0  0  0  0  0  0  0  0  0
    6.8811  -13.5673   26.5602 C   0  0  0  0  0  0  0  0  0  0  0  0
    7.4369  -12.7157   25.6291 C   0  0  0  0  0  0  0  0  0  0  0  0
    7.5297  -13.1128   24.3082 C   0  0  0  0  0  0  0  0  0  0  0  0
    7.0660  -14.3653   23.9132 C   0  0  0  0  0  0  0  0  0  0  0  0
    8.1183  -17.2993   23.3902 C   0  0  0  0  0  0  0  0  0  0  0  0
    8.4169  -18.3221   24.0413 O   0  0  0  0  0  0  0  0  0  0  0  0
   13.0112  -18.2761   21.4557 N   0  0  0  0  0  0  0  0  0  0  0  0
   11.9989  -18.0152   20.4737 C   0  0  0  0  0  0  0  0  0  0  0  0
   11.9490  -18.7551   19.4867 O   0  0  0  0  0  0  0  0  0  0  0  0
   11.0818  -16.8858   20.6946 C   0  0  0  0  0  0  0  0  0  0  0  0
   11.3160  -16.2123   21.9947 C   0  0  0  0  0  0  0  0  0  0  0  0
   10.5522  -16.8674   23.1165 C   0  0  2  0  0  0  0  0  0  0  0  0
    9.1400  -16.4727   22.8871 N   0  0  0  0  0  0  0  0  0  0  0  0
   10.9253  -16.3291   24.4425 C   0  0  0  0  0  0  0  0  0  0  0  0
   11.3953  -15.1557   24.5121 O   0  0  0  0  0  0  0  0  0  0  0  0
    9.3860  -12.9590   27.8382 C   0  0  0  0  0  0  0  0  0  0  0  0
   10.3271  -14.1662   28.1749 C   0  0  1  0  0  0  0  0  0  0  0  0
    9.8850  -14.6130   29.5139 C   0  0  0  0  0  0  0  0  0  0  0  0
   10.3165  -15.0507   27.0305 C   0  0  0  0  0  0  0  0  0  0  0  0
   11.0973  -16.2900   26.9323 C   0  0  2  0  0  0  0  0  0  0  0  0
   10.8066  -16.9928   25.6773 N   0  0  0  0  0  0  0  0  0  0  0  0
   10.9051  -17.2704   27.9990 C   0  0  0  0  0  0  0  0  0  0  0  0
    9.9714  -18.1083   27.9137 O   0  0  0  0  0  0  0  0  0  0  0  0
   11.6802  -17.3809   29.1411 O   0  0  0  0  0  0  0  0  0  0  0  0
  2  1  1  1
  2  3  1  0
  3  4  1  0
  4  9  2  0
  5  4  1  0
  5  6  2  0
  6  7  1  0
  7  8  2  0
  9  8  1  0
 10 18  1  0
 10  2  1  0
 11 10  2  0
 13 12  1  0
 13 15  1  0
 14 13  2  0
 16 15  1  0
 17 16  1  6
 17 18  1  0
 19 26  1  0
 19 17  1  0
 20 19  2  0
 22 21  1  6
 22 24  1  0
 23 22  1  0
 25 24  1  1
 25 26  1  0
 25 27  1  0
 27 29  1  0
 28 27  2  0
M  END
$$$$
