FQL.pdb
     RDKit          3D

 29 29  0  0  1  0  0  0  0  0999 V2000
    6.2520  -18.1124   20.9973 N   0  0  0  0  0  0  0  0  0  0  0  0
    7.0838  -16.9498   21.2465 C   0  0  1  0  0  0  0  0  0  0  0  0
    6.2150  -15.7779   21.6731 C   0  0  0  0  0  0  0  0  0  0  0  0
    6.9316  -14.5216   21.3448 C   0  0  0  0  0  0  0  0  0  0  0  0
    8.1186  -14.5402   20.6804 C   0  0  0  0  0  0  0  0  0  0  0  0
    8.8351  -13.4115   20.3452 C   0  0  0  0  0  0  0  0  0  0  0  0
    8.3207  -12.1834   20.7034 C   0  0  0  0  0  0  0  0  0  0  0  0
    7.1168  -12.1169   21.3798 C   0  0  0  0  0  0  0  0  0  0  0  0
    6.4222  -13.2805   21.7009 C   0  0  0  0  0  0  0  0  0  0  0  0
    8.0683  -17.3032   22.2877 C   0  0  0  0  0  0  0  0  0  0  0  0
    7.6878  -17.9428   23.2903 O   0  0  0  0  0  0  0  0  0  0  0  0
   14.1392  -18.9981   21.5688 N   0  0  0  0  0  0  0  0  0  0  0  0
   13.1766  -18.2398   20.8234 C   0  0  0  0  0  0  0  0  0  0  0  0
   13.5498  -17.7072   19.7741 O   0  0  0  0  0  0  0  0  0  0  0  0
   11.8055  -18.1379   21.3481 C   0  0  0  0  0  0  0  0  0  0  0  0
   11.7263  -17.2947   22.5653 C   0  0  0  0  0  0  0  0  0  0  0  0
   10.3721  -17.3749   23.2216 C   0  0  2  0  0  0  0  0  0  0  0  0
    9.4211  -16.9342   22.1708 N   0  0  0  0  0  0  0  0  0  0  0  0
   10.2301  -16.4181   24.3403 C   0  0  0  0  0  0  0  0  0  0  0  0
   11.1750  -15.6080   24.5712 O   0  0  0  0  0  0  0  0  0  0  0  0
    6.2044  -13.1346   26.1695 C   0  0  0  0  0  0  0  0  0  0  0  0
    7.7103  -13.4775   25.9025 C   0  0  1  0  0  0  0  0  0  0  0  0
    8.4274  -12.2120   26.1711 C   0  0  0  0  0  0  0  0  0  0  0  0
    8.0079  -14.6945   26.6253 C   0  0  0  0  0  0  0  0  0  0  0  0
    9.2191  -15.5007   26.4298 C   0  0  2  0  0  0  0  0  0  0  0  0
    9.1240  -16.2974   25.2012 N   0  0  0  0  0  0  0  0  0  0  0  0
    9.5583  -16.4406   27.4964 C   0  0  0  0  0  0  0  0  0  0  0  0
    9.3342  -17.6679   27.3393 O   0  0  0  0  0  0  0  0  0  0  0  0
   10.1299  -16.1070   28.7127 O   0  0  0  0  0  0  0  0  0  0  0  0
  2  1  1  1
  2  3  1  0
  3  4  1  0
  4  9  2  0
  5  4  1  0
  5  6  2  0
  6  7  1  0
  7  8  2  0
  9  8  1  0
 10 18  1  0
 10  2  1  0
 11 10  2  0
 13 12  1  0
 13 15  1  0
 14 13  2  0
 16 15  1  0
 17 16  1  6
 17 18  1  0
 19 26  1  0
 19 17  1  0
 20 19  2  0
 22 21  1  1
 22 24  1  0
 23 22  1  0
 25 24  1  1
 25 26  1  0
 25 27  1  0
 27 29  1  0
 28 27  2  0
M  END
$$$$
