FQL.pdb
     RDKit          3D

 29 29  0  0  1  0  0  0  0  0999 V2000
    6.0105  -19.0294   23.2303 N   0  0  0  0  0  0  0  0  0  0  0  0
    6.1382  -17.6772   23.7413 C   0  0  1  0  0  0  0  0  0  0  0  0
    6.1009  -17.6961   25.2605 C   0  0  0  0  0  0  0  0  0  0  0  0
    5.9993  -16.2971   25.7425 C   0  0  0  0  0  0  0  0  0  0  0  0
    6.4427  -15.9437   26.9791 C   0  0  0  0  0  0  0  0  0  0  0  0
    6.3779  -14.6642   27.4874 C   0  0  0  0  0  0  0  0  0  0  0  0
    5.8301  -13.6763   26.6968 C   0  0  0  0  0  0  0  0  0  0  0  0
    5.3665  -13.9902   25.4328 C   0  0  0  0  0  0  0  0  0  0  0  0
    5.4495  -15.2956   24.9543 C   0  0  0  0  0  0  0  0  0  0  0  0
    7.4046  -17.1123   23.2362 C   0  0  0  0  0  0  0  0  0  0  0  0
    8.4466  -17.7961   23.3115 O   0  0  0  0  0  0  0  0  0  0  0  0
    8.2853  -12.2887   18.8396 N   0  0  0  0  0  0  0  0  0  0  0  0
    9.2445  -13.2792   19.2349 C   0  0  0  0  0  0  0  0  0  0  0  0
    9.7960  -13.9347   18.3459 O   0  0  0  0  0  0  0  0  0  0  0  0
    9.5158  -13.4596   20.6700 C   0  0  0  0  0  0  0  0  0  0  0  0
    8.3652  -14.0523   21.3935 C   0  0  0  0  0  0  0  0  0  0  0  0
    8.6944  -15.4066   21.9665 C   0  0  2  0  0  0  0  0  0  0  0  0
    7.4580  -15.8235   22.6738 N   0  0  0  0  0  0  0  0  0  0  0  0
    9.7590  -15.3418   22.9910 C   0  0  0  0  0  0  0  0  0  0  0  0
   10.9523  -15.1460   22.6165 O   0  0  0  0  0  0  0  0  0  0  0  0
   10.7840  -12.6109   28.0392 C   0  0  0  0  0  0  0  0  0  0  0  0
   11.3440  -13.9135   27.3711 C   0  0  1  0  0  0  0  0  0  0  0  0
   11.5406  -14.8487   28.5001 C   0  0  0  0  0  0  0  0  0  0  0  0
   10.4785  -14.2301   26.2564 C   0  0  0  0  0  0  0  0  0  0  0  0
   10.7299  -15.3065   25.2902 C   0  0  2  0  0  0  0  0  0  0  0  0
    9.5892  -15.4703   24.3817 N   0  0  0  0  0  0  0  0  0  0  0  0
   11.0004  -16.6319   25.8434 C   0  0  0  0  0  0  0  0  0  0  0  0
   10.0499  -17.4328   26.0338 O   0  0  0  0  0  0  0  0  0  0  0  0
   12.2485  -17.1209   26.1903 O   0  0  0  0  0  0  0  0  0  0  0  0
  2  1  1  6
  2  3  1  0
  3  4  1  0
  4  9  2  0
  5  4  1  0
  5  6  2  0
  6  7  1  0
  7  8  2  0
  9  8  1  0
 10 18  1  0
 10  2  1  0
 11 10  2  0
 13 12  1  0
 13 15  1  0
 14 13  2  0
 16 15  1  0
 17 16  1  1
 17 18  1  0
 19 26  1  0
 19 17  1  0
 20 19  2  0
 22 21  1  1
 22 24  1  0
 23 22  1  0
 25 24  1  1
 25 26  1  0
 25 27  1  0
 27 29  1  0
 28 27  2  0
M  END
$$$$
