FQL.pdb
     RDKit          3D

 29 29  0  0  1  0  0  0  0  0999 V2000
    6.1330  -16.8725   22.2969 N   0  0  0  0  0  0  0  0  0  0  0  0
    7.2021  -16.2708   23.0719 C   0  0  1  0  0  0  0  0  0  0  0  0
    6.7241  -16.0087   24.4906 C   0  0  0  0  0  0  0  0  0  0  0  0
    6.5654  -14.5447   24.6669 C   0  0  0  0  0  0  0  0  0  0  0  0
    5.7407  -14.0350   25.6212 C   0  0  0  0  0  0  0  0  0  0  0  0
    5.5479  -12.6875   25.8373 C   0  0  0  0  0  0  0  0  0  0  0  0
    6.2316  -11.7954   25.0387 C   0  0  0  0  0  0  0  0  0  0  0  0
    7.0808  -12.2689   24.0558 C   0  0  0  0  0  0  0  0  0  0  0  0
    7.2492  -13.6387   23.8681 C   0  0  0  0  0  0  0  0  0  0  0  0
    8.3587  -17.1873   23.0492 C   0  0  0  0  0  0  0  0  0  0  0  0
    8.5484  -17.8997   22.0414 O   0  0  0  0  0  0  0  0  0  0  0  0
   13.4607  -16.5708   21.3308 N   0  0  0  0  0  0  0  0  0  0  0  0
   12.1832  -16.2476   20.7645 C   0  0  0  0  0  0  0  0  0  0  0  0
   12.1659  -15.6137   19.7053 O   0  0  0  0  0  0  0  0  0  0  0  0
   10.9704  -16.6855   21.4738 C   0  0  0  0  0  0  0  0  0  0  0  0
   10.9121  -16.1739   22.8643 C   0  0  0  0  0  0  0  0  0  0  0  0
   10.7059  -17.2808   23.8659 C   0  0  2  0  0  0  0  0  0  0  0  0
    9.2468  -17.2718   24.1374 N   0  0  0  0  0  0  0  0  0  0  0  0
   11.3718  -17.0043   25.1571 C   0  0  0  0  0  0  0  0  0  0  0  0
   12.6366  -16.9649   25.1928 O   0  0  0  0  0  0  0  0  0  0  0  0
    9.8770  -14.0030   29.6797 C   0  0  0  0  0  0  0  0  0  0  0  0
   10.0669  -14.6614   28.2701 C   0  0  1  0  0  0  0  0  0  0  0  0
    9.8522  -13.5520   27.3157 C   0  0  0  0  0  0  0  0  0  0  0  0
   11.3044  -15.4092   28.3091 C   0  0  0  0  0  0  0  0  0  0  0  0
   11.5205  -16.6922   27.6290 C   0  0  2  0  0  0  0  0  0  0  0  0
   10.7377  -16.7653   26.3900 N   0  0  0  0  0  0  0  0  0  0  0  0
   11.1919  -17.8977   28.3871 C   0  0  0  0  0  0  0  0  0  0  0  0
   10.3040  -18.6790   27.9600 O   0  0  0  0  0  0  0  0  0  0  0  0
   11.7850  -18.2889   29.5756 O   0  0  0  0  0  0  0  0  0  0  0  0
  2  1  1  6
  2  3  1  0
  3  4  1  0
  4  9  2  0
  5  4  1  0
  5  6  2  0
  6  7  1  0
  7  8  2  0
  9  8  1  0
 10 18  1  0
 10  2  1  0
 11 10  2  0
 13 12  1  0
 13 15  1  0
 14 13  2  0
 16 15  1  0
 17 16  1  6
 17 18  1  0
 19 26  1  0
 19 17  1  0
 20 19  2  0
 22 21  1  1
 22 24  1  0
 23 22  1  0
 25 24  1  1
 25 26  1  0
 25 27  1  0
 27 29  1  0
 28 27  2  0
M  END
$$$$
