FQL.pdb
     RDKit          3D

 29 29  0  0  1  0  0  0  0  0999 V2000
    5.8583  -17.1790   23.1720 N   0  0  0  0  0  0  0  0  0  0  0  0
    6.8831  -16.3080   23.7170 C   0  0  1  0  0  0  0  0  0  0  0  0
    6.6999  -16.1764   25.2200 C   0  0  0  0  0  0  0  0  0  0  0  0
    6.6387  -14.7337   25.5584 C   0  0  0  0  0  0  0  0  0  0  0  0
    5.6617  -14.2400   26.3661 C   0  0  0  0  0  0  0  0  0  0  0  0
    5.5474  -12.9126   26.7191 C   0  0  0  0  0  0  0  0  0  0  0  0
    6.4795  -12.0248   26.2252 C   0  0  0  0  0  0  0  0  0  0  0  0
    7.4902  -12.4825   25.4004 C   0  0  0  0  0  0  0  0  0  0  0  0
    7.5722  -13.8320   25.0663 C   0  0  0  0  0  0  0  0  0  0  0  0
    8.2007  -16.8801   23.3786 C   0  0  0  0  0  0  0  0  0  0  0  0
    8.3368  -17.4929   22.2992 O   0  0  0  0  0  0  0  0  0  0  0  0
   10.8251  -17.5191   20.1103 N   0  0  0  0  0  0  0  0  0  0  0  0
   12.1198  -17.3343   20.6992 C   0  0  0  0  0  0  0  0  0  0  0  0
   13.0907  -17.8380   20.1268 O   0  0  0  0  0  0  0  0  0  0  0  0
   12.2189  -16.5601   21.9468 C   0  0  0  0  0  0  0  0  0  0  0  0
   10.8929  -16.2950   22.5553 C   0  0  0  0  0  0  0  0  0  0  0  0
   10.6418  -17.1607   23.7630 C   0  0  2  0  0  0  0  0  0  0  0  0
    9.3006  -16.7476   24.2462 N   0  0  0  0  0  0  0  0  0  0  0  0
   11.5869  -16.8791   24.8651 C   0  0  0  0  0  0  0  0  0  0  0  0
   12.4475  -15.9641   24.7091 O   0  0  0  0  0  0  0  0  0  0  0  0
   11.4712  -13.6365   28.3574 C   0  0  0  0  0  0  0  0  0  0  0  0
   10.2894  -14.6546   28.2044 C   0  0  1  0  0  0  0  0  0  0  0  0
    9.0832  -13.8039   28.1091 C   0  0  0  0  0  0  0  0  0  0  0  0
   10.6560  -15.5833   27.1579 C   0  0  0  0  0  0  0  0  0  0  0  0
   11.5032  -16.7657   27.3571 C   0  0  2  0  0  0  0  0  0  0  0  0
   11.6349  -17.5301   26.1114 N   0  0  0  0  0  0  0  0  0  0  0  0
   11.0651  -17.7204   28.3733 C   0  0  0  0  0  0  0  0  0  0  0  0
   11.3080  -17.4940   29.5861 O   0  0  0  0  0  0  0  0  0  0  0  0
   10.3766  -18.8969   28.1301 O   0  0  0  0  0  0  0  0  0  0  0  0
  2  1  1  1
  2  3  1  0
  3  4  1  0
  4  9  2  0
  5  4  1  0
  5  6  2  0
  6  7  1  0
  7  8  2  0
  9  8  1  0
 10 18  1  0
 10  2  1  0
 11 10  2  0
 13 12  1  0
 13 15  1  0
 14 13  2  0
 16 15  1  0
 17 16  1  6
 17 18  1  0
 19 26  1  0
 19 17  1  0
 20 19  2  0
 22 21  1  6
 22 24  1  0
 23 22  1  0
 25 24  1  6
 25 26  1  0
 25 27  1  0
 27 29  1  0
 28 27  2  0
M  END
$$$$
