FQL.pdb
     RDKit          3D

 29 29  0  0  1  0  0  0  0  0999 V2000
    7.2201  -18.2930   20.4932 N   0  0  0  0  0  0  0  0  0  0  0  0
    7.6592  -16.9299   20.7273 C   0  0  1  0  0  0  0  0  0  0  0  0
    6.5318  -16.1272   21.3553 C   0  0  0  0  0  0  0  0  0  0  0  0
    6.9014  -14.6915   21.3136 C   0  0  0  0  0  0  0  0  0  0  0  0
    7.1859  -14.0707   20.1370 C   0  0  0  0  0  0  0  0  0  0  0  0
    7.5357  -12.7420   20.0284 C   0  0  0  0  0  0  0  0  0  0  0  0
    7.6030  -11.9899   21.1821 C   0  0  0  0  0  0  0  0  0  0  0  0
    7.3219  -12.5796   22.4005 C   0  0  0  0  0  0  0  0  0  0  0  0
    6.9719  -13.9259   22.4693 C   0  0  0  0  0  0  0  0  0  0  0  0
    8.8474  -16.9732   21.6015 C   0  0  0  0  0  0  0  0  0  0  0  0
    9.0064  -17.9515   22.3611 O   0  0  0  0  0  0  0  0  0  0  0  0
   14.5464  -14.4576   21.4507 N   0  0  0  0  0  0  0  0  0  0  0  0
   13.7286  -14.7934   20.3212 C   0  0  0  0  0  0  0  0  0  0  0  0
   14.2643  -14.8199   19.2092 O   0  0  0  0  0  0  0  0  0  0  0  0
   12.3042  -15.0847   20.5483 C   0  0  0  0  0  0  0  0  0  0  0  0
   11.9223  -14.9638   21.9760 C   0  0  0  0  0  0  0  0  0  0  0  0
   11.0242  -16.0902   22.4184 C   0  0  2  0  0  0  0  0  0  0  0  0
    9.7995  -15.9371   21.5940 N   0  0  0  0  0  0  0  0  0  0  0  0
   10.5981  -15.9514   23.8277 C   0  0  0  0  0  0  0  0  0  0  0  0
   11.4727  -16.0376   24.7387 O   0  0  0  0  0  0  0  0  0  0  0  0
    6.1343  -13.0853   26.0619 C   0  0  0  0  0  0  0  0  0  0  0  0
    7.6593  -13.4429   26.0065 C   0  0  1  0  0  0  0  0  0  0  0  0
    8.2618  -12.6483   27.0990 C   0  0  0  0  0  0  0  0  0  0  0  0
    7.7606  -14.8851   25.9629 C   0  0  0  0  0  0  0  0  0  0  0  0
    9.0071  -15.6225   25.7226 C   0  0  2  0  0  0  0  0  0  0  0  0
    9.2881  -15.7196   24.2856 N   0  0  0  0  0  0  0  0  0  0  0  0
    9.0694  -16.9879   26.2403 C   0  0  0  0  0  0  0  0  0  0  0  0
    8.9528  -17.1912   27.4757 O   0  0  0  0  0  0  0  0  0  0  0  0
    9.2463  -18.1309   25.4791 O   0  0  0  0  0  0  0  0  0  0  0  0
  2  1  1  1
  2  3  1  0
  3  4  1  0
  4  9  2  0
  5  4  1  0
  5  6  2  0
  6  7  1  0
  7  8  2  0
  9  8  1  0
 10 18  1  0
 10  2  1  0
 11 10  2  0
 13 12  1  0
 13 15  1  0
 14 13  2  0
 16 15  1  0
 17 16  1  6
 17 18  1  0
 19 26  1  0
 19 17  1  0
 20 19  2  0
 22 21  1  1
 22 24  1  0
 23 22  1  0
 25 24  1  6
 25 26  1  0
 25 27  1  0
 27 29  1  0
 28 27  2  0
M  END
$$$$
