FQL.pdb
     RDKit          3D

 29 29  0  0  1  0  0  0  0  0999 V2000
    5.9406  -18.0429   22.3499 N   0  0  0  0  0  0  0  0  0  0  0  0
    6.5431  -16.9194   23.0430 C   0  0  1  0  0  0  0  0  0  0  0  0
    5.8562  -16.7135   24.3830 C   0  0  0  0  0  0  0  0  0  0  0  0
    6.4098  -15.4877   25.0080 C   0  0  0  0  0  0  0  0  0  0  0  0
    7.1123  -14.5799   24.2779 C   0  0  0  0  0  0  0  0  0  0  0  0
    7.6529  -13.4227   24.7959 C   0  0  0  0  0  0  0  0  0  0  0  0
    7.4732  -13.1639   26.1382 C   0  0  0  0  0  0  0  0  0  0  0  0
    6.7655  -14.0591   26.9187 C   0  0  0  0  0  0  0  0  0  0  0  0
    6.2343  -15.2182   26.3582 C   0  0  0  0  0  0  0  0  0  0  0  0
    7.9828  -17.1992   23.2080 C   0  0  0  0  0  0  0  0  0  0  0  0
    8.3399  -18.3291   23.6016 O   0  0  0  0  0  0  0  0  0  0  0  0
   12.2615  -14.6008   19.6996 N   0  0  0  0  0  0  0  0  0  0  0  0
   13.1010  -15.0948   20.7523 C   0  0  0  0  0  0  0  0  0  0  0  0
   14.3013  -14.8084   20.7149 O   0  0  0  0  0  0  0  0  0  0  0  0
   12.4895  -15.9123   21.8122 C   0  0  0  0  0  0  0  0  0  0  0  0
   11.0369  -15.6531   21.9599 C   0  0  0  0  0  0  0  0  0  0  0  0
   10.3836  -16.6218   22.9115 C   0  0  2  0  0  0  0  0  0  0  0  0
    8.9549  -16.2203   22.9309 N   0  0  0  0  0  0  0  0  0  0  0  0
   10.8778  -16.4711   24.2972 C   0  0  0  0  0  0  0  0  0  0  0  0
   12.1076  -16.6622   24.5284 O   0  0  0  0  0  0  0  0  0  0  0  0
    8.7785  -13.1180   28.3026 C   0  0  0  0  0  0  0  0  0  0  0  0
    9.8162  -13.6909   27.2772 C   0  0  1  0  0  0  0  0  0  0  0  0
   10.9255  -12.7126   27.2932 C   0  0  0  0  0  0  0  0  0  0  0  0
   10.0197  -15.0847   27.6061 C   0  0  0  0  0  0  0  0  0  0  0  0
   10.7314  -16.0435   26.7520 C   0  0  2  0  0  0  0  0  0  0  0  0
   10.1117  -16.1208   25.4241 N   0  0  0  0  0  0  0  0  0  0  0  0
   10.8143  -17.4185   27.2405 C   0  0  0  0  0  0  0  0  0  0  0  0
   11.4386  -17.6648   28.3039 O   0  0  0  0  0  0  0  0  0  0  0  0
   10.2489  -18.5257   26.6309 O   0  0  0  0  0  0  0  0  0  0  0  0
  2  1  1  1
  2  3  1  0
  3  4  1  0
  4  9  2  0
  5  4  1  0
  5  6  2  0
  6  7  1  0
  7  8  2  0
  9  8  1  0
 10 18  1  0
 10  2  1  0
 11 10  2  0
 13 12  1  0
 13 15  1  0
 14 13  2  0
 16 15  1  0
 17 16  1  6
 17 18  1  0
 19 26  1  0
 19 17  1  0
 20 19  2  0
 22 21  1  1
 22 24  1  0
 23 22  1  0
 25 24  1  1
 25 26  1  0
 25 27  1  0
 27 29  1  0
 28 27  2  0
M  END
$$$$
