FQL.pdb
     RDKit          3D

 29 29  0  0  1  0  0  0  0  0999 V2000
    7.4395  -17.4202   21.1805 N   0  0  0  0  0  0  0  0  0  0  0  0
    8.4316  -16.4832   21.6739 C   0  0  1  0  0  0  0  0  0  0  0  0
    7.7398  -15.3040   22.3377 C   0  0  0  0  0  0  0  0  0  0  0  0
    7.6138  -14.2142   21.3397 C   0  0  0  0  0  0  0  0  0  0  0  0
    6.5252  -14.1233   20.5289 C   0  0  0  0  0  0  0  0  0  0  0  0
    6.3462  -13.1378   19.5821 C   0  0  0  0  0  0  0  0  0  0  0  0
    7.3295  -12.1812   19.4438 C   0  0  0  0  0  0  0  0  0  0  0  0
    8.4535  -12.2345   20.2470 C   0  0  0  0  0  0  0  0  0  0  0  0
    8.5981  -13.2465   21.1928 C   0  0  0  0  0  0  0  0  0  0  0  0
    9.3108  -17.1991   22.6187 C   0  0  0  0  0  0  0  0  0  0  0  0
    8.8010  -17.9802   23.4488 O   0  0  0  0  0  0  0  0  0  0  0  0
   15.4838  -17.9657   21.8604 N   0  0  0  0  0  0  0  0  0  0  0  0
   14.3016  -18.3010   21.1207 C   0  0  0  0  0  0  0  0  0  0  0  0
   14.3878  -18.3562   19.8904 O   0  0  0  0  0  0  0  0  0  0  0  0
   13.0580  -18.5578   21.8644 C   0  0  0  0  0  0  0  0  0  0  0  0
   12.9263  -17.6941   23.0625 C   0  0  0  0  0  0  0  0  0  0  0  0
   11.5273  -17.7135   23.6224 C   0  0  2  0  0  0  0  0  0  0  0  0
   10.7062  -17.0181   22.6002 N   0  0  0  0  0  0  0  0  0  0  0  0
   11.4061  -16.9203   24.8647 C   0  0  0  0  0  0  0  0  0  0  0  0
   11.7107  -15.6920   24.8340 O   0  0  0  0  0  0  0  0  0  0  0  0
   10.5526  -13.4840   28.2658 C   0  0  0  0  0  0  0  0  0  0  0  0
    9.3647  -14.4213   27.8573 C   0  0  1  0  0  0  0  0  0  0  0  0
    8.2667  -13.4919   27.5125 C   0  0  0  0  0  0  0  0  0  0  0  0
    9.8825  -15.3808   26.9069 C   0  0  0  0  0  0  0  0  0  0  0  0
   10.8110  -16.4663   27.2458 C   0  0  2  0  0  0  0  0  0  0  0  0
   10.9693  -17.3902   26.1169 N   0  0  0  0  0  0  0  0  0  0  0  0
   10.4582  -17.2926   28.3986 C   0  0  0  0  0  0  0  0  0  0  0  0
   10.6696  -16.8624   29.5610 O   0  0  0  0  0  0  0  0  0  0  0  0
    9.8864  -18.5524   28.3421 O   0  0  0  0  0  0  0  0  0  0  0  0
  2  1  1  1
  2  3  1  0
  3  4  1  0
  4  9  2  0
  5  4  1  0
  5  6  2  0
  6  7  1  0
  7  8  2  0
  9  8  1  0
 10 18  1  0
 10  2  1  0
 11 10  2  0
 13 12  1  0
 13 15  1  0
 14 13  2  0
 16 15  1  0
 17 16  1  6
 17 18  1  0
 19 26  1  0
 19 17  1  0
 20 19  2  0
 22 21  1  6
 22 24  1  0
 23 22  1  0
 25 24  1  6
 25 26  1  0
 25 27  1  0
 27 29  1  0
 28 27  2  0
M  END
$$$$
