FQL.pdb
     RDKit          3D

 29 29  0  0  1  0  0  0  0  0999 V2000
    5.8592  -17.9000   23.1404 N   0  0  0  0  0  0  0  0  0  0  0  0
    6.6301  -16.7823   23.6525 C   0  0  1  0  0  0  0  0  0  0  0  0
    6.0488  -16.3218   24.9791 C   0  0  0  0  0  0  0  0  0  0  0  0
    6.3328  -14.8746   25.1360 C   0  0  0  0  0  0  0  0  0  0  0  0
    5.7131  -14.1346   26.0946 C   0  0  0  0  0  0  0  0  0  0  0  0
    5.9308  -12.7882   26.2936 C   0  0  0  0  0  0  0  0  0  0  0  0
    6.8327  -12.1460   25.4720 C   0  0  0  0  0  0  0  0  0  0  0  0
    7.4860  -12.8589   24.4840 C   0  0  0  0  0  0  0  0  0  0  0  0
    7.2389  -14.2189   24.3140 C   0  0  0  0  0  0  0  0  0  0  0  0
    8.0326  -17.2185   23.7963 C   0  0  0  0  0  0  0  0  0  0  0  0
    8.2897  -18.2082   24.5128 O   0  0  0  0  0  0  0  0  0  0  0  0
   12.8554  -15.5867   20.1211 N   0  0  0  0  0  0  0  0  0  0  0  0
   11.6946  -16.3727   19.8180 C   0  0  0  0  0  0  0  0  0  0  0  0
   11.3527  -16.4634   18.6352 O   0  0  0  0  0  0  0  0  0  0  0  0
   10.9784  -17.0227   20.9270 C   0  0  0  0  0  0  0  0  0  0  0  0
   11.2588  -16.3821   22.2346 C   0  0  0  0  0  0  0  0  0  0  0  0
   10.4714  -17.0133   23.3539 C   0  0  2  0  0  0  0  0  0  0  0  0
    9.0797  -16.5422   23.1433 N   0  0  0  0  0  0  0  0  0  0  0  0
   10.8833  -16.5150   24.6840 C   0  0  0  0  0  0  0  0  0  0  0  0
   11.1789  -15.2906   24.8098 O   0  0  0  0  0  0  0  0  0  0  0  0
   12.2497  -13.7187   28.3593 C   0  0  0  0  0  0  0  0  0  0  0  0
   10.9565  -14.5828   28.5527 C   0  0  1  0  0  0  0  0  0  0  0  0
    9.9320  -13.6139   28.9995 C   0  0  0  0  0  0  0  0  0  0  0  0
   10.7884  -15.3774   27.3559 C   0  0  0  0  0  0  0  0  0  0  0  0
   11.4654  -16.6561   27.1070 C   0  0  2  0  0  0  0  0  0  0  0  0
   10.9804  -17.2714   25.8663 N   0  0  0  0  0  0  0  0  0  0  0  0
   11.3345  -17.6781   28.1436 C   0  0  0  0  0  0  0  0  0  0  0  0
   12.0291  -17.5975   29.1886 O   0  0  0  0  0  0  0  0  0  0  0  0
   10.4852  -18.7707   28.0952 O   0  0  0  0  0  0  0  0  0  0  0  0
  2  1  1  1
  2  3  1  0
  3  4  1  0
  4  9  2  0
  5  4  1  0
  5  6  2  0
  6  7  1  0
  7  8  2  0
  9  8  1  0
 10 18  1  0
 10  2  1  0
 11 10  2  0
 13 12  1  0
 13 15  1  0
 14 13  2  0
 16 15  1  0
 17 16  1  6
 17 18  1  0
 19 26  1  0
 19 17  1  0
 20 19  2  0
 22 21  1  6
 22 24  1  0
 23 22  1  0
 25 24  1  1
 25 26  1  0
 25 27  1  0
 27 29  1  0
 28 27  2  0
M  END
$$$$
