AAT.pdb
     RDKit          3D

 18 17  0  0  1  0  0  0  0  0999 V2000
   17.2828  -10.9905  -14.0156 C   0  0  0  0  0  0  0  0  0  0  0  0
   17.5086  -10.6557  -15.4749 C   0  0  2  0  0  0  0  0  0  0  0  0
   18.2981  -11.6859  -16.1025 N   0  0  0  0  0  0  0  0  0  0  0  0
   18.1200   -9.3076  -15.6335 C   0  0  0  0  0  0  0  0  0  0  0  0
   19.3711   -9.2214  -15.6897 O   0  0  0  0  0  0  0  0  0  0  0  0
   16.8234   -5.7809  -16.2404 C   0  0  0  0  0  0  0  0  0  0  0  0
   17.8925   -6.7993  -15.8987 C   0  0  2  0  0  0  0  0  0  0  0  0
   17.3500   -8.1170  -15.7237 N   0  0  0  0  0  0  0  0  0  0  0  0
   18.6929   -6.3409  -14.7532 C   0  0  0  0  0  0  0  0  0  0  0  0
   18.3793   -6.5199  -13.5473 O   0  0  0  0  0  0  0  0  0  0  0  0
   22.6782   -6.0195  -15.1994 C   0  0  0  0  0  0  0  0  0  0  0  0
   21.9867   -5.9830  -13.8766 C   0  0  1  0  0  0  0  0  0  0  0  0
   22.8433   -5.5609  -12.8827 O   0  0  0  0  0  0  0  0  0  0  0  0
   20.7255   -5.1524  -13.8924 C   0  0  2  0  0  0  0  0  0  0  0  0
   19.9065   -5.6465  -15.0099 N   0  0  0  0  0  0  0  0  0  0  0  0
   21.0979   -3.7469  -14.1503 C   0  0  0  0  0  0  0  0  0  0  0  0
   20.7703   -3.2121  -15.2218 O   0  0  0  0  0  0  0  0  0  0  0  0
   21.8177   -2.9771  -13.2219 O   0  0  0  0  0  0  0  0  0  0  0  0
  2  1  1  1
  2  3  1  0
  4  2  1  0
  5  4  2  0
  7  6  1  1
  7  8  1  0
  8  4  1  0
  9  7  1  0
  9 15  1  0
 10  9  2  0
 12 11  1  6
 12 14  1  0
 12 13  1  0
 14 15  1  6
 14 16  1  0
 16 18  1  0
 17 16  2  0
M  END
$$$$
