AAT.pdb
     RDKit          3D

 18 17  0  0  1  0  0  0  0  0999 V2000
   19.0505  -11.3535  -18.7597 C   0  0  0  0  0  0  0  0  0  0  0  0
   20.3537  -10.5884  -18.6654 C   0  0  2  0  0  0  0  0  0  0  0  0
   21.4577  -11.4466  -19.0164 N   0  0  0  0  0  0  0  0  0  0  0  0
   20.5268   -9.9763  -17.3194 C   0  0  0  0  0  0  0  0  0  0  0  0
   19.6601   -9.1622  -16.9169 O   0  0  0  0  0  0  0  0  0  0  0  0
   22.8620  -10.4372  -14.3625 C   0  0  0  0  0  0  0  0  0  0  0  0
   21.8844   -9.6451  -15.2074 C   0  0  2  0  0  0  0  0  0  0  0  0
   21.6284  -10.2732  -16.4727 N   0  0  0  0  0  0  0  0  0  0  0  0
   22.3239   -8.2468  -15.3284 C   0  0  0  0  0  0  0  0  0  0  0  0
   23.2393   -7.8512  -16.0965 O   0  0  0  0  0  0  0  0  0  0  0  0
   20.6309   -5.4678  -16.6663 C   0  0  0  0  0  0  0  0  0  0  0  0
   20.8760   -5.1228  -15.2345 C   0  0  1  0  0  0  0  0  0  0  0  0
   19.7449   -5.3321  -14.4751 O   0  0  0  0  0  0  0  0  0  0  0  0
   22.0634   -5.8481  -14.6474 C   0  0  2  0  0  0  0  0  0  0  0  0
   21.6797   -7.2632  -14.5292 N   0  0  0  0  0  0  0  0  0  0  0  0
   22.3211   -5.3027  -13.2996 C   0  0  0  0  0  0  0  0  0  0  0  0
   22.8440   -4.1829  -13.1805 O   0  0  0  0  0  0  0  0  0  0  0  0
   21.9954   -6.0065  -12.1286 O   0  0  0  0  0  0  0  0  0  0  0  0
  2  1  1  1
  2  3  1  0
  4  2  1  0
  5  4  2  0
  7  6  1  6
  7  8  1  0
  8  4  1  0
  9  7  1  0
  9 15  1  0
 10  9  2  0
 12 11  1  6
 12 14  1  0
 12 13  1  0
 14 15  1  1
 14 16  1  0
 16 18  1  0
 17 16  2  0
M  END
$$$$
