AAT.pdb
     RDKit          3D

 18 17  0  0  1  0  0  0  0  0999 V2000
   16.9815  -11.7001  -17.3050 C   0  0  0  0  0  0  0  0  0  0  0  0
   17.7828  -11.5059  -16.0350 C   0  0  2  0  0  0  0  0  0  0  0  0
   16.9873  -11.8668  -14.8880 N   0  0  0  0  0  0  0  0  0  0  0  0
   18.3118  -10.1180  -15.9347 C   0  0  0  0  0  0  0  0  0  0  0  0
   19.4243   -9.8630  -16.4575 O   0  0  0  0  0  0  0  0  0  0  0  0
   16.9254   -6.7613  -14.8391 C   0  0  0  0  0  0  0  0  0  0  0  0
   18.0517   -7.7065  -15.2064 C   0  0  2  0  0  0  0  0  0  0  0  0
   17.6133   -9.0719  -15.2741 N   0  0  0  0  0  0  0  0  0  0  0  0
   19.2031   -7.5069  -14.3133 C   0  0  0  0  0  0  0  0  0  0  0  0
   19.2870   -7.9675  -13.1448 O   0  0  0  0  0  0  0  0  0  0  0  0
   22.5985   -8.6917  -14.8045 C   0  0  0  0  0  0  0  0  0  0  0  0
   22.6525   -7.2007  -14.7492 C   0  0  1  0  0  0  0  0  0  0  0  0
   22.7185   -6.6612  -16.0159 O   0  0  0  0  0  0  0  0  0  0  0  0
   21.5128   -6.5973  -13.9632 C   0  0  2  0  0  0  0  0  0  0  0  0
   20.3042   -6.7438  -14.7887 N   0  0  0  0  0  0  0  0  0  0  0  0
   21.7931   -5.1608  -13.7667 C   0  0  0  0  0  0  0  0  0  0  0  0
   21.1436   -4.3162  -14.4042 O   0  0  0  0  0  0  0  0  0  0  0  0
   22.7774   -4.7015  -12.8763 O   0  0  0  0  0  0  0  0  0  0  0  0
  2  1  1  6
  2  3  1  0
  4  2  1  0
  5  4  2  0
  7  6  1  1
  7  8  1  0
  8  4  1  0
  9  7  1  0
  9 15  1  0
 10  9  2  0
 12 11  1  6
 12 14  1  0
 12 13  1  0
 14 15  1  6
 14 16  1  0
 16 18  1  0
 17 16  2  0
M  END
$$$$
