AAT.pdb
     RDKit          3D

 18 17  0  0  1  0  0  0  0  0999 V2000
   20.3375  -12.2583  -16.9661 C   0  0  0  0  0  0  0  0  0  0  0  0
   19.5694  -11.4093  -15.9752 C   0  0  2  0  0  0  0  0  0  0  0  0
   18.1644  -11.7270  -16.0361 N   0  0  0  0  0  0  0  0  0  0  0  0
   19.8248   -9.9587  -16.1918 C   0  0  0  0  0  0  0  0  0  0  0  0
   20.9932   -9.5274  -16.0343 O   0  0  0  0  0  0  0  0  0  0  0  0
   17.8268   -6.9892  -17.4759 C   0  0  0  0  0  0  0  0  0  0  0  0
   18.9974   -7.6339  -16.7610 C   0  0  2  0  0  0  0  0  0  0  0  0
   18.8054   -9.0435  -16.5682 N   0  0  0  0  0  0  0  0  0  0  0  0
   19.3024   -6.9110  -15.5171 C   0  0  0  0  0  0  0  0  0  0  0  0
   18.7355   -7.1215  -14.4131 O   0  0  0  0  0  0  0  0  0  0  0  0
   23.0252   -5.7251  -14.9898 C   0  0  0  0  0  0  0  0  0  0  0  0
   22.0177   -5.7282  -13.8879 C   0  0  1  0  0  0  0  0  0  0  0  0
   22.4912   -5.0528  -12.7835 O   0  0  0  0  0  0  0  0  0  0  0  0
   20.6732   -5.1897  -14.3157 C   0  0  2  0  0  0  0  0  0  0  0  0
   20.3039   -5.9025  -15.5483 N   0  0  0  0  0  0  0  0  0  0  0  0
   20.8225   -3.7514  -14.6151 C   0  0  0  0  0  0  0  0  0  0  0  0
   20.7499   -3.3587  -15.7908 O   0  0  0  0  0  0  0  0  0  0  0  0
   21.0465   -2.7938  -13.6125 O   0  0  0  0  0  0  0  0  0  0  0  0
  2  1  1  6
  2  3  1  0
  4  2  1  0
  5  4  2  0
  7  6  1  1
  7  8  1  0
  8  4  1  0
  9  7  1  0
  9 15  1  0
 10  9  2  0
 12 11  1  6
 12 14  1  0
 12 13  1  0
 14 15  1  6
 14 16  1  0
 16 18  1  0
 17 16  2  0
M  END
$$$$
