AAT.pdb
     RDKit          3D

 18 17  0  0  1  0  0  0  0  0999 V2000
   45.4236  -11.9863   -8.1216 C   0  0  0  0  0  0  0  0  0  0  0  0
   44.5548  -10.9173   -7.4932 C   0  0  2  0  0  0  0  0  0  0  0  0
   44.0239  -11.3862   -6.2374 N   0  0  0  0  0  0  0  0  0  0  0  0
   43.4807  -10.4750   -8.4244 C   0  0  0  0  0  0  0  0  0  0  0  0
   43.7994   -9.7692   -9.4125 O   0  0  0  0  0  0  0  0  0  0  0  0
   39.9003  -11.3831   -9.1276 C   0  0  0  0  0  0  0  0  0  0  0  0
   41.0396  -10.3842   -9.0923 C   0  0  2  0  0  0  0  0  0  0  0  0
   42.1136  -10.8165   -8.2433 N   0  0  0  0  0  0  0  0  0  0  0  0
   40.5375   -9.0422   -8.7605 C   0  0  0  0  0  0  0  0  0  0  0  0
   40.1580   -8.6865   -7.6143 O   0  0  0  0  0  0  0  0  0  0  0  0
   42.1735   -5.6430   -9.2090 C   0  0  0  0  0  0  0  0  0  0  0  0
   40.9437   -5.7382  -10.0503 C   0  0  1  0  0  0  0  0  0  0  0  0
   41.2625   -6.0193  -11.3615 O   0  0  0  0  0  0  0  0  0  0  0  0
   39.9368   -6.7280   -9.5144 C   0  0  2  0  0  0  0  0  0  0  0  0
   40.4706   -8.0697   -9.7952 N   0  0  0  0  0  0  0  0  0  0  0  0
   38.6701   -6.5474  -10.2515 C   0  0  0  0  0  0  0  0  0  0  0  0
   38.3031   -7.4136  -11.0619 O   0  0  0  0  0  0  0  0  0  0  0  0
   37.8500   -5.4214  -10.0730 O   0  0  0  0  0  0  0  0  0  0  0  0
  2  1  1  6
  2  3  1  0
  4  2  1  0
  5  4  2  0
  7  6  1  1
  7  8  1  0
  8  4  1  0
  9  7  1  0
  9 15  1  0
 10  9  2  0
 12 11  1  1
 12 14  1  0
 12 13  1  0
 14 15  1  6
 14 16  1  0
 16 18  1  0
 17 16  2  0
M  END
$$$$
