AAT.pdb
     RDKit          3D

 18 17  0  0  1  0  0  0  0  0999 V2000
   18.6647   -9.9729  -19.2176 C   0  0  0  0  0  0  0  0  0  0  0  0
   19.4246  -10.8332  -18.2301 C   0  0  2  0  0  0  0  0  0  0  0  0
   18.6134  -11.9534  -17.8231 N   0  0  0  0  0  0  0  0  0  0  0  0
   19.8984  -10.0337  -17.0670 C   0  0  0  0  0  0  0  0  0  0  0  0
   19.1390   -9.1499  -16.6000 O   0  0  0  0  0  0  0  0  0  0  0  0
   22.8476  -10.1832  -14.6793 C   0  0  0  0  0  0  0  0  0  0  0  0
   21.6595   -9.5007  -15.3269 C   0  0  2  0  0  0  0  0  0  0  0  0
   21.1702  -10.2275  -16.4643 N   0  0  0  0  0  0  0  0  0  0  0  0
   21.9722   -8.0946  -15.6235 C   0  0  0  0  0  0  0  0  0  0  0  0
   22.7006   -7.7120  -16.5761 O   0  0  0  0  0  0  0  0  0  0  0  0
   19.9939   -5.3215  -16.7228 C   0  0  0  0  0  0  0  0  0  0  0  0
   20.4976   -4.9575  -15.3652 C   0  0  1  0  0  0  0  0  0  0  0  0
   19.5260   -5.1566  -14.4079 O   0  0  0  0  0  0  0  0  0  0  0  0
   21.7744   -5.6751  -14.9972 C   0  0  2  0  0  0  0  0  0  0  0  0
   21.4211   -7.0872  -14.7854 N   0  0  0  0  0  0  0  0  0  0  0  0
   22.2780   -5.1074  -13.7305 C   0  0  0  0  0  0  0  0  0  0  0  0
   22.2638   -5.7992  -12.6996 O   0  0  0  0  0  0  0  0  0  0  0  0
   22.7801   -3.7988  -13.6398 O   0  0  0  0  0  0  0  0  0  0  0  0
  2  1  1  6
  2  3  1  0
  4  2  1  0
  5  4  2  0
  7  6  1  6
  7  8  1  0
  8  4  1  0
  9  7  1  0
  9 15  1  0
 10  9  2  0
 12 11  1  6
 12 14  1  0
 12 13  1  0
 14 15  1  1
 14 16  1  0
 16 18  1  0
 17 16  2  0
M  END
$$$$
