AAT.pdb
     RDKit          3D

 18 17  0  0  1  0  0  0  0  0999 V2000
   21.5307  -12.2576  -19.2113 C   0  0  0  0  0  0  0  0  0  0  0  0
   22.0207  -11.8295  -17.8441 C   0  0  2  0  0  0  0  0  0  0  0  0
   21.7088  -12.8428  -16.8671 N   0  0  0  0  0  0  0  0  0  0  0  0
   21.4728  -10.4985  -17.4642 C   0  0  0  0  0  0  0  0  0  0  0  0
   21.8346   -9.4928  -18.1228 O   0  0  0  0  0  0  0  0  0  0  0  0
   18.7865   -9.1775  -15.1431 C   0  0  0  0  0  0  0  0  0  0  0  0
   20.0755   -9.0473  -15.9294 C   0  0  2  0  0  0  0  0  0  0  0  0
   20.5601  -10.3177  -16.3905 N   0  0  0  0  0  0  0  0  0  0  0  0
   21.0725   -8.2864  -15.1612 C   0  0  0  0  0  0  0  0  0  0  0  0
   21.8312   -8.7838  -14.2886 O   0  0  0  0  0  0  0  0  0  0  0  0
   22.3843   -4.7875  -16.8387 C   0  0  0  0  0  0  0  0  0  0  0  0
   23.1328   -5.5337  -15.7841 C   0  0  1  0  0  0  0  0  0  0  0  0
   24.1185   -4.7471  -15.2275 O   0  0  0  0  0  0  0  0  0  0  0  0
   22.2329   -6.1091  -14.7166 C   0  0  2  0  0  0  0  0  0  0  0  0
   21.1994   -6.8926  -15.4106 N   0  0  0  0  0  0  0  0  0  0  0  0
   21.5905   -4.9905  -13.9978 C   0  0  0  0  0  0  0  0  0  0  0  0
   20.3871   -4.7504  -14.1867 O   0  0  0  0  0  0  0  0  0  0  0  0
   22.2924   -4.1740  -13.0959 O   0  0  0  0  0  0  0  0  0  0  0  0
  2  1  1  6
  2  3  1  0
  4  2  1  0
  5  4  2  0
  7  6  1  1
  7  8  1  0
  8  4  1  0
  9  7  1  0
  9 15  1  0
 10  9  2  0
 12 11  1  6
 12 14  1  0
 12 13  1  0
 14 15  1  6
 14 16  1  0
 16 18  1  0
 17 16  2  0
M  END
$$$$
