AAT.pdb
     RDKit          3D

 18 17  0  0  1  0  0  0  0  0999 V2000
   18.5300  -12.2914  -16.6573 C   0  0  0  0  0  0  0  0  0  0  0  0
   19.3853  -11.1935  -17.2537 C   0  0  2  0  0  0  0  0  0  0  0  0
   20.3860  -11.7624  -18.1218 N   0  0  0  0  0  0  0  0  0  0  0  0
   19.9854  -10.3375  -16.1937 C   0  0  0  0  0  0  0  0  0  0  0  0
   19.2166   -9.6879  -15.4434 O   0  0  0  0  0  0  0  0  0  0  0  0
   23.4066   -9.9341  -14.6384 C   0  0  0  0  0  0  0  0  0  0  0  0
   22.0110   -9.4421  -14.9654 C   0  0  2  0  0  0  0  0  0  0  0  0
   21.3876  -10.2245  -15.9953 N   0  0  0  0  0  0  0  0  0  0  0  0
   22.0285   -8.0008  -15.2576 C   0  0  0  0  0  0  0  0  0  0  0  0
   22.4552   -7.4958  -16.3287 O   0  0  0  0  0  0  0  0  0  0  0  0
   19.5631   -5.6053  -15.9242 C   0  0  0  0  0  0  0  0  0  0  0  0
   20.1967   -5.1554  -14.6493 C   0  0  1  0  0  0  0  0  0  0  0  0
   19.4239   -5.5055  -13.5630 O   0  0  0  0  0  0  0  0  0  0  0  0
   21.6139   -5.6514  -14.4872 C   0  0  2  0  0  0  0  0  0  0  0  0
   21.5325   -7.1043  -14.2721 N   0  0  0  0  0  0  0  0  0  0  0  0
   22.1939   -5.0165  -13.2867 C   0  0  0  0  0  0  0  0  0  0  0  0
   22.3832   -5.6954  -12.2645 O   0  0  0  0  0  0  0  0  0  0  0  0
   22.5460   -3.6574  -13.2504 O   0  0  0  0  0  0  0  0  0  0  0  0
  2  1  1  1
  2  3  1  0
  4  2  1  0
  5  4  2  0
  7  6  1  6
  7  8  1  0
  8  4  1  0
  9  7  1  0
  9 15  1  0
 10  9  2  0
 12 11  1  6
 12 14  1  0
 12 13  1  0
 14 15  1  1
 14 16  1  0
 16 18  1  0
 17 16  2  0
M  END
$$$$
