AAT.pdb
     RDKit          3D

 18 17  0  0  1  0  0  0  0  0999 V2000
   15.0730   -4.9822  -16.9944 C   0  0  0  0  0  0  0  0  0  0  0  0
   15.4476   -6.4260  -16.7342 C   0  0  2  0  0  0  0  0  0  0  0  0
   14.5552   -7.0006  -15.7585 N   0  0  0  0  0  0  0  0  0  0  0  0
   16.8747   -6.5512  -16.3294 C   0  0  0  0  0  0  0  0  0  0  0  0
   17.1882   -6.2655  -15.1478 O   0  0  0  0  0  0  0  0  0  0  0  0
   20.0500   -7.9054  -17.9272 C   0  0  0  0  0  0  0  0  0  0  0  0
   19.2769   -7.1447  -16.8687 C   0  0  2  0  0  0  0  0  0  0  0  0
   17.8949   -6.9791  -17.2208 N   0  0  0  0  0  0  0  0  0  0  0  0
   19.9530   -5.8787  -16.5476 C   0  0  0  0  0  0  0  0  0  0  0  0
   19.8133   -4.8108  -17.1991 O   0  0  0  0  0  0  0  0  0  0  0  0
   19.9414   -3.7608  -13.4497 C   0  0  0  0  0  0  0  0  0  0  0  0
   21.3197   -4.2875  -13.6776 C   0  0  1  0  0  0  0  0  0  0  0  0
   21.5764   -5.3693  -12.8629 O   0  0  0  0  0  0  0  0  0  0  0  0
   21.5916   -4.6236  -15.1246 C   0  0  2  0  0  0  0  0  0  0  0  0
   20.8273   -5.8435  -15.4272 N   0  0  0  0  0  0  0  0  0  0  0  0
   23.0332   -4.9068  -15.2729 C   0  0  0  0  0  0  0  0  0  0  0  0
   23.4096   -6.0665  -15.5078 O   0  0  0  0  0  0  0  0  0  0  0  0
   24.0120   -3.9061  -15.1581 O   0  0  0  0  0  0  0  0  0  0  0  0
  2  1  1  1
  2  3  1  0
  4  2  1  0
  5  4  2  0
  7  6  1  6
  7  8  1  0
  8  4  1  0
  9  7  1  0
  9 15  1  0
 10  9  2  0
 12 11  1  6
 12 14  1  0
 12 13  1  0
 14 15  1  1
 14 16  1  0
 16 18  1  0
 17 16  2  0
M  END
$$$$
