AAT.pdb
     RDKit          3D

 18 17  0  0  1  0  0  0  0  0999 V2000
   17.6783  -11.7550  -17.2302 C   0  0  0  0  0  0  0  0  0  0  0  0
   17.9829  -11.3398  -15.8063 C   0  0  2  0  0  0  0  0  0  0  0  0
   16.8419  -11.5936  -14.9622 N   0  0  0  0  0  0  0  0  0  0  0  0
   18.4243   -9.9197  -15.7384 C   0  0  0  0  0  0  0  0  0  0  0  0
   19.4983   -9.5997  -16.3041 O   0  0  0  0  0  0  0  0  0  0  0  0
   16.8719   -6.6472  -14.6062 C   0  0  0  0  0  0  0  0  0  0  0  0
   18.0385   -7.5226  -15.0182 C   0  0  2  0  0  0  0  0  0  0  0  0
   17.6839   -8.9131  -15.0622 N   0  0  0  0  0  0  0  0  0  0  0  0
   19.2121   -7.2460  -14.1761 C   0  0  0  0  0  0  0  0  0  0  0  0
   19.4083   -7.7496  -13.0393 O   0  0  0  0  0  0  0  0  0  0  0  0
   22.7113   -8.0134  -14.6781 C   0  0  0  0  0  0  0  0  0  0  0  0
   22.5874   -6.5259  -14.6471 C   0  0  1  0  0  0  0  0  0  0  0  0
   22.5757   -6.0042  -15.9229 O   0  0  0  0  0  0  0  0  0  0  0  0
   21.3918   -6.0493  -13.8570 C   0  0  2  0  0  0  0  0  0  0  0  0
   20.2013   -6.3506  -14.6667 N   0  0  0  0  0  0  0  0  0  0  0  0
   21.5019   -4.5869  -13.6843 C   0  0  0  0  0  0  0  0  0  0  0  0
   20.7899   -3.8332  -14.3675 O   0  0  0  0  0  0  0  0  0  0  0  0
   22.3904   -4.0027  -12.7668 O   0  0  0  0  0  0  0  0  0  0  0  0
  2  1  1  6
  2  3  1  0
  4  2  1  0
  5  4  2  0
  7  6  1  1
  7  8  1  0
  8  4  1  0
  9  7  1  0
  9 15  1  0
 10  9  2  0
 12 11  1  6
 12 14  1  0
 12 13  1  0
 14 15  1  6
 14 16  1  0
 16 18  1  0
 17 16  2  0
M  END
$$$$
