AAT.pdb
     RDKit          3D

 18 17  0  0  1  0  0  0  0  0999 V2000
   19.2606  -10.4992  -19.2701 C   0  0  0  0  0  0  0  0  0  0  0  0
   20.3487  -11.1332  -18.4296 C   0  0  2  0  0  0  0  0  0  0  0  0
   20.0418  -12.5210  -18.1877 N   0  0  0  0  0  0  0  0  0  0  0  0
   20.5648  -10.3793  -17.1642 C   0  0  0  0  0  0  0  0  0  0  0  0
   19.6100   -9.7132  -16.6946 O   0  0  0  0  0  0  0  0  0  0  0  0
   23.2365  -10.1649  -14.4923 C   0  0  0  0  0  0  0  0  0  0  0  0
   22.0901   -9.5928  -15.3019 C   0  0  2  0  0  0  0  0  0  0  0  0
   21.8026  -10.3811  -16.4668 N   0  0  0  0  0  0  0  0  0  0  0  0
   22.3303   -8.1733  -15.6026 C   0  0  0  0  0  0  0  0  0  0  0  0
   23.0316   -7.7566  -16.5612 O   0  0  0  0  0  0  0  0  0  0  0  0
   20.3653   -5.6054  -16.8671 C   0  0  0  0  0  0  0  0  0  0  0  0
   20.7263   -5.1506  -15.4916 C   0  0  1  0  0  0  0  0  0  0  0  0
   19.6902   -5.3725  -14.6100 O   0  0  0  0  0  0  0  0  0  0  0  0
   22.0091   -5.7651  -14.9842 C   0  0  2  0  0  0  0  0  0  0  0  0
   21.7360   -7.1933  -14.7617 N   0  0  0  0  0  0  0  0  0  0  0  0
   22.3498   -5.1312  -13.6948 C   0  0  0  0  0  0  0  0  0  0  0  0
   22.2590   -5.7883  -12.6452 O   0  0  0  0  0  0  0  0  0  0  0  0
   22.7786   -3.7970  -13.6027 O   0  0  0  0  0  0  0  0  0  0  0  0
  2  1  1  1
  2  3  1  0
  4  2  1  0
  5  4  2  0
  7  6  1  6
  7  8  1  0
  8  4  1  0
  9  7  1  0
  9 15  1  0
 10  9  2  0
 12 11  1  6
 12 14  1  0
 12 13  1  0
 14 15  1  1
 14 16  1  0
 16 18  1  0
 17 16  2  0
M  END
$$$$
