AAT.pdb
     RDKit          3D

 18 17  0  0  1  0  0  0  0  0999 V2000
   18.0437  -11.4932  -17.3581 C   0  0  0  0  0  0  0  0  0  0  0  0
   18.3113  -11.1388  -15.9106 C   0  0  2  0  0  0  0  0  0  0  0  0
   17.1970  -11.5405  -15.0887 N   0  0  0  0  0  0  0  0  0  0  0  0
   18.6276   -9.6923  -15.7562 C   0  0  0  0  0  0  0  0  0  0  0  0
   19.6675   -9.2463  -16.3001 O   0  0  0  0  0  0  0  0  0  0  0  0
   16.7770   -6.6412  -14.4751 C   0  0  0  0  0  0  0  0  0  0  0  0
   18.0252   -7.3824  -14.9107 C   0  0  2  0  0  0  0  0  0  0  0  0
   17.8050   -8.7968  -15.0215 N   0  0  0  0  0  0  0  0  0  0  0  0
   19.1598   -7.0348  -14.0419 C   0  0  0  0  0  0  0  0  0  0  0  0
   19.3360   -7.4921  -12.8824 O   0  0  0  0  0  0  0  0  0  0  0  0
   22.5630   -7.8840  -14.5526 C   0  0  0  0  0  0  0  0  0  0  0  0
   22.5096   -6.3920  -14.5459 C   0  0  1  0  0  0  0  0  0  0  0  0
   22.5063   -5.8918  -15.8303 O   0  0  0  0  0  0  0  0  0  0  0  0
   21.3478   -5.8463  -13.7501 C   0  0  2  0  0  0  0  0  0  0  0  0
   20.1324   -6.1210  -14.5318 N   0  0  0  0  0  0  0  0  0  0  0  0
   21.5191   -4.3854  -13.6199 C   0  0  0  0  0  0  0  0  0  0  0  0
   20.8204   -3.6222  -14.3061 O   0  0  0  0  0  0  0  0  0  0  0  0
   22.4523   -3.8130  -12.7401 O   0  0  0  0  0  0  0  0  0  0  0  0
  2  1  1  6
  2  3  1  0
  4  2  1  0
  5  4  2  0
  7  6  1  1
  7  8  1  0
  8  4  1  0
  9  7  1  0
  9 15  1  0
 10  9  2  0
 12 11  1  6
 12 14  1  0
 12 13  1  0
 14 15  1  6
 14 16  1  0
 16 18  1  0
 17 16  2  0
M  END
$$$$
