AAT.pdb
     RDKit          3D

 18 17  0  0  1  0  0  0  0  0999 V2000
   16.1530  -11.2048  -17.8902 C   0  0  0  0  0  0  0  0  0  0  0  0
   17.3494  -11.4626  -16.9987 C   0  0  2  0  0  0  0  0  0  0  0  0
   17.0946  -12.5956  -16.1442 N   0  0  0  0  0  0  0  0  0  0  0  0
   17.7183  -10.2475  -16.2216 C   0  0  0  0  0  0  0  0  0  0  0  0
   16.8890   -9.7904  -15.3974 O   0  0  0  0  0  0  0  0  0  0  0  0
   20.8605   -8.1957  -15.6778 C   0  0  0  0  0  0  0  0  0  0  0  0
   19.3592   -8.4026  -15.6586 C   0  0  2  0  0  0  0  0  0  0  0  0
   18.9657   -9.5844  -16.3725 N   0  0  0  0  0  0  0  0  0  0  0  0
   18.6663   -7.1879  -16.1140 C   0  0  0  0  0  0  0  0  0  0  0  0
   18.4709   -6.8889  -17.3210 O   0  0  0  0  0  0  0  0  0  0  0  0
   15.1927   -5.9644  -15.4413 C   0  0  0  0  0  0  0  0  0  0  0  0
   16.1739   -5.0032  -14.8561 C   0  0  1  0  0  0  0  0  0  0  0  0
   16.3143   -5.2046  -13.4997 O   0  0  0  0  0  0  0  0  0  0  0  0
   17.5154   -5.0336  -15.5490 C   0  0  2  0  0  0  0  0  0  0  0  0
   18.1781   -6.2799  -15.1352 N   0  0  0  0  0  0  0  0  0  0  0  0
   18.3098   -3.8828  -15.0743 C   0  0  0  0  0  0  0  0  0  0  0  0
   19.2922   -4.0766  -14.3402 O   0  0  0  0  0  0  0  0  0  0  0  0
   17.9976   -2.5585  -15.4225 O   0  0  0  0  0  0  0  0  0  0  0  0
  2  1  1  1
  2  3  1  0
  4  2  1  0
  5  4  2  0
  7  6  1  6
  7  8  1  0
  8  4  1  0
  9  7  1  0
  9 15  1  0
 10  9  2  0
 12 11  1  6
 12 14  1  0
 12 13  1  0
 14 15  1  1
 14 16  1  0
 16 18  1  0
 17 16  2  0
M  END
$$$$
