AAT.pdb
     RDKit          3D

 18 17  0  0  1  0  0  0  0  0999 V2000
   21.6855  -10.9403  -19.8266 C   0  0  0  0  0  0  0  0  0  0  0  0
   20.8506  -11.3805  -18.6426 C   0  0  2  0  0  0  0  0  0  0  0  0
   19.5600  -11.8408  -19.0912 N   0  0  0  0  0  0  0  0  0  0  0  0
   20.7366  -10.2978  -17.6272 C   0  0  0  0  0  0  0  0  0  0  0  0
   20.3858   -9.1545  -18.0091 O   0  0  0  0  0  0  0  0  0  0  0  0
   21.0046  -10.0931  -13.8322 C   0  0  0  0  0  0  0  0  0  0  0  0
   20.8394   -9.5117  -15.2220 C   0  0  2  0  0  0  0  0  0  0  0  0
   21.0071  -10.5024  -16.2475 N   0  0  0  0  0  0  0  0  0  0  0  0
   21.7091   -8.3386  -15.3961 C   0  0  0  0  0  0  0  0  0  0  0  0
   22.8763   -8.3800  -15.8655 O   0  0  0  0  0  0  0  0  0  0  0  0
   21.1612   -5.2648  -17.4129 C   0  0  0  0  0  0  0  0  0  0  0  0
   21.2706   -4.8745  -15.9759 C   0  0  1  0  0  0  0  0  0  0  0  0
   20.0253   -4.6537  -15.4277 O   0  0  0  0  0  0  0  0  0  0  0  0
   22.0556   -5.8676  -15.1525 C   0  0  2  0  0  0  0  0  0  0  0  0
   21.2108   -7.0637  -15.0123 N   0  0  0  0  0  0  0  0  0  0  0  0
   22.2900   -5.2819  -13.8173 C   0  0  0  0  0  0  0  0  0  0  0  0
   23.0965   -4.3465  -13.6907 O   0  0  0  0  0  0  0  0  0  0  0  0
   21.6300   -5.7441  -12.6669 O   0  0  0  0  0  0  0  0  0  0  0  0
  2  1  1  6
  2  3  1  0
  4  2  1  0
  5  4  2  0
  7  6  1  1
  7  8  1  0
  8  4  1  0
  9  7  1  0
  9 15  1  0
 10  9  2  0
 12 11  1  6
 12 14  1  0
 12 13  1  0
 14 15  1  1
 14 16  1  0
 16 18  1  0
 17 16  2  0
M  END
$$$$
