AAF.pdb
     RDKit          3D

 22 22  0  0  1  0  0  0  0  0999 V2000
    8.6170  -12.0923   19.4600 C   0  0  0  0  0  0  0  0  0  0  0  0
    8.4212  -13.5210   19.0056 C   0  0  2  0  0  0  0  0  0  0  0  0
    7.4391  -13.5417   17.9583 N   0  0  0  0  0  0  0  0  0  0  0  0
    8.0808  -14.4239   20.1301 C   0  0  0  0  0  0  0  0  0  0  0  0
    6.8641  -14.6420   20.3637 O   0  0  0  0  0  0  0  0  0  0  0  0
    9.3398  -17.3757   21.4166 C   0  0  0  0  0  0  0  0  0  0  0  0
    8.6671  -16.0877   21.9091 C   0  0  2  0  0  0  0  0  0  0  0  0
    9.0365  -15.0560   20.9574 N   0  0  0  0  0  0  0  0  0  0  0  0
    9.2010  -15.8206   23.2585 C   0  0  0  0  0  0  0  0  0  0  0  0
   10.3670  -15.3742   23.4736 O   0  0  0  0  0  0  0  0  0  0  0  0
    8.3753  -16.0731   24.3714 N   0  0  0  0  0  0  0  0  0  0  0  0
    8.7996  -15.8635   25.7490 C   0  0  1  0  0  0  0  0  0  0  0  0
    7.5501  -15.5704   26.5452 C   0  0  0  0  0  0  0  0  0  0  0  0
    7.2157  -14.1340   26.5414 C   0  0  0  0  0  0  0  0  0  0  0  0
    8.2326  -13.1948   26.5021 C   0  0  0  0  0  0  0  0  0  0  0  0
    7.9813  -11.8395   26.4802 C   0  0  0  0  0  0  0  0  0  0  0  0
    6.6719  -11.3937   26.4978 C   0  0  0  0  0  0  0  0  0  0  0  0
    5.6408  -12.3009   26.5365 C   0  0  0  0  0  0  0  0  0  0  0  0
    5.9260  -13.6538   26.5575 C   0  0  0  0  0  0  0  0  0  0  0  0
    9.4051  -17.1076   26.2386 C   0  0  0  0  0  0  0  0  0  0  0  0
    9.2299  -18.2987   25.5641 O   0  0  0  0  0  0  0  0  0  0  0  0
   10.0914  -17.1028   27.2830 O   0  0  0  0  0  0  0  0  0  0  0  0
  2  1  1  1
  2  4  1  0
  3  2  1  0
  4  8  1  0
  4  5  2  0
  7  6  1  6
  8  7  1  0
  9  7  1  0
  9 10  2  0
 11  9  1  0
 12 11  1  0
 12 13  1  1
 13 14  1  0
 14 19  2  0
 14 15  1  0
 15 16  2  0
 16 17  1  0
 18 17  2  0
 19 18  1  0
 20 12  1  0
 21 20  1  0
 22 20  2  0
M  END
$$$$
