AAF.pdb
     RDKit          3D

 22 22  0  0  1  0  0  0  0  0999 V2000
    8.3068  -12.1550   20.0425 C   0  0  0  0  0  0  0  0  0  0  0  0
    8.2286  -13.5487   19.4614 C   0  0  2  0  0  0  0  0  0  0  0  0
    7.1818  -13.5811   18.4792 N   0  0  0  0  0  0  0  0  0  0  0  0
    8.0652  -14.5833   20.5095 C   0  0  0  0  0  0  0  0  0  0  0  0
    6.9101  -14.7825   20.9663 O   0  0  0  0  0  0  0  0  0  0  0  0
    9.8000  -17.5560   21.6690 C   0  0  0  0  0  0  0  0  0  0  0  0
    8.9098  -16.3669   22.0529 C   0  0  2  0  0  0  0  0  0  0  0  0
    9.1247  -15.3611   21.0289 N   0  0  0  0  0  0  0  0  0  0  0  0
    9.3585  -15.9145   23.3838 C   0  0  0  0  0  0  0  0  0  0  0  0
   10.4224  -15.2539   23.5760 O   0  0  0  0  0  0  0  0  0  0  0  0
    8.5665  -16.2306   24.5048 N   0  0  0  0  0  0  0  0  0  0  0  0
    8.9118  -15.8434   25.8659 C   0  0  1  0  0  0  0  0  0  0  0  0
    7.6156  -15.4891   26.5555 C   0  0  0  0  0  0  0  0  0  0  0  0
    7.2779  -14.0620   26.3993 C   0  0  0  0  0  0  0  0  0  0  0  0
    5.9574  -13.6875   26.2157 C   0  0  0  0  0  0  0  0  0  0  0  0
    5.5791  -12.3687   26.0802 C   0  0  0  0  0  0  0  0  0  0  0  0
    6.5448  -11.3795   26.1280 C   0  0  0  0  0  0  0  0  0  0  0  0
    7.8637  -11.7191   26.3093 C   0  0  0  0  0  0  0  0  0  0  0  0
    8.2108  -13.0510   26.4421 C   0  0  0  0  0  0  0  0  0  0  0  0
    9.5153  -17.0019   26.5350 C   0  0  0  0  0  0  0  0  0  0  0  0
   10.3646  -16.8406   27.6107 O   0  0  0  0  0  0  0  0  0  0  0  0
    9.2661  -18.1588   26.1333 O   0  0  0  0  0  0  0  0  0  0  0  0
  2  1  1  1
  2  4  1  0
  3  2  1  0
  4  8  1  0
  4  5  2  0
  7  6  1  6
  8  7  1  0
  9  7  1  0
  9 10  2  0
 11  9  1  0
 12 11  1  0
 12 13  1  1
 13 14  1  0
 14 19  2  0
 14 15  1  0
 15 16  2  0
 16 17  1  0
 18 17  2  0
 19 18  1  0
 20 12  1  0
 21 20  1  0
 22 20  2  0
M  END
$$$$
