AAF.pdb
     RDKit          3D

 22 22  0  0  1  0  0  0  0  0999 V2000
    6.6719  -18.9653   19.2152 C   0  0  0  0  0  0  0  0  0  0  0  0
    7.1120  -18.5275   20.5938 C   0  0  2  0  0  0  0  0  0  0  0  0
    5.9541  -18.4234   21.4365 N   0  0  0  0  0  0  0  0  0  0  0  0
    7.9092  -17.2791   20.5563 C   0  0  0  0  0  0  0  0  0  0  0  0
    9.0287  -17.3113   19.9832 O   0  0  0  0  0  0  0  0  0  0  0  0
    7.4468  -13.6743   20.9829 C   0  0  0  0  0  0  0  0  0  0  0  0
    8.3611  -14.8922   21.1690 C   0  0  2  0  0  0  0  0  0  0  0  0
    7.4920  -16.0537   21.1237 N   0  0  0  0  0  0  0  0  0  0  0  0
    9.0147  -14.7340   22.4825 C   0  0  0  0  0  0  0  0  0  0  0  0
    9.8571  -13.8233   22.7394 O   0  0  0  0  0  0  0  0  0  0  0  0
    8.6890  -15.6406   23.5101 N   0  0  0  0  0  0  0  0  0  0  0  0
    9.2299  -15.5516   24.8596 C   0  0  1  0  0  0  0  0  0  0  0  0
    8.0608  -15.7036   25.8037 C   0  0  0  0  0  0  0  0  0  0  0  0
    7.3626  -14.4245   26.0303 C   0  0  0  0  0  0  0  0  0  0  0  0
    8.0331  -13.3777   26.6404 C   0  0  0  0  0  0  0  0  0  0  0  0
    7.4384  -12.1542   26.8639 C   0  0  0  0  0  0  0  0  0  0  0  0
    6.1275  -11.9568   26.4685 C   0  0  0  0  0  0  0  0  0  0  0  0
    5.4355  -12.9761   25.8603 C   0  0  0  0  0  0  0  0  0  0  0  0
    6.0605  -14.1916   25.6502 C   0  0  0  0  0  0  0  0  0  0  0  0
   10.1605  -16.6693   25.0573 C   0  0  0  0  0  0  0  0  0  0  0  0
   10.9853  -16.7225   26.1624 O   0  0  0  0  0  0  0  0  0  0  0  0
   10.2185  -17.5935   24.2180 O   0  0  0  0  0  0  0  0  0  0  0  0
  2  1  1  6
  2  4  1  0
  3  2  1  0
  4  8  1  0
  4  5  2  0
  7  6  1  1
  8  7  1  0
  9  7  1  0
  9 10  2  0
 11  9  1  0
 12 11  1  0
 12 13  1  1
 13 14  1  0
 14 19  2  0
 14 15  1  0
 15 16  2  0
 16 17  1  0
 18 17  2  0
 19 18  1  0
 20 12  1  0
 21 20  1  0
 22 20  2  0
M  END
$$$$
