AAF.pdb
     RDKit          3D

 22 22  0  0  1  0  0  0  0  0999 V2000
    8.5148  -12.1060   20.2760 C   0  0  0  0  0  0  0  0  0  0  0  0
    8.1848  -13.4011   19.5691 C   0  0  2  0  0  0  0  0  0  0  0  0
    7.0153  -13.2006   18.7606 N   0  0  0  0  0  0  0  0  0  0  0  0
    8.0425  -14.5336   20.5140 C   0  0  0  0  0  0  0  0  0  0  0  0
    6.9037  -14.7568   20.9997 O   0  0  0  0  0  0  0  0  0  0  0  0
    9.8565  -17.5814   21.4249 C   0  0  0  0  0  0  0  0  0  0  0  0
    8.9222  -16.4485   21.8692 C   0  0  2  0  0  0  0  0  0  0  0  0
    9.1053  -15.3794   20.9047 N   0  0  0  0  0  0  0  0  0  0  0  0
    9.3483  -16.0560   23.2263 C   0  0  0  0  0  0  0  0  0  0  0  0
   10.4201  -15.4251   23.4678 O   0  0  0  0  0  0  0  0  0  0  0  0
    8.5240  -16.3979   24.3160 N   0  0  0  0  0  0  0  0  0  0  0  0
    8.7717  -15.9517   25.6803 C   0  0  1  0  0  0  0  0  0  0  0  0
    7.4291  -15.5773   26.2621 C   0  0  0  0  0  0  0  0  0  0  0  0
    7.1910  -14.1226   26.2130 C   0  0  0  0  0  0  0  0  0  0  0  0
    5.9165  -13.6462   25.9555 C   0  0  0  0  0  0  0  0  0  0  0  0
    5.6299  -12.2984   25.9135 C   0  0  0  0  0  0  0  0  0  0  0  0
    6.6438  -11.3838   26.1348 C   0  0  0  0  0  0  0  0  0  0  0  0
    7.9190  -11.8253   26.3930 C   0  0  0  0  0  0  0  0  0  0  0  0
    8.1741  -13.1839   26.4286 C   0  0  0  0  0  0  0  0  0  0  0  0
    9.3312  -17.0770   26.4384 C   0  0  0  0  0  0  0  0  0  0  0  0
    9.3613  -18.3498   25.9059 O   0  0  0  0  0  0  0  0  0  0  0  0
    9.7894  -16.8942   27.5866 O   0  0  0  0  0  0  0  0  0  0  0  0
  2  1  1  1
  2  4  1  0
  3  2  1  0
  4  8  1  0
  4  5  2  0
  7  6  1  6
  8  7  1  0
  9  7  1  0
  9 10  2  0
 11  9  1  0
 12 11  1  0
 12 13  1  1
 13 14  1  0
 14 19  2  0
 14 15  1  0
 15 16  2  0
 16 17  1  0
 18 17  2  0
 19 18  1  0
 20 12  1  0
 21 20  1  0
 22 20  2  0
M  END
$$$$
