AAF.pdb
     RDKit          3D

 22 22  0  0  1  0  0  0  0  0999 V2000
    7.8254  -12.4618   20.8522 C   0  0  0  0  0  0  0  0  0  0  0  0
    8.2294  -13.5195   19.8501 C   0  0  2  0  0  0  0  0  0  0  0  0
    7.3362  -13.4569   18.7277 N   0  0  0  0  0  0  0  0  0  0  0  0
    8.2951  -14.8694   20.4575 C   0  0  0  0  0  0  0  0  0  0  0  0
    7.9808  -15.8544   19.7408 O   0  0  0  0  0  0  0  0  0  0  0  0
   10.9695  -15.7635   21.5307 C   0  0  0  0  0  0  0  0  0  0  0  0
    9.6207  -16.1806   22.1310 C   0  0  2  0  0  0  0  0  0  0  0  0
    8.6885  -15.1212   21.7914 N   0  0  0  0  0  0  0  0  0  0  0  0
    9.8243  -16.3003   23.5875 C   0  0  0  0  0  0  0  0  0  0  0  0
   10.8677  -16.7942   24.1096 O   0  0  0  0  0  0  0  0  0  0  0  0
    8.8084  -15.8429   24.4492 N   0  0  0  0  0  0  0  0  0  0  0  0
    8.8489  -16.0081   25.8959 C   0  0  1  0  0  0  0  0  0  0  0  0
    7.4848  -15.6168   26.4130 C   0  0  0  0  0  0  0  0  0  0  0  0
    7.2254  -14.1739   26.2530 C   0  0  0  0  0  0  0  0  0  0  0  0
    8.2509  -13.2670   26.4614 C   0  0  0  0  0  0  0  0  0  0  0  0
    8.0729  -11.9082   26.3110 C   0  0  0  0  0  0  0  0  0  0  0  0
    6.8309  -11.4256   25.9395 C   0  0  0  0  0  0  0  0  0  0  0  0
    5.7932  -12.3002   25.7252 C   0  0  0  0  0  0  0  0  0  0  0  0
    6.0041  -13.6576   25.8841 C   0  0  0  0  0  0  0  0  0  0  0  0
    9.0902  -17.4255   26.1907 C   0  0  0  0  0  0  0  0  0  0  0  0
    8.7991  -18.4055   25.2638 O   0  0  0  0  0  0  0  0  0  0  0  0
    9.5650  -17.7646   27.2959 O   0  0  0  0  0  0  0  0  0  0  0  0
  2  1  1  1
  2  4  1  0
  3  2  1  0
  4  8  1  0
  4  5  2  0
  7  6  1  6
  8  7  1  0
  9  7  1  0
  9 10  2  0
 11  9  1  0
 12 11  1  0
 12 13  1  1
 13 14  1  0
 14 19  2  0
 14 15  1  0
 15 16  2  0
 16 17  1  0
 18 17  2  0
 19 18  1  0
 20 12  1  0
 21 20  1  0
 22 20  2  0
M  END
$$$$
