AAF.pdb
     RDKit          3D

 22 22  0  0  1  0  0  0  0  0999 V2000
    5.6963  -18.7538   23.0622 C   0  0  0  0  0  0  0  0  0  0  0  0
    5.7294  -18.2044   21.6540 C   0  0  2  0  0  0  0  0  0  0  0  0
    5.7609  -19.3033   20.7305 N   0  0  0  0  0  0  0  0  0  0  0  0
    6.8460  -17.2516   21.4515 C   0  0  0  0  0  0  0  0  0  0  0  0
    7.9644  -17.7174   21.1126 O   0  0  0  0  0  0  0  0  0  0  0  0
    7.2063  -13.5716   21.1049 C   0  0  0  0  0  0  0  0  0  0  0  0
    7.8360  -14.9539   21.3207 C   0  0  2  0  0  0  0  0  0  0  0  0
    6.7346  -15.8522   21.6147 N   0  0  0  0  0  0  0  0  0  0  0  0
    8.7681  -14.8217   22.4570 C   0  0  0  0  0  0  0  0  0  0  0  0
    9.8753  -14.2101   22.3859 O   0  0  0  0  0  0  0  0  0  0  0  0
    8.4140  -15.4044   23.6895 N   0  0  0  0  0  0  0  0  0  0  0  0
    9.1973  -15.2441   24.9071 C   0  0  1  0  0  0  0  0  0  0  0  0
    8.2127  -15.2095   26.0519 C   0  0  0  0  0  0  0  0  0  0  0  0
    7.6187  -13.8715   26.2306 C   0  0  0  0  0  0  0  0  0  0  0  0
    6.2414  -13.7351   26.2776 C   0  0  0  0  0  0  0  0  0  0  0  0
    5.6293  -12.5132   26.4588 C   0  0  0  0  0  0  0  0  0  0  0  0
    6.4097  -11.3797   26.5993 C   0  0  0  0  0  0  0  0  0  0  0  0
    7.7792  -11.4824   26.5573 C   0  0  0  0  0  0  0  0  0  0  0  0
    8.3627  -12.7226   26.3743 C   0  0  0  0  0  0  0  0  0  0  0  0
   10.0678  -16.4169   25.0522 C   0  0  0  0  0  0  0  0  0  0  0  0
    9.9683  -17.4890   24.1890 O   0  0  0  0  0  0  0  0  0  0  0  0
   10.9159  -16.4593   25.9692 O   0  0  0  0  0  0  0  0  0  0  0  0
  2  1  1  1
  2  4  1  0
  3  2  1  0
  4  8  1  0
  4  5  2  0
  7  6  1  1
  8  7  1  0
  9  7  1  0
  9 10  2  0
 11  9  1  0
 12 11  1  0
 12 13  1  1
 13 14  1  0
 14 19  2  0
 14 15  1  0
 15 16  2  0
 16 17  1  0
 18 17  2  0
 19 18  1  0
 20 12  1  0
 21 20  1  0
 22 20  2  0
M  END
$$$$
