AAF.pdb
     RDKit          3D

 22 22  0  0  1  0  0  0  0  0999 V2000
    5.6481  -18.3820   22.1740 C   0  0  0  0  0  0  0  0  0  0  0  0
    5.9928  -17.7975   20.8229 C   0  0  2  0  0  0  0  0  0  0  0  0
    6.1804  -18.8722   19.8894 N   0  0  0  0  0  0  0  0  0  0  0  0
    7.1577  -16.8843   20.8893 C   0  0  0  0  0  0  0  0  0  0  0  0
    8.3070  -17.3864   20.7909 O   0  0  0  0  0  0  0  0  0  0  0  0
    7.7318  -13.2085   20.8254 C   0  0  0  0  0  0  0  0  0  0  0  0
    8.2339  -14.6317   21.1013 C   0  0  2  0  0  0  0  0  0  0  0  0
    7.0601  -15.4842   21.0563 N   0  0  0  0  0  0  0  0  0  0  0  0
    8.8572  -14.6089   22.4386 C   0  0  0  0  0  0  0  0  0  0  0  0
    9.8923  -13.9333   22.7164 O   0  0  0  0  0  0  0  0  0  0  0  0
    8.2752  -15.3770   23.4658 N   0  0  0  0  0  0  0  0  0  0  0  0
    8.7408  -15.3552   24.8459 C   0  0  1  0  0  0  0  0  0  0  0  0
    7.5075  -15.3027   25.7163 C   0  0  0  0  0  0  0  0  0  0  0  0
    7.1516  -13.9208   26.0888 C   0  0  0  0  0  0  0  0  0  0  0  0
    5.8192  -13.5464   26.1358 C   0  0  0  0  0  0  0  0  0  0  0  0
    5.4249  -12.2745   26.4927 C   0  0  0  0  0  0  0  0  0  0  0  0
    6.3862  -11.3340   26.8166 C   0  0  0  0  0  0  0  0  0  0  0  0
    7.7167  -11.6750   26.7797 C   0  0  0  0  0  0  0  0  0  0  0  0
    8.0797  -12.9593   26.4177 C   0  0  0  0  0  0  0  0  0  0  0  0
    9.4651  -16.6046   25.1072 C   0  0  0  0  0  0  0  0  0  0  0  0
   10.1724  -16.7864   26.2781 O   0  0  0  0  0  0  0  0  0  0  0  0
    9.4510  -17.5264   24.2634 O   0  0  0  0  0  0  0  0  0  0  0  0
  2  1  1  1
  2  4  1  0
  3  2  1  0
  4  8  1  0
  4  5  2  0
  7  6  1  1
  8  7  1  0
  9  7  1  0
  9 10  2  0
 11  9  1  0
 12 11  1  0
 12 13  1  1
 13 14  1  0
 14 19  2  0
 14 15  1  0
 15 16  2  0
 16 17  1  0
 18 17  2  0
 19 18  1  0
 20 12  1  0
 21 20  1  0
 22 20  2  0
M  END
$$$$
