AAF.pdb
     RDKit          3D

 22 22  0  0  1  0  0  0  0  0999 V2000
    6.1610  -18.7331   22.1824 C   0  0  0  0  0  0  0  0  0  0  0  0
    6.3309  -17.9953   20.8737 C   0  0  2  0  0  0  0  0  0  0  0  0
    6.5539  -18.9544   19.8288 N   0  0  0  0  0  0  0  0  0  0  0  0
    7.3947  -16.9664   20.9457 C   0  0  0  0  0  0  0  0  0  0  0  0
    8.5861  -17.3380   20.7869 O   0  0  0  0  0  0  0  0  0  0  0  0
    7.5927  -13.2536   21.0473 C   0  0  0  0  0  0  0  0  0  0  0  0
    8.2373  -14.6287   21.2651 C   0  0  2  0  0  0  0  0  0  0  0  0
    7.1562  -15.5934   21.1814 N   0  0  0  0  0  0  0  0  0  0  0  0
    8.8571  -14.5984   22.6039 C   0  0  0  0  0  0  0  0  0  0  0  0
    9.8622  -13.8835   22.8933 O   0  0  0  0  0  0  0  0  0  0  0  0
    8.3068  -15.4050   23.6189 N   0  0  0  0  0  0  0  0  0  0  0  0
    8.8329  -15.4567   24.9762 C   0  0  1  0  0  0  0  0  0  0  0  0
    7.6409  -15.4150   25.9028 C   0  0  0  0  0  0  0  0  0  0  0  0
    7.2286  -14.0332   26.2122 C   0  0  0  0  0  0  0  0  0  0  0  0
    8.1845  -13.0986   26.5735 C   0  0  0  0  0  0  0  0  0  0  0  0
    7.8617  -11.7889   26.8581 C   0  0  0  0  0  0  0  0  0  0  0  0
    6.5405  -11.3859   26.7828 C   0  0  0  0  0  0  0  0  0  0  0  0
    5.5689  -12.2898   26.4269 C   0  0  0  0  0  0  0  0  0  0  0  0
    5.9251  -13.5963   26.1473 C   0  0  0  0  0  0  0  0  0  0  0  0
    9.5361  -16.7333   25.1491 C   0  0  0  0  0  0  0  0  0  0  0  0
   10.2651  -16.9961   26.2910 O   0  0  0  0  0  0  0  0  0  0  0  0
    9.4839  -17.6047   24.2547 O   0  0  0  0  0  0  0  0  0  0  0  0
  2  1  1  1
  2  4  1  0
  3  2  1  0
  4  8  1  0
  4  5  2  0
  7  6  1  1
  8  7  1  0
  9  7  1  0
  9 10  2  0
 11  9  1  0
 12 11  1  0
 12 13  1  1
 13 14  1  0
 14 19  2  0
 14 15  1  0
 15 16  2  0
 16 17  1  0
 18 17  2  0
 19 18  1  0
 20 12  1  0
 21 20  1  0
 22 20  2  0
M  END
$$$$
