AAF.pdb
     RDKit          3D

 22 22  0  0  1  0  0  0  0  0999 V2000
    6.5275  -18.8115   18.9955 C   0  0  0  0  0  0  0  0  0  0  0  0
    6.6931  -18.3797   20.4350 C   0  0  2  0  0  0  0  0  0  0  0  0
    5.4014  -18.0532   20.9703 N   0  0  0  0  0  0  0  0  0  0  0  0
    7.6703  -17.2753   20.5787 C   0  0  0  0  0  0  0  0  0  0  0  0
    8.8693  -17.5056   20.2755 O   0  0  0  0  0  0  0  0  0  0  0  0
    7.5765  -13.6140   20.8458 C   0  0  0  0  0  0  0  0  0  0  0  0
    8.3307  -14.9207   21.1238 C   0  0  2  0  0  0  0  0  0  0  0  0
    7.3411  -15.9788   21.0351 N   0  0  0  0  0  0  0  0  0  0  0  0
    8.9003  -14.8004   22.4797 C   0  0  0  0  0  0  0  0  0  0  0  0
    9.8631  -14.0290   22.7680 O   0  0  0  0  0  0  0  0  0  0  0  0
    8.3488  -15.5822   23.5134 N   0  0  0  0  0  0  0  0  0  0  0  0
    8.8352  -15.5555   24.8862 C   0  0  1  0  0  0  0  0  0  0  0  0
    7.6148  -15.5307   25.7757 C   0  0  0  0  0  0  0  0  0  0  0  0
    7.2013  -14.1549   26.1096 C   0  0  0  0  0  0  0  0  0  0  0  0
    8.1498  -13.2391   26.5329 C   0  0  0  0  0  0  0  0  0  0  0  0
    7.8261  -11.9354   26.8433 C   0  0  0  0  0  0  0  0  0  0  0  0
    6.5115  -11.5196   26.7308 C   0  0  0  0  0  0  0  0  0  0  0  0
    5.5473  -12.4048   26.3132 C   0  0  0  0  0  0  0  0  0  0  0  0
    5.9043  -13.7057   26.0093 C   0  0  0  0  0  0  0  0  0  0  0  0
    9.5885  -16.7909   25.1319 C   0  0  0  0  0  0  0  0  0  0  0  0
   10.3068  -16.9674   26.2969 O   0  0  0  0  0  0  0  0  0  0  0  0
    9.5896  -17.7052   24.2799 O   0  0  0  0  0  0  0  0  0  0  0  0
  2  1  1  6
  2  4  1  0
  3  2  1  0
  4  8  1  0
  4  5  2  0
  7  6  1  1
  8  7  1  0
  9  7  1  0
  9 10  2  0
 11  9  1  0
 12 11  1  0
 12 13  1  1
 13 14  1  0
 14 19  2  0
 14 15  1  0
 15 16  2  0
 16 17  1  0
 18 17  2  0
 19 18  1  0
 20 12  1  0
 21 20  1  0
 22 20  2  0
M  END
$$$$
