AAF.pdb
     RDKit          3D

 22 22  0  0  1  0  0  0  0  0999 V2000
    5.6821  -18.0831   21.4962 C   0  0  0  0  0  0  0  0  0  0  0  0
    6.0176  -17.4160   20.1815 C   0  0  2  0  0  0  0  0  0  0  0  0
    6.1758  -18.4296   19.1768 N   0  0  0  0  0  0  0  0  0  0  0  0
    7.1975  -16.5264   20.2908 C   0  0  0  0  0  0  0  0  0  0  0  0
    8.3385  -17.0430   20.1727 O   0  0  0  0  0  0  0  0  0  0  0  0
    7.8476  -12.8638   20.4414 C   0  0  0  0  0  0  0  0  0  0  0  0
    8.3116  -14.3112   20.6498 C   0  0  2  0  0  0  0  0  0  0  0  0
    7.1229  -15.1337   20.5192 N   0  0  0  0  0  0  0  0  0  0  0  0
    8.8920  -14.3787   22.0047 C   0  0  0  0  0  0  0  0  0  0  0  0
    9.9569  -13.7799   22.3401 O   0  0  0  0  0  0  0  0  0  0  0  0
    8.2318  -15.1483   22.9824 N   0  0  0  0  0  0  0  0  0  0  0  0
    8.6366  -15.1870   24.3811 C   0  0  1  0  0  0  0  0  0  0  0  0
    7.3662  -15.1867   25.1979 C   0  0  0  0  0  0  0  0  0  0  0  0
    7.0598  -13.8514   25.7441 C   0  0  0  0  0  0  0  0  0  0  0  0
    5.7684  -13.5573   26.1482 C   0  0  0  0  0  0  0  0  0  0  0  0
    5.4255  -12.3329   26.6812 C   0  0  0  0  0  0  0  0  0  0  0  0
    6.3983  -11.3593   26.8206 C   0  0  0  0  0  0  0  0  0  0  0  0
    7.6890  -11.6208   26.4289 C   0  0  0  0  0  0  0  0  0  0  0  0
    8.0009  -12.8590   25.8981 C   0  0  0  0  0  0  0  0  0  0  0  0
    9.3629  -16.4406   24.6157 C   0  0  0  0  0  0  0  0  0  0  0  0
   10.0908  -16.6365   25.7716 O   0  0  0  0  0  0  0  0  0  0  0  0
    9.3317  -17.3531   23.7623 O   0  0  0  0  0  0  0  0  0  0  0  0
  2  1  1  1
  2  4  1  0
  3  2  1  0
  4  8  1  0
  4  5  2  0
  7  6  1  1
  8  7  1  0
  9  7  1  0
  9 10  2  0
 11  9  1  0
 12 11  1  0
 12 13  1  1
 13 14  1  0
 14 19  2  0
 14 15  1  0
 15 16  2  0
 16 17  1  0
 18 17  2  0
 19 18  1  0
 20 12  1  0
 21 20  1  0
 22 20  2  0
M  END
$$$$
