AAF.pdb
     RDKit          3D

 22 22  0  0  1  0  0  0  0  0999 V2000
    8.6050  -11.9722   19.8444 C   0  0  0  0  0  0  0  0  0  0  0  0
    8.2371  -13.3517   19.3466 C   0  0  2  0  0  0  0  0  0  0  0  0
    7.0769  -13.2452   18.5073 N   0  0  0  0  0  0  0  0  0  0  0  0
    8.0568  -14.3170   20.4561 C   0  0  0  0  0  0  0  0  0  0  0  0
    6.9499  -14.3283   21.0539 O   0  0  0  0  0  0  0  0  0  0  0  0
    9.4920  -17.5176   21.3741 C   0  0  0  0  0  0  0  0  0  0  0  0
    8.7741  -16.2561   21.8712 C   0  0  2  0  0  0  0  0  0  0  0  0
    9.0496  -15.2264   20.8861 N   0  0  0  0  0  0  0  0  0  0  0  0
    9.3489  -15.9345   23.1916 C   0  0  0  0  0  0  0  0  0  0  0  0
   10.4859  -15.3977   23.3475 O   0  0  0  0  0  0  0  0  0  0  0  0
    8.5988  -16.2380   24.3444 N   0  0  0  0  0  0  0  0  0  0  0  0
    9.0217  -15.8845   25.6927 C   0  0  1  0  0  0  0  0  0  0  0  0
    7.7651  -15.5763   26.4720 C   0  0  0  0  0  0  0  0  0  0  0  0
    7.3470  -14.1708   26.3144 C   0  0  0  0  0  0  0  0  0  0  0  0
    8.2562  -13.1550   26.5576 C   0  0  0  0  0  0  0  0  0  0  0  0
    7.9283  -11.8240   26.4114 C   0  0  0  0  0  0  0  0  0  0  0  0
    6.6498  -11.4825   26.0083 C   0  0  0  0  0  0  0  0  0  0  0  0
    5.7250  -12.4675   25.7590 C   0  0  0  0  0  0  0  0  0  0  0  0
    6.0852  -13.7935   25.9148 C   0  0  0  0  0  0  0  0  0  0  0  0
    9.6865  -17.0502   26.2872 C   0  0  0  0  0  0  0  0  0  0  0  0
   10.5245  -16.9143   27.3751 O   0  0  0  0  0  0  0  0  0  0  0  0
    9.5009  -18.1899   25.8092 O   0  0  0  0  0  0  0  0  0  0  0  0
  2  1  1  1
  2  4  1  0
  3  2  1  0
  4  8  1  0
  4  5  2  0
  7  6  1  6
  8  7  1  0
  9  7  1  0
  9 10  2  0
 11  9  1  0
 12 11  1  0
 12 13  1  1
 13 14  1  0
 14 19  2  0
 14 15  1  0
 15 16  2  0
 16 17  1  0
 18 17  2  0
 19 18  1  0
 20 12  1  0
 21 20  1  0
 22 20  2  0
M  END
$$$$
