AAF.pdb
     RDKit          3D

 22 22  0  0  1  0  0  0  0  0999 V2000
    6.6301  -18.5920   25.7826 C   0  0  0  0  0  0  0  0  0  0  0  0
    6.7963  -18.6798   24.2823 C   0  0  2  0  0  0  0  0  0  0  0  0
    6.7331  -20.0599   23.8911 N   0  0  0  0  0  0  0  0  0  0  0  0
    8.0310  -18.0065   23.8160 C   0  0  0  0  0  0  0  0  0  0  0  0
    9.1064  -18.6586   23.8482 O   0  0  0  0  0  0  0  0  0  0  0  0
    8.8793  -14.8526   22.0293 C   0  0  0  0  0  0  0  0  0  0  0  0
    9.3055  -16.0811   22.8435 C   0  0  2  0  0  0  0  0  0  0  0  0
    8.0778  -16.6776   23.3371 N   0  0  0  0  0  0  0  0  0  0  0  0
   10.1657  -15.5873   23.9360 C   0  0  0  0  0  0  0  0  0  0  0  0
   11.3537  -15.1831   23.7625 O   0  0  0  0  0  0  0  0  0  0  0  0
    9.6442  -15.5614   25.2442 N   0  0  0  0  0  0  0  0  0  0  0  0
   10.4205  -15.1597   26.4094 C   0  0  1  0  0  0  0  0  0  0  0  0
   10.0796  -13.7128   26.6769 C   0  0  0  0  0  0  0  0  0  0  0  0
    8.6417  -13.4403   26.4943 C   0  0  0  0  0  0  0  0  0  0  0  0
    8.1764  -13.0194   25.2598 C   0  0  0  0  0  0  0  0  0  0  0  0
    6.8420  -12.7650   25.0246 C   0  0  0  0  0  0  0  0  0  0  0  0
    5.9300  -12.9333   26.0510 C   0  0  0  0  0  0  0  0  0  0  0  0
    6.3607  -13.3501   27.2873 C   0  0  0  0  0  0  0  0  0  0  0  0
    7.7058  -13.5971   27.4912 C   0  0  0  0  0  0  0  0  0  0  0  0
    9.9934  -15.9770   27.5512 C   0  0  0  0  0  0  0  0  0  0  0  0
    9.0262  -16.9508   27.4080 O   0  0  0  0  0  0  0  0  0  0  0  0
   10.5043  -15.7974   28.6775 O   0  0  0  0  0  0  0  0  0  0  0  0
  2  1  1  1
  2  4  1  0
  3  2  1  0
  4  8  1  0
  4  5  2  0
  7  6  1  6
  8  7  1  0
  9  7  1  0
  9 10  2  0
 11  9  1  0
 12 11  1  0
 12 13  1  1
 13 14  1  0
 14 19  2  0
 14 15  1  0
 15 16  2  0
 16 17  1  0
 18 17  2  0
 19 18  1  0
 20 12  1  0
 21 20  1  0
 22 20  2  0
M  END
$$$$
