AAF.pdb
     RDKit          3D

 22 22  0  0  1  0  0  0  0  0999 V2000
    6.3679  -19.6713   19.6557 C   0  0  0  0  0  0  0  0  0  0  0  0
    5.3720  -19.9015   20.7698 C   0  0  2  0  0  0  0  0  0  0  0  0
    4.0476  -19.8857   20.2155 N   0  0  0  0  0  0  0  0  0  0  0  0
    5.5416  -18.9350   21.8801 C   0  0  0  0  0  0  0  0  0  0  0  0
    5.2137  -17.7379   21.6750 O   0  0  0  0  0  0  0  0  0  0  0  0
    6.3401  -19.0371   25.5099 C   0  0  0  0  0  0  0  0  0  0  0  0
    6.2758  -18.2717   24.1818 C   0  0  2  0  0  0  0  0  0  0  0  0
    6.0485  -19.2724   23.1555 N   0  0  0  0  0  0  0  0  0  0  0  0
    7.5757  -17.5920   24.0216 C   0  0  0  0  0  0  0  0  0  0  0  0
    8.6035  -18.1532   23.5383 O   0  0  0  0  0  0  0  0  0  0  0  0
    7.6865  -16.2472   24.4256 N   0  0  0  0  0  0  0  0  0  0  0  0
    8.8771  -15.4381   24.2025 C   0  0  1  0  0  0  0  0  0  0  0  0
    8.4037  -14.0155   24.0200 C   0  0  0  0  0  0  0  0  0  0  0  0
    7.7109  -13.5050   25.2177 C   0  0  0  0  0  0  0  0  0  0  0  0
    8.4372  -12.8641   26.2073 C   0  0  0  0  0  0  0  0  0  0  0  0
    7.8429  -12.3519   27.3409 C   0  0  0  0  0  0  0  0  0  0  0  0
    6.4749  -12.4779   27.5034 C   0  0  0  0  0  0  0  0  0  0  0  0
    5.7266  -13.1085   26.5390 C   0  0  0  0  0  0  0  0  0  0  0  0
    6.3527  -13.6114   25.4133 C   0  0  0  0  0  0  0  0  0  0  0  0
    9.7195  -15.5181   25.4016 C   0  0  0  0  0  0  0  0  0  0  0  0
   11.0452  -15.1362   25.3676 O   0  0  0  0  0  0  0  0  0  0  0  0
    9.2419  -15.9389   26.4772 O   0  0  0  0  0  0  0  0  0  0  0  0
  2  1  1  6
  2  4  1  0
  3  2  1  0
  4  8  1  0
  4  5  2  0
  7  6  1  1
  8  7  1  0
  9  7  1  0
  9 10  2  0
 11  9  1  0
 12 11  1  0
 12 13  1  1
 13 14  1  0
 14 19  2  0
 14 15  1  0
 15 16  2  0
 16 17  1  0
 18 17  2  0
 19 18  1  0
 20 12  1  0
 21 20  1  0
 22 20  2  0
M  END
$$$$
