AAF.pdb
     RDKit          3D

 22 22  0  0  1  0  0  0  0  0999 V2000
    6.9709  -19.2122   19.5037 C   0  0  0  0  0  0  0  0  0  0  0  0
    7.3399  -18.7607   20.8987 C   0  0  2  0  0  0  0  0  0  0  0  0
    6.1692  -18.8205   21.7279 N   0  0  0  0  0  0  0  0  0  0  0  0
    7.9793  -17.4241   20.9031 C   0  0  0  0  0  0  0  0  0  0  0  0
    9.0521  -17.2815   20.2619 O   0  0  0  0  0  0  0  0  0  0  0  0
    7.0498  -13.9508   21.5221 C   0  0  0  0  0  0  0  0  0  0  0  0
    8.1479  -15.0202   21.5887 C   0  0  2  0  0  0  0  0  0  0  0  0
    7.4604  -16.2984   21.5822 N   0  0  0  0  0  0  0  0  0  0  0  0
    8.8877  -14.7897   22.8444 C   0  0  0  0  0  0  0  0  0  0  0  0
    9.6478  -13.7944   23.0358 O   0  0  0  0  0  0  0  0  0  0  0  0
    8.7457  -15.7223   23.8903 N   0  0  0  0  0  0  0  0  0  0  0  0
    9.4089  -15.5882   25.1803 C   0  0  1  0  0  0  0  0  0  0  0  0
    8.3231  -15.6262   26.2295 C   0  0  0  0  0  0  0  0  0  0  0  0
    7.6581  -14.3191   26.3853 C   0  0  0  0  0  0  0  0  0  0  0  0
    6.2867  -14.2248   26.2179 C   0  0  0  0  0  0  0  0  0  0  0  0
    5.6079  -13.0341   26.3667 C   0  0  0  0  0  0  0  0  0  0  0  0
    6.3127  -11.8898   26.6943 C   0  0  0  0  0  0  0  0  0  0  0  0
    7.6744  -11.9511   26.8673 C   0  0  0  0  0  0  0  0  0  0  0  0
    8.3259  -13.1606   26.7111 C   0  0  0  0  0  0  0  0  0  0  0  0
   10.2989  -16.7409   25.3624 C   0  0  0  0  0  0  0  0  0  0  0  0
   10.3628  -17.7473   24.4204 O   0  0  0  0  0  0  0  0  0  0  0  0
   11.0146  -16.8260   26.3834 O   0  0  0  0  0  0  0  0  0  0  0  0
  2  1  1  6
  2  4  1  0
  3  2  1  0
  4  8  1  0
  4  5  2  0
  7  6  1  1
  8  7  1  0
  9  7  1  0
  9 10  2  0
 11  9  1  0
 12 11  1  0
 12 13  1  1
 13 14  1  0
 14 19  2  0
 14 15  1  0
 15 16  2  0
 16 17  1  0
 18 17  2  0
 19 18  1  0
 20 12  1  0
 21 20  1  0
 22 20  2  0
M  END
$$$$
