AAF.pdb
     RDKit          3D

 22 22  0  0  1  0  0  0  0  0999 V2000
    6.3525  -18.5210   19.0105 C   0  0  0  0  0  0  0  0  0  0  0  0
    6.9044  -18.3077   20.4019 C   0  0  2  0  0  0  0  0  0  0  0  0
    5.8155  -18.3232   21.3377 N   0  0  0  0  0  0  0  0  0  0  0  0
    7.7249  -17.0774   20.4956 C   0  0  0  0  0  0  0  0  0  0  0  0
    8.8667  -17.0885   19.9676 O   0  0  0  0  0  0  0  0  0  0  0  0
    7.1079  -13.5176   21.0528 C   0  0  0  0  0  0  0  0  0  0  0  0
    8.1061  -14.6807   21.1182 C   0  0  2  0  0  0  0  0  0  0  0  0
    7.3063  -15.8917   21.1408 N   0  0  0  0  0  0  0  0  0  0  0  0
    8.8842  -14.5015   22.3591 C   0  0  0  0  0  0  0  0  0  0  0  0
    9.7490  -13.5892   22.5169 O   0  0  0  0  0  0  0  0  0  0  0  0
    8.6582  -15.3888   23.4295 N   0  0  0  0  0  0  0  0  0  0  0  0
    9.3981  -15.3383   24.6832 C   0  0  1  0  0  0  0  0  0  0  0  0
    8.3720  -15.3690   25.7911 C   0  0  0  0  0  0  0  0  0  0  0  0
    7.8215  -14.0301   26.0728 C   0  0  0  0  0  0  0  0  0  0  0  0
    6.4509  -13.8344   26.0463 C   0  0  0  0  0  0  0  0  0  0  0  0
    5.8775  -12.6102   26.3170 C   0  0  0  0  0  0  0  0  0  0  0  0
    6.6915  -11.5355   26.6265 C   0  0  0  0  0  0  0  0  0  0  0  0
    8.0554  -11.6978   26.6610 C   0  0  0  0  0  0  0  0  0  0  0  0
    8.5997  -12.9386   26.3848 C   0  0  0  0  0  0  0  0  0  0  0  0
   10.2401  -16.5374   24.7695 C   0  0  0  0  0  0  0  0  0  0  0  0
   10.1914  -17.5135   23.7953 O   0  0  0  0  0  0  0  0  0  0  0  0
   11.0168  -16.6905   25.7365 O   0  0  0  0  0  0  0  0  0  0  0  0
  2  1  1  6
  2  4  1  0
  3  2  1  0
  4  8  1  0
  4  5  2  0
  7  6  1  1
  8  7  1  0
  9  7  1  0
  9 10  2  0
 11  9  1  0
 12 11  1  0
 12 13  1  1
 13 14  1  0
 14 19  2  0
 14 15  1  0
 15 16  2  0
 16 17  1  0
 18 17  2  0
 19 18  1  0
 20 12  1  0
 21 20  1  0
 22 20  2  0
M  END
$$$$
