HSW.pdb
     RDKit          3D

 31 33  0  0  1  0  0  0  0  0999 V2000
    8.4750  -17.2204   17.7801 N   0  0  0  0  0  0  0  0  0  0  0  0
    9.1053  -16.2352   18.6181 C   0  0  1  0  0  0  0  0  0  0  0  0
    8.2397  -15.0126   18.6956 C   0  0  0  0  0  0  0  0  0  0  0  0
    8.1593  -14.4272   17.3397 C   0  0  0  0  0  0  0  0  0  0  0  0
    8.7341  -13.2594   16.8923 C   0  0  0  0  0  0  0  0  0  0  0  0
    8.3986  -13.1101   15.5760 N   0  0  0  0  0  0  0  0  0  0  0  0
    7.6401  -14.1522   15.2182 C   0  0  0  0  0  0  0  0  0  0  0  0
    7.4980  -14.9478   16.2917 N   0  0  0  0  0  0  0  0  0  0  0  0
    9.4833  -16.7813   19.9426 C   0  0  0  0  0  0  0  0  0  0  0  0
    8.5505  -17.0971   20.7382 O   0  0  0  0  0  0  0  0  0  0  0  0
   13.5540  -16.9527   21.3681 O   0  0  0  0  0  0  0  0  0  0  0  0
   12.6233  -17.9337   21.6119 C   0  0  0  0  0  0  0  0  0  0  0  0
   11.2083  -17.4607   21.6640 C   0  0  2  0  0  0  0  0  0  0  0  0
   10.8194  -16.9689   20.3659 N   0  0  0  0  0  0  0  0  0  0  0  0
   10.9926  -16.4446   22.7174 C   0  0  0  0  0  0  0  0  0  0  0  0
   11.0747  -15.2225   22.4215 O   0  0  0  0  0  0  0  0  0  0  0  0
   10.6957  -16.7243   24.0560 N   0  0  0  0  0  0  0  0  0  0  0  0
    9.7797  -15.9990   24.8863 C   0  0  1  0  0  0  0  0  0  0  0  0
    8.4718  -15.6895   24.3197 C   0  0  0  0  0  0  0  0  0  0  0  0
    7.4879  -15.0276   25.2052 C   0  0  0  0  0  0  0  0  0  0  0  0
    6.4066  -15.7083   25.8019 C   0  0  0  0  0  0  0  0  0  0  0  0
    5.7170  -14.8488   26.5910 N   0  0  0  0  0  0  0  0  0  0  0  0
    6.2824  -13.6548   26.5424 C   0  0  0  0  0  0  0  0  0  0  0  0
    5.9702  -12.4590   27.1412 C   0  0  0  0  0  0  0  0  0  0  0  0
    6.7199  -11.3128   26.9233 C   0  0  0  0  0  0  0  0  0  0  0  0
    7.8114  -11.4287   26.0635 C   0  0  0  0  0  0  0  0  0  0  0  0
    8.1338  -12.6229   25.4582 C   0  0  0  0  0  0  0  0  0  0  0  0
    7.3691  -13.7554   25.6938 C   0  0  0  0  0  0  0  0  0  0  0  0
    9.7098  -16.6434   26.1947 C   0  0  0  0  0  0  0  0  0  0  0  0
    9.5277  -17.8742   26.4034 O   0  0  0  0  0  0  0  0  0  0  0  0
    9.8503  -15.8842   27.3774 O   0  0  0  0  0  0  0  0  0  0  0  0
  2  1  1  6
  2  9  1  0
  2  3  1  0
  3  4  1  0
  4  5  2  0
  4  8  1  0
  5  6  1  0
  6  7  1  0
  8  7  2  0
  9 10  2  0
 11 12  1  0
 13 12  1  6
 14 13  1  0
 14  9  1  0
 15 17  1  0
 15 13  1  0
 16 15  2  0
 18 19  1  6
 18 17  1  0
 19 20  1  0
 20 21  2  0
 21 22  1  0
 23 22  1  0
 24 23  2  0
 25 24  1  0
 26 27  1  0
 26 25  2  0
 27 28  2  0
 28 20  1  0
 28 23  1  0
 29 31  1  0
 29 18  1  0
 30 29  2  0
M  END
$$$$
