HSW.pdb
     RDKit          3D

 31 33  0  0  1  0  0  0  0  0999 V2000
    8.1942  -16.2383   17.5553 N   0  0  0  0  0  0  0  0  0  0  0  0
    8.6472  -15.2826   18.5309 C   0  0  1  0  0  0  0  0  0  0  0  0
    8.0226  -13.9471   18.2546 C   0  0  0  0  0  0  0  0  0  0  0  0
    8.1149  -13.6956   16.8000 C   0  0  0  0  0  0  0  0  0  0  0  0
    7.1376  -13.1970   15.9689 C   0  0  0  0  0  0  0  0  0  0  0  0
    7.6603  -13.1304   14.7080 N   0  0  0  0  0  0  0  0  0  0  0  0
    8.9215  -13.5734   14.7553 C   0  0  0  0  0  0  0  0  0  0  0  0
    9.1921  -13.9149   16.0265 N   0  0  0  0  0  0  0  0  0  0  0  0
    8.4459  -15.7575   19.9198 C   0  0  0  0  0  0  0  0  0  0  0  0
    7.6260  -15.1235   20.6468 O   0  0  0  0  0  0  0  0  0  0  0  0
   10.0527  -19.4579   21.2372 O   0  0  0  0  0  0  0  0  0  0  0  0
    8.8584  -18.9337   21.6696 C   0  0  0  0  0  0  0  0  0  0  0  0
    8.8225  -17.4445   21.7672 C   0  0  2  0  0  0  0  0  0  0  0  0
    9.1140  -16.8726   20.4764 N   0  0  0  0  0  0  0  0  0  0  0  0
    9.7350  -16.9264   22.8101 C   0  0  0  0  0  0  0  0  0  0  0  0
   10.9279  -16.6562   22.5070 O   0  0  0  0  0  0  0  0  0  0  0  0
    9.3842  -16.7006   24.1459 N   0  0  0  0  0  0  0  0  0  0  0  0
   10.2827  -16.3515   25.2066 C   0  0  1  0  0  0  0  0  0  0  0  0
    9.9634  -15.1579   25.9818 C   0  0  0  0  0  0  0  0  0  0  0  0
    8.5316  -14.8503   26.1956 C   0  0  0  0  0  0  0  0  0  0  0  0
    7.5229  -15.8357   26.1979 C   0  0  0  0  0  0  0  0  0  0  0  0
    6.3288  -15.2536   26.4668 N   0  0  0  0  0  0  0  0  0  0  0  0
    6.5002  -13.9539   26.6378 C   0  0  0  0  0  0  0  0  0  0  0  0
    5.6229  -12.9344   26.9151 C   0  0  0  0  0  0  0  0  0  0  0  0
    6.0439  -11.6188   27.0382 C   0  0  0  0  0  0  0  0  0  0  0  0
    7.4060  -11.3752   26.8666 C   0  0  0  0  0  0  0  0  0  0  0  0
    8.2945  -12.3901   26.5888 C   0  0  0  0  0  0  0  0  0  0  0  0
    7.8485  -13.6978   26.4723 C   0  0  0  0  0  0  0  0  0  0  0  0
   10.5295  -17.5317   26.0300 C   0  0  0  0  0  0  0  0  0  0  0  0
    9.9223  -18.6341   25.9422 O   0  0  0  0  0  0  0  0  0  0  0  0
   11.5220  -17.5115   27.0347 O   0  0  0  0  0  0  0  0  0  0  0  0
  2  1  1  6
  2  9  1  0
  2  3  1  0
  3  4  1  0
  4  5  2  0
  4  8  1  0
  5  6  1  0
  6  7  1  0
  8  7  2  0
  9 10  2  0
 11 12  1  0
 13 12  1  6
 14 13  1  0
 14  9  1  0
 15 17  1  0
 15 13  1  0
 16 15  2  0
 18 19  1  1
 18 17  1  0
 19 20  1  0
 20 21  2  0
 21 22  1  0
 23 22  1  0
 24 23  2  0
 25 24  1  0
 26 27  1  0
 26 25  2  0
 27 28  2  0
 28 20  1  0
 28 23  1  0
 29 31  1  0
 29 18  1  0
 30 29  2  0
M  END
$$$$
