HSW.pdb
     RDKit          3D

 31 33  0  0  1  0  0  0  0  0999 V2000
   11.4382  -17.8853   17.7317 N   0  0  0  0  0  0  0  0  0  0  0  0
   11.4807  -18.5718   18.9955 C   0  0  1  0  0  0  0  0  0  0  0  0
   12.9077  -18.8218   19.3844 C   0  0  0  0  0  0  0  0  0  0  0  0
   13.3743  -20.0187   18.6515 C   0  0  0  0  0  0  0  0  0  0  0  0
   12.7401  -21.2348   18.5361 C   0  0  0  0  0  0  0  0  0  0  0  0
   13.5311  -22.0437   17.7697 N   0  0  0  0  0  0  0  0  0  0  0  0
   14.6213  -21.3516   17.4208 C   0  0  0  0  0  0  0  0  0  0  0  0
   14.5211  -20.1242   17.9584 N   0  0  0  0  0  0  0  0  0  0  0  0
   10.6924  -17.8773   20.0402 C   0  0  0  0  0  0  0  0  0  0  0  0
   10.7477  -16.6130   20.0778 O   0  0  0  0  0  0  0  0  0  0  0  0
    8.2001  -19.9662   22.8479 O   0  0  0  0  0  0  0  0  0  0  0  0
    7.9061  -18.7290   22.3274 C   0  0  0  0  0  0  0  0  0  0  0  0
    9.0931  -17.8847   22.0005 C   0  0  2  0  0  0  0  0  0  0  0  0
    9.8861  -18.5427   20.9923 N   0  0  0  0  0  0  0  0  0  0  0  0
    9.8982  -17.5575   23.1977 C   0  0  0  0  0  0  0  0  0  0  0  0
   10.9514  -18.2094   23.4297 O   0  0  0  0  0  0  0  0  0  0  0  0
    9.5885  -16.5578   24.1267 N   0  0  0  0  0  0  0  0  0  0  0  0
   10.2210  -16.3623   25.3980 C   0  0  1  0  0  0  0  0  0  0  0  0
    9.9562  -15.1032   26.0851 C   0  0  0  0  0  0  0  0  0  0  0  0
    8.5662  -14.5956   26.0601 C   0  0  0  0  0  0  0  0  0  0  0  0
    7.4367  -15.4397   26.0536 C   0  0  0  0  0  0  0  0  0  0  0  0
    6.3123  -14.6833   26.0793 N   0  0  0  0  0  0  0  0  0  0  0  0
    6.6421  -13.4033   26.1011 C   0  0  0  0  0  0  0  0  0  0  0  0
    5.8892  -12.2549   26.1210 C   0  0  0  0  0  0  0  0  0  0  0  0
    6.4723  -10.9967   26.1276 C   0  0  0  0  0  0  0  0  0  0  0  0
    7.8657  -10.9486   26.1126 C   0  0  0  0  0  0  0  0  0  0  0  0
    8.6303  -12.0938   26.0931 C   0  0  0  0  0  0  0  0  0  0  0  0
    8.0229  -13.3404   26.0886 C   0  0  0  0  0  0  0  0  0  0  0  0
    9.9909  -17.5395   26.2306 C   0  0  0  0  0  0  0  0  0  0  0  0
    9.1054  -18.4177   26.0403 O   0  0  0  0  0  0  0  0  0  0  0  0
   10.7930  -17.7827   27.3675 O   0  0  0  0  0  0  0  0  0  0  0  0
  2  1  1  6
  2  9  1  0
  2  3  1  0
  3  4  1  0
  4  5  2  0
  4  8  1  0
  5  6  1  0
  6  7  1  0
  8  7  2  0
  9 10  2  0
 11 12  1  0
 13 12  1  1
 14 13  1  0
 14  9  1  0
 15 17  1  0
 15 13  1  0
 16 15  2  0
 18 19  1  1
 18 17  1  0
 19 20  1  0
 20 21  2  0
 21 22  1  0
 23 22  1  0
 24 23  2  0
 25 24  1  0
 26 27  1  0
 26 25  2  0
 27 28  2  0
 28 20  1  0
 28 23  1  0
 29 31  1  0
 29 18  1  0
 30 29  2  0
M  END
$$$$
