HSW.pdb
     RDKit          3D

 31 33  0  0  1  0  0  0  0  0999 V2000
    8.4505  -17.5223   16.6571 N   0  0  0  0  0  0  0  0  0  0  0  0
    8.8110  -16.5956   17.6971 C   0  0  1  0  0  0  0  0  0  0  0  0
    7.8059  -15.4835   17.7505 C   0  0  0  0  0  0  0  0  0  0  0  0
    7.9984  -14.6402   16.5507 C   0  0  0  0  0  0  0  0  0  0  0  0
    8.8900  -14.8344   15.5204 C   0  0  0  0  0  0  0  0  0  0  0  0
    8.7208  -13.8135   14.6278 N   0  0  0  0  0  0  0  0  0  0  0  0
    7.7550  -13.0115   15.0898 C   0  0  0  0  0  0  0  0  0  0  0  0
    7.3204  -13.5176   16.2563 N   0  0  0  0  0  0  0  0  0  0  0  0
    9.0248  -17.2672   19.0003 C   0  0  0  0  0  0  0  0  0  0  0  0
    8.6123  -18.4577   19.1248 O   0  0  0  0  0  0  0  0  0  0  0  0
   12.0675  -18.1716   20.3121 O   0  0  0  0  0  0  0  0  0  0  0  0
   10.9156  -18.4977   20.9865 C   0  0  0  0  0  0  0  0  0  0  0  0
   10.0320  -17.3415   21.3199 C   0  0  2  0  0  0  0  0  0  0  0  0
    9.6599  -16.6574   20.1067 N   0  0  0  0  0  0  0  0  0  0  0  0
   10.6548  -16.4196   22.2950 C   0  0  0  0  0  0  0  0  0  0  0  0
   11.1995  -15.3610   21.8819 O   0  0  0  0  0  0  0  0  0  0  0  0
   10.6961  -16.6208   23.6792 N   0  0  0  0  0  0  0  0  0  0  0  0
    9.7939  -16.0586   24.6406 C   0  0  1  0  0  0  0  0  0  0  0  0
    8.3746  -16.0675   24.3043 C   0  0  0  0  0  0  0  0  0  0  0  0
    7.4814  -15.2025   25.1069 C   0  0  0  0  0  0  0  0  0  0  0  0
    6.2396  -15.6365   25.6150 C   0  0  0  0  0  0  0  0  0  0  0  0
    5.6816  -14.6402   26.3451 N   0  0  0  0  0  0  0  0  0  0  0  0
    6.4828  -13.5885   26.3412 C   0  0  0  0  0  0  0  0  0  0  0  0
    6.3772  -12.3439   26.9119 C   0  0  0  0  0  0  0  0  0  0  0  0
    7.3615  -11.3798   26.7542 C   0  0  0  0  0  0  0  0  0  0  0  0
    8.4701  -11.7320   25.9854 C   0  0  0  0  0  0  0  0  0  0  0  0
    8.5864  -12.9773   25.4090 C   0  0  0  0  0  0  0  0  0  0  0  0
    7.5888  -13.9246   25.5832 C   0  0  0  0  0  0  0  0  0  0  0  0
   10.0844  -16.6248   25.9547 C   0  0  0  0  0  0  0  0  0  0  0  0
   10.1792  -17.8534   26.2255 O   0  0  0  0  0  0  0  0  0  0  0  0
   10.2898  -15.7827   27.0699 O   0  0  0  0  0  0  0  0  0  0  0  0
  2  1  1  6
  2  9  1  0
  2  3  1  0
  3  4  1  0
  4  5  2  0
  4  8  1  0
  5  6  1  0
  6  7  1  0
  8  7  2  0
  9 10  2  0
 11 12  1  0
 13 12  1  6
 14 13  1  0
 14  9  1  0
 15 17  1  0
 15 13  1  0
 16 15  2  0
 18 19  1  6
 18 17  1  0
 19 20  1  0
 20 21  2  0
 21 22  1  0
 23 22  1  0
 24 23  2  0
 25 24  1  0
 26 27  1  0
 26 25  2  0
 27 28  2  0
 28 20  1  0
 28 23  1  0
 29 31  1  0
 29 18  1  0
 30 29  2  0
M  END
$$$$
