HSW.pdb
     RDKit          3D

 31 33  0  0  1  0  0  0  0  0999 V2000
    7.6640  -13.4736   17.1047 N   0  0  0  0  0  0  0  0  0  0  0  0
    8.4783  -14.5595   17.5823 C   0  0  1  0  0  0  0  0  0  0  0  0
    9.9234  -14.2606   17.3138 C   0  0  0  0  0  0  0  0  0  0  0  0
   10.4540  -15.3320   16.4432 C   0  0  0  0  0  0  0  0  0  0  0  0
   10.2185  -15.5184   15.1001 C   0  0  0  0  0  0  0  0  0  0  0  0
   10.9106  -16.6297   14.7082 N   0  0  0  0  0  0  0  0  0  0  0  0
   11.5548  -17.1172   15.7743 C   0  0  0  0  0  0  0  0  0  0  0  0
   11.2744  -16.3264   16.8239 N   0  0  0  0  0  0  0  0  0  0  0  0
    8.1934  -14.8969   18.9967 C   0  0  0  0  0  0  0  0  0  0  0  0
    7.9956  -13.9409   19.8026 O   0  0  0  0  0  0  0  0  0  0  0  0
    7.9686  -18.9592   20.5070 O   0  0  0  0  0  0  0  0  0  0  0  0
    7.0896  -17.9423   20.7923 C   0  0  0  0  0  0  0  0  0  0  0  0
    7.6932  -16.5772   20.8207 C   0  0  2  0  0  0  0  0  0  0  0  0
    8.1303  -16.2189   19.4945 N   0  0  0  0  0  0  0  0  0  0  0  0
    8.7932  -16.4682   21.8039 C   0  0  0  0  0  0  0  0  0  0  0  0
    9.9865  -16.5020   21.4004 O   0  0  0  0  0  0  0  0  0  0  0  0
    8.6257  -16.3260   23.1859 N   0  0  0  0  0  0  0  0  0  0  0  0
    9.6737  -16.2826   24.1627 C   0  0  1  0  0  0  0  0  0  0  0  0
    9.6441  -15.1828   25.1204 C   0  0  0  0  0  0  0  0  0  0  0  0
    8.3155  -14.6786   25.5339 C   0  0  0  0  0  0  0  0  0  0  0  0
    7.1884  -15.5115   25.6892 C   0  0  0  0  0  0  0  0  0  0  0  0
    6.1394  -14.7697   26.1209 N   0  0  0  0  0  0  0  0  0  0  0  0
    6.5155  -13.5094   26.2541 C   0  0  0  0  0  0  0  0  0  0  0  0
    5.8399  -12.3794   26.6449 C   0  0  0  0  0  0  0  0  0  0  0  0
    6.4560  -11.1380   26.6948 C   0  0  0  0  0  0  0  0  0  0  0  0
    7.8003  -11.0872   26.3280 C   0  0  0  0  0  0  0  0  0  0  0  0
    8.4874  -12.2142   25.9351 C   0  0  0  0  0  0  0  0  0  0  0  0
    7.8489  -13.4444   25.8952 C   0  0  0  0  0  0  0  0  0  0  0  0
    9.7969  -17.5962   24.7881 C   0  0  0  0  0  0  0  0  0  0  0  0
    8.9607  -18.5369   24.7020 O   0  0  0  0  0  0  0  0  0  0  0  0
   10.9264  -17.9140   25.5744 O   0  0  0  0  0  0  0  0  0  0  0  0
  2  1  1  1
  2  9  1  0
  2  3  1  0
  3  4  1  0
  4  5  2  0
  4  8  1  0
  5  6  1  0
  6  7  1  0
  8  7  2  0
  9 10  2  0
 11 12  1  0
 13 12  1  6
 14 13  1  0
 14  9  1  0
 15 17  1  0
 15 13  1  0
 16 15  2  0
 18 19  1  1
 18 17  1  0
 19 20  1  0
 20 21  2  0
 21 22  1  0
 23 22  1  0
 24 23  2  0
 25 24  1  0
 26 27  1  0
 26 25  2  0
 27 28  2  0
 28 20  1  0
 28 23  1  0
 29 31  1  0
 29 18  1  0
 30 29  2  0
M  END
$$$$
