HSW.pdb
     RDKit          3D

 31 33  0  0  1  0  0  0  0  0999 V2000
    8.3484  -17.5654   17.7599 N   0  0  0  0  0  0  0  0  0  0  0  0
    9.2033  -16.7799   18.6099 C   0  0  1  0  0  0  0  0  0  0  0  0
    8.6831  -15.3750   18.6864 C   0  0  0  0  0  0  0  0  0  0  0  0
    8.7129  -14.8055   17.3217 C   0  0  0  0  0  0  0  0  0  0  0  0
    9.1117  -15.4262   16.1598 C   0  0  0  0  0  0  0  0  0  0  0  0
    8.9728  -14.5265   15.1406 N   0  0  0  0  0  0  0  0  0  0  0  0
    8.5028  -13.3842   15.6538 C   0  0  0  0  0  0  0  0  0  0  0  0
    8.3471  -13.5589   16.9771 N   0  0  0  0  0  0  0  0  0  0  0  0
    9.4123  -17.4097   19.9346 C   0  0  0  0  0  0  0  0  0  0  0  0
    8.3876  -17.6837   20.6256 O   0  0  0  0  0  0  0  0  0  0  0  0
   13.2688  -18.6059   21.2654 O   0  0  0  0  0  0  0  0  0  0  0  0
   12.1123  -19.2502   21.6335 C   0  0  0  0  0  0  0  0  0  0  0  0
   10.9074  -18.3744   21.7332 C   0  0  2  0  0  0  0  0  0  0  0  0
   10.6846  -17.7204   20.4679 N   0  0  0  0  0  0  0  0  0  0  0  0
   11.0112  -17.3976   22.8394 C   0  0  0  0  0  0  0  0  0  0  0  0
   11.5699  -16.2874   22.6314 O   0  0  0  0  0  0  0  0  0  0  0  0
   10.5300  -17.5989   24.1379 N   0  0  0  0  0  0  0  0  0  0  0  0
   10.8272  -16.7892   25.2827 C   0  0  1  0  0  0  0  0  0  0  0  0
   10.1993  -15.4743   25.3474 C   0  0  0  0  0  0  0  0  0  0  0  0
    8.8121  -15.3591   24.8448 C   0  0  0  0  0  0  0  0  0  0  0  0
    7.7000  -15.9060   25.5176 C   0  0  0  0  0  0  0  0  0  0  0  0
    6.5686  -15.5944   24.8395 N   0  0  0  0  0  0  0  0  0  0  0  0
    6.8776  -14.8812   23.7701 C   0  0  0  0  0  0  0  0  0  0  0  0
    6.1113  -14.3370   22.7688 C   0  0  0  0  0  0  0  0  0  0  0  0
    6.6741  -13.6248   21.7203 C   0  0  0  0  0  0  0  0  0  0  0  0
    8.0614  -13.4852   21.7274 C   0  0  0  0  0  0  0  0  0  0  0  0
    8.8393  -14.0264   22.7266 C   0  0  0  0  0  0  0  0  0  0  0  0
    8.2520  -14.7329   23.7652 C   0  0  0  0  0  0  0  0  0  0  0  0
   10.6371  -17.5853   26.4918 C   0  0  0  0  0  0  0  0  0  0  0  0
   10.1472  -18.7468   26.5423 O   0  0  0  0  0  0  0  0  0  0  0  0
   11.0122  -17.0746   27.7541 O   0  0  0  0  0  0  0  0  0  0  0  0
  2  1  1  6
  2  9  1  0
  2  3  1  0
  3  4  1  0
  4  5  2  0
  4  8  1  0
  5  6  1  0
  6  7  1  0
  8  7  2  0
  9 10  2  0
 11 12  1  0
 13 12  1  6
 14 13  1  0
 14  9  1  0
 15 17  1  0
 15 13  1  0
 16 15  2  0
 18 19  1  1
 18 17  1  0
 19 20  1  0
 20 21  2  0
 21 22  1  0
 23 22  1  0
 24 23  2  0
 25 24  1  0
 26 27  1  0
 26 25  2  0
 27 28  2  0
 28 20  1  0
 28 23  1  0
 29 31  1  0
 29 18  1  0
 30 29  2  0
M  END
$$$$
