HSW.pdb
     RDKit          3D

 31 33  0  0  1  0  0  0  0  0999 V2000
   11.2733  -17.1628   18.0886 N   0  0  0  0  0  0  0  0  0  0  0  0
   11.7030  -16.8503   19.4257 C   0  0  1  0  0  0  0  0  0  0  0  0
   12.3384  -15.4917   19.4454 C   0  0  0  0  0  0  0  0  0  0  0  0
   13.6833  -15.6113   18.8418 C   0  0  0  0  0  0  0  0  0  0  0  0
   14.7561  -16.3327   19.3141 C   0  0  0  0  0  0  0  0  0  0  0  0
   15.7913  -16.1568   18.4395 N   0  0  0  0  0  0  0  0  0  0  0  0
   15.3739  -15.3519   17.4559 C   0  0  0  0  0  0  0  0  0  0  0  0
   14.0948  -15.0240   17.7050 N   0  0  0  0  0  0  0  0  0  0  0  0
   10.6156  -17.0128   20.4189 C   0  0  0  0  0  0  0  0  0  0  0  0
    9.6554  -16.1886   20.3822 O   0  0  0  0  0  0  0  0  0  0  0  0
   10.2292  -20.3302   23.2070 O   0  0  0  0  0  0  0  0  0  0  0  0
    9.2424  -19.5072   22.7202 C   0  0  0  0  0  0  0  0  0  0  0  0
    9.6566  -18.0903   22.4974 C   0  0  2  0  0  0  0  0  0  0  0  0
   10.5896  -18.0309   21.4000 N   0  0  0  0  0  0  0  0  0  0  0  0
   10.2131  -17.4677   23.7186 C   0  0  0  0  0  0  0  0  0  0  0  0
   11.2774  -16.7978   23.6391 O   0  0  0  0  0  0  0  0  0  0  0  0
    9.6480  -17.5563   24.9957 N   0  0  0  0  0  0  0  0  0  0  0  0
    9.9559  -16.7152   26.1147 C   0  0  1  0  0  0  0  0  0  0  0  0
    9.7330  -15.2832   25.9505 C   0  0  0  0  0  0  0  0  0  0  0  0
    8.3299  -14.8128   25.9279 C   0  0  0  0  0  0  0  0  0  0  0  0
    7.2292  -15.6774   25.7566 C   0  0  0  0  0  0  0  0  0  0  0  0
    6.0811  -14.9607   25.8297 N   0  0  0  0  0  0  0  0  0  0  0  0
    6.3687  -13.6870   26.0365 C   0  0  0  0  0  0  0  0  0  0  0  0
    5.5794  -12.5715   26.1734 C   0  0  0  0  0  0  0  0  0  0  0  0
    6.1213  -11.3109   26.3742 C   0  0  0  0  0  0  0  0  0  0  0  0
    7.5118  -11.2252   26.4311 C   0  0  0  0  0  0  0  0  0  0  0  0
    8.3127  -12.3373   26.2956 C   0  0  0  0  0  0  0  0  0  0  0  0
    7.7461  -13.5873   26.0973 C   0  0  0  0  0  0  0  0  0  0  0  0
    9.3307  -17.2682   27.3128 C   0  0  0  0  0  0  0  0  0  0  0  0
    9.4909  -16.8473   28.4912 O   0  0  0  0  0  0  0  0  0  0  0  0
    8.4560  -18.3734   27.2212 O   0  0  0  0  0  0  0  0  0  0  0  0
  2  1  1  6
  2  9  1  0
  2  3  1  0
  3  4  1  0
  4  5  2  0
  4  8  1  0
  5  6  1  0
  6  7  1  0
  8  7  2  0
  9 10  2  0
 11 12  1  0
 13 12  1  1
 14 13  1  0
 14  9  1  0
 15 17  1  0
 15 13  1  0
 16 15  2  0
 18 19  1  6
 18 17  1  0
 19 20  1  0
 20 21  2  0
 21 22  1  0
 23 22  1  0
 24 23  2  0
 25 24  1  0
 26 27  1  0
 26 25  2  0
 27 28  2  0
 28 20  1  0
 28 23  1  0
 29 31  1  0
 29 18  1  0
 30 29  2  0
M  END
$$$$
