HSW.pdb
     RDKit          3D

 31 33  0  0  1  0  0  0  0  0999 V2000
    8.0744  -16.9900   18.7449 N   0  0  0  0  0  0  0  0  0  0  0  0
    8.6450  -16.1569   19.7700 C   0  0  1  0  0  0  0  0  0  0  0  0
    7.9001  -14.8565   19.8338 C   0  0  0  0  0  0  0  0  0  0  0  0
    8.0728  -14.1707   18.5349 C   0  0  0  0  0  0  0  0  0  0  0  0
    8.9189  -13.1255   18.2415 C   0  0  0  0  0  0  0  0  0  0  0  0
    8.7484  -12.8121   16.9223 N   0  0  0  0  0  0  0  0  0  0  0  0
    7.8261  -13.6366   16.4135 C   0  0  0  0  0  0  0  0  0  0  0  0
    7.4197  -14.4585   17.3959 N   0  0  0  0  0  0  0  0  0  0  0  0
    8.7384  -16.8536   21.0743 C   0  0  0  0  0  0  0  0  0  0  0  0
    7.6803  -16.9653   21.7603 O   0  0  0  0  0  0  0  0  0  0  0  0
   12.2937  -18.8065   22.3700 O   0  0  0  0  0  0  0  0  0  0  0  0
   11.0324  -19.1666   22.7793 C   0  0  0  0  0  0  0  0  0  0  0  0
   10.0566  -18.0411   22.8778 C   0  0  2  0  0  0  0  0  0  0  0  0
    9.9359  -17.3979   21.5933 N   0  0  0  0  0  0  0  0  0  0  0  0
   10.4170  -17.0745   23.9383 C   0  0  0  0  0  0  0  0  0  0  0  0
   11.1539  -16.0928   23.6534 O   0  0  0  0  0  0  0  0  0  0  0  0
   10.0013  -17.1520   25.2722 N   0  0  0  0  0  0  0  0  0  0  0  0
   10.4011  -16.2744   26.3327 C   0  0  1  0  0  0  0  0  0  0  0  0
    9.9827  -14.8806   26.2349 C   0  0  0  0  0  0  0  0  0  0  0  0
    8.5287  -14.6111   26.1733 C   0  0  0  0  0  0  0  0  0  0  0  0
    7.5593  -15.6295   26.0660 C   0  0  0  0  0  0  0  0  0  0  0  0
    6.3229  -15.0743   26.0815 N   0  0  0  0  0  0  0  0  0  0  0  0
    6.4304  -13.7612   26.1910 C   0  0  0  0  0  0  0  0  0  0  0  0
    5.4938  -12.7580   26.2404 C   0  0  0  0  0  0  0  0  0  0  0  0
    5.8550  -11.4232   26.3454 C   0  0  0  0  0  0  0  0  0  0  0  0
    7.2198  -11.1427   26.3987 C   0  0  0  0  0  0  0  0  0  0  0  0
    8.1673  -12.1409   26.3505 C   0  0  0  0  0  0  0  0  0  0  0  0
    7.7802  -13.4684   26.2471 C   0  0  0  0  0  0  0  0  0  0  0  0
   10.0705  -16.8931   27.6133 C   0  0  0  0  0  0  0  0  0  0  0  0
   10.3261  -16.4154   28.7526 O   0  0  0  0  0  0  0  0  0  0  0  0
    9.4045  -18.1378   27.6586 O   0  0  0  0  0  0  0  0  0  0  0  0
  2  1  1  6
  2  9  1  0
  2  3  1  0
  3  4  1  0
  4  5  2  0
  4  8  1  0
  5  6  1  0
  6  7  1  0
  8  7  2  0
  9 10  2  0
 11 12  1  0
 13 12  1  6
 14 13  1  0
 14  9  1  0
 15 17  1  0
 15 13  1  0
 16 15  2  0
 18 19  1  6
 18 17  1  0
 19 20  1  0
 20 21  2  0
 21 22  1  0
 23 22  1  0
 24 23  2  0
 25 24  1  0
 26 27  1  0
 26 25  2  0
 27 28  2  0
 28 20  1  0
 28 23  1  0
 29 31  1  0
 29 18  1  0
 30 29  2  0
M  END
$$$$
