HSW.pdb
     RDKit          3D

 31 33  0  0  1  0  0  0  0  0999 V2000
    7.8541  -17.2628   18.3561 N   0  0  0  0  0  0  0  0  0  0  0  0
    8.5791  -16.5051   19.3412 C   0  0  1  0  0  0  0  0  0  0  0  0
    8.0021  -15.1239   19.4383 C   0  0  0  0  0  0  0  0  0  0  0  0
    8.2210  -14.4488   18.1407 C   0  0  0  0  0  0  0  0  0  0  0  0
    8.8078  -14.9696   17.0100 C   0  0  0  0  0  0  0  0  0  0  0  0
    8.7984  -13.9953   16.0518 N   0  0  0  0  0  0  0  0  0  0  0  0
    8.2241  -12.9047   16.5716 C   0  0  0  0  0  0  0  0  0  0  0  0
    7.8758  -13.1853   17.8387 N   0  0  0  0  0  0  0  0  0  0  0  0
    8.6622  -17.2079   20.6429 C   0  0  0  0  0  0  0  0  0  0  0  0
    7.6290  -17.8138   21.0529 O   0  0  0  0  0  0  0  0  0  0  0  0
   11.7731  -19.1231   22.0531 O   0  0  0  0  0  0  0  0  0  0  0  0
   10.5779  -19.1175   22.7310 C   0  0  0  0  0  0  0  0  0  0  0  0
    9.8862  -17.7954   22.7777 C   0  0  2  0  0  0  0  0  0  0  0  0
    9.8237  -17.2402   21.4488 N   0  0  0  0  0  0  0  0  0  0  0  0
   10.5246  -16.8592   23.7288 C   0  0  0  0  0  0  0  0  0  0  0  0
   11.7767  -16.7190   23.7096 O   0  0  0  0  0  0  0  0  0  0  0  0
    9.8441  -16.0892   24.6786 N   0  0  0  0  0  0  0  0  0  0  0  0
   10.1045  -16.0643   26.0879 C   0  0  1  0  0  0  0  0  0  0  0  0
    8.9498  -15.9860   26.9755 C   0  0  0  0  0  0  0  0  0  0  0  0
    7.7853  -15.2021   26.5068 C   0  0  0  0  0  0  0  0  0  0  0  0
    6.5293  -15.7788   26.2272 C   0  0  0  0  0  0  0  0  0  0  0  0
    5.6589  -14.8040   25.8676 N   0  0  0  0  0  0  0  0  0  0  0  0
    6.2719  -13.6331   25.8958 C   0  0  0  0  0  0  0  0  0  0  0  0
    5.8446  -12.3590   25.6126 C   0  0  0  0  0  0  0  0  0  0  0  0
    6.6924  -11.2651   25.7024 C   0  0  0  0  0  0  0  0  0  0  0  0
    8.0062  -11.5176   26.0951 C   0  0  0  0  0  0  0  0  0  0  0  0
    8.4450  -12.7911   26.3819 C   0  0  0  0  0  0  0  0  0  0  0  0
    7.5770  -13.8682   26.2861 C   0  0  0  0  0  0  0  0  0  0  0  0
   11.0232  -17.1489   26.4219 C   0  0  0  0  0  0  0  0  0  0  0  0
   11.5535  -17.3474   27.5492 O   0  0  0  0  0  0  0  0  0  0  0  0
   11.3967  -18.0995   25.4462 O   0  0  0  0  0  0  0  0  0  0  0  0
  2  1  1  6
  2  9  1  0
  2  3  1  0
  3  4  1  0
  4  5  2  0
  4  8  1  0
  5  6  1  0
  6  7  1  0
  8  7  2  0
  9 10  2  0
 11 12  1  0
 13 12  1  6
 14 13  1  0
 14  9  1  0
 15 17  1  0
 15 13  1  0
 16 15  2  0
 18 19  1  1
 18 17  1  0
 19 20  1  0
 20 21  2  0
 21 22  1  0
 23 22  1  0
 24 23  2  0
 25 24  1  0
 26 27  1  0
 26 25  2  0
 27 28  2  0
 28 20  1  0
 28 23  1  0
 29 31  1  0
 29 18  1  0
 30 29  2  0
M  END
$$$$
