HSW.pdb
     RDKit          3D

 31 33  0  0  1  0  0  0  0  0999 V2000
    8.2861  -16.9033   19.0732 N   0  0  0  0  0  0  0  0  0  0  0  0
    8.7500  -16.1241   20.1903 C   0  0  1  0  0  0  0  0  0  0  0  0
    7.9012  -14.8957   20.3338 C   0  0  0  0  0  0  0  0  0  0  0  0
    8.0638  -14.0862   19.1067 C   0  0  0  0  0  0  0  0  0  0  0  0
    8.8221  -12.9493   18.9434 C   0  0  0  0  0  0  0  0  0  0  0  0
    8.6781  -12.5376   17.6483 N   0  0  0  0  0  0  0  0  0  0  0  0
    7.8566  -13.3918   17.0280 C   0  0  0  0  0  0  0  0  0  0  0  0
    7.4869  -14.3290   17.9172 N   0  0  0  0  0  0  0  0  0  0  0  0
    8.8514  -16.9255   21.4323 C   0  0  0  0  0  0  0  0  0  0  0  0
    7.8806  -17.6831   21.7262 O   0  0  0  0  0  0  0  0  0  0  0  0
   12.4464  -18.0511   22.8516 O   0  0  0  0  0  0  0  0  0  0  0  0
   11.2790  -18.6608   23.2434 C   0  0  0  0  0  0  0  0  0  0  0  0
   10.1275  -17.7359   23.4610 C   0  0  2  0  0  0  0  0  0  0  0  0
    9.9650  -16.8925   22.3032 N   0  0  0  0  0  0  0  0  0  0  0  0
   10.2717  -16.9384   24.6987 C   0  0  0  0  0  0  0  0  0  0  0  0
   10.8679  -15.8292   24.6517 O   0  0  0  0  0  0  0  0  0  0  0  0
    9.7912  -17.3141   25.9581 N   0  0  0  0  0  0  0  0  0  0  0  0
   10.1032  -16.6782   27.2042 C   0  0  1  0  0  0  0  0  0  0  0  0
    9.0115  -16.0038   27.8975 C   0  0  0  0  0  0  0  0  0  0  0  0
    7.9553  -15.3881   27.0634 C   0  0  0  0  0  0  0  0  0  0  0  0
    6.9604  -16.1370   26.4017 C   0  0  0  0  0  0  0  0  0  0  0  0
    6.1146  -15.2921   25.7629 N   0  0  0  0  0  0  0  0  0  0  0  0
    6.4993  -14.0441   25.9683 C   0  0  0  0  0  0  0  0  0  0  0  0
    5.9970  -12.8397   25.5403 C   0  0  0  0  0  0  0  0  0  0  0  0
    6.5928  -11.6347   25.8814 C   0  0  0  0  0  0  0  0  0  0  0  0
    7.7318  -11.7004   26.6829 C   0  0  0  0  0  0  0  0  0  0  0  0
    8.2436  -12.9026   27.1181 C   0  0  0  0  0  0  0  0  0  0  0  0
    7.6282  -14.0938   26.7645 C   0  0  0  0  0  0  0  0  0  0  0  0
   10.8368  -17.6173   28.0479 C   0  0  0  0  0  0  0  0  0  0  0  0
   11.0494  -18.8334   27.7883 O   0  0  0  0  0  0  0  0  0  0  0  0
   11.3867  -17.1977   29.2794 O   0  0  0  0  0  0  0  0  0  0  0  0
  2  1  1  6
  2  9  1  0
  2  3  1  0
  3  4  1  0
  4  5  2  0
  4  8  1  0
  5  6  1  0
  6  7  1  0
  8  7  2  0
  9 10  2  0
 11 12  1  0
 13 12  1  6
 14 13  1  0
 14  9  1  0
 15 17  1  0
 15 13  1  0
 16 15  2  0
 18 19  1  1
 18 17  1  0
 19 20  1  0
 20 21  2  0
 21 22  1  0
 23 22  1  0
 24 23  2  0
 25 24  1  0
 26 27  1  0
 26 25  2  0
 27 28  2  0
 28 20  1  0
 28 23  1  0
 29 31  1  0
 29 18  1  0
 30 29  2  0
M  END
$$$$
