HSW.pdb
     RDKit          3D

 31 33  0  0  1  0  0  0  0  0999 V2000
   10.7162  -17.1773   17.2059 N   0  0  0  0  0  0  0  0  0  0  0  0
   11.3566  -17.2099   18.4939 C   0  0  1  0  0  0  0  0  0  0  0  0
   12.5193  -16.2624   18.5018 C   0  0  0  0  0  0  0  0  0  0  0  0
   13.6056  -16.8709   17.7036 C   0  0  0  0  0  0  0  0  0  0  0  0
   13.6250  -18.1185   17.1225 C   0  0  0  0  0  0  0  0  0  0  0  0
   14.8246  -18.2593   16.4833 N   0  0  0  0  0  0  0  0  0  0  0  0
   15.5270  -17.1351   16.6621 C   0  0  0  0  0  0  0  0  0  0  0  0
   14.7830  -16.2964   17.4029 N   0  0  0  0  0  0  0  0  0  0  0  0
   10.4005  -16.9875   19.6037 C   0  0  0  0  0  0  0  0  0  0  0  0
    9.6890  -15.9409   19.5683 O   0  0  0  0  0  0  0  0  0  0  0  0
    9.1945  -20.0336   22.3113 O   0  0  0  0  0  0  0  0  0  0  0  0
    8.4876  -18.9092   21.9585 C   0  0  0  0  0  0  0  0  0  0  0  0
    9.3115  -17.6771   21.7808 C   0  0  2  0  0  0  0  0  0  0  0  0
   10.2384  -17.8732   20.6942 N   0  0  0  0  0  0  0  0  0  0  0  0
   10.0077  -17.2808   23.0245 C   0  0  0  0  0  0  0  0  0  0  0  0
   11.2291  -17.5582   23.1628 O   0  0  0  0  0  0  0  0  0  0  0  0
    9.4159  -16.6038   24.0968 N   0  0  0  0  0  0  0  0  0  0  0  0
   10.0567  -16.2531   25.3300 C   0  0  1  0  0  0  0  0  0  0  0  0
    9.7856  -14.9234   25.8648 C   0  0  0  0  0  0  0  0  0  0  0  0
    8.3680  -14.5145   25.9809 C   0  0  0  0  0  0  0  0  0  0  0  0
    7.2988  -15.4338   25.9969 C   0  0  0  0  0  0  0  0  0  0  0  0
    6.1332  -14.7621   26.1619 N   0  0  0  0  0  0  0  0  0  0  0  0
    6.3797  -13.4665   26.2527 C   0  0  0  0  0  0  0  0  0  0  0  0
    5.5576  -12.3781   26.4130 C   0  0  0  0  0  0  0  0  0  0  0  0
    6.0563  -11.0853   26.4683 C   0  0  0  0  0  0  0  0  0  0  0  0
    7.4381  -10.9381   26.3529 C   0  0  0  0  0  0  0  0  0  0  0  0
    8.2716  -12.0226   26.1924 C   0  0  0  0  0  0  0  0  0  0  0  0
    7.7482  -13.3057   26.1419 C   0  0  0  0  0  0  0  0  0  0  0  0
    9.8445  -17.3247   26.2988 C   0  0  0  0  0  0  0  0  0  0  0  0
    8.9759  -18.2358   26.2145 O   0  0  0  0  0  0  0  0  0  0  0  0
   10.6458  -17.4132   27.4585 O   0  0  0  0  0  0  0  0  0  0  0  0
  2  1  1  6
  2  9  1  0
  2  3  1  0
  3  4  1  0
  4  5  2  0
  4  8  1  0
  5  6  1  0
  6  7  1  0
  8  7  2  0
  9 10  2  0
 11 12  1  0
 13 12  1  1
 14 13  1  0
 14  9  1  0
 15 17  1  0
 15 13  1  0
 16 15  2  0
 18 19  1  1
 18 17  1  0
 19 20  1  0
 20 21  2  0
 21 22  1  0
 23 22  1  0
 24 23  2  0
 25 24  1  0
 26 27  1  0
 26 25  2  0
 27 28  2  0
 28 20  1  0
 28 23  1  0
 29 31  1  0
 29 18  1  0
 30 29  2  0
M  END
$$$$
