HSW.pdb
     RDKit          3D

 31 33  0  0  1  0  0  0  0  0999 V2000
    9.5147  -16.6370   17.4679 N   0  0  0  0  0  0  0  0  0  0  0  0
    8.8428  -16.0037   18.5715 C   0  0  1  0  0  0  0  0  0  0  0  0
    7.5145  -15.4764   18.1161 C   0  0  0  0  0  0  0  0  0  0  0  0
    7.7664  -14.4051   17.1280 C   0  0  0  0  0  0  0  0  0  0  0  0
    8.6527  -13.3572   17.2311 C   0  0  0  0  0  0  0  0  0  0  0  0
    8.5531  -12.6160   16.0873 N   0  0  0  0  0  0  0  0  0  0  0  0
    7.6343  -13.1860   15.2997 C   0  0  0  0  0  0  0  0  0  0  0  0
    7.1604  -14.2707   15.9358 N   0  0  0  0  0  0  0  0  0  0  0  0
    8.7574  -16.8852   19.7593 C   0  0  0  0  0  0  0  0  0  0  0  0
    8.1700  -17.9987   19.6263 O   0  0  0  0  0  0  0  0  0  0  0  0
   11.3252  -18.5772   21.5347 O   0  0  0  0  0  0  0  0  0  0  0  0
    9.9871  -18.7054   21.8199 C   0  0  0  0  0  0  0  0  0  0  0  0
    9.2929  -17.4313   22.1709 C   0  0  2  0  0  0  0  0  0  0  0  0
    9.2921  -16.5551   21.0261 N   0  0  0  0  0  0  0  0  0  0  0  0
    9.8853  -16.7754   23.3573 C   0  0  0  0  0  0  0  0  0  0  0  0
   11.0419  -16.2818   23.2758 O   0  0  0  0  0  0  0  0  0  0  0  0
    9.2594  -16.6479   24.6024 N   0  0  0  0  0  0  0  0  0  0  0  0
    9.8801  -16.2090   25.8175 C   0  0  1  0  0  0  0  0  0  0  0  0
    9.0013  -15.7130   26.8707 C   0  0  0  0  0  0  0  0  0  0  0  0
    7.7813  -14.9878   26.4512 C   0  0  0  0  0  0  0  0  0  0  0  0
    6.5878  -15.6384   26.0762 C   0  0  0  0  0  0  0  0  0  0  0  0
    5.6414  -14.7101   25.7937 N   0  0  0  0  0  0  0  0  0  0  0  0
    6.1467  -13.5000   25.9610 C   0  0  0  0  0  0  0  0  0  0  0  0
    5.6133  -12.2450   25.7986 C   0  0  0  0  0  0  0  0  0  0  0  0
    6.3580  -11.0974   26.0263 C   0  0  0  0  0  0  0  0  0  0  0  0
    7.6808  -11.2752   26.4297 C   0  0  0  0  0  0  0  0  0  0  0  0
    8.2256  -12.5290   26.5961 C   0  0  0  0  0  0  0  0  0  0  0  0
    7.4593  -13.6611   26.3636 C   0  0  0  0  0  0  0  0  0  0  0  0
   10.8135  -17.2351   26.2734 C   0  0  0  0  0  0  0  0  0  0  0  0
   10.9082  -18.4055   25.8121 O   0  0  0  0  0  0  0  0  0  0  0  0
   11.7222  -16.9650   27.3204 O   0  0  0  0  0  0  0  0  0  0  0  0
  2  1  1  6
  2  9  1  0
  2  3  1  0
  3  4  1  0
  4  5  2  0
  4  8  1  0
  5  6  1  0
  6  7  1  0
  8  7  2  0
  9 10  2  0
 11 12  1  0
 13 12  1  6
 14 13  1  0
 14  9  1  0
 15 17  1  0
 15 13  1  0
 16 15  2  0
 18 19  1  1
 18 17  1  0
 19 20  1  0
 20 21  2  0
 21 22  1  0
 23 22  1  0
 24 23  2  0
 25 24  1  0
 26 27  1  0
 26 25  2  0
 27 28  2  0
 28 20  1  0
 28 23  1  0
 29 31  1  0
 29 18  1  0
 30 29  2  0
M  END
$$$$
