HSW.pdb
     RDKit          3D

 31 33  0  0  1  0  0  0  0  0999 V2000
    8.6092  -17.2472   18.4446 N   0  0  0  0  0  0  0  0  0  0  0  0
    8.7702  -16.4953   19.6607 C   0  0  1  0  0  0  0  0  0  0  0  0
    7.6960  -15.4525   19.7534 C   0  0  0  0  0  0  0  0  0  0  0  0
    8.0654  -14.3396   18.8519 C   0  0  0  0  0  0  0  0  0  0  0  0
    9.2009  -14.2213   18.0832 C   0  0  0  0  0  0  0  0  0  0  0  0
    9.1237  -13.0346   17.4099 N   0  0  0  0  0  0  0  0  0  0  0  0
    7.9769  -12.4359   17.7500 C   0  0  0  0  0  0  0  0  0  0  0  0
    7.3390  -13.2317   18.6249 N   0  0  0  0  0  0  0  0  0  0  0  0
    8.8566  -17.3680   20.8549 C   0  0  0  0  0  0  0  0  0  0  0  0
    8.2482  -18.4777   20.8196 O   0  0  0  0  0  0  0  0  0  0  0  0
   11.9346  -18.7948   22.5901 O   0  0  0  0  0  0  0  0  0  0  0  0
   10.5990  -19.0737   22.7531 C   0  0  0  0  0  0  0  0  0  0  0  0
    9.7569  -17.9089   23.1566 C   0  0  2  0  0  0  0  0  0  0  0  0
    9.5762  -17.0337   22.0254 N   0  0  0  0  0  0  0  0  0  0  0  0
   10.3161  -17.1858   24.3198 C   0  0  0  0  0  0  0  0  0  0  0  0
   11.4852  -16.7205   24.2528 O   0  0  0  0  0  0  0  0  0  0  0  0
    9.6445  -16.9629   25.5271 N   0  0  0  0  0  0  0  0  0  0  0  0
   10.1981  -16.3536   26.7004 C   0  0  1  0  0  0  0  0  0  0  0  0
    9.3118  -15.5056   27.4897 C   0  0  0  0  0  0  0  0  0  0  0  0
    8.0788  -15.0161   26.8337 C   0  0  0  0  0  0  0  0  0  0  0  0
    7.0333  -15.8684   26.4226 C   0  0  0  0  0  0  0  0  0  0  0  0
    6.0267  -15.1240   25.9032 N   0  0  0  0  0  0  0  0  0  0  0  0
    6.3545  -13.8442   25.9510 C   0  0  0  0  0  0  0  0  0  0  0  0
    5.6986  -12.7063   25.5497 C   0  0  0  0  0  0  0  0  0  0  0  0
    6.2616  -11.4470   25.6931 C   0  0  0  0  0  0  0  0  0  0  0  0
    7.5314  -11.3868   26.2661 C   0  0  0  0  0  0  0  0  0  0  0  0
    8.1978  -12.5214   26.6725 C   0  0  0  0  0  0  0  0  0  0  0  0
    7.6123  -13.7691   26.5196 C   0  0  0  0  0  0  0  0  0  0  0  0
   10.8827  -17.3738   27.4893 C   0  0  0  0  0  0  0  0  0  0  0  0
   11.5886  -17.1654   28.5139 O   0  0  0  0  0  0  0  0  0  0  0  0
   10.7916  -18.7376   27.1335 O   0  0  0  0  0  0  0  0  0  0  0  0
  2  1  1  6
  2  9  1  0
  2  3  1  0
  3  4  1  0
  4  5  2  0
  4  8  1  0
  5  6  1  0
  6  7  1  0
  8  7  2  0
  9 10  2  0
 11 12  1  0
 13 12  1  6
 14 13  1  0
 14  9  1  0
 15 17  1  0
 15 13  1  0
 16 15  2  0
 18 19  1  1
 18 17  1  0
 19 20  1  0
 20 21  2  0
 21 22  1  0
 23 22  1  0
 24 23  2  0
 25 24  1  0
 26 27  1  0
 26 25  2  0
 27 28  2  0
 28 20  1  0
 28 23  1  0
 29 31  1  0
 29 18  1  0
 30 29  2  0
M  END
$$$$
