HSW.pdb
     RDKit          3D

 31 33  0  0  1  0  0  0  0  0999 V2000
    9.7880  -15.6955   19.8095 N   0  0  0  0  0  0  0  0  0  0  0  0
    8.8183  -15.2160   20.7583 C   0  0  1  0  0  0  0  0  0  0  0  0
    7.4882  -15.0597   20.0828 C   0  0  0  0  0  0  0  0  0  0  0  0
    7.6913  -14.2469   18.8640 C   0  0  0  0  0  0  0  0  0  0  0  0
    8.0011  -12.9080   18.7877 C   0  0  0  0  0  0  0  0  0  0  0  0
    8.0950  -12.5790   17.4647 N   0  0  0  0  0  0  0  0  0  0  0  0
    7.8512  -13.6787   16.7432 C   0  0  0  0  0  0  0  0  0  0  0  0
    7.6069  -14.6872   17.5968 N   0  0  0  0  0  0  0  0  0  0  0  0
    8.7694  -16.0486   21.9829 C   0  0  0  0  0  0  0  0  0  0  0  0
    7.8820  -15.7787   22.8444 O   0  0  0  0  0  0  0  0  0  0  0  0
   11.8438  -18.7905   22.8737 O   0  0  0  0  0  0  0  0  0  0  0  0
   10.5644  -19.0756   23.2859 C   0  0  0  0  0  0  0  0  0  0  0  0
    9.6801  -17.8862   23.4643 C   0  0  2  0  0  0  0  0  0  0  0  0
    9.6528  -17.1219   22.2423 N   0  0  0  0  0  0  0  0  0  0  0  0
   10.0833  -17.0527   24.6182 C   0  0  0  0  0  0  0  0  0  0  0  0
   10.9387  -16.1424   24.4524 O   0  0  0  0  0  0  0  0  0  0  0  0
    9.5859  -17.1858   25.9194 N   0  0  0  0  0  0  0  0  0  0  0  0
   10.0296  -16.4565   27.0708 C   0  0  1  0  0  0  0  0  0  0  0  0
    9.0145  -15.7413   27.8359 C   0  0  0  0  0  0  0  0  0  0  0  0
    7.9325  -15.0781   27.0745 C   0  0  0  0  0  0  0  0  0  0  0  0
    6.8479  -15.7779   26.5069 C   0  0  0  0  0  0  0  0  0  0  0  0
    6.0037  -14.8953   25.9192 N   0  0  0  0  0  0  0  0  0  0  0  0
    6.4734  -13.6687   26.0695 C   0  0  0  0  0  0  0  0  0  0  0  0
    6.0080  -12.4438   25.6582 C   0  0  0  0  0  0  0  0  0  0  0  0
    6.6961  -11.2704   25.9282 C   0  0  0  0  0  0  0  0  0  0  0  0
    7.8891  -11.3899   26.6400 C   0  0  0  0  0  0  0  0  0  0  0  0
    8.3646  -12.6130   27.0576 C   0  0  0  0  0  0  0  0  0  0  0  0
    7.6568  -13.7718   26.7764 C   0  0  0  0  0  0  0  0  0  0  0  0
   10.8716  -17.3244   27.8892 C   0  0  0  0  0  0  0  0  0  0  0  0
   11.4617  -16.9917   28.9534 O   0  0  0  0  0  0  0  0  0  0  0  0
   11.0901  -18.6697   27.5186 O   0  0  0  0  0  0  0  0  0  0  0  0
  2  1  1  6
  2  9  1  0
  2  3  1  0
  3  4  1  0
  4  5  2  0
  4  8  1  0
  5  6  1  0
  6  7  1  0
  8  7  2  0
  9 10  2  0
 11 12  1  0
 13 12  1  6
 14 13  1  0
 14  9  1  0
 15 17  1  0
 15 13  1  0
 16 15  2  0
 18 19  1  1
 18 17  1  0
 19 20  1  0
 20 21  2  0
 21 22  1  0
 23 22  1  0
 24 23  2  0
 25 24  1  0
 26 27  1  0
 26 25  2  0
 27 28  2  0
 28 20  1  0
 28 23  1  0
 29 31  1  0
 29 18  1  0
 30 29  2  0
M  END
$$$$
