HSW.pdb
     RDKit          3D

 31 33  0  0  1  0  0  0  0  0999 V2000
    9.6458  -17.2257   15.8156 N   0  0  0  0  0  0  0  0  0  0  0  0
   10.3736  -17.3000   17.0546 C   0  0  1  0  0  0  0  0  0  0  0  0
   11.7348  -16.6959   16.8754 C   0  0  0  0  0  0  0  0  0  0  0  0
   12.6376  -17.7536   16.3719 C   0  0  0  0  0  0  0  0  0  0  0  0
   12.4868  -19.1163   16.4933 C   0  0  0  0  0  0  0  0  0  0  0  0
   13.5554  -19.7078   15.8803 N   0  0  0  0  0  0  0  0  0  0  0  0
   14.3439  -18.7429   15.3941 C   0  0  0  0  0  0  0  0  0  0  0  0
   13.7826  -17.5597   15.6951 N   0  0  0  0  0  0  0  0  0  0  0  0
    9.6130  -16.7265   18.1894 C   0  0  0  0  0  0  0  0  0  0  0  0
    8.7691  -15.8179   17.9346 O   0  0  0  0  0  0  0  0  0  0  0  0
    7.1213  -18.1666   20.2038 O   0  0  0  0  0  0  0  0  0  0  0  0
    7.5262  -16.8578   20.3097 C   0  0  0  0  0  0  0  0  0  0  0  0
    8.9708  -16.6696   20.6359 C   0  0  2  0  0  0  0  0  0  0  0  0
    9.7753  -17.1345   19.5336 N   0  0  0  0  0  0  0  0  0  0  0  0
    9.3524  -17.3293   21.9039 C   0  0  0  0  0  0  0  0  0  0  0  0
    9.0532  -18.5401   22.0835 O   0  0  0  0  0  0  0  0  0  0  0  0
   10.0379  -16.7129   22.9567 N   0  0  0  0  0  0  0  0  0  0  0  0
    9.4415  -16.0207   24.0610 C   0  0  1  0  0  0  0  0  0  0  0  0
    8.3562  -15.0950   23.7568 C   0  0  0  0  0  0  0  0  0  0  0  0
    7.5995  -14.5369   24.8997 C   0  0  0  0  0  0  0  0  0  0  0  0
    6.8015  -15.3247   25.7548 C   0  0  0  0  0  0  0  0  0  0  0  0
    6.2792  -14.5400   26.7288 N   0  0  0  0  0  0  0  0  0  0  0  0
    6.6876  -13.2943   26.5580 C   0  0  0  0  0  0  0  0  0  0  0  0
    6.4392  -12.1365   27.2535 C   0  0  0  0  0  0  0  0  0  0  0  0
    6.9808  -10.9195   26.8676 C   0  0  0  0  0  0  0  0  0  0  0  0
    7.7935  -10.9232   25.7347 C   0  0  0  0  0  0  0  0  0  0  0  0
    8.0496  -12.0785   25.0301 C   0  0  0  0  0  0  0  0  0  0  0  0
    7.4973  -13.2833   25.4377 C   0  0  0  0  0  0  0  0  0  0  0  0
    9.1080  -16.9860   25.1045 C   0  0  0  0  0  0  0  0  0  0  0  0
    9.4123  -16.8896   26.3250 O   0  0  0  0  0  0  0  0  0  0  0  0
    8.3810  -18.1565   24.7939 O   0  0  0  0  0  0  0  0  0  0  0  0
  2  1  1  6
  2  9  1  0
  2  3  1  0
  3  4  1  0
  4  5  2  0
  4  8  1  0
  5  6  1  0
  6  7  1  0
  8  7  2  0
  9 10  2  0
 11 12  1  0
 13 12  1  6
 14 13  1  0
 14  9  1  0
 15 17  1  0
 15 13  1  0
 16 15  2  0
 18 19  1  6
 18 17  1  0
 19 20  1  0
 20 21  2  0
 21 22  1  0
 23 22  1  0
 24 23  2  0
 25 24  1  0
 26 27  1  0
 26 25  2  0
 27 28  2  0
 28 20  1  0
 28 23  1  0
 29 31  1  0
 29 18  1  0
 30 29  2  0
M  END
$$$$
