DPP.pdb
     RDKit          3D

 23 24  0  0  1  0  0  0  0  0999 V2000
    8.8309  -16.5392   19.6892 N   0  0  0  0  0  0  0  0  0  0  0  0
    9.1556  -17.0458   21.0320 C   0  0  1  0  0  0  0  0  0  0  0  0
   10.6661  -16.9884   21.2323 C   0  0  0  0  0  0  0  0  0  0  0  0
   11.3416  -17.8689   20.2453 C   0  0  0  0  0  0  0  0  0  0  0  0
   11.2289  -19.1221   20.3466 O   0  0  0  0  0  0  0  0  0  0  0  0
    8.4440  -16.2594   22.0602 C   0  0  0  0  0  0  0  0  0  0  0  0
    8.3789  -14.9986   21.8885 O   0  0  0  0  0  0  0  0  0  0  0  0
   12.1025  -17.3793   19.2004 O   0  0  0  0  0  0  0  0  0  0  0  0
    7.8416  -16.8261   23.2054 N   0  0  0  0  0  0  0  0  0  0  0  0
    7.7515  -18.2437   23.4564 C   0  0  0  0  0  0  0  0  0  0  0  0
    6.3885  -18.3032   24.1662 C   0  0  0  0  0  0  0  0  0  0  0  0
    6.6785  -17.2462   25.2170 C   0  0  0  0  0  0  0  0  0  0  0  0
    7.2109  -16.1489   24.3137 C   0  0  1  0  0  0  0  0  0  0  0  0
    8.1534  -15.2475   25.0396 C   0  0  0  0  0  0  0  0  0  0  0  0
    9.3760  -15.4840   24.8592 O   0  0  0  0  0  0  0  0  0  0  0  0
    7.6951  -14.1944   25.8770 N   0  0  0  0  0  0  0  0  0  0  0  0
    6.3485  -13.7487   26.1293 C   0  0  0  0  0  0  0  0  0  0  0  0
    6.4563  -12.3827   26.7474 C   0  0  0  0  0  0  0  0  0  0  0  0
    7.8976  -12.0007   26.6805 C   0  0  0  0  0  0  0  0  0  0  0  0
    8.5844  -13.3531   26.6568 C   0  0  1  0  0  0  0  0  0  0  0  0
    8.8063  -13.9068   28.0001 C   0  0  0  0  0  0  0  0  0  0  0  0
    8.0898  -14.8468   28.4075 O   0  0  0  0  0  0  0  0  0  0  0  0
    9.7902  -13.4036   28.8108 O   0  0  0  0  0  0  0  0  0  0  0  0
  2  1  1  6
  2  3  1  0
  3  4  1  0
  4  8  1  0
  5  4  2  0
  6  9  1  0
  6  2  1  0
  7  6  2  0
  9 13  1  0
 10 11  1  0
 10  9  1  0
 11 12  1  0
 12 13  1  0
 13 14  1  1
 14 16  1  0
 15 14  2  0
 16 20  1  0
 17 16  1  0
 17 18  1  0
 18 19  1  0
 20 21  1  1
 20 19  1  0
 21 23  1  0
 22 21  2  0
M  END
$$$$
