DPP.pdb
     RDKit          3D

 23 24  0  0  1  0  0  0  0  0999 V2000
   11.4050  -16.8797   20.1857 N   0  0  0  0  0  0  0  0  0  0  0  0
   10.1422  -17.1847   20.8768 C   0  0  1  0  0  0  0  0  0  0  0  0
   10.3126  -18.4712   21.6773 C   0  0  0  0  0  0  0  0  0  0  0  0
   10.4764  -19.6235   20.7548 C   0  0  0  0  0  0  0  0  0  0  0  0
    9.8922  -19.6155   19.6357 O   0  0  0  0  0  0  0  0  0  0  0  0
    9.7501  -16.0559   21.7453 C   0  0  0  0  0  0  0  0  0  0  0  0
   10.6724  -15.4900   22.4179 O   0  0  0  0  0  0  0  0  0  0  0  0
   11.2502  -20.7268   21.0624 O   0  0  0  0  0  0  0  0  0  0  0  0
    8.4253  -15.5803   21.8653 N   0  0  0  0  0  0  0  0  0  0  0  0
    7.3330  -16.0026   21.0230 C   0  0  0  0  0  0  0  0  0  0  0  0
    6.5382  -14.6888   20.9377 C   0  0  0  0  0  0  0  0  0  0  0  0
    6.4414  -14.4313   22.4310 C   0  0  0  0  0  0  0  0  0  0  0  0
    7.9019  -14.6137   22.8015 C   0  0  1  0  0  0  0  0  0  0  0  0
    8.0592  -15.0529   24.2193 C   0  0  0  0  0  0  0  0  0  0  0  0
    8.4971  -16.2217   24.3787 O   0  0  0  0  0  0  0  0  0  0  0  0
    7.7347  -14.2037   25.3119 N   0  0  0  0  0  0  0  0  0  0  0  0
    7.0520  -12.9351   25.3109 C   0  0  0  0  0  0  0  0  0  0  0  0
    7.3328  -12.2945   26.6416 C   0  0  0  0  0  0  0  0  0  0  0  0
    8.3331  -13.1646   27.3271 C   0  0  0  0  0  0  0  0  0  0  0  0
    8.0700  -14.5155   26.6893 C   0  0  1  0  0  0  0  0  0  0  0  0
    6.9883  -15.2601   27.3495 C   0  0  0  0  0  0  0  0  0  0  0  0
    7.1848  -15.7688   28.4743 O   0  0  0  0  0  0  0  0  0  0  0  0
    5.7664  -15.4026   26.7450 O   0  0  0  0  0  0  0  0  0  0  0  0
  2  1  1  1
  2  3  1  0
  3  4  1  0
  4  8  1  0
  5  4  2  0
  6  9  1  0
  6  2  1  0
  7  6  2  0
  9 13  1  0
 10 11  1  0
 10  9  1  0
 11 12  1  0
 12 13  1  0
 13 14  1  1
 14 16  1  0
 15 14  2  0
 16 20  1  0
 17 16  1  0
 17 18  1  0
 18 19  1  0
 20 21  1  1
 20 19  1  0
 21 23  1  0
 22 21  2  0
M  END
$$$$
