DPP.pdb
     RDKit          3D

 23 24  0  0  1  0  0  0  0  0999 V2000
   11.7334  -16.2607   20.2986 N   0  0  0  0  0  0  0  0  0  0  0  0
   10.6619  -16.8064   21.1468 C   0  0  1  0  0  0  0  0  0  0  0  0
   11.2468  -17.8837   22.0536 C   0  0  0  0  0  0  0  0  0  0  0  0
   11.8010  -18.9904   21.2327 C   0  0  0  0  0  0  0  0  0  0  0  0
   13.0456  -19.2019   21.2284 O   0  0  0  0  0  0  0  0  0  0  0  0
   10.0304  -15.7250   21.9303 C   0  0  0  0  0  0  0  0  0  0  0  0
   10.8052  -14.9152   22.5362 O   0  0  0  0  0  0  0  0  0  0  0  0
   11.0108  -19.8180   20.4575 O   0  0  0  0  0  0  0  0  0  0  0  0
    8.6333  -15.5468   22.0393 N   0  0  0  0  0  0  0  0  0  0  0  0
    7.6579  -16.3243   21.3148 C   0  0  0  0  0  0  0  0  0  0  0  0
    6.5829  -15.2504   21.0780 C   0  0  0  0  0  0  0  0  0  0  0  0
    6.4452  -14.8017   22.5220 C   0  0  0  0  0  0  0  0  0  0  0  0
    7.9124  -14.5941   22.8501 C   0  0  1  0  0  0  0  0  0  0  0  0
    8.1806  -14.7704   24.3077 C   0  0  0  0  0  0  0  0  0  0  0  0
    8.9452  -15.7242   24.6062 O   0  0  0  0  0  0  0  0  0  0  0  0
    7.6082  -13.9154   25.2884 N   0  0  0  0  0  0  0  0  0  0  0  0
    6.6443  -12.8570   25.1263 C   0  0  0  0  0  0  0  0  0  0  0  0
    6.6964  -12.0319   26.3818 C   0  0  0  0  0  0  0  0  0  0  0  0
    7.8386  -12.5574   27.1862 C   0  0  0  0  0  0  0  0  0  0  0  0
    7.9372  -13.9909   26.7001 C   0  0  1  0  0  0  0  0  0  0  0  0
    7.0313  -14.9019   27.4142 C   0  0  0  0  0  0  0  0  0  0  0  0
    5.9498  -15.2385   26.8854 O   0  0  0  0  0  0  0  0  0  0  0  0
    7.3597  -15.3861   28.6537 O   0  0  0  0  0  0  0  0  0  0  0  0
  2  1  1  1
  2  3  1  0
  3  4  1  0
  4  8  1  0
  5  4  2  0
  6  9  1  0
  6  2  1  0
  7  6  2  0
  9 13  1  0
 10 11  1  0
 10  9  1  0
 11 12  1  0
 12 13  1  0
 13 14  1  1
 14 16  1  0
 15 14  2  0
 16 20  1  0
 17 16  1  0
 17 18  1  0
 18 19  1  0
 20 21  1  1
 20 19  1  0
 21 23  1  0
 22 21  2  0
M  END
$$$$
