DPP.pdb
     RDKit          3D

 23 24  0  0  1  0  0  0  0  0999 V2000
    7.3069  -15.8850   19.6221 N   0  0  0  0  0  0  0  0  0  0  0  0
    8.2317  -16.2789   20.6968 C   0  0  1  0  0  0  0  0  0  0  0  0
    9.6394  -15.8192   20.3336 C   0  0  0  0  0  0  0  0  0  0  0  0
   10.6367  -16.5295   21.1742 C   0  0  0  0  0  0  0  0  0  0  0  0
   11.0366  -17.6773   20.8329 O   0  0  0  0  0  0  0  0  0  0  0  0
    7.7914  -15.7051   21.9848 C   0  0  0  0  0  0  0  0  0  0  0  0
    7.6851  -14.4372   22.0524 O   0  0  0  0  0  0  0  0  0  0  0  0
   11.1609  -15.9900   22.3337 O   0  0  0  0  0  0  0  0  0  0  0  0
    7.4872  -16.4792   23.1267 N   0  0  0  0  0  0  0  0  0  0  0  0
    7.5722  -17.9183   23.1766 C   0  0  0  0  0  0  0  0  0  0  0  0
    6.3937  -18.2230   24.1164 C   0  0  0  0  0  0  0  0  0  0  0  0
    6.8010  -17.2840   25.2379 C   0  0  0  0  0  0  0  0  0  0  0  0
    7.0411  -16.0262   24.4231 C   0  0  1  0  0  0  0  0  0  0  0  0
    8.0315  -15.1246   25.0817 C   0  0  0  0  0  0  0  0  0  0  0  0
    9.2281  -15.2830   24.7264 O   0  0  0  0  0  0  0  0  0  0  0  0
    7.6433  -14.1540   26.0449 N   0  0  0  0  0  0  0  0  0  0  0  0
    6.3244  -13.8000   26.5041 C   0  0  0  0  0  0  0  0  0  0  0  0
    6.4525  -12.4724   27.1976 C   0  0  0  0  0  0  0  0  0  0  0  0
    7.8522  -12.0083   26.9675 C   0  0  0  0  0  0  0  0  0  0  0  0
    8.5908  -13.3165   26.7575 C   0  0  1  0  0  0  0  0  0  0  0  0
    9.0183  -13.9420   28.0170 C   0  0  0  0  0  0  0  0  0  0  0  0
    8.4188  -14.9544   28.4392 O   0  0  0  0  0  0  0  0  0  0  0  0
   10.0671  -13.4270   28.7335 O   0  0  0  0  0  0  0  0  0  0  0  0
  2  1  1  6
  2  3  1  0
  3  4  1  0
  4  8  1  0
  5  4  2  0
  6  9  1  0
  6  2  1  0
  7  6  2  0
  9 13  1  0
 10 11  1  0
 10  9  1  0
 11 12  1  0
 12 13  1  0
 13 14  1  1
 14 16  1  0
 15 14  2  0
 16 20  1  0
 17 16  1  0
 17 18  1  0
 18 19  1  0
 20 21  1  1
 20 19  1  0
 21 23  1  0
 22 21  2  0
M  END
$$$$
