DPP.pdb
     RDKit          3D

 23 24  0  0  1  0  0  0  0  0999 V2000
   11.7357  -16.7965   20.4612 N   0  0  0  0  0  0  0  0  0  0  0  0
   10.4984  -17.0622   21.2120 C   0  0  1  0  0  0  0  0  0  0  0  0
   10.4864  -18.5233   21.6477 C   0  0  0  0  0  0  0  0  0  0  0  0
   11.4286  -19.3091   20.8107 C   0  0  0  0  0  0  0  0  0  0  0  0
   11.1091  -19.6120   19.6276 O   0  0  0  0  0  0  0  0  0  0  0  0
   10.3991  -16.1519   22.3711 C   0  0  0  0  0  0  0  0  0  0  0  0
   11.4849  -15.6596   22.8205 O   0  0  0  0  0  0  0  0  0  0  0  0
   12.6617  -19.7351   21.2674 O   0  0  0  0  0  0  0  0  0  0  0  0
    9.1804  -15.8054   22.9957 N   0  0  0  0  0  0  0  0  0  0  0  0
    7.8801  -16.1967   22.5091 C   0  0  0  0  0  0  0  0  0  0  0  0
    7.0643  -14.9519   22.8965 C   0  0  0  0  0  0  0  0  0  0  0  0
    7.4734  -14.9074   24.3580 C   0  0  0  0  0  0  0  0  0  0  0  0
    8.9776  -15.0197   24.1900 C   0  0  1  0  0  0  0  0  0  0  0  0
    9.6210  -15.6324   25.3893 C   0  0  0  0  0  0  0  0  0  0  0  0
   10.0652  -16.7987   25.2291 O   0  0  0  0  0  0  0  0  0  0  0  0
    9.7224  -14.9402   26.6267 N   0  0  0  0  0  0  0  0  0  0  0  0
    9.1342  -13.6859   27.0221 C   0  0  0  0  0  0  0  0  0  0  0  0
    9.8763  -13.2303   28.2474 C   0  0  0  0  0  0  0  0  0  0  0  0
   11.0119  -14.1810   28.4321 C   0  0  0  0  0  0  0  0  0  0  0  0
   10.4912  -15.4342   27.7544 C   0  0  1  0  0  0  0  0  0  0  0  0
    9.6667  -16.2658   28.6428 C   0  0  0  0  0  0  0  0  0  0  0  0
    8.4297  -16.3165   28.4702 O   0  0  0  0  0  0  0  0  0  0  0  0
   10.2398  -16.9862   29.6583 O   0  0  0  0  0  0  0  0  0  0  0  0
  2  1  1  1
  2  3  1  0
  3  4  1  0
  4  8  1  0
  5  4  2  0
  6  9  1  0
  6  2  1  0
  7  6  2  0
  9 13  1  0
 10 11  1  0
 10  9  1  0
 11 12  1  0
 12 13  1  0
 13 14  1  1
 14 16  1  0
 15 14  2  0
 16 20  1  0
 17 16  1  0
 17 18  1  0
 18 19  1  0
 20 21  1  1
 20 19  1  0
 21 23  1  0
 22 21  2  0
M  END
$$$$
