DPP.pdb
     RDKit          3D

 23 24  0  0  1  0  0  0  0  0999 V2000
   11.9168  -16.4882   20.6515 N   0  0  0  0  0  0  0  0  0  0  0  0
   10.6854  -16.9324   21.3235 C   0  0  1  0  0  0  0  0  0  0  0  0
   11.0128  -18.1149   22.2287 C   0  0  0  0  0  0  0  0  0  0  0  0
   11.5640  -19.2331   21.4216 C   0  0  0  0  0  0  0  0  0  0  0  0
   10.7934  -19.9135   20.6890 O   0  0  0  0  0  0  0  0  0  0  0  0
   10.0893  -15.8167   22.0864 C   0  0  0  0  0  0  0  0  0  0  0  0
   10.8797  -15.0950   22.7774 O   0  0  0  0  0  0  0  0  0  0  0  0
   12.9032  -19.5754   21.4299 O   0  0  0  0  0  0  0  0  0  0  0  0
    8.7092  -15.5149   22.0878 N   0  0  0  0  0  0  0  0  0  0  0  0
    7.7433  -16.1330   21.2127 C   0  0  0  0  0  0  0  0  0  0  0  0
    6.7945  -14.9451   20.9808 C   0  0  0  0  0  0  0  0  0  0  0  0
    6.5589  -14.6058   22.4418 C   0  0  0  0  0  0  0  0  0  0  0  0
    8.0004  -14.5675   22.9153 C   0  0  1  0  0  0  0  0  0  0  0  0
    8.1109  -14.8883   24.3688 C   0  0  0  0  0  0  0  0  0  0  0  0
    8.7238  -15.9523   24.6434 O   0  0  0  0  0  0  0  0  0  0  0  0
    7.5590  -14.0448   25.3710 N   0  0  0  0  0  0  0  0  0  0  0  0
    6.7202  -12.8825   25.2258 C   0  0  0  0  0  0  0  0  0  0  0  0
    6.7656  -12.1526   26.5392 C   0  0  0  0  0  0  0  0  0  0  0  0
    7.7894  -12.8474   27.3740 C   0  0  0  0  0  0  0  0  0  0  0  0
    7.7778  -14.2480   26.7914 C   0  0  1  0  0  0  0  0  0  0  0  0
    6.7367  -15.1040   27.3776 C   0  0  0  0  0  0  0  0  0  0  0  0
    5.6693  -15.2936   26.7553 O   0  0  0  0  0  0  0  0  0  0  0  0
    6.9237  -15.6965   28.5993 O   0  0  0  0  0  0  0  0  0  0  0  0
  2  1  1  1
  2  3  1  0
  3  4  1  0
  4  8  1  0
  5  4  2  0
  6  9  1  0
  6  2  1  0
  7  6  2  0
  9 13  1  0
 10 11  1  0
 10  9  1  0
 11 12  1  0
 12 13  1  0
 13 14  1  1
 14 16  1  0
 15 14  2  0
 16 20  1  0
 17 16  1  0
 17 18  1  0
 18 19  1  0
 20 21  1  1
 20 19  1  0
 21 23  1  0
 22 21  2  0
M  END
$$$$
