DPP.pdb
     RDKit          3D

 23 24  0  0  1  0  0  0  0  0999 V2000
   11.7626  -16.6320   20.0170 N   0  0  0  0  0  0  0  0  0  0  0  0
   10.5191  -17.0944   20.6536 C   0  0  1  0  0  0  0  0  0  0  0  0
   10.8239  -18.3226   21.5042 C   0  0  0  0  0  0  0  0  0  0  0  0
   11.3251  -19.4235   20.6426 C   0  0  0  0  0  0  0  0  0  0  0  0
   10.6307  -19.8164   19.6643 O   0  0  0  0  0  0  0  0  0  0  0  0
    9.9262  -16.0102   21.4629 C   0  0  0  0  0  0  0  0  0  0  0  0
   10.7293  -15.2389   22.0821 O   0  0  0  0  0  0  0  0  0  0  0  0
   12.5361  -20.0538   20.8592 O   0  0  0  0  0  0  0  0  0  0  0  0
    8.5361  -15.7893   21.5825 N   0  0  0  0  0  0  0  0  0  0  0  0
    7.5351  -16.4894   20.8153 C   0  0  0  0  0  0  0  0  0  0  0  0
    6.4989  -15.3665   20.6406 C   0  0  0  0  0  0  0  0  0  0  0  0
    6.3748  -14.9963   22.1079 C   0  0  0  0  0  0  0  0  0  0  0  0
    7.8479  -14.8595   22.4467 C   0  0  1  0  0  0  0  0  0  0  0  0
    8.1075  -15.1281   23.8918 C   0  0  0  0  0  0  0  0  0  0  0  0
    8.7933  -16.1541   24.1372 O   0  0  0  0  0  0  0  0  0  0  0  0
    7.6108  -14.2785   24.9174 N   0  0  0  0  0  0  0  0  0  0  0  0
    6.7807  -13.1059   24.8095 C   0  0  0  0  0  0  0  0  0  0  0  0
    6.8932  -12.3774   26.1197 C   0  0  0  0  0  0  0  0  0  0  0  0
    7.9443  -13.0852   26.9083 C   0  0  0  0  0  0  0  0  0  0  0  0
    7.8897  -14.4852   26.3268 C   0  0  1  0  0  0  0  0  0  0  0  0
    6.8652  -15.3287   26.9584 C   0  0  0  0  0  0  0  0  0  0  0  0
    5.7613  -15.4881   26.3939 O   0  0  0  0  0  0  0  0  0  0  0  0
    7.1072  -15.9425   28.1598 O   0  0  0  0  0  0  0  0  0  0  0  0
  2  1  1  1
  2  3  1  0
  3  4  1  0
  4  8  1  0
  5  4  2  0
  6  9  1  0
  6  2  1  0
  7  6  2  0
  9 13  1  0
 10 11  1  0
 10  9  1  0
 11 12  1  0
 12 13  1  0
 13 14  1  1
 14 16  1  0
 15 14  2  0
 16 20  1  0
 17 16  1  0
 17 18  1  0
 18 19  1  0
 20 21  1  1
 20 19  1  0
 21 23  1  0
 22 21  2  0
M  END
$$$$
