DPP.pdb
     RDKit          3D

 23 24  0  0  1  0  0  0  0  0999 V2000
    8.2123  -13.8791   20.8445 N   0  0  0  0  0  0  0  0  0  0  0  0
    7.3322  -14.1822   21.9842 C   0  0  1  0  0  0  0  0  0  0  0  0
    6.8961  -15.6409   21.9003 C   0  0  0  0  0  0  0  0  0  0  0  0
    8.0877  -16.5197   21.7837 C   0  0  0  0  0  0  0  0  0  0  0  0
    8.2783  -17.4298   22.6375 O   0  0  0  0  0  0  0  0  0  0  0  0
    8.0281  -13.8986   23.2560 C   0  0  0  0  0  0  0  0  0  0  0  0
    9.3014  -13.8618   23.2283 O   0  0  0  0  0  0  0  0  0  0  0  0
    9.0180  -16.3916   20.7694 O   0  0  0  0  0  0  0  0  0  0  0  0
    7.3633  -13.6698   24.4812 N   0  0  0  0  0  0  0  0  0  0  0  0
    5.9326  -13.5434   24.6160 C   0  0  0  0  0  0  0  0  0  0  0  0
    5.8617  -12.5002   25.7437 C   0  0  0  0  0  0  0  0  0  0  0  0
    6.7715  -13.2208   26.7227 C   0  0  0  0  0  0  0  0  0  0  0  0
    7.9379  -13.5131   25.7965 C   0  0  1  0  0  0  0  0  0  0  0  0
    8.6973  -14.7218   26.2326 C   0  0  0  0  0  0  0  0  0  0  0  0
    8.5803  -15.7315   25.4910 O   0  0  0  0  0  0  0  0  0  0  0  0
    9.4974  -14.7261   27.4074 N   0  0  0  0  0  0  0  0  0  0  0  0
    9.5850  -13.7420   28.4560 C   0  0  0  0  0  0  0  0  0  0  0  0
   10.8457  -14.0383   29.2194 C   0  0  0  0  0  0  0  0  0  0  0  0
   11.5534  -15.1148   28.4659 C   0  0  0  0  0  0  0  0  0  0  0  0
   10.4099  -15.8031   27.7450 C   0  0  1  0  0  0  0  0  0  0  0  0
    9.7497  -16.8285   28.5654 C   0  0  0  0  0  0  0  0  0  0  0  0
    8.6120  -16.6075   29.0338 O   0  0  0  0  0  0  0  0  0  0  0  0
   10.3681  -18.0245   28.8223 O   0  0  0  0  0  0  0  0  0  0  0  0
  2  1  1  6
  2  3  1  0
  3  4  1  0
  4  8  1  0
  5  4  2  0
  6  9  1  0
  6  2  1  0
  7  6  2  0
  9 13  1  0
 10 11  1  0
 10  9  1  0
 11 12  1  0
 12 13  1  0
 13 14  1  1
 14 16  1  0
 15 14  2  0
 16 20  1  0
 17 16  1  0
 17 18  1  0
 18 19  1  0
 20 21  1  1
 20 19  1  0
 21 23  1  0
 22 21  2  0
M  END
$$$$
