DPP.pdb
     RDKit          3D

 23 24  0  0  1  0  0  0  0  0999 V2000
   11.8843  -16.7152   20.7639 N   0  0  0  0  0  0  0  0  0  0  0  0
   10.5699  -17.0645   21.3259 C   0  0  1  0  0  0  0  0  0  0  0  0
   10.7088  -18.3313   22.1631 C   0  0  0  0  0  0  0  0  0  0  0  0
   11.4488  -19.3661   21.3967 C   0  0  0  0  0  0  0  0  0  0  0  0
   12.6271  -19.6691   21.7334 O   0  0  0  0  0  0  0  0  0  0  0  0
   10.0432  -15.9416   22.1283 C   0  0  0  0  0  0  0  0  0  0  0  0
   10.8685  -15.3199   22.8736 O   0  0  0  0  0  0  0  0  0  0  0  0
   10.9050  -20.0285   20.3123 O   0  0  0  0  0  0  0  0  0  0  0  0
    8.6921  -15.5293   22.1107 N   0  0  0  0  0  0  0  0  0  0  0  0
    7.6993  -16.0440   21.1995 C   0  0  0  0  0  0  0  0  0  0  0  0
    6.8544  -14.7777   20.9820 C   0  0  0  0  0  0  0  0  0  0  0  0
    6.6144  -14.4589   22.4470 C   0  0  0  0  0  0  0  0  0  0  0  0
    8.0435  -14.5497   22.9500 C   0  0  1  0  0  0  0  0  0  0  0  0
    8.0957  -14.9164   24.3958 C   0  0  0  0  0  0  0  0  0  0  0  0
    8.6345  -16.0237   24.6546 O   0  0  0  0  0  0  0  0  0  0  0  0
    7.5705  -14.0680   25.4081 N   0  0  0  0  0  0  0  0  0  0  0  0
    6.8322  -12.8380   25.2762 C   0  0  0  0  0  0  0  0  0  0  0  0
    6.8801  -12.1616   26.6178 C   0  0  0  0  0  0  0  0  0  0  0  0
    7.8106  -12.9655   27.4638 C   0  0  0  0  0  0  0  0  0  0  0  0
    7.7134  -14.3389   26.8269 C   0  0  1  0  0  0  0  0  0  0  0  0
    6.5848  -15.1294   27.3387 C   0  0  0  0  0  0  0  0  0  0  0  0
    5.5253  -15.1938   26.6785 O   0  0  0  0  0  0  0  0  0  0  0  0
    6.6819  -15.7967   28.5320 O   0  0  0  0  0  0  0  0  0  0  0  0
  2  1  1  1
  2  3  1  0
  3  4  1  0
  4  8  1  0
  5  4  2  0
  6  9  1  0
  6  2  1  0
  7  6  2  0
  9 13  1  0
 10 11  1  0
 10  9  1  0
 11 12  1  0
 12 13  1  0
 13 14  1  1
 14 16  1  0
 15 14  2  0
 16 20  1  0
 17 16  1  0
 17 18  1  0
 18 19  1  0
 20 21  1  1
 20 19  1  0
 21 23  1  0
 22 21  2  0
M  END
$$$$
