DPP.pdb
     RDKit          3D

 23 24  0  0  1  0  0  0  0  0999 V2000
   12.0875  -16.7970   20.9890 N   0  0  0  0  0  0  0  0  0  0  0  0
   10.7025  -17.0649   21.4076 C   0  0  1  0  0  0  0  0  0  0  0  0
   10.6746  -18.3391   22.2446 C   0  0  0  0  0  0  0  0  0  0  0  0
   11.8531  -19.1831   21.9214 C   0  0  0  0  0  0  0  0  0  0  0  0
   12.1100  -19.4621   20.7174 O   0  0  0  0  0  0  0  0  0  0  0  0
   10.1646  -15.9127   22.1595 C   0  0  0  0  0  0  0  0  0  0  0  0
   10.9835  -15.2510   22.8770 O   0  0  0  0  0  0  0  0  0  0  0  0
   12.7010  -19.6896   22.8884 O   0  0  0  0  0  0  0  0  0  0  0  0
    8.8098  -15.5143   22.1231 N   0  0  0  0  0  0  0  0  0  0  0  0
    7.8262  -16.0666   21.2240 C   0  0  0  0  0  0  0  0  0  0  0  0
    6.9702  -14.8159   20.9637 C   0  0  0  0  0  0  0  0  0  0  0  0
    6.7203  -14.4542   22.4170 C   0  0  0  0  0  0  0  0  0  0  0  0
    8.1478  -14.5156   22.9289 C   0  0  1  0  0  0  0  0  0  0  0  0
    8.1968  -14.8369   24.3856 C   0  0  0  0  0  0  0  0  0  0  0  0
    8.7449  -15.9303   24.6809 O   0  0  0  0  0  0  0  0  0  0  0  0
    7.6587  -13.9627   25.3688 N   0  0  0  0  0  0  0  0  0  0  0  0
    6.9318  -12.7309   25.1958 C   0  0  0  0  0  0  0  0  0  0  0  0
    6.9595  -12.0253   26.5229 C   0  0  0  0  0  0  0  0  0  0  0  0
    7.8682  -12.8164   27.4038 C   0  0  0  0  0  0  0  0  0  0  0  0
    7.7732  -14.2029   26.7957 C   0  0  1  0  0  0  0  0  0  0  0  0
    6.6297  -14.9743   27.3034 C   0  0  0  0  0  0  0  0  0  0  0  0
    5.5554  -14.9805   26.6642 O   0  0  0  0  0  0  0  0  0  0  0  0
    6.7287  -15.6868   28.4701 O   0  0  0  0  0  0  0  0  0  0  0  0
  2  1  1  1
  2  3  1  0
  3  4  1  0
  4  8  1  0
  5  4  2  0
  6  9  1  0
  6  2  1  0
  7  6  2  0
  9 13  1  0
 10 11  1  0
 10  9  1  0
 11 12  1  0
 12 13  1  0
 13 14  1  1
 14 16  1  0
 15 14  2  0
 16 20  1  0
 17 16  1  0
 17 18  1  0
 18 19  1  0
 20 21  1  1
 20 19  1  0
 21 23  1  0
 22 21  2  0
M  END
$$$$
