DPP.pdb
     RDKit          3D

 23 24  0  0  1  0  0  0  0  0999 V2000
   12.2209  -14.0153   19.5672 N   0  0  0  0  0  0  0  0  0  0  0  0
   11.1019  -14.8862   19.9606 C   0  0  1  0  0  0  0  0  0  0  0  0
   11.6541  -16.2427   20.3848 C   0  0  0  0  0  0  0  0  0  0  0  0
   12.3259  -16.8983   19.2338 C   0  0  0  0  0  0  0  0  0  0  0  0
   13.5785  -17.0544   19.2481 O   0  0  0  0  0  0  0  0  0  0  0  0
   10.3224  -14.2568   21.0461 C   0  0  0  0  0  0  0  0  0  0  0  0
   10.9683  -13.5806   21.9114 O   0  0  0  0  0  0  0  0  0  0  0  0
   11.6387  -17.3559   18.1252 O   0  0  0  0  0  0  0  0  0  0  0  0
    8.9194  -14.3654   21.1705 N   0  0  0  0  0  0  0  0  0  0  0  0
    8.0713  -15.0427   20.2204 C   0  0  0  0  0  0  0  0  0  0  0  0
    6.8204  -14.1513   20.2959 C   0  0  0  0  0  0  0  0  0  0  0  0
    6.6511  -14.1937   21.8042 C   0  0  0  0  0  0  0  0  0  0  0  0
    8.0698  -13.8444   22.2153 C   0  0  1  0  0  0  0  0  0  0  0  0
    8.4084  -14.4060   23.5560 C   0  0  0  0  0  0  0  0  0  0  0  0
    9.1721  -15.4060   23.5471 O   0  0  0  0  0  0  0  0  0  0  0  0
    7.8993  -13.8450   24.7587 N   0  0  0  0  0  0  0  0  0  0  0  0
    6.9415  -12.7838   24.9374 C   0  0  0  0  0  0  0  0  0  0  0  0
    7.0703  -12.3237   26.3627 C   0  0  0  0  0  0  0  0  0  0  0  0
    8.2469  -13.0423   26.9344 C   0  0  0  0  0  0  0  0  0  0  0  0
    8.3018  -14.2939   26.0791 C   0  0  1  0  0  0  0  0  0  0  0  0
    7.4238  -15.3643   26.5727 C   0  0  0  0  0  0  0  0  0  0  0  0
    6.3414  -15.5937   25.9910 O   0  0  0  0  0  0  0  0  0  0  0  0
    7.7792  -16.1137   27.6639 O   0  0  0  0  0  0  0  0  0  0  0  0
  2  1  1  1
  2  3  1  0
  3  4  1  0
  4  8  1  0
  5  4  2  0
  6  9  1  0
  6  2  1  0
  7  6  2  0
  9 13  1  0
 10 11  1  0
 10  9  1  0
 11 12  1  0
 12 13  1  0
 13 14  1  1
 14 16  1  0
 15 14  2  0
 16 20  1  0
 17 16  1  0
 17 18  1  0
 18 19  1  0
 20 21  1  1
 20 19  1  0
 21 23  1  0
 22 21  2  0
M  END
$$$$
