DPP.pdb
     RDKit          3D

 23 24  0  0  1  0  0  0  0  0999 V2000
   11.8834  -16.6111   20.5507 N   0  0  0  0  0  0  0  0  0  0  0  0
   10.5490  -16.9844   21.0459 C   0  0  1  0  0  0  0  0  0  0  0  0
   10.6609  -18.2751   21.8498 C   0  0  0  0  0  0  0  0  0  0  0  0
   12.0322  -18.4089   22.4044 C   0  0  0  0  0  0  0  0  0  0  0  0
   13.0273  -18.1068   21.6888 O   0  0  0  0  0  0  0  0  0  0  0  0
    9.9814  -15.8891   21.8586 C   0  0  0  0  0  0  0  0  0  0  0  0
   10.7975  -15.1794   22.5319 O   0  0  0  0  0  0  0  0  0  0  0  0
   12.2819  -18.8556   23.6884 O   0  0  0  0  0  0  0  0  0  0  0  0
    8.6015  -15.5941   21.9252 N   0  0  0  0  0  0  0  0  0  0  0  0
    7.5945  -16.2407   21.1198 C   0  0  0  0  0  0  0  0  0  0  0  0
    6.6272  -15.0643   20.9064 C   0  0  0  0  0  0  0  0  0  0  0  0
    6.4672  -14.6860   22.3681 C   0  0  0  0  0  0  0  0  0  0  0  0
    7.9315  -14.6277   22.7630 C   0  0  1  0  0  0  0  0  0  0  0  0
    8.1210  -14.9077   24.2168 C   0  0  0  0  0  0  0  0  0  0  0  0
    8.7397  -15.9694   24.4876 O   0  0  0  0  0  0  0  0  0  0  0  0
    7.6332  -14.0305   25.2233 N   0  0  0  0  0  0  0  0  0  0  0  0
    6.7809  -12.8763   25.0937 C   0  0  0  0  0  0  0  0  0  0  0  0
    6.9105  -12.1000   26.3744 C   0  0  0  0  0  0  0  0  0  0  0  0
    7.9912  -12.7620   27.1628 C   0  0  0  0  0  0  0  0  0  0  0  0
    7.9476  -14.1825   26.6321 C   0  0  1  0  0  0  0  0  0  0  0  0
    6.9523  -15.0198   27.3167 C   0  0  0  0  0  0  0  0  0  0  0  0
    7.1747  -15.4179   28.4806 O   0  0  0  0  0  0  0  0  0  0  0  0
    5.7829  -15.3686   26.6926 O   0  0  0  0  0  0  0  0  0  0  0  0
  2  1  1  1
  2  3  1  0
  3  4  1  0
  4  8  1  0
  5  4  2  0
  6  9  1  0
  6  2  1  0
  7  6  2  0
  9 13  1  0
 10 11  1  0
 10  9  1  0
 11 12  1  0
 12 13  1  0
 13 14  1  1
 14 16  1  0
 15 14  2  0
 16 20  1  0
 17 16  1  0
 17 18  1  0
 18 19  1  0
 20 21  1  1
 20 19  1  0
 21 23  1  0
 22 21  2  0
M  END
$$$$
