DPP.pdb
     RDKit          3D

 23 24  0  0  1  0  0  0  0  0999 V2000
    8.8475  -14.6673   20.8251 N   0  0  0  0  0  0  0  0  0  0  0  0
    8.0469  -15.1441   21.9640 C   0  0  1  0  0  0  0  0  0  0  0  0
    8.0497  -16.6689   21.9688 C   0  0  0  0  0  0  0  0  0  0  0  0
    7.4670  -17.1803   20.7020 C   0  0  0  0  0  0  0  0  0  0  0  0
    6.2183  -17.3407   20.6090 O   0  0  0  0  0  0  0  0  0  0  0  0
    8.5824  -14.5989   23.2281 C   0  0  0  0  0  0  0  0  0  0  0  0
    9.8470  -14.4744   23.3201 O   0  0  0  0  0  0  0  0  0  0  0  0
    8.2347  -17.4964   19.5969 O   0  0  0  0  0  0  0  0  0  0  0  0
    7.7755  -14.2147   24.3222 N   0  0  0  0  0  0  0  0  0  0  0  0
    6.3382  -14.1036   24.2698 C   0  0  0  0  0  0  0  0  0  0  0  0
    6.1275  -12.9135   25.2207 C   0  0  0  0  0  0  0  0  0  0  0  0
    6.9192  -13.4673   26.3920 C   0  0  0  0  0  0  0  0  0  0  0  0
    8.1890  -13.8605   25.6594 C   0  0  1  0  0  0  0  0  0  0  0  0
    8.8989  -14.9775   26.3493 C   0  0  0  0  0  0  0  0  0  0  0  0
    8.8477  -16.0925   25.7683 O   0  0  0  0  0  0  0  0  0  0  0  0
    9.5851  -14.7887   27.5797 N   0  0  0  0  0  0  0  0  0  0  0  0
    9.4868  -13.7041   28.5229 C   0  0  0  0  0  0  0  0  0  0  0  0
   10.6939  -13.7984   29.4139 C   0  0  0  0  0  0  0  0  0  0  0  0
   11.5623  -14.8670   28.8381 C   0  0  0  0  0  0  0  0  0  0  0  0
   10.5567  -15.7320   28.1022 C   0  0  1  0  0  0  0  0  0  0  0  0
    9.9197  -16.7339   28.9688 C   0  0  0  0  0  0  0  0  0  0  0  0
    8.7086  -16.6212   29.2574 O   0  0  0  0  0  0  0  0  0  0  0  0
   10.6393  -17.7902   29.4637 O   0  0  0  0  0  0  0  0  0  0  0  0
  2  1  1  6
  2  3  1  0
  3  4  1  0
  4  8  1  0
  5  4  2  0
  6  9  1  0
  6  2  1  0
  7  6  2  0
  9 13  1  0
 10 11  1  0
 10  9  1  0
 11 12  1  0
 12 13  1  0
 13 14  1  1
 14 16  1  0
 15 14  2  0
 16 20  1  0
 17 16  1  0
 17 18  1  0
 18 19  1  0
 20 21  1  1
 20 19  1  0
 21 23  1  0
 22 21  2  0
M  END
$$$$
