DPP.pdb
     RDKit          3D

 23 24  0  0  1  0  0  0  0  0999 V2000
   11.8863  -16.8454   20.7809 N   0  0  0  0  0  0  0  0  0  0  0  0
   10.5477  -17.1667   21.3007 C   0  0  1  0  0  0  0  0  0  0  0  0
   10.6248  -18.4596   22.1052 C   0  0  0  0  0  0  0  0  0  0  0  0
   11.0256  -19.5832   21.2207 C   0  0  0  0  0  0  0  0  0  0  0  0
   11.9769  -20.3391   21.5634 O   0  0  0  0  0  0  0  0  0  0  0  0
   10.0370  -16.0494   22.1211 C   0  0  0  0  0  0  0  0  0  0  0  0
   10.8549  -15.4957   22.9260 O   0  0  0  0  0  0  0  0  0  0  0  0
   10.3999  -19.8510   20.0176 O   0  0  0  0  0  0  0  0  0  0  0  0
    8.7090  -15.5719   22.0587 N   0  0  0  0  0  0  0  0  0  0  0  0
    7.7193  -16.0483   21.1236 C   0  0  0  0  0  0  0  0  0  0  0  0
    6.9444  -14.7449   20.8677 C   0  0  0  0  0  0  0  0  0  0  0  0
    6.6774  -14.3974   22.3214 C   0  0  0  0  0  0  0  0  0  0  0  0
    8.0849  -14.5519   22.8680 C   0  0  1  0  0  0  0  0  0  0  0  0
    8.0764  -14.9036   24.3185 C   0  0  0  0  0  0  0  0  0  0  0  0
    8.5616  -16.0285   24.6058 O   0  0  0  0  0  0  0  0  0  0  0  0
    7.5542  -14.0230   25.3046 N   0  0  0  0  0  0  0  0  0  0  0  0
    6.8684  -12.7673   25.1361 C   0  0  0  0  0  0  0  0  0  0  0  0
    6.9020  -12.0766   26.4709 C   0  0  0  0  0  0  0  0  0  0  0  0
    7.7747  -12.9050   27.3540 C   0  0  0  0  0  0  0  0  0  0  0  0
    7.6437  -14.2814   26.7300 C   0  0  1  0  0  0  0  0  0  0  0  0
    6.4704  -15.0216   27.2159 C   0  0  0  0  0  0  0  0  0  0  0  0
    5.4061  -14.9922   26.5610 O   0  0  0  0  0  0  0  0  0  0  0  0
    6.5310  -15.7437   28.3793 O   0  0  0  0  0  0  0  0  0  0  0  0
  2  1  1  1
  2  3  1  0
  3  4  1  0
  4  8  1  0
  5  4  2  0
  6  9  1  0
  6  2  1  0
  7  6  2  0
  9 13  1  0
 10 11  1  0
 10  9  1  0
 11 12  1  0
 12 13  1  0
 13 14  1  1
 14 16  1  0
 15 14  2  0
 16 20  1  0
 17 16  1  0
 17 18  1  0
 18 19  1  0
 20 21  1  1
 20 19  1  0
 21 23  1  0
 22 21  2  0
M  END
$$$$
