DPP.pdb
     RDKit          3D

 23 24  0  0  1  0  0  0  0  0999 V2000
   11.6540  -16.6914   20.3320 N   0  0  0  0  0  0  0  0  0  0  0  0
   10.3798  -17.0372   20.9817 C   0  0  1  0  0  0  0  0  0  0  0  0
   10.5772  -18.2918   21.8254 C   0  0  0  0  0  0  0  0  0  0  0  0
   10.9827  -19.4269   20.9576 C   0  0  0  0  0  0  0  0  0  0  0  0
   10.2963  -19.7081   19.9361 O   0  0  0  0  0  0  0  0  0  0  0  0
    9.9008  -15.9051   21.8009 C   0  0  0  0  0  0  0  0  0  0  0  0
   10.7749  -15.2467   22.4535 O   0  0  0  0  0  0  0  0  0  0  0  0
   12.0941  -20.2076   21.2140 O   0  0  0  0  0  0  0  0  0  0  0  0
    8.5443  -15.5222   21.8953 N   0  0  0  0  0  0  0  0  0  0  0  0
    7.4872  -16.0769   21.0855 C   0  0  0  0  0  0  0  0  0  0  0  0
    6.5973  -14.8337   20.9198 C   0  0  0  0  0  0  0  0  0  0  0  0
    6.4802  -14.4895   22.3941 C   0  0  0  0  0  0  0  0  0  0  0  0
    7.9497  -14.5394   22.7701 C   0  0  1  0  0  0  0  0  0  0  0  0
    8.1377  -14.8746   24.2123 C   0  0  0  0  0  0  0  0  0  0  0  0
    8.7177  -15.9671   24.4432 O   0  0  0  0  0  0  0  0  0  0  0  0
    7.6895  -14.0139   25.2509 N   0  0  0  0  0  0  0  0  0  0  0  0
    6.8381  -12.8544   25.1721 C   0  0  0  0  0  0  0  0  0  0  0  0
    7.0162  -12.1018   26.4612 C   0  0  0  0  0  0  0  0  0  0  0  0
    8.1211  -12.7819   27.1989 C   0  0  0  0  0  0  0  0  0  0  0  0
    8.0526  -14.1924   26.6449 C   0  0  1  0  0  0  0  0  0  0  0  0
    7.0783  -15.0382   27.3491 C   0  0  0  0  0  0  0  0  0  0  0  0
    7.3304  -15.4400   28.5056 O   0  0  0  0  0  0  0  0  0  0  0  0
    5.8965  -15.3909   26.7512 O   0  0  0  0  0  0  0  0  0  0  0  0
  2  1  1  1
  2  3  1  0
  3  4  1  0
  4  8  1  0
  5  4  2  0
  6  9  1  0
  6  2  1  0
  7  6  2  0
  9 13  1  0
 10 11  1  0
 10  9  1  0
 11 12  1  0
 12 13  1  0
 13 14  1  1
 14 16  1  0
 15 14  2  0
 16 20  1  0
 17 16  1  0
 17 18  1  0
 18 19  1  0
 20 21  1  1
 20 19  1  0
 21 23  1  0
 22 21  2  0
M  END
$$$$
