CRL.pdb
     RDKit          3D

 26 25  0  0  1  0  0  0  0  0999 V2000
   26.7182  -20.8836  -10.4892 N   0  0  0  0  0  0  0  0  0  0  0  0
   25.4319  -20.7009  -11.0897 C   0  0  1  0  0  0  0  0  0  0  0  0
   24.4609  -20.1116  -10.0902 C   0  0  0  0  0  0  0  0  0  0  0  0
   24.2437  -21.3308   -8.7649 S   0  0  0  0  0  0  0  0  0  0  0  0
   25.6008  -19.8380  -12.2896 C   0  0  0  0  0  0  0  0  0  0  0  0
   26.1492  -18.6873  -12.2006 O   0  0  0  0  0  0  0  0  0  0  0  0
   28.1521  -23.5095  -16.3573 N   0  0  0  0  0  0  0  0  0  0  0  0
   27.2808  -22.8234  -17.2760 C   0  0  0  0  0  0  0  0  0  0  0  0
   26.3677  -23.4523  -17.9024 N   0  0  0  0  0  0  0  0  0  0  0  0
   27.4610  -21.4318  -17.4683 N   0  0  0  0  0  0  0  0  0  0  0  0
   28.3573  -20.6933  -16.6037 C   0  0  0  0  0  0  0  0  0  0  0  0
   27.5778  -20.0361  -15.4430 C   0  0  0  0  0  0  0  0  0  0  0  0
   26.1302  -19.9967  -15.7613 C   0  0  0  0  0  0  0  0  0  0  0  0
   25.2421  -19.3120  -14.7519 C   0  0  2  0  0  0  0  0  0  0  0  0
   25.1764  -20.2220  -13.5802 N   0  0  0  0  0  0  0  0  0  0  0  0
   23.8812  -19.1729  -15.2969 C   0  0  0  0  0  0  0  0  0  0  0  0
   23.1174  -20.1974  -15.1625 O   0  0  0  0  0  0  0  0  0  0  0  0
   25.7705  -22.9632  -18.5802 C   0  0  0  0  0  0  0  0  0  0  0  0
   19.1758  -15.6441  -16.3725 C   0  0  2  0  0  0  0  0  0  0  0  0
   19.7266  -17.0690  -16.2682 C   0  0  0  0  0  0  0  0  0  0  0  0
   18.7863  -17.9301  -15.4487 C   0  0  0  0  0  0  0  0  0  0  0  0
   21.1242  -17.0606  -15.7296 C   0  0  2  0  0  0  0  0  0  0  0  0
   21.9551  -18.1180  -16.4197 N   0  0  0  0  0  0  0  0  0  0  0  0
   23.3386  -18.0440  -15.9356 C   0  0  0  0  0  0  0  0  0  0  0  0
   21.9956  -17.9373  -17.8766 O   0  0  0  0  0  0  0  0  0  0  0  0
   23.1181  -17.3465  -18.4817 O   0  0  0  0  0  0  0  0  0  0  0  0
  2  3  1  0
  2  1  1  1
  3  4  1  0
  5  6  2  0
  5  2  1  0
  7  8  1  0
  8  9  2  0
 10  8  1  0
 10 11  1  0
 11 12  1  0
 13 12  1  0
 14 13  1  6
 14 15  1  0
 15  5  1  0
 16 14  1  0
 16 17  2  0
 19 21  1  0
 19 18  1  6
 20 19  1  0
 22 21  1  1
 22 23  1  0
 23 16  1  0
 24 22  1  0
 25 24  1  0
 26 24  2  0
M  END
$$$$
