CRL.pdb
     RDKit          3D

 26 25  0  0  1  0  0  0  0  0999 V2000
   24.4811  -17.4730  -16.8404 N   0  0  0  0  0  0  0  0  0  0  0  0
   23.4646  -18.4718  -16.7067 C   0  0  1  0  0  0  0  0  0  0  0  0
   22.7832  -18.7138  -18.0356 C   0  0  0  0  0  0  0  0  0  0  0  0
   21.7207  -17.2813  -18.3664 S   0  0  0  0  0  0  0  0  0  0  0  0
   24.0968  -19.7040  -16.1633 C   0  0  0  0  0  0  0  0  0  0  0  0
   23.4193  -20.7756  -16.0037 O   0  0  0  0  0  0  0  0  0  0  0  0
   31.0721  -24.2153  -14.8091 N   0  0  0  0  0  0  0  0  0  0  0  0
   30.6689  -24.1488  -16.1900 C   0  0  0  0  0  0  0  0  0  0  0  0
   30.7873  -25.1610  -16.9536 N   0  0  0  0  0  0  0  0  0  0  0  0
   30.1369  -22.9318  -16.6818 N   0  0  0  0  0  0  0  0  0  0  0  0
   29.8512  -21.8466  -15.7670 C   0  0  0  0  0  0  0  0  0  0  0  0
   28.4350  -21.9961  -15.1679 C   0  0  0  0  0  0  0  0  0  0  0  0
   27.5430  -20.9395  -15.7031 C   0  0  0  0  0  0  0  0  0  0  0  0
   26.0930  -21.0182  -15.2937 C   0  0  2  0  0  0  0  0  0  0  0  0
   25.4578  -19.7728  -15.7947 N   0  0  0  0  0  0  0  0  0  0  0  0
   25.9881  -21.0235  -13.8249 C   0  0  0  0  0  0  0  0  0  0  0  0
   26.4353  -19.9768  -13.2285 O   0  0  0  0  0  0  0  0  0  0  0  0
   30.4993  -25.1062  -17.9382 C   0  0  0  0  0  0  0  0  0  0  0  0
   26.4256  -19.1937   -9.1357 C   0  0  1  0  0  0  0  0  0  0  0  0
   25.5750  -20.3496   -9.6694 C   0  0  0  0  0  0  0  0  0  0  0  0
   25.5968  -21.5055   -8.6893 C   0  0  0  0  0  0  0  0  0  0  0  0
   26.0187  -20.7456  -11.0441 C   0  0  2  0  0  0  0  0  0  0  0  0
   25.0207  -21.6997  -11.6592 N   0  0  0  0  0  0  0  0  0  0  0  0
   25.4490  -22.0427  -13.0204 C   0  0  0  0  0  0  0  0  0  0  0  0
   23.6768  -21.1165  -11.7620 O   0  0  0  0  0  0  0  0  0  0  0  0
   22.6612  -21.5289  -10.8823 O   0  0  0  0  0  0  0  0  0  0  0  0
  2  3  1  0
  2  1  1  6
  3  4  1  0
  5  6  2  0
  5  2  1  0
  7  8  1  0
  8  9  2  0
 10  8  1  0
 10 11  1  0
 11 12  1  0
 13 12  1  0
 14 13  1  1
 14 15  1  0
 15  5  1  0
 16 14  1  0
 16 17  2  0
 19 21  1  0
 19 18  1  1
 20 19  1  0
 22 21  1  1
 22 23  1  0
 23 16  1  0
 24 22  1  0
 25 24  1  0
 26 24  2  0
M  END
$$$$
