CRL.pdb
     RDKit          3D

 26 25  0  0  1  0  0  0  0  0999 V2000
   26.2517  -24.6735  -15.6141 N   0  0  0  0  0  0  0  0  0  0  0  0
   24.9581  -24.4918  -16.1991 C   0  0  1  0  0  0  0  0  0  0  0  0
   24.6047  -25.6719  -17.0775 C   0  0  0  0  0  0  0  0  0  0  0  0
   25.6046  -25.5414  -18.5853 S   0  0  0  0  0  0  0  0  0  0  0  0
   23.9773  -24.2933  -15.0983 C   0  0  0  0  0  0  0  0  0  0  0  0
   24.0560  -24.9696  -14.0170 O   0  0  0  0  0  0  0  0  0  0  0  0
   21.3319  -18.4025  -10.3830 N   0  0  0  0  0  0  0  0  0  0  0  0
   20.0057  -18.9569  -10.4706 C   0  0  0  0  0  0  0  0  0  0  0  0
   19.0847  -18.5735   -9.6790 N   0  0  0  0  0  0  0  0  0  0  0  0
   19.7466  -19.9392  -11.4575 N   0  0  0  0  0  0  0  0  0  0  0  0
   20.7876  -20.3187  -12.3895 C   0  0  0  0  0  0  0  0  0  0  0  0
   20.2604  -21.3593  -13.4024 C   0  0  0  0  0  0  0  0  0  0  0  0
   21.3494  -21.7712  -14.3206 C   0  0  0  0  0  0  0  0  0  0  0  0
   21.9991  -23.1021  -14.0325 C   0  0  2  0  0  0  0  0  0  0  0  0
   22.9160  -23.3651  -15.1707 N   0  0  0  0  0  0  0  0  0  0  0  0
   20.9783  -24.1632  -14.0158 C   0  0  0  0  0  0  0  0  0  0  0  0
   20.3956  -24.3964  -15.1371 O   0  0  0  0  0  0  0  0  0  0  0  0
   18.1434  -18.9802   -9.7406 C   0  0  0  0  0  0  0  0  0  0  0  0
   20.6789  -28.4935  -13.2809 C   0  0  1  0  0  0  0  0  0  0  0  0
   20.6287  -27.6999  -11.9724 C   0  0  0  0  0  0  0  0  0  0  0  0
   20.7213  -28.6430  -10.7895 C   0  0  0  0  0  0  0  0  0  0  0  0
   19.4118  -26.8279  -11.9258 C   0  0  2  0  0  0  0  0  0  0  0  0
   19.4357  -25.8383  -13.0681 N   0  0  0  0  0  0  0  0  0  0  0  0
   20.5867  -24.9412  -12.9121 C   0  0  0  0  0  0  0  0  0  0  0  0
   18.2328  -24.9968  -13.1067 O   0  0  0  0  0  0  0  0  0  0  0  0
   18.2555  -23.7096  -12.5427 O   0  0  0  0  0  0  0  0  0  0  0  0
  2  3  1  0
  2  1  1  1
  3  4  1  0
  5  6  2  0
  5  2  1  0
  7  8  1  0
  8  9  2  0
 10  8  1  0
 10 11  1  0
 11 12  1  0
 13 12  1  0
 14 13  1  6
 14 15  1  0
 15  5  1  0
 16 14  1  0
 16 17  2  0
 19 21  1  0
 19 18  1  6
 20 19  1  0
 22 21  1  6
 22 23  1  0
 23 16  1  0
 24 22  1  0
 25 24  1  0
 26 24  2  0
M  END
$$$$
