CRL.pdb
     RDKit          3D

 26 25  0  0  1  0  0  0  0  0999 V2000
   11.7873  -13.8375  -10.9549 N   0  0  0  0  0  0  0  0  0  0  0  0
   11.7353  -12.4379  -11.2502 C   0  0  1  0  0  0  0  0  0  0  0  0
   11.1158  -11.6773  -10.0984 C   0  0  0  0  0  0  0  0  0  0  0  0
    9.3508  -12.0942  -10.0631 S   0  0  0  0  0  0  0  0  0  0  0  0
   13.1175  -11.9782  -11.5525 C   0  0  0  0  0  0  0  0  0  0  0  0
   14.1338  -12.6109  -11.1059 O   0  0  0  0  0  0  0  0  0  0  0  0
   18.9922  -13.3384  -15.5646 N   0  0  0  0  0  0  0  0  0  0  0  0
   19.2907  -11.9712  -15.9045 C   0  0  0  0  0  0  0  0  0  0  0  0
   20.3566  -11.6733  -16.5345 N   0  0  0  0  0  0  0  0  0  0  0  0
   18.3721  -10.9630  -15.5229 N   0  0  0  0  0  0  0  0  0  0  0  0
   17.1062  -11.3289  -14.9231 C   0  0  0  0  0  0  0  0  0  0  0  0
   16.2153  -10.0823  -14.7251 C   0  0  0  0  0  0  0  0  0  0  0  0
   14.9056  -10.4793  -14.1547 C   0  0  0  0  0  0  0  0  0  0  0  0
   14.7778  -10.3973  -12.6536 C   0  0  2  0  0  0  0  0  0  0  0  0
   13.3953  -10.8369  -12.3357 N   0  0  0  0  0  0  0  0  0  0  0  0
   14.9226   -8.9988  -12.2155 C   0  0  0  0  0  0  0  0  0  0  0  0
   14.0179   -8.1861  -12.6305 O   0  0  0  0  0  0  0  0  0  0  0  0
   20.6236  -10.6906  -16.6693 C   0  0  0  0  0  0  0  0  0  0  0  0
   13.7281   -6.1911   -9.3637 C   0  0  1  0  0  0  0  0  0  0  0  0
   14.8658   -7.0975   -8.8856 C   0  0  0  0  0  0  0  0  0  0  0  0
   15.0311   -6.9747   -7.3840 C   0  0  0  0  0  0  0  0  0  0  0  0
   16.1293   -6.8046   -9.6347 C   0  0  2  0  0  0  0  0  0  0  0  0
   15.9222   -7.0309  -11.1147 N   0  0  0  0  0  0  0  0  0  0  0  0
   15.9347   -8.4716  -11.3943 C   0  0  0  0  0  0  0  0  0  0  0  0
   16.9820   -6.4224  -11.9291 O   0  0  0  0  0  0  0  0  0  0  0  0
   17.0464   -5.0256  -12.0712 O   0  0  0  0  0  0  0  0  0  0  0  0
  2  3  1  0
  2  1  1  1
  3  4  1  0
  5  6  2  0
  5  2  1  0
  7  8  1  0
  8  9  2  0
 10  8  1  0
 10 11  1  0
 11 12  1  0
 13 12  1  0
 14 13  1  6
 14 15  1  0
 15  5  1  0
 16 14  1  0
 16 17  2  0
 19 21  1  0
 19 18  1  1
 20 19  1  0
 22 21  1  1
 22 23  1  0
 23 16  1  0
 24 22  1  0
 25 24  1  0
 26 24  2  0
M  END
$$$$
