CRL.pdb
     RDKit          3D

 26 25  0  0  1  0  0  0  0  0999 V2000
   26.0548  -12.6821  -18.0250 N   0  0  0  0  0  0  0  0  0  0  0  0
   25.5947  -12.1731  -16.7689 C   0  0  1  0  0  0  0  0  0  0  0  0
   26.7039  -11.4233  -16.0642 C   0  0  0  0  0  0  0  0  0  0  0  0
   27.9358  -12.6476  -15.5409 S   0  0  0  0  0  0  0  0  0  0  0  0
   24.4070  -11.3149  -17.0256 C   0  0  0  0  0  0  0  0  0  0  0  0
   24.3358  -10.5861  -18.0727 O   0  0  0  0  0  0  0  0  0  0  0  0
   16.8229  -11.1654  -14.5760 N   0  0  0  0  0  0  0  0  0  0  0  0
   16.4555  -10.8305  -15.9275 C   0  0  0  0  0  0  0  0  0  0  0  0
   15.3707  -10.2107  -16.1742 N   0  0  0  0  0  0  0  0  0  0  0  0
   17.3276  -11.2054  -16.9786 N   0  0  0  0  0  0  0  0  0  0  0  0
   18.5975  -11.8310  -16.6749 C   0  0  0  0  0  0  0  0  0  0  0  0
   19.5601  -10.8194  -16.0138 C   0  0  0  0  0  0  0  0  0  0  0  0
   20.9247  -11.3937  -15.9349 C   0  0  0  0  0  0  0  0  0  0  0  0
   22.0394  -10.5488  -16.5006 C   0  0  2  0  0  0  0  0  0  0  0  0
   23.3018  -11.2480  -16.1498 N   0  0  0  0  0  0  0  0  0  0  0  0
   22.0508   -9.2314  -15.8429 C   0  0  0  0  0  0  0  0  0  0  0  0
   22.5026   -9.2107  -14.6401 O   0  0  0  0  0  0  0  0  0  0  0  0
   15.0945  -10.0112  -17.1434 C   0  0  0  0  0  0  0  0  0  0  0  0
   24.4241   -5.7798  -16.0040 C   0  0  1  0  0  0  0  0  0  0  0  0
   23.3266   -5.7126  -17.0696 C   0  0  0  0  0  0  0  0  0  0  0  0
   23.6138   -4.5841  -18.0398 C   0  0  0  0  0  0  0  0  0  0  0  0
   21.9748   -5.6021  -16.4342 C   0  0  2  0  0  0  0  0  0  0  0  0
   21.7109   -6.8051  -15.5579 N   0  0  0  0  0  0  0  0  0  0  0  0
   21.6286   -8.0087  -16.3937 C   0  0  0  0  0  0  0  0  0  0  0  0
   20.4422   -6.6985  -14.8259 O   0  0  0  0  0  0  0  0  0  0  0  0
   20.3340   -5.8282  -13.7277 O   0  0  0  0  0  0  0  0  0  0  0  0
  2  3  1  0
  2  1  1  6
  3  4  1  0
  5  6  2  0
  5  2  1  0
  7  8  1  0
  8  9  2  0
 10  8  1  0
 10 11  1  0
 11 12  1  0
 13 12  1  0
 14 13  1  1
 14 15  1  0
 15  5  1  0
 16 14  1  0
 16 17  2  0
 19 21  1  0
 19 18  1  6
 20 19  1  0
 22 21  1  1
 22 23  1  0
 23 16  1  0
 24 22  1  0
 25 24  1  0
 26 24  2  0
M  END
$$$$
