CRL.pdb
     RDKit          3D

 26 25  0  0  1  0  0  0  0  0999 V2000
   16.9959  -14.0506  -16.3957 N   0  0  0  0  0  0  0  0  0  0  0  0
   16.8780  -13.2006  -15.2501 C   0  0  1  0  0  0  0  0  0  0  0  0
   17.6822  -13.7557  -14.0951 C   0  0  0  0  0  0  0  0  0  0  0  0
   16.8650  -15.2812  -13.5518 S   0  0  0  0  0  0  0  0  0  0  0  0
   17.3194  -11.8349  -15.6412 C   0  0  0  0  0  0  0  0  0  0  0  0
   18.2772  -11.6649  -16.4697 O   0  0  0  0  0  0  0  0  0  0  0  0
   11.7028  -10.0920  -12.8869 N   0  0  0  0  0  0  0  0  0  0  0  0
   11.4326   -9.9358  -14.2928 C   0  0  0  0  0  0  0  0  0  0  0  0
   10.2985  -10.2516  -14.7782 N   0  0  0  0  0  0  0  0  0  0  0  0
   12.4566   -9.4223  -15.1257 N   0  0  0  0  0  0  0  0  0  0  0  0
   13.7628   -9.1353  -14.5710 C   0  0  0  0  0  0  0  0  0  0  0  0
   14.7130   -8.5954  -15.6630 C   0  0  0  0  0  0  0  0  0  0  0  0
   16.0615   -8.3618  -15.0927 C   0  0  0  0  0  0  0  0  0  0  0  0
   17.1522   -9.2987  -15.5499 C   0  0  2  0  0  0  0  0  0  0  0  0
   16.7240  -10.6590  -15.1352 N   0  0  0  0  0  0  0  0  0  0  0  0
   18.4081   -8.9834  -14.8486 C   0  0  0  0  0  0  0  0  0  0  0  0
   18.4885   -9.3938  -13.6336 O   0  0  0  0  0  0  0  0  0  0  0  0
   10.0965  -10.0943  -15.7731 C   0  0  0  0  0  0  0  0  0  0  0  0
   24.1699   -8.2759  -14.9448 C   0  0  1  0  0  0  0  0  0  0  0  0
   23.0145   -8.8470  -14.1181 C   0  0  0  0  0  0  0  0  0  0  0  0
   23.4526  -10.1219  -13.4253 C   0  0  0  0  0  0  0  0  0  0  0  0
   21.7959   -9.0373  -14.9679 C   0  0  2  0  0  0  0  0  0  0  0  0
   20.6910   -8.1136  -14.5090 N   0  0  0  0  0  0  0  0  0  0  0  0
   19.5162   -8.2929  -15.3702 C   0  0  0  0  0  0  0  0  0  0  0  0
   21.0740   -6.6980  -14.5881 O   0  0  0  0  0  0  0  0  0  0  0  0
   21.8449   -6.1191  -13.5655 O   0  0  0  0  0  0  0  0  0  0  0  0
  2  3  1  0
  2  1  1  6
  3  4  1  0
  5  6  2  0
  5  2  1  0
  7  8  1  0
  8  9  2  0
 10  8  1  0
 10 11  1  0
 11 12  1  0
 13 12  1  0
 14 13  1  1
 14 15  1  0
 15  5  1  0
 16 14  1  0
 16 17  2  0
 19 21  1  0
 19 18  1  1
 20 19  1  0
 22 21  1  1
 22 23  1  0
 23 16  1  0
 24 22  1  0
 25 24  1  0
 26 24  2  0
M  END
$$$$
