CRL.pdb
     RDKit          3D

 26 25  0  0  1  0  0  0  0  0999 V2000
   23.1379   -9.6355  -17.0237 N   0  0  0  0  0  0  0  0  0  0  0  0
   22.4923   -9.8880  -15.7715 C   0  0  1  0  0  0  0  0  0  0  0  0
   23.5021   -9.8788  -14.6449 C   0  0  0  0  0  0  0  0  0  0  0  0
   24.4671  -11.4094  -14.7721 S   0  0  0  0  0  0  0  0  0  0  0  0
   21.4291   -8.8642  -15.5856 C   0  0  0  0  0  0  0  0  0  0  0  0
   21.5798   -7.6724  -16.0210 O   0  0  0  0  0  0  0  0  0  0  0  0
   13.7690  -10.6791  -17.1473 N   0  0  0  0  0  0  0  0  0  0  0  0
   13.9941  -10.8406  -15.7342 C   0  0  0  0  0  0  0  0  0  0  0  0
   13.0626  -11.2483  -14.9675 N   0  0  0  0  0  0  0  0  0  0  0  0
   15.2758  -10.5361  -15.2139 N   0  0  0  0  0  0  0  0  0  0  0  0
   16.3910  -10.3325  -16.1145 C   0  0  0  0  0  0  0  0  0  0  0  0
   17.6790  -10.0107  -15.3243 C   0  0  0  0  0  0  0  0  0  0  0  0
   17.9231   -8.5483  -15.3248 C   0  0  0  0  0  0  0  0  0  0  0  0
   19.1938   -8.0824  -14.6579 C   0  0  2  0  0  0  0  0  0  0  0  0
   20.2079   -9.1327  -14.9299 N   0  0  0  0  0  0  0  0  0  0  0  0
   18.9950   -8.0084  -13.2007 C   0  0  0  0  0  0  0  0  0  0  0  0
   18.8568   -9.1343  -12.5971 O   0  0  0  0  0  0  0  0  0  0  0  0
   13.2355  -11.3798  -13.9634 C   0  0  0  0  0  0  0  0  0  0  0  0
   21.0167   -8.6766   -9.9974 C   0  0  1  0  0  0  0  0  0  0  0  0
   21.2659   -7.2641  -10.5336 C   0  0  0  0  0  0  0  0  0  0  0  0
   22.5343   -6.6959   -9.9290 C   0  0  0  0  0  0  0  0  0  0  0  0
   20.0713   -6.3901  -10.3044 C   0  0  2  0  0  0  0  0  0  0  0  0
   18.8495   -6.9959  -10.9563 N   0  0  0  0  0  0  0  0  0  0  0  0
   18.9483   -6.8448  -12.4127 C   0  0  0  0  0  0  0  0  0  0  0  0
   17.6053   -6.3387  -10.5359 O   0  0  0  0  0  0  0  0  0  0  0  0
   16.8275   -5.6381  -11.4738 O   0  0  0  0  0  0  0  0  0  0  0  0
  2  3  1  0
  2  1  1  6
  3  4  1  0
  5  6  2  0
  5  2  1  0
  7  8  1  0
  8  9  2  0
 10  8  1  0
 10 11  1  0
 11 12  1  0
 13 12  1  0
 14 13  1  6
 14 15  1  0
 15  5  1  0
 16 14  1  0
 16 17  2  0
 19 21  1  0
 19 18  1  6
 20 19  1  0
 22 21  1  6
 22 23  1  0
 23 16  1  0
 24 22  1  0
 25 24  1  0
 26 24  2  0
M  END
$$$$
