CRL.pdb
     RDKit          3D

 26 25  0  0  1  0  0  0  0  0999 V2000
   25.8872  -19.4954  -18.3946 N   0  0  0  0  0  0  0  0  0  0  0  0
   26.2896  -18.7487  -17.2417 C   0  0  1  0  0  0  0  0  0  0  0  0
   25.2825  -17.6611  -16.9384 C   0  0  0  0  0  0  0  0  0  0  0  0
   23.7672  -18.4739  -16.3610 S   0  0  0  0  0  0  0  0  0  0  0  0
   26.4522  -19.6998  -16.1093 C   0  0  0  0  0  0  0  0  0  0  0  0
   25.7900  -20.7917  -16.0669 O   0  0  0  0  0  0  0  0  0  0  0  0
   31.5001  -21.3200   -9.1197 N   0  0  0  0  0  0  0  0  0  0  0  0
   31.9702  -22.1118  -10.2269 C   0  0  0  0  0  0  0  0  0  0  0  0
   32.7368  -23.1106  -10.0358 N   0  0  0  0  0  0  0  0  0  0  0  0
   31.5612  -21.7558  -11.5354 N   0  0  0  0  0  0  0  0  0  0  0  0
   30.7216  -20.5939  -11.7385 C   0  0  0  0  0  0  0  0  0  0  0  0
   29.3144  -21.0144  -12.2180 C   0  0  0  0  0  0  0  0  0  0  0  0
   28.8883  -20.1607  -13.3529 C   0  0  0  0  0  0  0  0  0  0  0  0
   27.5197  -20.4405  -13.9230 C   0  0  2  0  0  0  0  0  0  0  0  0
   27.3294  -19.4667  -15.0280 N   0  0  0  0  0  0  0  0  0  0  0  0
   26.4905  -20.1783  -12.9031 C   0  0  0  0  0  0  0  0  0  0  0  0
   26.3895  -18.9588  -12.5109 O   0  0  0  0  0  0  0  0  0  0  0  0
   33.0631  -23.6751  -10.8295 C   0  0  0  0  0  0  0  0  0  0  0  0
   22.2926  -19.1429  -12.5877 C   0  0  2  0  0  0  0  0  0  0  0  0
   22.7312  -20.5849  -12.8575 C   0  0  0  0  0  0  0  0  0  0  0  0
   21.5804  -21.3755  -13.4474 C   0  0  0  0  0  0  0  0  0  0  0  0
   23.2905  -21.2113  -11.6173 C   0  0  2  0  0  0  0  0  0  0  0  0
   24.6588  -20.6432  -11.3180 N   0  0  0  0  0  0  0  0  0  0  0  0
   25.6142  -21.1150  -12.3273 C   0  0  0  0  0  0  0  0  0  0  0  0
   25.1681  -21.0676  -10.0076 O   0  0  0  0  0  0  0  0  0  0  0  0
   24.7785  -20.3811   -8.8448 O   0  0  0  0  0  0  0  0  0  0  0  0
  2  3  1  0
  2  1  1  6
  3  4  1  0
  5  6  2  0
  5  2  1  0
  7  8  1  0
  8  9  2  0
 10  8  1  0
 10 11  1  0
 11 12  1  0
 13 12  1  0
 14 13  1  1
 14 15  1  0
 15  5  1  0
 16 14  1  0
 16 17  2  0
 19 21  1  0
 19 18  1  6
 20 19  1  0
 22 21  1  6
 22 23  1  0
 23 16  1  0
 24 22  1  0
 25 24  1  0
 26 24  2  0
M  END
$$$$
