CRL.pdb
     RDKit          3D

 26 25  0  0  1  0  0  0  0  0999 V2000
   20.7805  -16.7749  -17.5495 N   0  0  0  0  0  0  0  0  0  0  0  0
   21.7440  -16.5141  -16.5237 C   0  0  1  0  0  0  0  0  0  0  0  0
   21.0596  -16.0148  -15.2702 C   0  0  0  0  0  0  0  0  0  0  0  0
   20.5261  -14.3107  -15.5885 S   0  0  0  0  0  0  0  0  0  0  0  0
   22.5155  -17.7638  -16.2866 C   0  0  0  0  0  0  0  0  0  0  0  0
   21.9202  -18.8768  -16.0877 O   0  0  0  0  0  0  0  0  0  0  0  0
   29.1809  -21.9407  -15.7024 N   0  0  0  0  0  0  0  0  0  0  0  0
   29.2497  -21.8389  -17.1372 C   0  0  0  0  0  0  0  0  0  0  0  0
   29.5980  -22.8377  -17.8462 N   0  0  0  0  0  0  0  0  0  0  0  0
   28.9211  -20.6022  -17.7444 N   0  0  0  0  0  0  0  0  0  0  0  0
   28.4251  -19.5093  -16.9347 C   0  0  0  0  0  0  0  0  0  0  0  0
   27.0737  -19.8810  -16.2848 C   0  0  0  0  0  0  0  0  0  0  0  0
   26.0743  -18.8177  -16.5476 C   0  0  0  0  0  0  0  0  0  0  0  0
   24.6901  -19.0498  -15.9939 C   0  0  2  0  0  0  0  0  0  0  0  0
   23.9265  -17.8053  -16.2653 N   0  0  0  0  0  0  0  0  0  0  0  0
   24.7598  -19.2317  -14.5343 C   0  0  0  0  0  0  0  0  0  0  0  0
   24.4837  -18.1947  -13.8276 O   0  0  0  0  0  0  0  0  0  0  0  0
   29.6046  -22.7709  -18.8713 C   0  0  0  0  0  0  0  0  0  0  0  0
   23.9152  -21.5176   -9.9577 C   0  0  1  0  0  0  0  0  0  0  0  0
   23.3831  -20.1903  -10.5052 C   0  0  0  0  0  0  0  0  0  0  0  0
   21.9520  -19.9789  -10.0531 C   0  0  0  0  0  0  0  0  0  0  0  0
   23.5366  -20.1295  -11.9939 C   0  0  1  0  0  0  0  0  0  0  0  0
   24.9684  -20.4188  -12.3824 N   0  0  0  0  0  0  0  0  0  0  0  0
   25.0877  -20.4125  -13.8451 C   0  0  0  0  0  0  0  0  0  0  0  0
   25.4210  -21.7359  -11.9165 O   0  0  0  0  0  0  0  0  0  0  0  0
   26.2956  -21.8328  -10.8206 O   0  0  0  0  0  0  0  0  0  0  0  0
  2  3  1  0
  2  1  1  6
  3  4  1  0
  5  6  2  0
  5  2  1  0
  7  8  1  0
  8  9  2  0
 10  8  1  0
 10 11  1  0
 11 12  1  0
 13 12  1  0
 14 13  1  1
 14 15  1  0
 15  5  1  0
 16 14  1  0
 16 17  2  0
 19 21  1  0
 19 18  1  1
 20 19  1  0
 22 21  1  1
 22 23  1  0
 23 16  1  0
 24 22  1  0
 25 24  1  0
 26 24  2  0
M  END
$$$$
