CRL.pdb
     RDKit          3D

 26 25  0  0  1  0  0  0  0  0999 V2000
   14.0066  -14.0286  -12.3608 N   0  0  0  0  0  0  0  0  0  0  0  0
   14.0707  -12.7407  -12.9819 C   0  0  1  0  0  0  0  0  0  0  0  0
   12.7212  -12.0589  -12.9255 C   0  0  0  0  0  0  0  0  0  0  0  0
   11.5493  -13.1049  -13.8326 S   0  0  0  0  0  0  0  0  0  0  0  0
   15.1313  -11.9514  -12.2999 C   0  0  0  0  0  0  0  0  0  0  0  0
   15.4878  -12.2241  -11.1035 O   0  0  0  0  0  0  0  0  0  0  0  0
   19.3455   -5.6966  -13.2496 N   0  0  0  0  0  0  0  0  0  0  0  0
   20.6860   -6.2226  -13.2584 C   0  0  0  0  0  0  0  0  0  0  0  0
   21.6654   -5.5195  -12.8486 N   0  0  0  0  0  0  0  0  0  0  0  0
   20.8925   -7.5410  -13.7331 N   0  0  0  0  0  0  0  0  0  0  0  0
   19.7609   -8.3484  -14.1377 C   0  0  0  0  0  0  0  0  0  0  0  0
   18.8759   -8.6968  -12.9203 C   0  0  0  0  0  0  0  0  0  0  0  0
   17.8332   -9.6748  -13.3137 C   0  0  0  0  0  0  0  0  0  0  0  0
   16.8699  -10.0965  -12.2317 C   0  0  2  0  0  0  0  0  0  0  0  0
   15.8019  -10.8711  -12.9134 N   0  0  0  0  0  0  0  0  0  0  0  0
   16.2512   -8.9073  -11.6223 C   0  0  0  0  0  0  0  0  0  0  0  0
   15.4585   -8.2384  -12.3808 O   0  0  0  0  0  0  0  0  0  0  0  0
   22.6004   -5.9348  -12.7545 C   0  0  0  0  0  0  0  0  0  0  0  0
   14.7885   -6.1142   -6.3316 C   0  0  2  0  0  0  0  0  0  0  0  0
   14.6488   -6.2320   -7.8519 C   0  0  0  0  0  0  0  0  0  0  0  0
   13.1839   -6.2246   -8.2406 C   0  0  0  0  0  0  0  0  0  0  0  0
   15.3785   -7.4369   -8.3610 C   0  0  2  0  0  0  0  0  0  0  0  0
   15.6067   -7.3172   -9.8504 N   0  0  0  0  0  0  0  0  0  0  0  0
   16.4334   -8.4398  -10.3089 C   0  0  0  0  0  0  0  0  0  0  0  0
   16.3142   -6.0821  -10.2121 O   0  0  0  0  0  0  0  0  0  0  0  0
   17.7097   -6.0932  -10.3790 O   0  0  0  0  0  0  0  0  0  0  0  0
  2  3  1  0
  2  1  1  1
  3  4  1  0
  5  6  2  0
  5  2  1  0
  7  8  1  0
  8  9  2  0
 10  8  1  0
 10 11  1  0
 11 12  1  0
 13 12  1  0
 14 13  1  6
 14 15  1  0
 15  5  1  0
 16 14  1  0
 16 17  2  0
 19 21  1  0
 19 18  1  6
 20 19  1  0
 22 21  1  6
 22 23  1  0
 23 16  1  0
 24 22  1  0
 25 24  1  0
 26 24  2  0
M  END
$$$$
