CRL.pdb
     RDKit          3D

 26 25  0  0  1  0  0  0  0  0999 V2000
   29.1931  -20.0744  -15.5371 N   0  0  0  0  0  0  0  0  0  0  0  0
   28.9419  -20.9710  -14.4500 C   0  0  1  0  0  0  0  0  0  0  0  0
   30.2403  -21.3723  -13.7851 C   0  0  0  0  0  0  0  0  0  0  0  0
   30.6760  -20.0577  -12.6136 S   0  0  0  0  0  0  0  0  0  0  0  0
   28.0070  -20.3016  -13.5061 C   0  0  0  0  0  0  0  0  0  0  0  0
   27.8661  -19.0317  -13.5093 O   0  0  0  0  0  0  0  0  0  0  0  0
   21.2709  -18.8399  -14.5785 N   0  0  0  0  0  0  0  0  0  0  0  0
   20.5226  -19.5254  -13.5569 C   0  0  0  0  0  0  0  0  0  0  0  0
   19.3628  -19.1237  -13.2173 N   0  0  0  0  0  0  0  0  0  0  0  0
   21.1045  -20.6580  -12.9366 N   0  0  0  0  0  0  0  0  0  0  0  0
   22.4316  -21.0901  -13.3217 C   0  0  0  0  0  0  0  0  0  0  0  0
   23.4969  -20.4873  -12.3792 C   0  0  0  0  0  0  0  0  0  0  0  0
   24.8507  -20.9240  -12.7975 C   0  0  0  0  0  0  0  0  0  0  0  0
   26.0010  -20.4409  -11.9490 C   0  0  2  0  0  0  0  0  0  0  0  0
   27.2289  -21.0073  -12.5629 N   0  0  0  0  0  0  0  0  0  0  0  0
   25.8802  -20.9862  -10.5865 C   0  0  0  0  0  0  0  0  0  0  0  0
   25.8391  -22.2675  -10.4984 O   0  0  0  0  0  0  0  0  0  0  0  0
   18.8146  -19.6452  -12.5224 C   0  0  0  0  0  0  0  0  0  0  0  0
   28.4071  -20.9878   -7.0481 C   0  0  1  0  0  0  0  0  0  0  0  0
   27.5066  -19.7520   -7.1281 C   0  0  0  0  0  0  0  0  0  0  0  0
   27.9540  -18.7175   -6.1148 C   0  0  0  0  0  0  0  0  0  0  0  0
   26.0664  -20.1326   -6.9720 C   0  0  2  0  0  0  0  0  0  0  0  0
   25.6264  -20.9945   -8.1331 N   0  0  0  0  0  0  0  0  0  0  0  0
   25.8127  -20.2554   -9.3873 C   0  0  0  0  0  0  0  0  0  0  0  0
   24.2065  -21.3611   -8.0532 O   0  0  0  0  0  0  0  0  0  0  0  0
   23.3066  -20.9097   -9.0339 O   0  0  0  0  0  0  0  0  0  0  0  0
  2  3  1  0
  2  1  1  6
  3  4  1  0
  5  6  2  0
  5  2  1  0
  7  8  1  0
  8  9  2  0
 10  8  1  0
 10 11  1  0
 11 12  1  0
 13 12  1  0
 14 13  1  6
 14 15  1  0
 15  5  1  0
 16 14  1  0
 16 17  2  0
 19 21  1  0
 19 18  1  6
 20 19  1  0
 22 21  1  6
 22 23  1  0
 23 16  1  0
 24 22  1  0
 25 24  1  0
 26 24  2  0
M  END
$$$$
