CRL.pdb
     RDKit          3D

 26 25  0  0  1  0  0  0  0  0999 V2000
   27.2715  -24.6234  -16.6865 N   0  0  0  0  0  0  0  0  0  0  0  0
   26.9010  -23.2422  -16.6256 C   0  0  1  0  0  0  0  0  0  0  0  0
   26.4732  -22.7490  -17.9904 C   0  0  0  0  0  0  0  0  0  0  0  0
   27.9753  -22.5469  -18.9869 S   0  0  0  0  0  0  0  0  0  0  0  0
   25.8241  -23.0975  -15.6095 C   0  0  0  0  0  0  0  0  0  0  0  0
   25.0460  -24.0723  -15.3320 O   0  0  0  0  0  0  0  0  0  0  0  0
   26.6102  -19.6029   -8.4685 N   0  0  0  0  0  0  0  0  0  0  0  0
   25.5823  -20.6038   -8.3454 C   0  0  0  0  0  0  0  0  0  0  0  0
   24.7342  -20.5548   -7.3967 N   0  0  0  0  0  0  0  0  0  0  0  0
   25.5342  -21.6459   -9.3034 N   0  0  0  0  0  0  0  0  0  0  0  0
   25.8939  -21.3784  -10.6801 C   0  0  0  0  0  0  0  0  0  0  0  0
   24.6682  -20.8800  -11.4775 C   0  0  0  0  0  0  0  0  0  0  0  0
   25.0279  -20.7053  -12.9053 C   0  0  0  0  0  0  0  0  0  0  0  0
   24.5456  -21.7764  -13.8521 C   0  0  2  0  0  0  0  0  0  0  0  0
   25.5927  -21.9003  -14.8979 N   0  0  0  0  0  0  0  0  0  0  0  0
   23.2994  -21.3417  -14.5052 C   0  0  0  0  0  0  0  0  0  0  0  0
   23.4052  -20.3375  -15.3000 O   0  0  0  0  0  0  0  0  0  0  0  0
   23.9785  -21.2482   -7.3383 C   0  0  0  0  0  0  0  0  0  0  0  0
   21.0327  -21.6728  -18.0226 C   0  0  2  0  0  0  0  0  0  0  0  0
   20.9006  -22.7606  -16.9531 C   0  0  0  0  0  0  0  0  0  0  0  0
   20.3345  -24.0256  -17.5668 C   0  0  0  0  0  0  0  0  0  0  0  0
   20.0945  -22.2682  -15.7908 C   0  0  2  0  0  0  0  0  0  0  0  0
   20.8853  -21.2496  -15.0023 N   0  0  0  0  0  0  0  0  0  0  0  0
   22.0231  -21.9115  -14.3533 C   0  0  0  0  0  0  0  0  0  0  0  0
   20.0884  -20.6192  -13.9419 O   0  0  0  0  0  0  0  0  0  0  0  0
   18.9813  -19.8197  -14.2741 O   0  0  0  0  0  0  0  0  0  0  0  0
  2  3  1  0
  2  1  1  6
  3  4  1  0
  5  6  2  0
  5  2  1  0
  7  8  1  0
  8  9  2  0
 10  8  1  0
 10 11  1  0
 11 12  1  0
 13 12  1  0
 14 13  1  1
 14 15  1  0
 15  5  1  0
 16 14  1  0
 16 17  2  0
 19 21  1  0
 19 18  1  6
 20 19  1  0
 22 21  1  6
 22 23  1  0
 23 16  1  0
 24 22  1  0
 25 24  1  0
 26 24  2  0
M  END
$$$$
