WHW.pdb
     RDKit          3D

 39 43  0  0  1  0  0  0  0  0999 V2000
   30.2798  -20.6622  -18.6912 N   0  0  0  0  0  0  0  0  0  0  0  0
   29.0851  -21.4312  -18.4156 C   0  0  1  0  0  0  0  0  0  0  0  0
   29.4847  -22.9026  -18.2568 C   0  0  0  0  0  0  0  0  0  0  0  0
   29.8627  -23.3994  -19.5981 C   0  0  0  0  0  0  0  0  0  0  0  0
   31.1479  -23.8126  -19.9604 C   0  0  0  0  0  0  0  0  0  0  0  0
   31.1265  -24.2012  -21.2586 N   0  0  0  0  0  0  0  0  0  0  0  0
   29.8915  -24.0603  -21.7547 C   0  0  0  0  0  0  0  0  0  0  0  0
   29.3332  -24.3002  -22.9815 C   0  0  0  0  0  0  0  0  0  0  0  0
   27.9922  -24.0452  -23.1854 C   0  0  0  0  0  0  0  0  0  0  0  0
   27.1754  -23.5444  -22.1700 C   0  0  0  0  0  0  0  0  0  0  0  0
   27.7609  -23.3114  -20.9445 C   0  0  0  0  0  0  0  0  0  0  0  0
   29.1031  -23.5616  -20.7240 C   0  0  0  0  0  0  0  0  0  0  0  0
   28.4617  -20.9324  -17.1877 C   0  0  0  0  0  0  0  0  0  0  0  0
   29.2043  -20.5889  -16.2324 O   0  0  0  0  0  0  0  0  0  0  0  0
   27.0589  -20.8237  -17.0397 N   0  0  0  0  0  0  0  0  0  0  0  0
   26.3952  -20.0604  -15.9936 C   0  0  1  0  0  0  0  0  0  0  0  0
   25.2553  -19.2291  -16.4677 C   0  0  0  0  0  0  0  0  0  0  0  0
   24.5283  -18.4780  -15.3971 C   0  0  0  0  0  0  0  0  0  0  0  0
   24.7927  -17.2673  -14.8202 C   0  0  0  0  0  0  0  0  0  0  0  0
   23.8672  -17.0037  -13.8872 N   0  0  0  0  0  0  0  0  0  0  0  0
   23.0162  -18.0352  -13.8639 C   0  0  0  0  0  0  0  0  0  0  0  0
   23.4000  -18.9370  -14.7704 N   0  0  0  0  0  0  0  0  0  0  0  0
   25.8263  -21.0614  -15.0504 C   0  0  0  0  0  0  0  0  0  0  0  0
   25.2665  -22.0752  -15.4786 O   0  0  0  0  0  0  0  0  0  0  0  0
   25.9432  -20.8209  -13.6771 N   0  0  0  0  0  0  0  0  0  0  0  0
   25.3549  -21.7494  -12.7050 C   0  0  1  0  0  0  0  0  0  0  0  0
   26.4349  -21.9790  -11.6895 C   0  0  0  0  0  0  0  0  0  0  0  0
   26.3151  -21.0679  -10.5544 C   0  0  0  0  0  0  0  0  0  0  0  0
   25.2166  -20.2987  -10.2517 C   0  0  0  0  0  0  0  0  0  0  0  0
   25.4617  -19.5542   -9.1647 N   0  0  0  0  0  0  0  0  0  0  0  0
   26.7111  -19.8318   -8.7547 C   0  0  0  0  0  0  0  0  0  0  0  0
   27.4712  -19.3788   -7.6946 C   0  0  0  0  0  0  0  0  0  0  0  0
   28.7410  -19.8325   -7.4663 C   0  0  0  0  0  0  0  0  0  0  0  0
   29.3259  -20.7703   -8.2896 C   0  0  0  0  0  0  0  0  0  0  0  0
   28.5746  -21.2235   -9.3457 C   0  0  0  0  0  0  0  0  0  0  0  0
   27.2775  -20.7852   -9.6122 C   0  0  0  0  0  0  0  0  0  0  0  0
   24.0843  -21.2505  -12.2259 C   0  0  0  0  0  0  0  0  0  0  0  0
   23.8283  -20.0243  -12.2131 O   0  0  0  0  0  0  0  0  0  0  0  0
   23.0598  -22.0842  -11.7477 O   0  0  0  0  0  0  0  0  0  0  0  0
  2  3  1  0
  2  1  1  1
  4  3  1  0
  5  4  2  0
  6  5  1  0
  7  6  1  0
  7 12  2  0
  8  7  1  0
  9  8  2  0
  9 10  1  0
 10 11  2  0
 11 12  1  0
 12  4  1  0
 13  2  1  0
 13 14  2  0
 15 13  1  0
 16 15  1  0
 16 17  1  6
 18 17  1  0
 18 22  1  0
 19 18  2  0
 20 19  1  0
 20 21  1  0
 21 22  2  0
 23 16  1  0
 24 23  2  0
 25 23  1  0
 26 37  1  0
 26 25  1  0
 26 27  1  1
 28 36  1  0
 28 27  1  0
 29 28  2  0
 30 29  1  0
 30 31  1  0
 31 36  2  0
 32 31  1  0
 32 33  2  0
 33 34  1  0
 34 35  2  0
 36 35  1  0
 37 39  1  0
 38 37  2  0
M  END
$$$$
