WHW.pdb
     RDKit          3D

 39 43  0  0  1  0  0  0  0  0999 V2000
   28.4234  -21.3216  -10.3671 N   0  0  0  0  0  0  0  0  0  0  0  0
   27.0351  -21.3990   -9.9659 C   0  0  1  0  0  0  0  0  0  0  0  0
   26.8591  -20.5858   -8.6784 C   0  0  0  0  0  0  0  0  0  0  0  0
   28.0748  -20.7937   -7.8614 C   0  0  0  0  0  0  0  0  0  0  0  0
   29.1599  -21.5903   -8.2380 C   0  0  0  0  0  0  0  0  0  0  0  0
   30.0883  -21.5496   -7.2514 N   0  0  0  0  0  0  0  0  0  0  0  0
   29.6584  -20.7664   -6.2550 C   0  0  0  0  0  0  0  0  0  0  0  0
   30.1912  -20.3915   -5.0510 C   0  0  0  0  0  0  0  0  0  0  0  0
   29.4811  -19.5483   -4.2205 C   0  0  0  0  0  0  0  0  0  0  0  0
   28.2218  -19.0585   -4.5712 C   0  0  0  0  0  0  0  0  0  0  0  0
   27.7073  -19.4504   -5.7880 C   0  0  0  0  0  0  0  0  0  0  0  0
   28.4060  -20.2947   -6.6316 C   0  0  0  0  0  0  0  0  0  0  0  0
   26.1922  -20.8582  -11.0347 C   0  0  0  0  0  0  0  0  0  0  0  0
   26.4927  -19.7426  -11.5319 O   0  0  0  0  0  0  0  0  0  0  0  0
   25.0564  -21.5445  -11.5253 N   0  0  0  0  0  0  0  0  0  0  0  0
   24.2737  -21.1276  -12.6791 C   0  0  1  0  0  0  0  0  0  0  0  0
   24.2734  -22.0998  -13.8060 C   0  0  0  0  0  0  0  0  0  0  0  0
   25.5408  -22.1530  -14.5996 C   0  0  0  0  0  0  0  0  0  0  0  0
   26.6864  -21.4138  -14.5014 C   0  0  0  0  0  0  0  0  0  0  0  0
   27.5567  -21.8091  -15.4411 N   0  0  0  0  0  0  0  0  0  0  0  0
   26.9760  -22.7925  -16.1371 C   0  0  0  0  0  0  0  0  0  0  0  0
   25.7560  -23.0144  -15.6428 N   0  0  0  0  0  0  0  0  0  0  0  0
   22.8659  -21.0253  -12.2071 C   0  0  0  0  0  0  0  0  0  0  0  0
   22.4745  -21.7097  -11.2568 O   0  0  0  0  0  0  0  0  0  0  0  0
   22.0074  -20.1391  -12.8667 N   0  0  0  0  0  0  0  0  0  0  0  0
   20.6153  -19.9851  -12.4291 C   0  0  1  0  0  0  0  0  0  0  0  0
   20.2089  -18.6235  -12.9100 C   0  0  0  0  0  0  0  0  0  0  0  0
   20.0970  -18.5731  -14.3654 C   0  0  0  0  0  0  0  0  0  0  0  0
   18.9743  -18.8781  -15.0976 C   0  0  0  0  0  0  0  0  0  0  0  0
   19.2330  -18.7600  -16.4073 N   0  0  0  0  0  0  0  0  0  0  0  0
   20.5156  -18.3795  -16.5358 C   0  0  0  0  0  0  0  0  0  0  0  0
   21.3028  -18.0967  -17.6345 C   0  0  0  0  0  0  0  0  0  0  0  0
   22.6061  -17.7012  -17.5104 C   0  0  0  0  0  0  0  0  0  0  0  0
   23.1994  -17.5654  -16.2739 C   0  0  0  0  0  0  0  0  0  0  0  0
   22.4211  -17.8461  -15.1781 C   0  0  0  0  0  0  0  0  0  0  0  0
   21.0894  -18.2524  -15.2632 C   0  0  0  0  0  0  0  0  0  0  0  0
   19.8161  -21.1109  -12.8611 C   0  0  0  0  0  0  0  0  0  0  0  0
   18.7537  -21.4199  -12.2736 O   0  0  0  0  0  0  0  0  0  0  0  0
   20.1613  -21.9284  -13.9500 O   0  0  0  0  0  0  0  0  0  0  0  0
  2  3  1  0
  2  1  1  6
  4  3  1  0
  5  4  2  0
  6  5  1  0
  7  6  1  0
  7 12  2  0
  8  7  1  0
  9  8  2  0
  9 10  1  0
 10 11  2  0
 11 12  1  0
 12  4  1  0
 13  2  1  0
 13 14  2  0
 15 13  1  0
 16 15  1  0
 16 17  1  6
 18 17  1  0
 18 22  1  0
 19 18  2  0
 20 19  1  0
 20 21  1  0
 21 22  2  0
 23 16  1  0
 24 23  2  0
 25 23  1  0
 26 37  1  0
 26 25  1  0
 26 27  1  6
 28 36  1  0
 28 27  1  0
 29 28  2  0
 30 29  1  0
 30 31  1  0
 31 36  2  0
 32 31  1  0
 32 33  2  0
 33 34  1  0
 34 35  2  0
 36 35  1  0
 37 39  1  0
 38 37  2  0
M  END
$$$$
