WHW.pdb
     RDKit          3D

 39 43  0  0  1  0  0  0  0  0999 V2000
   20.1083  -22.1074  -15.9275 N   0  0  0  0  0  0  0  0  0  0  0  0
   20.6663  -20.9040  -15.3487 C   0  0  1  0  0  0  0  0  0  0  0  0
   19.7707  -20.4696  -14.1829 C   0  0  0  0  0  0  0  0  0  0  0  0
   18.8932  -19.3898  -14.6856 C   0  0  0  0  0  0  0  0  0  0  0  0
   17.5098  -19.5012  -14.8512 C   0  0  0  0  0  0  0  0  0  0  0  0
   17.0360  -18.3246  -15.3286 N   0  0  0  0  0  0  0  0  0  0  0  0
   18.0437  -17.4571  -15.4803 C   0  0  0  0  0  0  0  0  0  0  0  0
   18.1176  -16.1622  -15.9184 C   0  0  0  0  0  0  0  0  0  0  0  0
   19.3396  -15.5219  -15.9602 C   0  0  0  0  0  0  0  0  0  0  0  0
   20.5179  -16.1583  -15.5659 C   0  0  0  0  0  0  0  0  0  0  0  0
   20.4172  -17.4613  -15.1290 C   0  0  0  0  0  0  0  0  0  0  0  0
   19.2004  -18.1170  -15.0811 C   0  0  0  0  0  0  0  0  0  0  0  0
   22.0256  -21.1795  -14.8779 C   0  0  0  0  0  0  0  0  0  0  0  0
   22.2483  -22.2659  -14.2844 O   0  0  0  0  0  0  0  0  0  0  0  0
   23.0924  -20.2697  -15.0670 N   0  0  0  0  0  0  0  0  0  0  0  0
   24.4622  -20.5010  -14.6336 C   0  0  1  0  0  0  0  0  0  0  0  0
   25.4797  -19.6817  -15.3467 C   0  0  0  0  0  0  0  0  0  0  0  0
   26.8919  -19.8914  -14.8986 C   0  0  0  0  0  0  0  0  0  0  0  0
   27.4122  -20.7285  -13.9515 C   0  0  0  0  0  0  0  0  0  0  0  0
   28.7403  -20.5599  -13.8853 N   0  0  0  0  0  0  0  0  0  0  0  0
   29.0706  -19.6230  -14.7807 C   0  0  0  0  0  0  0  0  0  0  0  0
   27.9656  -19.2067  -15.4033 N   0  0  0  0  0  0  0  0  0  0  0  0
   24.5166  -20.0934  -13.2032 C   0  0  0  0  0  0  0  0  0  0  0  0
   23.8868  -19.1065  -12.8107 O   0  0  0  0  0  0  0  0  0  0  0  0
   25.2958  -20.8546  -12.3252 N   0  0  0  0  0  0  0  0  0  0  0  0
   25.4992  -20.4178  -10.9392 C   0  0  1  0  0  0  0  0  0  0  0  0
   26.1904  -21.5689  -10.2702 C   0  0  0  0  0  0  0  0  0  0  0  0
   26.5775  -21.2470   -8.8992 C   0  0  0  0  0  0  0  0  0  0  0  0
   25.7243  -21.1331   -7.8274 C   0  0  0  0  0  0  0  0  0  0  0  0
   26.4101  -20.7923   -6.7276 N   0  0  0  0  0  0  0  0  0  0  0  0
   27.7044  -20.6836   -7.0727 C   0  0  0  0  0  0  0  0  0  0  0  0
   28.8429  -20.3786   -6.3534 C   0  0  0  0  0  0  0  0  0  0  0  0
   30.0809  -20.3468   -6.9338 C   0  0  0  0  0  0  0  0  0  0  0  0
   30.2515  -20.6198   -8.2739 C   0  0  0  0  0  0  0  0  0  0  0  0
   29.1224  -20.9231   -8.9939 C   0  0  0  0  0  0  0  0  0  0  0  0
   27.8433  -20.9651   -8.4389 C   0  0  0  0  0  0  0  0  0  0  0  0
   26.1581  -19.1306  -10.9004 C   0  0  0  0  0  0  0  0  0  0  0  0
   25.8376  -18.2591  -10.0594 O   0  0  0  0  0  0  0  0  0  0  0  0
   27.1872  -18.7646  -11.7837 O   0  0  0  0  0  0  0  0  0  0  0  0
  2  3  1  0
  2  1  1  1
  4  3  1  0
  5  4  2  0
  6  5  1  0
  7  6  1  0
  7 12  2  0
  8  7  1  0
  9  8  2  0
  9 10  1  0
 10 11  2  0
 11 12  1  0
 12  4  1  0
 13  2  1  0
 13 14  2  0
 15 13  1  0
 16 15  1  0
 16 17  1  6
 18 17  1  0
 18 22  1  0
 19 18  2  0
 20 19  1  0
 20 21  1  0
 21 22  2  0
 23 16  1  0
 24 23  2  0
 25 23  1  0
 26 37  1  0
 26 25  1  0
 26 27  1  1
 28 36  1  0
 28 27  1  0
 29 28  2  0
 30 29  1  0
 30 31  1  0
 31 36  2  0
 32 31  1  0
 32 33  2  0
 33 34  1  0
 34 35  2  0
 36 35  1  0
 37 39  1  0
 38 37  2  0
M  END
$$$$
