WHW.pdb
     RDKit          3D

 39 43  0  0  1  0  0  0  0  0999 V2000
   18.8595  -10.4306  -23.0225 N   0  0  0  0  0  0  0  0  0  0  0  0
   19.6126   -9.2472  -22.6662 C   0  0  1  0  0  0  0  0  0  0  0  0
   19.1954   -8.1094  -23.6050 C   0  0  0  0  0  0  0  0  0  0  0  0
   19.4797   -8.5568  -24.9862 C   0  0  0  0  0  0  0  0  0  0  0  0
   20.2051   -9.7048  -25.3172 C   0  0  0  0  0  0  0  0  0  0  0  0
   20.2686   -9.8010  -26.6675 N   0  0  0  0  0  0  0  0  0  0  0  0
   19.6203   -8.7726  -27.2272 C   0  0  0  0  0  0  0  0  0  0  0  0
   19.3857   -8.3960  -28.5224 C   0  0  0  0  0  0  0  0  0  0  0  0
   18.6627   -7.2494  -28.7819 C   0  0  0  0  0  0  0  0  0  0  0  0
   18.1562   -6.4503  -27.7554 C   0  0  0  0  0  0  0  0  0  0  0  0
   18.4058   -6.8506  -26.4606 C   0  0  0  0  0  0  0  0  0  0  0  0
   19.1285   -7.9968  -26.1837 C   0  0  0  0  0  0  0  0  0  0  0  0
   19.3286   -8.8947  -21.2733 C   0  0  0  0  0  0  0  0  0  0  0  0
   18.1543   -9.0339  -20.8447 O   0  0  0  0  0  0  0  0  0  0  0  0
   20.3254   -8.4051  -20.3967 N   0  0  0  0  0  0  0  0  0  0  0  0
   20.0876   -7.9988  -19.0197 C   0  0  1  0  0  0  0  0  0  0  0  0
   21.0890   -8.5116  -18.0454 C   0  0  0  0  0  0  0  0  0  0  0  0
   20.8232   -8.1583  -16.6159 C   0  0  0  0  0  0  0  0  0  0  0  0
   19.8279   -7.4098  -16.0522 C   0  0  0  0  0  0  0  0  0  0  0  0
   20.0058   -7.3544  -14.7248 N   0  0  0  0  0  0  0  0  0  0  0  0
   21.1051   -8.0601  -14.4379 C   0  0  0  0  0  0  0  0  0  0  0  0
   21.6134   -8.5539  -15.5692 N   0  0  0  0  0  0  0  0  0  0  0  0
   20.2006   -6.5148  -19.0023 C   0  0  0  0  0  0  0  0  0  0  0  0
   21.1353   -5.9529  -19.5814 O   0  0  0  0  0  0  0  0  0  0  0  0
   19.2256   -5.7828  -18.3161 N   0  0  0  0  0  0  0  0  0  0  0  0
   19.2412   -4.3157  -18.3393 C   0  0  1  0  0  0  0  0  0  0  0  0
   18.2323   -3.9365  -19.3828 C   0  0  0  0  0  0  0  0  0  0  0  0
   16.8703   -4.2531  -18.9612 C   0  0  0  0  0  0  0  0  0  0  0  0
   16.1721   -3.6262  -17.9566 C   0  0  0  0  0  0  0  0  0  0  0  0
   14.9658   -4.1919  -17.8124 N   0  0  0  0  0  0  0  0  0  0  0  0
   14.8706   -5.1827  -18.7154 C   0  0  0  0  0  0  0  0  0  0  0  0
   13.8627   -6.0748  -19.0240 C   0  0  0  0  0  0  0  0  0  0  0  0
   13.9949   -7.0022  -20.0205 C   0  0  0  0  0  0  0  0  0  0  0  0
   15.1487   -7.0905  -20.7690 C   0  0  0  0  0  0  0  0  0  0  0  0
   16.1543   -6.2062  -20.4656 C   0  0  0  0  0  0  0  0  0  0  0  0
   16.0581   -5.2471  -19.4574 C   0  0  0  0  0  0  0  0  0  0  0  0
   19.0564   -3.7814  -17.0078 C   0  0  0  0  0  0  0  0  0  0  0  0
   18.7050   -4.5140  -16.0543 O   0  0  0  0  0  0  0  0  0  0  0  0
   19.2521   -2.4280  -16.6864 O   0  0  0  0  0  0  0  0  0  0  0  0
  2  3  1  0
  2  1  1  6
  4  3  1  0
  5  4  2  0
  6  5  1  0
  7  6  1  0
  7 12  2  0
  8  7  1  0
  9  8  2  0
  9 10  1  0
 10 11  2  0
 11 12  1  0
 12  4  1  0
 13  2  1  0
 13 14  2  0
 15 13  1  0
 16 15  1  0
 16 17  1  1
 18 17  1  0
 18 22  1  0
 19 18  2  0
 20 19  1  0
 20 21  1  0
 21 22  2  0
 23 16  1  0
 24 23  2  0
 25 23  1  0
 26 37  1  0
 26 25  1  0
 26 27  1  6
 28 36  1  0
 28 27  1  0
 29 28  2  0
 30 29  1  0
 30 31  1  0
 31 36  2  0
 32 31  1  0
 32 33  2  0
 33 34  1  0
 34 35  2  0
 36 35  1  0
 37 39  1  0
 38 37  2  0
M  END
$$$$
