WHW.pdb
     RDKit          3D

 39 43  0  0  1  0  0  0  0  0999 V2000
   28.3566  -20.7265  -13.7526 N   0  0  0  0  0  0  0  0  0  0  0  0
   26.9683  -21.0340  -14.0219 C   0  0  1  0  0  0  0  0  0  0  0  0
   26.1065  -19.8889  -13.4778 C   0  0  0  0  0  0  0  0  0  0  0  0
   26.2003  -19.9353  -12.0021 C   0  0  0  0  0  0  0  0  0  0  0  0
   27.1180  -19.2068  -11.2400 C   0  0  0  0  0  0  0  0  0  0  0  0
   26.9171  -19.4948   -9.9310 N   0  0  0  0  0  0  0  0  0  0  0  0
   25.9151  -20.3734   -9.8077 C   0  0  0  0  0  0  0  0  0  0  0  0
   25.3198  -20.9831   -8.7362 C   0  0  0  0  0  0  0  0  0  0  0  0
   24.2796  -21.8666   -8.9418 C   0  0  0  0  0  0  0  0  0  0  0  0
   23.8081  -22.1636  -10.2218 C   0  0  0  0  0  0  0  0  0  0  0  0
   24.4238  -21.5372  -11.2836 C   0  0  0  0  0  0  0  0  0  0  0  0
   25.4672  -20.6493  -11.0946 C   0  0  0  0  0  0  0  0  0  0  0  0
   26.7769  -21.1798  -15.4667 C   0  0  0  0  0  0  0  0  0  0  0  0
   27.3370  -20.3555  -16.2342 O   0  0  0  0  0  0  0  0  0  0  0  0
   25.9874  -22.2116  -16.0267 N   0  0  0  0  0  0  0  0  0  0  0  0
   25.7813  -22.4127  -17.4531 C   0  0  1  0  0  0  0  0  0  0  0  0
   25.3166  -23.7778  -17.8211 C   0  0  0  0  0  0  0  0  0  0  0  0
   25.1195  -24.0083  -19.2864 C   0  0  0  0  0  0  0  0  0  0  0  0
   26.0154  -24.0025  -20.3187 C   0  0  0  0  0  0  0  0  0  0  0  0
   25.3742  -24.2476  -21.4700 N   0  0  0  0  0  0  0  0  0  0  0  0
   24.0784  -24.4088  -21.1808 C   0  0  0  0  0  0  0  0  0  0  0  0
   23.9050  -24.2675  -19.8647 N   0  0  0  0  0  0  0  0  0  0  0  0
   24.6960  -21.4743  -17.8492 C   0  0  0  0  0  0  0  0  0  0  0  0
   23.6199  -21.4729  -17.2436 O   0  0  0  0  0  0  0  0  0  0  0  0
   24.9293  -20.6028  -18.9185 N   0  0  0  0  0  0  0  0  0  0  0  0
   23.8827  -19.6779  -19.3684 C   0  0  1  0  0  0  0  0  0  0  0  0
   24.5601  -18.3421  -19.4536 C   0  0  0  0  0  0  0  0  0  0  0  0
   24.8236  -17.7819  -18.1308 C   0  0  0  0  0  0  0  0  0  0  0  0
   23.8895  -17.5738  -17.1439 C   0  0  0  0  0  0  0  0  0  0  0  0
   24.4685  -17.0125  -16.0734 N   0  0  0  0  0  0  0  0  0  0  0  0
   25.7732  -16.8532  -16.3534 C   0  0  0  0  0  0  0  0  0  0  0  0
   26.8324  -16.3488  -15.6251 C   0  0  0  0  0  0  0  0  0  0  0  0
   28.1035  -16.3061  -16.1280 C   0  0  0  0  0  0  0  0  0  0  0  0
   28.3891  -16.7679  -17.3947 C   0  0  0  0  0  0  0  0  0  0  0  0
   27.3392  -17.2699  -18.1234 C   0  0  0  0  0  0  0  0  0  0  0  0
   26.0298  -17.3299  -17.6464 C   0  0  0  0  0  0  0  0  0  0  0  0
   23.2393  -20.1767  -20.5641 C   0  0  0  0  0  0  0  0  0  0  0  0
   22.0164  -19.9983  -20.7692 O   0  0  0  0  0  0  0  0  0  0  0  0
   23.9207  -20.8852  -21.5676 O   0  0  0  0  0  0  0  0  0  0  0  0
  2  3  1  0
  2  1  1  6
  4  3  1  0
  5  4  2  0
  6  5  1  0
  7  6  1  0
  7 12  2  0
  8  7  1  0
  9  8  2  0
  9 10  1  0
 10 11  2  0
 11 12  1  0
 12  4  1  0
 13  2  1  0
 13 14  2  0
 15 13  1  0
 16 15  1  0
 16 17  1  1
 18 17  1  0
 18 22  1  0
 19 18  2  0
 20 19  1  0
 20 21  1  0
 21 22  2  0
 23 16  1  0
 24 23  2  0
 25 23  1  0
 26 37  1  0
 26 25  1  0
 26 27  1  6
 28 36  1  0
 28 27  1  0
 29 28  2  0
 30 29  1  0
 30 31  1  0
 31 36  2  0
 32 31  1  0
 32 33  2  0
 33 34  1  0
 34 35  2  0
 36 35  1  0
 37 39  1  0
 38 37  2  0
M  END
$$$$
