WHW.pdb
     RDKit          3D

 39 43  0  0  1  0  0  0  0  0999 V2000
   18.7548  -21.7492  -20.0259 N   0  0  0  0  0  0  0  0  0  0  0  0
   18.1237  -20.9287  -19.0145 C   0  0  1  0  0  0  0  0  0  0  0  0
   17.3948  -19.7760  -19.7145 C   0  0  0  0  0  0  0  0  0  0  0  0
   18.4152  -18.9967  -20.4495 C   0  0  0  0  0  0  0  0  0  0  0  0
   19.6638  -18.6361  -19.9350 C   0  0  0  0  0  0  0  0  0  0  0  0
   20.3324  -17.9305  -20.8794 N   0  0  0  0  0  0  0  0  0  0  0  0
   19.5789  -17.8163  -21.9795 C   0  0  0  0  0  0  0  0  0  0  0  0
   19.7678  -17.2173  -23.1960 C   0  0  0  0  0  0  0  0  0  0  0  0
   18.7723  -17.2758  -24.1502 C   0  0  0  0  0  0  0  0  0  0  0  0
   17.5638  -17.9333  -23.9138 C   0  0  0  0  0  0  0  0  0  0  0  0
   17.3979  -18.5281  -22.6819 C   0  0  0  0  0  0  0  0  0  0  0  0
   18.3855  -18.4787  -21.7150 C   0  0  0  0  0  0  0  0  0  0  0  0
   17.1786  -21.7456  -18.2499 C   0  0  0  0  0  0  0  0  0  0  0  0
   16.4264  -22.5379  -18.8732 O   0  0  0  0  0  0  0  0  0  0  0  0
   17.0830  -21.6749  -16.8401 N   0  0  0  0  0  0  0  0  0  0  0  0
   16.2245  -22.5227  -16.0266 C   0  0  1  0  0  0  0  0  0  0  0  0
   16.9343  -23.6320  -15.3333 C   0  0  0  0  0  0  0  0  0  0  0  0
   17.6829  -24.5663  -16.2308 C   0  0  0  0  0  0  0  0  0  0  0  0
   17.2935  -25.7319  -16.8294 C   0  0  0  0  0  0  0  0  0  0  0  0
   18.3144  -26.2349  -17.5374 N   0  0  0  0  0  0  0  0  0  0  0  0
   19.3505  -25.4012  -17.3949 C   0  0  0  0  0  0  0  0  0  0  0  0
   18.9875  -24.3859  -16.6078 N   0  0  0  0  0  0  0  0  0  0  0  0
   15.6676  -21.6447  -14.9616 C   0  0  0  0  0  0  0  0  0  0  0  0
   16.3315  -20.7026  -14.5184 O   0  0  0  0  0  0  0  0  0  0  0  0
   14.3818  -21.9167  -14.4819 N   0  0  0  0  0  0  0  0  0  0  0  0
   13.6957  -20.9609  -13.6051 C   0  0  1  0  0  0  0  0  0  0  0  0
   13.4707  -19.7481  -14.4589 C   0  0  0  0  0  0  0  0  0  0  0  0
   12.3553  -19.9344  -15.3832 C   0  0  0  0  0  0  0  0  0  0  0  0
   12.0218  -21.1081  -16.0164 C   0  0  0  0  0  0  0  0  0  0  0  0
   10.9672  -20.9137  -16.8202 N   0  0  0  0  0  0  0  0  0  0  0  0
   10.6090  -19.6225  -16.7161 C   0  0  0  0  0  0  0  0  0  0  0  0
    9.5979  -18.8816  -17.2952 C   0  0  0  0  0  0  0  0  0  0  0  0
    9.4175  -17.5556  -17.0132 C   0  0  0  0  0  0  0  0  0  0  0  0
   10.2425  -16.8916  -16.1313 C   0  0  0  0  0  0  0  0  0  0  0  0
   11.2501  -17.6236  -15.5533 C   0  0  0  0  0  0  0  0  0  0  0  0
   11.4669  -18.9764  -15.8153 C   0  0  0  0  0  0  0  0  0  0  0  0
   12.5350  -21.5704  -12.9935 C   0  0  0  0  0  0  0  0  0  0  0  0
   11.9784  -21.0566  -11.9957 O   0  0  0  0  0  0  0  0  0  0  0  0
   11.9534  -22.7607  -13.4605 O   0  0  0  0  0  0  0  0  0  0  0  0
  2  3  1  0
  2  1  1  6
  4  3  1  0
  5  4  2  0
  6  5  1  0
  7  6  1  0
  7 12  2  0
  8  7  1  0
  9  8  2  0
  9 10  1  0
 10 11  2  0
 11 12  1  0
 12  4  1  0
 13  2  1  0
 13 14  2  0
 15 13  1  0
 16 15  1  0
 16 17  1  1
 18 17  1  0
 18 22  1  0
 19 18  2  0
 20 19  1  0
 20 21  1  0
 21 22  2  0
 23 16  1  0
 24 23  2  0
 25 23  1  0
 26 37  1  0
 26 25  1  0
 26 27  1  6
 28 36  1  0
 28 27  1  0
 29 28  2  0
 30 29  1  0
 30 31  1  0
 31 36  2  0
 32 31  1  0
 32 33  2  0
 33 34  1  0
 34 35  2  0
 36 35  1  0
 37 39  1  0
 38 37  2  0
M  END
$$$$
