WHW.pdb
     RDKit          3D

 39 43  0  0  1  0  0  0  0  0999 V2000
   22.1382  -25.7930  -15.3322 N   0  0  0  0  0  0  0  0  0  0  0  0
   20.9563  -25.1110  -14.8499 C   0  0  1  0  0  0  0  0  0  0  0  0
   19.8216  -25.3444  -15.8539 C   0  0  0  0  0  0  0  0  0  0  0  0
   20.1322  -24.5423  -17.0576 C   0  0  0  0  0  0  0  0  0  0  0  0
   20.8661  -25.0043  -18.1539 C   0  0  0  0  0  0  0  0  0  0  0  0
   20.9545  -24.0057  -19.0659 N   0  0  0  0  0  0  0  0  0  0  0  0
   20.3144  -22.9204  -18.6148 C   0  0  0  0  0  0  0  0  0  0  0  0
   20.1028  -21.6680  -19.1256 C   0  0  0  0  0  0  0  0  0  0  0  0
   19.3822  -20.7437  -18.3966 C   0  0  0  0  0  0  0  0  0  0  0  0
   18.8552  -21.0466  -17.1399 C   0  0  0  0  0  0  0  0  0  0  0  0
   19.0819  -22.3136  -16.6477 C   0  0  0  0  0  0  0  0  0  0  0  0
   19.8018  -23.2512  -17.3656 C   0  0  0  0  0  0  0  0  0  0  0  0
   20.5952  -25.6419  -13.5335 C   0  0  0  0  0  0  0  0  0  0  0  0
   20.9088  -26.8281  -13.2563 O   0  0  0  0  0  0  0  0  0  0  0  0
   19.9089  -24.8699  -12.5667 N   0  0  0  0  0  0  0  0  0  0  0  0
   19.5724  -25.3310  -11.2283 C   0  0  1  0  0  0  0  0  0  0  0  0
   19.2686  -24.2419  -10.2606 C   0  0  0  0  0  0  0  0  0  0  0  0
   18.8787  -24.6998   -8.8904 C   0  0  0  0  0  0  0  0  0  0  0  0
   18.6380  -25.9544   -8.4041 C   0  0  0  0  0  0  0  0  0  0  0  0
   18.3020  -25.8761   -7.1089 N   0  0  0  0  0  0  0  0  0  0  0  0
   18.3257  -24.5836   -6.7659 C   0  0  0  0  0  0  0  0  0  0  0  0
   18.6723  -23.8568   -7.8306 N   0  0  0  0  0  0  0  0  0  0  0  0
   18.3261  -26.1323  -11.3695 C   0  0  0  0  0  0  0  0  0  0  0  0
   17.3592  -25.6792  -11.9895 O   0  0  0  0  0  0  0  0  0  0  0  0
   18.2833  -27.4021  -10.7835 N   0  0  0  0  0  0  0  0  0  0  0  0
   17.0718  -28.2249  -10.8753 C   0  0  1  0  0  0  0  0  0  0  0  0
   17.4882  -29.5794  -10.3830 C   0  0  0  0  0  0  0  0  0  0  0  0
   16.4160  -30.5611  -10.5231 C   0  0  0  0  0  0  0  0  0  0  0  0
   15.9357  -31.0652  -11.7084 C   0  0  0  0  0  0  0  0  0  0  0  0
   14.9281  -31.9166  -11.4717 N   0  0  0  0  0  0  0  0  0  0  0  0
   14.7474  -31.9730  -10.1412 C   0  0  0  0  0  0  0  0  0  0  0  0
   13.8747  -32.6871   -9.3441 C   0  0  0  0  0  0  0  0  0  0  0  0
   13.8935  -32.5903   -7.9801 C   0  0  0  0  0  0  0  0  0  0  0  0
   14.7912  -31.7695   -7.3321 C   0  0  0  0  0  0  0  0  0  0  0  0
   15.6608  -31.0566   -8.1201 C   0  0  0  0  0  0  0  0  0  0  0  0
   15.6724  -31.1276   -9.5131 C   0  0  0  0  0  0  0  0  0  0  0  0
   15.9649  -27.5819  -10.2016 C   0  0  0  0  0  0  0  0  0  0  0  0
   16.1191  -27.0013   -9.1023 O   0  0  0  0  0  0  0  0  0  0  0  0
   14.6580  -27.5586  -10.7163 O   0  0  0  0  0  0  0  0  0  0  0  0
  2  3  1  0
  2  1  1  6
  4  3  1  0
  5  4  2  0
  6  5  1  0
  7  6  1  0
  7 12  2  0
  8  7  1  0
  9  8  2  0
  9 10  1  0
 10 11  2  0
 11 12  1  0
 12  4  1  0
 13  2  1  0
 13 14  2  0
 15 13  1  0
 16 15  1  0
 16 17  1  1
 18 17  1  0
 18 22  1  0
 19 18  2  0
 20 19  1  0
 20 21  1  0
 21 22  2  0
 23 16  1  0
 24 23  2  0
 25 23  1  0
 26 37  1  0
 26 25  1  0
 26 27  1  1
 28 36  1  0
 28 27  1  0
 29 28  2  0
 30 29  1  0
 30 31  1  0
 31 36  2  0
 32 31  1  0
 32 33  2  0
 33 34  1  0
 34 35  2  0
 36 35  1  0
 37 39  1  0
 38 37  2  0
M  END
$$$$
