WHW.pdb
     RDKit          3D

 39 43  0  0  1  0  0  0  0  0999 V2000
   16.3927  -19.1415    2.5292 N   0  0  0  0  0  0  0  0  0  0  0  0
   17.6921  -19.0112    3.1530 C   0  0  1  0  0  0  0  0  0  0  0  0
   18.3566  -17.7363    2.6211 C   0  0  0  0  0  0  0  0  0  0  0  0
   19.2063  -18.1320    1.4765 C   0  0  0  0  0  0  0  0  0  0  0  0
   18.7850  -18.9356    0.4132 C   0  0  0  0  0  0  0  0  0  0  0  0
   19.8205  -19.0911   -0.4471 N   0  0  0  0  0  0  0  0  0  0  0  0
   20.8911  -18.4281    0.0060 C   0  0  0  0  0  0  0  0  0  0  0  0
   22.1658  -18.2585   -0.4637 C   0  0  0  0  0  0  0  0  0  0  0  0
   23.0645  -17.4956    0.2541 C   0  0  0  0  0  0  0  0  0  0  0  0
   22.7131  -16.8832    1.4585 C   0  0  0  0  0  0  0  0  0  0  0  0
   21.4245  -17.0690    1.9100 C   0  0  0  0  0  0  0  0  0  0  0  0
   20.5121  -17.8305    1.2026 C   0  0  0  0  0  0  0  0  0  0  0  0
   17.5254  -18.9362    4.6061 C   0  0  0  0  0  0  0  0  0  0  0  0
   16.8202  -18.0107    5.0841 O   0  0  0  0  0  0  0  0  0  0  0  0
   18.1274  -19.8650    5.4874 N   0  0  0  0  0  0  0  0  0  0  0  0
   18.1809  -19.7164    6.9340 C   0  0  1  0  0  0  0  0  0  0  0  0
   18.1293  -20.9993    7.6865 C   0  0  0  0  0  0  0  0  0  0  0  0
   16.8690  -21.7871    7.5137 C   0  0  0  0  0  0  0  0  0  0  0  0
   15.5661  -21.4492    7.7520 C   0  0  0  0  0  0  0  0  0  0  0  0
   14.7729  -22.4900    7.4617 N   0  0  0  0  0  0  0  0  0  0  0  0
   15.5582  -23.4876    7.0413 C   0  0  0  0  0  0  0  0  0  0  0  0
   16.8295  -23.0812    7.0661 N   0  0  0  0  0  0  0  0  0  0  0  0
   19.5014  -19.1002    7.2367 C   0  0  0  0  0  0  0  0  0  0  0  0
   20.4955  -19.3923    6.5650 O   0  0  0  0  0  0  0  0  0  0  0  0
   19.5818  -18.1891    8.2955 N   0  0  0  0  0  0  0  0  0  0  0  0
   20.8436  -17.5018    8.5932 C   0  0  1  0  0  0  0  0  0  0  0  0
   21.2092  -16.7993    7.3191 C   0  0  0  0  0  0  0  0  0  0  0  0
   20.4726  -15.5484    7.1585 C   0  0  0  0  0  0  0  0  0  0  0  0
   19.2136  -15.4185    6.6219 C   0  0  0  0  0  0  0  0  0  0  0  0
   18.8568  -14.1271    6.5929 N   0  0  0  0  0  0  0  0  0  0  0  0
   19.8725  -13.4128    7.1070 C   0  0  0  0  0  0  0  0  0  0  0  0
   20.0469  -12.0618    7.3333 C   0  0  0  0  0  0  0  0  0  0  0  0
   21.1877  -11.5624    7.8987 C   0  0  0  0  0  0  0  0  0  0  0  0
   22.2244  -12.3902    8.2720 C   0  0  0  0  0  0  0  0  0  0  0  0
   22.0563  -13.7345    8.0485 C   0  0  0  0  0  0  0  0  0  0  0  0
   20.9091  -14.2820    7.4742 C   0  0  0  0  0  0  0  0  0  0  0  0
   20.7167  -16.6946    9.7869 C   0  0  0  0  0  0  0  0  0  0  0  0
   21.7007  -16.0912   10.2737 O   0  0  0  0  0  0  0  0  0  0  0  0
   19.5058  -16.5275   10.4792 O   0  0  0  0  0  0  0  0  0  0  0  0
  2  3  1  0
  2  1  1  6
  4  3  1  0
  5  4  2  0
  6  5  1  0
  7  6  1  0
  7 12  2  0
  8  7  1  0
  9  8  2  0
  9 10  1  0
 10 11  2  0
 11 12  1  0
 12  4  1  0
 13  2  1  0
 13 14  2  0
 15 13  1  0
 16 15  1  0
 16 17  1  1
 18 17  1  0
 18 22  1  0
 19 18  2  0
 20 19  1  0
 20 21  1  0
 21 22  2  0
 23 16  1  0
 24 23  2  0
 25 23  1  0
 26 37  1  0
 26 25  1  0
 26 27  1  6
 28 36  1  0
 28 27  1  0
 29 28  2  0
 30 29  1  0
 30 31  1  0
 31 36  2  0
 32 31  1  0
 32 33  2  0
 33 34  1  0
 34 35  2  0
 36 35  1  0
 37 39  1  0
 38 37  2  0
M  END
$$$$
