WHW.pdb
     RDKit          3D

 39 43  0  0  1  0  0  0  0  0999 V2000
   24.7495  -18.0345  -15.5627 N   0  0  0  0  0  0  0  0  0  0  0  0
   25.8389  -18.4514  -14.7060 C   0  0  1  0  0  0  0  0  0  0  0  0
   26.3895  -17.2134  -13.9891 C   0  0  0  0  0  0  0  0  0  0  0  0
   27.1058  -16.4058  -15.0008 C   0  0  0  0  0  0  0  0  0  0  0  0
   26.8675  -15.0516  -15.2519 C   0  0  0  0  0  0  0  0  0  0  0  0
   27.7014  -14.6422  -16.2387 N   0  0  0  0  0  0  0  0  0  0  0  0
   28.4677  -15.6639  -16.6389 C   0  0  0  0  0  0  0  0  0  0  0  0
   29.4517  -15.7939  -17.5818 C   0  0  0  0  0  0  0  0  0  0  0  0
   30.0705  -17.0144  -17.7622 C   0  0  0  0  0  0  0  0  0  0  0  0
   29.7223  -18.1351  -17.0060 C   0  0  0  0  0  0  0  0  0  0  0  0
   28.7292  -17.9785  -16.0636 C   0  0  0  0  0  0  0  0  0  0  0  0
   28.0994  -16.7624  -15.8706 C   0  0  0  0  0  0  0  0  0  0  0  0
   25.3433  -19.4297  -13.7351 C   0  0  0  0  0  0  0  0  0  0  0  0
   24.1824  -19.2841  -13.2732 O   0  0  0  0  0  0  0  0  0  0  0  0
   26.1217  -20.5283  -13.3008 N   0  0  0  0  0  0  0  0  0  0  0  0
   25.6443  -21.5811  -12.4169 C   0  0  1  0  0  0  0  0  0  0  0  0
   25.9810  -22.9599  -12.8647 C   0  0  0  0  0  0  0  0  0  0  0  0
   25.2813  -23.4130  -14.1073 C   0  0  0  0  0  0  0  0  0  0  0  0
   25.7145  -23.4764  -15.4022 C   0  0  0  0  0  0  0  0  0  0  0  0
   24.7274  -23.9378  -16.1829 N   0  0  0  0  0  0  0  0  0  0  0  0
   23.6696  -24.1683  -15.3977 C   0  0  0  0  0  0  0  0  0  0  0  0
   23.9856  -23.8566  -14.1387 N   0  0  0  0  0  0  0  0  0  0  0  0
   26.3402  -21.3757  -11.1174 C   0  0  0  0  0  0  0  0  0  0  0  0
   27.5647  -21.2209  -11.0824 O   0  0  0  0  0  0  0  0  0  0  0  0
   25.5725  -21.3638   -9.9478 N   0  0  0  0  0  0  0  0  0  0  0  0
   26.2160  -21.2382   -8.6351 C   0  0  1  0  0  0  0  0  0  0  0  0
   26.9798  -19.9488   -8.7026 C   0  0  0  0  0  0  0  0  0  0  0  0
   27.3584  -19.4722   -7.3750 C   0  0  0  0  0  0  0  0  0  0  0  0
   26.8932  -18.3306   -6.7664 C   0  0  0  0  0  0  0  0  0  0  0  0
   27.4753  -18.1777   -5.5690 N   0  0  0  0  0  0  0  0  0  0  0  0
   28.3163  -19.2108   -5.3906 C   0  0  0  0  0  0  0  0  0  0  0  0
   29.1514  -19.5697   -4.3512 C   0  0  0  0  0  0  0  0  0  0  0  0
   29.9152  -20.7034   -4.3927 C   0  0  0  0  0  0  0  0  0  0  0  0
   29.8870  -21.5472   -5.4820 C   0  0  0  0  0  0  0  0  0  0  0  0
   29.0587  -21.1945   -6.5187 C   0  0  0  0  0  0  0  0  0  0  0  0
   28.2654  -20.0471   -6.5144 C   0  0  0  0  0  0  0  0  0  0  0  0
   25.2440  -21.3826   -7.5734 C   0  0  0  0  0  0  0  0  0  0  0  0
   24.0591  -21.0028   -7.7182 O   0  0  0  0  0  0  0  0  0  0  0  0
   25.5462  -21.9480   -6.3235 O   0  0  0  0  0  0  0  0  0  0  0  0
  2  3  1  0
  2  1  1  6
  4  3  1  0
  5  4  2  0
  6  5  1  0
  7  6  1  0
  7 12  2  0
  8  7  1  0
  9  8  2  0
  9 10  1  0
 10 11  2  0
 11 12  1  0
 12  4  1  0
 13  2  1  0
 13 14  2  0
 15 13  1  0
 16 15  1  0
 16 17  1  6
 18 17  1  0
 18 22  1  0
 19 18  2  0
 20 19  1  0
 20 21  1  0
 21 22  2  0
 23 16  1  0
 24 23  2  0
 25 23  1  0
 26 37  1  0
 26 25  1  0
 26 27  1  6
 28 36  1  0
 28 27  1  0
 29 28  2  0
 30 29  1  0
 30 31  1  0
 31 36  2  0
 32 31  1  0
 32 33  2  0
 33 34  1  0
 34 35  2  0
 36 35  1  0
 37 39  1  0
 38 37  2  0
M  END
$$$$
