WHW.pdb
     RDKit          3D

 39 43  0  0  1  0  0  0  0  0999 V2000
   27.7729  -22.6006  -14.4748 N   0  0  0  0  0  0  0  0  0  0  0  0
   26.6104  -22.1805  -13.7221 C   0  0  1  0  0  0  0  0  0  0  0  0
   26.7894  -20.7064  -13.3413 C   0  0  0  0  0  0  0  0  0  0  0  0
   27.8511  -20.6471  -12.3128 C   0  0  0  0  0  0  0  0  0  0  0  0
   29.2125  -20.4823  -12.5833 C   0  0  0  0  0  0  0  0  0  0  0  0
   29.8882  -20.4744  -11.4085 N   0  0  0  0  0  0  0  0  0  0  0  0
   29.0321  -20.6258  -10.3910 C   0  0  0  0  0  0  0  0  0  0  0  0
   29.1819  -20.6866   -9.0315 C   0  0  0  0  0  0  0  0  0  0  0  0
   28.0729  -20.8542   -8.2271 C   0  0  0  0  0  0  0  0  0  0  0  0
   26.7872  -20.9653   -8.7597 C   0  0  0  0  0  0  0  0  0  0  0  0
   26.6629  -20.9012  -10.1306 C   0  0  0  0  0  0  0  0  0  0  0  0
   27.7640  -20.7335  -10.9505 C   0  0  0  0  0  0  0  0  0  0  0  0
   25.4118  -22.3570  -14.5451 C   0  0  0  0  0  0  0  0  0  0  0  0
   25.3498  -21.7643  -15.6528 O   0  0  0  0  0  0  0  0  0  0  0  0
   24.3259  -23.1680  -14.1391 N   0  0  0  0  0  0  0  0  0  0  0  0
   23.1609  -23.4606  -14.9605 C   0  0  1  0  0  0  0  0  0  0  0  0
   22.9929  -24.9000  -15.2993 C   0  0  0  0  0  0  0  0  0  0  0  0
   24.0068  -25.4510  -16.2518 C   0  0  0  0  0  0  0  0  0  0  0  0
   24.0157  -25.4954  -17.6180 C   0  0  0  0  0  0  0  0  0  0  0  0
   25.1344  -26.1016  -18.0395 N   0  0  0  0  0  0  0  0  0  0  0  0
   25.8378  -26.4443  -16.9548 C   0  0  0  0  0  0  0  0  0  0  0  0
   25.1715  -26.0590  -15.8640 N   0  0  0  0  0  0  0  0  0  0  0  0
   21.9756  -23.0755  -14.1469 C   0  0  0  0  0  0  0  0  0  0  0  0
   21.7296  -23.6588  -13.0867 O   0  0  0  0  0  0  0  0  0  0  0  0
   21.1559  -22.0430  -14.6153 N   0  0  0  0  0  0  0  0  0  0  0  0
   19.9809  -21.6169  -13.8465 C   0  0  1  0  0  0  0  0  0  0  0  0
   20.2333  -20.1733  -13.5261 C   0  0  0  0  0  0  0  0  0  0  0  0
   21.3756  -20.0077  -12.6311 C   0  0  0  0  0  0  0  0  0  0  0  0
   22.5684  -19.4039  -12.9512 C   0  0  0  0  0  0  0  0  0  0  0  0
   23.4062  -19.4577  -11.9066 N   0  0  0  0  0  0  0  0  0  0  0  0
   22.7695  -20.0911  -10.9067 C   0  0  0  0  0  0  0  0  0  0  0  0
   23.1385  -20.4094   -9.6147 C   0  0  0  0  0  0  0  0  0  0  0  0
   22.2919  -21.0558   -8.7569 C   0  0  0  0  0  0  0  0  0  0  0  0
   21.0212  -21.4224   -9.1446 C   0  0  0  0  0  0  0  0  0  0  0  0
   20.6495  -21.1088  -10.4286 C   0  0  0  0  0  0  0  0  0  0  0  0
   21.4837  -20.4514  -11.3329 C   0  0  0  0  0  0  0  0  0  0  0  0
   18.7618  -21.9393  -14.5554 C   0  0  0  0  0  0  0  0  0  0  0  0
   18.7751  -22.2429  -15.7707 O   0  0  0  0  0  0  0  0  0  0  0  0
   17.4945  -21.9371  -13.9496 O   0  0  0  0  0  0  0  0  0  0  0  0
  2  3  1  0
  2  1  1  6
  4  3  1  0
  5  4  2  0
  6  5  1  0
  7  6  1  0
  7 12  2  0
  8  7  1  0
  9  8  2  0
  9 10  1  0
 10 11  2  0
 11 12  1  0
 12  4  1  0
 13  2  1  0
 13 14  2  0
 15 13  1  0
 16 15  1  0
 16 17  1  1
 18 17  1  0
 18 22  1  0
 19 18  2  0
 20 19  1  0
 20 21  1  0
 21 22  2  0
 23 16  1  0
 24 23  2  0
 25 23  1  0
 26 37  1  0
 26 25  1  0
 26 27  1  6
 28 36  1  0
 28 27  1  0
 29 28  2  0
 30 29  1  0
 30 31  1  0
 31 36  2  0
 32 31  1  0
 32 33  2  0
 33 34  1  0
 34 35  2  0
 36 35  1  0
 37 39  1  0
 38 37  2  0
M  END
$$$$
