WHW.pdb
     RDKit          3D

 39 43  0  0  1  0  0  0  0  0999 V2000
   28.6117  -21.6176  -11.1477 N   0  0  0  0  0  0  0  0  0  0  0  0
   27.4355  -20.9753  -10.6013 C   0  0  1  0  0  0  0  0  0  0  0  0
   27.8634  -19.6496   -9.9614 C   0  0  0  0  0  0  0  0  0  0  0  0
   28.6915  -19.9819   -8.7813 C   0  0  0  0  0  0  0  0  0  0  0  0
   30.0024  -20.4633   -8.8393 C   0  0  0  0  0  0  0  0  0  0  0  0
   30.4475  -20.6575   -7.5740 N   0  0  0  0  0  0  0  0  0  0  0  0
   29.4900  -20.3256   -6.6997 C   0  0  0  0  0  0  0  0  0  0  0  0
   29.4158  -20.3314   -5.3327 C   0  0  0  0  0  0  0  0  0  0  0  0
   28.2560  -19.9195   -4.7081 C   0  0  0  0  0  0  0  0  0  0  0  0
   27.1418  -19.4919   -5.4323 C   0  0  0  0  0  0  0  0  0  0  0  0
   27.2414  -19.4954   -6.8067 C   0  0  0  0  0  0  0  0  0  0  0  0
   28.3964  -19.9050   -7.4479 C   0  0  0  0  0  0  0  0  0  0  0  0
   26.4701  -20.7388  -11.6770 C   0  0  0  0  0  0  0  0  0  0  0  0
   26.7513  -19.8907  -12.5624 O   0  0  0  0  0  0  0  0  0  0  0  0
   25.2372  -21.4285  -11.7545 N   0  0  0  0  0  0  0  0  0  0  0  0
   24.2959  -21.3167  -12.8586 C   0  0  1  0  0  0  0  0  0  0  0  0
   24.2734  -22.4935  -13.7694 C   0  0  0  0  0  0  0  0  0  0  0  0
   25.4304  -22.5883  -14.7137 C   0  0  0  0  0  0  0  0  0  0  0  0
   25.7456  -21.8435  -15.8157 C   0  0  0  0  0  0  0  0  0  0  0  0
   26.8792  -22.3069  -16.3605 N   0  0  0  0  0  0  0  0  0  0  0  0
   27.2887  -23.3400  -15.6162 C   0  0  0  0  0  0  0  0  0  0  0  0
   26.4248  -23.5252  -14.6154 N   0  0  0  0  0  0  0  0  0  0  0  0
   22.9442  -21.2326  -12.2412 C   0  0  0  0  0  0  0  0  0  0  0  0
   22.5961  -22.0528  -11.3863 O   0  0  0  0  0  0  0  0  0  0  0  0
   22.0879  -20.2066  -12.6552 N   0  0  0  0  0  0  0  0  0  0  0  0
   20.7480  -20.0732  -12.0721 C   0  0  1  0  0  0  0  0  0  0  0  0
   20.3577  -18.6472  -12.3266 C   0  0  0  0  0  0  0  0  0  0  0  0
   20.1329  -18.3912  -13.7468 C   0  0  0  0  0  0  0  0  0  0  0  0
   18.9298  -18.4966  -14.4033 C   0  0  0  0  0  0  0  0  0  0  0  0
   19.0911  -18.2255  -15.7059 N   0  0  0  0  0  0  0  0  0  0  0  0
   20.3899  -17.9432  -15.9048 C   0  0  0  0  0  0  0  0  0  0  0  0
   21.1088  -17.5836  -17.0275 C   0  0  0  0  0  0  0  0  0  0  0  0
   22.4503  -17.3224  -16.9771 C   0  0  0  0  0  0  0  0  0  0  0  0
   23.1529  -17.4065  -15.7944 C   0  0  0  0  0  0  0  0  0  0  0  0
   22.4429  -17.7644  -14.6750 C   0  0  0  0  0  0  0  0  0  0  0  0
   21.0753  -18.0391  -14.6858 C   0  0  0  0  0  0  0  0  0  0  0  0
   19.8672  -21.1052  -12.5737 C   0  0  0  0  0  0  0  0  0  0  0  0
   20.1384  -21.7436  -13.6169 O   0  0  0  0  0  0  0  0  0  0  0  0
   18.6643  -21.4649  -11.9437 O   0  0  0  0  0  0  0  0  0  0  0  0
  2  3  1  0
  2  1  1  6
  4  3  1  0
  5  4  2  0
  6  5  1  0
  7  6  1  0
  7 12  2  0
  8  7  1  0
  9  8  2  0
  9 10  1  0
 10 11  2  0
 11 12  1  0
 12  4  1  0
 13  2  1  0
 13 14  2  0
 15 13  1  0
 16 15  1  0
 16 17  1  6
 18 17  1  0
 18 22  1  0
 19 18  2  0
 20 19  1  0
 20 21  1  0
 21 22  2  0
 23 16  1  0
 24 23  2  0
 25 23  1  0
 26 37  1  0
 26 25  1  0
 26 27  1  6
 28 36  1  0
 28 27  1  0
 29 28  2  0
 30 29  1  0
 30 31  1  0
 31 36  2  0
 32 31  1  0
 32 33  2  0
 33 34  1  0
 34 35  2  0
 36 35  1  0
 37 39  1  0
 38 37  2  0
M  END
$$$$
