WHW.pdb
     RDKit          3D

 39 43  0  0  1  0  0  0  0  0999 V2000
   22.2918  -19.1477  -15.7547 N   0  0  0  0  0  0  0  0  0  0  0  0
   23.6257  -18.9321  -15.2363 C   0  0  1  0  0  0  0  0  0  0  0  0
   23.8284  -17.4256  -15.0383 C   0  0  0  0  0  0  0  0  0  0  0  0
   23.7270  -16.7926  -16.3716 C   0  0  0  0  0  0  0  0  0  0  0  0
   22.8611  -15.7426  -16.6900 C   0  0  0  0  0  0  0  0  0  0  0  0
   23.0369  -15.4184  -17.9941 N   0  0  0  0  0  0  0  0  0  0  0  0
   23.9734  -16.2061  -18.5358 C   0  0  0  0  0  0  0  0  0  0  0  0
   24.5206  -16.2999  -19.7872 C   0  0  0  0  0  0  0  0  0  0  0  0
   25.4959  -17.2434  -20.0393 C   0  0  0  0  0  0  0  0  0  0  0  0
   25.9491  -18.1165  -19.0487 C   0  0  0  0  0  0  0  0  0  0  0  0
   25.3828  -18.0021  -17.7977 C   0  0  0  0  0  0  0  0  0  0  0  0
   24.4046  -17.0621  -17.5288 C   0  0  0  0  0  0  0  0  0  0  0  0
   23.7702  -19.6419  -13.9634 C   0  0  0  0  0  0  0  0  0  0  0  0
   22.8791  -19.4949  -13.0878 O   0  0  0  0  0  0  0  0  0  0  0  0
   24.8726  -20.4840  -13.6856 N   0  0  0  0  0  0  0  0  0  0  0  0
   25.0055  -21.3041  -12.4909 C   0  0  1  0  0  0  0  0  0  0  0  0
   25.5005  -22.6846  -12.7443 C   0  0  0  0  0  0  0  0  0  0  0  0
   24.5368  -23.5853  -13.4508 C   0  0  0  0  0  0  0  0  0  0  0  0
   23.2601  -23.3610  -13.8847 C   0  0  0  0  0  0  0  0  0  0  0  0
   22.7788  -24.4740  -14.4557 N   0  0  0  0  0  0  0  0  0  0  0  0
   23.7365  -25.4052  -14.3891 C   0  0  0  0  0  0  0  0  0  0  0  0
   24.8074  -24.8861  -13.7843 N   0  0  0  0  0  0  0  0  0  0  0  0
   26.0302  -20.6353  -11.6436 C   0  0  0  0  0  0  0  0  0  0  0  0
   26.9501  -19.9964  -12.1634 O   0  0  0  0  0  0  0  0  0  0  0  0
   25.9212  -20.7518  -10.2536 N   0  0  0  0  0  0  0  0  0  0  0  0
   26.9606  -20.2024   -9.3757 C   0  0  1  0  0  0  0  0  0  0  0  0
   26.2218  -19.7062   -8.1680 C   0  0  0  0  0  0  0  0  0  0  0  0
   27.1292  -19.1534   -7.1659 C   0  0  0  0  0  0  0  0  0  0  0  0
   27.4345  -17.8231   -7.0028 C   0  0  0  0  0  0  0  0  0  0  0  0
   28.3273  -17.6737   -6.0145 N   0  0  0  0  0  0  0  0  0  0  0  0
   28.6067  -18.8960   -5.5306 C   0  0  0  0  0  0  0  0  0  0  0  0
   29.4318  -19.3346   -4.5140 C   0  0  0  0  0  0  0  0  0  0  0  0
   29.5387  -20.6581   -4.1864 C   0  0  0  0  0  0  0  0  0  0  0  0
   28.8225  -21.6234   -4.8606 C   0  0  0  0  0  0  0  0  0  0  0  0
   28.0010  -21.1927   -5.8730 C   0  0  0  0  0  0  0  0  0  0  0  0
   27.8653  -19.8531   -6.2372 C   0  0  0  0  0  0  0  0  0  0  0  0
   28.0136  -21.1710   -9.1618 C   0  0  0  0  0  0  0  0  0  0  0  0
   27.7738  -22.4003   -9.1388 O   0  0  0  0  0  0  0  0  0  0  0  0
   29.3589  -20.8166   -8.9674 O   0  0  0  0  0  0  0  0  0  0  0  0
  2  3  1  0
  2  1  1  1
  4  3  1  0
  5  4  2  0
  6  5  1  0
  7  6  1  0
  7 12  2  0
  8  7  1  0
  9  8  2  0
  9 10  1  0
 10 11  2  0
 11 12  1  0
 12  4  1  0
 13  2  1  0
 13 14  2  0
 15 13  1  0
 16 15  1  0
 16 17  1  6
 18 17  1  0
 18 22  1  0
 19 18  2  0
 20 19  1  0
 20 21  1  0
 21 22  2  0
 23 16  1  0
 24 23  2  0
 25 23  1  0
 26 37  1  0
 26 25  1  0
 26 27  1  1
 28 36  1  0
 28 27  1  0
 29 28  2  0
 30 29  1  0
 30 31  1  0
 31 36  2  0
 32 31  1  0
 32 33  2  0
 33 34  1  0
 34 35  2  0
 36 35  1  0
 37 39  1  0
 38 37  2  0
M  END
$$$$
