WHW.pdb
     RDKit          3D

 39 43  0  0  1  0  0  0  0  0999 V2000
   25.8495  -19.5143  -12.3303 N   0  0  0  0  0  0  0  0  0  0  0  0
   26.4429  -20.8209  -12.5177 C   0  0  1  0  0  0  0  0  0  0  0  0
   25.9075  -21.7546  -11.4262 C   0  0  0  0  0  0  0  0  0  0  0  0
   26.1439  -21.0878  -10.1269 C   0  0  0  0  0  0  0  0  0  0  0  0
   25.1805  -20.3668   -9.4157 C   0  0  0  0  0  0  0  0  0  0  0  0
   25.7458  -19.8979   -8.2768 N   0  0  0  0  0  0  0  0  0  0  0  0
   27.0271  -20.2795   -8.2150 C   0  0  0  0  0  0  0  0  0  0  0  0
   28.0287  -20.0819   -7.3028 C   0  0  0  0  0  0  0  0  0  0  0  0
   29.2792  -20.6195   -7.5316 C   0  0  0  0  0  0  0  0  0  0  0  0
   29.5609  -21.3671   -8.6764 C   0  0  0  0  0  0  0  0  0  0  0  0
   28.5362  -21.5517   -9.5791 C   0  0  0  0  0  0  0  0  0  0  0  0
   27.2777  -21.0198   -9.3647 C   0  0  0  0  0  0  0  0  0  0  0  0
   26.0889  -21.3266  -13.8459 C   0  0  0  0  0  0  0  0  0  0  0  0
   24.9796  -20.9975  -14.3392 O   0  0  0  0  0  0  0  0  0  0  0  0
   26.9481  -22.1688  -14.5904 N   0  0  0  0  0  0  0  0  0  0  0  0
   26.6748  -22.6440  -15.9383 C   0  0  1  0  0  0  0  0  0  0  0  0
   27.8699  -22.7052  -16.8231 C   0  0  0  0  0  0  0  0  0  0  0  0
   28.4021  -21.3782  -17.2647 C   0  0  0  0  0  0  0  0  0  0  0  0
   27.8992  -20.1173  -17.1045 C   0  0  0  0  0  0  0  0  0  0  0  0
   28.7201  -19.2304  -17.6842 N   0  0  0  0  0  0  0  0  0  0  0  0
   29.7407  -19.9145  -18.2125 C   0  0  0  0  0  0  0  0  0  0  0  0
   29.5657  -21.2153  -17.9690 N   0  0  0  0  0  0  0  0  0  0  0  0
   26.1841  -24.0415  -15.7914 C   0  0  0  0  0  0  0  0  0  0  0  0
   26.8209  -24.8595  -15.1206 O   0  0  0  0  0  0  0  0  0  0  0  0
   24.9915  -24.3970  -16.4307 N   0  0  0  0  0  0  0  0  0  0  0  0
   23.8102  -24.7761  -15.6472 C   0  0  1  0  0  0  0  0  0  0  0  0
   24.0158  -24.1356  -14.3063 C   0  0  0  0  0  0  0  0  0  0  0  0
   22.8774  -24.3574  -13.4187 C   0  0  0  0  0  0  0  0  0  0  0  0
   22.4724  -25.5713  -12.9166 C   0  0  0  0  0  0  0  0  0  0  0  0
   21.3728  -25.4152  -12.1664 N   0  0  0  0  0  0  0  0  0  0  0  0
   21.0572  -24.1089  -12.1742 C   0  0  0  0  0  0  0  0  0  0  0  0
   20.0485  -23.3856  -11.5691 C   0  0  0  0  0  0  0  0  0  0  0  0
   19.9414  -22.0298  -11.7129 C   0  0  0  0  0  0  0  0  0  0  0  0
   20.8419  -21.3164  -12.4741 C   0  0  0  0  0  0  0  0  0  0  0  0
   21.8465  -22.0310  -13.0786 C   0  0  0  0  0  0  0  0  0  0  0  0
   21.9891  -23.4132  -12.9567 C   0  0  0  0  0  0  0  0  0  0  0  0
   22.5960  -24.4500  -16.3628 C   0  0  0  0  0  0  0  0  0  0  0  0
   22.3198  -23.2683  -16.6736 O   0  0  0  0  0  0  0  0  0  0  0  0
   21.6515  -25.4123  -16.7568 O   0  0  0  0  0  0  0  0  0  0  0  0
  2  3  1  0
  2  1  1  1
  4  3  1  0
  5  4  2  0
  6  5  1  0
  7  6  1  0
  7 12  2  0
  8  7  1  0
  9  8  2  0
  9 10  1  0
 10 11  2  0
 11 12  1  0
 12  4  1  0
 13  2  1  0
 13 14  2  0
 15 13  1  0
 16 15  1  0
 16 17  1  6
 18 17  1  0
 18 22  1  0
 19 18  2  0
 20 19  1  0
 20 21  1  0
 21 22  2  0
 23 16  1  0
 24 23  2  0
 25 23  1  0
 26 37  1  0
 26 25  1  0
 26 27  1  1
 28 36  1  0
 28 27  1  0
 29 28  2  0
 30 29  1  0
 30 31  1  0
 31 36  2  0
 32 31  1  0
 32 33  2  0
 33 34  1  0
 34 35  2  0
 36 35  1  0
 37 39  1  0
 38 37  2  0
M  END
$$$$
