TGM.pdb
     RDKit          3D

 20 19  0  0  1  0  0  0  0  0999 V2000
   24.3963  -22.2500  -17.6980 C   0  0  0  0  0  0  0  0  0  0  0  0
   24.5147  -21.2173  -16.5732 C   0  0  1  0  0  0  0  0  0  0  0  0
   23.2379  -20.8238  -16.1458 O   0  0  0  0  0  0  0  0  0  0  0  0
   25.1848  -21.8808  -15.4070 C   0  0  2  0  0  0  0  0  0  0  0  0
   24.3755  -22.9169  -14.8209 N   0  0  0  0  0  0  0  0  0  0  0  0
   25.4623  -20.8459  -14.3766 C   0  0  0  0  0  0  0  0  0  0  0  0
   26.2432  -19.8670  -14.6392 O   0  0  0  0  0  0  0  0  0  0  0  0
   24.8599  -20.9445  -13.0992 N   0  0  0  0  0  0  0  0  0  0  0  0
   25.0829  -19.9437  -12.0901 C   0  0  0  0  0  0  0  0  0  0  0  0
   25.7101  -20.5674  -10.8881 C   0  0  0  0  0  0  0  0  0  0  0  0
   25.7279  -21.8324  -10.7447 O   0  0  0  0  0  0  0  0  0  0  0  0
   28.8532  -19.7855   -3.6513 C   0  0  0  0  0  0  0  0  0  0  0  0
   28.4701  -18.9093   -5.1854 S   0  0  0  0  0  0  0  0  0  0  0  0
   27.4486  -19.9371   -6.2680 C   0  0  0  0  0  0  0  0  0  0  0  0
   27.2400  -19.2971   -7.6388 C   0  0  0  0  0  0  0  0  0  0  0  0
   26.4716  -20.2545   -8.5067 C   0  0  2  0  0  0  0  0  0  0  0  0
   26.3107  -19.7930   -9.8582 N   0  0  0  0  0  0  0  0  0  0  0  0
   25.1806  -20.6263   -7.8746 C   0  0  0  0  0  0  0  0  0  0  0  0
   25.1543  -21.3458   -6.8600 O   0  0  0  0  0  0  0  0  0  0  0  0
   23.9980  -20.1731   -8.4129 O   0  0  0  0  0  0  0  0  0  0  0  0
  2  1  1  6
  2  3  1  0
  4  6  1  0
  4  2  1  0
  4  5  1  1
  6  8  1  0
  7  6  2  0
  8  9  1  0
  9 10  1  0
 10 17  1  0
 10 11  2  0
 12 13  1  0
 13 14  1  0
 14 15  1  0
 16 15  1  1
 16 18  1  0
 17 16  1  0
 18 19  2  0
 18 20  1  0
M  END
$$$$
