TGM.pdb
     RDKit          3D

 20 19  0  0  1  0  0  0  0  0999 V2000
   22.1383  -19.1189  -13.6961 C   0  0  0  0  0  0  0  0  0  0  0  0
   23.1673  -20.1562  -13.2371 C   0  0  1  0  0  0  0  0  0  0  0  0
   22.6506  -21.4501  -13.4000 O   0  0  0  0  0  0  0  0  0  0  0  0
   24.3654  -20.0442  -14.1322 C   0  0  2  0  0  0  0  0  0  0  0  0
   24.0490  -20.2978  -15.5133 N   0  0  0  0  0  0  0  0  0  0  0  0
   25.3797  -21.0330  -13.6814 C   0  0  0  0  0  0  0  0  0  0  0  0
   25.7729  -21.9598  -14.4709 O   0  0  0  0  0  0  0  0  0  0  0  0
   25.9124  -20.9486  -12.3723 N   0  0  0  0  0  0  0  0  0  0  0  0
   27.0155  -21.7756  -11.9612 C   0  0  0  0  0  0  0  0  0  0  0  0
   27.4347  -21.4091  -10.5767 C   0  0  0  0  0  0  0  0  0  0  0  0
   28.3516  -22.0602   -9.9794 O   0  0  0  0  0  0  0  0  0  0  0  0
   29.4584  -19.9401   -4.3942 C   0  0  0  0  0  0  0  0  0  0  0  0
   27.8601  -19.7561   -5.2185 S   0  0  0  0  0  0  0  0  0  0  0  0
   28.0875  -19.3985   -6.9770 C   0  0  0  0  0  0  0  0  0  0  0  0
   26.7578  -19.1809   -7.6958 C   0  0  0  0  0  0  0  0  0  0  0  0
   26.4310  -20.4147   -8.4903 C   0  0  2  0  0  0  0  0  0  0  0  0
   26.8413  -20.3308   -9.8651 N   0  0  0  0  0  0  0  0  0  0  0  0
   24.9985  -20.7768   -8.3448 C   0  0  0  0  0  0  0  0  0  0  0  0
   24.1573  -20.3855   -9.1737 O   0  0  0  0  0  0  0  0  0  0  0  0
   24.5919  -21.5531   -7.2837 O   0  0  0  0  0  0  0  0  0  0  0  0
  2  1  1  6
  2  3  1  0
  4  6  1  0
  4  2  1  0
  4  5  1  6
  6  8  1  0
  7  6  2  0
  8  9  1  0
  9 10  1  0
 10 17  1  0
 10 11  2  0
 12 13  1  0
 13 14  1  0
 14 15  1  0
 16 15  1  6
 16 18  1  0
 17 16  1  0
 18 19  2  0
 18 20  1  0
M  END
$$$$
