TGM.pdb
     RDKit          3D

 20 19  0  0  1  0  0  0  0  0999 V2000
   19.9947   -7.5961  -15.5237 C   0  0  0  0  0  0  0  0  0  0  0  0
   19.5727   -8.5255  -16.6655 C   0  0  1  0  0  0  0  0  0  0  0  0
   20.3451   -9.6962  -16.6425 O   0  0  0  0  0  0  0  0  0  0  0  0
   18.1490   -8.9319  -16.4266 C   0  0  2  0  0  0  0  0  0  0  0  0
   17.2395   -7.8176  -16.4816 N   0  0  0  0  0  0  0  0  0  0  0  0
   18.0613   -9.5587  -15.0816 C   0  0  0  0  0  0  0  0  0  0  0  0
   18.7202  -10.6244  -14.8221 O   0  0  0  0  0  0  0  0  0  0  0  0
   17.2449   -8.9738  -14.0837 N   0  0  0  0  0  0  0  0  0  0  0  0
   17.2928   -9.4285  -12.7196 C   0  0  0  0  0  0  0  0  0  0  0  0
   17.2578   -8.2584  -11.7942 C   0  0  0  0  0  0  0  0  0  0  0  0
   18.1518   -7.3537  -11.8533 O   0  0  0  0  0  0  0  0  0  0  0  0
   13.7847   -2.1289   -8.9464 C   0  0  0  0  0  0  0  0  0  0  0  0
   13.6877   -3.6183   -9.9664 S   0  0  0  0  0  0  0  0  0  0  0  0
   14.9963   -4.7838   -9.5180 C   0  0  0  0  0  0  0  0  0  0  0  0
   14.9554   -6.0497  -10.3713 C   0  0  0  0  0  0  0  0  0  0  0  0
   16.1121   -6.9293   -9.9859 C   0  0  2  0  0  0  0  0  0  0  0  0
   16.2400   -8.0962  -10.8149 N   0  0  0  0  0  0  0  0  0  0  0  0
   16.0691   -7.2607   -8.5392 C   0  0  0  0  0  0  0  0  0  0  0  0
   16.1490   -6.3646   -7.6799 O   0  0  0  0  0  0  0  0  0  0  0  0
   15.9399   -8.5712   -8.1396 O   0  0  0  0  0  0  0  0  0  0  0  0
  2  1  1  1
  2  3  1  0
  4  6  1  0
  4  2  1  0
  4  5  1  1
  6  8  1  0
  7  6  2  0
  8  9  1  0
  9 10  1  0
 10 17  1  0
 10 11  2  0
 12 13  1  0
 13 14  1  0
 14 15  1  0
 16 15  1  6
 16 18  1  0
 17 16  1  0
 18 19  2  0
 18 20  1  0
M  END
$$$$
