TGM.pdb
     RDKit          3D

 20 19  0  0  1  0  0  0  0  0999 V2000
   23.5384  -24.2712  -16.7201 C   0  0  0  0  0  0  0  0  0  0  0  0
   24.1664  -23.0533  -16.0359 C   0  0  1  0  0  0  0  0  0  0  0  0
   23.2535  -22.4843  -15.1355 O   0  0  0  0  0  0  0  0  0  0  0  0
   25.3393  -23.5301  -15.2321 C   0  0  2  0  0  0  0  0  0  0  0  0
   24.9682  -24.4986  -14.2340 N   0  0  0  0  0  0  0  0  0  0  0  0
   25.9526  -22.3555  -14.5583 C   0  0  0  0  0  0  0  0  0  0  0  0
   26.4436  -21.3981  -15.2507 O   0  0  0  0  0  0  0  0  0  0  0  0
   25.9937  -22.2966  -13.1444 N   0  0  0  0  0  0  0  0  0  0  0  0
   26.4746  -21.1259  -12.4603 C   0  0  0  0  0  0  0  0  0  0  0  0
   26.3569  -21.3173  -10.9850 C   0  0  0  0  0  0  0  0  0  0  0  0
   25.7485  -22.3278  -10.5053 O   0  0  0  0  0  0  0  0  0  0  0  0
   28.1896  -19.7611   -3.7174 C   0  0  0  0  0  0  0  0  0  0  0  0
   28.5177  -19.5194   -5.4786 S   0  0  0  0  0  0  0  0  0  0  0  0
   26.9693  -19.4453   -6.4107 C   0  0  0  0  0  0  0  0  0  0  0  0
   27.2076  -19.2428   -7.9055 C   0  0  0  0  0  0  0  0  0  0  0  0
   26.5916  -20.3927   -8.6528 C   0  0  2  0  0  0  0  0  0  0  0  0
   26.9099  -20.3958  -10.0543 N   0  0  0  0  0  0  0  0  0  0  0  0
   25.1304  -20.4689   -8.4007 C   0  0  0  0  0  0  0  0  0  0  0  0
   24.3258  -19.8841   -9.1479 O   0  0  0  0  0  0  0  0  0  0  0  0
   24.6561  -21.1924   -7.3305 O   0  0  0  0  0  0  0  0  0  0  0  0
  2  1  1  1
  2  3  1  0
  4  6  1  0
  4  2  1  0
  4  5  1  1
  6  8  1  0
  7  6  2  0
  8  9  1  0
  9 10  1  0
 10 17  1  0
 10 11  2  0
 12 13  1  0
 13 14  1  0
 14 15  1  0
 16 15  1  6
 16 18  1  0
 17 16  1  0
 18 19  2  0
 18 20  1  0
M  END
$$$$
