TGM.pdb
     RDKit          3D

 20 19  0  0  1  0  0  0  0  0999 V2000
   28.8489  -18.9706  -16.1930 C   0  0  0  0  0  0  0  0  0  0  0  0
   27.4567  -19.0354  -15.5581 C   0  0  1  0  0  0  0  0  0  0  0  0
   26.6315  -19.8965  -16.2965 O   0  0  0  0  0  0  0  0  0  0  0  0
   27.6017  -19.6302  -14.1890 C   0  0  2  0  0  0  0  0  0  0  0  0
   27.9951  -21.0143  -14.2268 N   0  0  0  0  0  0  0  0  0  0  0  0
   26.2939  -19.5205  -13.4909 C   0  0  0  0  0  0  0  0  0  0  0  0
   25.8407  -18.3748  -13.1460 O   0  0  0  0  0  0  0  0  0  0  0  0
   25.5471  -20.6891  -13.2064 N   0  0  0  0  0  0  0  0  0  0  0  0
   24.2559  -20.6142  -12.5763 C   0  0  0  0  0  0  0  0  0  0  0  0
   24.3931  -20.8557  -11.1101 C   0  0  0  0  0  0  0  0  0  0  0  0
   23.3645  -21.0172  -10.3771 O   0  0  0  0  0  0  0  0  0  0  0  0
   28.3484  -19.5792   -4.4557 C   0  0  0  0  0  0  0  0  0  0  0  0
   28.1907  -19.2182   -6.2200 S   0  0  0  0  0  0  0  0  0  0  0  0
   26.9325  -20.2747   -6.9765 C   0  0  0  0  0  0  0  0  0  0  0  0
   26.8624  -20.0907   -8.4909 C   0  0  0  0  0  0  0  0  0  0  0  0
   25.8245  -21.0275   -9.0435 C   0  0  2  0  0  0  0  0  0  0  0  0
   25.6595  -20.9174  -10.4669 N   0  0  0  0  0  0  0  0  0  0  0  0
   24.5410  -20.8918   -8.3094 C   0  0  0  0  0  0  0  0  0  0  0  0
   23.6821  -20.0711   -8.6787 O   0  0  0  0  0  0  0  0  0  0  0  0
   24.2944  -21.6796   -7.2084 O   0  0  0  0  0  0  0  0  0  0  0  0
  2  1  1  6
  2  3  1  0
  4  6  1  0
  4  2  1  0
  4  5  1  6
  6  8  1  0
  7  6  2  0
  8  9  1  0
  9 10  1  0
 10 17  1  0
 10 11  2  0
 12 13  1  0
 13 14  1  0
 14 15  1  0
 16 15  1  1
 16 18  1  0
 17 16  1  0
 18 19  2  0
 18 20  1  0
M  END
$$$$
