TGM.pdb
     RDKit          3D

 20 19  0  0  1  0  0  0  0  0999 V2000
   16.2112   -9.5581  -15.5153 C   0  0  0  0  0  0  0  0  0  0  0  0
   17.2816  -10.6433  -15.3660 C   0  0  1  0  0  0  0  0  0  0  0  0
   17.3321  -11.4310  -16.5257 O   0  0  0  0  0  0  0  0  0  0  0  0
   18.6121   -9.9636  -15.2365 C   0  0  2  0  0  0  0  0  0  0  0  0
   19.7155  -10.8756  -15.3870 N   0  0  0  0  0  0  0  0  0  0  0  0
   18.6870   -9.3353  -13.8913 C   0  0  0  0  0  0  0  0  0  0  0  0
   18.9102  -10.0526  -12.8557 O   0  0  0  0  0  0  0  0  0  0  0  0
   18.5101   -7.9372  -13.7561 N   0  0  0  0  0  0  0  0  0  0  0  0
   18.6378   -7.2893  -12.4779 C   0  0  0  0  0  0  0  0  0  0  0  0
   17.2880   -7.0920  -11.8730 C   0  0  0  0  0  0  0  0  0  0  0  0
   16.2412   -7.1019  -12.5978 O   0  0  0  0  0  0  0  0  0  0  0  0
   11.8015   -7.8951   -6.4854 C   0  0  0  0  0  0  0  0  0  0  0  0
   13.5252   -8.2282   -6.9162 S   0  0  0  0  0  0  0  0  0  0  0  0
   14.0590   -7.1633   -8.2774 C   0  0  0  0  0  0  0  0  0  0  0  0
   15.4795   -7.4857   -8.7361 C   0  0  0  0  0  0  0  0  0  0  0  0
   15.8355   -6.5767   -9.8795 C   0  0  2  0  0  0  0  0  0  0  0  0
   17.1048   -6.8865  -10.4782 N   0  0  0  0  0  0  0  0  0  0  0  0
   15.7279   -5.1511   -9.4788 C   0  0  0  0  0  0  0  0  0  0  0  0
   16.7405   -4.5037   -9.1574 O   0  0  0  0  0  0  0  0  0  0  0  0
   14.4976   -4.5349   -9.4609 O   0  0  0  0  0  0  0  0  0  0  0  0
  2  1  1  6
  2  3  1  0
  4  6  1  0
  4  2  1  0
  4  5  1  1
  6  8  1  0
  7  6  2  0
  8  9  1  0
  9 10  1  0
 10 17  1  0
 10 11  2  0
 12 13  1  0
 13 14  1  0
 14 15  1  0
 16 15  1  1
 16 18  1  0
 17 16  1  0
 18 19  2  0
 18 20  1  0
M  END
$$$$
