TGM.pdb
     RDKit          3D

 20 19  0  0  1  0  0  0  0  0999 V2000
   14.8935  -11.8966  -17.9096 C   0  0  0  0  0  0  0  0  0  0  0  0
   15.7721  -10.6575  -18.1051 C   0  0  1  0  0  0  0  0  0  0  0  0
   15.0013   -9.5952  -18.6001 O   0  0  0  0  0  0  0  0  0  0  0  0
   16.2859  -10.2398  -16.7595 C   0  0  2  0  0  0  0  0  0  0  0  0
   15.2296   -9.8610  -15.8580 N   0  0  0  0  0  0  0  0  0  0  0  0
   17.1978   -9.0809  -16.9465 C   0  0  0  0  0  0  0  0  0  0  0  0
   18.2395   -9.1915  -17.6811 O   0  0  0  0  0  0  0  0  0  0  0  0
   16.9121   -7.8497  -16.3086 N   0  0  0  0  0  0  0  0  0  0  0  0
   17.7344   -6.6891  -16.5249 C   0  0  0  0  0  0  0  0  0  0  0  0
   18.9050   -6.7182  -15.5999 C   0  0  0  0  0  0  0  0  0  0  0  0
   18.7856   -7.1585  -14.4112 O   0  0  0  0  0  0  0  0  0  0  0  0
   23.6127  -10.1556  -13.0000 C   0  0  0  0  0  0  0  0  0  0  0  0
   22.5871   -9.3432  -14.2474 S   0  0  0  0  0  0  0  0  0  0  0  0
   23.3419   -7.7874  -14.7780 C   0  0  0  0  0  0  0  0  0  0  0  0
   22.5066   -7.0765  -15.8406 C   0  0  0  0  0  0  0  0  0  0  0  0
   21.3627   -6.3731  -15.1645 C   0  0  2  0  0  0  0  0  0  0  0  0
   20.1934   -6.2634  -15.9928 N   0  0  0  0  0  0  0  0  0  0  0  0
   21.7948   -5.0639  -14.6133 C   0  0  0  0  0  0  0  0  0  0  0  0
   21.4961   -4.0025  -15.1896 O   0  0  0  0  0  0  0  0  0  0  0  0
   22.5336   -5.0186  -13.4532 O   0  0  0  0  0  0  0  0  0  0  0  0
  2  1  1  1
  2  3  1  0
  4  6  1  0
  4  2  1  0
  4  5  1  1
  6  8  1  0
  7  6  2  0
  8  9  1  0
  9 10  1  0
 10 17  1  0
 10 11  2  0
 12 13  1  0
 13 14  1  0
 14 15  1  0
 16 15  1  6
 16 18  1  0
 17 16  1  0
 18 19  2  0
 18 20  1  0
M  END
$$$$
