TGM.pdb
     RDKit          3D

 20 19  0  0  1  0  0  0  0  0999 V2000
   14.4913  -13.2537  -16.2614 C   0  0  0  0  0  0  0  0  0  0  0  0
   15.2723  -11.9976  -16.6588 C   0  0  1  0  0  0  0  0  0  0  0  0
   14.4541  -10.8647  -16.5371 O   0  0  0  0  0  0  0  0  0  0  0  0
   16.4029  -11.8313  -15.6876 C   0  0  2  0  0  0  0  0  0  0  0  0
   15.9468  -11.6527  -14.3341 N   0  0  0  0  0  0  0  0  0  0  0  0
   17.1934  -10.6386  -16.0904 C   0  0  0  0  0  0  0  0  0  0  0  0
   17.8266  -10.6295  -17.2021 O   0  0  0  0  0  0  0  0  0  0  0  0
   17.2458   -9.5081  -15.2397 N   0  0  0  0  0  0  0  0  0  0  0  0
   17.9270   -8.3054  -15.6386 C   0  0  0  0  0  0  0  0  0  0  0  0
   19.2464   -8.2175  -14.9470 C   0  0  0  0  0  0  0  0  0  0  0  0
   19.3582   -8.5206  -13.7154 O   0  0  0  0  0  0  0  0  0  0  0  0
   26.6473  -10.0388  -14.4188 C   0  0  0  0  0  0  0  0  0  0  0  0
   25.1696   -9.9914  -15.4590 S   0  0  0  0  0  0  0  0  0  0  0  0
   23.9501   -8.8403  -14.7812 C   0  0  0  0  0  0  0  0  0  0  0  0
   22.6631   -8.8169  -15.6031 C   0  0  0  0  0  0  0  0  0  0  0  0
   21.7302   -7.7979  -15.0102 C   0  0  2  0  0  0  0  0  0  0  0  0
   20.4277   -7.7981  -15.6177 N   0  0  0  0  0  0  0  0  0  0  0  0
   22.3529   -6.4500  -14.9989 C   0  0  0  0  0  0  0  0  0  0  0  0
   22.2604   -5.6995  -15.9868 O   0  0  0  0  0  0  0  0  0  0  0  0
   23.0406   -6.0218  -13.8865 O   0  0  0  0  0  0  0  0  0  0  0  0
  2  1  1  1
  2  3  1  0
  4  6  1  0
  4  2  1  0
  4  5  1  1
  6  8  1  0
  7  6  2  0
  8  9  1  0
  9 10  1  0
 10 17  1  0
 10 11  2  0
 12 13  1  0
 13 14  1  0
 14 15  1  0
 16 15  1  6
 16 18  1  0
 17 16  1  0
 18 19  2  0
 18 20  1  0
M  END
$$$$
