TGM.pdb
     RDKit          3D

 20 19  0  0  1  0  0  0  0  0999 V2000
   26.8979  -22.3711  -14.7249 C   0  0  0  0  0  0  0  0  0  0  0  0
   25.9718  -21.8277  -15.8170 C   0  0  1  0  0  0  0  0  0  0  0  0
   25.8027  -22.7883  -16.8252 O   0  0  0  0  0  0  0  0  0  0  0  0
   24.6241  -21.5913  -15.2029 C   0  0  2  0  0  0  0  0  0  0  0  0
   23.6395  -21.1847  -16.1709 N   0  0  0  0  0  0  0  0  0  0  0  0
   24.7590  -20.5247  -14.1763 C   0  0  0  0  0  0  0  0  0  0  0  0
   24.5997  -19.2964  -14.4972 O   0  0  0  0  0  0  0  0  0  0  0  0
   25.0653  -20.8699  -12.8379 N   0  0  0  0  0  0  0  0  0  0  0  0
   25.2216  -19.8609  -11.8244 C   0  0  0  0  0  0  0  0  0  0  0  0
   25.6699  -20.4905  -10.5478 C   0  0  0  0  0  0  0  0  0  0  0  0
   25.7216  -21.7572  -10.4288 O   0  0  0  0  0  0  0  0  0  0  0  0
   29.1806  -19.8898   -3.4705 C   0  0  0  0  0  0  0  0  0  0  0  0
   28.5890  -18.9654   -4.9069 S   0  0  0  0  0  0  0  0  0  0  0  0
   27.6480  -20.0425   -6.0142 C   0  0  0  0  0  0  0  0  0  0  0  0
   27.2208  -19.3217   -7.2910 C   0  0  0  0  0  0  0  0  0  0  0  0
   26.4896  -20.2950   -8.1732 C   0  0  2  0  0  0  0  0  0  0  0  0
   26.0566  -19.7202   -9.4173 N   0  0  0  0  0  0  0  0  0  0  0  0
   25.3828  -20.9541   -7.4348 C   0  0  0  0  0  0  0  0  0  0  0  0
   24.2000  -20.6273   -7.6393 O   0  0  0  0  0  0  0  0  0  0  0  0
   25.6631  -21.9371   -6.5135 O   0  0  0  0  0  0  0  0  0  0  0  0
  2  1  1  1
  2  3  1  0
  4  6  1  0
  4  2  1  0
  4  5  1  6
  6  8  1  0
  7  6  2  0
  8  9  1  0
  9 10  1  0
 10 17  1  0
 10 11  2  0
 12 13  1  0
 13 14  1  0
 14 15  1  0
 16 15  1  1
 16 18  1  0
 17 16  1  0
 18 19  2  0
 18 20  1  0
M  END
$$$$
