TGM.pdb
     RDKit          3D

 20 19  0  0  1  0  0  0  0  0999 V2000
   25.1430  -22.8556  -17.0181 C   0  0  0  0  0  0  0  0  0  0  0  0
   25.5960  -21.8585  -15.9475 C   0  0  1  0  0  0  0  0  0  0  0  0
   24.8740  -20.6620  -16.0691 O   0  0  0  0  0  0  0  0  0  0  0  0
   25.2630  -22.4399  -14.6058 C   0  0  2  0  0  0  0  0  0  0  0  0
   23.8447  -22.5103  -14.3707 N   0  0  0  0  0  0  0  0  0  0  0  0
   25.8825  -21.5850  -13.5593 C   0  0  0  0  0  0  0  0  0  0  0  0
   27.1547  -21.5428  -13.4302 O   0  0  0  0  0  0  0  0  0  0  0  0
   25.0607  -20.8146  -12.7016 N   0  0  0  0  0  0  0  0  0  0  0  0
   25.6293  -19.9189  -11.7299 C   0  0  0  0  0  0  0  0  0  0  0  0
   25.8380  -20.6382  -10.4392 C   0  0  0  0  0  0  0  0  0  0  0  0
   25.3558  -21.8024  -10.2565 O   0  0  0  0  0  0  0  0  0  0  0  0
   28.4188  -17.9961   -4.6355 C   0  0  0  0  0  0  0  0  0  0  0  0
   28.6419  -19.7889   -4.5727 S   0  0  0  0  0  0  0  0  0  0  0  0
   27.5554  -20.6082   -5.7645 C   0  0  0  0  0  0  0  0  0  0  0  0
   27.5094  -19.8712   -7.1013 C   0  0  0  0  0  0  0  0  0  0  0  0
   26.6336  -20.6434   -8.0483 C   0  0  2  0  0  0  0  0  0  0  0  0
   26.5747  -20.0694   -9.3646 N   0  0  0  0  0  0  0  0  0  0  0  0
   25.2870  -20.8675   -7.4643 C   0  0  0  0  0  0  0  0  0  0  0  0
   24.3246  -20.1515   -7.7941 O   0  0  0  0  0  0  0  0  0  0  0  0
   25.0964  -21.8764   -6.5481 O   0  0  0  0  0  0  0  0  0  0  0  0
  2  1  1  6
  2  3  1  0
  4  6  1  0
  4  2  1  0
  4  5  1  1
  6  8  1  0
  7  6  2  0
  8  9  1  0
  9 10  1  0
 10 17  1  0
 10 11  2  0
 12 13  1  0
 13 14  1  0
 14 15  1  0
 16 15  1  1
 16 18  1  0
 17 16  1  0
 18 19  2  0
 18 20  1  0
M  END
$$$$
