TGM.pdb
     RDKit          3D

 20 19  0  0  1  0  0  0  0  0999 V2000
   24.6514  -17.5573  -17.4424 C   0  0  0  0  0  0  0  0  0  0  0  0
   25.1336  -18.6230  -18.4310 C   0  0  1  0  0  0  0  0  0  0  0  0
   24.7751  -18.2627  -19.7385 O   0  0  0  0  0  0  0  0  0  0  0  0
   26.6321  -18.6563  -18.3782 C   0  0  2  0  0  0  0  0  0  0  0  0
   27.2036  -19.4713  -19.4179 N   0  0  0  0  0  0  0  0  0  0  0  0
   27.0410  -19.2038  -17.0580 C   0  0  0  0  0  0  0  0  0  0  0  0
   27.2387  -20.4595  -16.9133 O   0  0  0  0  0  0  0  0  0  0  0  0
   27.2122  -18.3313  -15.9562 N   0  0  0  0  0  0  0  0  0  0  0  0
   27.6246  -18.8264  -14.6698 C   0  0  0  0  0  0  0  0  0  0  0  0
   26.4499  -19.3930  -13.9447 C   0  0  0  0  0  0  0  0  0  0  0  0
   25.2745  -19.2830  -14.4218 O   0  0  0  0  0  0  0  0  0  0  0  0
   23.3120  -21.9037   -7.3983 C   0  0  0  0  0  0  0  0  0  0  0  0
   24.8058  -21.4086   -8.2880 S   0  0  0  0  0  0  0  0  0  0  0  0
   24.3977  -20.2738   -9.6361 C   0  0  0  0  0  0  0  0  0  0  0  0
   25.6298  -19.8785  -10.4473 C   0  0  0  0  0  0  0  0  0  0  0  0
   25.4699  -20.3942  -11.8504 C   0  0  2  0  0  0  0  0  0  0  0  0
   26.5811  -20.0742  -12.7038 N   0  0  0  0  0  0  0  0  0  0  0  0
   24.1688  -19.9714  -12.4272 C   0  0  0  0  0  0  0  0  0  0  0  0
   23.9099  -18.7660  -12.5941 O   0  0  0  0  0  0  0  0  0  0  0  0
   23.2360  -20.9188  -12.7823 O   0  0  0  0  0  0  0  0  0  0  0  0
  2  1  1  1
  2  3  1  0
  4  6  1  0
  4  2  1  0
  4  5  1  6
  6  8  1  0
  7  6  2  0
  8  9  1  0
  9 10  1  0
 10 17  1  0
 10 11  2  0
 12 13  1  0
 13 14  1  0
 14 15  1  0
 16 15  1  1
 16 18  1  0
 17 16  1  0
 18 19  2  0
 18 20  1  0
M  END
$$$$
