TGM.pdb
     RDKit          3D

 20 19  0  0  1  0  0  0  0  0999 V2000
   16.0992  -13.0288  -16.1201 C   0  0  0  0  0  0  0  0  0  0  0  0
   17.4434  -13.1381  -15.3942 C   0  0  1  0  0  0  0  0  0  0  0  0
   17.6710  -14.4656  -15.0020 O   0  0  0  0  0  0  0  0  0  0  0  0
   18.5242  -12.7749  -16.3684 C   0  0  2  0  0  0  0  0  0  0  0  0
   19.8432  -13.0235  -15.8485 N   0  0  0  0  0  0  0  0  0  0  0  0
   18.3978  -11.3288  -16.6888 C   0  0  0  0  0  0  0  0  0  0  0  0
   17.3258  -10.8771  -17.2215 O   0  0  0  0  0  0  0  0  0  0  0  0
   19.4688  -10.4479  -16.4033 N   0  0  0  0  0  0  0  0  0  0  0  0
   19.4168   -9.0619  -16.7857 C   0  0  0  0  0  0  0  0  0  0  0  0
   20.5678   -8.3270  -16.1839 C   0  0  0  0  0  0  0  0  0  0  0  0
   21.3058   -8.8789  -15.3052 O   0  0  0  0  0  0  0  0  0  0  0  0
   25.8700   -2.4816  -16.3769 C   0  0  0  0  0  0  0  0  0  0  0  0
   24.3991   -3.1660  -17.1742 S   0  0  0  0  0  0  0  0  0  0  0  0
   23.7143   -4.5216  -16.1916 C   0  0  0  0  0  0  0  0  0  0  0  0
   22.4947   -5.1551  -16.8576 C   0  0  0  0  0  0  0  0  0  0  0  0
   21.9679   -6.2436  -15.9645 C   0  0  2  0  0  0  0  0  0  0  0  0
   20.8942   -6.9942  -16.5555 N   0  0  0  0  0  0  0  0  0  0  0  0
   21.6183   -5.7090  -14.6241 C   0  0  0  0  0  0  0  0  0  0  0  0
   20.5119   -5.1776  -14.4212 O   0  0  0  0  0  0  0  0  0  0  0  0
   22.5243   -5.7996  -13.5922 O   0  0  0  0  0  0  0  0  0  0  0  0
  2  1  1  6
  2  3  1  0
  4  6  1  0
  4  2  1  0
  4  5  1  1
  6  8  1  0
  7  6  2  0
  8  9  1  0
  9 10  1  0
 10 17  1  0
 10 11  2  0
 12 13  1  0
 13 14  1  0
 14 15  1  0
 16 15  1  6
 16 18  1  0
 17 16  1  0
 18 19  2  0
 18 20  1  0
M  END
$$$$
