TGM.pdb
     RDKit          3D

 20 19  0  0  1  0  0  0  0  0999 V2000
   24.7890  -24.1614  -15.3892 C   0  0  0  0  0  0  0  0  0  0  0  0
   25.3238  -23.0265  -14.5107 C   0  0  1  0  0  0  0  0  0  0  0  0
   26.4109  -22.4028  -15.1407 O   0  0  0  0  0  0  0  0  0  0  0  0
   24.2412  -21.9971  -14.3782 C   0  0  2  0  0  0  0  0  0  0  0  0
   23.8414  -21.4491  -15.6477 N   0  0  0  0  0  0  0  0  0  0  0  0
   24.7462  -20.8962  -13.5163 C   0  0  0  0  0  0  0  0  0  0  0  0
   24.8727  -19.7137  -13.9880 O   0  0  0  0  0  0  0  0  0  0  0  0
   25.0887  -21.1581  -12.1678 N   0  0  0  0  0  0  0  0  0  0  0  0
   25.6066  -20.1215  -11.3150 C   0  0  0  0  0  0  0  0  0  0  0  0
   25.9022  -20.6789   -9.9626 C   0  0  0  0  0  0  0  0  0  0  0  0
   25.6656  -21.9012   -9.6955 O   0  0  0  0  0  0  0  0  0  0  0  0
   30.3516  -19.5966   -4.3632 C   0  0  0  0  0  0  0  0  0  0  0  0
   28.6452  -19.0100   -4.2547 S   0  0  0  0  0  0  0  0  0  0  0  0
   27.5640  -19.9954   -5.3186 C   0  0  0  0  0  0  0  0  0  0  0  0
   27.4793  -19.4289   -6.7343 C   0  0  0  0  0  0  0  0  0  0  0  0
   26.6628  -20.3652   -7.5810 C   0  0  2  0  0  0  0  0  0  0  0  0
   26.4550  -19.8862   -8.9199 N   0  0  0  0  0  0  0  0  0  0  0  0
   25.3926  -20.7255   -6.9017 C   0  0  0  0  0  0  0  0  0  0  0  0
   24.3326  -20.1392   -7.1850 O   0  0  0  0  0  0  0  0  0  0  0  0
   25.3826  -21.7174   -5.9479 O   0  0  0  0  0  0  0  0  0  0  0  0
  2  1  1  6
  2  3  1  0
  4  6  1  0
  4  2  1  0
  4  5  1  6
  6  8  1  0
  7  6  2  0
  8  9  1  0
  9 10  1  0
 10 17  1  0
 10 11  2  0
 12 13  1  0
 13 14  1  0
 14 15  1  0
 16 15  1  1
 16 18  1  0
 17 16  1  0
 18 19  2  0
 18 20  1  0
M  END
$$$$
