TGM.pdb
     RDKit          3D

 20 19  0  0  1  0  0  0  0  0999 V2000
   18.7465  -10.5157  -21.1644 C   0  0  0  0  0  0  0  0  0  0  0  0
   17.8804  -11.1428  -20.0679 C   0  0  1  0  0  0  0  0  0  0  0  0
   17.5714  -12.4701  -20.4001 O   0  0  0  0  0  0  0  0  0  0  0  0
   18.6905  -11.1813  -18.8063 C   0  0  2  0  0  0  0  0  0  0  0  0
   18.0649  -11.9620  -17.7715 N   0  0  0  0  0  0  0  0  0  0  0  0
   18.8638   -9.7874  -18.3195 C   0  0  0  0  0  0  0  0  0  0  0  0
   19.5454   -8.9460  -19.0009 O   0  0  0  0  0  0  0  0  0  0  0  0
   18.2721   -9.3900  -17.0963 N   0  0  0  0  0  0  0  0  0  0  0  0
   18.4291   -8.0518  -16.5919 C   0  0  0  0  0  0  0  0  0  0  0  0
   19.3508   -8.0578  -15.4183 C   0  0  0  0  0  0  0  0  0  0  0  0
   19.3589   -9.0340  -14.6009 O   0  0  0  0  0  0  0  0  0  0  0  0
   26.0558  -10.2863  -14.6849 C   0  0  0  0  0  0  0  0  0  0  0  0
   24.5648   -9.8801  -15.6228 S   0  0  0  0  0  0  0  0  0  0  0  0
   23.6985   -8.4829  -14.8683 C   0  0  0  0  0  0  0  0  0  0  0  0
   22.3475   -8.2195  -15.5298 C   0  0  0  0  0  0  0  0  0  0  0  0
   21.6107   -7.1837  -14.7270 C   0  0  2  0  0  0  0  0  0  0  0  0
   20.2531   -6.9906  -15.1573 N   0  0  0  0  0  0  0  0  0  0  0  0
   22.3758   -5.9125  -14.6691 C   0  0  0  0  0  0  0  0  0  0  0  0
   23.1808   -5.6975  -13.7453 O   0  0  0  0  0  0  0  0  0  0  0  0
   22.1961   -4.9591  -15.6451 O   0  0  0  0  0  0  0  0  0  0  0  0
  2  1  1  6
  2  3  1  0
  4  6  1  0
  4  2  1  0
  4  5  1  1
  6  8  1  0
  7  6  2  0
  8  9  1  0
  9 10  1  0
 10 17  1  0
 10 11  2  0
 12 13  1  0
 13 14  1  0
 14 15  1  0
 16 15  1  6
 16 18  1  0
 17 16  1  0
 18 19  2  0
 18 20  1  0
M  END
$$$$
