PFE.pdb
     RDKit          3D

 28 29  0  0  1  0  0  0  0  0999 V2000
   20.3408  -12.4613  -18.4655 N   0  0  0  0  0  0  0  0  0  0  0  0
   19.9205  -13.7797  -18.9170 C   0  0  0  0  0  0  0  0  0  0  0  0
   19.0390  -14.2174  -17.7596 C   0  0  0  0  0  0  0  0  0  0  0  0
   18.4182  -12.9361  -17.2087 C   0  0  0  0  0  0  0  0  0  0  0  0
   19.0764  -11.8838  -18.0556 C   0  0  1  0  0  0  0  0  0  0  0  0
   19.2789  -10.6025  -17.3231 C   0  0  0  0  0  0  0  0  0  0  0  0
   18.2567   -9.9775  -16.9663 O   0  0  0  0  0  0  0  0  0  0  0  0
   20.5526  -10.0834  -17.0259 N   0  0  0  0  0  0  0  0  0  0  0  0
   20.7749   -8.8278  -16.3745 C   0  0  1  0  0  0  0  0  0  0  0  0
   21.9111   -8.8031  -15.4138 C   0  0  0  0  0  0  0  0  0  0  0  0
   22.2175   -7.5292  -14.7835 C   0  0  0  0  0  0  0  0  0  0  0  0
   21.6957   -7.1858  -13.5596 C   0  0  0  0  0  0  0  0  0  0  0  0
   22.0058   -5.9662  -12.9542 C   0  0  0  0  0  0  0  0  0  0  0  0
   22.8481   -5.0672  -13.5696 C   0  0  0  0  0  0  0  0  0  0  0  0
   23.3732   -5.4078  -14.7966 C   0  0  0  0  0  0  0  0  0  0  0  0
   23.0568   -6.6179  -15.3822 C   0  0  0  0  0  0  0  0  0  0  0  0
   20.6978   -7.6474  -17.2790 C   0  0  0  0  0  0  0  0  0  0  0  0
   21.4311   -7.6168  -18.3168 O   0  0  0  0  0  0  0  0  0  0  0  0
   19.8645   -6.5240  -17.0840 N   0  0  0  0  0  0  0  0  0  0  0  0
   19.8409   -5.3752  -17.9979 C   0  0  1  0  0  0  0  0  0  0  0  0
   18.4620   -5.0872  -18.4638 C   0  0  0  0  0  0  0  0  0  0  0  0
   17.5882   -4.5993  -17.3520 C   0  0  0  0  0  0  0  0  0  0  0  0
   16.1475   -4.5404  -17.6758 C   0  0  0  0  0  0  0  0  0  0  0  0
   15.2698   -5.3508  -17.3120 O   0  0  0  0  0  0  0  0  0  0  0  0
   20.4187   -4.2366  -17.2631 C   0  0  0  0  0  0  0  0  0  0  0  0
   20.7090   -4.2503  -16.0450 O   0  0  0  0  0  0  0  0  0  0  0  0
   15.7134   -3.4754  -18.4677 O   0  0  0  0  0  0  0  0  0  0  0  0
   20.6719   -3.0513  -17.9351 O   0  0  0  0  0  0  0  0  0  0  0  0
  1  5  1  0
  2  3  1  0
  2  1  1  0
  3  4  1  0
  5  4  1  0
  5  6  1  1
  6  7  2  0
  8  9  1  0
  8  6  1  0
  9 17  1  0
 10 11  1  0
  9 10  1  6
 11 12  2  0
 12 13  1  0
 14 13  2  0
 15 14  1  0
 16 15  2  0
 16 11  1  0
 17 18  2  0
 19 20  1  0
 19 17  1  0
 20 25  1  0
 20 21  1  1
 22 23  1  0
 22 21  1  0
 23 24  2  0
 25 26  2  0
 25 28  1  0
 27 23  1  0
M  END
$$$$
