PFE.pdb
     RDKit          3D

 28 29  0  0  1  0  0  0  0  0999 V2000
   28.3301  -19.6236  -13.4172 N   0  0  0  0  0  0  0  0  0  0  0  0
   28.7925  -19.7304  -14.7933 C   0  0  0  0  0  0  0  0  0  0  0  0
   29.6669  -20.9703  -14.7120 C   0  0  0  0  0  0  0  0  0  0  0  0
   29.0326  -21.8506  -13.6380 C   0  0  0  0  0  0  0  0  0  0  0  0
   27.9052  -20.9837  -13.1528 C   0  0  1  0  0  0  0  0  0  0  0  0
   27.6078  -21.1862  -11.7072 C   0  0  0  0  0  0  0  0  0  0  0  0
   26.7697  -22.0653  -11.4112 O   0  0  0  0  0  0  0  0  0  0  0  0
   28.2240  -20.4388  -10.6865 N   0  0  0  0  0  0  0  0  0  0  0  0
   27.8832  -20.5417   -9.2996 C   0  0  1  0  0  0  0  0  0  0  0  0
   28.9788  -20.2071   -8.3498 C   0  0  0  0  0  0  0  0  0  0  0  0
   28.6215  -20.0765   -6.9465 C   0  0  0  0  0  0  0  0  0  0  0  0
   28.9383  -21.0481   -6.0280 C   0  0  0  0  0  0  0  0  0  0  0  0
   28.6040  -20.9092   -4.6792 C   0  0  0  0  0  0  0  0  0  0  0  0
   27.9436  -19.7882   -4.2280 C   0  0  0  0  0  0  0  0  0  0  0  0
   27.6243  -18.8119   -5.1458 C   0  0  0  0  0  0  0  0  0  0  0  0
   27.9618  -18.9643   -6.4763 C   0  0  0  0  0  0  0  0  0  0  0  0
   26.5570  -19.9611   -8.9510 C   0  0  0  0  0  0  0  0  0  0  0  0
   26.3331  -18.7365   -9.2083 O   0  0  0  0  0  0  0  0  0  0  0  0
   25.4950  -20.6631   -8.3398 N   0  0  0  0  0  0  0  0  0  0  0  0
   24.0815  -20.3725   -8.6102 C   0  0  1  0  0  0  0  0  0  0  0  0
   23.7469  -20.6109  -10.0358 C   0  0  0  0  0  0  0  0  0  0  0  0
   22.2906  -20.4049  -10.3089 C   0  0  0  0  0  0  0  0  0  0  0  0
   21.9713  -19.9914  -11.6913 C   0  0  0  0  0  0  0  0  0  0  0  0
   22.5979  -20.3055  -12.7249 O   0  0  0  0  0  0  0  0  0  0  0  0
   23.2921  -21.2330   -7.7121 C   0  0  0  0  0  0  0  0  0  0  0  0
   23.7640  -22.1721   -7.0312 O   0  0  0  0  0  0  0  0  0  0  0  0
   20.8591  -19.1665  -11.8710 O   0  0  0  0  0  0  0  0  0  0  0  0
   21.9289  -21.0168   -7.5873 O   0  0  0  0  0  0  0  0  0  0  0  0
  1  5  1  0
  2  3  1  0
  2  1  1  0
  3  4  1  0
  5  4  1  0
  5  6  1  1
  6  7  2  0
  8  9  1  0
  8  6  1  0
  9 17  1  0
 10 11  1  0
  9 10  1  1
 11 12  2  0
 12 13  1  0
 14 13  2  0
 15 14  1  0
 16 15  2  0
 16 11  1  0
 17 18  2  0
 19 20  1  0
 19 17  1  0
 20 25  1  0
 20 21  1  6
 22 23  1  0
 22 21  1  0
 23 24  2  0
 25 26  2  0
 25 28  1  0
 27 23  1  0
M  END
$$$$
