PFE.pdb
     RDKit          3D

 28 29  0  0  1  0  0  0  0  0999 V2000
   20.6868  -11.7264  -19.9895 N   0  0  0  0  0  0  0  0  0  0  0  0
   20.8956  -12.8917  -20.8365 C   0  0  0  0  0  0  0  0  0  0  0  0
   21.8735  -13.6933  -19.9942 C   0  0  0  0  0  0  0  0  0  0  0  0
   21.5257  -13.3711  -18.5429 C   0  0  0  0  0  0  0  0  0  0  0  0
   20.4365  -12.3487  -18.7049 C   0  0  1  0  0  0  0  0  0  0  0  0
   20.4286  -11.3410  -17.6078 C   0  0  0  0  0  0  0  0  0  0  0  0
   20.2250  -11.7578  -16.4469 O   0  0  0  0  0  0  0  0  0  0  0  0
   20.6379   -9.9671  -17.8285 N   0  0  0  0  0  0  0  0  0  0  0  0
   20.6409   -8.9796  -16.7916 C   0  0  1  0  0  0  0  0  0  0  0  0
   21.5968   -9.2298  -15.6790 C   0  0  0  0  0  0  0  0  0  0  0  0
   21.6875   -8.2137  -14.6429 C   0  0  0  0  0  0  0  0  0  0  0  0
   21.1375   -8.4019  -13.3979 C   0  0  0  0  0  0  0  0  0  0  0  0
   21.2408   -7.4269  -12.4034 C   0  0  0  0  0  0  0  0  0  0  0  0
   21.9004   -6.2420  -12.6430 C   0  0  0  0  0  0  0  0  0  0  0  0
   22.4530   -6.0497  -13.8899 C   0  0  0  0  0  0  0  0  0  0  0  0
   22.3423   -7.0237  -14.8628 C   0  0  0  0  0  0  0  0  0  0  0  0
   20.6125   -7.5748  -17.2849 C   0  0  0  0  0  0  0  0  0  0  0  0
   21.5384   -7.1738  -18.0580 O   0  0  0  0  0  0  0  0  0  0  0  0
   19.6263   -6.6171  -16.9615 N   0  0  0  0  0  0  0  0  0  0  0  0
   19.5780   -5.2804  -17.5670 C   0  0  1  0  0  0  0  0  0  0  0  0
   18.1828   -4.7863  -17.6681 C   0  0  0  0  0  0  0  0  0  0  0  0
   18.1130   -3.4425  -18.3216 C   0  0  0  0  0  0  0  0  0  0  0  0
   16.7443   -2.9334  -18.5483 C   0  0  0  0  0  0  0  0  0  0  0  0
   15.6791   -3.4830  -18.1980 O   0  0  0  0  0  0  0  0  0  0  0  0
   20.4092   -4.4029  -16.7248 C   0  0  0  0  0  0  0  0  0  0  0  0
   20.4358   -4.4360  -15.4732 O   0  0  0  0  0  0  0  0  0  0  0  0
   16.6182   -1.7162  -19.2208 O   0  0  0  0  0  0  0  0  0  0  0  0
   21.2315   -3.4631  -17.3257 O   0  0  0  0  0  0  0  0  0  0  0  0
  1  5  1  0
  2  3  1  0
  2  1  1  0
  3  4  1  0
  5  4  1  0
  5  6  1  1
  6  7  2  0
  8  9  1  0
  8  6  1  0
  9 17  1  0
 10 11  1  0
  9 10  1  6
 11 12  2  0
 12 13  1  0
 14 13  2  0
 15 14  1  0
 16 15  2  0
 16 11  1  0
 17 18  2  0
 19 20  1  0
 19 17  1  0
 20 25  1  0
 20 21  1  1
 22 23  1  0
 22 21  1  0
 23 24  2  0
 25 26  2  0
 25 28  1  0
 27 23  1  0
M  END
$$$$
