PFE.pdb
     RDKit          3D

 28 29  0  0  1  0  0  0  0  0999 V2000
   23.1586  -22.0201   -7.1515 N   0  0  0  0  0  0  0  0  0  0  0  0
   21.7943  -22.1787   -6.6694 C   0  0  0  0  0  0  0  0  0  0  0  0
   21.3843  -20.7292   -6.4717 C   0  0  0  0  0  0  0  0  0  0  0  0
   22.1473  -19.9382   -7.5314 C   0  0  0  0  0  0  0  0  0  0  0  0
   22.9840  -21.0082   -8.1741 C   0  0  1  0  0  0  0  0  0  0  0  0
   24.2964  -20.4960   -8.6582 C   0  0  0  0  0  0  0  0  0  0  0  0
   24.2784  -19.5316   -9.4535 O   0  0  0  0  0  0  0  0  0  0  0  0
   25.5280  -21.0480   -8.2599 N   0  0  0  0  0  0  0  0  0  0  0  0
   26.7934  -20.6673   -8.8113 C   0  0  1  0  0  0  0  0  0  0  0  0
   27.9570  -20.8208   -7.8965 C   0  0  0  0  0  0  0  0  0  0  0  0
   27.8265  -20.2632   -6.5600 C   0  0  0  0  0  0  0  0  0  0  0  0
   27.6550  -18.9156   -6.3542 C   0  0  0  0  0  0  0  0  0  0  0  0
   27.5165  -18.3891   -5.0682 C   0  0  0  0  0  0  0  0  0  0  0  0
   27.5480  -19.2099   -3.9628 C   0  0  0  0  0  0  0  0  0  0  0  0
   27.7198  -20.5615   -4.1651 C   0  0  0  0  0  0  0  0  0  0  0  0
   27.8553  -21.0666   -5.4433 C   0  0  0  0  0  0  0  0  0  0  0  0
   27.0251  -21.1499  -10.2008 C   0  0  0  0  0  0  0  0  0  0  0  0
   27.0966  -22.4007  -10.4154 O   0  0  0  0  0  0  0  0  0  0  0  0
   27.1814  -20.3235  -11.3354 N   0  0  0  0  0  0  0  0  0  0  0  0
   26.7743  -20.7309  -12.6859 C   0  0  1  0  0  0  0  0  0  0  0  0
   25.3504  -21.1469  -12.7156 C   0  0  0  0  0  0  0  0  0  0  0  0
   24.8983  -21.4899  -14.0997 C   0  0  0  0  0  0  0  0  0  0  0  0
   23.4779  -21.8829  -14.2086 C   0  0  0  0  0  0  0  0  0  0  0  0
   23.0398  -22.9965  -14.5658 O   0  0  0  0  0  0  0  0  0  0  0  0
   27.0262  -19.5800  -13.5703 C   0  0  0  0  0  0  0  0  0  0  0  0
   26.9841  -19.6222  -14.8212 O   0  0  0  0  0  0  0  0  0  0  0  0
   22.5213  -20.9198  -13.8815 O   0  0  0  0  0  0  0  0  0  0  0  0
   27.3340  -18.3489  -13.0135 O   0  0  0  0  0  0  0  0  0  0  0  0
  1  5  1  0
  2  3  1  0
  2  1  1  0
  3  4  1  0
  5  4  1  0
  5  6  1  1
  6  7  2  0
  8  9  1  0
  8  6  1  0
  9 17  1  0
 10 11  1  0
  9 10  1  1
 11 12  2  0
 12 13  1  0
 14 13  2  0
 15 14  1  0
 16 15  2  0
 16 11  1  0
 17 18  2  0
 19 20  1  0
 19 17  1  0
 20 25  1  0
 20 21  1  1
 22 23  1  0
 22 21  1  0
 23 24  2  0
 25 26  2  0
 25 28  1  0
 27 23  1  0
M  END
$$$$
