PFE.pdb
     RDKit          3D

 28 29  0  0  1  0  0  0  0  0999 V2000
   28.0575  -20.7107  -16.7764 N   0  0  0  0  0  0  0  0  0  0  0  0
   28.9303  -20.9927  -17.9067 C   0  0  0  0  0  0  0  0  0  0  0  0
   29.6703  -22.2210  -17.4047 C   0  0  0  0  0  0  0  0  0  0  0  0
   28.6830  -22.9544  -16.5003 C   0  0  0  0  0  0  0  0  0  0  0  0
   27.5038  -22.0230  -16.5093 C   0  0  1  0  0  0  0  0  0  0  0  0
   26.7496  -22.0408  -15.2247 C   0  0  0  0  0  0  0  0  0  0  0  0
   25.9242  -22.9644  -15.0563 O   0  0  0  0  0  0  0  0  0  0  0  0
   26.9305  -21.0754  -14.2170 N   0  0  0  0  0  0  0  0  0  0  0  0
   26.2255  -21.0750  -12.9708 C   0  0  1  0  0  0  0  0  0  0  0  0
   27.0421  -20.7183  -11.7791 C   0  0  0  0  0  0  0  0  0  0  0  0
   26.3333  -20.5249  -10.5245 C   0  0  0  0  0  0  0  0  0  0  0  0
   26.0840  -19.2703  -10.0226 C   0  0  0  0  0  0  0  0  0  0  0  0
   25.3903  -19.0923   -8.8238 C   0  0  0  0  0  0  0  0  0  0  0  0
   24.9333  -20.1749   -8.1058 C   0  0  0  0  0  0  0  0  0  0  0  0
   25.1812  -21.4342   -8.6056 C   0  0  0  0  0  0  0  0  0  0  0  0
   25.8687  -21.5936   -9.7927 C   0  0  0  0  0  0  0  0  0  0  0  0
   24.8865  -20.4256  -13.0259 C   0  0  0  0  0  0  0  0  0  0  0  0
   24.7928  -19.2435  -13.4837 O   0  0  0  0  0  0  0  0  0  0  0  0
   23.6761  -21.0160  -12.6009 N   0  0  0  0  0  0  0  0  0  0  0  0
   22.3559  -20.4693  -12.9381 C   0  0  1  0  0  0  0  0  0  0  0  0
   21.8141  -21.0939  -14.1701 C   0  0  0  0  0  0  0  0  0  0  0  0
   20.4484  -20.5810  -14.5012 C   0  0  0  0  0  0  0  0  0  0  0  0
   19.8581  -21.1406  -15.7350 C   0  0  0  0  0  0  0  0  0  0  0  0
   20.3306  -22.0613  -16.4341 O   0  0  0  0  0  0  0  0  0  0  0  0
   21.4861  -20.7122  -11.7741 C   0  0  0  0  0  0  0  0  0  0  0  0
   21.5573  -21.7178  -11.0312 O   0  0  0  0  0  0  0  0  0  0  0  0
   18.6508  -20.5919  -16.1718 O   0  0  0  0  0  0  0  0  0  0  0  0
   20.5099  -19.7839  -11.4490 O   0  0  0  0  0  0  0  0  0  0  0  0
  1  5  1  0
  2  3  1  0
  2  1  1  0
  3  4  1  0
  5  4  1  0
  5  6  1  1
  6  7  2  0
  8  9  1  0
  8  6  1  0
  9 17  1  0
 10 11  1  0
  9 10  1  1
 11 12  2  0
 12 13  1  0
 14 13  2  0
 15 14  1  0
 16 15  2  0
 16 11  1  0
 17 18  2  0
 19 20  1  0
 19 17  1  0
 20 25  1  0
 20 21  1  6
 22 23  1  0
 22 21  1  0
 23 24  2  0
 25 26  2  0
 25 28  1  0
 27 23  1  0
M  END
$$$$
