PFE.pdb
     RDKit          3D

 28 29  0  0  1  0  0  0  0  0999 V2000
   24.6073   -9.8412  -15.5860 N   0  0  0  0  0  0  0  0  0  0  0  0
   25.3078  -10.8849  -16.3199 C   0  0  0  0  0  0  0  0  0  0  0  0
   24.2342  -11.9570  -16.3990 C   0  0  0  0  0  0  0  0  0  0  0  0
   22.9063  -11.2055  -16.4500 C   0  0  0  0  0  0  0  0  0  0  0  0
   23.3525   -9.7777  -16.3084 C   0  0  1  0  0  0  0  0  0  0  0  0
   22.3565   -8.9346  -15.5898 C   0  0  0  0  0  0  0  0  0  0  0  0
   21.3103   -8.6327  -16.2039 O   0  0  0  0  0  0  0  0  0  0  0  0
   22.5487   -8.4766  -14.2731 N   0  0  0  0  0  0  0  0  0  0  0  0
   21.5787   -7.7243  -13.5361 C   0  0  1  0  0  0  0  0  0  0  0  0
   21.4565   -8.0830  -12.0970 C   0  0  0  0  0  0  0  0  0  0  0  0
   20.4468   -7.3794  -11.3228 C   0  0  0  0  0  0  0  0  0  0  0  0
   19.1268   -7.7604  -11.3433 C   0  0  0  0  0  0  0  0  0  0  0  0
   18.1650   -7.0883  -10.5861 C   0  0  0  0  0  0  0  0  0  0  0  0
   18.5135   -6.0182   -9.7924 C   0  0  0  0  0  0  0  0  0  0  0  0
   19.8358   -5.6332   -9.7692 C   0  0  0  0  0  0  0  0  0  0  0  0
   20.7750   -6.3083  -10.5238 C   0  0  0  0  0  0  0  0  0  0  0  0
   21.5989   -6.2616  -13.8143 C   0  0  0  0  0  0  0  0  0  0  0  0
   22.6730   -5.6111  -13.6171 O   0  0  0  0  0  0  0  0  0  0  0  0
   20.5031   -5.5065  -14.2869 N   0  0  0  0  0  0  0  0  0  0  0  0
   20.6022   -4.0850  -14.6409 C   0  0  1  0  0  0  0  0  0  0  0  0
   20.7524   -3.9052  -16.1059 C   0  0  0  0  0  0  0  0  0  0  0  0
   20.8657   -2.4617  -16.4819 C   0  0  0  0  0  0  0  0  0  0  0  0
   21.6628   -2.1983  -17.6981 C   0  0  0  0  0  0  0  0  0  0  0  0
   22.2284   -3.0499  -18.4153 O   0  0  0  0  0  0  0  0  0  0  0  0
   19.3818   -3.4351  -14.1326 C   0  0  0  0  0  0  0  0  0  0  0  0
   18.2929   -4.0218  -13.9367 O   0  0  0  0  0  0  0  0  0  0  0  0
   21.8039   -0.8667  -18.0940 O   0  0  0  0  0  0  0  0  0  0  0  0
   19.4039   -2.0806  -13.8400 O   0  0  0  0  0  0  0  0  0  0  0  0
  1  5  1  0
  2  3  1  0
  2  1  1  0
  3  4  1  0
  5  4  1  0
  5  6  1  1
  6  7  2  0
  8  9  1  0
  8  6  1  0
  9 17  1  0
 10 11  1  0
  9 10  1  1
 11 12  2  0
 12 13  1  0
 14 13  2  0
 15 14  1  0
 16 15  2  0
 16 11  1  0
 17 18  2  0
 19 20  1  0
 19 17  1  0
 20 25  1  0
 20 21  1  6
 22 23  1  0
 22 21  1  0
 23 24  2  0
 25 26  2  0
 25 28  1  0
 27 23  1  0
M  END
$$$$
