PFE.pdb
     RDKit          3D

 28 29  0  0  1  0  0  0  0  0999 V2000
   21.9825  -12.4773  -19.2093 N   0  0  0  0  0  0  0  0  0  0  0  0
   22.0011  -13.7250  -19.9588 C   0  0  0  0  0  0  0  0  0  0  0  0
   21.2225  -14.6374  -19.0263 C   0  0  0  0  0  0  0  0  0  0  0  0
   20.2170  -13.7358  -18.3145 C   0  0  0  0  0  0  0  0  0  0  0  0
   20.5815  -12.3805  -18.8514 C   0  0  1  0  0  0  0  0  0  0  0  0
   20.3497  -11.2909  -17.8624 C   0  0  0  0  0  0  0  0  0  0  0  0
   19.1687  -11.0710  -17.5167 O   0  0  0  0  0  0  0  0  0  0  0  0
   21.3913  -10.5181  -17.3163 N   0  0  0  0  0  0  0  0  0  0  0  0
   21.1934   -9.4515  -16.3817 C   0  0  1  0  0  0  0  0  0  0  0  0
   22.3071   -9.2364  -15.4184 C   0  0  0  0  0  0  0  0  0  0  0  0
   22.1338   -8.1839  -14.4304 C   0  0  0  0  0  0  0  0  0  0  0  0
   22.4296   -6.8723  -14.7141 C   0  0  0  0  0  0  0  0  0  0  0  0
   22.2474   -5.8649  -13.7643 C   0  0  0  0  0  0  0  0  0  0  0  0
   21.7633   -6.1583  -12.5089 C   0  0  0  0  0  0  0  0  0  0  0  0
   21.4656   -7.4719  -12.2207 C   0  0  0  0  0  0  0  0  0  0  0  0
   21.6514   -8.4567  -13.1710 C   0  0  0  0  0  0  0  0  0  0  0  0
   20.6399   -8.2065  -16.9826 C   0  0  0  0  0  0  0  0  0  0  0  0
   21.2101   -7.7081  -18.0036 O   0  0  0  0  0  0  0  0  0  0  0  0
   19.5099   -7.5049  -16.5081 N   0  0  0  0  0  0  0  0  0  0  0  0
   19.0255   -6.2598  -17.1171 C   0  0  1  0  0  0  0  0  0  0  0  0
   17.5461   -6.2566  -17.2294 C   0  0  0  0  0  0  0  0  0  0  0  0
   17.0354   -4.9863  -17.8323 C   0  0  0  0  0  0  0  0  0  0  0  0
   15.5647   -4.9038  -17.9515 C   0  0  0  0  0  0  0  0  0  0  0  0
   14.7377   -5.7496  -17.5512 O   0  0  0  0  0  0  0  0  0  0  0  0
   19.5119   -5.1564  -16.2709 C   0  0  0  0  0  0  0  0  0  0  0  0
   19.6177   -5.2100  -15.0242 O   0  0  0  0  0  0  0  0  0  0  0  0
   15.0363   -3.7703  -18.5724 O   0  0  0  0  0  0  0  0  0  0  0  0
   19.8877   -3.9606  -16.8620 O   0  0  0  0  0  0  0  0  0  0  0  0
  1  5  1  0
  2  3  1  0
  2  1  1  0
  3  4  1  0
  5  4  1  0
  5  6  1  1
  6  7  2  0
  8  9  1  0
  8  6  1  0
  9 17  1  0
 10 11  1  0
  9 10  1  6
 11 12  2  0
 12 13  1  0
 14 13  2  0
 15 14  1  0
 16 15  2  0
 16 11  1  0
 17 18  2  0
 19 20  1  0
 19 17  1  0
 20 25  1  0
 20 21  1  1
 22 23  1  0
 22 21  1  0
 23 24  2  0
 25 26  2  0
 25 28  1  0
 27 23  1  0
M  END
$$$$
