PFE.pdb
     RDKit          3D

 28 29  0  0  1  0  0  0  0  0999 V2000
   36.1334  -28.1967  -20.7372 N   0  0  0  0  0  0  0  0  0  0  0  0
   36.8204  -26.9135  -20.7522 C   0  0  0  0  0  0  0  0  0  0  0  0
   36.1612  -26.2157  -19.5746 C   0  0  0  0  0  0  0  0  0  0  0  0
   35.8108  -27.3235  -18.5844 C   0  0  0  0  0  0  0  0  0  0  0  0
   36.2294  -28.5552  -19.3364 C   0  0  1  0  0  0  0  0  0  0  0  0
   35.3783  -29.7364  -19.0206 C   0  0  0  0  0  0  0  0  0  0  0  0
   34.4739  -30.0262  -19.8335 O   0  0  0  0  0  0  0  0  0  0  0  0
   35.5537  -30.5195  -17.8646 N   0  0  0  0  0  0  0  0  0  0  0  0
   34.7072  -31.6162  -17.5028 C   0  0  1  0  0  0  0  0  0  0  0  0
   35.3838  -32.7313  -16.7864 C   0  0  0  0  0  0  0  0  0  0  0  0
   34.5674  -33.8799  -16.4281 C   0  0  0  0  0  0  0  0  0  0  0  0
   34.4377  -34.9619  -17.2650 C   0  0  0  0  0  0  0  0  0  0  0  0
   33.6630  -36.0675  -16.9078 C   0  0  0  0  0  0  0  0  0  0  0  0
   33.0028  -36.1057  -15.6998 C   0  0  0  0  0  0  0  0  0  0  0  0
   33.1304  -35.0229  -14.8582 C   0  0  0  0  0  0  0  0  0  0  0  0
   33.9004  -33.9369  -15.2260 C   0  0  0  0  0  0  0  0  0  0  0  0
   33.3944  -31.2117  -16.9281 C   0  0  0  0  0  0  0  0  0  0  0  0
   33.3751  -30.4629  -15.9011 O   0  0  0  0  0  0  0  0  0  0  0  0
   32.1316  -31.5968  -17.4296 N   0  0  0  0  0  0  0  0  0  0  0  0
   30.8670  -31.0495  -16.9227 C   0  0  1  0  0  0  0  0  0  0  0  0
   30.1475  -30.2934  -17.9773 C   0  0  0  0  0  0  0  0  0  0  0  0
   28.8917  -29.6688  -17.4572 C   0  0  0  0  0  0  0  0  0  0  0  0
   28.1523  -28.8509  -18.4413 C   0  0  0  0  0  0  0  0  0  0  0  0
   27.1116  -28.1939  -18.2299 O   0  0  0  0  0  0  0  0  0  0  0  0
   30.0762  -32.1919  -16.4332 C   0  0  0  0  0  0  0  0  0  0  0  0
   30.1918  -33.3672  -16.8500 O   0  0  0  0  0  0  0  0  0  0  0  0
   28.6599  -28.8009  -19.7411 O   0  0  0  0  0  0  0  0  0  0  0  0
   29.1289  -31.9887  -15.4423 O   0  0  0  0  0  0  0  0  0  0  0  0
  1  5  1  0
  2  3  1  0
  2  1  1  0
  3  4  1  0
  5  4  1  0
  5  6  1  6
  6  7  2  0
  8  9  1  0
  8  6  1  0
  9 17  1  0
 10 11  1  0
  9 10  1  1
 11 12  2  0
 12 13  1  0
 14 13  2  0
 15 14  1  0
 16 15  2  0
 16 11  1  0
 17 18  2  0
 19 20  1  0
 19 17  1  0
 20 25  1  0
 20 21  1  6
 22 23  1  0
 22 21  1  0
 23 24  2  0
 25 26  2  0
 25 28  1  0
 27 23  1  0
M  END
$$$$
