PFE.pdb
     RDKit          3D

 28 29  0  0  1  0  0  0  0  0999 V2000
   28.1194  -20.6372  -16.9967 N   0  0  0  0  0  0  0  0  0  0  0  0
   28.8771  -20.9234  -18.2061 C   0  0  0  0  0  0  0  0  0  0  0  0
   29.3926  -22.3202  -17.9039 C   0  0  0  0  0  0  0  0  0  0  0  0
   28.3223  -22.9736  -17.0332 C   0  0  0  0  0  0  0  0  0  0  0  0
   27.3399  -21.8506  -16.8547 C   0  0  1  0  0  0  0  0  0  0  0  0
   26.6483  -21.8983  -15.5361 C   0  0  0  0  0  0  0  0  0  0  0  0
   25.7754  -22.7790  -15.3771 O   0  0  0  0  0  0  0  0  0  0  0  0
   26.9374  -21.0061  -14.4870 N   0  0  0  0  0  0  0  0  0  0  0  0
   26.2723  -21.0165  -13.2191 C   0  0  1  0  0  0  0  0  0  0  0  0
   27.1482  -20.7758  -12.0404 C   0  0  0  0  0  0  0  0  0  0  0  0
   26.4931  -20.5874  -10.7562 C   0  0  0  0  0  0  0  0  0  0  0  0
   26.3611  -19.3428  -10.1893 C   0  0  0  0  0  0  0  0  0  0  0  0
   25.7182  -19.1682   -8.9619 C   0  0  0  0  0  0  0  0  0  0  0  0
   25.1950  -20.2443   -8.2803 C   0  0  0  0  0  0  0  0  0  0  0  0
   25.3253  -21.4937   -8.8454 C   0  0  0  0  0  0  0  0  0  0  0  0
   25.9639  -21.6498  -10.0599 C   0  0  0  0  0  0  0  0  0  0  0  0
   24.9823  -20.2730  -13.1990 C   0  0  0  0  0  0  0  0  0  0  0  0
   24.9837  -19.0283  -13.4570 O   0  0  0  0  0  0  0  0  0  0  0  0
   23.7207  -20.8371  -12.9078 N   0  0  0  0  0  0  0  0  0  0  0  0
   22.4779  -20.0557  -12.8913 C   0  0  1  0  0  0  0  0  0  0  0  0
   21.7384  -20.1950  -14.1700 C   0  0  0  0  0  0  0  0  0  0  0  0
   22.0867  -19.1080  -15.1369 C   0  0  0  0  0  0  0  0  0  0  0  0
   21.3275  -19.1388  -16.4045 C   0  0  0  0  0  0  0  0  0  0  0  0
   20.4341  -19.9536  -16.7165 O   0  0  0  0  0  0  0  0  0  0  0  0
   21.6870  -20.5406  -11.7469 C   0  0  0  0  0  0  0  0  0  0  0  0
   21.8995  -21.6154  -11.1405 O   0  0  0  0  0  0  0  0  0  0  0  0
   21.6321  -18.1632  -17.3559 O   0  0  0  0  0  0  0  0  0  0  0  0
   20.6263  -19.7796  -11.2819 O   0  0  0  0  0  0  0  0  0  0  0  0
  1  5  1  0
  2  3  1  0
  2  1  1  0
  3  4  1  0
  5  4  1  0
  5  6  1  1
  6  7  2  0
  8  9  1  0
  8  6  1  0
  9 17  1  0
 10 11  1  0
  9 10  1  1
 11 12  2  0
 12 13  1  0
 14 13  2  0
 15 14  1  0
 16 15  2  0
 16 11  1  0
 17 18  2  0
 19 20  1  0
 19 17  1  0
 20 25  1  0
 20 21  1  6
 22 23  1  0
 22 21  1  0
 23 24  2  0
 25 26  2  0
 25 28  1  0
 27 23  1  0
M  END
$$$$
