PFE.pdb
     RDKit          3D

 28 29  0  0  1  0  0  0  0  0999 V2000
   30.9721  -20.9301   -9.9226 N   0  0  0  0  0  0  0  0  0  0  0  0
   32.3261  -21.4322  -10.1059 C   0  0  0  0  0  0  0  0  0  0  0  0
   32.4530  -22.3702   -8.9176 C   0  0  0  0  0  0  0  0  0  0  0  0
   31.0472  -22.9114   -8.6695 C   0  0  0  0  0  0  0  0  0  0  0  0
   30.2410  -22.1597   -9.6908 C   0  0  1  0  0  0  0  0  0  0  0  0
   28.8502  -21.8843   -9.2335 C   0  0  0  0  0  0  0  0  0  0  0  0
   28.0905  -22.8656   -9.0829 O   0  0  0  0  0  0  0  0  0  0  0  0
   28.3732  -20.5867   -8.9712 N   0  0  0  0  0  0  0  0  0  0  0  0
   27.0193  -20.2868   -8.6146 C   0  0  1  0  0  0  0  0  0  0  0  0
   26.8565  -19.3575   -7.4638 C   0  0  0  0  0  0  0  0  0  0  0  0
   27.6194  -19.6523   -6.2618 C   0  0  0  0  0  0  0  0  0  0  0  0
   28.6867  -18.8773   -5.8764 C   0  0  0  0  0  0  0  0  0  0  0  0
   29.4060  -19.1587   -4.7130 C   0  0  0  0  0  0  0  0  0  0  0  0
   29.0647  -20.2268   -3.9136 C   0  0  0  0  0  0  0  0  0  0  0  0
   27.9953  -21.0060   -4.2965 C   0  0  0  0  0  0  0  0  0  0  0  0
   27.2941  -20.7147   -5.4501 C   0  0  0  0  0  0  0  0  0  0  0  0
   26.1296  -20.0040   -9.7747 C   0  0  0  0  0  0  0  0  0  0  0  0
   26.2496  -18.8974  -10.3887 O   0  0  0  0  0  0  0  0  0  0  0  0
   25.1330  -20.8740  -10.2689 N   0  0  0  0  0  0  0  0  0  0  0  0
   24.4464  -20.6615  -11.5491 C   0  0  1  0  0  0  0  0  0  0  0  0
   24.8138  -21.7066  -12.5361 C   0  0  0  0  0  0  0  0  0  0  0  0
   24.1027  -21.5183  -13.8386 C   0  0  0  0  0  0  0  0  0  0  0  0
   24.5748  -22.3900  -14.9346 C   0  0  0  0  0  0  0  0  0  0  0  0
   24.1388  -22.4158  -16.1045 O   0  0  0  0  0  0  0  0  0  0  0  0
   23.0016  -20.6651  -11.2614 C   0  0  0  0  0  0  0  0  0  0  0  0
   22.4978  -20.9661  -10.1551 O   0  0  0  0  0  0  0  0  0  0  0  0
   25.6125  -23.2778  -14.6434 O   0  0  0  0  0  0  0  0  0  0  0  0
   22.1080  -20.3161  -12.2615 O   0  0  0  0  0  0  0  0  0  0  0  0
  1  5  1  0
  2  3  1  0
  2  1  1  0
  3  4  1  0
  5  4  1  0
  5  6  1  1
  6  7  2  0
  8  9  1  0
  8  6  1  0
  9 17  1  0
 10 11  1  0
  9 10  1  1
 11 12  2  0
 12 13  1  0
 14 13  2  0
 15 14  1  0
 16 15  2  0
 16 11  1  0
 17 18  2  0
 19 20  1  0
 19 17  1  0
 20 25  1  0
 20 21  1  6
 22 23  1  0
 22 21  1  0
 23 24  2  0
 25 26  2  0
 25 28  1  0
 27 23  1  0
M  END
$$$$
