PFE.pdb
     RDKit          3D

 28 29  0  0  1  0  0  0  0  0999 V2000
   19.8985  -12.1239  -18.6085 N   0  0  0  0  0  0  0  0  0  0  0  0
   20.6920  -13.2114  -19.1620 C   0  0  0  0  0  0  0  0  0  0  0  0
   20.7539  -12.8115  -20.6265 C   0  0  0  0  0  0  0  0  0  0  0  0
   20.7248  -11.2852  -20.6371 C   0  0  0  0  0  0  0  0  0  0  0  0
   20.5626  -10.9681  -19.1772 C   0  0  1  0  0  0  0  0  0  0  0  0
   19.7770   -9.7239  -18.9448 C   0  0  0  0  0  0  0  0  0  0  0  0
   20.2964   -8.6428  -19.2974 O   0  0  0  0  0  0  0  0  0  0  0  0
   18.4992   -9.7238  -18.3554 N   0  0  0  0  0  0  0  0  0  0  0  0
   17.7281   -8.5421  -18.1125 C   0  0  1  0  0  0  0  0  0  0  0  0
   16.2795   -8.6515  -18.4351 C   0  0  0  0  0  0  0  0  0  0  0  0
   15.4661   -7.4623  -18.2400 C   0  0  0  0  0  0  0  0  0  0  0  0
   14.7297   -7.2716  -17.0958 C   0  0  0  0  0  0  0  0  0  0  0  0
   13.9618   -6.1201  -16.9098 C   0  0  0  0  0  0  0  0  0  0  0  0
   13.9200   -5.1369  -17.8731 C   0  0  0  0  0  0  0  0  0  0  0  0
   14.6569   -5.3244  -19.0215 C   0  0  0  0  0  0  0  0  0  0  0  0
   15.4114   -6.4688  -19.1905 C   0  0  0  0  0  0  0  0  0  0  0  0
   18.0293   -7.8705  -16.8180 C   0  0  0  0  0  0  0  0  0  0  0  0
   17.9302   -8.5366  -15.7399 O   0  0  0  0  0  0  0  0  0  0  0  0
   18.4226   -6.5221  -16.6714 N   0  0  0  0  0  0  0  0  0  0  0  0
   18.7592   -5.9218  -15.3745 C   0  0  1  0  0  0  0  0  0  0  0  0
   20.1974   -5.5644  -15.3047 C   0  0  0  0  0  0  0  0  0  0  0  0
   20.5359   -4.8605  -14.0288 C   0  0  0  0  0  0  0  0  0  0  0  0
   21.9515   -4.4559  -13.9005 C   0  0  0  0  0  0  0  0  0  0  0  0
   22.5779   -3.6900  -14.6624 O   0  0  0  0  0  0  0  0  0  0  0  0
   17.8939   -4.7401  -15.2166 C   0  0  0  0  0  0  0  0  0  0  0  0
   17.4161   -4.0771  -16.1655 O   0  0  0  0  0  0  0  0  0  0  0  0
   22.6699   -4.9765  -12.8223 O   0  0  0  0  0  0  0  0  0  0  0  0
   17.5648   -4.3032  -13.9433 O   0  0  0  0  0  0  0  0  0  0  0  0
  1  5  1  0
  2  3  1  0
  2  1  1  0
  3  4  1  0
  5  4  1  0
  5  6  1  6
  6  7  2  0
  8  9  1  0
  8  6  1  0
  9 17  1  0
 10 11  1  0
  9 10  1  1
 11 12  2  0
 12 13  1  0
 14 13  2  0
 15 14  1  0
 16 15  2  0
 16 11  1  0
 17 18  2  0
 19 20  1  0
 19 17  1  0
 20 25  1  0
 20 21  1  6
 22 23  1  0
 22 21  1  0
 23 24  2  0
 25 26  2  0
 25 28  1  0
 27 23  1  0
M  END
$$$$
