LAI.pdb
     RDKit          3D

 22 21  0  0  1  0  0  0  0  0999 V2000
    9.3497  -13.4979   19.0234 C   0  0  0  0  0  0  0  0  0  0  0  0
    7.8843  -13.3360   19.2594 C   0  0  2  0  0  0  0  0  0  0  0  0
    7.5536  -11.8784   19.2933 C   0  0  0  0  0  0  0  0  0  0  0  0
    7.4266  -14.0887   20.4674 C   0  0  0  0  0  0  0  0  0  0  0  0
    7.7604  -15.5410   20.4603 C   0  0  2  0  0  0  0  0  0  0  0  0
    6.9047  -16.2875   19.5757 N   0  0  0  0  0  0  0  0  0  0  0  0
    7.6265  -16.0293   21.8795 C   0  0  0  0  0  0  0  0  0  0  0  0
    6.5304  -15.9079   22.4839 O   0  0  0  0  0  0  0  0  0  0  0  0
    9.1565  -18.4818   24.0130 C   0  0  0  0  0  0  0  0  0  0  0  0
    8.5685  -17.0851   23.9568 C   0  0  2  0  0  0  0  0  0  0  0  0
    8.6921  -16.6302   22.5829 N   0  0  0  0  0  0  0  0  0  0  0  0
    9.2698  -16.1739   24.8752 C   0  0  0  0  0  0  0  0  0  0  0  0
   10.3581  -15.6787   24.5421 O   0  0  0  0  0  0  0  0  0  0  0  0
    6.9211  -12.1357   26.8984 C   0  0  0  0  0  0  0  0  0  0  0  0
    7.9781  -13.0882   26.4272 C   0  0  0  0  0  0  0  0  0  0  0  0
    8.5330  -13.9043   27.5793 C   0  0  2  0  0  0  0  0  0  0  0  0
    9.3328  -13.0221   28.5155 C   0  0  0  0  0  0  0  0  0  0  0  0
    9.4702  -14.9721   27.0191 C   0  0  2  0  0  0  0  0  0  0  0  0
    8.7241  -15.8480   26.1412 N   0  0  0  0  0  0  0  0  0  0  0  0
   10.0758  -15.7556   28.1233 C   0  0  0  0  0  0  0  0  0  0  0  0
   11.0787  -15.3079   28.7329 O   0  0  0  0  0  0  0  0  0  0  0  0
    9.5224  -16.9881   28.4752 O   0  0  0  0  0  0  0  0  0  0  0  0
  2  1  1  1
  2  3  1  0
  4  5  1  0
  4  2  1  0
  5  6  1  6
  7  5  1  0
  8  7  2  0
 10  9  1  6
 10 12  1  0
 10 11  1  0
 11  7  1  0
 12 19  1  0
 13 12  2  0
 14 15  1  0
 16 17  1  1
 16 15  1  0
 18 16  1  0
 18 19  1  6
 20 22  1  0
 20 18  1  0
 21 20  2  0
M  END
$$$$
