LAI.pdb
     RDKit          3D

 22 21  0  0  1  0  0  0  0  0999 V2000
    7.6645  -12.3339   20.1307 C   0  0  0  0  0  0  0  0  0  0  0  0
    8.4644  -13.5583   19.8301 C   0  0  2  0  0  0  0  0  0  0  0  0
    9.5931  -13.1926   18.9206 C   0  0  0  0  0  0  0  0  0  0  0  0
    7.6093  -14.6718   19.3161 C   0  0  0  0  0  0  0  0  0  0  0  0
    8.1033  -16.0391   19.6435 C   0  0  2  0  0  0  0  0  0  0  0  0
    7.5114  -17.0436   18.7993 N   0  0  0  0  0  0  0  0  0  0  0  0
    7.7740  -16.2898   21.0923 C   0  0  0  0  0  0  0  0  0  0  0  0
    6.5758  -16.2789   21.4743 O   0  0  0  0  0  0  0  0  0  0  0  0
    9.0049  -18.2831   23.6789 C   0  0  0  0  0  0  0  0  0  0  0  0
    8.4421  -16.8957   23.4383 C   0  0  2  0  0  0  0  0  0  0  0  0
    8.7632  -16.5421   22.0666 N   0  0  0  0  0  0  0  0  0  0  0  0
    9.0134  -15.9181   24.3784 C   0  0  0  0  0  0  0  0  0  0  0  0
   10.0924  -15.3648   24.1137 O   0  0  0  0  0  0  0  0  0  0  0  0
    5.9414  -12.2628   26.5514 C   0  0  0  0  0  0  0  0  0  0  0  0
    7.1031  -13.0329   26.0000 C   0  0  0  0  0  0  0  0  0  0  0  0
    7.8461  -13.7661   27.1007 C   0  0  2  0  0  0  0  0  0  0  0  0
    8.4961  -12.7791   28.0482 C   0  0  0  0  0  0  0  0  0  0  0  0
    8.9491  -14.6132   26.4698 C   0  0  2  0  0  0  0  0  0  0  0  0
    8.3519  -15.5934   25.5883 N   0  0  0  0  0  0  0  0  0  0  0  0
    9.7415  -15.2933   27.5230 C   0  0  0  0  0  0  0  0  0  0  0  0
   10.7436  -14.7222   28.0207 O   0  0  0  0  0  0  0  0  0  0  0  0
    9.3639  -16.5669   27.9523 O   0  0  0  0  0  0  0  0  0  0  0  0
  2  1  1  6
  2  3  1  0
  4  5  1  0
  4  2  1  0
  5  6  1  6
  7  5  1  0
  8  7  2  0
 10  9  1  1
 10 12  1  0
 10 11  1  0
 11  7  1  0
 12 19  1  0
 13 12  2  0
 14 15  1  0
 16 17  1  1
 16 15  1  0
 18 16  1  0
 18 19  1  6
 20 22  1  0
 20 18  1  0
 21 20  2  0
M  END
$$$$
