LAI.pdb
     RDKit          3D

 22 21  0  0  1  0  0  0  0  0999 V2000
    9.2480  -13.3472   18.1563 C   0  0  0  0  0  0  0  0  0  0  0  0
    7.8330  -13.8237   18.1609 C   0  0  2  0  0  0  0  0  0  0  0  0
    6.9673  -12.7881   17.5181 C   0  0  0  0  0  0  0  0  0  0  0  0
    7.3830  -14.2244   19.5292 C   0  0  0  0  0  0  0  0  0  0  0  0
    8.2825  -15.1884   20.2236 C   0  0  2  0  0  0  0  0  0  0  0  0
    8.3303  -16.4614   19.5534 N   0  0  0  0  0  0  0  0  0  0  0  0
    7.7630  -15.3387   21.6301 C   0  0  0  0  0  0  0  0  0  0  0  0
    7.5066  -14.3166   22.3167 O   0  0  0  0  0  0  0  0  0  0  0  0
    7.0199  -18.2279   23.8908 C   0  0  0  0  0  0  0  0  0  0  0  0
    7.0631  -16.7413   23.5948 C   0  0  2  0  0  0  0  0  0  0  0  0
    7.5439  -16.5961   22.2319 N   0  0  0  0  0  0  0  0  0  0  0  0
    7.9438  -16.0350   24.5388 C   0  0  0  0  0  0  0  0  0  0  0  0
    9.1731  -16.1931   24.4726 O   0  0  0  0  0  0  0  0  0  0  0  0
    5.9654  -11.5699   27.3336 C   0  0  0  0  0  0  0  0  0  0  0  0
    6.4362  -12.9642   27.0491 C   0  0  0  0  0  0  0  0  0  0  0  0
    7.8228  -12.9592   26.4339 C   0  0  2  0  0  0  0  0  0  0  0  0
    7.7772  -12.3887   25.0315 C   0  0  0  0  0  0  0  0  0  0  0  0
    8.3259  -14.3983   26.3433 C   0  0  2  0  0  0  0  0  0  0  0  0
    7.4132  -15.1718   25.5289 N   0  0  0  0  0  0  0  0  0  0  0  0
    8.4275  -14.9941   27.6977 C   0  0  0  0  0  0  0  0  0  0  0  0
    9.2359  -14.5179   28.5331 O   0  0  0  0  0  0  0  0  0  0  0  0
    7.6200  -16.0829   28.0318 O   0  0  0  0  0  0  0  0  0  0  0  0
  2  1  1  1
  2  3  1  0
  4  5  1  0
  4  2  1  0
  5  6  1  6
  7  5  1  0
  8  7  2  0
 10  9  1  1
 10 12  1  0
 10 11  1  0
 11  7  1  0
 12 19  1  0
 13 12  2  0
 14 15  1  0
 16 17  1  6
 16 15  1  0
 18 16  1  0
 18 19  1  6
 20 22  1  0
 20 18  1  0
 21 20  2  0
M  END
$$$$
