LAI.pdb
     RDKit          3D

 22 21  0  0  1  0  0  0  0  0999 V2000
    9.2298  -12.9940   18.5768 C   0  0  0  0  0  0  0  0  0  0  0  0
    7.8533  -13.5574   18.7072 C   0  0  2  0  0  0  0  0  0  0  0  0
    6.8653  -12.5516   18.2100 C   0  0  0  0  0  0  0  0  0  0  0  0
    7.5774  -14.0424   20.0943 C   0  0  0  0  0  0  0  0  0  0  0  0
    8.6041  -14.9713   20.6454 C   0  0  2  0  0  0  0  0  0  0  0  0
    8.7079  -16.1814   19.8728 N   0  0  0  0  0  0  0  0  0  0  0  0
    8.2063  -15.2717   22.0674 C   0  0  0  0  0  0  0  0  0  0  0  0
    7.9158  -14.3309   22.8497 O   0  0  0  0  0  0  0  0  0  0  0  0
    7.6723  -18.3892   24.0678 C   0  0  0  0  0  0  0  0  0  0  0  0
    7.7017  -16.8791   23.9326 C   0  0  2  0  0  0  0  0  0  0  0  0
    8.1409  -16.5850   22.5797 N   0  0  0  0  0  0  0  0  0  0  0  0
    8.6082  -16.2728   24.9208 C   0  0  0  0  0  0  0  0  0  0  0  0
    9.8261  -16.2162   24.6882 O   0  0  0  0  0  0  0  0  0  0  0  0
    6.6920  -12.0705   27.3505 C   0  0  0  0  0  0  0  0  0  0  0  0
    7.6084  -13.0653   26.7045 C   0  0  0  0  0  0  0  0  0  0  0  0
    8.2911  -13.9357   27.7426 C   0  0  2  0  0  0  0  0  0  0  0  0
    9.3072  -13.1285   28.5240 C   0  0  0  0  0  0  0  0  0  0  0  0
    9.0315  -15.0643   27.0282 C   0  0  2  0  0  0  0  0  0  0  0  0
    8.1154  -15.7486   26.1411 N   0  0  0  0  0  0  0  0  0  0  0  0
    9.5906  -16.0190   28.0159 C   0  0  0  0  0  0  0  0  0  0  0  0
    8.8746  -16.9490   28.4637 O   0  0  0  0  0  0  0  0  0  0  0  0
   10.9128  -15.8735   28.4399 O   0  0  0  0  0  0  0  0  0  0  0  0
  2  1  1  1
  2  3  1  0
  4  5  1  0
  4  2  1  0
  5  6  1  6
  7  5  1  0
  8  7  2  0
 10  9  1  6
 10 12  1  0
 10 11  1  0
 11  7  1  0
 12 19  1  0
 13 12  2  0
 14 15  1  0
 16 17  1  6
 16 15  1  0
 18 16  1  0
 18 19  1  6
 20 22  1  0
 20 18  1  0
 21 20  2  0
M  END
$$$$
