LAI.pdb
     RDKit          3D

 22 21  0  0  1  0  0  0  0  0999 V2000
    9.7005  -13.6787   18.3993 C   0  0  0  0  0  0  0  0  0  0  0  0
    8.2225  -13.4702   18.4397 C   0  0  2  0  0  0  0  0  0  0  0  0
    7.9368  -12.0029   18.4509 C   0  0  0  0  0  0  0  0  0  0  0  0
    7.5833  -14.2200   19.5642 C   0  0  0  0  0  0  0  0  0  0  0  0
    7.9636  -15.6583   19.6500 C   0  0  2  0  0  0  0  0  0  0  0  0
    7.1089  -16.4918   18.8458 N   0  0  0  0  0  0  0  0  0  0  0  0
    7.8838  -16.0476   21.1035 C   0  0  0  0  0  0  0  0  0  0  0  0
    6.8083  -15.8920   21.7365 O   0  0  0  0  0  0  0  0  0  0  0  0
    9.9547  -18.0631   23.4116 C   0  0  0  0  0  0  0  0  0  0  0  0
    8.8909  -17.0035   23.1985 C   0  0  2  0  0  0  0  0  0  0  0  0
    8.9788  -16.5907   21.8087 N   0  0  0  0  0  0  0  0  0  0  0  0
    9.0924  -15.8570   24.0990 C   0  0  0  0  0  0  0  0  0  0  0  0
    9.9524  -15.0038   23.8292 O   0  0  0  0  0  0  0  0  0  0  0  0
    6.4687  -11.4937   26.9665 C   0  0  0  0  0  0  0  0  0  0  0  0
    7.5488  -12.5236   27.1047 C   0  0  0  0  0  0  0  0  0  0  0  0
    7.2912  -13.7124   26.1983 C   0  0  2  0  0  0  0  0  0  0  0  0
    6.1795  -14.5746   26.7599 C   0  0  0  0  0  0  0  0  0  0  0  0
    8.5588  -14.5613   26.1280 C   0  0  2  0  0  0  0  0  0  0  0  0
    8.3189  -15.7064   25.2762 N   0  0  0  0  0  0  0  0  0  0  0  0
    8.9525  -15.0114   27.4852 C   0  0  0  0  0  0  0  0  0  0  0  0
    9.4385  -14.1899   28.3019 O   0  0  0  0  0  0  0  0  0  0  0  0
    8.7780  -16.3496   27.8428 O   0  0  0  0  0  0  0  0  0  0  0  0
  2  1  1  1
  2  3  1  0
  4  5  1  0
  4  2  1  0
  5  6  1  6
  7  5  1  0
  8  7  2  0
 10  9  1  1
 10 12  1  0
 10 11  1  0
 11  7  1  0
 12 19  1  0
 13 12  2  0
 14 15  1  0
 16 17  1  1
 16 15  1  0
 18 16  1  0
 18 19  1  6
 20 22  1  0
 20 18  1  0
 21 20  2  0
M  END
$$$$
