LAI.pdb
     RDKit          3D

 22 21  0  0  1  0  0  0  0  0999 V2000
    9.4311  -14.3506   18.8983 C   0  0  0  0  0  0  0  0  0  0  0  0
    7.9903  -14.0108   18.7033 C   0  0  2  0  0  0  0  0  0  0  0  0
    7.8624  -12.5384   18.4786 C   0  0  0  0  0  0  0  0  0  0  0  0
    7.1385  -14.5294   19.8172 C   0  0  0  0  0  0  0  0  0  0  0  0
    7.3062  -15.9818   20.1058 C   0  0  2  0  0  0  0  0  0  0  0  0
    6.4688  -16.7992   19.2676 N   0  0  0  0  0  0  0  0  0  0  0  0
    6.9716  -16.1817   21.5613 C   0  0  0  0  0  0  0  0  0  0  0  0
    5.8383  -15.8522   21.9955 O   0  0  0  0  0  0  0  0  0  0  0  0
    7.9398  -18.2637   24.3132 C   0  0  0  0  0  0  0  0  0  0  0  0
    7.5957  -16.8447   23.9040 C   0  0  2  0  0  0  0  0  0  0  0  0
    7.8852  -16.7326   22.4851 N   0  0  0  0  0  0  0  0  0  0  0  0
    8.3744  -15.8633   24.6763 C   0  0  0  0  0  0  0  0  0  0  0  0
    9.5587  -15.6425   24.3780 O   0  0  0  0  0  0  0  0  0  0  0  0
    5.8125  -11.7491   27.4017 C   0  0  0  0  0  0  0  0  0  0  0  0
    6.5036  -13.0571   27.1605 C   0  0  0  0  0  0  0  0  0  0  0  0
    7.8519  -12.8499   26.4969 C   0  0  2  0  0  0  0  0  0  0  0  0
    7.6717  -12.3816   25.0677 C   0  0  0  0  0  0  0  0  0  0  0  0
    8.5959  -14.1833   26.4678 C   0  0  2  0  0  0  0  0  0  0  0  0
    7.7953  -15.1604   25.7614 N   0  0  0  0  0  0  0  0  0  0  0  0
    8.8669  -14.6516   27.8487 C   0  0  0  0  0  0  0  0  0  0  0  0
    9.6564  -14.0091   28.5849 O   0  0  0  0  0  0  0  0  0  0  0  0
    8.2390  -15.8067   28.3183 O   0  0  0  0  0  0  0  0  0  0  0  0
  2  1  1  1
  2  3  1  0
  4  5  1  0
  4  2  1  0
  5  6  1  6
  7  5  1  0
  8  7  2  0
 10  9  1  1
 10 12  1  0
 10 11  1  0
 11  7  1  0
 12 19  1  0
 13 12  2  0
 14 15  1  0
 16 17  1  6
 16 15  1  0
 18 16  1  0
 18 19  1  1
 20 22  1  0
 20 18  1  0
 21 20  2  0
M  END
$$$$
