LAI.pdb
     RDKit          3D

 22 21  0  0  1  0  0  0  0  0999 V2000
    9.2571  -14.2481   19.0835 C   0  0  0  0  0  0  0  0  0  0  0  0
    7.8140  -13.8977   18.9285 C   0  0  2  0  0  0  0  0  0  0  0  0
    7.6846  -12.4153   18.7843 C   0  0  0  0  0  0  0  0  0  0  0  0
    6.9782  -14.4744   20.0258 C   0  0  0  0  0  0  0  0  0  0  0  0
    7.1618  -15.9367   20.2463 C   0  0  2  0  0  0  0  0  0  0  0  0
    6.3504  -16.7234   19.3548 N   0  0  0  0  0  0  0  0  0  0  0  0
    6.8056  -16.2120   21.6843 C   0  0  0  0  0  0  0  0  0  0  0  0
    5.6977  -15.8299   22.1404 O   0  0  0  0  0  0  0  0  0  0  0  0
    7.5821  -18.5342   24.2954 C   0  0  0  0  0  0  0  0  0  0  0  0
    7.3746  -17.0658   23.9787 C   0  0  2  0  0  0  0  0  0  0  0  0
    7.6708  -16.8925   22.5674 N   0  0  0  0  0  0  0  0  0  0  0  0
    8.2451  -16.2140   24.8048 C   0  0  0  0  0  0  0  0  0  0  0  0
    9.4032  -15.9689   24.4316 O   0  0  0  0  0  0  0  0  0  0  0  0
    6.2197  -11.8725   26.8561 C   0  0  0  0  0  0  0  0  0  0  0  0
    7.1470  -12.9082   26.2956 C   0  0  0  0  0  0  0  0  0  0  0  0
    7.8528  -13.6680   27.4026 C   0  0  2  0  0  0  0  0  0  0  0  0
    8.8073  -12.7557   28.1450 C   0  0  0  0  0  0  0  0  0  0  0  0
    8.6676  -14.7999   26.7803 C   0  0  2  0  0  0  0  0  0  0  0  0
    7.7847  -15.6640   26.0265 N   0  0  0  0  0  0  0  0  0  0  0  0
    9.3589  -15.5775   27.8372 C   0  0  0  0  0  0  0  0  0  0  0  0
    8.8067  -16.5917   28.3319 O   0  0  0  0  0  0  0  0  0  0  0  0
   10.6218  -15.1727   28.2733 O   0  0  0  0  0  0  0  0  0  0  0  0
  2  1  1  1
  2  3  1  0
  4  5  1  0
  4  2  1  0
  5  6  1  6
  7  5  1  0
  8  7  2  0
 10  9  1  1
 10 12  1  0
 10 11  1  0
 11  7  1  0
 12 19  1  0
 13 12  2  0
 14 15  1  0
 16 17  1  6
 16 15  1  0
 18 16  1  0
 18 19  1  1
 20 22  1  0
 20 18  1  0
 21 20  2  0
M  END
$$$$
