LAI.pdb
     RDKit          3D

 22 21  0  0  1  0  0  0  0  0999 V2000
    7.1420  -12.8012   24.1225 C   0  0  0  0  0  0  0  0  0  0  0  0
    6.1411  -13.4261   25.0375 C   0  0  2  0  0  0  0  0  0  0  0  0
    5.8996  -12.5109   26.1946 C   0  0  0  0  0  0  0  0  0  0  0  0
    6.5362  -14.8124   25.4343 C   0  0  0  0  0  0  0  0  0  0  0  0
    6.5893  -15.7908   24.3116 C   0  0  2  0  0  0  0  0  0  0  0  0
    5.5731  -16.8035   24.4292 N   0  0  0  0  0  0  0  0  0  0  0  0
    7.9657  -16.4037   24.3279 C   0  0  0  0  0  0  0  0  0  0  0  0
    8.2058  -17.3871   25.0741 O   0  0  0  0  0  0  0  0  0  0  0  0
   11.0982  -15.8975   22.3511 C   0  0  0  0  0  0  0  0  0  0  0  0
   10.3163  -16.5816   23.4557 C   0  0  2  0  0  0  0  0  0  0  0  0
    9.0252  -15.9204   23.5307 N   0  0  0  0  0  0  0  0  0  0  0  0
   11.0245  -16.4949   24.7428 C   0  0  0  0  0  0  0  0  0  0  0  0
   12.2294  -16.7864   24.8054 O   0  0  0  0  0  0  0  0  0  0  0  0
    9.5517  -12.7598   28.3569 C   0  0  0  0  0  0  0  0  0  0  0  0
   10.3883  -13.6971   27.5395 C   0  0  0  0  0  0  0  0  0  0  0  0
   10.3876  -15.0925   28.1345 C   0  0  2  0  0  0  0  0  0  0  0  0
   11.1491  -15.1096   29.4438 C   0  0  0  0  0  0  0  0  0  0  0  0
   11.0907  -16.0408   27.1657 C   0  0  2  0  0  0  0  0  0  0  0  0
   10.3541  -16.0824   25.9206 N   0  0  0  0  0  0  0  0  0  0  0  0
   11.1782  -17.4012   27.7498 C   0  0  0  0  0  0  0  0  0  0  0  0
   10.2488  -18.2252   27.5617 O   0  0  0  0  0  0  0  0  0  0  0  0
   12.2976  -17.7537   28.5060 O   0  0  0  0  0  0  0  0  0  0  0  0
  2  1  1  6
  2  3  1  0
  4  5  1  0
  4  2  1  0
  5  6  1  1
  7  5  1  0
  8  7  2  0
 10  9  1  6
 10 12  1  0
 10 11  1  0
 11  7  1  0
 12 19  1  0
 13 12  2  0
 14 15  1  0
 16 17  1  1
 16 15  1  0
 18 16  1  0
 18 19  1  6
 20 22  1  0
 20 18  1  0
 21 20  2  0
M  END
$$$$
