LAI.pdb
     RDKit          3D

 22 21  0  0  1  0  0  0  0  0999 V2000
    9.6966  -13.2829   19.4206 C   0  0  0  0  0  0  0  0  0  0  0  0
    8.2163  -13.3196   19.2291 C   0  0  2  0  0  0  0  0  0  0  0  0
    7.6838  -11.9234   19.2733 C   0  0  0  0  0  0  0  0  0  0  0  0
    7.5517  -14.2517   20.1907 C   0  0  0  0  0  0  0  0  0  0  0  0
    8.1276  -15.6257   20.2259 C   0  0  2  0  0  0  0  0  0  0  0  0
    7.5100  -16.4950   19.2590 N   0  0  0  0  0  0  0  0  0  0  0  0
    7.9302  -16.1488   21.6252 C   0  0  0  0  0  0  0  0  0  0  0  0
    6.7704  -16.2409   22.1027 O   0  0  0  0  0  0  0  0  0  0  0  0
    9.4984  -18.3620   23.9184 C   0  0  0  0  0  0  0  0  0  0  0  0
    8.8184  -17.0107   23.8127 C   0  0  2  0  0  0  0  0  0  0  0  0
    9.0043  -16.5503   22.4477 N   0  0  0  0  0  0  0  0  0  0  0  0
    9.3884  -16.0506   24.7714 C   0  0  0  0  0  0  0  0  0  0  0  0
   10.5223  -15.5843   24.5779 O   0  0  0  0  0  0  0  0  0  0  0  0
    6.2654  -12.2650   26.4468 C   0  0  0  0  0  0  0  0  0  0  0  0
    7.4405  -13.1043   26.0454 C   0  0  0  0  0  0  0  0  0  0  0  0
    8.1321  -13.6947   27.2596 C   0  0  2  0  0  0  0  0  0  0  0  0
    8.7725  -12.6001   28.0880 C   0  0  0  0  0  0  0  0  0  0  0  0
    9.2363  -14.6378   26.7867 C   0  0  2  0  0  0  0  0  0  0  0  0
    8.6638  -15.6447   25.9190 N   0  0  0  0  0  0  0  0  0  0  0  0
    9.8944  -15.2831   27.9486 C   0  0  0  0  0  0  0  0  0  0  0  0
    9.4314  -16.3529   28.4169 O   0  0  0  0  0  0  0  0  0  0  0  0
   11.0268  -14.6925   28.5125 O   0  0  0  0  0  0  0  0  0  0  0  0
  2  1  1  1
  2  3  1  0
  4  5  1  0
  4  2  1  0
  5  6  1  6
  7  5  1  0
  8  7  2  0
 10  9  1  6
 10 12  1  0
 10 11  1  0
 11  7  1  0
 12 19  1  0
 13 12  2  0
 14 15  1  0
 16 17  1  6
 16 15  1  0
 18 16  1  0
 18 19  1  6
 20 22  1  0
 20 18  1  0
 21 20  2  0
M  END
$$$$
