LAI.pdb
     RDKit          3D

 22 21  0  0  1  0  0  0  0  0999 V2000
    9.5647  -13.2266   19.4583 C   0  0  0  0  0  0  0  0  0  0  0  0
    8.0879  -13.2835   19.2461 C   0  0  2  0  0  0  0  0  0  0  0  0
    7.5327  -11.8967   19.3040 C   0  0  0  0  0  0  0  0  0  0  0  0
    7.4253  -14.2404   20.1845 C   0  0  0  0  0  0  0  0  0  0  0  0
    8.0318  -15.6012   20.2182 C   0  0  2  0  0  0  0  0  0  0  0  0
    7.4178  -16.4899   19.2668 N   0  0  0  0  0  0  0  0  0  0  0  0
    7.8690  -16.1198   21.6236 C   0  0  0  0  0  0  0  0  0  0  0  0
    6.7177  -16.2891   22.1004 O   0  0  0  0  0  0  0  0  0  0  0  0
    9.4970  -18.2833   23.8617 C   0  0  0  0  0  0  0  0  0  0  0  0
    8.8105  -16.9322   23.8078 C   0  0  2  0  0  0  0  0  0  0  0  0
    8.9671  -16.4329   22.4529 N   0  0  0  0  0  0  0  0  0  0  0  0
    9.3965  -15.9971   24.7814 C   0  0  0  0  0  0  0  0  0  0  0  0
   10.4717  -15.4325   24.5251 O   0  0  0  0  0  0  0  0  0  0  0  0
    6.3666  -12.3667   26.7164 C   0  0  0  0  0  0  0  0  0  0  0  0
    7.5366  -13.1861   26.2620 C   0  0  0  0  0  0  0  0  0  0  0  0
    8.2440  -13.8307   27.4389 C   0  0  2  0  0  0  0  0  0  0  0  0
    8.8966  -12.7746   28.3068 C   0  0  0  0  0  0  0  0  0  0  0  0
    9.3408  -14.7519   26.9091 C   0  0  2  0  0  0  0  0  0  0  0  0
    8.7537  -15.7263   26.0144 N   0  0  0  0  0  0  0  0  0  0  0  0
   10.0221  -15.4398   28.0327 C   0  0  0  0  0  0  0  0  0  0  0  0
   10.8656  -14.8207   28.7278 O   0  0  0  0  0  0  0  0  0  0  0  0
    9.7176  -16.7743   28.3074 O   0  0  0  0  0  0  0  0  0  0  0  0
  2  1  1  1
  2  3  1  0
  4  5  1  0
  4  2  1  0
  5  6  1  6
  7  5  1  0
  8  7  2  0
 10  9  1  6
 10 12  1  0
 10 11  1  0
 11  7  1  0
 12 19  1  0
 13 12  2  0
 14 15  1  0
 16 17  1  1
 16 15  1  0
 18 16  1  0
 18 19  1  6
 20 22  1  0
 20 18  1  0
 21 20  2  0
M  END
$$$$
