LAI.pdb
     RDKit          3D

 22 21  0  0  1  0  0  0  0  0999 V2000
    9.3666  -12.7281   19.0784 C   0  0  0  0  0  0  0  0  0  0  0  0
    8.0889  -13.4865   18.9313 C   0  0  2  0  0  0  0  0  0  0  0  0
    7.0174  -12.5524   18.4684 C   0  0  0  0  0  0  0  0  0  0  0  0
    7.7398  -14.2393   20.1751 C   0  0  0  0  0  0  0  0  0  0  0  0
    8.8638  -15.0170   20.7690 C   0  0  2  0  0  0  0  0  0  0  0  0
    9.1764  -16.1904   19.9961 N   0  0  0  0  0  0  0  0  0  0  0  0
    8.4491  -15.3883   22.1692 C   0  0  0  0  0  0  0  0  0  0  0  0
    7.9438  -14.5193   22.9251 O   0  0  0  0  0  0  0  0  0  0  0  0
    8.3169  -18.5524   24.1538 C   0  0  0  0  0  0  0  0  0  0  0  0
    8.2303  -17.0420   24.0493 C   0  0  2  0  0  0  0  0  0  0  0  0
    8.6016  -16.6911   22.6896 N   0  0  0  0  0  0  0  0  0  0  0  0
    9.1217  -16.3883   25.0207 C   0  0  0  0  0  0  0  0  0  0  0  0
   10.2961  -16.1356   24.7083 O   0  0  0  0  0  0  0  0  0  0  0  0
    7.1631  -12.3733   27.5815 C   0  0  0  0  0  0  0  0  0  0  0  0
    8.0697  -13.3639   26.9156 C   0  0  0  0  0  0  0  0  0  0  0  0
    8.7691  -14.2397   27.9379 C   0  0  2  0  0  0  0  0  0  0  0  0
    9.7486  -13.4215   28.7536 C   0  0  0  0  0  0  0  0  0  0  0  0
    9.5548  -15.3231   27.2021 C   0  0  2  0  0  0  0  0  0  0  0  0
    8.6633  -16.0389   26.3148 N   0  0  0  0  0  0  0  0  0  0  0  0
   10.1680  -16.2625   28.1723 C   0  0  0  0  0  0  0  0  0  0  0  0
    9.5148  -17.2533   28.5842 O   0  0  0  0  0  0  0  0  0  0  0  0
   11.4707  -16.0349   28.6198 O   0  0  0  0  0  0  0  0  0  0  0  0
  2  1  1  1
  2  3  1  0
  4  5  1  0
  4  2  1  0
  5  6  1  6
  7  5  1  0
  8  7  2  0
 10  9  1  6
 10 12  1  0
 10 11  1  0
 11  7  1  0
 12 19  1  0
 13 12  2  0
 14 15  1  0
 16 17  1  6
 16 15  1  0
 18 16  1  0
 18 19  1  6
 20 22  1  0
 20 18  1  0
 21 20  2  0
M  END
$$$$
