LAI.pdb
     RDKit          3D

 22 21  0  0  1  0  0  0  0  0999 V2000
    9.9026  -13.4969   18.7592 C   0  0  0  0  0  0  0  0  0  0  0  0
    8.4405  -13.4133   18.4682 C   0  0  2  0  0  0  0  0  0  0  0  0
    8.0091  -11.9839   18.5428 C   0  0  0  0  0  0  0  0  0  0  0  0
    7.6444  -14.3321   19.3385 C   0  0  0  0  0  0  0  0  0  0  0  0
    8.2340  -15.6891   19.5159 C   0  0  2  0  0  0  0  0  0  0  0  0
    7.6536  -16.6519   18.6169 N   0  0  0  0  0  0  0  0  0  0  0  0
    8.0029  -16.0840   20.9515 C   0  0  0  0  0  0  0  0  0  0  0  0
    6.8376  -16.0771   21.4243 O   0  0  0  0  0  0  0  0  0  0  0  0
    9.7798  -18.0699   23.4266 C   0  0  0  0  0  0  0  0  0  0  0  0
    8.8207  -16.9224   23.1754 C   0  0  2  0  0  0  0  0  0  0  0  0
    9.0506  -16.4706   21.8143 N   0  0  0  0  0  0  0  0  0  0  0  0
    9.0369  -15.8271   24.1343 C   0  0  0  0  0  0  0  0  0  0  0  0
   10.0377  -15.1010   24.0267 O   0  0  0  0  0  0  0  0  0  0  0  0
    6.4839  -11.3397   27.0033 C   0  0  0  0  0  0  0  0  0  0  0  0
    7.5181  -12.4198   27.1066 C   0  0  0  0  0  0  0  0  0  0  0  0
    7.1838  -13.5868   26.1970 C   0  0  2  0  0  0  0  0  0  0  0  0
    6.0220  -14.3797   26.7591 C   0  0  0  0  0  0  0  0  0  0  0  0
    8.3956  -14.5131   26.1199 C   0  0  2  0  0  0  0  0  0  0  0  0
    8.1190  -15.5829   25.1853 N   0  0  0  0  0  0  0  0  0  0  0  0
    8.7002  -15.0743   27.4585 C   0  0  0  0  0  0  0  0  0  0  0  0
    8.3068  -16.2290   27.7586 O   0  0  0  0  0  0  0  0  0  0  0  0
    9.4243  -14.3101   28.3755 O   0  0  0  0  0  0  0  0  0  0  0  0
  2  1  1  1
  2  3  1  0
  4  5  1  0
  4  2  1  0
  5  6  1  6
  7  5  1  0
  8  7  2  0
 10  9  1  1
 10 12  1  0
 10 11  1  0
 11  7  1  0
 12 19  1  0
 13 12  2  0
 14 15  1  0
 16 17  1  1
 16 15  1  0
 18 16  1  0
 18 19  1  6
 20 22  1  0
 20 18  1  0
 21 20  2  0
M  END
$$$$
