ELG.pdb
     RDKit          3D

 22 21  0  0  1  0  0  0  0  0999 V2000
   25.5455  -24.7289  -16.1673 N   0  0  0  0  0  0  0  0  0  0  0  0
   24.9606  -23.4341  -16.0243 C   0  0  1  0  0  0  0  0  0  0  0  0
   23.6284  -23.3319  -16.6340 C   0  0  0  0  0  0  0  0  0  0  0  0
   23.6155  -23.4669  -18.1199 C   0  0  0  0  0  0  0  0  0  0  0  0
   22.3296  -23.3781  -18.8001 C   0  0  0  0  0  0  0  0  0  0  0  0
   21.7771  -22.3079  -19.0695 O   0  0  0  0  0  0  0  0  0  0  0  0
   25.0114  -22.9455  -14.6120 C   0  0  0  0  0  0  0  0  0  0  0  0
   24.7039  -23.6935  -13.6452 O   0  0  0  0  0  0  0  0  0  0  0  0
   21.6672  -24.5484  -19.1774 O   0  0  0  0  0  0  0  0  0  0  0  0
   28.4620  -21.5310  -12.0763 C   0  0  0  0  0  0  0  0  0  0  0  0
   27.9800  -20.4741  -13.0850 C   0  0  2  0  0  0  0  0  0  0  0  0
   28.9696  -19.3452  -12.9961 C   0  0  0  0  0  0  0  0  0  0  0  0
   26.5841  -20.0912  -12.7637 C   0  0  0  0  0  0  0  0  0  0  0  0
   25.5239  -21.0972  -12.9490 C   0  0  2  0  0  0  0  0  0  0  0  0
   25.4058  -21.6217  -14.2818 N   0  0  0  0  0  0  0  0  0  0  0  0
   24.2416  -20.7024  -12.3375 C   0  0  0  0  0  0  0  0  0  0  0  0
   24.2931  -20.1492  -11.2063 O   0  0  0  0  0  0  0  0  0  0  0  0
   22.9865  -20.9035  -12.9157 N   0  0  0  0  0  0  0  0  0  0  0  0
   21.7846  -20.4316  -12.3283 C   0  0  0  0  0  0  0  0  0  0  0  0
   20.5399  -20.6030  -13.0938 C   0  0  0  0  0  0  0  0  0  0  0  0
   19.4045  -20.2518  -12.7643 O   0  0  0  0  0  0  0  0  0  0  0  0
   20.6847  -21.2412  -14.3378 O   0  0  0  0  0  0  0  0  0  0  0  0
  2  7  1  0
  2  1  1  1
  3  2  1  0
  4  3  1  0
  5  4  1  0
  5  6  2  0
  7  8  2  0
  9  5  1  0
 11 10  1  1
 11 13  1  0
 12 11  1  0
 14 13  1  6
 15 14  1  0
 15  7  1  0
 16 17  2  0
 16 14  1  0
 18 16  1  0
 19 18  1  0
 19 20  1  0
 20 22  1  0
 21 20  2  0
M  END
$$$$
