ELG.pdb
     RDKit          3D

 22 21  0  0  1  0  0  0  0  0999 V2000
   25.9918  -19.5364  -17.9028 N   0  0  0  0  0  0  0  0  0  0  0  0
   25.1577  -18.9151  -16.9245 C   0  0  1  0  0  0  0  0  0  0  0  0
   24.0731  -18.1184  -17.5125 C   0  0  0  0  0  0  0  0  0  0  0  0
   24.5246  -16.8851  -18.2207 C   0  0  0  0  0  0  0  0  0  0  0  0
   24.0190  -16.6501  -19.5673 C   0  0  0  0  0  0  0  0  0  0  0  0
   23.2831  -17.4415  -20.1634 O   0  0  0  0  0  0  0  0  0  0  0  0
   24.6928  -19.8828  -15.8836 C   0  0  0  0  0  0  0  0  0  0  0  0
   24.2125  -21.0054  -16.1961 O   0  0  0  0  0  0  0  0  0  0  0  0
   24.3696  -15.4774  -20.2402 O   0  0  0  0  0  0  0  0  0  0  0  0
   23.4406  -20.7991  -10.4724 C   0  0  0  0  0  0  0  0  0  0  0  0
   24.7373  -21.3383  -11.1009 C   0  0  2  0  0  0  0  0  0  0  0  0
   25.7362  -21.4055   -9.9788 C   0  0  0  0  0  0  0  0  0  0  0  0
   25.1384  -20.4599  -12.2259 C   0  0  0  0  0  0  0  0  0  0  0  0
   24.3059  -20.4578  -13.4414 C   0  0  2  0  0  0  0  0  0  0  0  0
   24.7652  -19.5947  -14.4947 N   0  0  0  0  0  0  0  0  0  0  0  0
   22.8643  -20.3468  -13.1524 C   0  0  0  0  0  0  0  0  0  0  0  0
   22.4314  -19.2083  -12.8291 O   0  0  0  0  0  0  0  0  0  0  0  0
   21.9562  -21.4064  -13.2044 N   0  0  0  0  0  0  0  0  0  0  0  0
   20.5520  -21.2202  -13.1281 C   0  0  0  0  0  0  0  0  0  0  0  0
   19.9458  -21.1552  -11.7890 C   0  0  0  0  0  0  0  0  0  0  0  0
   20.5219  -21.2410  -10.7019 O   0  0  0  0  0  0  0  0  0  0  0  0
   18.5520  -20.9742  -11.7706 O   0  0  0  0  0  0  0  0  0  0  0  0
  2  7  1  0
  2  1  1  6
  3  2  1  0
  4  3  1  0
  5  4  1  0
  5  6  2  0
  7  8  2  0
  9  5  1  0
 11 10  1  1
 11 13  1  0
 12 11  1  0
 14 13  1  1
 15 14  1  0
 15  7  1  0
 16 17  2  0
 16 14  1  0
 18 16  1  0
 19 18  1  0
 19 20  1  0
 20 22  1  0
 21 20  2  0
M  END
$$$$
