ELG.pdb
     RDKit          3D

 22 21  0  0  1  0  0  0  0  0999 V2000
   22.1631  -22.1913   -8.0657 N   0  0  0  0  0  0  0  0  0  0  0  0
   22.0423  -21.4159   -9.2586 C   0  0  1  0  0  0  0  0  0  0  0  0
   20.8703  -20.5311   -9.2560 C   0  0  0  0  0  0  0  0  0  0  0  0
   19.5612  -21.2377   -9.1393 C   0  0  0  0  0  0  0  0  0  0  0  0
   19.0347  -21.8956  -10.3284 C   0  0  0  0  0  0  0  0  0  0  0  0
   18.5260  -21.2848  -11.2725 O   0  0  0  0  0  0  0  0  0  0  0  0
   23.3178  -20.7185   -9.6091 C   0  0  0  0  0  0  0  0  0  0  0  0
   23.3385  -19.7506  -10.4162 O   0  0  0  0  0  0  0  0  0  0  0  0
   19.0963  -23.2872  -10.4305 O   0  0  0  0  0  0  0  0  0  0  0  0
   26.3839  -18.5115   -7.0385 C   0  0  0  0  0  0  0  0  0  0  0  0
   26.4965  -20.0438   -6.9580 C   0  0  2  0  0  0  0  0  0  0  0  0
   27.5202  -20.3213   -5.8919 C   0  0  0  0  0  0  0  0  0  0  0  0
   26.8448  -20.5802   -8.2956 C   0  0  0  0  0  0  0  0  0  0  0  0
   25.8351  -20.4984   -9.3653 C   0  0  2  0  0  0  0  0  0  0  0  0
   24.5685  -21.1035   -9.0571 N   0  0  0  0  0  0  0  0  0  0  0  0
   26.3706  -20.8558  -10.6918 C   0  0  0  0  0  0  0  0  0  0  0  0
   27.4398  -20.2921  -11.0483 O   0  0  0  0  0  0  0  0  0  0  0  0
   25.7771  -21.7608  -11.5744 N   0  0  0  0  0  0  0  0  0  0  0  0
   26.2803  -22.0064  -12.8777 C   0  0  0  0  0  0  0  0  0  0  0  0
   25.5526  -21.4141  -14.0111 C   0  0  0  0  0  0  0  0  0  0  0  0
   24.5812  -20.6559  -13.9624 O   0  0  0  0  0  0  0  0  0  0  0  0
   26.0366  -21.7656  -15.2831 O   0  0  0  0  0  0  0  0  0  0  0  0
  2  7  1  0
  2  1  1  1
  3  2  1  0
  4  3  1  0
  5  4  1  0
  5  6  2  0
  7  8  2  0
  9  5  1  0
 11 10  1  6
 11 13  1  0
 12 11  1  0
 14 13  1  1
 15 14  1  0
 15  7  1  0
 16 17  2  0
 16 14  1  0
 18 16  1  0
 19 18  1  0
 19 20  1  0
 20 22  1  0
 21 20  2  0
M  END
$$$$
