ELG.pdb
     RDKit          3D

 22 21  0  0  1  0  0  0  0  0999 V2000
   23.8658  -22.0737  -12.6617 N   0  0  0  0  0  0  0  0  0  0  0  0
   23.6910  -20.6723  -12.4506 C   0  0  1  0  0  0  0  0  0  0  0  0
   23.6880  -20.2983  -11.0305 C   0  0  0  0  0  0  0  0  0  0  0  0
   22.6906  -21.0331  -10.1988 C   0  0  0  0  0  0  0  0  0  0  0  0
   21.3072  -21.0559  -10.6570 C   0  0  0  0  0  0  0  0  0  0  0  0
   20.8253  -21.9830  -11.3138 O   0  0  0  0  0  0  0  0  0  0  0  0
   24.6279  -19.8559  -13.2824 C   0  0  0  0  0  0  0  0  0  0  0  0
   24.7296  -18.6091  -13.1276 O   0  0  0  0  0  0  0  0  0  0  0  0
   20.4622  -19.9867  -10.3511 O   0  0  0  0  0  0  0  0  0  0  0  0
   28.8960  -20.0148  -13.3666 C   0  0  0  0  0  0  0  0  0  0  0  0
   28.3267  -21.0730  -14.3276 C   0  0  2  0  0  0  0  0  0  0  0  0
   29.5020  -21.9072  -14.7570 C   0  0  0  0  0  0  0  0  0  0  0  0
   27.6188  -20.3944  -15.4395 C   0  0  0  0  0  0  0  0  0  0  0  0
   26.3479  -19.7103  -15.1439 C   0  0  2  0  0  0  0  0  0  0  0  0
   25.4501  -20.4338  -14.2860 N   0  0  0  0  0  0  0  0  0  0  0  0
   25.7097  -19.1365  -16.3429 C   0  0  0  0  0  0  0  0  0  0  0  0
   26.4538  -18.5062  -17.1411 O   0  0  0  0  0  0  0  0  0  0  0  0
   24.3507  -19.2358  -16.6482 N   0  0  0  0  0  0  0  0  0  0  0  0
   23.7599  -18.5695  -17.7524 C   0  0  0  0  0  0  0  0  0  0  0  0
   22.2919  -18.4764  -17.7853 C   0  0  0  0  0  0  0  0  0  0  0  0
   21.4992  -18.8454  -16.9156 O   0  0  0  0  0  0  0  0  0  0  0  0
   21.7543  -17.8983  -18.9482 O   0  0  0  0  0  0  0  0  0  0  0  0
  2  7  1  0
  2  1  1  1
  3  2  1  0
  4  3  1  0
  5  4  1  0
  5  6  2  0
  7  8  2  0
  9  5  1  0
 11 10  1  1
 11 13  1  0
 12 11  1  0
 14 13  1  6
 15 14  1  0
 15  7  1  0
 16 17  2  0
 16 14  1  0
 18 16  1  0
 19 18  1  0
 19 20  1  0
 20 22  1  0
 21 20  2  0
M  END
$$$$
