ELG.pdb
     RDKit          3D

 22 21  0  0  1  0  0  0  0  0999 V2000
   27.8921  -21.0656  -16.3534 N   0  0  0  0  0  0  0  0  0  0  0  0
   27.4850  -20.0640  -15.4207 C   0  0  1  0  0  0  0  0  0  0  0  0
   26.8444  -18.9069  -16.0591 C   0  0  0  0  0  0  0  0  0  0  0  0
   27.0683  -18.8092  -17.5311 C   0  0  0  0  0  0  0  0  0  0  0  0
   26.4597  -17.6901  -18.2392 C   0  0  0  0  0  0  0  0  0  0  0  0
   26.8843  -16.5333  -18.1720 O   0  0  0  0  0  0  0  0  0  0  0  0
   26.6939  -20.6365  -14.2882 C   0  0  0  0  0  0  0  0  0  0  0  0
   25.8502  -21.5545  -14.4724 O   0  0  0  0  0  0  0  0  0  0  0  0
   25.3378  -17.9103  -19.0415 O   0  0  0  0  0  0  0  0  0  0  0  0
   28.4985  -22.3513  -10.6291 C   0  0  0  0  0  0  0  0  0  0  0  0
   28.2758  -20.8373  -10.4700 C   0  0  2  0  0  0  0  0  0  0  0  0
   28.9375  -20.4625   -9.1727 C   0  0  0  0  0  0  0  0  0  0  0  0
   26.8226  -20.5480  -10.5220 C   0  0  0  0  0  0  0  0  0  0  0  0
   26.1284  -20.6882  -11.8139 C   0  0  2  0  0  0  0  0  0  0  0  0
   26.8468  -20.1824  -12.9512 N   0  0  0  0  0  0  0  0  0  0  0  0
   24.7148  -20.2730  -11.7566 C   0  0  0  0  0  0  0  0  0  0  0  0
   24.4748  -19.0413  -11.8732 O   0  0  0  0  0  0  0  0  0  0  0  0
   23.6352  -21.1402  -11.5767 N   0  0  0  0  0  0  0  0  0  0  0  0
   22.2869  -20.6993  -11.5732 C   0  0  0  0  0  0  0  0  0  0  0  0
   21.5564  -20.7332  -12.8500 C   0  0  0  0  0  0  0  0  0  0  0  0
   22.0172  -20.9682  -13.9696 O   0  0  0  0  0  0  0  0  0  0  0  0
   20.1796  -20.4649  -12.7597 O   0  0  0  0  0  0  0  0  0  0  0  0
  2  7  1  0
  2  1  1  6
  3  2  1  0
  4  3  1  0
  5  4  1  0
  5  6  2  0
  7  8  2  0
  9  5  1  0
 11 10  1  1
 11 13  1  0
 12 11  1  0
 14 13  1  1
 15 14  1  0
 15  7  1  0
 16 17  2  0
 16 14  1  0
 18 16  1  0
 19 18  1  0
 19 20  1  0
 20 22  1  0
 21 20  2  0
M  END
$$$$
