ELG.pdb
     RDKit          3D

 22 21  0  0  1  0  0  0  0  0999 V2000
   27.4094  -22.0180  -15.9393 N   0  0  0  0  0  0  0  0  0  0  0  0
   26.4770  -21.0342  -15.4901 C   0  0  1  0  0  0  0  0  0  0  0  0
   25.8260  -20.3109  -16.5900 C   0  0  0  0  0  0  0  0  0  0  0  0
   26.7593  -19.5384  -17.4611 C   0  0  0  0  0  0  0  0  0  0  0  0
   27.4439  -18.3921  -16.8767 C   0  0  0  0  0  0  0  0  0  0  0  0
   26.8531  -17.4454  -16.3498 O   0  0  0  0  0  0  0  0  0  0  0  0
   25.5165  -21.5853  -14.4851 C   0  0  0  0  0  0  0  0  0  0  0  0
   24.9943  -22.7234  -14.6288 O   0  0  0  0  0  0  0  0  0  0  0  0
   28.8393  -18.3370  -16.9008 O   0  0  0  0  0  0  0  0  0  0  0  0
   26.8374  -21.8914  -10.3905 C   0  0  0  0  0  0  0  0  0  0  0  0
   25.8791  -20.7129  -10.6359 C   0  0  2  0  0  0  0  0  0  0  0  0
   25.9281  -19.8809   -9.3842 C   0  0  0  0  0  0  0  0  0  0  0  0
   24.5333  -21.2375  -10.9700 C   0  0  0  0  0  0  0  0  0  0  0  0
   24.1260  -21.2645  -12.3856 C   0  0  2  0  0  0  0  0  0  0  0  0
   25.1410  -20.8638  -13.3208 N   0  0  0  0  0  0  0  0  0  0  0  0
   22.8088  -20.6439  -12.6182 C   0  0  0  0  0  0  0  0  0  0  0  0
   22.5659  -19.5698  -12.0055 O   0  0  0  0  0  0  0  0  0  0  0  0
   21.8194  -21.1625  -13.4562 N   0  0  0  0  0  0  0  0  0  0  0  0
   20.5050  -20.6321  -13.5139 C   0  0  0  0  0  0  0  0  0  0  0  0
   19.3899  -21.5415  -13.2062 C   0  0  0  0  0  0  0  0  0  0  0  0
   19.4581  -22.7399  -12.9231 O   0  0  0  0  0  0  0  0  0  0  0  0
   18.1122  -20.9571  -13.2451 O   0  0  0  0  0  0  0  0  0  0  0  0
  2  7  1  0
  2  1  1  6
  3  2  1  0
  4  3  1  0
  5  4  1  0
  5  6  2  0
  7  8  2  0
  9  5  1  0
 11 10  1  1
 11 13  1  0
 12 11  1  0
 14 13  1  1
 15 14  1  0
 15  7  1  0
 16 17  2  0
 16 14  1  0
 18 16  1  0
 19 18  1  0
 19 20  1  0
 20 22  1  0
 21 20  2  0
M  END
$$$$
