ELG.pdb
     RDKit          3D

 22 21  0  0  1  0  0  0  0  0999 V2000
   25.5061  -26.5794  -18.1173 N   0  0  0  0  0  0  0  0  0  0  0  0
   25.4283  -25.7029  -16.9928 C   0  0  1  0  0  0  0  0  0  0  0  0
   25.1164  -26.3995  -15.7382 C   0  0  0  0  0  0  0  0  0  0  0  0
   23.8494  -27.1872  -15.7658 C   0  0  0  0  0  0  0  0  0  0  0  0
   22.5969  -26.4565  -15.9123 C   0  0  0  0  0  0  0  0  0  0  0  0
   22.5279  -25.2243  -15.9249 O   0  0  0  0  0  0  0  0  0  0  0  0
   26.6179  -24.8018  -16.8971 C   0  0  0  0  0  0  0  0  0  0  0  0
   26.7355  -23.9639  -15.9629 O   0  0  0  0  0  0  0  0  0  0  0  0
   21.3991  -27.1620  -16.0471 O   0  0  0  0  0  0  0  0  0  0  0  0
   30.6633  -25.9494  -16.1900 C   0  0  0  0  0  0  0  0  0  0  0  0
   30.3850  -26.0499  -17.6998 C   0  0  2  0  0  0  0  0  0  0  0  0
   31.5998  -26.7069  -18.2949 C   0  0  0  0  0  0  0  0  0  0  0  0
   30.0959  -24.6980  -18.2355 C   0  0  0  0  0  0  0  0  0  0  0  0
   28.8587  -24.0252  -17.8027 C   0  0  2  0  0  0  0  0  0  0  0  0
   27.6745  -24.8383  -17.8455 N   0  0  0  0  0  0  0  0  0  0  0  0
   28.6948  -22.6843  -18.3937 C   0  0  0  0  0  0  0  0  0  0  0  0
   29.6525  -21.8770  -18.2556 O   0  0  0  0  0  0  0  0  0  0  0  0
   27.5605  -22.2492  -19.0823 N   0  0  0  0  0  0  0  0  0  0  0  0
   27.3735  -20.9009  -19.4816 C   0  0  0  0  0  0  0  0  0  0  0  0
   26.2653  -20.1557  -18.8640 C   0  0  0  0  0  0  0  0  0  0  0  0
   25.5159  -20.5395  -17.9628 O   0  0  0  0  0  0  0  0  0  0  0  0
   26.0552  -18.8628  -19.3741 O   0  0  0  0  0  0  0  0  0  0  0  0
  2  7  1  0
  2  1  1  6
  3  2  1  0
  4  3  1  0
  5  4  1  0
  5  6  2  0
  7  8  2  0
  9  5  1  0
 11 10  1  1
 11 13  1  0
 12 11  1  0
 14 13  1  6
 15 14  1  0
 15  7  1  0
 16 17  2  0
 16 14  1  0
 18 16  1  0
 19 18  1  0
 19 20  1  0
 20 22  1  0
 21 20  2  0
M  END
$$$$
