ELG.pdb
     RDKit          3D

 22 21  0  0  1  0  0  0  0  0999 V2000
   19.5754  -12.4633  -16.1014 N   0  0  0  0  0  0  0  0  0  0  0  0
   19.5942  -11.1010  -16.5286 C   0  0  1  0  0  0  0  0  0  0  0  0
   18.2542  -10.5581  -16.7864 C   0  0  0  0  0  0  0  0  0  0  0  0
   17.4989  -11.2598  -17.8651 C   0  0  0  0  0  0  0  0  0  0  0  0
   16.0763  -11.4975  -17.6556 C   0  0  0  0  0  0  0  0  0  0  0  0
   15.3371  -11.9884  -18.5133 O   0  0  0  0  0  0  0  0  0  0  0  0
   20.4261  -10.2405  -15.6320 C   0  0  0  0  0  0  0  0  0  0  0  0
   20.2190  -10.1908  -14.3898 O   0  0  0  0  0  0  0  0  0  0  0  0
   15.4944  -11.1617  -16.4311 O   0  0  0  0  0  0  0  0  0  0  0  0
   24.2465  -10.6504  -13.9943 C   0  0  0  0  0  0  0  0  0  0  0  0
   24.3491  -10.1695  -15.4522 C   0  0  2  0  0  0  0  0  0  0  0  0
   25.8045  -10.2770  -15.8149 C   0  0  0  0  0  0  0  0  0  0  0  0
   23.7918   -8.7996  -15.5564 C   0  0  0  0  0  0  0  0  0  0  0  0
   22.3493   -8.6128  -15.3218 C   0  0  2  0  0  0  0  0  0  0  0  0
   21.4883   -9.4368  -16.1249 N   0  0  0  0  0  0  0  0  0  0  0  0
   21.9530   -7.1936  -15.2689 C   0  0  0  0  0  0  0  0  0  0  0  0
   21.5967   -6.6581  -16.3526 O   0  0  0  0  0  0  0  0  0  0  0  0
   21.9523   -6.4079  -14.1145 N   0  0  0  0  0  0  0  0  0  0  0  0
   21.4247   -5.0915  -14.0805 C   0  0  0  0  0  0  0  0  0  0  0  0
   22.1512   -4.0478  -14.8205 C   0  0  0  0  0  0  0  0  0  0  0  0
   23.1786   -4.1824  -15.4893 O   0  0  0  0  0  0  0  0  0  0  0  0
   21.5935   -2.7599  -14.7425 O   0  0  0  0  0  0  0  0  0  0  0  0
  2  7  1  0
  2  1  1  1
  3  2  1  0
  4  3  1  0
  5  4  1  0
  5  6  2  0
  7  8  2  0
  9  5  1  0
 11 10  1  1
 11 13  1  0
 12 11  1  0
 14 13  1  6
 15 14  1  0
 15  7  1  0
 16 17  2  0
 16 14  1  0
 18 16  1  0
 19 18  1  0
 19 20  1  0
 20 22  1  0
 21 20  2  0
M  END
$$$$
