ELG.pdb
     RDKit          3D

 22 21  0  0  1  0  0  0  0  0999 V2000
   24.0581  -38.3168   -6.6207 N   0  0  0  0  0  0  0  0  0  0  0  0
   23.7826  -37.2089   -5.7631 C   0  0  1  0  0  0  0  0  0  0  0  0
   23.2294  -37.6088   -4.4628 C   0  0  0  0  0  0  0  0  0  0  0  0
   21.8337  -38.1336   -4.5187 C   0  0  0  0  0  0  0  0  0  0  0  0
   20.7441  -37.1665   -4.5562 C   0  0  0  0  0  0  0  0  0  0  0  0
   19.5585  -37.4848   -4.6833 O   0  0  0  0  0  0  0  0  0  0  0  0
   24.9460  -36.2754   -5.6569 C   0  0  0  0  0  0  0  0  0  0  0  0
   26.1327  -36.7000   -5.6557 O   0  0  0  0  0  0  0  0  0  0  0  0
   21.0282  -35.8035   -4.4447 O   0  0  0  0  0  0  0  0  0  0  0  0
   26.8629  -33.3888   -8.3493 C   0  0  0  0  0  0  0  0  0  0  0  0
   25.5322  -32.8697   -7.7774 C   0  0  2  0  0  0  0  0  0  0  0  0
   25.2375  -31.5974   -8.5228 C   0  0  0  0  0  0  0  0  0  0  0  0
   25.6615  -32.7036   -6.3098 C   0  0  0  0  0  0  0  0  0  0  0  0
   25.8497  -33.9093   -5.4845 C   0  0  2  0  0  0  0  0  0  0  0  0
   24.7816  -34.8685   -5.5522 N   0  0  0  0  0  0  0  0  0  0  0  0
   26.3051  -33.6054   -4.1154 C   0  0  0  0  0  0  0  0  0  0  0  0
   25.6396  -32.7543   -3.4666 O   0  0  0  0  0  0  0  0  0  0  0  0
   27.4157  -34.1837   -3.4971 N   0  0  0  0  0  0  0  0  0  0  0  0
   27.8008  -33.8782   -2.1665 C   0  0  0  0  0  0  0  0  0  0  0  0
   28.9697  -34.5833   -1.6174 C   0  0  0  0  0  0  0  0  0  0  0  0
   29.6087  -35.4965   -2.1453 O   0  0  0  0  0  0  0  0  0  0  0  0
   29.3879  -34.1506   -0.3471 O   0  0  0  0  0  0  0  0  0  0  0  0
  2  7  1  0
  2  1  1  1
  3  2  1  0
  4  3  1  0
  5  4  1  0
  5  6  2  0
  7  8  2  0
  9  5  1  0
 11 10  1  6
 11 13  1  0
 12 11  1  0
 14 13  1  1
 15 14  1  0
 15  7  1  0
 16 17  2  0
 16 14  1  0
 18 16  1  0
 19 18  1  0
 19 20  1  0
 20 22  1  0
 21 20  2  0
M  END
$$$$
