IHT.pdb
     RDKit          3D

 26 26  0  0  1  0  0  0  0  0999 V2000
   16.1754  -13.3341  -19.8167 C   0  0  0  0  0  0  0  0  0  0  0  0
   17.6373  -13.1028  -19.5103 C   0  0  0  0  0  0  0  0  0  0  0  0
   17.7921  -12.0404  -18.4731 C   0  0  2  0  0  0  0  0  0  0  0  0
   17.1377  -10.7583  -18.9594 C   0  0  0  0  0  0  0  0  0  0  0  0
   19.2124  -11.8036  -18.0328 C   0  0  2  0  0  0  0  0  0  0  0  0
   19.7269  -13.0811  -17.5849 N   0  0  0  0  0  0  0  0  0  0  0  0
   19.3475  -10.8325  -16.9530 C   0  0  0  0  0  0  0  0  0  0  0  0
   18.8577  -10.9793  -15.7991 O   0  0  0  0  0  0  0  0  0  0  0  0
   20.0734   -9.6360  -17.1923 N   0  0  0  0  0  0  0  0  0  0  0  0
   20.0650   -8.5031  -16.2584 C   0  0  1  0  0  0  0  0  0  0  0  0
   21.4485   -8.4496  -15.6760 C   0  0  0  0  0  0  0  0  0  0  0  0
   21.7094   -7.2695  -14.8244 C   0  0  0  0  0  0  0  0  0  0  0  0
   21.3151   -6.9938  -13.5525 C   0  0  0  0  0  0  0  0  0  0  0  0
   21.8583   -5.8063  -13.1735 N   0  0  0  0  0  0  0  0  0  0  0  0
   22.5808   -5.3469  -14.1886 C   0  0  0  0  0  0  0  0  0  0  0  0
   22.5033   -6.2145  -15.1910 N   0  0  0  0  0  0  0  0  0  0  0  0
   19.9387   -7.2958  -17.1457 C   0  0  0  0  0  0  0  0  0  0  0  0
   20.5662   -7.1520  -18.2053 O   0  0  0  0  0  0  0  0  0  0  0  0
   17.1864   -5.8420  -18.9092 C   0  0  0  0  0  0  0  0  0  0  0  0
   17.5920   -4.7317  -17.9639 C   0  0  1  0  0  0  0  0  0  0  0  0
   16.7961   -4.8630  -16.8248 O   0  0  0  0  0  0  0  0  0  0  0  0
   19.0331   -5.0236  -17.5382 C   0  0  2  0  0  0  0  0  0  0  0  0
   19.0663   -6.2544  -16.7752 N   0  0  0  0  0  0  0  0  0  0  0  0
   19.5767   -3.8828  -16.7487 C   0  0  0  0  0  0  0  0  0  0  0  0
   19.8640   -2.8033  -17.3295 O   0  0  0  0  0  0  0  0  0  0  0  0
   19.7862   -3.9473  -15.3883 O   0  0  0  0  0  0  0  0  0  0  0  0
  2  3  1  0
  2  1  1  0
  3  4  1  6
  5  6  1  1
  5  3  1  0
  7  5  1  0
  8  7  2  0
  9  7  1  0
 10  9  1  0
 11 12  1  0
 10 11  1  6
 12 16  1  0
 13 14  1  0
 13 12  2  0
 14 15  1  0
 15 16  2  0
 17 10  1  0
 17 18  2  0
 20 22  1  0
 20 19  1  6
 21 20  1  0
 22 23  1  1
 23 17  1  0
 24 22  1  0
 25 24  2  0
 26 24  1  0
M  END
$$$$
