IHT.pdb
     RDKit          3D

 26 26  0  0  1  0  0  0  0  0999 V2000
   29.1420  -19.6909   -4.8295 C   0  0  0  0  0  0  0  0  0  0  0  0
   27.8186  -20.2196   -5.3331 C   0  0  0  0  0  0  0  0  0  0  0  0
   27.4983  -19.6381   -6.6702 C   0  0  2  0  0  0  0  0  0  0  0  0
   27.4094  -18.1257   -6.5569 C   0  0  0  0  0  0  0  0  0  0  0  0
   26.2706  -20.2169   -7.3220 C   0  0  2  0  0  0  0  0  0  0  0  0
   26.4236  -21.6567   -7.2913 N   0  0  0  0  0  0  0  0  0  0  0  0
   26.0713  -19.7901   -8.7023 C   0  0  0  0  0  0  0  0  0  0  0  0
   25.9922  -18.5853   -9.0699 O   0  0  0  0  0  0  0  0  0  0  0  0
   25.9560  -20.7771   -9.7165 N   0  0  0  0  0  0  0  0  0  0  0  0
   25.6772  -20.4441  -11.1191 C   0  0  1  0  0  0  0  0  0  0  0  0
   26.5604  -21.3475  -11.9316 C   0  0  0  0  0  0  0  0  0  0  0  0
   26.4311  -21.1765  -13.3944 C   0  0  0  0  0  0  0  0  0  0  0  0
   25.6732  -20.3103  -14.1187 C   0  0  0  0  0  0  0  0  0  0  0  0
   25.9416  -20.4924  -15.4392 N   0  0  0  0  0  0  0  0  0  0  0  0
   26.8518  -21.4539  -15.5406 C   0  0  0  0  0  0  0  0  0  0  0  0
   27.1588  -21.8775  -14.3200 N   0  0  0  0  0  0  0  0  0  0  0  0
   24.2705  -20.9274  -11.3393 C   0  0  0  0  0  0  0  0  0  0  0  0
   23.7409  -21.8298  -10.6742 O   0  0  0  0  0  0  0  0  0  0  0  0
   19.7920  -19.9016  -12.5254 C   0  0  0  0  0  0  0  0  0  0  0  0
   21.2176  -19.4832  -12.2372 C   0  0  1  0  0  0  0  0  0  0  0  0
   21.2909  -19.2221  -10.8681 O   0  0  0  0  0  0  0  0  0  0  0  0
   22.0963  -20.7075  -12.5062 C   0  0  2  0  0  0  0  0  0  0  0  0
   23.4888  -20.3396  -12.3524 N   0  0  0  0  0  0  0  0  0  0  0  0
   21.8259  -21.2446  -13.8696 C   0  0  0  0  0  0  0  0  0  0  0  0
   22.4552  -20.7830  -14.8576 O   0  0  0  0  0  0  0  0  0  0  0  0
   20.9047  -22.2402  -14.1120 O   0  0  0  0  0  0  0  0  0  0  0  0
  2  3  1  0
  2  1  1  0
  3  4  1  1
  5  6  1  6
  5  3  1  0
  7  5  1  0
  8  7  2  0
  9  7  1  0
 10  9  1  0
 11 12  1  0
 10 11  1  6
 12 16  1  0
 13 14  1  0
 13 12  2  0
 14 15  1  0
 15 16  2  0
 17 10  1  0
 17 18  2  0
 20 22  1  0
 20 19  1  1
 21 20  1  0
 22 23  1  6
 23 17  1  0
 24 22  1  0
 25 24  2  0
 26 24  1  0
M  END
$$$$
