IHT.pdb
     RDKit          3D

 26 26  0  0  1  0  0  0  0  0999 V2000
   21.1163  -19.7949   -9.4646 C   0  0  0  0  0  0  0  0  0  0  0  0
   21.2358  -21.2997   -9.5414 C   0  0  0  0  0  0  0  0  0  0  0  0
   20.1228  -21.9513   -8.7894 C   0  0  2  0  0  0  0  0  0  0  0  0
   20.4493  -21.9572   -7.3056 C   0  0  0  0  0  0  0  0  0  0  0  0
   19.7620  -23.3277   -9.2817 C   0  0  2  0  0  0  0  0  0  0  0  0
   19.4766  -23.2015  -10.6959 N   0  0  0  0  0  0  0  0  0  0  0  0
   18.6056  -23.9150   -8.6147 C   0  0  0  0  0  0  0  0  0  0  0  0
   17.4142  -23.5390   -8.7940 O   0  0  0  0  0  0  0  0  0  0  0  0
   18.8090  -24.9811   -7.6992 N   0  0  0  0  0  0  0  0  0  0  0  0
   17.7005  -25.6801   -7.0369 C   0  0  1  0  0  0  0  0  0  0  0  0
   17.7955  -27.1088   -7.4910 C   0  0  0  0  0  0  0  0  0  0  0  0
   17.1013  -27.3940   -8.7648 C   0  0  0  0  0  0  0  0  0  0  0  0
   16.4178  -26.5687   -9.6020 C   0  0  0  0  0  0  0  0  0  0  0  0
   16.0102  -27.2833  -10.6847 N   0  0  0  0  0  0  0  0  0  0  0  0
   16.4317  -28.5331  -10.5295 C   0  0  0  0  0  0  0  0  0  0  0  0
   17.0906  -28.6185   -9.3797 N   0  0  0  0  0  0  0  0  0  0  0  0
   18.0811  -25.6782   -5.5823 C   0  0  0  0  0  0  0  0  0  0  0  0
   19.2454  -25.5505   -5.1759 O   0  0  0  0  0  0  0  0  0  0  0  0
   16.6282  -25.7186   -0.9061 C   0  0  0  0  0  0  0  0  0  0  0  0
   16.1988  -25.5966   -2.3522 C   0  0  1  0  0  0  0  0  0  0  0  0
   15.8894  -24.2527   -2.5676 O   0  0  0  0  0  0  0  0  0  0  0  0
   17.4311  -25.9133   -3.2033 C   0  0  2  0  0  0  0  0  0  0  0  0
   17.0780  -25.8293   -4.6056 N   0  0  0  0  0  0  0  0  0  0  0  0
   17.9607  -27.2627   -2.8587 C   0  0  0  0  0  0  0  0  0  0  0  0
   17.4977  -28.2807   -3.4372 O   0  0  0  0  0  0  0  0  0  0  0  0
   18.9508  -27.4604   -1.9209 O   0  0  0  0  0  0  0  0  0  0  0  0
  2  3  1  0
  2  1  1  0
  3  4  1  1
  5  6  1  6
  5  3  1  0
  7  5  1  0
  8  7  2  0
  9  7  1  0
 10  9  1  0
 11 12  1  0
 10 11  1  6
 12 16  1  0
 13 14  1  0
 13 12  2  0
 14 15  1  0
 15 16  2  0
 17 10  1  0
 17 18  2  0
 20 22  1  0
 20 19  1  1
 21 20  1  0
 22 23  1  6
 23 17  1  0
 24 22  1  0
 25 24  2  0
 26 24  1  0
M  END
$$$$
