IHT.pdb
     RDKit          3D

 26 26  0  0  1  0  0  0  0  0999 V2000
   24.1173  -12.9910  -20.9818 C   0  0  0  0  0  0  0  0  0  0  0  0
   25.0432  -12.9934  -19.7871 C   0  0  0  0  0  0  0  0  0  0  0  0
   25.8422  -11.7331  -19.7428 C   0  0  2  0  0  0  0  0  0  0  0  0
   26.5276  -11.5203  -21.0819 C   0  0  0  0  0  0  0  0  0  0  0  0
   26.8220  -11.6579  -18.6020 C   0  0  2  0  0  0  0  0  0  0  0  0
   26.0568  -11.8329  -17.3850 N   0  0  0  0  0  0  0  0  0  0  0  0
   27.5528  -10.3980  -18.5261 C   0  0  0  0  0  0  0  0  0  0  0  0
   27.0126   -9.2584  -18.5758 O   0  0  0  0  0  0  0  0  0  0  0  0
   28.9654  -10.4307  -18.3871 N   0  0  0  0  0  0  0  0  0  0  0  0
   29.7910   -9.2166  -18.3903 C   0  0  1  0  0  0  0  0  0  0  0  0
   30.5913   -9.2693  -17.1202 C   0  0  0  0  0  0  0  0  0  0  0  0
   31.5284   -8.1401  -16.9395 C   0  0  0  0  0  0  0  0  0  0  0  0
   31.7552   -7.0477  -17.7170 C   0  0  0  0  0  0  0  0  0  0  0  0
   32.6713   -6.2542  -17.1005 N   0  0  0  0  0  0  0  0  0  0  0  0
   33.0114   -6.8378  -15.9572 C   0  0  0  0  0  0  0  0  0  0  0  0
   32.3333   -7.9740  -15.8431 N   0  0  0  0  0  0  0  0  0  0  0  0
   30.7695   -9.4399  -19.5098 C   0  0  0  0  0  0  0  0  0  0  0  0
   31.3629  -10.5115  -19.7015 O   0  0  0  0  0  0  0  0  0  0  0  0
   30.0906   -8.6234  -23.1492 C   0  0  0  0  0  0  0  0  0  0  0  0
   31.3547   -7.8866  -22.7625 C   0  0  1  0  0  0  0  0  0  0  0  0
   30.9656   -6.6134  -22.3431 O   0  0  0  0  0  0  0  0  0  0  0  0
   31.9238   -8.6062  -21.5371 C   0  0  2  0  0  0  0  0  0  0  0  0
   31.0466   -8.3888  -20.4050 N   0  0  0  0  0  0  0  0  0  0  0  0
   33.3043   -8.1231  -21.2524 C   0  0  0  0  0  0  0  0  0  0  0  0
   34.2411   -8.4118  -22.0425 O   0  0  0  0  0  0  0  0  0  0  0  0
   33.6171   -7.3613  -20.1477 O   0  0  0  0  0  0  0  0  0  0  0  0
  2  3  1  0
  2  1  1  0
  3  4  1  6
  5  6  1  1
  5  3  1  0
  7  5  1  0
  8  7  2  0
  9  7  1  0
 10  9  1  0
 11 12  1  0
 10 11  1  1
 12 16  1  0
 13 14  1  0
 13 12  2  0
 14 15  1  0
 15 16  2  0
 17 10  1  0
 17 18  2  0
 20 22  1  0
 20 19  1  1
 21 20  1  0
 22 23  1  1
 23 17  1  0
 24 22  1  0
 25 24  2  0
 26 24  1  0
M  END
$$$$
