IHT.pdb
     RDKit          3D

 26 26  0  0  1  0  0  0  0  0999 V2000
   24.0424  -14.6103  -17.3002 C   0  0  0  0  0  0  0  0  0  0  0  0
   24.3037  -13.2650  -16.6624 C   0  0  0  0  0  0  0  0  0  0  0  0
   23.1673  -12.3331  -16.9245 C   0  0  2  0  0  0  0  0  0  0  0  0
   22.8715  -12.3010  -18.4144 C   0  0  0  0  0  0  0  0  0  0  0  0
   23.3594  -10.9468  -16.3690 C   0  0  2  0  0  0  0  0  0  0  0  0
   23.6312  -11.1000  -14.9548 N   0  0  0  0  0  0  0  0  0  0  0  0
   22.2049  -10.0718  -16.5383 C   0  0  0  0  0  0  0  0  0  0  0  0
   21.7079   -9.7582  -17.6552 O   0  0  0  0  0  0  0  0  0  0  0  0
   21.5828   -9.5248  -15.3852 N   0  0  0  0  0  0  0  0  0  0  0  0
   20.4386   -8.6078  -15.4610 C   0  0  1  0  0  0  0  0  0  0  0  0
   19.3590   -9.2397  -14.6295 C   0  0  0  0  0  0  0  0  0  0  0  0
   18.4803  -10.1695  -15.3707 C   0  0  0  0  0  0  0  0  0  0  0  0
   18.5082  -10.5623  -16.6723 C   0  0  0  0  0  0  0  0  0  0  0  0
   17.5287  -11.4840  -16.8724 N   0  0  0  0  0  0  0  0  0  0  0  0
   16.8995  -11.6664  -15.7173 C   0  0  0  0  0  0  0  0  0  0  0  0
   17.4588  -10.8838  -14.8017 N   0  0  0  0  0  0  0  0  0  0  0  0
   20.8914   -7.3911  -14.7023 C   0  0  0  0  0  0  0  0  0  0  0  0
   21.3816   -7.4329  -13.5642 O   0  0  0  0  0  0  0  0  0  0  0  0
   23.5318   -5.3506  -15.3559 C   0  0  0  0  0  0  0  0  0  0  0  0
   22.4091   -4.3364  -15.3945 C   0  0  1  0  0  0  0  0  0  0  0  0
   21.9957   -4.2449  -16.7245 O   0  0  0  0  0  0  0  0  0  0  0  0
   21.2452   -4.9411  -14.6053 C   0  0  2  0  0  0  0  0  0  0  0  0
   20.7619   -6.1200  -15.2943 N   0  0  0  0  0  0  0  0  0  0  0  0
   20.1618   -3.9326  -14.4336 C   0  0  0  0  0  0  0  0  0  0  0  0
   19.0983   -4.0406  -15.0988 O   0  0  0  0  0  0  0  0  0  0  0  0
   20.2638   -2.8657  -13.5675 O   0  0  0  0  0  0  0  0  0  0  0  0
  2  3  1  0
  2  1  1  0
  3  4  1  6
  5  6  1  1
  5  3  1  0
  7  5  1  0
  8  7  2  0
  9  7  1  0
 10  9  1  0
 11 12  1  0
 10 11  1  1
 12 16  1  0
 13 14  1  0
 13 12  2  0
 14 15  1  0
 15 16  2  0
 17 10  1  0
 17 18  2  0
 20 22  1  0
 20 19  1  6
 21 20  1  0
 22 23  1  6
 23 17  1  0
 24 22  1  0
 25 24  2  0
 26 24  1  0
M  END
$$$$
