IHT.pdb
     RDKit          3D

 26 26  0  0  1  0  0  0  0  0999 V2000
   26.8183  -20.1656   -9.3041 C   0  0  0  0  0  0  0  0  0  0  0  0
   26.7404  -19.9439  -10.7972 C   0  0  0  0  0  0  0  0  0  0  0  0
   25.6133  -20.7276  -11.3836 C   0  0  2  0  0  0  0  0  0  0  0  0
   25.7766  -22.1952  -11.0262 C   0  0  0  0  0  0  0  0  0  0  0  0
   25.4283  -20.5369  -12.8657 C   0  0  2  0  0  0  0  0  0  0  0  0
   25.8268  -19.1765  -13.1624 N   0  0  0  0  0  0  0  0  0  0  0  0
   24.0599  -20.7418  -13.3267 C   0  0  0  0  0  0  0  0  0  0  0  0
   23.5219  -21.8736  -13.4769 O   0  0  0  0  0  0  0  0  0  0  0  0
   23.2613  -19.6084  -13.6329 N   0  0  0  0  0  0  0  0  0  0  0  0
   21.8668  -19.7180  -14.0791 C   0  0  1  0  0  0  0  0  0  0  0  0
   21.0407  -19.1323  -12.9697 C   0  0  0  0  0  0  0  0  0  0  0  0
   20.5889  -20.1127  -11.9594 C   0  0  0  0  0  0  0  0  0  0  0  0
   20.7902  -21.4552  -11.8799 C   0  0  0  0  0  0  0  0  0  0  0  0
   20.2298  -21.9145  -10.7293 N   0  0  0  0  0  0  0  0  0  0  0  0
   19.6885  -20.8787  -10.0986 C   0  0  0  0  0  0  0  0  0  0  0  0
   19.8950  -19.7857  -10.8240 N   0  0  0  0  0  0  0  0  0  0  0  0
   21.7706  -18.7509  -15.2264 C   0  0  0  0  0  0  0  0  0  0  0  0
   22.4588  -17.7239  -15.3201 O   0  0  0  0  0  0  0  0  0  0  0  0
   22.6177  -19.2299  -18.5021 C   0  0  0  0  0  0  0  0  0  0  0  0
   21.1663  -18.8353  -18.6702 C   0  0  1  0  0  0  0  0  0  0  0  0
   20.4292  -20.0201  -18.7048 O   0  0  0  0  0  0  0  0  0  0  0  0
   20.7628  -18.0952  -17.3924 C   0  0  2  0  0  0  0  0  0  0  0  0
   20.8544  -19.0013  -16.2660 N   0  0  0  0  0  0  0  0  0  0  0  0
   19.3861  -17.5425  -17.5317 C   0  0  0  0  0  0  0  0  0  0  0  0
   18.4559  -17.9985  -16.8161 O   0  0  0  0  0  0  0  0  0  0  0  0
   19.0699  -16.5380  -18.4202 O   0  0  0  0  0  0  0  0  0  0  0  0
  2  3  1  0
  2  1  1  0
  3  4  1  6
  5  6  1  1
  5  3  1  0
  7  5  1  0
  8  7  2  0
  9  7  1  0
 10  9  1  0
 11 12  1  0
 10 11  1  1
 12 16  1  0
 13 14  1  0
 13 12  2  0
 14 15  1  0
 15 16  2  0
 17 10  1  0
 17 18  2  0
 20 22  1  0
 20 19  1  1
 21 20  1  0
 22 23  1  1
 23 17  1  0
 24 22  1  0
 25 24  2  0
 26 24  1  0
M  END
$$$$
