IHT.pdb
     RDKit          3D

 26 26  0  0  1  0  0  0  0  0999 V2000
   14.8715  -14.4782  -16.0083 C   0  0  0  0  0  0  0  0  0  0  0  0
   14.7035  -13.0525  -15.5354 C   0  0  0  0  0  0  0  0  0  0  0  0
   16.0333  -12.3892  -15.3929 C   0  0  2  0  0  0  0  0  0  0  0  0
   16.9528  -13.2703  -14.5644 C   0  0  0  0  0  0  0  0  0  0  0  0
   15.9734  -10.9866  -14.8486 C   0  0  2  0  0  0  0  0  0  0  0  0
   15.2810  -10.1865  -15.8374 N   0  0  0  0  0  0  0  0  0  0  0  0
   17.2794  -10.3925  -14.5873 C   0  0  0  0  0  0  0  0  0  0  0  0
   17.9584  -10.5981  -13.5434 O   0  0  0  0  0  0  0  0  0  0  0  0
   17.8444   -9.5222  -15.5565 N   0  0  0  0  0  0  0  0  0  0  0  0
   19.1487   -8.8730  -15.3751 C   0  0  1  0  0  0  0  0  0  0  0  0
   19.9821   -9.3069  -16.5471 C   0  0  0  0  0  0  0  0  0  0  0  0
   21.3505   -8.7473  -16.5662 C   0  0  0  0  0  0  0  0  0  0  0  0
   21.9895   -7.9464  -15.6722 C   0  0  0  0  0  0  0  0  0  0  0  0
   23.2658   -7.7475  -16.0968 N   0  0  0  0  0  0  0  0  0  0  0  0
   23.4242   -8.4126  -17.2352 C   0  0  0  0  0  0  0  0  0  0  0  0
   22.2819   -9.0208  -17.5332 N   0  0  0  0  0  0  0  0  0  0  0  0
   18.8643   -7.4113  -15.5836 C   0  0  0  0  0  0  0  0  0  0  0  0
   19.7466   -6.5531  -15.7325 O   0  0  0  0  0  0  0  0  0  0  0  0
   16.6220   -5.8347  -18.0755 C   0  0  0  0  0  0  0  0  0  0  0  0
   16.1012   -5.3520  -16.7390 C   0  0  1  0  0  0  0  0  0  0  0  0
   15.0713   -6.2196  -16.3720 O   0  0  0  0  0  0  0  0  0  0  0  0
   17.2345   -5.5514  -15.7294 C   0  0  2  0  0  0  0  0  0  0  0  0
   17.5292   -6.9649  -15.6145 N   0  0  0  0  0  0  0  0  0  0  0  0
   16.8568   -4.9685  -14.4112 C   0  0  0  0  0  0  0  0  0  0  0  0
   16.6315   -5.7301  -13.4342 O   0  0  0  0  0  0  0  0  0  0  0  0
   16.7383   -3.6121  -14.1996 O   0  0  0  0  0  0  0  0  0  0  0  0
  2  3  1  0
  2  1  1  0
  3  4  1  1
  5  6  1  6
  5  3  1  0
  7  5  1  0
  8  7  2  0
  9  7  1  0
 10  9  1  0
 11 12  1  0
 10 11  1  6
 12 16  1  0
 13 14  1  0
 13 12  2  0
 14 15  1  0
 15 16  2  0
 17 10  1  0
 17 18  2  0
 20 22  1  0
 20 19  1  6
 21 20  1  0
 22 23  1  1
 23 17  1  0
 24 22  1  0
 25 24  2  0
 26 24  1  0
M  END
$$$$
