IHT.pdb
     RDKit          3D

 26 26  0  0  1  0  0  0  0  0999 V2000
   25.9847  -15.1730  -15.5144 C   0  0  0  0  0  0  0  0  0  0  0  0
   24.5253  -15.1610  -15.1209 C   0  0  0  0  0  0  0  0  0  0  0  0
   23.8553  -13.9305  -15.6364 C   0  0  2  0  0  0  0  0  0  0  0  0
   24.5910  -12.7022  -15.1281 C   0  0  0  0  0  0  0  0  0  0  0  0
   22.3812  -13.8544  -15.3393 C   0  0  2  0  0  0  0  0  0  0  0  0
   21.8003  -15.0995  -15.7973 N   0  0  0  0  0  0  0  0  0  0  0  0
   21.6982  -12.7435  -15.9924 C   0  0  0  0  0  0  0  0  0  0  0  0
   21.6028  -12.6037  -17.2432 O   0  0  0  0  0  0  0  0  0  0  0  0
   21.0935  -11.7413  -15.1889 N   0  0  0  0  0  0  0  0  0  0  0  0
   20.3344  -10.6202  -15.7571 C   0  0  1  0  0  0  0  0  0  0  0  0
   18.9852  -10.6714  -15.0987 C   0  0  0  0  0  0  0  0  0  0  0  0
   18.0295  -11.6047  -15.7322 C   0  0  0  0  0  0  0  0  0  0  0  0
   18.1866  -12.4482  -16.7872 C   0  0  0  0  0  0  0  0  0  0  0  0
   17.0365  -13.1529  -16.9594 N   0  0  0  0  0  0  0  0  0  0  0  0
   16.1750  -12.7593  -16.0286 C   0  0  0  0  0  0  0  0  0  0  0  0
   16.7553  -11.8281  -15.2805 N   0  0  0  0  0  0  0  0  0  0  0  0
   21.0191   -9.3980  -15.2112 C   0  0  0  0  0  0  0  0  0  0  0  0
   21.5408   -9.3456  -14.0877 O   0  0  0  0  0  0  0  0  0  0  0  0
   23.7519   -7.3733  -16.8425 C   0  0  0  0  0  0  0  0  0  0  0  0
   22.5940   -6.4277  -16.6067 C   0  0  1  0  0  0  0  0  0  0  0  0
   21.8197   -6.4431  -17.7679 O   0  0  0  0  0  0  0  0  0  0  0  0
   21.7433   -7.0458  -15.4942 C   0  0  2  0  0  0  0  0  0  0  0  0
   21.0849   -8.2330  -15.9995 N   0  0  0  0  0  0  0  0  0  0  0  0
   20.7544   -6.0514  -14.9909 C   0  0  0  0  0  0  0  0  0  0  0  0
   19.5354   -6.1852  -15.2761 O   0  0  0  0  0  0  0  0  0  0  0  0
   21.1100   -4.9706  -14.2137 O   0  0  0  0  0  0  0  0  0  0  0  0
  2  3  1  0
  2  1  1  0
  3  4  1  1
  5  6  1  6
  5  3  1  0
  7  5  1  0
  8  7  2  0
  9  7  1  0
 10  9  1  0
 11 12  1  0
 10 11  1  1
 12 16  1  0
 13 14  1  0
 13 12  2  0
 14 15  1  0
 15 16  2  0
 17 10  1  0
 17 18  2  0
 20 22  1  0
 20 19  1  6
 21 20  1  0
 22 23  1  6
 23 17  1  0
 24 22  1  0
 25 24  2  0
 26 24  1  0
M  END
$$$$
