IHT.pdb
     RDKit          3D

 26 26  0  0  1  0  0  0  0  0999 V2000
   28.1349  -20.2663   -4.3898 C   0  0  0  0  0  0  0  0  0  0  0  0
   26.8341  -20.3694   -5.1526 C   0  0  0  0  0  0  0  0  0  0  0  0
   27.0245  -19.9422   -6.5703 C   0  0  2  0  0  0  0  0  0  0  0  0
   27.6485  -18.5574   -6.6028 C   0  0  0  0  0  0  0  0  0  0  0  0
   25.7775  -20.0067   -7.4118 C   0  0  2  0  0  0  0  0  0  0  0  0
   25.1923  -21.3123   -7.1880 N   0  0  0  0  0  0  0  0  0  0  0  0
   26.0129  -19.8307   -8.8403 C   0  0  0  0  0  0  0  0  0  0  0  0
   26.5600  -18.8144   -9.3511 O   0  0  0  0  0  0  0  0  0  0  0  0
   25.6086  -20.8567   -9.7345 N   0  0  0  0  0  0  0  0  0  0  0  0
   25.7876  -20.7576  -11.1885 C   0  0  1  0  0  0  0  0  0  0  0  0
   26.2291  -22.1223  -11.6348 C   0  0  0  0  0  0  0  0  0  0  0  0
   26.6502  -22.1973  -13.0500 C   0  0  0  0  0  0  0  0  0  0  0  0
   27.7379  -21.6742  -13.6766 C   0  0  0  0  0  0  0  0  0  0  0  0
   27.7247  -22.0678  -14.9781 N   0  0  0  0  0  0  0  0  0  0  0  0
   26.6495  -22.8247  -15.1634 C   0  0  0  0  0  0  0  0  0  0  0  0
   25.9907  -22.9141  -14.0138 N   0  0  0  0  0  0  0  0  0  0  0  0
   24.3927  -20.5758  -11.7194 C   0  0  0  0  0  0  0  0  0  0  0  0
   23.3728  -20.9290  -11.1094 O   0  0  0  0  0  0  0  0  0  0  0  0
   21.5509  -18.4226  -15.0803 C   0  0  0  0  0  0  0  0  0  0  0  0
   22.9636  -18.8391  -14.7320 C   0  0  1  0  0  0  0  0  0  0  0  0
   23.6561  -17.6733  -14.4005 O   0  0  0  0  0  0  0  0  0  0  0  0
   22.8703  -19.6812  -13.4570 C   0  0  2  0  0  0  0  0  0  0  0  0
   24.2059  -19.9739  -12.9787 N   0  0  0  0  0  0  0  0  0  0  0  0
   22.1043  -20.9315  -13.7219 C   0  0  0  0  0  0  0  0  0  0  0  0
   22.6796  -21.9125  -14.2622 O   0  0  0  0  0  0  0  0  0  0  0  0
   20.7721  -21.0746  -13.4005 O   0  0  0  0  0  0  0  0  0  0  0  0
  2  3  1  0
  2  1  1  0
  3  4  1  1
  5  6  1  6
  5  3  1  0
  7  5  1  0
  8  7  2  0
  9  7  1  0
 10  9  1  0
 11 12  1  0
 10 11  1  6
 12 16  1  0
 13 14  1  0
 13 12  2  0
 14 15  1  0
 15 16  2  0
 17 10  1  0
 17 18  2  0
 20 22  1  0
 20 19  1  1
 21 20  1  0
 22 23  1  6
 23 17  1  0
 24 22  1  0
 25 24  2  0
 26 24  1  0
M  END
$$$$
