IHT.pdb
     RDKit          3D

 26 26  0  0  1  0  0  0  0  0999 V2000
   16.1349  -22.5031    4.0324 C   0  0  0  0  0  0  0  0  0  0  0  0
   15.7712  -21.0707    3.7151 C   0  0  0  0  0  0  0  0  0  0  0  0
   16.8244  -20.1404    4.2190 C   0  0  2  0  0  0  0  0  0  0  0  0
   17.0026  -20.3391    5.7147 C   0  0  0  0  0  0  0  0  0  0  0  0
   16.5901  -18.6927    3.8776 C   0  0  2  0  0  0  0  0  0  0  0  0
   16.4366  -18.6247    2.4392 N   0  0  0  0  0  0  0  0  0  0  0  0
   17.6722  -17.8024    4.2821 C   0  0  0  0  0  0  0  0  0  0  0  0
   18.7603  -17.6751    3.6555 O   0  0  0  0  0  0  0  0  0  0  0  0
   17.5137  -17.0175    5.4546 N   0  0  0  0  0  0  0  0  0  0  0  0
   18.5336  -16.0679    5.9172 C   0  0  1  0  0  0  0  0  0  0  0  0
   17.7918  -14.8002    6.2316 C   0  0  0  0  0  0  0  0  0  0  0  0
   18.6515  -13.6806    6.6712 C   0  0  0  0  0  0  0  0  0  0  0  0
   20.0040  -13.5981    6.7860 C   0  0  0  0  0  0  0  0  0  0  0  0
   20.3344  -12.3368    7.1721 N   0  0  0  0  0  0  0  0  0  0  0  0
   19.2100  -11.6413    7.2956 C   0  0  0  0  0  0  0  0  0  0  0  0
   18.1866  -12.4337    6.9979 N   0  0  0  0  0  0  0  0  0  0  0  0
   18.9842  -16.6266    7.2384 C   0  0  0  0  0  0  0  0  0  0  0  0
   18.2499  -17.2766    7.9970 O   0  0  0  0  0  0  0  0  0  0  0  0
   22.6349  -17.7330   10.2594 C   0  0  0  0  0  0  0  0  0  0  0  0
   22.2593  -17.1371    8.9199 C   0  0  1  0  0  0  0  0  0  0  0  0
   22.4893  -18.1255    7.9616 O   0  0  0  0  0  0  0  0  0  0  0  0
   20.7484  -16.8936    8.9569 C   0  0  2  0  0  0  0  0  0  0  0  0
   20.3098  -16.4131    7.6628 N   0  0  0  0  0  0  0  0  0  0  0  0
   20.4104  -15.9243   10.0369 C   0  0  0  0  0  0  0  0  0  0  0  0
   20.6495  -14.6992    9.8723 O   0  0  0  0  0  0  0  0  0  0  0  0
   19.8382  -16.3050   11.2312 O   0  0  0  0  0  0  0  0  0  0  0  0
  2  3  1  0
  2  1  1  0
  3  4  1  1
  5  6  1  6
  5  3  1  0
  7  5  1  0
  8  7  2  0
  9  7  1  0
 10  9  1  0
 11 12  1  0
 10 11  1  1
 12 16  1  0
 13 14  1  0
 13 12  2  0
 14 15  1  0
 15 16  2  0
 17 10  1  0
 17 18  2  0
 20 22  1  0
 20 19  1  1
 21 20  1  0
 22 23  1  6
 23 17  1  0
 24 22  1  0
 25 24  2  0
 26 24  1  0
M  END
$$$$
