IHT.pdb
     RDKit          3D

 26 26  0  0  1  0  0  0  0  0999 V2000
   35.6389  -31.2434  -18.6526 C   0  0  0  0  0  0  0  0  0  0  0  0
   34.3159  -31.8336  -18.2212 C   0  0  0  0  0  0  0  0  0  0  0  0
   34.4704  -32.5793  -16.9372 C   0  0  2  0  0  0  0  0  0  0  0  0
   35.6222  -33.5628  -17.0577 C   0  0  0  0  0  0  0  0  0  0  0  0
   33.2141  -33.2555  -16.4559 C   0  0  2  0  0  0  0  0  0  0  0  0
   32.1829  -32.2394  -16.4205 N   0  0  0  0  0  0  0  0  0  0  0  0
   33.3313  -33.8591  -15.1334 C   0  0  0  0  0  0  0  0  0  0  0  0
   32.7340  -33.4386  -14.1042 O   0  0  0  0  0  0  0  0  0  0  0  0
   34.1667  -34.9954  -14.9687 N   0  0  0  0  0  0  0  0  0  0  0  0
   34.2017  -35.7809  -13.7287 C   0  0  1  0  0  0  0  0  0  0  0  0
   32.8336  -36.3865  -13.5957 C   0  0  0  0  0  0  0  0  0  0  0  0
   32.6585  -37.2489  -12.4076 C   0  0  0  0  0  0  0  0  0  0  0  0
   33.4489  -37.4163  -11.3138 C   0  0  0  0  0  0  0  0  0  0  0  0
   32.8336  -38.2735  -10.4561 N   0  0  0  0  0  0  0  0  0  0  0  0
   31.6783  -38.6355  -11.0017 C   0  0  0  0  0  0  0  0  0  0  0  0
   31.5556  -38.0285  -12.1765 N   0  0  0  0  0  0  0  0  0  0  0  0
   35.1335  -36.9190  -14.0405 C   0  0  0  0  0  0  0  0  0  0  0  0
   35.1248  -37.5415  -15.1127 O   0  0  0  0  0  0  0  0  0  0  0  0
   38.8348  -36.7901  -13.1653 C   0  0  0  0  0  0  0  0  0  0  0  0
   38.3332  -38.1238  -12.6553 C   0  0  1  0  0  0  0  0  0  0  0  0
   38.0397  -37.9518  -11.3016 O   0  0  0  0  0  0  0  0  0  0  0  0
   37.0065  -38.3950  -13.3692 C   0  0  2  0  0  0  0  0  0  0  0  0
   36.0785  -37.3218  -13.0773 N   0  0  0  0  0  0  0  0  0  0  0  0
   36.4571  -39.7147  -12.9488 C   0  0  0  0  0  0  0  0  0  0  0  0
   35.4401  -39.7592  -12.2078 O   0  0  0  0  0  0  0  0  0  0  0  0
   37.0141  -40.9142  -13.3357 O   0  0  0  0  0  0  0  0  0  0  0  0
  2  3  1  0
  2  1  1  0
  3  4  1  6
  5  6  1  1
  5  3  1  0
  7  5  1  0
  8  7  2  0
  9  7  1  0
 10  9  1  0
 11 12  1  0
 10 11  1  6
 12 16  1  0
 13 14  1  0
 13 12  2  0
 14 15  1  0
 15 16  2  0
 17 10  1  0
 17 18  2  0
 20 22  1  0
 20 19  1  6
 21 20  1  0
 22 23  1  1
 23 17  1  0
 24 22  1  0
 25 24  2  0
 26 24  1  0
M  END
$$$$
