IHT.pdb
     RDKit          3D

 26 26  0  0  1  0  0  0  0  0999 V2000
   23.4755  -15.6552  -15.0142 C   0  0  0  0  0  0  0  0  0  0  0  0
   22.1332  -15.1023  -15.4354 C   0  0  0  0  0  0  0  0  0  0  0  0
   22.2737  -13.6932  -15.9080 C   0  0  2  0  0  0  0  0  0  0  0  0
   22.9016  -12.8509  -14.8105 C   0  0  0  0  0  0  0  0  0  0  0  0
   20.9968  -13.0775  -16.4154 C   0  0  2  0  0  0  0  0  0  0  0  0
   20.4774  -13.9732  -17.4280 N   0  0  0  0  0  0  0  0  0  0  0  0
   21.1649  -11.7505  -16.9967 C   0  0  0  0  0  0  0  0  0  0  0  0
   21.9661  -11.4808  -17.9339 O   0  0  0  0  0  0  0  0  0  0  0  0
   20.3870  -10.6757  -16.4912 N   0  0  0  0  0  0  0  0  0  0  0  0
   20.4479   -9.3201  -17.0520 C   0  0  1  0  0  0  0  0  0  0  0  0
   19.2186   -9.1801  -17.9038 C   0  0  0  0  0  0  0  0  0  0  0  0
   19.3844   -9.6409  -19.2989 C   0  0  0  0  0  0  0  0  0  0  0  0
   20.4605  -10.1857  -19.9268 C   0  0  0  0  0  0  0  0  0  0  0  0
   20.1079  -10.5071  -21.2002 N   0  0  0  0  0  0  0  0  0  0  0  0
   18.8340  -10.1711  -21.3667 C   0  0  0  0  0  0  0  0  0  0  0  0
   18.3817   -9.6484  -20.2327 N   0  0  0  0  0  0  0  0  0  0  0  0
   20.2379   -8.4211  -15.8652 C   0  0  0  0  0  0  0  0  0  0  0  0
   19.4856   -8.6956  -14.9187 O   0  0  0  0  0  0  0  0  0  0  0  0
   21.8543   -5.0938  -12.8649 C   0  0  0  0  0  0  0  0  0  0  0  0
   22.0888   -6.1027  -13.9684 C   0  0  1  0  0  0  0  0  0  0  0  0
   22.4218   -7.3075  -13.3473 O   0  0  0  0  0  0  0  0  0  0  0  0
   20.7406   -6.3150  -14.6616 C   0  0  2  0  0  0  0  0  0  0  0  0
   20.9214   -7.1917  -15.8004 N   0  0  0  0  0  0  0  0  0  0  0  0
   20.1627   -5.0049  -15.0737 C   0  0  0  0  0  0  0  0  0  0  0  0
   19.3028   -4.4454  -14.3437 O   0  0  0  0  0  0  0  0  0  0  0  0
   20.5265   -4.3593  -16.2354 O   0  0  0  0  0  0  0  0  0  0  0  0
  2  3  1  0
  2  1  1  0
  3  4  1  1
  5  6  1  6
  5  3  1  0
  7  5  1  0
  8  7  2  0
  9  7  1  0
 10  9  1  0
 11 12  1  0
 10 11  1  6
 12 16  1  0
 13 14  1  0
 13 12  2  0
 14 15  1  0
 15 16  2  0
 17 10  1  0
 17 18  2  0
 20 22  1  0
 20 19  1  1
 21 20  1  0
 22 23  1  6
 23 17  1  0
 24 22  1  0
 25 24  2  0
 26 24  1  0
M  END
$$$$
