IHT.pdb
     RDKit          3D

 26 26  0  0  1  0  0  0  0  0999 V2000
   46.6727  -16.5124   -7.2618 C   0  0  0  0  0  0  0  0  0  0  0  0
   45.3138  -16.5258   -7.9234 C   0  0  0  0  0  0  0  0  0  0  0  0
   44.9867  -15.1767   -8.4725 C   0  0  2  0  0  0  0  0  0  0  0  0
   45.0511  -14.1466   -7.3576 C   0  0  0  0  0  0  0  0  0  0  0  0
   43.6781  -15.1077   -9.2141 C   0  0  2  0  0  0  0  0  0  0  0  0
   43.7718  -16.0494  -10.3104 N   0  0  0  0  0  0  0  0  0  0  0  0
   43.3646  -13.7873   -9.7481 C   0  0  0  0  0  0  0  0  0  0  0  0
   43.8757  -13.3042  -10.7961 O   0  0  0  0  0  0  0  0  0  0  0  0
   42.4255  -12.9738   -9.0608 N   0  0  0  0  0  0  0  0  0  0  0  0
   42.0858  -11.6135   -9.4966 C   0  0  1  0  0  0  0  0  0  0  0  0
   40.5861  -11.5767   -9.5728 C   0  0  0  0  0  0  0  0  0  0  0  0
   40.0228  -10.2549   -9.9212 C   0  0  0  0  0  0  0  0  0  0  0  0
   40.6368   -9.0580  -10.1202 C   0  0  0  0  0  0  0  0  0  0  0  0
   39.7011   -8.1412  -10.4846 N   0  0  0  0  0  0  0  0  0  0  0  0
   38.5226   -8.7525  -10.5148 C   0  0  0  0  0  0  0  0  0  0  0  0
   38.6967  -10.0255  -10.1788 N   0  0  0  0  0  0  0  0  0  0  0  0
   42.4658  -10.7471   -8.3280 C   0  0  0  0  0  0  0  0  0  0  0  0
   42.1570  -11.0007   -7.1543 O   0  0  0  0  0  0  0  0  0  0  0  0
   45.7967   -9.5130   -7.1948 C   0  0  0  0  0  0  0  0  0  0  0  0
   44.9901   -8.2749   -7.5223 C   0  0  1  0  0  0  0  0  0  0  0  0
   45.2626   -7.9584   -8.8541 O   0  0  0  0  0  0  0  0  0  0  0  0
   43.5159   -8.6813   -7.4522 C   0  0  2  0  0  0  0  0  0  0  0  0
   43.2136   -9.5750   -8.5513 N   0  0  0  0  0  0  0  0  0  0  0  0
   42.6472   -7.4712   -7.4842 C   0  0  0  0  0  0  0  0  0  0  0  0
   42.0576   -7.1549   -8.5507 O   0  0  0  0  0  0  0  0  0  0  0  0
   42.4504   -6.6626   -6.3859 O   0  0  0  0  0  0  0  0  0  0  0  0
  2  3  1  0
  2  1  1  0
  3  4  1  1
  5  6  1  6
  5  3  1  0
  7  5  1  0
  8  7  2  0
  9  7  1  0
 10  9  1  0
 11 12  1  0
 10 11  1  1
 12 16  1  0
 13 14  1  0
 13 12  2  0
 14 15  1  0
 15 16  2  0
 17 10  1  0
 17 18  2  0
 20 22  1  0
 20 19  1  6
 21 20  1  0
 22 23  1  6
 23 17  1  0
 24 22  1  0
 25 24  2  0
 26 24  1  0
M  END
$$$$
