IHT.pdb
     RDKit          3D

 26 26  0  0  1  0  0  0  0  0999 V2000
   19.8985  -14.4625  -21.3645 C   0  0  0  0  0  0  0  0  0  0  0  0
   21.2654  -13.8585  -21.1375 C   0  0  0  0  0  0  0  0  0  0  0  0
   21.3656  -13.2965  -19.7581 C   0  0  2  0  0  0  0  0  0  0  0  0
   20.2292  -12.3150  -19.5270 C   0  0  0  0  0  0  0  0  0  0  0  0
   22.7013  -12.6825  -19.4324 C   0  0  2  0  0  0  0  0  0  0  0  0
   23.6891  -13.7300  -19.5885 N   0  0  0  0  0  0  0  0  0  0  0  0
   22.7943  -12.1398  -18.0819 C   0  0  0  0  0  0  0  0  0  0  0  0
   22.7586  -12.8377  -17.0309 O   0  0  0  0  0  0  0  0  0  0  0  0
   22.9348  -10.7370  -17.9137 N   0  0  0  0  0  0  0  0  0  0  0  0
   22.9172  -10.0906  -16.5955 C   0  0  1  0  0  0  0  0  0  0  0  0
   24.2904   -9.5102  -16.4121 C   0  0  0  0  0  0  0  0  0  0  0  0
   25.3140  -10.4844  -15.9774 C   0  0  0  0  0  0  0  0  0  0  0  0
   25.2124  -11.8154  -15.7179 C   0  0  0  0  0  0  0  0  0  0  0  0
   26.4461  -12.2965  -15.4086 N   0  0  0  0  0  0  0  0  0  0  0  0
   27.3051  -11.2860  -15.4742 C   0  0  0  0  0  0  0  0  0  0  0  0
   26.6418  -10.1873  -15.8156 N   0  0  0  0  0  0  0  0  0  0  0  0
   21.9896   -8.9204  -16.7719 C   0  0  0  0  0  0  0  0  0  0  0  0
   22.0078   -8.1707  -17.7592 O   0  0  0  0  0  0  0  0  0  0  0  0
   18.0497   -6.4756  -15.2238 C   0  0  0  0  0  0  0  0  0  0  0  0
   18.9184   -7.7013  -15.0400 C   0  0  1  0  0  0  0  0  0  0  0  0
   18.2196   -8.7756  -15.5929 O   0  0  0  0  0  0  0  0  0  0  0  0
   20.1651   -7.4879  -15.9023 C   0  0  2  0  0  0  0  0  0  0  0  0
   21.0375   -8.6370  -15.7738 N   0  0  0  0  0  0  0  0  0  0  0  0
   20.8601   -6.2331  -15.4992 C   0  0  0  0  0  0  0  0  0  0  0  0
   21.7018   -6.2597  -14.5632 O   0  0  0  0  0  0  0  0  0  0  0  0
   20.6261   -5.0196  -16.1087 O   0  0  0  0  0  0  0  0  0  0  0  0
  2  3  1  0
  2  1  1  0
  3  4  1  6
  5  6  1  1
  5  3  1  0
  7  5  1  0
  8  7  2  0
  9  7  1  0
 10  9  1  0
 11 12  1  0
 10 11  1  6
 12 16  1  0
 13 14  1  0
 13 12  2  0
 14 15  1  0
 15 16  2  0
 17 10  1  0
 17 18  2  0
 20 22  1  0
 20 19  1  6
 21 20  1  0
 22 23  1  1
 23 17  1  0
 24 22  1  0
 25 24  2  0
 26 24  1  0
M  END
$$$$
