IHT.pdb
     RDKit          3D

 26 26  0  0  1  0  0  0  0  0999 V2000
   29.2609  -20.9637  -12.2882 C   0  0  0  0  0  0  0  0  0  0  0  0
   27.9376  -21.6478  -12.0321 C   0  0  0  0  0  0  0  0  0  0  0  0
   26.8052  -20.7152  -12.3088 C   0  0  2  0  0  0  0  0  0  0  0  0
   27.0240  -19.4145  -11.5549 C   0  0  0  0  0  0  0  0  0  0  0  0
   25.4424  -21.2925  -12.0314 C   0  0  2  0  0  0  0  0  0  0  0  0
   25.4594  -22.6537  -12.5256 N   0  0  0  0  0  0  0  0  0  0  0  0
   24.3480  -20.5696  -12.6692 C   0  0  0  0  0  0  0  0  0  0  0  0
   23.9511  -19.4245  -12.3168 O   0  0  0  0  0  0  0  0  0  0  0  0
   23.6694  -21.1740  -13.7601 N   0  0  0  0  0  0  0  0  0  0  0  0
   22.6362  -20.4766  -14.5361 C   0  0  1  0  0  0  0  0  0  0  0  0
   22.9800  -20.7214  -15.9777 C   0  0  0  0  0  0  0  0  0  0  0  0
   24.0450  -19.8454  -16.5106 C   0  0  0  0  0  0  0  0  0  0  0  0
   24.6849  -18.7880  -15.9434 C   0  0  0  0  0  0  0  0  0  0  0  0
   25.6370  -18.3393  -16.8044 N   0  0  0  0  0  0  0  0  0  0  0  0
   25.5955  -19.1023  -17.8905 C   0  0  0  0  0  0  0  0  0  0  0  0
   24.6435  -20.0145  -17.7316 N   0  0  0  0  0  0  0  0  0  0  0  0
   21.3819  -21.2609  -14.2671 C   0  0  0  0  0  0  0  0  0  0  0  0
   21.3287  -22.4995  -14.2805 O   0  0  0  0  0  0  0  0  0  0  0  0
   19.9717  -20.0189  -11.1569 C   0  0  0  0  0  0  0  0  0  0  0  0
   19.7392  -21.3964  -11.7392 C   0  0  1  0  0  0  0  0  0  0  0  0
   18.7301  -21.9892  -10.9786 O   0  0  0  0  0  0  0  0  0  0  0  0
   19.1738  -21.1874  -13.1463 C   0  0  2  0  0  0  0  0  0  0  0  0
   20.1858  -20.5746  -13.9820 N   0  0  0  0  0  0  0  0  0  0  0  0
   17.9423  -20.3507  -13.0863 C   0  0  0  0  0  0  0  0  0  0  0  0
   17.9680  -19.1711  -13.5257 O   0  0  0  0  0  0  0  0  0  0  0  0
   16.7519  -20.8085  -12.5647 O   0  0  0  0  0  0  0  0  0  0  0  0
  2  3  1  0
  2  1  1  0
  3  4  1  1
  5  6  1  6
  5  3  1  0
  7  5  1  0
  8  7  2  0
  9  7  1  0
 10  9  1  0
 11 12  1  0
 10 11  1  6
 12 16  1  0
 13 14  1  0
 13 12  2  0
 14 15  1  0
 15 16  2  0
 17 10  1  0
 17 18  2  0
 20 22  1  0
 20 19  1  1
 21 20  1  0
 22 23  1  6
 23 17  1  0
 24 22  1  0
 25 24  2  0
 26 24  1  0
M  END
$$$$
