YFL.pdb
     RDKit          3D

 32 33  0  0  1  0  0  0  0  0999 V2000
   29.7569  -15.6983  -18.0468 O   0  0  0  0  0  0  0  0  0  0  0  0
   29.0341  -16.6009  -17.2863 C   0  0  0  0  0  0  0  0  0  0  0  0
   28.6596  -16.2314  -16.0127 C   0  0  0  0  0  0  0  0  0  0  0  0
   27.9307  -17.0774  -15.1782 C   0  0  0  0  0  0  0  0  0  0  0  0
   27.5816  -18.3315  -15.6705 C   0  0  0  0  0  0  0  0  0  0  0  0
   26.8157  -19.2241  -14.7980 C   0  0  0  0  0  0  0  0  0  0  0  0
   27.6869  -19.8933  -13.7616 C   0  0  2  0  0  0  0  0  0  0  0  0
   28.5915  -20.8448  -14.3488 N   0  0  0  0  0  0  0  0  0  0  0  0
   26.7828  -20.6090  -12.8232 C   0  0  0  0  0  0  0  0  0  0  0  0
   26.5103  -21.8213  -12.9858 O   0  0  0  0  0  0  0  0  0  0  0  0
   27.9419  -18.7223  -16.9328 C   0  0  0  0  0  0  0  0  0  0  0  0
   28.6633  -17.8477  -17.7193 C   0  0  0  0  0  0  0  0  0  0  0  0
   26.1764  -19.9830  -11.6994 N   0  0  0  0  0  0  0  0  0  0  0  0
   25.1367  -20.4888  -10.8938 C   0  0  1  0  0  0  0  0  0  0  0  0
   25.0019  -19.8866   -9.5219 C   0  0  0  0  0  0  0  0  0  0  0  0
   26.2487  -19.9902   -8.7021 C   0  0  0  0  0  0  0  0  0  0  0  0
   26.7897  -19.0125   -7.9421 C   0  0  0  0  0  0  0  0  0  0  0  0
   27.9696  -19.2063   -7.2170 C   0  0  0  0  0  0  0  0  0  0  0  0
   28.5982  -20.4271   -7.2782 C   0  0  0  0  0  0  0  0  0  0  0  0
   28.0882  -21.4449   -8.0329 C   0  0  0  0  0  0  0  0  0  0  0  0
   26.9369  -21.2146   -8.7242 C   0  0  0  0  0  0  0  0  0  0  0  0
   23.8161  -20.5318  -11.5304 C   0  0  0  0  0  0  0  0  0  0  0  0
   23.4334  -19.5099  -12.1646 O   0  0  0  0  0  0  0  0  0  0  0  0
   20.0611  -24.7038  -13.9282 C   0  0  0  0  0  0  0  0  0  0  0  0
   20.1926  -23.2752  -13.4656 C   0  0  2  0  0  0  0  0  0  0  0  0
   19.7878  -22.2830  -14.5161 C   0  0  0  0  0  0  0  0  0  0  0  0
   21.4065  -22.9665  -12.6904 C   0  0  0  0  0  0  0  0  0  0  0  0
   21.6127  -21.6327  -12.1208 C   0  0  2  0  0  0  0  0  0  0  0  0
   22.9502  -21.6485  -11.4762 N   0  0  0  0  0  0  0  0  0  0  0  0
   20.6093  -21.0583  -11.2411 C   0  0  0  0  0  0  0  0  0  0  0  0
   19.5446  -20.2903  -11.6845 O   0  0  0  0  0  0  0  0  0  0  0  0
   20.6242  -21.2110   -9.9671 O   0  0  0  0  0  0  0  0  0  0  0  0
  2  3  2  0
  2  1  1  0
  4  3  1  0
  5  4  2  0
  6  7  1  0
  6  5  1  0
  7  8  1  6
  9  7  1  0
  9 13  1  0
 10  9  2  0
 11  5  1  0
 11 12  2  0
 12  2  1  0
 14 13  1  0
 14 15  1  1
 16 21  1  0
 16 15  1  0
 17 16  2  0
 18 19  2  0
 18 17  1  0
 19 20  1  0
 20 21  2  0
 22 14  1  0
 23 22  2  0
 25 27  1  0
 25 24  1  6
 26 25  1  0
 28 29  1  0
 28 27  1  1
 29 22  1  0
 30 28  1  0
 31 30  1  0
 32 30  2  0
M  END
$$$$
