YFL.pdb
     RDKit          3D

 32 33  0  0  1  0  0  0  0  0999 V2000
   21.4992  -14.5760  -19.5841 O   0  0  0  0  0  0  0  0  0  0  0  0
   22.0979  -15.4566  -18.7001 C   0  0  0  0  0  0  0  0  0  0  0  0
   21.8887  -16.8069  -18.8790 C   0  0  0  0  0  0  0  0  0  0  0  0
   22.4525  -17.7636  -18.0364 C   0  0  0  0  0  0  0  0  0  0  0  0
   23.2493  -17.3154  -16.9870 C   0  0  0  0  0  0  0  0  0  0  0  0
   23.8443  -18.3164  -16.0990 C   0  0  0  0  0  0  0  0  0  0  0  0
   25.3092  -18.5388  -16.3917 C   0  0  2  0  0  0  0  0  0  0  0  0
   25.5143  -19.1972  -17.6539 N   0  0  0  0  0  0  0  0  0  0  0  0
   25.8477  -19.4029  -15.3085 C   0  0  0  0  0  0  0  0  0  0  0  0
   25.6871  -20.6455  -15.3323 O   0  0  0  0  0  0  0  0  0  0  0  0
   23.4724  -15.9787  -16.7880 C   0  0  0  0  0  0  0  0  0  0  0  0
   22.8912  -15.0719  -17.6503 C   0  0  0  0  0  0  0  0  0  0  0  0
   26.5672  -18.8925  -14.1930 N   0  0  0  0  0  0  0  0  0  0  0  0
   26.8492  -19.5522  -12.9801 C   0  0  1  0  0  0  0  0  0  0  0  0
   27.9326  -18.9491  -12.1284 C   0  0  0  0  0  0  0  0  0  0  0  0
   28.2039  -19.7215  -10.8765 C   0  0  0  0  0  0  0  0  0  0  0  0
   28.9105  -20.8695  -10.7823 C   0  0  0  0  0  0  0  0  0  0  0  0
   29.1005  -21.5234   -9.5609 C   0  0  0  0  0  0  0  0  0  0  0  0
   28.5528  -20.9831   -8.4219 C   0  0  0  0  0  0  0  0  0  0  0  0
   27.8310  -19.8245   -8.4685 C   0  0  0  0  0  0  0  0  0  0  0  0
   27.6694  -19.2192   -9.6784 C   0  0  0  0  0  0  0  0  0  0  0  0
   25.6830  -19.8411  -12.1389 C   0  0  0  0  0  0  0  0  0  0  0  0
   25.0086  -18.8643  -11.7099 O   0  0  0  0  0  0  0  0  0  0  0  0
   20.8813  -22.9700  -12.3975 C   0  0  0  0  0  0  0  0  0  0  0  0
   21.7198  -22.0584  -11.5383 C   0  0  2  0  0  0  0  0  0  0  0  0
   21.2104  -20.6470  -11.5164 C   0  0  0  0  0  0  0  0  0  0  0  0
   23.1772  -22.2387  -11.6529 C   0  0  0  0  0  0  0  0  0  0  0  0
   24.0993  -21.3831  -10.9021 C   0  0  2  0  0  0  0  0  0  0  0  0
   25.2710  -21.1461  -11.7828 N   0  0  0  0  0  0  0  0  0  0  0  0
   24.5139  -21.7655   -9.5632 C   0  0  0  0  0  0  0  0  0  0  0  0
   24.0214  -21.1807   -8.4076 O   0  0  0  0  0  0  0  0  0  0  0  0
   25.3812  -22.6829   -9.3334 O   0  0  0  0  0  0  0  0  0  0  0  0
  2  3  2  0
  2  1  1  0
  4  3  1  0
  5  4  2  0
  6  7  1  0
  6  5  1  0
  7  8  1  6
  9  7  1  0
  9 13  1  0
 10  9  2  0
 11  5  1  0
 11 12  2  0
 12  2  1  0
 14 13  1  0
 14 15  1  1
 16 21  1  0
 16 15  1  0
 17 16  2  0
 18 19  2  0
 18 17  1  0
 19 20  1  0
 20 21  2  0
 22 14  1  0
 23 22  2  0
 25 27  1  0
 25 24  1  6
 26 25  1  0
 28 29  1  0
 28 27  1  6
 29 22  1  0
 30 28  1  0
 31 30  1  0
 32 30  2  0
M  END
$$$$
