YFL.pdb
     RDKit          3D

 32 33  0  0  1  0  0  0  0  0999 V2000
   29.3740  -15.7614  -18.3423 O   0  0  0  0  0  0  0  0  0  0  0  0
   28.6750  -16.5307  -17.4285 C   0  0  0  0  0  0  0  0  0  0  0  0
   28.0954  -17.7016  -17.8666 C   0  0  0  0  0  0  0  0  0  0  0  0
   27.3737  -18.5368  -17.0150 C   0  0  0  0  0  0  0  0  0  0  0  0
   27.2487  -18.1536  -15.6829 C   0  0  0  0  0  0  0  0  0  0  0  0
   26.4918  -19.0275  -14.7840 C   0  0  0  0  0  0  0  0  0  0  0  0
   27.3940  -19.9094  -13.9536 C   0  0  2  0  0  0  0  0  0  0  0  0
   28.2754  -20.7011  -14.7689 N   0  0  0  0  0  0  0  0  0  0  0  0
   26.5184  -20.8211  -13.1711 C   0  0  0  0  0  0  0  0  0  0  0  0
   26.1493  -21.9232  -13.6396 O   0  0  0  0  0  0  0  0  0  0  0  0
   27.8155  -16.9947  -15.2230 C   0  0  0  0  0  0  0  0  0  0  0  0
   28.5199  -16.2027  -16.1065 C   0  0  0  0  0  0  0  0  0  0  0  0
   26.0478  -20.5145  -11.8647 N   0  0  0  0  0  0  0  0  0  0  0  0
   25.0190  -21.1605  -11.1504 C   0  0  1  0  0  0  0  0  0  0  0  0
   25.2105  -21.2772   -9.6629 C   0  0  0  0  0  0  0  0  0  0  0  0
   26.5684  -20.8502   -9.2030 C   0  0  0  0  0  0  0  0  0  0  0  0
   27.7342  -21.4858   -9.4539 C   0  0  0  0  0  0  0  0  0  0  0  0
   28.9561  -21.0093   -8.9686 C   0  0  0  0  0  0  0  0  0  0  0  0
   28.9728  -19.8604   -8.2143 C   0  0  0  0  0  0  0  0  0  0  0  0
   27.8193  -19.1841   -7.9354 C   0  0  0  0  0  0  0  0  0  0  0  0
   26.6503  -19.6822   -8.4270 C   0  0  0  0  0  0  0  0  0  0  0  0
   23.6642  -20.6689  -11.4223 C   0  0  0  0  0  0  0  0  0  0  0  0
   23.4740  -19.4213  -11.4006 O   0  0  0  0  0  0  0  0  0  0  0  0
   20.3452  -22.2592  -15.8625 C   0  0  0  0  0  0  0  0  0  0  0  0
   20.8103  -21.0990  -15.0201 C   0  0  2  0  0  0  0  0  0  0  0  0
   21.1488  -19.8856  -15.8355 C   0  0  0  0  0  0  0  0  0  0  0  0
   21.7286  -21.4394  -13.9197 C   0  0  0  0  0  0  0  0  0  0  0  0
   21.4238  -21.0479  -12.5413 C   0  0  2  0  0  0  0  0  0  0  0  0
   22.5627  -21.5085  -11.7075 N   0  0  0  0  0  0  0  0  0  0  0  0
   20.1508  -21.4194  -11.9480 C   0  0  0  0  0  0  0  0  0  0  0  0
   20.0045  -22.4222  -11.0030 O   0  0  0  0  0  0  0  0  0  0  0  0
   19.0426  -20.8486  -12.2525 O   0  0  0  0  0  0  0  0  0  0  0  0
  2  3  2  0
  2  1  1  0
  4  3  1  0
  5  4  2  0
  6  7  1  0
  6  5  1  0
  7  8  1  6
  9  7  1  0
  9 13  1  0
 10  9  2  0
 11  5  1  0
 11 12  2  0
 12  2  1  0
 14 13  1  0
 14 15  1  1
 16 21  1  0
 16 15  1  0
 17 16  2  0
 18 19  2  0
 18 17  1  0
 19 20  1  0
 20 21  2  0
 22 14  1  0
 23 22  2  0
 25 27  1  0
 25 24  1  6
 26 25  1  0
 28 29  1  0
 28 27  1  6
 29 22  1  0
 30 28  1  0
 31 30  1  0
 32 30  2  0
M  END
$$$$
