YFL.pdb
     RDKit          3D

 32 33  0  0  1  0  0  0  0  0999 V2000
   28.6702  -15.4368  -17.6743 O   0  0  0  0  0  0  0  0  0  0  0  0
   27.7131  -14.4474  -17.5302 C   0  0  0  0  0  0  0  0  0  0  0  0
   27.2677  -13.7982  -18.6612 C   0  0  0  0  0  0  0  0  0  0  0  0
   26.3064  -12.7900  -18.6086 C   0  0  0  0  0  0  0  0  0  0  0  0
   25.7948  -12.4457  -17.3609 C   0  0  0  0  0  0  0  0  0  0  0  0
   24.7845  -11.3873  -17.3001 C   0  0  0  0  0  0  0  0  0  0  0  0
   23.3925  -11.9392  -17.1026 C   0  0  2  0  0  0  0  0  0  0  0  0
   22.9995  -12.8115  -18.1765 N   0  0  0  0  0  0  0  0  0  0  0  0
   22.4619  -10.7805  -17.0627 C   0  0  0  0  0  0  0  0  0  0  0  0
   22.0020  -10.2838  -18.1173 O   0  0  0  0  0  0  0  0  0  0  0  0
   26.2211  -13.0759  -16.2221 C   0  0  0  0  0  0  0  0  0  0  0  0
   27.1747  -14.0676  -16.3280 C   0  0  0  0  0  0  0  0  0  0  0  0
   22.0368  -10.1670  -15.8522 N   0  0  0  0  0  0  0  0  0  0  0  0
   21.1027   -9.1226  -15.7024 C   0  0  1  0  0  0  0  0  0  0  0  0
   19.8694   -9.4397  -14.9016 C   0  0  0  0  0  0  0  0  0  0  0  0
   18.9342  -10.3777  -15.5965 C   0  0  0  0  0  0  0  0  0  0  0  0
   17.9905  -10.0407  -16.5031 C   0  0  0  0  0  0  0  0  0  0  0  0
   17.1552  -10.9954  -17.0916 C   0  0  0  0  0  0  0  0  0  0  0  0
   17.2978  -12.3160  -16.7383 C   0  0  0  0  0  0  0  0  0  0  0  0
   18.2380  -12.7037  -15.8266 C   0  0  0  0  0  0  0  0  0  0  0  0
   19.0313  -11.7422  -15.2768 C   0  0  0  0  0  0  0  0  0  0  0  0
   21.6592   -7.8466  -15.2407 C   0  0  0  0  0  0  0  0  0  0  0  0
   22.5038   -7.8762  -14.3032 O   0  0  0  0  0  0  0  0  0  0  0  0
   24.0239   -2.9633  -16.3888 C   0  0  0  0  0  0  0  0  0  0  0  0
   22.5204   -3.0664  -16.3555 C   0  0  2  0  0  0  0  0  0  0  0  0
   21.8980   -2.1752  -15.3210 C   0  0  0  0  0  0  0  0  0  0  0  0
   21.9733   -4.4286  -16.4773 C   0  0  0  0  0  0  0  0  0  0  0  0
   21.9476   -5.3316  -15.3239 C   0  0  2  0  0  0  0  0  0  0  0  0
   21.3066   -6.5895  -15.7838 N   0  0  0  0  0  0  0  0  0  0  0  0
   21.3818   -4.8806  -14.0641 C   0  0  0  0  0  0  0  0  0  0  0  0
   22.1196   -4.2694  -13.0630 O   0  0  0  0  0  0  0  0  0  0  0  0
   20.1409   -5.0133  -13.7657 O   0  0  0  0  0  0  0  0  0  0  0  0
  2  3  2  0
  2  1  1  0
  4  3  1  0
  5  4  2  0
  6  7  1  0
  6  5  1  0
  7  8  1  6
  9  7  1  0
  9 13  1  0
 10  9  2  0
 11  5  1  0
 11 12  2  0
 12  2  1  0
 14 13  1  0
 14 15  1  1
 16 21  1  0
 16 15  1  0
 17 16  2  0
 18 19  2  0
 18 17  1  0
 19 20  1  0
 20 21  2  0
 22 14  1  0
 23 22  2  0
 25 27  1  0
 25 24  1  1
 26 25  1  0
 28 29  1  0
 28 27  1  6
 29 22  1  0
 30 28  1  0
 31 30  1  0
 32 30  2  0
M  END
$$$$
