YFL.pdb
     RDKit          3D

 32 33  0  0  1  0  0  0  0  0999 V2000
   16.2795  -23.0595  -14.2787 O   0  0  0  0  0  0  0  0  0  0  0  0
   17.5179  -22.4789  -14.0672 C   0  0  0  0  0  0  0  0  0  0  0  0
   18.5893  -23.3026  -13.7974 C   0  0  0  0  0  0  0  0  0  0  0  0
   19.8712  -22.8035  -13.5717 C   0  0  0  0  0  0  0  0  0  0  0  0
   20.0495  -21.4242  -13.6261 C   0  0  0  0  0  0  0  0  0  0  0  0
   21.3943  -20.8947  -13.3901 C   0  0  0  0  0  0  0  0  0  0  0  0
   21.8007  -20.9980  -11.9391 C   0  0  2  0  0  0  0  0  0  0  0  0
   20.9991  -20.1563  -11.0920 N   0  0  0  0  0  0  0  0  0  0  0  0
   23.2178  -20.5584  -11.8472 C   0  0  0  0  0  0  0  0  0  0  0  0
   23.5222  -19.3436  -11.8928 O   0  0  0  0  0  0  0  0  0  0  0  0
   19.0007  -20.5845  -13.8924 C   0  0  0  0  0  0  0  0  0  0  0  0
   17.7513  -21.1287  -14.1086 C   0  0  0  0  0  0  0  0  0  0  0  0
   24.3045  -21.4644  -11.7042 N   0  0  0  0  0  0  0  0  0  0  0  0
   25.6757  -21.1516  -11.6163 C   0  0  1  0  0  0  0  0  0  0  0  0
   26.4912  -21.9855  -10.6663 C   0  0  0  0  0  0  0  0  0  0  0  0
   26.8670  -21.2619   -9.4123 C   0  0  0  0  0  0  0  0  0  0  0  0
   28.1220  -21.0346   -8.9655 C   0  0  0  0  0  0  0  0  0  0  0  0
   28.3697  -20.3531   -7.7698 C   0  0  0  0  0  0  0  0  0  0  0  0
   27.3059  -19.9004   -7.0264 C   0  0  0  0  0  0  0  0  0  0  0  0
   26.0201  -20.1067   -7.4385 C   0  0  0  0  0  0  0  0  0  0  0  0
   25.8224  -20.7751   -8.6091 C   0  0  0  0  0  0  0  0  0  0  0  0
   26.3802  -21.0595  -12.8994 C   0  0  0  0  0  0  0  0  0  0  0  0
   26.2675  -22.0246  -13.7048 O   0  0  0  0  0  0  0  0  0  0  0  0
   29.4944  -16.6351  -15.9859 C   0  0  0  0  0  0  0  0  0  0  0  0
   28.8245  -17.9843  -16.0395 C   0  0  2  0  0  0  0  0  0  0  0  0
   27.9346  -18.1460  -17.2370 C   0  0  0  0  0  0  0  0  0  0  0  0
   28.3116  -18.4915  -14.7552 C   0  0  0  0  0  0  0  0  0  0  0  0
   27.7253  -19.8306  -14.6589 C   0  0  2  0  0  0  0  0  0  0  0  0
   27.1747  -19.9553  -13.2856 N   0  0  0  0  0  0  0  0  0  0  0  0
   28.5168  -20.9948  -15.0181 C   0  0  0  0  0  0  0  0  0  0  0  0
   29.3607  -21.6540  -14.1388 O   0  0  0  0  0  0  0  0  0  0  0  0
   28.5051  -21.5154  -16.1909 O   0  0  0  0  0  0  0  0  0  0  0  0
  2  3  2  0
  2  1  1  0
  4  3  1  0
  5  4  2  0
  6  7  1  0
  6  5  1  0
  7  8  1  1
  9  7  1  0
  9 13  1  0
 10  9  2  0
 11  5  1  0
 11 12  2  0
 12  2  1  0
 14 13  1  0
 14 15  1  1
 16 21  1  0
 16 15  1  0
 17 16  2  0
 18 19  2  0
 18 17  1  0
 19 20  1  0
 20 21  2  0
 22 14  1  0
 23 22  2  0
 25 27  1  0
 25 24  1  1
 26 25  1  0
 28 29  1  0
 28 27  1  1
 29 22  1  0
 30 28  1  0
 31 30  1  0
 32 30  2  0
M  END
$$$$
