YFL.pdb
     RDKit          3D

 32 33  0  0  1  0  0  0  0  0999 V2000
   21.4826  -18.8972  -16.1130 O   0  0  0  0  0  0  0  0  0  0  0  0
   22.1831  -19.2263  -14.9655 C   0  0  0  0  0  0  0  0  0  0  0  0
   21.7116  -20.2592  -14.1847 C   0  0  0  0  0  0  0  0  0  0  0  0
   22.3538  -20.6573  -13.0132 C   0  0  0  0  0  0  0  0  0  0  0  0
   23.5074  -19.9734  -12.6410 C   0  0  0  0  0  0  0  0  0  0  0  0
   24.1861  -20.3878  -11.4113 C   0  0  0  0  0  0  0  0  0  0  0  0
   25.6012  -20.8487  -11.6691 C   0  0  2  0  0  0  0  0  0  0  0  0
   25.6421  -22.0673  -12.4320 N   0  0  0  0  0  0  0  0  0  0  0  0
   26.2324  -21.0917  -10.3453 C   0  0  0  0  0  0  0  0  0  0  0  0
   25.9949  -22.1381   -9.6980 O   0  0  0  0  0  0  0  0  0  0  0  0
   23.9961  -18.9433  -13.4000 C   0  0  0  0  0  0  0  0  0  0  0  0
   23.3233  -18.5879  -14.5510 C   0  0  0  0  0  0  0  0  0  0  0  0
   27.1305  -20.1748   -9.7330 N   0  0  0  0  0  0  0  0  0  0  0  0
   27.6609  -20.2355   -8.4288 C   0  0  1  0  0  0  0  0  0  0  0  0
   28.8555  -19.3641   -8.1526 C   0  0  0  0  0  0  0  0  0  0  0  0
   29.3269  -19.4335   -6.7347 C   0  0  0  0  0  0  0  0  0  0  0  0
   29.9374  -20.4852   -6.1453 C   0  0  0  0  0  0  0  0  0  0  0  0
   30.3331  -20.4548   -4.8044 C   0  0  0  0  0  0  0  0  0  0  0  0
   30.0948  -19.3221   -4.0633 C   0  0  0  0  0  0  0  0  0  0  0  0
   29.4809  -18.2345   -4.6166 C   0  0  0  0  0  0  0  0  0  0  0  0
   29.1112  -18.3053   -5.9259 C   0  0  0  0  0  0  0  0  0  0  0  0
   26.6843  -20.0670   -7.3475 C   0  0  0  0  0  0  0  0  0  0  0  0
   25.6913  -19.3178   -7.5610 O   0  0  0  0  0  0  0  0  0  0  0  0
   23.4509  -21.4273   -3.2542 C   0  0  0  0  0  0  0  0  0  0  0  0
   23.3547  -21.4864   -4.7573 C   0  0  2  0  0  0  0  0  0  0  0  0
   22.3200  -22.4616   -5.2371 C   0  0  0  0  0  0  0  0  0  0  0  0
   24.6391  -21.4697   -5.4783 C   0  0  0  0  0  0  0  0  0  0  0  0
   25.7211  -20.5747   -5.0606 C   0  0  2  0  0  0  0  0  0  0  0  0
   26.7898  -20.6940   -6.0844 N   0  0  0  0  0  0  0  0  0  0  0  0
   26.2639  -20.6733   -3.7167 C   0  0  0  0  0  0  0  0  0  0  0  0
   26.0932  -19.7018   -2.7435 O   0  0  0  0  0  0  0  0  0  0  0  0
   26.9566  -21.6750   -3.3124 O   0  0  0  0  0  0  0  0  0  0  0  0
  2  3  2  0
  2  1  1  0
  4  3  1  0
  5  4  2  0
  6  7  1  0
  6  5  1  0
  7  8  1  6
  9  7  1  0
  9 13  1  0
 10  9  2  0
 11  5  1  0
 11 12  2  0
 12  2  1  0
 14 13  1  0
 14 15  1  6
 16 21  1  0
 16 15  1  0
 17 16  2  0
 18 19  2  0
 18 17  1  0
 19 20  1  0
 20 21  2  0
 22 14  1  0
 23 22  2  0
 25 27  1  0
 25 24  1  1
 26 25  1  0
 28 29  1  0
 28 27  1  6
 29 22  1  0
 30 28  1  0
 31 30  1  0
 32 30  2  0
M  END
$$$$
