YFL.pdb
     RDKit          3D

 32 33  0  0  1  0  0  0  0  0999 V2000
   27.7784  -16.9336  -18.2348 O   0  0  0  0  0  0  0  0  0  0  0  0
   27.5763  -17.5091  -16.9924 C   0  0  0  0  0  0  0  0  0  0  0  0
   26.3247  -18.0037  -16.6962 C   0  0  0  0  0  0  0  0  0  0  0  0
   26.0327  -18.5991  -15.4700 C   0  0  0  0  0  0  0  0  0  0  0  0
   27.0558  -18.6850  -14.5303 C   0  0  0  0  0  0  0  0  0  0  0  0
   26.7544  -19.3098  -13.2406 C   0  0  0  0  0  0  0  0  0  0  0  0
   27.6195  -20.5196  -12.9777 C   0  0  2  0  0  0  0  0  0  0  0  0
   27.3097  -21.6087  -13.8646 N   0  0  0  0  0  0  0  0  0  0  0  0
   27.3575  -20.9519  -11.5797 C   0  0  0  0  0  0  0  0  0  0  0  0
   26.4861  -21.8149  -11.3222 O   0  0  0  0  0  0  0  0  0  0  0  0
   28.3081  -18.2008  -14.8006 C   0  0  0  0  0  0  0  0  0  0  0  0
   28.5458  -17.6204  -16.0296 C   0  0  0  0  0  0  0  0  0  0  0  0
   28.0611  -20.4287  -10.4600 N   0  0  0  0  0  0  0  0  0  0  0  0
   27.7497  -20.5983   -9.0961 C   0  0  1  0  0  0  0  0  0  0  0  0
   28.6927  -19.9619   -8.1119 C   0  0  0  0  0  0  0  0  0  0  0  0
   28.1918  -19.9936   -6.7028 C   0  0  0  0  0  0  0  0  0  0  0  0
   27.3133  -19.1305   -6.1467 C   0  0  0  0  0  0  0  0  0  0  0  0
   26.9132  -19.2396   -4.8112 C   0  0  0  0  0  0  0  0  0  0  0  0
   27.4280  -20.2548   -4.0407 C   0  0  0  0  0  0  0  0  0  0  0  0
   28.3185  -21.1510   -4.5599 C   0  0  0  0  0  0  0  0  0  0  0  0
   28.6822  -21.0091   -5.8652 C   0  0  0  0  0  0  0  0  0  0  0  0
   26.3709  -20.2657   -8.7229 C   0  0  0  0  0  0  0  0  0  0  0  0
   25.9406  -19.1166   -9.0186 O   0  0  0  0  0  0  0  0  0  0  0  0
   21.8509  -21.0064  -11.1648 C   0  0  0  0  0  0  0  0  0  0  0  0
   22.4308  -20.4515   -9.8889 C   0  0  2  0  0  0  0  0  0  0  0  0
   22.7058  -18.9784   -9.9662 C   0  0  0  0  0  0  0  0  0  0  0  0
   23.4554  -21.2872   -9.2395 C   0  0  0  0  0  0  0  0  0  0  0  0
   24.0401  -20.8930   -7.9554 C   0  0  2  0  0  0  0  0  0  0  0  0
   25.4982  -21.1552   -8.0544 N   0  0  0  0  0  0  0  0  0  0  0  0
   23.4916  -21.4207   -6.7179 C   0  0  0  0  0  0  0  0  0  0  0  0
   22.6065  -20.7259   -5.9093 O   0  0  0  0  0  0  0  0  0  0  0  0
   23.7841  -22.5837   -6.2614 O   0  0  0  0  0  0  0  0  0  0  0  0
  2  3  2  0
  2  1  1  0
  4  3  1  0
  5  4  2  0
  6  7  1  0
  6  5  1  0
  7  8  1  6
  9  7  1  0
  9 13  1  0
 10  9  2  0
 11  5  1  0
 11 12  2  0
 12  2  1  0
 14 13  1  0
 14 15  1  1
 16 21  1  0
 16 15  1  0
 17 16  2  0
 18 19  2  0
 18 17  1  0
 19 20  1  0
 20 21  2  0
 22 14  1  0
 23 22  2  0
 25 27  1  0
 25 24  1  6
 26 25  1  0
 28 29  1  0
 28 27  1  6
 29 22  1  0
 30 28  1  0
 31 30  1  0
 32 30  2  0
M  END
$$$$
