YFL.pdb
     RDKit          3D

 32 33  0  0  1  0  0  0  0  0999 V2000
   28.0977  -34.8439  -15.4248 O   0  0  0  0  0  0  0  0  0  0  0  0
   28.2058  -35.2241  -14.0984 C   0  0  0  0  0  0  0  0  0  0  0  0
   28.4323  -34.2466  -13.1538 C   0  0  0  0  0  0  0  0  0  0  0  0
   28.5544  -34.5399  -11.7965 C   0  0  0  0  0  0  0  0  0  0  0  0
   28.4400  -35.8713  -11.4073 C   0  0  0  0  0  0  0  0  0  0  0  0
   28.5673  -36.1847   -9.9825 C   0  0  0  0  0  0  0  0  0  0  0  0
   30.0090  -36.3387   -9.5596 C   0  0  2  0  0  0  0  0  0  0  0  0
   30.6127  -37.5190  -10.1171 N   0  0  0  0  0  0  0  0  0  0  0  0
   30.0228  -36.4490   -8.0771 C   0  0  0  0  0  0  0  0  0  0  0  0
   29.7460  -37.5298   -7.5065 O   0  0  0  0  0  0  0  0  0  0  0  0
   28.2150  -36.8611  -12.3268 C   0  0  0  0  0  0  0  0  0  0  0  0
   28.1017  -36.5184  -13.6586 C   0  0  0  0  0  0  0  0  0  0  0  0
   30.3439  -35.3605   -7.2201 N   0  0  0  0  0  0  0  0  0  0  0  0
   30.3050  -35.3379   -5.8116 C   0  0  1  0  0  0  0  0  0  0  0  0
   31.5528  -34.8655   -5.1168 C   0  0  0  0  0  0  0  0  0  0  0  0
   32.5805  -35.9388   -4.9455 C   0  0  0  0  0  0  0  0  0  0  0  0
   32.7065  -36.7631   -3.8822 C   0  0  0  0  0  0  0  0  0  0  0  0
   33.7117  -37.7327   -3.8125 C   0  0  0  0  0  0  0  0  0  0  0  0
   34.5981  -37.8518   -4.8563 C   0  0  0  0  0  0  0  0  0  0  0  0
   34.5094  -37.0408   -5.9517 C   0  0  0  0  0  0  0  0  0  0  0  0
   33.5157  -36.1092   -5.9798 C   0  0  0  0  0  0  0  0  0  0  0  0
   29.1444  -34.6568   -5.2284 C   0  0  0  0  0  0  0  0  0  0  0  0
   28.5021  -33.8542   -5.9607 O   0  0  0  0  0  0  0  0  0  0  0  0
   25.0244  -32.1675   -4.0180 C   0  0  0  0  0  0  0  0  0  0  0  0
   25.1244  -33.6703   -3.9552 C   0  0  2  0  0  0  0  0  0  0  0  0
   24.3981  -34.2540   -2.7789 C   0  0  0  0  0  0  0  0  0  0  0  0
   26.4496  -34.2333   -4.2661 C   0  0  0  0  0  0  0  0  0  0  0  0
   27.5679  -34.0766   -3.3328 C   0  0  2  0  0  0  0  0  0  0  0  0
   28.7040  -34.8475   -3.8983 N   0  0  0  0  0  0  0  0  0  0  0  0
   27.3803  -34.3706   -1.9225 C   0  0  0  0  0  0  0  0  0  0  0  0
   27.6203  -35.6120   -1.3556 O   0  0  0  0  0  0  0  0  0  0  0  0
   26.9697  -33.5002   -1.0738 O   0  0  0  0  0  0  0  0  0  0  0  0
  2  3  2  0
  2  1  1  0
  4  3  1  0
  5  4  2  0
  6  7  1  0
  6  5  1  0
  7  8  1  6
  9  7  1  0
  9 13  1  0
 10  9  2  0
 11  5  1  0
 11 12  2  0
 12  2  1  0
 14 13  1  0
 14 15  1  1
 16 21  1  0
 16 15  1  0
 17 16  2  0
 18 19  2  0
 18 17  1  0
 19 20  1  0
 20 21  2  0
 22 14  1  0
 23 22  2  0
 25 27  1  0
 25 24  1  1
 26 25  1  0
 28 29  1  0
 28 27  1  6
 29 22  1  0
 30 28  1  0
 31 30  1  0
 32 30  2  0
M  END
$$$$
