YFL.pdb
     RDKit          3D

 32 33  0  0  1  0  0  0  0  0999 V2000
   19.7270  -19.1770  -15.3105 O   0  0  0  0  0  0  0  0  0  0  0  0
   20.6345  -19.5053  -14.3183 C   0  0  0  0  0  0  0  0  0  0  0  0
   20.5904  -20.7755  -13.7856 C   0  0  0  0  0  0  0  0  0  0  0  0
   21.4660  -21.1911  -12.7836 C   0  0  0  0  0  0  0  0  0  0  0  0
   22.4067  -20.2747  -12.3227 C   0  0  0  0  0  0  0  0  0  0  0  0
   23.3291  -20.7063  -11.2703 C   0  0  0  0  0  0  0  0  0  0  0  0
   24.7673  -20.6894  -11.7312 C   0  0  2  0  0  0  0  0  0  0  0  0
   25.0270  -21.6921  -12.7290 N   0  0  0  0  0  0  0  0  0  0  0  0
   25.6135  -20.9684  -10.5412 C   0  0  0  0  0  0  0  0  0  0  0  0
   25.7378  -22.1328  -10.0947 O   0  0  0  0  0  0  0  0  0  0  0  0
   22.4707  -19.0065  -12.8359 C   0  0  0  0  0  0  0  0  0  0  0  0
   21.5813  -18.6444  -13.8267 C   0  0  0  0  0  0  0  0  0  0  0  0
   26.3263  -19.9569   -9.8404 N   0  0  0  0  0  0  0  0  0  0  0  0
   27.1178  -20.1100   -8.6845 C   0  0  1  0  0  0  0  0  0  0  0  0
   28.2411  -19.1250   -8.5094 C   0  0  0  0  0  0  0  0  0  0  0  0
   28.9991  -19.3085   -7.2329 C   0  0  0  0  0  0  0  0  0  0  0  0
   28.9342  -18.5126   -6.1427 C   0  0  0  0  0  0  0  0  0  0  0  0
   29.6938  -18.7650   -4.9961 C   0  0  0  0  0  0  0  0  0  0  0  0
   30.5313  -19.8547   -4.9762 C   0  0  0  0  0  0  0  0  0  0  0  0
   30.6294  -20.6873   -6.0546 C   0  0  0  0  0  0  0  0  0  0  0  0
   29.8724  -20.4058   -7.1518 C   0  0  0  0  0  0  0  0  0  0  0  0
   26.3729  -20.2167   -7.4256 C   0  0  0  0  0  0  0  0  0  0  0  0
   25.4760  -19.3588   -7.1964 O   0  0  0  0  0  0  0  0  0  0  0  0
   24.5168  -22.2287   -2.6365 C   0  0  0  0  0  0  0  0  0  0  0  0
   24.1297  -22.6718   -4.0243 C   0  0  2  0  0  0  0  0  0  0  0  0
   23.3983  -23.9820   -4.0349 C   0  0  0  0  0  0  0  0  0  0  0  0
   25.1531  -22.4719   -5.0647 C   0  0  0  0  0  0  0  0  0  0  0  0
   25.9034  -21.2163   -5.1462 C   0  0  2  0  0  0  0  0  0  0  0  0
   26.5998  -21.2222   -6.4575 N   0  0  0  0  0  0  0  0  0  0  0  0
   26.8055  -20.8410   -4.0709 C   0  0  0  0  0  0  0  0  0  0  0  0
   26.8342  -19.5819   -3.4934 O   0  0  0  0  0  0  0  0  0  0  0  0
   27.6625  -21.6487   -3.5612 O   0  0  0  0  0  0  0  0  0  0  0  0
  2  3  2  0
  2  1  1  0
  4  3  1  0
  5  4  2  0
  6  7  1  0
  6  5  1  0
  7  8  1  6
  9  7  1  0
  9 13  1  0
 10  9  2  0
 11  5  1  0
 11 12  2  0
 12  2  1  0
 14 13  1  0
 14 15  1  1
 16 21  1  0
 16 15  1  0
 17 16  2  0
 18 19  2  0
 18 17  1  0
 19 20  1  0
 20 21  2  0
 22 14  1  0
 23 22  2  0
 25 27  1  0
 25 24  1  1
 26 25  1  0
 28 29  1  0
 28 27  1  1
 29 22  1  0
 30 28  1  0
 31 30  1  0
 32 30  2  0
M  END
$$$$
