YFL.pdb
     RDKit          3D

 32 33  0  0  1  0  0  0  0  0999 V2000
   23.8043  -18.4251  -18.0772 O   0  0  0  0  0  0  0  0  0  0  0  0
   24.1044  -18.8436  -16.7925 C   0  0  0  0  0  0  0  0  0  0  0  0
   23.4594  -19.9571  -16.2996 C   0  0  0  0  0  0  0  0  0  0  0  0
   23.7004  -20.4480  -15.0174 C   0  0  0  0  0  0  0  0  0  0  0  0
   24.6275  -19.7738  -14.2280 C   0  0  0  0  0  0  0  0  0  0  0  0
   24.8846  -20.2856  -12.8802 C   0  0  0  0  0  0  0  0  0  0  0  0
   26.2007  -21.0213  -12.7916 C   0  0  2  0  0  0  0  0  0  0  0  0
   26.2075  -22.2152  -13.5937 N   0  0  0  0  0  0  0  0  0  0  0  0
   26.3973  -21.4005  -11.3677 C   0  0  0  0  0  0  0  0  0  0  0  0
   25.8425  -22.4159  -10.8864 O   0  0  0  0  0  0  0  0  0  0  0  0
   25.2817  -18.6648  -14.6949 C   0  0  0  0  0  0  0  0  0  0  0  0
   25.0074  -18.2190  -15.9715 C   0  0  0  0  0  0  0  0  0  0  0  0
   27.2106  -20.6550  -10.4705 N   0  0  0  0  0  0  0  0  0  0  0  0
   27.1829  -20.6846   -9.0618 C   0  0  1  0  0  0  0  0  0  0  0  0
   28.3349  -20.0218   -8.3574 C   0  0  0  0  0  0  0  0  0  0  0  0
   28.2096  -20.0389   -6.8669 C   0  0  0  0  0  0  0  0  0  0  0  0
   28.5674  -21.0506   -6.0457 C   0  0  0  0  0  0  0  0  0  0  0  0
   28.4002  -20.9730   -4.6595 C   0  0  0  0  0  0  0  0  0  0  0  0
   27.8560  -19.8342   -4.1152 C   0  0  0  0  0  0  0  0  0  0  0  0
   27.4797  -18.7860   -4.9060 C   0  0  0  0  0  0  0  0  0  0  0  0
   27.6596  -18.9022   -6.2514 C   0  0  0  0  0  0  0  0  0  0  0  0
   25.9264  -20.2381   -8.4510 C   0  0  0  0  0  0  0  0  0  0  0  0
   25.4799  -19.1048   -8.7816 O   0  0  0  0  0  0  0  0  0  0  0  0
   21.1758  -21.0285  -10.2663 C   0  0  0  0  0  0  0  0  0  0  0  0
   21.6723  -20.7983   -8.8618 C   0  0  2  0  0  0  0  0  0  0  0  0
   20.9730  -19.6617   -8.1755 C   0  0  0  0  0  0  0  0  0  0  0  0
   23.1311  -20.8901   -8.6796 C   0  0  0  0  0  0  0  0  0  0  0  0
   23.7249  -20.8204   -7.3421 C   0  0  2  0  0  0  0  0  0  0  0  0
   25.1882  -21.0016   -7.5173 N   0  0  0  0  0  0  0  0  0  0  0  0
   23.2119  -21.6654   -6.2775 C   0  0  0  0  0  0  0  0  0  0  0  0
   23.8945  -22.7558   -5.7625 O   0  0  0  0  0  0  0  0  0  0  0  0
   22.0720  -21.4755   -5.7197 O   0  0  0  0  0  0  0  0  0  0  0  0
  2  3  2  0
  2  1  1  0
  4  3  1  0
  5  4  2  0
  6  7  1  0
  6  5  1  0
  7  8  1  6
  9  7  1  0
  9 13  1  0
 10  9  2  0
 11  5  1  0
 11 12  2  0
 12  2  1  0
 14 13  1  0
 14 15  1  1
 16 21  1  0
 16 15  1  0
 17 16  2  0
 18 19  2  0
 18 17  1  0
 19 20  1  0
 20 21  2  0
 22 14  1  0
 23 22  2  0
 25 27  1  0
 25 24  1  6
 26 25  1  0
 28 29  1  0
 28 27  1  6
 29 22  1  0
 30 28  1  0
 31 30  1  0
 32 30  2  0
M  END
$$$$
