YFL.pdb
     RDKit          3D

 32 33  0  0  1  0  0  0  0  0999 V2000
   24.1459  -40.7996   -9.8370 O   0  0  0  0  0  0  0  0  0  0  0  0
   24.8143  -40.1970   -8.7855 C   0  0  0  0  0  0  0  0  0  0  0  0
   25.7701  -40.9274   -8.1133 C   0  0  0  0  0  0  0  0  0  0  0  0
   26.4910  -40.3998   -7.0431 C   0  0  0  0  0  0  0  0  0  0  0  0
   26.2183  -39.0899   -6.6598 C   0  0  0  0  0  0  0  0  0  0  0  0
   26.9731  -38.5308   -5.5363 C   0  0  0  0  0  0  0  0  0  0  0  0
   28.0677  -37.5963   -5.9941 C   0  0  2  0  0  0  0  0  0  0  0  0
   29.0644  -38.2745   -6.7784 N   0  0  0  0  0  0  0  0  0  0  0  0
   28.7131  -37.0442   -4.7740 C   0  0  0  0  0  0  0  0  0  0  0  0
   29.7333  -37.5811   -4.2828 O   0  0  0  0  0  0  0  0  0  0  0  0
   25.2732  -38.3434   -7.3119 C   0  0  0  0  0  0  0  0  0  0  0  0
   24.5869  -38.9120   -8.3652 C   0  0  0  0  0  0  0  0  0  0  0  0
   28.2299  -35.8933   -4.0927 N   0  0  0  0  0  0  0  0  0  0  0  0
   28.7967  -35.2620   -2.9675 C   0  0  1  0  0  0  0  0  0  0  0  0
   29.4177  -33.9120   -3.2015 C   0  0  0  0  0  0  0  0  0  0  0  0
   30.6344  -33.9599   -4.0703 C   0  0  0  0  0  0  0  0  0  0  0  0
   30.6823  -33.6969   -5.3949 C   0  0  0  0  0  0  0  0  0  0  0  0
   31.8732  -33.7792   -6.1231 C   0  0  0  0  0  0  0  0  0  0  0  0
   33.0300  -34.1379   -5.4731 C   0  0  0  0  0  0  0  0  0  0  0  0
   33.0300  -34.4126   -4.1352 C   0  0  0  0  0  0  0  0  0  0  0  0
   31.8486  -34.3209   -3.4628 C   0  0  0  0  0  0  0  0  0  0  0  0
   27.9304  -35.1930   -1.7860 C   0  0  0  0  0  0  0  0  0  0  0  0
   26.9747  -34.3687   -1.8027 O   0  0  0  0  0  0  0  0  0  0  0  0
   25.4952  -38.3471   -0.1566 C   0  0  0  0  0  0  0  0  0  0  0  0
   26.8257  -38.4131    0.5487 C   0  0  2  0  0  0  0  0  0  0  0  0
   27.0266  -39.6996    1.2946 C   0  0  0  0  0  0  0  0  0  0  0  0
   27.2477  -37.1762    1.2283 C   0  0  0  0  0  0  0  0  0  0  0  0
   27.1952  -35.8859    0.5366 C   0  0  2  0  0  0  0  0  0  0  0  0
   28.1025  -35.9944   -0.6337 N   0  0  0  0  0  0  0  0  0  0  0  0
   27.4318  -34.6580    1.2762 C   0  0  0  0  0  0  0  0  0  0  0  0
   28.3916  -33.7214    0.9277 O   0  0  0  0  0  0  0  0  0  0  0  0
   26.7692  -34.3336    2.3261 O   0  0  0  0  0  0  0  0  0  0  0  0
  2  3  2  0
  2  1  1  0
  4  3  1  0
  5  4  2  0
  6  7  1  0
  6  5  1  0
  7  8  1  1
  9  7  1  0
  9 13  1  0
 10  9  2  0
 11  5  1  0
 11 12  2  0
 12  2  1  0
 14 13  1  0
 14 15  1  6
 16 21  1  0
 16 15  1  0
 17 16  2  0
 18 19  2  0
 18 17  1  0
 19 20  1  0
 20 21  2  0
 22 14  1  0
 23 22  2  0
 25 27  1  0
 25 24  1  1
 26 25  1  0
 28 29  1  0
 28 27  1  1
 29 22  1  0
 30 28  1  0
 31 30  1  0
 32 30  2  0
M  END
$$$$
