YFL.pdb
     RDKit          3D

 32 33  0  0  1  0  0  0  0  0999 V2000
   28.3888  -24.9265  -16.4429 O   0  0  0  0  0  0  0  0  0  0  0  0
   27.1908  -24.5732  -15.8467 C   0  0  0  0  0  0  0  0  0  0  0  0
   26.9245  -23.2347  -15.6558 C   0  0  0  0  0  0  0  0  0  0  0  0
   25.7437  -22.7896  -15.0636 C   0  0  0  0  0  0  0  0  0  0  0  0
   24.8186  -23.7481  -14.6602 C   0  0  0  0  0  0  0  0  0  0  0  0
   23.5763  -23.2858  -14.0378 C   0  0  0  0  0  0  0  0  0  0  0  0
   22.4276  -23.2484  -15.0177 C   0  0  2  0  0  0  0  0  0  0  0  0
   22.5964  -22.2204  -16.0093 N   0  0  0  0  0  0  0  0  0  0  0  0
   21.1941  -22.9635  -14.2385 C   0  0  0  0  0  0  0  0  0  0  0  0
   20.9828  -21.8269  -13.7548 O   0  0  0  0  0  0  0  0  0  0  0  0
   25.0598  -25.0844  -14.8388 C   0  0  0  0  0  0  0  0  0  0  0  0
   26.2443  -25.4733  -15.4301 C   0  0  0  0  0  0  0  0  0  0  0  0
   20.1886  -23.9384  -13.9918 N   0  0  0  0  0  0  0  0  0  0  0  0
   18.9468  -23.7468  -13.3538 C   0  0  1  0  0  0  0  0  0  0  0  0
   17.7811  -23.4191  -14.2464 C   0  0  0  0  0  0  0  0  0  0  0  0
   17.9488  -22.1354  -14.9958 C   0  0  0  0  0  0  0  0  0  0  0  0
   17.5724  -20.9080  -14.5740 C   0  0  0  0  0  0  0  0  0  0  0  0
   17.7650  -19.7653  -15.3566 C   0  0  0  0  0  0  0  0  0  0  0  0
   18.3547  -19.8933  -16.5915 C   0  0  0  0  0  0  0  0  0  0  0  0
   18.7517  -21.1136  -17.0595 C   0  0  0  0  0  0  0  0  0  0  0  0
   18.5456  -22.2015  -16.2657 C   0  0  0  0  0  0  0  0  0  0  0  0
   18.5526  -24.8072  -12.4203 C   0  0  0  0  0  0  0  0  0  0  0  0
   18.8568  -25.9960  -12.7154 O   0  0  0  0  0  0  0  0  0  0  0  0
   19.2970  -25.8973   -8.0286 C   0  0  0  0  0  0  0  0  0  0  0  0
   18.2396  -24.8290   -8.1409 C   0  0  2  0  0  0  0  0  0  0  0  0
   17.9014  -24.2027   -6.8198 C   0  0  0  0  0  0  0  0  0  0  0  0
   17.1136  -25.1399   -9.0382 C   0  0  0  0  0  0  0  0  0  0  0  0
   17.3507  -25.6926  -10.3741 C   0  0  2  0  0  0  0  0  0  0  0  0
   17.8548  -24.5755  -11.2123 N   0  0  0  0  0  0  0  0  0  0  0  0
   16.2957  -26.4266  -11.0515 C   0  0  0  0  0  0  0  0  0  0  0  0
   16.2166  -27.8096  -11.0822 O   0  0  0  0  0  0  0  0  0  0  0  0
   15.3401  -25.8531  -11.6876 O   0  0  0  0  0  0  0  0  0  0  0  0
  2  3  2  0
  2  1  1  0
  4  3  1  0
  5  4  2  0
  6  7  1  0
  6  5  1  0
  7  8  1  6
  9  7  1  0
  9 13  1  0
 10  9  2  0
 11  5  1  0
 11 12  2  0
 12  2  1  0
 14 13  1  0
 14 15  1  6
 16 21  1  0
 16 15  1  0
 17 16  2  0
 18 19  2  0
 18 17  1  0
 19 20  1  0
 20 21  2  0
 22 14  1  0
 23 22  2  0
 25 27  1  0
 25 24  1  1
 26 25  1  0
 28 29  1  0
 28 27  1  1
 29 22  1  0
 30 28  1  0
 31 30  1  0
 32 30  2  0
M  END
$$$$
