YFL.pdb
     RDKit          3D

 32 33  0  0  1  0  0  0  0  0999 V2000
   12.6135  -23.5452   -0.9921 O   0  0  0  0  0  0  0  0  0  0  0  0
   13.5282  -22.9890   -0.1149 C   0  0  0  0  0  0  0  0  0  0  0  0
   13.1126  -21.9543    0.6948 C   0  0  0  0  0  0  0  0  0  0  0  0
   13.9667  -21.3359    1.6067 C   0  0  0  0  0  0  0  0  0  0  0  0
   15.2777  -21.7967    1.6833 C   0  0  0  0  0  0  0  0  0  0  0  0
   16.1790  -21.1508    2.6398 C   0  0  0  0  0  0  0  0  0  0  0  0
   16.6685  -19.8102    2.1455 C   0  0  2  0  0  0  0  0  0  0  0  0
   17.4052  -19.9238    0.9156 N   0  0  0  0  0  0  0  0  0  0  0  0
   17.5676  -19.2573    3.1924 C   0  0  0  0  0  0  0  0  0  0  0  0
   18.7881  -19.5411    3.2123 O   0  0  0  0  0  0  0  0  0  0  0  0
   15.7150  -22.8236    0.8894 C   0  0  0  0  0  0  0  0  0  0  0  0
   14.8301  -23.4021    0.0028 C   0  0  0  0  0  0  0  0  0  0  0  0
   17.1172  -18.3866    4.2225 N   0  0  0  0  0  0  0  0  0  0  0  0
   17.8928  -17.7720    5.2258 C   0  0  1  0  0  0  0  0  0  0  0  0
   17.4331  -16.4165    5.6886 C   0  0  0  0  0  0  0  0  0  0  0  0
   17.5484  -15.3587    4.6374 C   0  0  0  0  0  0  0  0  0  0  0  0
   18.6903  -14.9306    4.0553 C   0  0  0  0  0  0  0  0  0  0  0  0
   18.6938  -13.9242    3.0844 C   0  0  0  0  0  0  0  0  0  0  0  0
   17.5009  -13.3531    2.7103 C   0  0  0  0  0  0  0  0  0  0  0  0
   16.3217  -13.7537    3.2711 C   0  0  0  0  0  0  0  0  0  0  0  0
   16.3623  -14.7369    4.2133 C   0  0  0  0  0  0  0  0  0  0  0  0
   18.1772  -18.6077    6.3970 C   0  0  0  0  0  0  0  0  0  0  0  0
   17.2982  -19.4395    6.7555 O   0  0  0  0  0  0  0  0  0  0  0  0
   22.7600  -21.3608    9.1491 C   0  0  0  0  0  0  0  0  0  0  0  0
   21.2725  -21.2571    8.9283 C   0  0  2  0  0  0  0  0  0  0  0  0
   20.6167  -22.5936    8.7403 C   0  0  0  0  0  0  0  0  0  0  0  0
   20.8361  -20.1696    8.0357 C   0  0  0  0  0  0  0  0  0  0  0  0
   19.6160  -19.4105    8.3207 C   0  0  2  0  0  0  0  0  0  0  0  0
   19.3753  -18.5365    7.1448 N   0  0  0  0  0  0  0  0  0  0  0  0
   19.4995  -18.6674    9.5636 C   0  0  0  0  0  0  0  0  0  0  0  0
   19.0708  -19.2249   10.7575 O   0  0  0  0  0  0  0  0  0  0  0  0
   19.7828  -17.4198    9.6633 O   0  0  0  0  0  0  0  0  0  0  0  0
  2  3  2  0
  2  1  1  0
  4  3  1  0
  5  4  2  0
  6  7  1  0
  6  5  1  0
  7  8  1  6
  9  7  1  0
  9 13  1  0
 10  9  2  0
 11  5  1  0
 11 12  2  0
 12  2  1  0
 14 13  1  0
 14 15  1  1
 16 21  1  0
 16 15  1  0
 17 16  2  0
 18 19  2  0
 18 17  1  0
 19 20  1  0
 20 21  2  0
 22 14  1  0
 23 22  2  0
 25 27  1  0
 25 24  1  6
 26 25  1  0
 28 29  1  0
 28 27  1  6
 29 22  1  0
 30 28  1  0
 31 30  1  0
 32 30  2  0
M  END
$$$$
