YFL.pdb
     RDKit          3D

 32 33  0  0  1  0  0  0  0  0999 V2000
   21.0585  -18.3906  -15.7356 O   0  0  0  0  0  0  0  0  0  0  0  0
   21.6821  -18.8406  -14.5848 C   0  0  0  0  0  0  0  0  0  0  0  0
   22.9436  -18.3670  -14.2962 C   0  0  0  0  0  0  0  0  0  0  0  0
   23.6445  -18.7666  -13.1594 C   0  0  0  0  0  0  0  0  0  0  0  0
   23.0288  -19.6747  -12.3031 C   0  0  0  0  0  0  0  0  0  0  0  0
   23.7607  -20.0976  -11.1073 C   0  0  0  0  0  0  0  0  0  0  0  0
   25.0904  -20.7284  -11.4465 C   0  0  2  0  0  0  0  0  0  0  0  0
   24.9346  -21.9612  -12.1708 N   0  0  0  0  0  0  0  0  0  0  0  0
   25.7826  -21.0125  -10.1620 C   0  0  0  0  0  0  0  0  0  0  0  0
   25.4262  -21.9672   -9.4327 O   0  0  0  0  0  0  0  0  0  0  0  0
   21.7757  -20.1602  -12.5679 C   0  0  0  0  0  0  0  0  0  0  0  0
   21.1240  -19.7331  -13.7066 C   0  0  0  0  0  0  0  0  0  0  0  0
   26.8740  -20.2386   -9.6800 N   0  0  0  0  0  0  0  0  0  0  0  0
   27.5241  -20.3553   -8.4352 C   0  0  1  0  0  0  0  0  0  0  0  0
   28.8347  -19.6301   -8.2959 C   0  0  0  0  0  0  0  0  0  0  0  0
   29.3662  -19.6260   -6.8977 C   0  0  0  0  0  0  0  0  0  0  0  0
   29.2330  -18.6300   -5.9942 C   0  0  0  0  0  0  0  0  0  0  0  0
   29.7776  -18.7188   -4.7093 C   0  0  0  0  0  0  0  0  0  0  0  0
   30.4687  -19.8524   -4.3538 C   0  0  0  0  0  0  0  0  0  0  0  0
   30.6287  -20.8848   -5.2336 C   0  0  0  0  0  0  0  0  0  0  0  0
   30.0827  -20.7582   -6.4753 C   0  0  0  0  0  0  0  0  0  0  0  0
   26.6898  -20.0670   -7.2639 C   0  0  0  0  0  0  0  0  0  0  0  0
   25.9353  -19.0563   -7.3114 O   0  0  0  0  0  0  0  0  0  0  0  0
   22.6069  -22.1762   -3.7796 C   0  0  0  0  0  0  0  0  0  0  0  0
   23.6905  -21.1288   -3.8096 C   0  0  2  0  0  0  0  0  0  0  0  0
   23.1664  -19.7414   -3.5811 C   0  0  0  0  0  0  0  0  0  0  0  0
   24.7043  -21.2922   -4.8657 C   0  0  0  0  0  0  0  0  0  0  0  0
   25.9060  -20.4546   -4.8868 C   0  0  2  0  0  0  0  0  0  0  0  0
   26.6807  -20.8538   -6.0889 N   0  0  0  0  0  0  0  0  0  0  0  0
   26.7566  -20.3795   -3.7114 C   0  0  0  0  0  0  0  0  0  0  0  0
   26.7342  -19.3273   -2.8100 O   0  0  0  0  0  0  0  0  0  0  0  0
   27.6111  -21.2866   -3.4056 O   0  0  0  0  0  0  0  0  0  0  0  0
  2  3  2  0
  2  1  1  0
  4  3  1  0
  5  4  2  0
  6  7  1  0
  6  5  1  0
  7  8  1  1
  9  7  1  0
  9 13  1  0
 10  9  2  0
 11  5  1  0
 11 12  2  0
 12  2  1  0
 14 13  1  0
 14 15  1  6
 16 21  1  0
 16 15  1  0
 17 16  2  0
 18 19  2  0
 18 17  1  0
 19 20  1  0
 20 21  2  0
 22 14  1  0
 23 22  2  0
 25 27  1  0
 25 24  1  6
 26 25  1  0
 28 29  1  0
 28 27  1  1
 29 22  1  0
 30 28  1  0
 31 30  1  0
 32 30  2  0
M  END
$$$$
