GVP.pdb
     RDKit          3D

 19 19  0  0  1  0  0  0  0  0999 V2000
   12.8204  -12.1419  -10.5674 N   0  0  0  0  0  0  0  0  0  0  0  0
   14.0959  -11.4596  -10.6237 C   0  0  0  0  0  0  0  0  0  0  0  0
   13.9045   -9.9992  -10.7241 C   0  0  0  0  0  0  0  0  0  0  0  0
   12.7412   -9.5596  -10.9066 O   0  0  0  0  0  0  0  0  0  0  0  0
   16.5795   -7.3694   -8.9247 C   0  0  0  0  0  0  0  0  0  0  0  0
   15.2084   -7.0649   -9.4128 C   0  0  2  0  0  0  0  0  0  0  0  0
   14.2167   -7.4897   -8.3367 C   0  0  0  0  0  0  0  0  0  0  0  0
   14.8303   -7.6651  -10.7558 C   0  0  2  0  0  0  0  0  0  0  0  0
   15.0067   -9.1339  -10.6162 N   0  0  0  0  0  0  0  0  0  0  0  0
   15.7959   -7.2047  -11.7607 C   0  0  0  0  0  0  0  0  0  0  0  0
   16.8527   -7.9330  -11.8940 O   0  0  0  0  0  0  0  0  0  0  0  0
   15.7185   -6.0824  -12.5967 N   0  0  0  0  0  0  0  0  0  0  0  0
   14.6317   -5.0769  -12.5168 C   0  0  0  0  0  0  0  0  0  0  0  0
   14.4051   -4.6989  -13.9520 C   0  0  0  0  0  0  0  0  0  0  0  0
   15.5791   -5.1763  -14.7424 C   0  0  0  0  0  0  0  0  0  0  0  0
   16.5567   -5.6155  -13.6708 C   0  0  1  0  0  0  0  0  0  0  0  0
   17.3618   -4.4205  -13.2289 C   0  0  0  0  0  0  0  0  0  0  0  0
   18.3526   -3.9551  -14.0444 O   0  0  0  0  0  0  0  0  0  0  0  0
   17.1154   -3.8778  -12.1356 O   0  0  0  0  0  0  0  0  0  0  0  0
  1  2  1  0
  3  2  1  0
  3  4  2  0
  6  5  1  1
  6  8  1  0
  7  6  1  0
  8  9  1  1
  9  3  1  0
 10 12  1  0
 10  8  1  0
 11 10  2  0
 12 16  1  0
 13 12  1  0
 13 14  1  0
 14 15  1  0
 16 15  1  0
 17 18  1  0
 16 17  1  1
 19 17  2  0
M  END
$$$$
