GVP.pdb
     RDKit          3D

 19 19  0  0  1  0  0  0  0  0999 V2000
   26.1642  -13.8620  -16.0651 N   0  0  0  0  0  0  0  0  0  0  0  0
   25.3264  -13.0972  -15.1657 C   0  0  0  0  0  0  0  0  0  0  0  0
   24.3094  -12.3359  -15.9178 C   0  0  0  0  0  0  0  0  0  0  0  0
   24.4445  -12.2251  -17.1626 O   0  0  0  0  0  0  0  0  0  0  0  0
   20.9023  -13.2424  -16.4472 C   0  0  0  0  0  0  0  0  0  0  0  0
   20.8924  -11.8979  -15.8125 C   0  0  2  0  0  0  0  0  0  0  0  0
   19.6660  -11.1457  -16.3143 C   0  0  0  0  0  0  0  0  0  0  0  0
   22.1467  -11.0624  -16.0010 C   0  0  2  0  0  0  0  0  0  0  0  0
   23.2217  -11.7546  -15.2439 N   0  0  0  0  0  0  0  0  0  0  0  0
   21.9374   -9.7569  -15.3639 C   0  0  0  0  0  0  0  0  0  0  0  0
   22.0123   -9.7462  -14.0756 O   0  0  0  0  0  0  0  0  0  0  0  0
   21.6723   -8.5214  -15.9702 N   0  0  0  0  0  0  0  0  0  0  0  0
   21.4070   -8.3627  -17.4204 C   0  0  0  0  0  0  0  0  0  0  0  0
   22.0660   -7.0547  -17.7506 C   0  0  0  0  0  0  0  0  0  0  0  0
   22.3338   -6.3395  -16.4669 C   0  0  0  0  0  0  0  0  0  0  0  0
   21.5957   -7.1821  -15.4460 C   0  0  1  0  0  0  0  0  0  0  0  0
   20.1617   -6.7228  -15.3829 C   0  0  0  0  0  0  0  0  0  0  0  0
   19.8527   -5.6279  -14.6285 O   0  0  0  0  0  0  0  0  0  0  0  0
   19.2848   -7.3420  -16.0139 O   0  0  0  0  0  0  0  0  0  0  0  0
  1  2  1  0
  3  2  1  0
  3  4  2  0
  6  5  1  6
  6  8  1  0
  7  6  1  0
  8  9  1  1
  9  3  1  0
 10 12  1  0
 10  8  1  0
 11 10  2  0
 12 16  1  0
 13 12  1  0
 13 14  1  0
 14 15  1  0
 16 15  1  0
 17 18  1  0
 16 17  1  6
 19 17  2  0
M  END
$$$$
