GVP.pdb
     RDKit          3D

 19 19  0  0  1  0  0  0  0  0999 V2000
   20.6137  -20.9522  -12.1248 N   0  0  0  0  0  0  0  0  0  0  0  0
   21.5976  -21.3293  -13.1176 C   0  0  0  0  0  0  0  0  0  0  0  0
   22.8486  -20.5682  -12.9303 C   0  0  0  0  0  0  0  0  0  0  0  0
   22.8005  -19.4855  -12.2937 O   0  0  0  0  0  0  0  0  0  0  0  0
   25.9438  -21.3857  -11.1295 C   0  0  0  0  0  0  0  0  0  0  0  0
   26.2819  -21.1388  -12.5562 C   0  0  2  0  0  0  0  0  0  0  0  0
   27.6892  -20.5579  -12.6165 C   0  0  0  0  0  0  0  0  0  0  0  0
   25.3092  -20.2661  -13.3304 C   0  0  2  0  0  0  0  0  0  0  0  0
   24.0569  -21.0557  -13.4573 N   0  0  0  0  0  0  0  0  0  0  0  0
   25.8376  -20.0679  -14.6852 C   0  0  0  0  0  0  0  0  0  0  0  0
   25.7072  -21.0704  -15.4873 O   0  0  0  0  0  0  0  0  0  0  0  0
   26.4595  -18.9328  -15.2229 N   0  0  0  0  0  0  0  0  0  0  0  0
   27.1158  -17.8914  -14.3962 C   0  0  0  0  0  0  0  0  0  0  0  0
   26.8005  -16.6196  -15.1290 C   0  0  0  0  0  0  0  0  0  0  0  0
   26.3354  -16.9844  -16.5008 C   0  0  0  0  0  0  0  0  0  0  0  0
   26.6264  -18.4698  -16.5765 C   0  0  1  0  0  0  0  0  0  0  0  0
   28.0517  -18.6630  -17.0268 C   0  0  0  0  0  0  0  0  0  0  0  0
   28.3963  -18.3014  -18.2972 O   0  0  0  0  0  0  0  0  0  0  0  0
   28.8892  -19.1454  -16.2418 O   0  0  0  0  0  0  0  0  0  0  0  0
  1  2  1  0
  3  2  1  0
  3  4  2  0
  6  5  1  1
  6  8  1  0
  7  6  1  0
  8  9  1  6
  9  3  1  0
 10 12  1  0
 10  8  1  0
 11 10  2  0
 12 16  1  0
 13 12  1  0
 13 14  1  0
 14 15  1  0
 16 15  1  0
 17 18  1  0
 16 17  1  1
 19 17  2  0
M  END
$$$$
