GVP.pdb
     RDKit          3D

 19 19  0  0  1  0  0  0  0  0999 V2000
   24.4742  -20.6568  -19.5412 N   0  0  0  0  0  0  0  0  0  0  0  0
   23.9151  -19.9934  -18.3823 C   0  0  0  0  0  0  0  0  0  0  0  0
   24.9436  -19.8044  -17.3403 C   0  0  0  0  0  0  0  0  0  0  0  0
   26.0219  -20.4424  -17.4414 O   0  0  0  0  0  0  0  0  0  0  0  0
   26.1096  -16.3421  -15.9857 C   0  0  0  0  0  0  0  0  0  0  0  0
   25.7310  -17.2576  -14.8770 C   0  0  2  0  0  0  0  0  0  0  0  0
   26.6450  -16.9707  -13.6920 C   0  0  0  0  0  0  0  0  0  0  0  0
   25.7322  -18.7402  -15.2068 C   0  0  2  0  0  0  0  0  0  0  0  0
   24.7081  -18.9283  -16.2669 N   0  0  0  0  0  0  0  0  0  0  0  0
   25.2758  -19.4811  -14.0249 C   0  0  0  0  0  0  0  0  0  0  0  0
   23.9964  -19.5753  -13.8849 O   0  0  0  0  0  0  0  0  0  0  0  0
   26.0459  -20.1030  -13.0326 N   0  0  0  0  0  0  0  0  0  0  0  0
   27.4674  -19.7707  -12.7729 C   0  0  0  0  0  0  0  0  0  0  0  0
   28.0735  -21.0985  -12.4211 C   0  0  0  0  0  0  0  0  0  0  0  0
   26.9587  -22.0441  -12.1142 C   0  0  0  0  0  0  0  0  0  0  0  0
   25.7431  -21.1397  -12.0797 C   0  0  1  0  0  0  0  0  0  0  0  0
   25.6091  -20.5592  -10.6953 C   0  0  0  0  0  0  0  0  0  0  0  0
   26.0054  -19.2709  -10.4795 O   0  0  0  0  0  0  0  0  0  0  0  0
   25.1428  -21.2555   -9.7744 O   0  0  0  0  0  0  0  0  0  0  0  0
  1  2  1  0
  3  2  1  0
  3  4  2  0
  6  5  1  6
  6  8  1  0
  7  6  1  0
  8  9  1  6
  9  3  1  0
 10 12  1  0
 10  8  1  0
 11 10  2  0
 12 16  1  0
 13 12  1  0
 13 14  1  0
 14 15  1  0
 16 15  1  0
 17 18  1  0
 16 17  1  1
 19 17  2  0
M  END
$$$$
