GVP.pdb
     RDKit          3D

 19 19  0  0  1  0  0  0  0  0999 V2000
   22.2396  -20.7680  -11.1243 N   0  0  0  0  0  0  0  0  0  0  0  0
   23.2856  -19.8330  -10.7678 C   0  0  0  0  0  0  0  0  0  0  0  0
   24.2964  -20.4807   -9.9086 C   0  0  0  0  0  0  0  0  0  0  0  0
   23.9750  -21.5281   -9.2924 O   0  0  0  0  0  0  0  0  0  0  0  0
   27.6710  -21.6145  -11.0921 C   0  0  0  0  0  0  0  0  0  0  0  0
   27.8403  -20.7418   -9.9003 C   0  0  2  0  0  0  0  0  0  0  0  0
   29.0494  -21.2381   -9.1170 C   0  0  0  0  0  0  0  0  0  0  0  0
   26.6303  -20.6126   -8.9913 C   0  0  2  0  0  0  0  0  0  0  0  0
   25.5832  -19.9275   -9.7926 N   0  0  0  0  0  0  0  0  0  0  0  0
   26.9772  -19.7224   -7.8772 C   0  0  0  0  0  0  0  0  0  0  0  0
   26.7080  -18.4731   -8.0562 O   0  0  0  0  0  0  0  0  0  0  0  0
   27.5568  -20.0513   -6.6442 N   0  0  0  0  0  0  0  0  0  0  0  0
   28.1535  -21.3762   -6.3488 C   0  0  0  0  0  0  0  0  0  0  0  0
   27.7939  -21.6034   -4.9090 C   0  0  0  0  0  0  0  0  0  0  0  0
   27.3669  -20.2939   -4.3312 C   0  0  0  0  0  0  0  0  0  0  0  0
   27.7243  -19.3057   -5.4233 C   0  0  1  0  0  0  0  0  0  0  0  0
   29.1635  -18.8926   -5.2522 C   0  0  0  0  0  0  0  0  0  0  0  0
   29.4876  -18.0365   -4.2395 O   0  0  0  0  0  0  0  0  0  0  0  0
   30.0309  -19.3332   -6.0293 O   0  0  0  0  0  0  0  0  0  0  0  0
  1  2  1  0
  3  2  1  0
  3  4  2  0
  6  5  1  6
  6  8  1  0
  7  6  1  0
  8  9  1  6
  9  3  1  0
 10 12  1  0
 10  8  1  0
 11 10  2  0
 12 16  1  0
 13 12  1  0
 13 14  1  0
 14 15  1  0
 16 15  1  0
 17 18  1  0
 16 17  1  1
 19 17  2  0
M  END
$$$$
