GVP.pdb
     RDKit          3D

 19 19  0  0  1  0  0  0  0  0999 V2000
   24.7665  -25.2039  -15.9979 N   0  0  0  0  0  0  0  0  0  0  0  0
   24.1968  -23.9279  -15.6200 C   0  0  0  0  0  0  0  0  0  0  0  0
   25.2254  -23.0501  -15.0276 C   0  0  0  0  0  0  0  0  0  0  0  0
   26.3846  -23.5095  -14.8692 O   0  0  0  0  0  0  0  0  0  0  0  0
   25.7855  -19.2846  -16.0564 C   0  0  0  0  0  0  0  0  0  0  0  0
   25.6512  -19.4538  -14.5853 C   0  0  2  0  0  0  0  0  0  0  0  0
   26.5510  -18.4288  -13.9060 C   0  0  0  0  0  0  0  0  0  0  0  0
   25.9260  -20.8472  -14.0468 C   0  0  2  0  0  0  0  0  0  0  0  0
   24.9009  -21.7345  -14.6547 N   0  0  0  0  0  0  0  0  0  0  0  0
   25.6921  -20.8414  -12.5979 C   0  0  0  0  0  0  0  0  0  0  0  0
   24.4626  -20.9775  -12.2304 O   0  0  0  0  0  0  0  0  0  0  0  0
   26.6280  -20.7127  -11.5625 N   0  0  0  0  0  0  0  0  0  0  0  0
   28.0170  -20.2373  -11.7704 C   0  0  0  0  0  0  0  0  0  0  0  0
   28.8131  -21.0633  -10.8019 C   0  0  0  0  0  0  0  0  0  0  0  0
   27.8588  -21.6765   -9.8301 C   0  0  0  0  0  0  0  0  0  0  0  0
   26.5513  -20.9797  -10.1492 C   0  0  1  0  0  0  0  0  0  0  0  0
   26.4865  -19.6897   -9.3727 C   0  0  0  0  0  0  0  0  0  0  0  0
   26.0941  -19.7260   -8.0657 O   0  0  0  0  0  0  0  0  0  0  0  0
   26.7889  -18.6169   -9.9278 O   0  0  0  0  0  0  0  0  0  0  0  0
  1  2  1  0
  3  2  1  0
  3  4  2  0
  6  5  1  6
  6  8  1  0
  7  6  1  0
  8  9  1  6
  9  3  1  0
 10 12  1  0
 10  8  1  0
 11 10  2  0
 12 16  1  0
 13 12  1  0
 13 14  1  0
 14 15  1  0
 16 15  1  0
 17 18  1  0
 16 17  1  1
 19 17  2  0
M  END
$$$$
