GVP.pdb
     RDKit          3D

 19 19  0  0  1  0  0  0  0  0999 V2000
   25.5954  -37.6928  -12.5028 N   0  0  0  0  0  0  0  0  0  0  0  0
   24.7525  -37.0977  -11.4874 C   0  0  0  0  0  0  0  0  0  0  0  0
   25.4900  -36.0640  -10.7345 C   0  0  0  0  0  0  0  0  0  0  0  0
   26.6698  -35.8005  -11.0791 O   0  0  0  0  0  0  0  0  0  0  0  0
   24.5911  -32.5271  -10.4885 C   0  0  0  0  0  0  0  0  0  0  0  0
   24.7088  -33.0672   -9.1082 C   0  0  2  0  0  0  0  0  0  0  0  0
   25.1965  -31.9452   -8.1999 C   0  0  0  0  0  0  0  0  0  0  0  0
   25.5786  -34.3020   -8.9475 C   0  0  2  0  0  0  0  0  0  0  0  0
   24.8742  -35.3990   -9.6604 N   0  0  0  0  0  0  0  0  0  0  0  0
   25.6181  -34.6624   -7.5253 C   0  0  0  0  0  0  0  0  0  0  0  0
   24.5138  -35.1135   -7.0330 O   0  0  0  0  0  0  0  0  0  0  0  0
   26.6974  -34.5860   -6.6344 N   0  0  0  0  0  0  0  0  0  0  0  0
   27.9173  -33.7845   -6.8951 C   0  0  0  0  0  0  0  0  0  0  0  0
   29.0144  -34.6255   -6.3094 C   0  0  0  0  0  0  0  0  0  0  0  0
   28.3840  -35.6463   -5.4196 C   0  0  0  0  0  0  0  0  0  0  0  0
   26.9389  -35.1945   -5.3515 C   0  0  1  0  0  0  0  0  0  0  0  0
   26.8006  -34.1744   -4.2508 C   0  0  0  0  0  0  0  0  0  0  0  0
   26.8457  -34.5949   -2.9529 O   0  0  0  0  0  0  0  0  0  0  0  0
   26.6483  -32.9720   -4.5363 O   0  0  0  0  0  0  0  0  0  0  0  0
  1  2  1  0
  3  2  1  0
  3  4  2  0
  6  5  1  6
  6  8  1  0
  7  6  1  0
  8  9  1  6
  9  3  1  0
 10 12  1  0
 10  8  1  0
 11 10  2  0
 12 16  1  0
 13 12  1  0
 13 14  1  0
 14 15  1  0
 16 15  1  0
 17 18  1  0
 16 17  1  1
 19 17  2  0
M  END
$$$$
