GVP.pdb
     RDKit          3D

 19 19  0  0  1  0  0  0  0  0999 V2000
   24.2533  -21.9290  -12.0856 N   0  0  0  0  0  0  0  0  0  0  0  0
   24.5407  -20.9491  -11.0595 C   0  0  0  0  0  0  0  0  0  0  0  0
   25.7660  -21.3100  -10.3194 C   0  0  0  0  0  0  0  0  0  0  0  0
   26.1297  -22.5132  -10.3152 O   0  0  0  0  0  0  0  0  0  0  0  0
   29.0657  -20.4095  -11.0647 C   0  0  0  0  0  0  0  0  0  0  0  0
   28.8778  -19.9972   -9.6485 C   0  0  2  0  0  0  0  0  0  0  0  0
   30.1971  -20.2053   -8.9150 C   0  0  0  0  0  0  0  0  0  0  0  0
   27.7391  -20.6717   -8.9033 C   0  0  2  0  0  0  0  0  0  0  0  0
   26.4978  -20.3206   -9.6406 N   0  0  0  0  0  0  0  0  0  0  0  0
   27.6361  -20.0719   -7.5677 C   0  0  0  0  0  0  0  0  0  0  0  0
   26.6850  -19.2136   -7.4132 O   0  0  0  0  0  0  0  0  0  0  0  0
   28.4308  -20.3124   -6.4385 N   0  0  0  0  0  0  0  0  0  0  0  0
   29.7290  -21.0269   -6.4896 C   0  0  0  0  0  0  0  0  0  0  0  0
   29.7401  -21.8143   -5.2114 C   0  0  0  0  0  0  0  0  0  0  0  0
   28.6834  -21.2522   -4.3178 C   0  0  0  0  0  0  0  0  0  0  0  0
   28.2549  -19.9934   -5.0450 C   0  0  1  0  0  0  0  0  0  0  0  0
   29.1704  -18.8655   -4.6437 C   0  0  0  0  0  0  0  0  0  0  0  0
   29.0254  -18.3073   -3.4065 O   0  0  0  0  0  0  0  0  0  0  0  0
   30.0393  -18.4606   -5.4383 O   0  0  0  0  0  0  0  0  0  0  0  0
  1  2  1  0
  3  2  1  0
  3  4  2  0
  6  5  1  6
  6  8  1  0
  7  6  1  0
  8  9  1  6
  9  3  1  0
 10 12  1  0
 10  8  1  0
 11 10  2  0
 12 16  1  0
 13 12  1  0
 13 14  1  0
 14 15  1  0
 16 15  1  0
 17 18  1  0
 16 17  1  1
 19 17  2  0
M  END
$$$$
