GVP.pdb
     RDKit          3D

 19 19  0  0  1  0  0  0  0  0999 V2000
   20.3521  -12.8276  -18.9610 N   0  0  0  0  0  0  0  0  0  0  0  0
   21.1311  -11.6287  -18.7341 C   0  0  0  0  0  0  0  0  0  0  0  0
   21.0381  -11.2030  -17.3236 C   0  0  0  0  0  0  0  0  0  0  0  0
   20.1159  -11.6792  -16.6147 O   0  0  0  0  0  0  0  0  0  0  0  0
   24.3098  -10.0856  -15.0208 C   0  0  0  0  0  0  0  0  0  0  0  0
   22.9195  -10.4010  -14.5987 C   0  0  2  0  0  0  0  0  0  0  0  0
   22.7632  -11.9165  -14.5754 C   0  0  0  0  0  0  0  0  0  0  0  0
   21.8125   -9.7615  -15.4188 C   0  0  2  0  0  0  0  0  0  0  0  0
   21.9662  -10.2864  -16.8003 N   0  0  0  0  0  0  0  0  0  0  0  0
   22.0502   -8.3143  -15.4745 C   0  0  0  0  0  0  0  0  0  0  0  0
   23.0523   -7.9406  -16.1965 O   0  0  0  0  0  0  0  0  0  0  0  0
   21.3296   -7.2861  -14.8515 N   0  0  0  0  0  0  0  0  0  0  0  0
   20.1663   -7.5249  -13.9637 C   0  0  0  0  0  0  0  0  0  0  0  0
   19.2496   -6.3789  -14.2803 C   0  0  0  0  0  0  0  0  0  0  0  0
   20.0428   -5.3463  -15.0122 C   0  0  0  0  0  0  0  0  0  0  0  0
   21.4653   -5.8525  -14.8820 C   0  0  1  0  0  0  0  0  0  0  0  0
   22.0423   -5.3507  -13.5833 C   0  0  0  0  0  0  0  0  0  0  0  0
   22.2289   -6.2344  -12.5598 O   0  0  0  0  0  0  0  0  0  0  0  0
   22.3388   -4.1475  -13.4614 O   0  0  0  0  0  0  0  0  0  0  0  0
  1  2  1  0
  3  2  1  0
  3  4  2  0
  6  5  1  6
  6  8  1  0
  7  6  1  0
  8  9  1  6
  9  3  1  0
 10 12  1  0
 10  8  1  0
 11 10  2  0
 12 16  1  0
 13 12  1  0
 13 14  1  0
 14 15  1  0
 16 15  1  0
 17 18  1  0
 16 17  1  1
 19 17  2  0
M  END
$$$$
