GVP.pdb
     RDKit          3D

 19 19  0  0  1  0  0  0  0  0999 V2000
   27.6148  -19.8556  -20.5447 N   0  0  0  0  0  0  0  0  0  0  0  0
   26.4958  -19.3034  -19.8108 C   0  0  0  0  0  0  0  0  0  0  0  0
   26.5724  -19.6726  -18.3834 C   0  0  0  0  0  0  0  0  0  0  0  0
   27.2457  -20.6843  -18.0626 O   0  0  0  0  0  0  0  0  0  0  0  0
   27.6232  -17.3189  -15.5809 C   0  0  0  0  0  0  0  0  0  0  0  0
   26.3165  -17.9477  -15.2526 C   0  0  2  0  0  0  0  0  0  0  0  0
   26.2512  -18.1450  -13.7430 C   0  0  0  0  0  0  0  0  0  0  0  0
   26.0006  -19.2454  -15.9759 C   0  0  2  0  0  0  0  0  0  0  0  0
   25.9030  -18.9012  -17.4180 N   0  0  0  0  0  0  0  0  0  0  0  0
   24.6746  -19.7067  -15.5481 C   0  0  0  0  0  0  0  0  0  0  0  0
   23.6718  -19.0915  -16.0783 O   0  0  0  0  0  0  0  0  0  0  0  0
   24.3551  -20.7295  -14.6446 N   0  0  0  0  0  0  0  0  0  0  0  0
   25.3504  -21.3751  -13.7552 C   0  0  0  0  0  0  0  0  0  0  0  0
   24.9023  -22.8075  -13.7183 C   0  0  0  0  0  0  0  0  0  0  0  0
   23.5034  -22.8636  -14.2388 C   0  0  0  0  0  0  0  0  0  0  0  0
   23.1179  -21.4015  -14.3409 C   0  0  1  0  0  0  0  0  0  0  0  0
   22.5851  -20.9456  -13.0068 C   0  0  0  0  0  0  0  0  0  0  0  0
   21.2987  -21.2545  -12.6703 O   0  0  0  0  0  0  0  0  0  0  0  0
   23.3181  -20.2990  -12.2354 O   0  0  0  0  0  0  0  0  0  0  0  0
  1  2  1  0
  3  2  1  0
  3  4  2  0
  6  5  1  1
  6  8  1  0
  7  6  1  0
  8  9  1  6
  9  3  1  0
 10 12  1  0
 10  8  1  0
 11 10  2  0
 12 16  1  0
 13 12  1  0
 13 14  1  0
 14 15  1  0
 16 15  1  0
 17 18  1  0
 16 17  1  1
 19 17  2  0
M  END
$$$$
