GVP.pdb
     RDKit          3D

 19 19  0  0  1  0  0  0  0  0999 V2000
   28.6023  -20.4419  -17.9256 N   0  0  0  0  0  0  0  0  0  0  0  0
   27.9612  -19.6689  -16.8829 C   0  0  0  0  0  0  0  0  0  0  0  0
   27.3017  -20.5558  -15.9040 C   0  0  0  0  0  0  0  0  0  0  0  0
   27.1775  -21.7737  -16.1890 O   0  0  0  0  0  0  0  0  0  0  0  0
   28.2136  -20.7672  -12.2296 C   0  0  0  0  0  0  0  0  0  0  0  0
   26.7425  -20.5881  -12.3508 C   0  0  2  0  0  0  0  0  0  0  0  0
   26.0731  -21.4080  -11.2547 C   0  0  0  0  0  0  0  0  0  0  0  0
   26.1407  -20.9148  -13.7066 C   0  0  2  0  0  0  0  0  0  0  0  0
   26.8293  -20.0358  -14.6868 N   0  0  0  0  0  0  0  0  0  0  0  0
   24.7252  -20.5270  -13.6939 C   0  0  0  0  0  0  0  0  0  0  0  0
   24.4939  -19.2581  -13.7332 O   0  0  0  0  0  0  0  0  0  0  0  0
   23.5936  -21.3528  -13.6499 N   0  0  0  0  0  0  0  0  0  0  0  0
   23.6530  -22.8065  -13.3638 C   0  0  0  0  0  0  0  0  0  0  0  0
   22.5840  -23.3766  -14.2504 C   0  0  0  0  0  0  0  0  0  0  0  0
   21.7138  -22.2496  -14.7019 C   0  0  0  0  0  0  0  0  0  0  0  0
   22.1929  -21.0876  -13.8551 C   0  0  1  0  0  0  0  0  0  0  0  0
   21.4553  -21.1081  -12.5409 C   0  0  0  0  0  0  0  0  0  0  0  0
   22.0890  -21.6012  -11.4370 O   0  0  0  0  0  0  0  0  0  0  0  0
   20.2881  -20.6790  -12.4792 O   0  0  0  0  0  0  0  0  0  0  0  0
  1  2  1  0
  3  2  1  0
  3  4  2  0
  6  5  1  6
  6  8  1  0
  7  6  1  0
  8  9  1  6
  9  3  1  0
 10 12  1  0
 10  8  1  0
 11 10  2  0
 12 16  1  0
 13 12  1  0
 13 14  1  0
 14 15  1  0
 16 15  1  0
 17 18  1  0
 16 17  1  1
 19 17  2  0
M  END
$$$$
