GVP.pdb
     RDKit          3D

 19 19  0  0  1  0  0  0  0  0999 V2000
   22.1022  -14.7190  -19.2608 N   0  0  0  0  0  0  0  0  0  0  0  0
   22.6277  -13.3743  -19.3660 C   0  0  0  0  0  0  0  0  0  0  0  0
   22.8812  -12.8049  -18.0277 C   0  0  0  0  0  0  0  0  0  0  0  0
   22.4509  -13.4250  -17.0226 O   0  0  0  0  0  0  0  0  0  0  0  0
   25.8291  -10.1646  -15.2058 C   0  0  0  0  0  0  0  0  0  0  0  0
   25.3321  -10.7487  -16.4796 C   0  0  2  0  0  0  0  0  0  0  0  0
   25.7769   -9.8435  -17.6218 C   0  0  0  0  0  0  0  0  0  0  0  0
   23.8377  -11.0100  -16.5550 C   0  0  2  0  0  0  0  0  0  0  0  0
   23.5883  -11.5974  -17.8968 N   0  0  0  0  0  0  0  0  0  0  0  0
   23.1363   -9.7216  -16.5070 C   0  0  0  0  0  0  0  0  0  0  0  0
   23.0792   -9.0754  -17.6225 O   0  0  0  0  0  0  0  0  0  0  0  0
   22.5168   -9.1045  -15.4116 N   0  0  0  0  0  0  0  0  0  0  0  0
   22.6660   -9.5781  -14.0145 C   0  0  0  0  0  0  0  0  0  0  0  0
   21.3088   -9.3343  -13.4207 C   0  0  0  0  0  0  0  0  0  0  0  0
   20.5710   -8.4064  -14.3295 C   0  0  0  0  0  0  0  0  0  0  0  0
   21.6399   -7.9666  -15.3097 C   0  0  1  0  0  0  0  0  0  0  0  0
   22.3750   -6.7860  -14.7290 C   0  0  0  0  0  0  0  0  0  0  0  0
   21.7570   -5.5689  -14.7103 O   0  0  0  0  0  0  0  0  0  0  0  0
   23.5260   -6.9341  -14.2777 O   0  0  0  0  0  0  0  0  0  0  0  0
  1  2  1  0
  3  2  1  0
  3  4  2  0
  6  5  1  1
  6  8  1  0
  7  6  1  0
  8  9  1  6
  9  3  1  0
 10 12  1  0
 10  8  1  0
 11 10  2  0
 12 16  1  0
 13 12  1  0
 13 14  1  0
 14 15  1  0
 16 15  1  0
 17 18  1  0
 16 17  1  1
 19 17  2  0
M  END
$$$$
