GVP.pdb
     RDKit          3D

 19 19  0  0  1  0  0  0  0  0999 V2000
   26.6114  -12.0631  -16.2617 N   0  0  0  0  0  0  0  0  0  0  0  0
   25.6660  -11.6055  -15.2654 C   0  0  0  0  0  0  0  0  0  0  0  0
   24.5929  -10.8067  -15.8899 C   0  0  0  0  0  0  0  0  0  0  0  0
   24.5793  -10.6984  -17.1421 O   0  0  0  0  0  0  0  0  0  0  0  0
   21.0831  -11.5192  -15.9763 C   0  0  0  0  0  0  0  0  0  0  0  0
   21.2311  -10.1706  -15.3679 C   0  0  2  0  0  0  0  0  0  0  0  0
   20.0060   -9.3449  -15.7410 C   0  0  0  0  0  0  0  0  0  0  0  0
   22.5066   -9.4207  -15.7112 C   0  0  2  0  0  0  0  0  0  0  0  0
   23.6169  -10.1881  -15.0900 N   0  0  0  0  0  0  0  0  0  0  0  0
   22.4658   -8.1076  -15.0567 C   0  0  0  0  0  0  0  0  0  0  0  0
   22.6362   -8.1161  -13.7776 O   0  0  0  0  0  0  0  0  0  0  0  0
   22.2715   -6.8473  -15.6384 N   0  0  0  0  0  0  0  0  0  0  0  0
   21.8974   -6.6518  -17.0598 C   0  0  0  0  0  0  0  0  0  0  0  0
   22.6503   -5.4122  -17.4474 C   0  0  0  0  0  0  0  0  0  0  0  0
   23.0983   -4.7369  -16.1927 C   0  0  0  0  0  0  0  0  0  0  0  0
   22.3731   -5.5112  -15.1103 C   0  0  1  0  0  0  0  0  0  0  0  0
   21.0022   -4.9141  -14.9220 C   0  0  0  0  0  0  0  0  0  0  0  0
   20.8612   -3.8332  -14.1004 O   0  0  0  0  0  0  0  0  0  0  0  0
   20.0244   -5.4096  -15.5127 O   0  0  0  0  0  0  0  0  0  0  0  0
  1  2  1  0
  3  2  1  0
  3  4  2  0
  6  5  1  6
  6  8  1  0
  7  6  1  0
  8  9  1  1
  9  3  1  0
 10 12  1  0
 10  8  1  0
 11 10  2  0
 12 16  1  0
 13 12  1  0
 13 14  1  0
 14 15  1  0
 16 15  1  0
 17 18  1  0
 16 17  1  6
 19 17  2  0
M  END
$$$$
