GVP.pdb
     RDKit          3D

 19 19  0  0  1  0  0  0  0  0999 V2000
   16.7432  -14.9994  -15.8520 N   0  0  0  0  0  0  0  0  0  0  0  0
   16.7619  -13.5546  -15.9402 C   0  0  0  0  0  0  0  0  0  0  0  0
   18.1254  -13.0649  -16.2238 C   0  0  0  0  0  0  0  0  0  0  0  0
   19.0879  -13.8614  -16.0851 O   0  0  0  0  0  0  0  0  0  0  0  0
   19.6640  -11.7910  -19.3737 C   0  0  0  0  0  0  0  0  0  0  0  0
   19.7106  -10.7362  -18.3268 C   0  0  2  0  0  0  0  0  0  0  0  0
   20.9321   -9.8633  -18.5873 C   0  0  0  0  0  0  0  0  0  0  0  0
   19.6982  -11.2236  -16.8883 C   0  0  2  0  0  0  0  0  0  0  0  0
   18.3265  -11.7371  -16.6381 N   0  0  0  0  0  0  0  0  0  0  0  0
   19.8989  -10.0699  -16.0035 C   0  0  0  0  0  0  0  0  0  0  0  0
   18.8696   -9.3099  -15.8353 O   0  0  0  0  0  0  0  0  0  0  0  0
   21.0583   -9.6888  -15.3144 N   0  0  0  0  0  0  0  0  0  0  0  0
   22.3954  -10.2726  -15.5786 C   0  0  0  0  0  0  0  0  0  0  0  0
   23.0209  -10.3335  -14.2151 C   0  0  0  0  0  0  0  0  0  0  0  0
   22.2220   -9.4591  -13.3050 C   0  0  0  0  0  0  0  0  0  0  0  0
   21.2877   -8.7388  -14.2564 C   0  0  1  0  0  0  0  0  0  0  0  0
   21.9871   -7.5152  -14.7903 C   0  0  0  0  0  0  0  0  0  0  0  0
   22.1112   -6.4219  -13.9825 O   0  0  0  0  0  0  0  0  0  0  0  0
   22.4387   -7.5169  -15.9506 O   0  0  0  0  0  0  0  0  0  0  0  0
  1  2  1  0
  3  2  1  0
  3  4  2  0
  6  5  1  6
  6  8  1  0
  7  6  1  0
  8  9  1  1
  9  3  1  0
 10 12  1  0
 10  8  1  0
 11 10  2  0
 12 16  1  0
 13 12  1  0
 13 14  1  0
 14 15  1  0
 16 15  1  0
 17 18  1  0
 16 17  1  6
 19 17  2  0
M  END
$$$$
