GVP.pdb
     RDKit          3D

 19 19  0  0  1  0  0  0  0  0999 V2000
   24.0732  -21.3225  -10.8280 N   0  0  0  0  0  0  0  0  0  0  0  0
   24.0181  -21.1807  -12.2677 C   0  0  0  0  0  0  0  0  0  0  0  0
   24.7837  -19.9973  -12.7069 C   0  0  0  0  0  0  0  0  0  0  0  0
   25.0461  -19.1065  -11.8598 O   0  0  0  0  0  0  0  0  0  0  0  0
   28.1573  -20.1395  -13.9493 C   0  0  0  0  0  0  0  0  0  0  0  0
   27.3663  -19.3927  -14.9628 C   0  0  2  0  0  0  0  0  0  0  0  0
   28.2729  -18.3417  -15.5916 C   0  0  0  0  0  0  0  0  0  0  0  0
   26.0768  -18.7602  -14.4685 C   0  0  2  0  0  0  0  0  0  0  0  0
   25.2021  -19.8838  -14.0437 N   0  0  0  0  0  0  0  0  0  0  0  0
   25.4174  -18.0998  -15.6012 C   0  0  0  0  0  0  0  0  0  0  0  0
   24.9034  -18.8878  -16.4845 O   0  0  0  0  0  0  0  0  0  0  0  0
   25.2684  -16.7279  -15.8464 N   0  0  0  0  0  0  0  0  0  0  0  0
   26.0761  -15.6842  -15.1706 C   0  0  0  0  0  0  0  0  0  0  0  0
   25.0991  -14.5600  -14.9819 C   0  0  0  0  0  0  0  0  0  0  0  0
   23.9240  -14.8208  -15.8664 C   0  0  0  0  0  0  0  0  0  0  0  0
   24.3866  -15.9895  -16.7133 C   0  0  1  0  0  0  0  0  0  0  0  0
   25.1427  -15.4572  -17.9035 C   0  0  0  0  0  0  0  0  0  0  0  0
   26.4980  -15.6141  -17.9473 O   0  0  0  0  0  0  0  0  0  0  0  0
   24.5275  -14.8864  -18.8233 O   0  0  0  0  0  0  0  0  0  0  0  0
  1  2  1  0
  3  2  1  0
  3  4  2  0
  6  5  1  1
  6  8  1  0
  7  6  1  0
  8  9  1  6
  9  3  1  0
 10 12  1  0
 10  8  1  0
 11 10  2  0
 12 16  1  0
 13 12  1  0
 13 14  1  0
 14 15  1  0
 16 15  1  0
 17 18  1  0
 16 17  1  6
 19 17  2  0
M  END
$$$$
