IFG.pdb
     RDKit          3D

 24 24  0  0  1  0  0  0  0  0999 V2000
   17.8861  -10.0972  -21.2096 C   0  0  0  0  0  0  0  0  0  0  0  0
   19.1602  -10.0781  -20.4000 C   0  0  0  0  0  0  0  0  0  0  0  0
   19.0719   -9.1915  -19.2058 C   0  0  2  0  0  0  0  0  0  0  0  0
   18.6880   -7.7923  -19.6310 C   0  0  0  0  0  0  0  0  0  0  0  0
   20.2690   -9.2351  -18.3273 C   0  0  2  0  0  0  0  0  0  0  0  0
   20.6445  -10.6163  -17.9994 N   0  0  0  0  0  0  0  0  0  0  0  0
   20.2251   -8.4300  -17.1106 C   0  0  0  0  0  0  0  0  0  0  0  0
   19.5659   -8.6786  -16.0700 O   0  0  0  0  0  0  0  0  0  0  0  0
   21.0030   -7.2303  -17.0728 N   0  0  0  0  0  0  0  0  0  0  0  0
   21.0579   -6.4018  -15.8611 C   0  0  1  0  0  0  0  0  0  0  0  0
   22.4415   -6.4972  -15.2621 C   0  0  0  0  0  0  0  0  0  0  0  0
   22.7658   -7.8045  -14.6890 C   0  0  0  0  0  0  0  0  0  0  0  0
   23.7522   -8.6365  -15.2466 C   0  0  0  0  0  0  0  0  0  0  0  0
   24.0646   -9.8554  -14.7238 C   0  0  0  0  0  0  0  0  0  0  0  0
   23.4199  -10.3316  -13.6128 C   0  0  0  0  0  0  0  0  0  0  0  0
   22.4341   -9.5281  -13.0351 C   0  0  0  0  0  0  0  0  0  0  0  0
   22.1297   -8.3000  -13.5739 C   0  0  0  0  0  0  0  0  0  0  0  0
   20.7900   -5.0209  -16.2700 C   0  0  0  0  0  0  0  0  0  0  0  0
   21.4179   -4.5368  -17.2359 O   0  0  0  0  0  0  0  0  0  0  0  0
   19.8393   -4.1915  -15.6232 N   0  0  0  0  0  0  0  0  0  0  0  0
   19.6456   -2.8376  -16.1196 C   0  0  0  0  0  0  0  0  0  0  0  0
   18.5630   -2.7670  -17.1178 C   0  0  0  0  0  0  0  0  0  0  0  0
   17.9991   -1.5619  -17.4893 O   0  0  0  0  0  0  0  0  0  0  0  0
   18.1414   -3.8206  -17.6438 O   0  0  0  0  0  0  0  0  0  0  0  0
  2  1  1  0
  3  2  1  0
  3  5  1  0
  3  4  1  6
  5  6  1  1
  5  7  1  0
  7  8  2  0
  9  7  1  0
  9 10  1  0
 10 11  1  6
 11 12  1  0
 12 13  2  0
 13 14  1  0
 15 14  2  0
 16 15  1  0
 17 12  1  0
 17 16  2  0
 18 10  1  0
 18 20  1  0
 19 18  2  0
 21 22  1  0
 21 20  1  0
 22 23  1  0
 24 22  2  0
M  END
$$$$
