IFG.pdb
     RDKit          3D

 24 24  0  0  1  0  0  0  0  0999 V2000
   25.2815  -15.7600  -16.1608 C   0  0  0  0  0  0  0  0  0  0  0  0
   26.3164  -16.2619  -15.1830 C   0  0  0  0  0  0  0  0  0  0  0  0
   26.1256  -17.6958  -14.8259 C   0  0  2  0  0  0  0  0  0  0  0  0
   24.7044  -17.9263  -14.3644 C   0  0  0  0  0  0  0  0  0  0  0  0
   27.1460  -18.2288  -13.8872 C   0  0  2  0  0  0  0  0  0  0  0  0
   28.5062  -18.0329  -14.4047 N   0  0  0  0  0  0  0  0  0  0  0  0
   26.9776  -19.6088  -13.4425 C   0  0  0  0  0  0  0  0  0  0  0  0
   27.4822  -20.6330  -13.9677 O   0  0  0  0  0  0  0  0  0  0  0  0
   26.1595  -19.8474  -12.2938 N   0  0  0  0  0  0  0  0  0  0  0  0
   26.0368  -21.1932  -11.7183 C   0  0  1  0  0  0  0  0  0  0  0  0
   25.7161  -21.0718  -10.2471 C   0  0  0  0  0  0  0  0  0  0  0  0
   26.8687  -20.7673   -9.3977 C   0  0  0  0  0  0  0  0  0  0  0  0
   28.1391  -21.3166   -9.6436 C   0  0  0  0  0  0  0  0  0  0  0  0
   29.2206  -21.0420   -8.8617 C   0  0  0  0  0  0  0  0  0  0  0  0
   29.1154  -20.2039   -7.7831 C   0  0  0  0  0  0  0  0  0  0  0  0
   27.8658  -19.6417   -7.5121 C   0  0  0  0  0  0  0  0  0  0  0  0
   26.7832  -19.9283   -8.3103 C   0  0  0  0  0  0  0  0  0  0  0  0
   24.9324  -21.8602  -12.4120 C   0  0  0  0  0  0  0  0  0  0  0  0
   23.8732  -21.2311  -12.6210 O   0  0  0  0  0  0  0  0  0  0  0  0
   25.0016  -23.1999  -12.8709 N   0  0  0  0  0  0  0  0  0  0  0  0
   23.8315  -23.7751  -13.5166 C   0  0  0  0  0  0  0  0  0  0  0  0
   24.1035  -24.1493  -14.9164 C   0  0  0  0  0  0  0  0  0  0  0  0
   25.3402  -23.9385  -15.4943 O   0  0  0  0  0  0  0  0  0  0  0  0
   23.1958  -24.6705  -15.6013 O   0  0  0  0  0  0  0  0  0  0  0  0
  2  1  1  0
  3  2  1  0
  3  5  1  0
  3  4  1  1
  5  6  1  6
  5  7  1  0
  7  8  2  0
  9  7  1  0
  9 10  1  0
 10 11  1  1
 11 12  1  0
 12 13  2  0
 13 14  1  0
 15 14  2  0
 16 15  1  0
 17 12  1  0
 17 16  2  0
 18 10  1  0
 18 20  1  0
 19 18  2  0
 21 22  1  0
 21 20  1  0
 22 23  1  0
 24 22  2  0
M  END
$$$$
