IFG.pdb
     RDKit          3D

 24 24  0  0  1  0  0  0  0  0999 V2000
   28.3536  -17.8477  -16.6346 C   0  0  0  0  0  0  0  0  0  0  0  0
   28.8137  -18.5643  -15.3879 C   0  0  0  0  0  0  0  0  0  0  0  0
   27.7292  -19.3587  -14.7455 C   0  0  2  0  0  0  0  0  0  0  0  0
   26.4922  -18.5045  -14.5840 C   0  0  0  0  0  0  0  0  0  0  0  0
   28.1400  -20.0469  -13.4948 C   0  0  2  0  0  0  0  0  0  0  0  0
   29.3205  -20.8933  -13.7104 N   0  0  0  0  0  0  0  0  0  0  0  0
   27.1103  -20.8013  -12.7871 C   0  0  0  0  0  0  0  0  0  0  0  0
   26.7807  -21.9964  -12.9936 O   0  0  0  0  0  0  0  0  0  0  0  0
   26.3874  -20.1359  -11.7477 N   0  0  0  0  0  0  0  0  0  0  0  0
   25.3720  -20.8452  -10.9582 C   0  0  1  0  0  0  0  0  0  0  0  0
   25.2098  -20.1499   -9.6269 C   0  0  0  0  0  0  0  0  0  0  0  0
   26.3905  -20.2084   -8.7637 C   0  0  0  0  0  0  0  0  0  0  0  0
   26.7943  -19.1127   -7.9812 C   0  0  0  0  0  0  0  0  0  0  0  0
   27.8907  -19.1529   -7.1734 C   0  0  0  0  0  0  0  0  0  0  0  0
   28.6610  -20.2825   -7.0869 C   0  0  0  0  0  0  0  0  0  0  0  0
   28.2859  -21.3890   -7.8526 C   0  0  0  0  0  0  0  0  0  0  0  0
   27.1765  -21.3335   -8.6634 C   0  0  0  0  0  0  0  0  0  0  0  0
   24.1159  -20.7762  -11.7087 C   0  0  0  0  0  0  0  0  0  0  0  0
   23.8006  -19.7081  -12.2756 O   0  0  0  0  0  0  0  0  0  0  0  0
   23.2262  -21.8730  -11.8335 N   0  0  0  0  0  0  0  0  0  0  0  0
   22.0519  -21.7231  -12.6793 C   0  0  0  0  0  0  0  0  0  0  0  0
   20.9037  -21.1747  -11.9349 C   0  0  0  0  0  0  0  0  0  0  0  0
   19.6668  -21.0140  -12.5286 O   0  0  0  0  0  0  0  0  0  0  0  0
   21.0477  -20.8455  -10.7368 O   0  0  0  0  0  0  0  0  0  0  0  0
  2  1  1  0
  3  2  1  0
  3  5  1  0
  3  4  1  1
  5  6  1  6
  5  7  1  0
  7  8  2  0
  9  7  1  0
  9 10  1  0
 10 11  1  1
 11 12  1  0
 12 13  2  0
 13 14  1  0
 15 14  2  0
 16 15  1  0
 17 12  1  0
 17 16  2  0
 18 10  1  0
 18 20  1  0
 19 18  2  0
 21 22  1  0
 21 20  1  0
 22 23  1  0
 24 22  2  0
M  END
$$$$
