IFG.pdb
     RDKit          3D

 24 24  0  0  1  0  0  0  0  0999 V2000
   22.7309  -20.5379  -18.0942 C   0  0  0  0  0  0  0  0  0  0  0  0
   24.1767  -20.5030  -17.6608 C   0  0  0  0  0  0  0  0  0  0  0  0
   24.3661  -20.9339  -16.2472 C   0  0  2  0  0  0  0  0  0  0  0  0
   23.4453  -20.1474  -15.3418 C   0  0  0  0  0  0  0  0  0  0  0  0
   25.7815  -20.9327  -15.7964 C   0  0  2  0  0  0  0  0  0  0  0  0
   26.6324  -21.7216  -16.6963 N   0  0  0  0  0  0  0  0  0  0  0  0
   26.0337  -21.3162  -14.4109 C   0  0  0  0  0  0  0  0  0  0  0  0
   25.9551  -22.4732  -13.9266 O   0  0  0  0  0  0  0  0  0  0  0  0
   26.4107  -20.2892  -13.4895 N   0  0  0  0  0  0  0  0  0  0  0  0
   26.5801  -20.5800  -12.0597 C   0  0  1  0  0  0  0  0  0  0  0  0
   27.6214  -19.6468  -11.4879 C   0  0  0  0  0  0  0  0  0  0  0  0
   27.8674  -19.8168  -10.0549 C   0  0  0  0  0  0  0  0  0  0  0  0
   28.7840  -20.7634   -9.5653 C   0  0  0  0  0  0  0  0  0  0  0  0
   29.0231  -20.9325   -8.2346 C   0  0  0  0  0  0  0  0  0  0  0  0
   28.3693  -20.1742   -7.2995 C   0  0  0  0  0  0  0  0  0  0  0  0
   27.4517  -19.2244   -7.7544 C   0  0  0  0  0  0  0  0  0  0  0  0
   27.2209  -19.0651   -9.1007 C   0  0  0  0  0  0  0  0  0  0  0  0
   25.2884  -20.3356  -11.4135 C   0  0  0  0  0  0  0  0  0  0  0  0
   24.5587  -19.4133  -11.8357 O   0  0  0  0  0  0  0  0  0  0  0  0
   24.8107  -21.1028  -10.3211 N   0  0  0  0  0  0  0  0  0  0  0  0
   23.5379  -20.7374   -9.7185 C   0  0  0  0  0  0  0  0  0  0  0  0
   23.3286  -21.4099   -8.4235 C   0  0  0  0  0  0  0  0  0  0  0  0
   24.2881  -22.2389   -7.8755 O   0  0  0  0  0  0  0  0  0  0  0  0
   22.2582  -21.2289   -7.8021 O   0  0  0  0  0  0  0  0  0  0  0  0
  2  1  1  0
  3  2  1  0
  3  5  1  0
  3  4  1  1
  5  6  1  6
  5  7  1  0
  7  8  2  0
  9  7  1  0
  9 10  1  0
 10 11  1  1
 11 12  1  0
 12 13  2  0
 13 14  1  0
 15 14  2  0
 16 15  1  0
 17 12  1  0
 17 16  2  0
 18 10  1  0
 18 20  1  0
 19 18  2  0
 21 22  1  0
 21 20  1  0
 22 23  1  0
 24 22  2  0
M  END
$$$$
