IFG.pdb
     RDKit          3D

 24 24  0  0  1  0  0  0  0  0999 V2000
   18.8721  -14.0407  -17.1195 C   0  0  0  0  0  0  0  0  0  0  0  0
   18.7017  -12.6266  -17.6200 C   0  0  0  0  0  0  0  0  0  0  0  0
   18.6748  -11.6238  -16.5184 C   0  0  2  0  0  0  0  0  0  0  0  0
   17.6955  -12.0578  -15.4513 C   0  0  0  0  0  0  0  0  0  0  0  0
   18.4702  -10.2252  -16.9752 C   0  0  2  0  0  0  0  0  0  0  0  0
   19.2367   -9.9411  -18.1952 N   0  0  0  0  0  0  0  0  0  0  0  0
   18.6924   -9.1699  -15.9918 C   0  0  0  0  0  0  0  0  0  0  0  0
   18.2160   -9.1147  -14.8302 O   0  0  0  0  0  0  0  0  0  0  0  0
   19.5347   -8.0750  -16.3627 N   0  0  0  0  0  0  0  0  0  0  0  0
   19.7908   -6.9679  -15.4319 C   0  0  1  0  0  0  0  0  0  0  0  0
   21.2820   -6.8231  -15.2381 C   0  0  0  0  0  0  0  0  0  0  0  0
   21.9185   -7.9536  -14.5603 C   0  0  0  0  0  0  0  0  0  0  0  0
   21.6931   -8.2275  -13.2001 C   0  0  0  0  0  0  0  0  0  0  0  0
   22.2786   -9.2760  -12.5564 C   0  0  0  0  0  0  0  0  0  0  0  0
   23.1272  -10.1238  -13.2181 C   0  0  0  0  0  0  0  0  0  0  0  0
   23.3717   -9.8783  -14.5713 C   0  0  0  0  0  0  0  0  0  0  0  0
   22.7735   -8.8160  -15.2076 C   0  0  0  0  0  0  0  0  0  0  0  0
   19.2516   -5.7530  -16.0476 C   0  0  0  0  0  0  0  0  0  0  0  0
   19.3608   -5.5932  -17.2821 O   0  0  0  0  0  0  0  0  0  0  0  0
   18.5981   -4.7342  -15.3091 N   0  0  0  0  0  0  0  0  0  0  0  0
   18.1020   -3.5674  -16.0228 C   0  0  0  0  0  0  0  0  0  0  0  0
   19.1881   -2.6351  -16.3756 C   0  0  0  0  0  0  0  0  0  0  0  0
   20.5130   -2.9438  -16.1358 O   0  0  0  0  0  0  0  0  0  0  0  0
   18.9085   -1.5368  -16.9051 O   0  0  0  0  0  0  0  0  0  0  0  0
  2  1  1  0
  3  2  1  0
  3  5  1  0
  3  4  1  1
  5  6  1  6
  5  7  1  0
  7  8  2  0
  9  7  1  0
  9 10  1  0
 10 11  1  6
 11 12  1  0
 12 13  2  0
 13 14  1  0
 15 14  2  0
 16 15  1  0
 17 12  1  0
 17 16  2  0
 18 10  1  0
 18 20  1  0
 19 18  2  0
 21 22  1  0
 21 20  1  0
 22 23  1  0
 24 22  2  0
M  END
$$$$
