IFG.pdb
     RDKit          3D

 24 24  0  0  1  0  0  0  0  0999 V2000
   26.8164  -20.0094  -16.0378 C   0  0  0  0  0  0  0  0  0  0  0  0
   25.8518  -19.9541  -14.8778 C   0  0  0  0  0  0  0  0  0  0  0  0
   26.4207  -20.5283  -13.6262 C   0  0  2  0  0  0  0  0  0  0  0  0
   26.9345  -21.9259  -13.8884 C   0  0  0  0  0  0  0  0  0  0  0  0
   25.5151  -20.4418  -12.4519 C   0  0  2  0  0  0  0  0  0  0  0  0
   24.9145  -19.1070  -12.3341 N   0  0  0  0  0  0  0  0  0  0  0  0
   26.0624  -20.8558  -11.1637 C   0  0  0  0  0  0  0  0  0  0  0  0
   26.4006  -22.0197  -10.8316 O   0  0  0  0  0  0  0  0  0  0  0  0
   26.2424  -19.8539  -10.1590 N   0  0  0  0  0  0  0  0  0  0  0  0
   26.6920  -20.2101   -8.8068 C   0  0  1  0  0  0  0  0  0  0  0  0
   27.5162  -19.0744   -8.2473 C   0  0  0  0  0  0  0  0  0  0  0  0
   28.0084  -19.2947   -6.8865 C   0  0  0  0  0  0  0  0  0  0  0  0
   28.9900  -20.2587   -6.5980 C   0  0  0  0  0  0  0  0  0  0  0  0
   29.4575  -20.4745   -5.3366 C   0  0  0  0  0  0  0  0  0  0  0  0
   28.9832  -19.7489   -4.2758 C   0  0  0  0  0  0  0  0  0  0  0  0
   28.0067  -18.7829   -4.5297 C   0  0  0  0  0  0  0  0  0  0  0  0
   27.5445  -18.5763   -5.8083 C   0  0  0  0  0  0  0  0  0  0  0  0
   25.4916  -20.4000   -7.9889 C   0  0  0  0  0  0  0  0  0  0  0  0
   24.4721  -19.7199   -8.2327 O   0  0  0  0  0  0  0  0  0  0  0  0
   25.4200  -21.3310   -6.9220 N   0  0  0  0  0  0  0  0  0  0  0  0
   24.1739  -21.4431   -6.1794 C   0  0  0  0  0  0  0  0  0  0  0  0
   24.2835  -22.3971   -5.0609 C   0  0  0  0  0  0  0  0  0  0  0  0
   25.4287  -23.1415   -4.8546 O   0  0  0  0  0  0  0  0  0  0  0  0
   23.3192  -22.5397   -4.2770 O   0  0  0  0  0  0  0  0  0  0  0  0
  2  1  1  0
  3  2  1  0
  3  5  1  0
  3  4  1  6
  5  6  1  1
  5  7  1  0
  7  8  2  0
  9  7  1  0
  9 10  1  0
 10 11  1  1
 11 12  1  0
 12 13  2  0
 13 14  1  0
 15 14  2  0
 16 15  1  0
 17 12  1  0
 17 16  2  0
 18 10  1  0
 18 20  1  0
 19 18  2  0
 21 22  1  0
 21 20  1  0
 22 23  1  0
 24 22  2  0
M  END
$$$$
