IFG.pdb
     RDKit          3D

 24 24  0  0  1  0  0  0  0  0999 V2000
   19.4455  -13.7934  -18.6038 C   0  0  0  0  0  0  0  0  0  0  0  0
   19.3300  -12.3174  -18.8999 C   0  0  0  0  0  0  0  0  0  0  0  0
   19.1071  -11.4988  -17.6751 C   0  0  2  0  0  0  0  0  0  0  0  0
   17.9325  -12.0469  -16.8967 C   0  0  0  0  0  0  0  0  0  0  0  0
   19.0185  -10.0379  -17.9289 C   0  0  2  0  0  0  0  0  0  0  0  0
   20.1048   -9.5779  -18.8035 N   0  0  0  0  0  0  0  0  0  0  0  0
   18.9200   -9.1692  -16.7601 C   0  0  0  0  0  0  0  0  0  0  0  0
   18.2151   -9.3640  -15.7381 O   0  0  0  0  0  0  0  0  0  0  0  0
   19.6948   -7.9670  -16.7517 N   0  0  0  0  0  0  0  0  0  0  0  0
   19.6359   -7.0365  -15.6168 C   0  0  1  0  0  0  0  0  0  0  0  0
   21.0289   -6.8457  -15.0642 C   0  0  0  0  0  0  0  0  0  0  0  0
   21.5274   -7.9717  -14.2727 C   0  0  0  0  0  0  0  0  0  0  0  0
   22.5373   -8.8257  -14.7489 C   0  0  0  0  0  0  0  0  0  0  0  0
   23.0109   -9.8772  -14.0233 C   0  0  0  0  0  0  0  0  0  0  0  0
   22.5150  -10.1529  -12.7764 C   0  0  0  0  0  0  0  0  0  0  0  0
   21.5102   -9.3224  -12.2748 C   0  0  0  0  0  0  0  0  0  0  0  0
   21.0421   -8.2647  -13.0188 C   0  0  0  0  0  0  0  0  0  0  0  0
   19.1282   -5.7617  -16.1296 C   0  0  0  0  0  0  0  0  0  0  0  0
   19.7637   -5.1672  -17.0263 O   0  0  0  0  0  0  0  0  0  0  0  0
   17.9342   -5.1578  -15.6607 N   0  0  0  0  0  0  0  0  0  0  0  0
   17.4969   -3.9133  -16.2745 C   0  0  0  0  0  0  0  0  0  0  0  0
   17.8626   -2.7398  -15.4606 C   0  0  0  0  0  0  0  0  0  0  0  0
   17.5481   -1.4556  -15.8606 O   0  0  0  0  0  0  0  0  0  0  0  0
   18.4723   -2.9056  -14.3811 O   0  0  0  0  0  0  0  0  0  0  0  0
  2  1  1  0
  3  2  1  0
  3  5  1  0
  3  4  1  6
  5  6  1  1
  5  7  1  0
  7  8  2  0
  9  7  1  0
  9 10  1  0
 10 11  1  6
 11 12  1  0
 12 13  2  0
 13 14  1  0
 15 14  2  0
 16 15  1  0
 17 12  1  0
 17 16  2  0
 18 10  1  0
 18 20  1  0
 19 18  2  0
 21 22  1  0
 21 20  1  0
 22 23  1  0
 24 22  2  0
M  END
$$$$
