IFG.pdb
     RDKit          3D

 24 24  0  0  1  0  0  0  0  0999 V2000
   26.8248  -20.8122  -19.7096 C   0  0  0  0  0  0  0  0  0  0  0  0
   27.7378  -20.4445  -18.5648 C   0  0  0  0  0  0  0  0  0  0  0  0
   27.4772  -21.2483  -17.3377 C   0  0  2  0  0  0  0  0  0  0  0  0
   27.6822  -22.7172  -17.6315 C   0  0  0  0  0  0  0  0  0  0  0  0
   26.1774  -20.9521  -16.6824 C   0  0  2  0  0  0  0  0  0  0  0  0
   25.8247  -19.5320  -16.8065 N   0  0  0  0  0  0  0  0  0  0  0  0
   26.0229  -21.3831  -15.2965 C   0  0  0  0  0  0  0  0  0  0  0  0
   26.0499  -22.5654  -14.8713 O   0  0  0  0  0  0  0  0  0  0  0  0
   25.8188  -20.3769  -14.3008 N   0  0  0  0  0  0  0  0  0  0  0  0
   25.5448  -20.7391  -12.9039 C   0  0  1  0  0  0  0  0  0  0  0  0
   26.4756  -19.9621  -12.0026 C   0  0  0  0  0  0  0  0  0  0  0  0
   26.2703  -20.1955  -10.5722 C   0  0  0  0  0  0  0  0  0  0  0  0
   25.7154  -19.2153   -9.7312 C   0  0  0  0  0  0  0  0  0  0  0  0
   25.5186  -19.4186   -8.3984 C   0  0  0  0  0  0  0  0  0  0  0  0
   25.8588  -20.6078   -7.8094 C   0  0  0  0  0  0  0  0  0  0  0  0
   26.4128  -21.6025   -8.6186 C   0  0  0  0  0  0  0  0  0  0  0  0
   26.6055  -21.3827   -9.9624 C   0  0  0  0  0  0  0  0  0  0  0  0
   24.1570  -20.3624  -12.6246 C   0  0  0  0  0  0  0  0  0  0  0  0
   23.7232  -19.2699  -13.0483 O   0  0  0  0  0  0  0  0  0  0  0  0
   23.2632  -21.1842  -11.8924 N   0  0  0  0  0  0  0  0  0  0  0  0
   21.8935  -20.7295  -11.7076 C   0  0  0  0  0  0  0  0  0  0  0  0
   21.0252  -21.1273  -12.8305 C   0  0  0  0  0  0  0  0  0  0  0  0
   20.3048  -22.3056  -12.8057 O   0  0  0  0  0  0  0  0  0  0  0  0
   20.9352  -20.3835  -13.8322 O   0  0  0  0  0  0  0  0  0  0  0  0
  2  1  1  0
  3  2  1  0
  3  5  1  0
  3  4  1  6
  5  6  1  1
  5  7  1  0
  7  8  2  0
  9  7  1  0
  9 10  1  0
 10 11  1  1
 11 12  1  0
 12 13  2  0
 13 14  1  0
 15 14  2  0
 16 15  1  0
 17 12  1  0
 17 16  2  0
 18 10  1  0
 18 20  1  0
 19 18  2  0
 21 22  1  0
 21 20  1  0
 22 23  1  0
 24 22  2  0
M  END
$$$$
