IFG.pdb
     RDKit          3D

 24 24  0  0  1  0  0  0  0  0999 V2000
   24.2377  -20.7892  -18.9438 C   0  0  0  0  0  0  0  0  0  0  0  0
   25.4431  -21.2215  -18.1442 C   0  0  0  0  0  0  0  0  0  0  0  0
   25.1333  -21.4339  -16.7024 C   0  0  2  0  0  0  0  0  0  0  0  0
   24.4551  -20.2071  -16.1357 C   0  0  0  0  0  0  0  0  0  0  0  0
   26.2907  -21.8961  -15.8942 C   0  0  2  0  0  0  0  0  0  0  0  0
   26.8804  -23.1201  -16.4516 N   0  0  0  0  0  0  0  0  0  0  0  0
   26.0724  -22.0583  -14.4602 C   0  0  0  0  0  0  0  0  0  0  0  0
   25.4500  -22.9938  -13.8973 O   0  0  0  0  0  0  0  0  0  0  0  0
   26.6117  -21.0649  -13.5838 N   0  0  0  0  0  0  0  0  0  0  0  0
   26.3938  -21.1368  -12.1330 C   0  0  1  0  0  0  0  0  0  0  0  0
   27.4825  -20.3578  -11.4329 C   0  0  0  0  0  0  0  0  0  0  0  0
   27.3432  -20.2946   -9.9771 C   0  0  0  0  0  0  0  0  0  0  0  0
   28.0235  -21.1829   -9.1261 C   0  0  0  0  0  0  0  0  0  0  0  0
   27.9036  -21.1358   -7.7697 C   0  0  0  0  0  0  0  0  0  0  0  0
   27.1008  -20.2045   -7.1654 C   0  0  0  0  0  0  0  0  0  0  0  0
   26.4111  -19.3071   -7.9840 C   0  0  0  0  0  0  0  0  0  0  0  0
   26.5421  -19.3669   -9.3517 C   0  0  0  0  0  0  0  0  0  0  0  0
   25.0924  -20.5219  -11.8610 C   0  0  0  0  0  0  0  0  0  0  0  0
   24.7805  -19.4653  -12.4508 O   0  0  0  0  0  0  0  0  0  0  0  0
   24.1501  -21.0705  -10.9547 N   0  0  0  0  0  0  0  0  0  0  0  0
   22.9362  -20.3191  -10.6741 C   0  0  0  0  0  0  0  0  0  0  0  0
   21.8521  -20.6530  -11.6156 C   0  0  0  0  0  0  0  0  0  0  0  0
   20.5228  -20.5517  -11.2537 O   0  0  0  0  0  0  0  0  0  0  0  0
   22.1375  -21.0378  -12.7711 O   0  0  0  0  0  0  0  0  0  0  0  0
  2  1  1  0
  3  2  1  0
  3  5  1  0
  3  4  1  1
  5  6  1  6
  5  7  1  0
  7  8  2  0
  9  7  1  0
  9 10  1  0
 10 11  1  1
 11 12  1  0
 12 13  2  0
 13 14  1  0
 15 14  2  0
 16 15  1  0
 17 12  1  0
 17 16  2  0
 18 10  1  0
 18 20  1  0
 19 18  2  0
 21 22  1  0
 21 20  1  0
 22 23  1  0
 24 22  2  0
M  END
$$$$
