IFG.pdb
     RDKit          3D

 24 24  0  0  1  0  0  0  0  0999 V2000
   17.9162  -11.5814  -20.5118 C   0  0  0  0  0  0  0  0  0  0  0  0
   19.2533  -11.3642  -19.8452 C   0  0  0  0  0  0  0  0  0  0  0  0
   19.1803  -10.4113  -18.7022 C   0  0  2  0  0  0  0  0  0  0  0  0
   18.5509   -9.1130  -19.1541 C   0  0  0  0  0  0  0  0  0  0  0  0
   20.4667  -10.2260  -17.9829 C   0  0  2  0  0  0  0  0  0  0  0  0
   21.0793  -11.5150  -17.6372 N   0  0  0  0  0  0  0  0  0  0  0  0
   20.4494   -9.3542  -16.8124 C   0  0  0  0  0  0  0  0  0  0  0  0
   20.0263   -9.6465  -15.6657 O   0  0  0  0  0  0  0  0  0  0  0  0
   20.9605   -8.0264  -16.9583 N   0  0  0  0  0  0  0  0  0  0  0  0
   20.9806   -7.0942  -15.8234 C   0  0  1  0  0  0  0  0  0  0  0  0
   22.4156   -6.7919  -15.4604 C   0  0  0  0  0  0  0  0  0  0  0  0
   23.1811   -7.9500  -14.9962 C   0  0  0  0  0  0  0  0  0  0  0  0
   22.7983   -8.6882  -13.8628 C   0  0  0  0  0  0  0  0  0  0  0  0
   23.5010   -9.7681  -13.4194 C   0  0  0  0  0  0  0  0  0  0  0  0
   24.6308  -10.1889  -14.0700 C   0  0  0  0  0  0  0  0  0  0  0  0
   25.0375   -9.4759  -15.2002 C   0  0  0  0  0  0  0  0  0  0  0  0
   24.3180   -8.3879  -15.6358 C   0  0  0  0  0  0  0  0  0  0  0  0
   20.3120   -5.8665  -16.2613 C   0  0  0  0  0  0  0  0  0  0  0  0
   20.6147   -5.3664  -17.3657 O   0  0  0  0  0  0  0  0  0  0  0  0
   19.3212   -5.2065  -15.4913 N   0  0  0  0  0  0  0  0  0  0  0  0
   18.7899   -3.9426  -15.9780 C   0  0  0  0  0  0  0  0  0  0  0  0
   17.8003   -3.3673  -15.0490 C   0  0  0  0  0  0  0  0  0  0  0  0
   17.2980   -2.0926  -15.2254 O   0  0  0  0  0  0  0  0  0  0  0  0
   17.4026   -4.0456  -14.0762 O   0  0  0  0  0  0  0  0  0  0  0  0
  2  1  1  0
  3  2  1  0
  3  5  1  0
  3  4  1  6
  5  6  1  1
  5  7  1  0
  7  8  2  0
  9  7  1  0
  9 10  1  0
 10 11  1  6
 11 12  1  0
 12 13  2  0
 13 14  1  0
 15 14  2  0
 16 15  1  0
 17 12  1  0
 17 16  2  0
 18 10  1  0
 18 20  1  0
 19 18  2  0
 21 22  1  0
 21 20  1  0
 22 23  1  0
 24 22  2  0
M  END
$$$$
