IFG.pdb
     RDKit          3D

 24 24  0  0  1  0  0  0  0  0999 V2000
   19.6729  -20.7696  -13.5650 C   0  0  0  0  0  0  0  0  0  0  0  0
   20.8270  -21.7397  -13.6434 C   0  0  0  0  0  0  0  0  0  0  0  0
   22.1529  -21.0695  -13.5309 C   0  0  2  0  0  0  0  0  0  0  0  0
   23.1523  -21.7506  -14.4383 C   0  0  0  0  0  0  0  0  0  0  0  0
   22.6354  -20.9082  -12.1353 C   0  0  2  0  0  0  0  0  0  0  0  0
   21.6752  -20.1547  -11.3188 N   0  0  0  0  0  0  0  0  0  0  0  0
   23.9761  -20.3588  -11.9592 C   0  0  0  0  0  0  0  0  0  0  0  0
   24.2768  -19.1478  -11.8095 O   0  0  0  0  0  0  0  0  0  0  0  0
   25.0782  -21.2705  -11.9525 N   0  0  0  0  0  0  0  0  0  0  0  0
   26.4533  -20.7942  -11.7532 C   0  0  1  0  0  0  0  0  0  0  0  0
   27.0857  -21.5750  -10.6251 C   0  0  0  0  0  0  0  0  0  0  0  0
   26.9335  -20.9636   -9.3038 C   0  0  0  0  0  0  0  0  0  0  0  0
   25.7277  -21.0373   -8.5851 C   0  0  0  0  0  0  0  0  0  0  0  0
   25.5718  -20.4732   -7.3547 C   0  0  0  0  0  0  0  0  0  0  0  0
   26.6011  -19.7978   -6.7538 C   0  0  0  0  0  0  0  0  0  0  0  0
   27.8128  -19.7068   -7.4427 C   0  0  0  0  0  0  0  0  0  0  0  0
   27.9553  -20.2813   -8.6841 C   0  0  0  0  0  0  0  0  0  0  0  0
   27.1821  -21.0462  -12.9987 C   0  0  0  0  0  0  0  0  0  0  0  0
   27.1805  -22.1970  -13.4856 O   0  0  0  0  0  0  0  0  0  0  0  0
   27.8967  -20.0395  -13.6958 N   0  0  0  0  0  0  0  0  0  0  0  0
   28.5688  -20.3960  -14.9360 C   0  0  0  0  0  0  0  0  0  0  0  0
   27.6649  -20.3070  -16.0972 C   0  0  0  0  0  0  0  0  0  0  0  0
   27.1452  -21.4373  -16.6977 O   0  0  0  0  0  0  0  0  0  0  0  0
   27.3582  -19.1834  -16.5535 O   0  0  0  0  0  0  0  0  0  0  0  0
  2  1  1  0
  3  2  1  0
  3  5  1  0
  3  4  1  6
  5  6  1  1
  5  7  1  0
  7  8  2  0
  9  7  1  0
  9 10  1  0
 10 11  1  1
 11 12  1  0
 12 13  2  0
 13 14  1  0
 15 14  2  0
 16 15  1  0
 17 12  1  0
 17 16  2  0
 18 10  1  0
 18 20  1  0
 19 18  2  0
 21 22  1  0
 21 20  1  0
 22 23  1  0
 24 22  2  0
M  END
$$$$
