IFG.pdb
     RDKit          3D

 24 24  0  0  1  0  0  0  0  0999 V2000
   43.8138   -6.0510   -6.1759 C   0  0  0  0  0  0  0  0  0  0  0  0
   43.3433   -4.6210   -6.0614 C   0  0  0  0  0  0  0  0  0  0  0  0
   42.0517   -4.3804   -6.7640 C   0  0  2  0  0  0  0  0  0  0  0  0
   42.1421   -4.8739   -8.1903 C   0  0  0  0  0  0  0  0  0  0  0  0
   41.5495   -2.9870   -6.6511 C   0  0  2  0  0  0  0  0  0  0  0  0
   41.5162   -2.5397   -5.2528 N   0  0  0  0  0  0  0  0  0  0  0  0
   40.2755   -2.6896   -7.2983 C   0  0  0  0  0  0  0  0  0  0  0  0
   39.9107   -3.0605   -8.4423 O   0  0  0  0  0  0  0  0  0  0  0  0
   39.3274   -1.8967   -6.5785 N   0  0  0  0  0  0  0  0  0  0  0  0
   38.0203   -1.5655   -7.1611 C   0  0  1  0  0  0  0  0  0  0  0  0
   36.9334   -1.9713   -6.1936 C   0  0  0  0  0  0  0  0  0  0  0  0
   36.7790   -3.4172   -6.0258 C   0  0  0  0  0  0  0  0  0  0  0  0
   36.9220   -4.0397   -4.7736 C   0  0  0  0  0  0  0  0  0  0  0  0
   36.7810   -5.3841   -4.6027 C   0  0  0  0  0  0  0  0  0  0  0  0
   36.4886   -6.2021   -5.6620 C   0  0  0  0  0  0  0  0  0  0  0  0
   36.3402   -5.6136   -6.9201 C   0  0  0  0  0  0  0  0  0  0  0  0
   36.4854   -4.2551   -7.0772 C   0  0  0  0  0  0  0  0  0  0  0  0
   37.9908   -0.1142   -7.3580 C   0  0  0  0  0  0  0  0  0  0  0  0
   38.9418    0.5790   -6.9378 O   0  0  0  0  0  0  0  0  0  0  0  0
   36.9282    0.5576   -8.0136 N   0  0  0  0  0  0  0  0  0  0  0  0
   37.0312    1.9954   -8.2109 C   0  0  0  0  0  0  0  0  0  0  0  0
   35.9093    2.5233   -9.0084 C   0  0  0  0  0  0  0  0  0  0  0  0
   35.6598    3.8791   -9.0972 O   0  0  0  0  0  0  0  0  0  0  0  0
   35.1626    1.7287   -9.6213 O   0  0  0  0  0  0  0  0  0  0  0  0
  2  1  1  0
  3  2  1  0
  3  5  1  0
  3  4  1  6
  5  6  1  1
  5  7  1  0
  7  8  2  0
  9  7  1  0
  9 10  1  0
 10 11  1  1
 11 12  1  0
 12 13  2  0
 13 14  1  0
 15 14  2  0
 16 15  1  0
 17 12  1  0
 17 16  2  0
 18 10  1  0
 18 20  1  0
 19 18  2  0
 21 22  1  0
 21 20  1  0
 22 23  1  0
 24 22  2  0
M  END
$$$$
