IFG.pdb
     RDKit          3D

 24 24  0  0  1  0  0  0  0  0999 V2000
   15.2542  -23.6723    0.5709 C   0  0  0  0  0  0  0  0  0  0  0  0
   14.7795  -22.6471    1.5724 C   0  0  0  0  0  0  0  0  0  0  0  0
   15.8882  -21.8102    2.1111 C   0  0  2  0  0  0  0  0  0  0  0  0
   16.9613  -22.6961    2.7023 C   0  0  0  0  0  0  0  0  0  0  0  0
   15.4429  -20.7289    3.0271 C   0  0  2  0  0  0  0  0  0  0  0  0
   14.2262  -20.0726    2.5319 N   0  0  0  0  0  0  0  0  0  0  0  0
   16.4355  -19.7237    3.3942 C   0  0  0  0  0  0  0  0  0  0  0  0
   17.6284  -19.9345    3.7286 O   0  0  0  0  0  0  0  0  0  0  0  0
   16.0353  -18.3506    3.3799 N   0  0  0  0  0  0  0  0  0  0  0  0
   16.9703  -17.2856    3.7659 C   0  0  1  0  0  0  0  0  0  0  0  0
   16.6118  -16.0219    3.0199 C   0  0  0  0  0  0  0  0  0  0  0  0
   17.5040  -14.8906    3.2784 C   0  0  0  0  0  0  0  0  0  0  0  0
   18.8386  -14.8804    2.8370 C   0  0  0  0  0  0  0  0  0  0  0  0
   19.6801  -13.8345    3.0703 C   0  0  0  0  0  0  0  0  0  0  0  0
   19.2552  -12.7281    3.7572 C   0  0  0  0  0  0  0  0  0  0  0  0
   17.9337  -12.7077    4.2094 C   0  0  0  0  0  0  0  0  0  0  0  0
   17.0959  -13.7708    3.9663 C   0  0  0  0  0  0  0  0  0  0  0  0
   16.8105  -17.0720    5.2063 C   0  0  0  0  0  0  0  0  0  0  0  0
   15.6672  -17.1217    5.7083 O   0  0  0  0  0  0  0  0  0  0  0  0
   17.8990  -16.8126    6.0769 N   0  0  0  0  0  0  0  0  0  0  0  0
   17.6277  -16.6335    7.4951 C   0  0  0  0  0  0  0  0  0  0  0  0
   17.3688  -15.2219    7.8321 C   0  0  0  0  0  0  0  0  0  0  0  0
   16.9927  -14.8392    9.1050 O   0  0  0  0  0  0  0  0  0  0  0  0
   17.4914  -14.3457    6.9478 O   0  0  0  0  0  0  0  0  0  0  0  0
  2  1  1  0
  3  2  1  0
  3  5  1  0
  3  4  1  1
  5  6  1  6
  5  7  1  0
  7  8  2  0
  9  7  1  0
  9 10  1  0
 10 11  1  6
 11 12  1  0
 12 13  2  0
 13 14  1  0
 15 14  2  0
 16 15  1  0
 17 12  1  0
 17 16  2  0
 18 10  1  0
 18 20  1  0
 19 18  2  0
 21 22  1  0
 21 20  1  0
 22 23  1  0
 24 22  2  0
M  END
$$$$
