NQI.pdb
     RDKit          3D

 26 25  0  0  1  0  0  0  0  0999 V2000
   15.4253  -14.1569  -19.3780 N   0  0  0  0  0  0  0  0  0  0  0  0
   14.8546  -12.8751  -19.1746 C   0  0  0  0  0  0  0  0  0  0  0  0
   13.9788  -12.4660  -19.9596 O   0  0  0  0  0  0  0  0  0  0  0  0
   15.3073  -12.0638  -18.0487 C   0  0  0  0  0  0  0  0  0  0  0  0
   16.3315  -12.6936  -17.1684 C   0  0  2  0  0  0  0  0  0  0  0  0
   15.7661  -13.6741  -16.2980 N   0  0  0  0  0  0  0  0  0  0  0  0
   17.2093  -11.7195  -16.4775 C   0  0  0  0  0  0  0  0  0  0  0  0
   16.8216  -11.1917  -15.4139 O   0  0  0  0  0  0  0  0  0  0  0  0
   23.4633  -11.7696  -15.7241 N   0  0  0  0  0  0  0  0  0  0  0  0
   23.0930  -10.4618  -15.2482 C   0  0  0  0  0  0  0  0  0  0  0  0
   23.9826   -9.8307  -14.6552 O   0  0  0  0  0  0  0  0  0  0  0  0
   21.7429   -9.9455  -15.4652 C   0  0  0  0  0  0  0  0  0  0  0  0
   20.8333  -10.9258  -16.1390 C   0  0  0  0  0  0  0  0  0  0  0  0
   19.4422  -10.4911  -16.3660 C   0  0  2  0  0  0  0  0  0  0  0  0
   18.5081  -11.3399  -16.9729 N   0  0  0  0  0  0  0  0  0  0  0  0
   19.3698   -9.0362  -16.7310 C   0  0  0  0  0  0  0  0  0  0  0  0
   19.5671   -8.7851  -17.9488 O   0  0  0  0  0  0  0  0  0  0  0  0
   16.2300   -4.0692  -16.5852 C   0  0  0  0  0  0  0  0  0  0  0  0
   17.6779   -4.5289  -16.5202 C   0  0  0  0  0  0  0  0  0  0  0  0
   17.7247   -5.9910  -16.1463 C   0  0  2  0  0  0  0  0  0  0  0  0
   17.0626   -6.2434  -14.8263 C   0  0  0  0  0  0  0  0  0  0  0  0
   19.1092   -6.5854  -16.2082 C   0  0  2  0  0  0  0  0  0  0  0  0
   19.1156   -8.0043  -15.8394 N   0  0  0  0  0  0  0  0  0  0  0  0
   19.9806   -5.8025  -15.3025 C   0  0  0  0  0  0  0  0  0  0  0  0
   20.3924   -6.2565  -14.2102 O   0  0  0  0  0  0  0  0  0  0  0  0
   20.3921   -4.5041  -15.6237 O   0  0  0  0  0  0  0  0  0  0  0  0
  2  1  1  0
  3  2  2  0
  4  2  1  0
  5  4  1  0
  5  6  1  1
  7  8  2  0
  7  5  1  0
 10 12  1  0
 10  9  1  0
 11 10  2  0
 13 12  1  0
 14 13  1  6
 14 15  1  0
 15  7  1  0
 16 14  1  0
 17 16  2  0
 18 19  1  0
 19 20  1  0
 20 21  1  1
 22 20  1  0
 22 23  1  1
 23 16  1  0
 24 22  1  0
 25 24  2  0
 26 24  1  0
M  END
$$$$
