NQI.pdb
     RDKit          3D

 26 25  0  0  1  0  0  0  0  0999 V2000
   18.4276  -13.5257  -17.9296 N   0  0  0  0  0  0  0  0  0  0  0  0
   19.6455  -13.5747  -17.2053 C   0  0  0  0  0  0  0  0  0  0  0  0
   20.0089  -14.6511  -16.6957 O   0  0  0  0  0  0  0  0  0  0  0  0
   20.4459  -12.3611  -17.0739 C   0  0  0  0  0  0  0  0  0  0  0  0
   19.8395  -11.1223  -17.6379 C   0  0  2  0  0  0  0  0  0  0  0  0
   19.6718  -11.1996  -19.0538 N   0  0  0  0  0  0  0  0  0  0  0  0
   20.4947   -9.8731  -17.1832 C   0  0  0  0  0  0  0  0  0  0  0  0
   20.4820   -9.5811  -15.9689 O   0  0  0  0  0  0  0  0  0  0  0  0
   23.6550   -5.3845  -20.7786 N   0  0  0  0  0  0  0  0  0  0  0  0
   23.8958   -5.0219  -19.4058 C   0  0  0  0  0  0  0  0  0  0  0  0
   24.6098   -4.0219  -19.2283 O   0  0  0  0  0  0  0  0  0  0  0  0
   23.3215   -5.8090  -18.3163 C   0  0  0  0  0  0  0  0  0  0  0  0
   22.5083   -6.9740  -18.7898 C   0  0  0  0  0  0  0  0  0  0  0  0
   21.8453   -7.7849  -17.7513 C   0  0  2  0  0  0  0  0  0  0  0  0
   21.1572   -8.9598  -18.0794 N   0  0  0  0  0  0  0  0  0  0  0  0
   21.2395   -6.9242  -16.6802 C   0  0  0  0  0  0  0  0  0  0  0  0
   20.1121   -6.4407  -16.9637 O   0  0  0  0  0  0  0  0  0  0  0  0
   19.7903   -8.4978  -12.0964 C   0  0  0  0  0  0  0  0  0  0  0  0
   19.9919   -7.7494  -13.4045 C   0  0  0  0  0  0  0  0  0  0  0  0
   20.9045   -6.5690  -13.1727 C   0  0  2  0  0  0  0  0  0  0  0  0
   20.3914   -5.6824  -12.0796 C   0  0  0  0  0  0  0  0  0  0  0  0
   21.2206   -5.7953  -14.4279 C   0  0  2  0  0  0  0  0  0  0  0  0
   21.8306   -6.6424  -15.4573 N   0  0  0  0  0  0  0  0  0  0  0  0
   22.1244   -4.6817  -14.0596 C   0  0  0  0  0  0  0  0  0  0  0  0
   23.3682   -4.7581  -14.1854 O   0  0  0  0  0  0  0  0  0  0  0  0
   21.6304   -3.4764  -13.5478 O   0  0  0  0  0  0  0  0  0  0  0  0
  2  1  1  0
  3  2  2  0
  4  2  1  0
  5  4  1  0
  5  6  1  6
  7  8  2  0
  7  5  1  0
 10 12  1  0
 10  9  1  0
 11 10  2  0
 13 12  1  0
 14 13  1  6
 14 15  1  0
 15  7  1  0
 16 14  1  0
 17 16  2  0
 18 19  1  0
 19 20  1  0
 20 21  1  1
 22 20  1  0
 22 23  1  6
 23 16  1  0
 24 22  1  0
 25 24  2  0
 26 24  1  0
M  END
$$$$
