NQI.pdb
     RDKit          3D

 26 25  0  0  1  0  0  0  0  0999 V2000
   16.3869  -12.4882  -16.4872 N   0  0  0  0  0  0  0  0  0  0  0  0
   17.6676  -12.9082  -16.0471 C   0  0  0  0  0  0  0  0  0  0  0  0
   17.7902  -14.0209  -15.5017 O   0  0  0  0  0  0  0  0  0  0  0  0
   18.8136  -12.0258  -16.2437 C   0  0  0  0  0  0  0  0  0  0  0  0
   18.5290  -10.7432  -16.9471 C   0  0  2  0  0  0  0  0  0  0  0  0
   18.3006  -10.9326  -18.3438 N   0  0  0  0  0  0  0  0  0  0  0  0
   19.4989   -9.6646  -16.6433 C   0  0  0  0  0  0  0  0  0  0  0  0
   19.7838   -9.4135  -15.4533 O   0  0  0  0  0  0  0  0  0  0  0  0
   23.1256   -6.0167  -20.7494 N   0  0  0  0  0  0  0  0  0  0  0  0
   21.6860   -5.9784  -20.7619 C   0  0  0  0  0  0  0  0  0  0  0  0
   21.1690   -5.4134  -21.7390 O   0  0  0  0  0  0  0  0  0  0  0  0
   20.9161   -6.5748  -19.6721 C   0  0  0  0  0  0  0  0  0  0  0  0
   21.7695   -7.2372  -18.6351 C   0  0  0  0  0  0  0  0  0  0  0  0
   21.0682   -7.8380  -17.4849 C   0  0  2  0  0  0  0  0  0  0  0  0
   20.1432   -8.8746  -17.6616 N   0  0  0  0  0  0  0  0  0  0  0  0
   20.7405   -6.8114  -16.4390 C   0  0  0  0  0  0  0  0  0  0  0  0
   19.6312   -6.2358  -16.5911 O   0  0  0  0  0  0  0  0  0  0  0  0
   20.2594   -7.9496  -11.5343 C   0  0  0  0  0  0  0  0  0  0  0  0
   20.1972   -7.3274  -12.9202 C   0  0  0  0  0  0  0  0  0  0  0  0
   21.1062   -6.1228  -12.9716 C   0  0  2  0  0  0  0  0  0  0  0  0
   20.7515   -5.1198  -11.9168 C   0  0  0  0  0  0  0  0  0  0  0  0
   21.2005   -5.4962  -14.3400 C   0  0  2  0  0  0  0  0  0  0  0  0
   21.5585   -6.4760  -15.3701 N   0  0  0  0  0  0  0  0  0  0  0  0
   22.2056   -4.4108  -14.2743 C   0  0  0  0  0  0  0  0  0  0  0  0
   23.3590   -4.5358  -14.7464 O   0  0  0  0  0  0  0  0  0  0  0  0
   21.9156   -3.1794  -13.6762 O   0  0  0  0  0  0  0  0  0  0  0  0
  2  1  1  0
  3  2  2  0
  4  2  1  0
  5  4  1  0
  5  6  1  6
  7  8  2  0
  7  5  1  0
 10 12  1  0
 10  9  1  0
 11 10  2  0
 13 12  1  0
 14 13  1  6
 14 15  1  0
 15  7  1  0
 16 14  1  0
 17 16  2  0
 18 19  1  0
 19 20  1  0
 20 21  1  1
 22 20  1  0
 22 23  1  6
 23 16  1  0
 24 22  1  0
 25 24  2  0
 26 24  1  0
M  END
$$$$
