NQI.pdb
     RDKit          3D

 26 25  0  0  1  0  0  0  0  0999 V2000
   30.5362  -20.3378  -18.8398 N   0  0  0  0  0  0  0  0  0  0  0  0
   29.8011  -19.1820  -19.2060 C   0  0  0  0  0  0  0  0  0  0  0  0
   30.1842  -18.4965  -20.1723 O   0  0  0  0  0  0  0  0  0  0  0  0
   28.6111  -18.8223  -18.4411 C   0  0  0  0  0  0  0  0  0  0  0  0
   28.2712  -19.7298  -17.3089 C   0  0  2  0  0  0  0  0  0  0  0  0
   27.4967  -20.8526  -17.7309 N   0  0  0  0  0  0  0  0  0  0  0  0
   27.7125  -19.0312  -16.1273 C   0  0  0  0  0  0  0  0  0  0  0  0
   27.6790  -17.7827  -16.1122 O   0  0  0  0  0  0  0  0  0  0  0  0
   22.4914  -20.5661  -16.3034 N   0  0  0  0  0  0  0  0  0  0  0  0
   22.3127  -19.8033  -15.0950 C   0  0  0  0  0  0  0  0  0  0  0  0
   21.1557  -19.7647  -14.6465 O   0  0  0  0  0  0  0  0  0  0  0  0
   23.4461  -19.1269  -14.4672 C   0  0  0  0  0  0  0  0  0  0  0  0
   24.7354  -19.3200  -15.2041 C   0  0  0  0  0  0  0  0  0  0  0  0
   25.9332  -19.5857  -14.3854 C   0  0  2  0  0  0  0  0  0  0  0  0
   27.1966  -19.7237  -14.9738 N   0  0  0  0  0  0  0  0  0  0  0  0
   25.6233  -20.4936  -13.2301 C   0  0  0  0  0  0  0  0  0  0  0  0
   25.4723  -21.7058  -13.5347 O   0  0  0  0  0  0  0  0  0  0  0  0
   27.2313  -19.2461   -8.1128 C   0  0  0  0  0  0  0  0  0  0  0  0
   26.9946  -20.1784   -9.2905 C   0  0  0  0  0  0  0  0  0  0  0  0
   25.5114  -20.4016   -9.4645 C   0  0  2  0  0  0  0  0  0  0  0  0
   24.9368  -21.1941   -8.3304 C   0  0  0  0  0  0  0  0  0  0  0  0
   25.1423  -20.9832  -10.8060 C   0  0  2  0  0  0  0  0  0  0  0  0
   25.4949  -20.0859  -11.9104 N   0  0  0  0  0  0  0  0  0  0  0  0
   23.6876  -21.2595  -10.7965 C   0  0  0  0  0  0  0  0  0  0  0  0
   22.8504  -20.4605  -11.2754 O   0  0  0  0  0  0  0  0  0  0  0  0
   23.1696  -22.4379  -10.2475 O   0  0  0  0  0  0  0  0  0  0  0  0
  2  1  1  0
  3  2  2  0
  4  2  1  0
  5  4  1  0
  5  6  1  6
  7  8  2  0
  7  5  1  0
 10 12  1  0
 10  9  1  0
 11 10  2  0
 13 12  1  0
 14 13  1  6
 14 15  1  0
 15  7  1  0
 16 14  1  0
 17 16  2  0
 18 19  1  0
 19 20  1  0
 20 21  1  1
 22 20  1  0
 22 23  1  6
 23 16  1  0
 24 22  1  0
 25 24  2  0
 26 24  1  0
M  END
$$$$
