NQI.pdb
     RDKit          3D

 26 25  0  0  1  0  0  0  0  0999 V2000
   17.2085  -12.9813  -17.8813 N   0  0  0  0  0  0  0  0  0  0  0  0
   16.9934  -11.6726  -17.3800 C   0  0  0  0  0  0  0  0  0  0  0  0
   15.9265  -11.0868  -17.6426 O   0  0  0  0  0  0  0  0  0  0  0  0
   18.0286  -11.0418  -16.5668 C   0  0  0  0  0  0  0  0  0  0  0  0
   19.2651  -11.8464  -16.3559 C   0  0  2  0  0  0  0  0  0  0  0  0
   19.0026  -13.0689  -15.6666 N   0  0  0  0  0  0  0  0  0  0  0  0
   20.3943  -11.0729  -15.7875 C   0  0  0  0  0  0  0  0  0  0  0  0
   20.2475  -10.4874  -14.6940 O   0  0  0  0  0  0  0  0  0  0  0  0
   26.7294  -11.8149  -16.3585 N   0  0  0  0  0  0  0  0  0  0  0  0
   26.5927  -10.4788  -15.8387 C   0  0  0  0  0  0  0  0  0  0  0  0
   27.6521   -9.9030  -15.5431 O   0  0  0  0  0  0  0  0  0  0  0  0
   25.2719   -9.8736  -15.6795 C   0  0  0  0  0  0  0  0  0  0  0  0
   24.1559  -10.7475  -16.1626 C   0  0  0  0  0  0  0  0  0  0  0  0
   22.7874  -10.2184  -16.0123 C   0  0  2  0  0  0  0  0  0  0  0  0
   21.6751  -10.9558  -16.4372 N   0  0  0  0  0  0  0  0  0  0  0  0
   22.7401   -8.7345  -16.2376 C   0  0  0  0  0  0  0  0  0  0  0  0
   23.0731   -8.3634  -17.3936 O   0  0  0  0  0  0  0  0  0  0  0  0
   18.7124   -6.0575  -16.9320 C   0  0  0  0  0  0  0  0  0  0  0  0
   20.1782   -6.4615  -16.9331 C   0  0  0  0  0  0  0  0  0  0  0  0
   20.8557   -5.8988  -15.7066 C   0  0  2  0  0  0  0  0  0  0  0  0
   20.7324   -4.4071  -15.6449 C   0  0  0  0  0  0  0  0  0  0  0  0
   22.2831   -6.3563  -15.5425 C   0  0  2  0  0  0  0  0  0  0  0  0
   22.3728   -7.7966  -15.2838 N   0  0  0  0  0  0  0  0  0  0  0  0
   22.8829   -5.5837  -14.4308 C   0  0  0  0  0  0  0  0  0  0  0  0
   22.7302   -5.9076  -13.2305 O   0  0  0  0  0  0  0  0  0  0  0  0
   23.6576   -4.4424  -14.6665 O   0  0  0  0  0  0  0  0  0  0  0  0
  2  1  1  0
  3  2  2  0
  4  2  1  0
  5  4  1  0
  5  6  1  1
  7  8  2  0
  7  5  1  0
 10 12  1  0
 10  9  1  0
 11 10  2  0
 13 12  1  0
 14 13  1  6
 14 15  1  0
 15  7  1  0
 16 14  1  0
 17 16  2  0
 18 19  1  0
 19 20  1  0
 20 21  1  6
 22 20  1  0
 22 23  1  1
 23 16  1  0
 24 22  1  0
 25 24  2  0
 26 24  1  0
M  END
$$$$
