NQI.pdb
     RDKit          3D

 26 25  0  0  1  0  0  0  0  0999 V2000
   28.7994  -22.3344  -15.6402 N   0  0  0  0  0  0  0  0  0  0  0  0
   27.7997  -22.1154  -16.6215 C   0  0  0  0  0  0  0  0  0  0  0  0
   28.1358  -21.9617  -17.8105 O   0  0  0  0  0  0  0  0  0  0  0  0
   26.3984  -22.0753  -16.2147 C   0  0  0  0  0  0  0  0  0  0  0  0
   25.8792  -23.3097  -15.5609 C   0  0  2  0  0  0  0  0  0  0  0  0
   26.2413  -24.4919  -16.2749 N   0  0  0  0  0  0  0  0  0  0  0  0
   24.4408  -23.2430  -15.2102 C   0  0  0  0  0  0  0  0  0  0  0  0
   23.7994  -22.1981  -15.4489 O   0  0  0  0  0  0  0  0  0  0  0  0
   20.5772  -28.0172  -12.9223 N   0  0  0  0  0  0  0  0  0  0  0  0
   19.7453  -26.8431  -12.9806 C   0  0  0  0  0  0  0  0  0  0  0  0
   18.5712  -26.9937  -12.6063 O   0  0  0  0  0  0  0  0  0  0  0  0
   20.2843  -25.5720  -13.4603 C   0  0  0  0  0  0  0  0  0  0  0  0
   21.7384  -25.6383  -13.8119 C   0  0  0  0  0  0  0  0  0  0  0  0
   22.3791  -24.3747  -14.2222 C   0  0  2  0  0  0  0  0  0  0  0  0
   23.7277  -24.3352  -14.5980 N   0  0  0  0  0  0  0  0  0  0  0  0
   21.8655  -23.2098  -13.4257 C   0  0  0  0  0  0  0  0  0  0  0  0
   22.4267  -23.0415  -12.3114 O   0  0  0  0  0  0  0  0  0  0  0  0
   21.0781  -17.4373  -13.5472 C   0  0  0  0  0  0  0  0  0  0  0  0
   20.5178  -18.6754  -12.8652 C   0  0  0  0  0  0  0  0  0  0  0  0
   20.8177  -19.8923  -13.7074 C   0  0  2  0  0  0  0  0  0  0  0  0
   20.2651  -19.7530  -15.0929 C   0  0  0  0  0  0  0  0  0  0  0  0
   20.4042  -21.1902  -13.0607 C   0  0  2  0  0  0  0  0  0  0  0  0
   20.8506  -22.3552  -13.8307 N   0  0  0  0  0  0  0  0  0  0  0  0
   18.9295  -21.1817  -12.9271 C   0  0  0  0  0  0  0  0  0  0  0  0
   18.1817  -21.8095  -13.7115 O   0  0  0  0  0  0  0  0  0  0  0  0
   18.2907  -20.4654  -11.9086 O   0  0  0  0  0  0  0  0  0  0  0  0
  2  1  1  0
  3  2  2  0
  4  2  1  0
  5  4  1  0
  5  6  1  6
  7  8  2  0
  7  5  1  0
 10 12  1  0
 10  9  1  0
 11 10  2  0
 13 12  1  0
 14 13  1  1
 14 15  1  0
 15  7  1  0
 16 14  1  0
 17 16  2  0
 18 19  1  0
 19 20  1  0
 20 21  1  6
 22 20  1  0
 22 23  1  6
 23 16  1  0
 24 22  1  0
 25 24  2  0
 26 24  1  0
M  END
$$$$
