NQI.pdb
     RDKit          3D

 26 25  0  0  1  0  0  0  0  0999 V2000
   21.4236  -12.8911  -21.5352 N   0  0  0  0  0  0  0  0  0  0  0  0
   20.3637  -12.7733  -20.6008 C   0  0  0  0  0  0  0  0  0  0  0  0
   19.2432  -13.2336  -20.8887 O   0  0  0  0  0  0  0  0  0  0  0  0
   20.6110  -12.1147  -19.3218 C   0  0  0  0  0  0  0  0  0  0  0  0
   21.9958  -11.6048  -19.1141 C   0  0  2  0  0  0  0  0  0  0  0  0
   22.9806  -12.6182  -19.3188 N   0  0  0  0  0  0  0  0  0  0  0  0
   22.1733  -10.8482  -17.8522 C   0  0  0  0  0  0  0  0  0  0  0  0
   21.4266  -11.0918  -16.8810 O   0  0  0  0  0  0  0  0  0  0  0  0
   27.2876  -10.3574  -16.1703 N   0  0  0  0  0  0  0  0  0  0  0  0
   26.3198  -11.2716  -15.6212 C   0  0  0  0  0  0  0  0  0  0  0  0
   26.7354  -12.4155  -15.3760 O   0  0  0  0  0  0  0  0  0  0  0  0
   24.9422  -10.8440  -15.3852 C   0  0  0  0  0  0  0  0  0  0  0  0
   24.6978   -9.4084  -15.7343 C   0  0  0  0  0  0  0  0  0  0  0  0
   23.4808   -9.1141  -16.5139 C   0  0  2  0  0  0  0  0  0  0  0  0
   23.1768   -9.8286  -17.6794 N   0  0  0  0  0  0  0  0  0  0  0  0
   23.1711   -7.6447  -16.5224 C   0  0  0  0  0  0  0  0  0  0  0  0
   23.8192   -6.9717  -17.3662 O   0  0  0  0  0  0  0  0  0  0  0  0
   18.5980   -5.5941  -17.5444 C   0  0  0  0  0  0  0  0  0  0  0  0
   20.0966   -5.7954  -17.3843 C   0  0  0  0  0  0  0  0  0  0  0  0
   20.5288   -5.2944  -16.0270 C   0  0  2  0  0  0  0  0  0  0  0  0
   20.1882   -3.8476  -15.8399 C   0  0  0  0  0  0  0  0  0  0  0  0
   21.9750   -5.5812  -15.7106 C   0  0  2  0  0  0  0  0  0  0  0  0
   22.2579   -7.0195  -15.6860 N   0  0  0  0  0  0  0  0  0  0  0  0
   22.2853   -4.9615  -14.4020 C   0  0  0  0  0  0  0  0  0  0  0  0
   22.0689   -5.5458  -13.3155 O   0  0  0  0  0  0  0  0  0  0  0  0
   22.8410   -3.6803  -14.3119 O   0  0  0  0  0  0  0  0  0  0  0  0
  2  1  1  0
  3  2  2  0
  4  2  1  0
  5  4  1  0
  5  6  1  1
  7  8  2  0
  7  5  1  0
 10 12  1  0
 10  9  1  0
 11 10  2  0
 13 12  1  0
 14 13  1  6
 14 15  1  0
 15  7  1  0
 16 14  1  0
 17 16  2  0
 18 19  1  0
 19 20  1  0
 20 21  1  6
 22 20  1  0
 22 23  1  1
 23 16  1  0
 24 22  1  0
 25 24  2  0
 26 24  1  0
M  END
$$$$
