NQI.pdb
     RDKit          3D

 26 25  0  0  1  0  0  0  0  0999 V2000
   29.9052  -17.2569  -17.7830 N   0  0  0  0  0  0  0  0  0  0  0  0
   29.4527  -18.5407  -17.3865 C   0  0  0  0  0  0  0  0  0  0  0  0
   29.9443  -19.5523  -17.9207 O   0  0  0  0  0  0  0  0  0  0  0  0
   28.4202  -18.6469  -16.3601 C   0  0  0  0  0  0  0  0  0  0  0  0
   27.4165  -19.7297  -16.5623 C   0  0  2  0  0  0  0  0  0  0  0  0
   26.6868  -19.5691  -17.7791 N   0  0  0  0  0  0  0  0  0  0  0  0
   26.5568  -19.9787  -15.3810 C   0  0  0  0  0  0  0  0  0  0  0  0
   25.9554  -19.0226  -14.8479 O   0  0  0  0  0  0  0  0  0  0  0  0
   24.2087  -25.3598  -14.6425 N   0  0  0  0  0  0  0  0  0  0  0  0
   23.5178  -24.2656  -15.2745 C   0  0  0  0  0  0  0  0  0  0  0  0
   22.7185  -24.5774  -16.1718 O   0  0  0  0  0  0  0  0  0  0  0  0
   23.7715  -22.8869  -14.8610 C   0  0  0  0  0  0  0  0  0  0  0  0
   24.6980  -22.7791  -13.6895 C   0  0  0  0  0  0  0  0  0  0  0  0
   25.6149  -21.6238  -13.6739 C   0  0  2  0  0  0  0  0  0  0  0  0
   26.3726  -21.2853  -14.8021 N   0  0  0  0  0  0  0  0  0  0  0  0
   26.2842  -21.4666  -12.3389 C   0  0  0  0  0  0  0  0  0  0  0  0
   27.3155  -22.1704  -12.1772 O   0  0  0  0  0  0  0  0  0  0  0  0
   27.7027  -19.1957   -6.9782 C   0  0  0  0  0  0  0  0  0  0  0  0
   26.8723  -20.2724   -7.6587 C   0  0  0  0  0  0  0  0  0  0  0  0
   26.7143  -19.9355   -9.1221 C   0  0  2  0  0  0  0  0  0  0  0  0
   26.1732  -18.5517   -9.3133 C   0  0  0  0  0  0  0  0  0  0  0  0
   25.9278  -20.9632   -9.8961 C   0  0  2  0  0  0  0  0  0  0  0  0
   25.8439  -20.6322  -11.3218 N   0  0  0  0  0  0  0  0  0  0  0  0
   24.5770  -21.0482   -9.2955 C   0  0  0  0  0  0  0  0  0  0  0  0
   24.3802  -21.5202   -8.1521 O   0  0  0  0  0  0  0  0  0  0  0  0
   23.4414  -20.6016   -9.9807 O   0  0  0  0  0  0  0  0  0  0  0  0
  2  1  1  0
  3  2  2  0
  4  2  1  0
  5  4  1  0
  5  6  1  6
  7  8  2  0
  7  5  1  0
 10 12  1  0
 10  9  1  0
 11 10  2  0
 13 12  1  0
 14 13  1  6
 14 15  1  0
 15  7  1  0
 16 14  1  0
 17 16  2  0
 18 19  1  0
 19 20  1  0
 20 21  1  1
 22 20  1  0
 22 23  1  6
 23 16  1  0
 24 22  1  0
 25 24  2  0
 26 24  1  0
M  END
$$$$
