NQI.pdb
     RDKit          3D

 26 25  0  0  1  0  0  0  0  0999 V2000
   15.0262  -12.6568  -17.1662 N   0  0  0  0  0  0  0  0  0  0  0  0
   15.7198  -12.5218  -15.9370 C   0  0  0  0  0  0  0  0  0  0  0  0
   15.2734  -13.0847  -14.9200 O   0  0  0  0  0  0  0  0  0  0  0  0
   16.9424  -11.7255  -15.8923 C   0  0  0  0  0  0  0  0  0  0  0  0
   17.3427  -11.0826  -17.1757 C   0  0  2  0  0  0  0  0  0  0  0  0
   17.8346  -12.0303  -18.1237 N   0  0  0  0  0  0  0  0  0  0  0  0
   18.2196   -9.8999  -17.0061 C   0  0  0  0  0  0  0  0  0  0  0  0
   19.4567  -10.0585  -16.9388 O   0  0  0  0  0  0  0  0  0  0  0  0
   15.2252   -6.5932  -17.6235 N   0  0  0  0  0  0  0  0  0  0  0  0
   16.0795   -6.1196  -18.6817 C   0  0  0  0  0  0  0  0  0  0  0  0
   15.5378   -5.9738  -19.7892 O   0  0  0  0  0  0  0  0  0  0  0  0
   17.4924   -5.8426  -18.4300 C   0  0  0  0  0  0  0  0  0  0  0  0
   17.8946   -6.0564  -17.0035 C   0  0  0  0  0  0  0  0  0  0  0  0
   18.4427   -7.3823  -16.6611 C   0  0  2  0  0  0  0  0  0  0  0  0
   17.7163   -8.5530  -16.9124 N   0  0  0  0  0  0  0  0  0  0  0  0
   19.2370   -7.3405  -15.3874 C   0  0  0  0  0  0  0  0  0  0  0  0
   18.5901   -7.6399  -14.3497 O   0  0  0  0  0  0  0  0  0  0  0  0
   22.4254   -9.5561  -11.9354 C   0  0  0  0  0  0  0  0  0  0  0  0
   23.0455   -8.4374  -12.7575 C   0  0  0  0  0  0  0  0  0  0  0  0
   22.2783   -8.2777  -14.0483 C   0  0  2  0  0  0  0  0  0  0  0  0
   23.1893   -8.3038  -15.2373 C   0  0  0  0  0  0  0  0  0  0  0  0
   21.3636   -7.0790  -14.0619 C   0  0  2  0  0  0  0  0  0  0  0  0
   20.5788   -7.0000  -15.2977 N   0  0  0  0  0  0  0  0  0  0  0  0
   22.1988   -5.8683  -13.8908 C   0  0  0  0  0  0  0  0  0  0  0  0
   22.6019   -5.1891  -14.8629 O   0  0  0  0  0  0  0  0  0  0  0  0
   22.5835   -5.4172  -12.6232 O   0  0  0  0  0  0  0  0  0  0  0  0
  2  1  1  0
  3  2  2  0
  4  2  1  0
  5  4  1  0
  5  6  1  6
  7  8  2  0
  7  5  1  0
 10 12  1  0
 10  9  1  0
 11 10  2  0
 13 12  1  0
 14 13  1  1
 14 15  1  0
 15  7  1  0
 16 14  1  0
 17 16  2  0
 18 19  1  0
 19 20  1  0
 20 21  1  6
 22 20  1  0
 22 23  1  6
 23 16  1  0
 24 22  1  0
 25 24  2  0
 26 24  1  0
M  END
$$$$
