MQH.pdb
     RDKit          3D

 28 28  0  0  1  0  0  0  0  0999 V2000
   37.3662   -6.8297  -14.0313 C   0  0  0  0  0  0  0  0  0  0  0  0
   35.9040   -6.8949  -15.0767 S   0  0  0  0  0  0  0  0  0  0  0  0
   35.4636   -8.5583  -15.5643 C   0  0  0  0  0  0  0  0  0  0  0  0
   34.2359   -8.6828  -16.3922 C   0  0  0  0  0  0  0  0  0  0  0  0
   33.8978  -10.1061  -16.7711 C   0  0  2  0  0  0  0  0  0  0  0  0
   34.9848  -10.6647  -17.5013 N   0  0  0  0  0  0  0  0  0  0  0  0
   32.5753  -10.1857  -17.4465 C   0  0  0  0  0  0  0  0  0  0  0  0
   32.6443  -10.0968  -18.7250 O   0  0  0  0  0  0  0  0  0  0  0  0
   27.0553  -12.5195  -15.9414 N   0  0  0  0  0  0  0  0  0  0  0  0
   26.7568  -11.9364  -17.2068 C   0  0  0  0  0  0  0  0  0  0  0  0
   25.6573  -12.1638  -17.7436 O   0  0  0  0  0  0  0  0  0  0  0  0
   27.8099  -11.0716  -17.8163 C   0  0  0  0  0  0  0  0  0  0  0  0
   29.0206  -11.1611  -16.9466 C   0  0  0  0  0  0  0  0  0  0  0  0
   30.1176  -10.3138  -17.5392 C   0  0  2  0  0  0  0  0  0  0  0  0
   31.3308  -10.3430  -16.7955 N   0  0  0  0  0  0  0  0  0  0  0  0
   29.5755   -8.9590  -17.7782 C   0  0  0  0  0  0  0  0  0  0  0  0
   29.7657   -8.0934  -16.8949 O   0  0  0  0  0  0  0  0  0  0  0  0
   28.8582   -8.5915  -18.9437 N   0  0  0  0  0  0  0  0  0  0  0  0
   28.6827   -7.2395  -19.4295 C   0  0  1  0  0  0  0  0  0  0  0  0
   30.0270   -6.7548  -19.9176 C   0  0  0  0  0  0  0  0  0  0  0  0
   30.7640   -5.9369  -18.9535 C   0  0  0  0  0  0  0  0  0  0  0  0
   30.3054   -5.5601  -17.7100 C   0  0  0  0  0  0  0  0  0  0  0  0
   31.3028   -4.8210  -17.1685 N   0  0  0  0  0  0  0  0  0  0  0  0
   32.3331   -4.7393  -18.0294 C   0  0  0  0  0  0  0  0  0  0  0  0
   32.0049   -5.4299  -19.1393 N   0  0  0  0  0  0  0  0  0  0  0  0
   27.6007   -7.0876  -20.4229 C   0  0  0  0  0  0  0  0  0  0  0  0
   26.9074   -8.1482  -20.9592 O   0  0  0  0  0  0  0  0  0  0  0  0
   27.2980   -5.9274  -20.7950 O   0  0  0  0  0  0  0  0  0  0  0  0
  1  2  1  0
  3  2  1  0
  4  5  1  0
  4  3  1  0
  5  6  1  6
  7  5  1  0
  8  7  2  0
 10  9  1  0
 10 12  1  0
 11 10  2  0
 13 12  1  0
 14 13  1  1
 14 15  1  0
 15  7  1  0
 16 14  1  0
 17 16  2  0
 18 16  1  0
 19 18  1  0
 19 20  1  6
 20 21  1  0
 21 22  2  0
 23 22  1  0
 24 23  1  0
 25 21  1  0
 25 24  2  0
 26 19  1  0
 26 27  1  0
 28 26  2  0
M  END
$$$$
