MQH.pdb
     RDKit          3D

 28 28  0  0  1  0  0  0  0  0999 V2000
   21.7781  -19.0131  -22.7748 C   0  0  0  0  0  0  0  0  0  0  0  0
   21.9745  -20.2406  -21.4748 S   0  0  0  0  0  0  0  0  0  0  0  0
   21.9950  -19.5284  -19.8345 C   0  0  0  0  0  0  0  0  0  0  0  0
   21.0349  -18.4182  -19.6025 C   0  0  0  0  0  0  0  0  0  0  0  0
   21.6009  -17.2846  -18.7790 C   0  0  2  0  0  0  0  0  0  0  0  0
   22.7311  -17.7555  -18.0526 N   0  0  0  0  0  0  0  0  0  0  0  0
   20.5460  -16.6358  -17.9558 C   0  0  0  0  0  0  0  0  0  0  0  0
   19.5469  -16.2119  -18.6407 O   0  0  0  0  0  0  0  0  0  0  0  0
   18.8873  -17.2536  -12.1022 N   0  0  0  0  0  0  0  0  0  0  0  0
   18.4091  -18.1000  -13.1440 C   0  0  0  0  0  0  0  0  0  0  0  0
   17.8396  -19.1680  -12.8546 O   0  0  0  0  0  0  0  0  0  0  0  0
   18.6299  -17.6355  -14.5454 C   0  0  0  0  0  0  0  0  0  0  0  0
   19.2899  -16.2977  -14.4744 C   0  0  0  0  0  0  0  0  0  0  0  0
   19.5354  -15.7937  -15.8737 C   0  0  2  0  0  0  0  0  0  0  0  0
   20.5860  -16.4729  -16.5524 N   0  0  0  0  0  0  0  0  0  0  0  0
   19.6912  -14.3245  -15.8138 C   0  0  0  0  0  0  0  0  0  0  0  0
   20.8205  -13.8718  -15.5212 O   0  0  0  0  0  0  0  0  0  0  0  0
   18.6394  -13.4094  -16.0674 N   0  0  0  0  0  0  0  0  0  0  0  0
   18.7529  -11.9673  -16.0225 C   0  0  1  0  0  0  0  0  0  0  0  0
   18.7920  -11.4707  -17.4480 C   0  0  0  0  0  0  0  0  0  0  0  0
   18.9370  -10.0206  -17.5818 C   0  0  0  0  0  0  0  0  0  0  0  0
   19.1167   -9.1362  -16.5405 C   0  0  0  0  0  0  0  0  0  0  0  0
   19.2019   -7.9143  -17.1182 N   0  0  0  0  0  0  0  0  0  0  0  0
   19.0814   -8.0281  -18.4531 C   0  0  0  0  0  0  0  0  0  0  0  0
   18.9168   -9.3330  -18.7472 N   0  0  0  0  0  0  0  0  0  0  0  0
   17.7285  -11.3039  -15.1909 C   0  0  0  0  0  0  0  0  0  0  0  0
   17.9536  -10.1395  -14.4934 O   0  0  0  0  0  0  0  0  0  0  0  0
   16.5918  -11.8320  -15.1197 O   0  0  0  0  0  0  0  0  0  0  0  0
  1  2  1  0
  3  2  1  0
  4  5  1  0
  4  3  1  0
  5  6  1  1
  7  5  1  0
  8  7  2  0
 10  9  1  0
 10 12  1  0
 11 10  2  0
 13 12  1  0
 14 13  1  1
 14 15  1  0
 15  7  1  0
 16 14  1  0
 17 16  2  0
 18 16  1  0
 19 18  1  0
 19 20  1  6
 20 21  1  0
 21 22  2  0
 23 22  1  0
 24 23  1  0
 25 21  1  0
 25 24  2  0
 26 19  1  0
 26 27  1  0
 28 26  2  0
M  END
$$$$
