MQH.pdb
     RDKit          3D

 28 28  0  0  1  0  0  0  0  0999 V2000
   15.4778  -15.0340  -16.8585 C   0  0  0  0  0  0  0  0  0  0  0  0
   16.6688  -13.9498  -16.0577 S   0  0  0  0  0  0  0  0  0  0  0  0
   18.3661  -14.4165  -16.3739 C   0  0  0  0  0  0  0  0  0  0  0  0
   19.3980  -13.5939  -15.6907 C   0  0  0  0  0  0  0  0  0  0  0  0
   20.2447  -12.7711  -16.6340 C   0  0  2  0  0  0  0  0  0  0  0  0
   20.7244  -13.6087  -17.6805 N   0  0  0  0  0  0  0  0  0  0  0  0
   21.2930  -12.0148  -15.8988 C   0  0  0  0  0  0  0  0  0  0  0  0
   21.0743  -11.9263  -14.6373 O   0  0  0  0  0  0  0  0  0  0  0  0
   27.2697  -11.0163  -16.9052 N   0  0  0  0  0  0  0  0  0  0  0  0
   27.0920  -10.2488  -15.7179 C   0  0  0  0  0  0  0  0  0  0  0  0
   28.0824   -9.7413  -15.1608 O   0  0  0  0  0  0  0  0  0  0  0  0
   25.6952  -10.1030  -15.2116 C   0  0  0  0  0  0  0  0  0  0  0  0
   24.7951  -10.8053  -16.1743 C   0  0  0  0  0  0  0  0  0  0  0  0
   23.3753  -10.7189  -15.6753 C   0  0  2  0  0  0  0  0  0  0  0  0
   22.4398  -11.4280  -16.4802 N   0  0  0  0  0  0  0  0  0  0  0  0
   23.0471   -9.2928  -15.4633 C   0  0  0  0  0  0  0  0  0  0  0  0
   23.7445   -8.6519  -14.6456 O   0  0  0  0  0  0  0  0  0  0  0  0
   21.9942   -8.6188  -16.1304 N   0  0  0  0  0  0  0  0  0  0  0  0
   21.6334   -7.2302  -15.9400 C   0  0  1  0  0  0  0  0  0  0  0  0
   21.3372   -6.6477  -17.3014 C   0  0  0  0  0  0  0  0  0  0  0  0
   22.4520   -6.7174  -18.2469 C   0  0  0  0  0  0  0  0  0  0  0  0
   23.5627   -5.9020  -18.2340 C   0  0  0  0  0  0  0  0  0  0  0  0
   24.3242   -6.3164  -19.2745 N   0  0  0  0  0  0  0  0  0  0  0  0
   23.7206   -7.3389  -19.9066 C   0  0  0  0  0  0  0  0  0  0  0  0
   22.5581   -7.5926  -19.2736 N   0  0  0  0  0  0  0  0  0  0  0  0
   20.5551   -7.0134  -14.9545 C   0  0  0  0  0  0  0  0  0  0  0  0
   20.4879   -5.9127  -14.1317 O   0  0  0  0  0  0  0  0  0  0  0  0
   19.6517   -7.8807  -14.8659 O   0  0  0  0  0  0  0  0  0  0  0  0
  1  2  1  0
  3  2  1  0
  4  5  1  0
  4  3  1  0
  5  6  1  6
  7  5  1  0
  8  7  2  0
 10  9  1  0
 10 12  1  0
 11 10  2  0
 13 12  1  0
 14 13  1  6
 14 15  1  0
 15  7  1  0
 16 14  1  0
 17 16  2  0
 18 16  1  0
 19 18  1  0
 19 20  1  6
 20 21  1  0
 21 22  2  0
 23 22  1  0
 24 23  1  0
 25 21  1  0
 25 24  2  0
 26 19  1  0
 26 27  1  0
 28 26  2  0
M  END
$$$$
