MQH.pdb
     RDKit          3D

 28 28  0  0  1  0  0  0  0  0999 V2000
   21.5844  -16.3454    2.6336 C   0  0  0  0  0  0  0  0  0  0  0  0
   20.2979  -15.1156    2.8934 S   0  0  0  0  0  0  0  0  0  0  0  0
   18.7738  -15.8149    3.5152 C   0  0  0  0  0  0  0  0  0  0  0  0
   17.7350  -14.8341    3.9238 C   0  0  0  0  0  0  0  0  0  0  0  0
   16.4647  -15.4703    4.4389 C   0  0  2  0  0  0  0  0  0  0  0  0
   15.4761  -14.4610    4.6145 N   0  0  0  0  0  0  0  0  0  0  0  0
   16.7289  -16.3116    5.6363 C   0  0  0  0  0  0  0  0  0  0  0  0
   16.5112  -15.7077    6.7476 O   0  0  0  0  0  0  0  0  0  0  0  0
   15.0502  -21.7834    7.0547 N   0  0  0  0  0  0  0  0  0  0  0  0
   14.3129  -20.5756    7.2228 C   0  0  0  0  0  0  0  0  0  0  0  0
   13.0944  -20.6295    7.4699 O   0  0  0  0  0  0  0  0  0  0  0  0
   15.0721  -19.2975    7.0874 C   0  0  0  0  0  0  0  0  0  0  0  0
   16.5072  -19.6504    6.8721 C   0  0  0  0  0  0  0  0  0  0  0  0
   17.3248  -18.3849    6.8246 C   0  0  2  0  0  0  0  0  0  0  0  0
   17.1778  -17.6516    5.6136 N   0  0  0  0  0  0  0  0  0  0  0  0
   18.7214  -18.7250    7.1715 C   0  0  0  0  0  0  0  0  0  0  0  0
   19.4631  -19.1401    6.2533 O   0  0  0  0  0  0  0  0  0  0  0  0
   19.2601  -18.6074    8.4768 N   0  0  0  0  0  0  0  0  0  0  0  0
   20.5882  -19.0209    8.8767 C   0  0  1  0  0  0  0  0  0  0  0  0
   20.9927  -18.1690   10.0561 C   0  0  0  0  0  0  0  0  0  0  0  0
   21.4830  -16.8363    9.7024 C   0  0  0  0  0  0  0  0  0  0  0  0
   20.7577  -15.8666    9.0449 C   0  0  0  0  0  0  0  0  0  0  0  0
   21.5947  -14.8082    8.9304 N   0  0  0  0  0  0  0  0  0  0  0  0
   22.7836  -15.1006    9.4875 C   0  0  0  0  0  0  0  0  0  0  0  0
   22.7207  -16.3580    9.9685 N   0  0  0  0  0  0  0  0  0  0  0  0
   20.7250  -20.4714    9.1178 C   0  0  0  0  0  0  0  0  0  0  0  0
   21.8743  -21.1804    8.8544 O   0  0  0  0  0  0  0  0  0  0  0  0
   19.7386  -21.0880    9.5902 O   0  0  0  0  0  0  0  0  0  0  0  0
  1  2  1  0
  3  2  1  0
  4  5  1  0
  4  3  1  0
  5  6  1  1
  7  5  1  0
  8  7  2  0
 10  9  1  0
 10 12  1  0
 11 10  2  0
 13 12  1  0
 14 13  1  6
 14 15  1  0
 15  7  1  0
 16 14  1  0
 17 16  2  0
 18 16  1  0
 19 18  1  0
 19 20  1  1
 20 21  1  0
 21 22  2  0
 23 22  1  0
 24 23  1  0
 25 21  1  0
 25 24  2  0
 26 19  1  0
 26 27  1  0
 28 26  2  0
M  END
$$$$
