MQH.pdb
     RDKit          3D

 28 28  0  0  1  0  0  0  0  0999 V2000
   27.0739  -18.5951   -6.5083 C   0  0  0  0  0  0  0  0  0  0  0  0
   28.2862  -19.9183   -6.6286 S   0  0  0  0  0  0  0  0  0  0  0  0
   28.0394  -20.9685   -8.0550 C   0  0  0  0  0  0  0  0  0  0  0  0
   27.0795  -20.4613   -9.0696 C   0  0  0  0  0  0  0  0  0  0  0  0
   26.9336  -21.3614  -10.2747 C   0  0  2  0  0  0  0  0  0  0  0  0
   28.2272  -21.7451  -10.7290 N   0  0  0  0  0  0  0  0  0  0  0  0
   26.0584  -20.7449  -11.3068 C   0  0  0  0  0  0  0  0  0  0  0  0
   25.9614  -19.4693  -11.2039 O   0  0  0  0  0  0  0  0  0  0  0  0
   26.6734  -22.6363  -16.2642 N   0  0  0  0  0  0  0  0  0  0  0  0
   27.5200  -21.7936  -15.4874 C   0  0  0  0  0  0  0  0  0  0  0  0
   28.7542  -21.9427  -15.5442 O   0  0  0  0  0  0  0  0  0  0  0  0
   26.8511  -20.7643  -14.6378 C   0  0  0  0  0  0  0  0  0  0  0  0
   25.3782  -20.9899  -14.7384 C   0  0  0  0  0  0  0  0  0  0  0  0
   24.7478  -20.7407  -13.3920 C   0  0  2  0  0  0  0  0  0  0  0  0
   25.3739  -21.4456  -12.3257 N   0  0  0  0  0  0  0  0  0  0  0  0
   23.2930  -20.9757  -13.5135 C   0  0  0  0  0  0  0  0  0  0  0  0
   22.8648  -22.1194  -13.2410 O   0  0  0  0  0  0  0  0  0  0  0  0
   22.3656  -19.9838  -13.9189 N   0  0  0  0  0  0  0  0  0  0  0  0
   20.9437  -20.1871  -14.0962 C   0  0  1  0  0  0  0  0  0  0  0  0
   20.2305  -19.1085  -13.3163 C   0  0  0  0  0  0  0  0  0  0  0  0
   20.1171  -19.3715  -11.8812 C   0  0  0  0  0  0  0  0  0  0  0  0
   20.6511  -20.4582  -11.2234 C   0  0  0  0  0  0  0  0  0  0  0  0
   20.3064  -20.2960   -9.9238 N   0  0  0  0  0  0  0  0  0  0  0  0
   19.5927  -19.1654   -9.7758 C   0  0  0  0  0  0  0  0  0  0  0  0
   19.4717  -18.5870  -10.9870 N   0  0  0  0  0  0  0  0  0  0  0  0
   20.5157  -20.2811  -15.5065 C   0  0  0  0  0  0  0  0  0  0  0  0
   19.3381  -20.8702  -15.9054 O   0  0  0  0  0  0  0  0  0  0  0  0
   21.2679  -19.7951  -16.3864 O   0  0  0  0  0  0  0  0  0  0  0  0
  1  2  1  0
  3  2  1  0
  4  5  1  0
  4  3  1  0
  5  6  1  6
  7  5  1  0
  8  7  2  0
 10  9  1  0
 10 12  1  0
 11 10  2  0
 13 12  1  0
 14 13  1  6
 14 15  1  0
 15  7  1  0
 16 14  1  0
 17 16  2  0
 18 16  1  0
 19 18  1  0
 19 20  1  6
 20 21  1  0
 21 22  2  0
 23 22  1  0
 24 23  1  0
 25 21  1  0
 25 24  2  0
 26 19  1  0
 26 27  1  0
 28 26  2  0
M  END
$$$$
