MQH.pdb
     RDKit          3D

 28 28  0  0  1  0  0  0  0  0999 V2000
   27.0490  -13.1812  -14.5363 C   0  0  0  0  0  0  0  0  0  0  0  0
   28.2547  -13.6203  -15.7967 S   0  0  0  0  0  0  0  0  0  0  0  0
   27.6067  -13.5012  -17.4594 C   0  0  0  0  0  0  0  0  0  0  0  0
   26.4641  -12.5686  -17.6398 C   0  0  0  0  0  0  0  0  0  0  0  0
   25.1459  -13.2617  -17.8965 C   0  0  2  0  0  0  0  0  0  0  0  0
   25.2455  -14.0230  -19.0954 N   0  0  0  0  0  0  0  0  0  0  0  0
   24.0122  -12.3005  -17.8504 C   0  0  0  0  0  0  0  0  0  0  0  0
   23.8760  -11.6135  -18.9258 O   0  0  0  0  0  0  0  0  0  0  0  0
   18.4327  -12.8559  -15.9554 N   0  0  0  0  0  0  0  0  0  0  0  0
   19.0967  -13.4528  -17.0659 C   0  0  0  0  0  0  0  0  0  0  0  0
   18.5803  -14.4304  -17.6371 O   0  0  0  0  0  0  0  0  0  0  0  0
   20.3985  -12.8492  -17.4775 C   0  0  0  0  0  0  0  0  0  0  0  0
   20.7202  -11.7689  -16.4977 C   0  0  0  0  0  0  0  0  0  0  0  0
   22.0671  -11.1821  -16.8348 C   0  0  2  0  0  0  0  0  0  0  0  0
   23.1369  -12.1176  -16.7559 N   0  0  0  0  0  0  0  0  0  0  0  0
   22.2557   -9.9626  -16.0201 C   0  0  0  0  0  0  0  0  0  0  0  0
   22.7710  -10.0949  -14.8875 O   0  0  0  0  0  0  0  0  0  0  0  0
   21.8870   -8.6633  -16.4491 N   0  0  0  0  0  0  0  0  0  0  0  0
   22.0278   -7.4513  -15.6707 C   0  0  1  0  0  0  0  0  0  0  0  0
   21.8311   -6.2844  -16.6088 C   0  0  0  0  0  0  0  0  0  0  0  0
   21.9688   -4.9702  -15.9799 C   0  0  0  0  0  0  0  0  0  0  0  0
   21.6551   -4.6741  -14.6712 C   0  0  0  0  0  0  0  0  0  0  0  0
   21.9364   -3.3575  -14.5238 N   0  0  0  0  0  0  0  0  0  0  0  0
   22.4022   -2.8552  -15.6815 C   0  0  0  0  0  0  0  0  0  0  0  0
   22.4247   -3.8511  -16.5892 N   0  0  0  0  0  0  0  0  0  0  0  0
   21.1696   -7.3986  -14.4700 C   0  0  0  0  0  0  0  0  0  0  0  0
   21.6026   -6.9429  -13.2462 O   0  0  0  0  0  0  0  0  0  0  0  0
   19.9812   -7.7895  -14.5749 O   0  0  0  0  0  0  0  0  0  0  0  0
  1  2  1  0
  3  2  1  0
  4  5  1  0
  4  3  1  0
  5  6  1  6
  7  5  1  0
  8  7  2  0
 10  9  1  0
 10 12  1  0
 11 10  2  0
 13 12  1  0
 14 13  1  1
 14 15  1  0
 15  7  1  0
 16 14  1  0
 17 16  2  0
 18 16  1  0
 19 18  1  0
 19 20  1  6
 20 21  1  0
 21 22  2  0
 23 22  1  0
 24 23  1  0
 25 21  1  0
 25 24  2  0
 26 19  1  0
 26 27  1  0
 28 26  2  0
M  END
$$$$
