MQH.pdb
     RDKit          3D

 28 28  0  0  1  0  0  0  0  0999 V2000
   17.6648  -13.7921  -14.6252 C   0  0  0  0  0  0  0  0  0  0  0  0
   18.0836  -14.1043  -16.3463 S   0  0  0  0  0  0  0  0  0  0  0  0
   19.8368  -13.9773  -16.6761 C   0  0  0  0  0  0  0  0  0  0  0  0
   20.4486  -12.6507  -16.4043 C   0  0  0  0  0  0  0  0  0  0  0  0
   20.7054  -11.8314  -17.6479 C   0  0  2  0  0  0  0  0  0  0  0  0
   21.6768  -12.4944  -18.4503 N   0  0  0  0  0  0  0  0  0  0  0  0
   21.0236  -10.4190  -17.3082 C   0  0  0  0  0  0  0  0  0  0  0  0
   22.0018  -10.2952  -16.4868 O   0  0  0  0  0  0  0  0  0  0  0  0
   19.5523   -5.0562  -19.9797 N   0  0  0  0  0  0  0  0  0  0  0  0
   20.4514   -6.0165  -20.5272 C   0  0  0  0  0  0  0  0  0  0  0  0
   20.8047   -5.9188  -21.7164 O   0  0  0  0  0  0  0  0  0  0  0  0
   20.9189   -7.1006  -19.6135 C   0  0  0  0  0  0  0  0  0  0  0  0
   20.2732   -6.8757  -18.2858 C   0  0  0  0  0  0  0  0  0  0  0  0
   20.6820   -7.9803  -17.3449 C   0  0  2  0  0  0  0  0  0  0  0  0
   20.3482   -9.2834  -17.8100 N   0  0  0  0  0  0  0  0  0  0  0  0
   20.1618   -7.6559  -15.9994 C   0  0  0  0  0  0  0  0  0  0  0  0
   19.0526   -8.1354  -15.6745 O   0  0  0  0  0  0  0  0  0  0  0  0
   20.8457   -6.8378  -15.0661 N   0  0  0  0  0  0  0  0  0  0  0  0
   20.4002   -6.5478  -13.7199 C   0  0  1  0  0  0  0  0  0  0  0  0
   21.6143   -6.5836  -12.8227 C   0  0  0  0  0  0  0  0  0  0  0  0
   21.3399   -6.2794  -11.4178 C   0  0  0  0  0  0  0  0  0  0  0  0
   20.0886   -6.1032  -10.8682 C   0  0  0  0  0  0  0  0  0  0  0  0
   20.3060   -5.8438   -9.5568 N   0  0  0  0  0  0  0  0  0  0  0  0
   21.6262   -5.8567   -9.2989 C   0  0  0  0  0  0  0  0  0  0  0  0
   22.2733   -6.1266  -10.4499 N   0  0  0  0  0  0  0  0  0  0  0  0
   19.6081   -5.3074  -13.5973 C   0  0  0  0  0  0  0  0  0  0  0  0
   18.5352   -5.1721  -12.7468 O   0  0  0  0  0  0  0  0  0  0  0  0
   19.9346   -4.3247  -14.3071 O   0  0  0  0  0  0  0  0  0  0  0  0
  1  2  1  0
  3  2  1  0
  4  5  1  0
  4  3  1  0
  5  6  1  1
  7  5  1  0
  8  7  2  0
 10  9  1  0
 10 12  1  0
 11 10  2  0
 13 12  1  0
 14 13  1  6
 14 15  1  0
 15  7  1  0
 16 14  1  0
 17 16  2  0
 18 16  1  0
 19 18  1  0
 19 20  1  1
 20 21  1  0
 21 22  2  0
 23 22  1  0
 24 23  1  0
 25 21  1  0
 25 24  2  0
 26 19  1  0
 26 27  1  0
 28 26  2  0
M  END
$$$$
