MQH.pdb
     RDKit          3D

 28 28  0  0  1  0  0  0  0  0999 V2000
   17.0528  -12.4978  -19.4152 C   0  0  0  0  0  0  0  0  0  0  0  0
   17.3750  -14.1156  -20.1322 S   0  0  0  0  0  0  0  0  0  0  0  0
   18.1537  -15.2480  -18.9877 C   0  0  0  0  0  0  0  0  0  0  0  0
   18.8111  -14.6231  -17.8107 C   0  0  0  0  0  0  0  0  0  0  0  0
   20.2037  -15.1448  -17.5417 C   0  0  2  0  0  0  0  0  0  0  0  0
   20.1110  -16.4324  -16.9416 N   0  0  0  0  0  0  0  0  0  0  0  0
   21.0159  -14.1530  -16.7880 C   0  0  0  0  0  0  0  0  0  0  0  0
   20.5527  -13.8894  -15.6206 O   0  0  0  0  0  0  0  0  0  0  0  0
   26.9299  -12.5578  -16.7008 N   0  0  0  0  0  0  0  0  0  0  0  0
   26.4012  -11.6293  -15.7579 C   0  0  0  0  0  0  0  0  0  0  0  0
   27.1781  -10.9730  -15.0407 O   0  0  0  0  0  0  0  0  0  0  0  0
   24.9150  -11.5051  -15.6941 C   0  0  0  0  0  0  0  0  0  0  0  0
   24.3406  -12.5289  -16.6173 C   0  0  0  0  0  0  0  0  0  0  0  0
   22.8390  -12.5250  -16.4856 C   0  0  2  0  0  0  0  0  0  0  0  0
   22.1921  -13.5281  -17.2609 N   0  0  0  0  0  0  0  0  0  0  0  0
   22.3579  -11.1493  -16.7358 C   0  0  0  0  0  0  0  0  0  0  0  0
   21.9926  -10.8643  -17.8981 O   0  0  0  0  0  0  0  0  0  0  0  0
   22.2891  -10.1449  -15.7385 N   0  0  0  0  0  0  0  0  0  0  0  0
   21.6004   -8.8787  -15.8691 C   0  0  1  0  0  0  0  0  0  0  0  0
   20.1869   -9.1745  -16.3104 C   0  0  0  0  0  0  0  0  0  0  0  0
   19.3426   -7.9908  -16.4763 C   0  0  0  0  0  0  0  0  0  0  0  0
   19.7978   -6.7108  -16.7069 C   0  0  0  0  0  0  0  0  0  0  0  0
   18.6846   -5.9443  -16.7940 N   0  0  0  0  0  0  0  0  0  0  0  0
   17.5886   -6.7058  -16.6261 C   0  0  0  0  0  0  0  0  0  0  0  0
   17.9902   -7.9771  -16.4286 N   0  0  0  0  0  0  0  0  0  0  0  0
   21.6804   -8.0184  -14.6714 C   0  0  0  0  0  0  0  0  0  0  0  0
   21.5702   -6.6476  -14.7119 O   0  0  0  0  0  0  0  0  0  0  0  0
   21.8568   -8.5703  -13.5577 O   0  0  0  0  0  0  0  0  0  0  0  0
  1  2  1  0
  3  2  1  0
  4  5  1  0
  4  3  1  0
  5  6  1  1
  7  5  1  0
  8  7  2  0
 10  9  1  0
 10 12  1  0
 11 10  2  0
 13 12  1  0
 14 13  1  6
 14 15  1  0
 15  7  1  0
 16 14  1  0
 17 16  2  0
 18 16  1  0
 19 18  1  0
 19 20  1  1
 20 21  1  0
 21 22  2  0
 23 22  1  0
 24 23  1  0
 25 21  1  0
 25 24  2  0
 26 19  1  0
 26 27  1  0
 28 26  2  0
M  END
$$$$
