MQH.pdb
     RDKit          3D

 28 28  0  0  1  0  0  0  0  0999 V2000
   19.8077  -15.7312  -16.2146 C   0  0  0  0  0  0  0  0  0  0  0  0
   21.2108  -15.9093  -17.3257 S   0  0  0  0  0  0  0  0  0  0  0  0
   21.1863  -14.7413  -18.6799 C   0  0  0  0  0  0  0  0  0  0  0  0
   20.8162  -13.3475  -18.3213 C   0  0  0  0  0  0  0  0  0  0  0  0
   21.8617  -12.3231  -18.6969 C   0  0  2  0  0  0  0  0  0  0  0  0
   22.9425  -12.9789  -19.3517 N   0  0  0  0  0  0  0  0  0  0  0  0
   22.2443  -11.4878  -17.5276 C   0  0  0  0  0  0  0  0  0  0  0  0
   22.7536  -12.1596  -16.5600 O   0  0  0  0  0  0  0  0  0  0  0  0
   26.7431  -10.0407  -16.3515 N   0  0  0  0  0  0  0  0  0  0  0  0
   25.9928  -10.9490  -15.5500 C   0  0  0  0  0  0  0  0  0  0  0  0
   26.5867  -11.8240  -14.8940 O   0  0  0  0  0  0  0  0  0  0  0  0
   24.5091  -10.7840  -15.5528 C   0  0  0  0  0  0  0  0  0  0  0  0
   24.1993   -9.5364  -16.3130 C   0  0  0  0  0  0  0  0  0  0  0  0
   22.7041   -9.3578  -16.3799 C   0  0  2  0  0  0  0  0  0  0  0  0
   22.0854  -10.0865  -17.4345 N   0  0  0  0  0  0  0  0  0  0  0  0
   22.4126   -7.9081  -16.3811 C   0  0  0  0  0  0  0  0  0  0  0  0
   22.8471   -7.2292  -17.3382 O   0  0  0  0  0  0  0  0  0  0  0  0
   21.6742   -7.2519  -15.3651 N   0  0  0  0  0  0  0  0  0  0  0  0
   21.3764   -5.8361  -15.3257 C   0  0  1  0  0  0  0  0  0  0  0  0
   19.8904   -5.6912  -15.1001 C   0  0  0  0  0  0  0  0  0  0  0  0
   19.4049   -4.3108  -15.1224 C   0  0  0  0  0  0  0  0  0  0  0  0
   19.8064   -3.3370  -16.0108 C   0  0  0  0  0  0  0  0  0  0  0  0
   19.1079   -2.2285  -15.6680 N   0  0  0  0  0  0  0  0  0  0  0  0
   18.3099   -2.4950  -14.6184 C   0  0  0  0  0  0  0  0  0  0  0  0
   18.4896   -3.7858  -14.2750 N   0  0  0  0  0  0  0  0  0  0  0  0
   22.1995   -5.0697  -14.3686 C   0  0  0  0  0  0  0  0  0  0  0  0
   22.9375   -5.6525  -13.3644 O   0  0  0  0  0  0  0  0  0  0  0  0
   22.2269   -3.8195  -14.4807 O   0  0  0  0  0  0  0  0  0  0  0  0
  1  2  1  0
  3  2  1  0
  4  5  1  0
  4  3  1  0
  5  6  1  1
  7  5  1  0
  8  7  2  0
 10  9  1  0
 10 12  1  0
 11 10  2  0
 13 12  1  0
 14 13  1  6
 14 15  1  0
 15  7  1  0
 16 14  1  0
 17 16  2  0
 18 16  1  0
 19 18  1  0
 19 20  1  1
 20 21  1  0
 21 22  2  0
 23 22  1  0
 24 23  1  0
 25 21  1  0
 25 24  2  0
 26 19  1  0
 26 27  1  0
 28 26  2  0
M  END
$$$$
