MQH.pdb
     RDKit          3D

 28 28  0  0  1  0  0  0  0  0999 V2000
   19.1131  -12.7422    2.8318 C   0  0  0  0  0  0  0  0  0  0  0  0
   18.9514  -14.0459    1.6032 S   0  0  0  0  0  0  0  0  0  0  0  0
   17.8550  -15.3621    2.1168 C   0  0  0  0  0  0  0  0  0  0  0  0
   18.0199  -15.8274    3.5184 C   0  0  0  0  0  0  0  0  0  0  0  0
   16.9986  -16.8571    3.9432 C   0  0  2  0  0  0  0  0  0  0  0  0
   15.7049  -16.2629    3.9304 N   0  0  0  0  0  0  0  0  0  0  0  0
   17.3846  -17.5037    5.2255 C   0  0  0  0  0  0  0  0  0  0  0  0
   18.4853  -18.1603    5.1598 O   0  0  0  0  0  0  0  0  0  0  0  0
   17.1196  -15.9545   11.6266 N   0  0  0  0  0  0  0  0  0  0  0  0
   18.0360  -16.6982   10.8282 C   0  0  0  0  0  0  0  0  0  0  0  0
   19.2374  -16.3743   10.8096 O   0  0  0  0  0  0  0  0  0  0  0  0
   17.4775  -17.8430   10.0496 C   0  0  0  0  0  0  0  0  0  0  0  0
   16.7460  -17.2730    8.8789 C   0  0  0  0  0  0  0  0  0  0  0  0
   17.1739  -17.9987    7.6289 C   0  0  2  0  0  0  0  0  0  0  0  0
   16.6497  -17.4366    6.4309 N   0  0  0  0  0  0  0  0  0  0  0  0
   16.8862  -19.4378    7.8099 C   0  0  0  0  0  0  0  0  0  0  0  0
   15.7090  -19.8217    7.6293 O   0  0  0  0  0  0  0  0  0  0  0  0
   17.8634  -20.3972    8.1740 N   0  0  0  0  0  0  0  0  0  0  0  0
   17.6199  -21.8105    8.3689 C   0  0  1  0  0  0  0  0  0  0  0  0
   18.7203  -22.5625    7.6590 C   0  0  0  0  0  0  0  0  0  0  0  0
   18.5511  -22.6597    6.2087 C   0  0  0  0  0  0  0  0  0  0  0  0
   17.5079  -22.1200    5.4881 C   0  0  0  0  0  0  0  0  0  0  0  0
   17.7548  -22.4492    4.1978 N   0  0  0  0  0  0  0  0  0  0  0  0
   18.8944  -23.1590    4.1151 C   0  0  0  0  0  0  0  0  0  0  0  0
   19.3935  -23.2931    5.3598 N   0  0  0  0  0  0  0  0  0  0  0  0
   17.4456  -22.2068    9.7808 C   0  0  0  0  0  0  0  0  0  0  0  0
   16.5595  -23.1746   10.1943 O   0  0  0  0  0  0  0  0  0  0  0  0
   18.1460  -21.6292   10.6480 O   0  0  0  0  0  0  0  0  0  0  0  0
  1  2  1  0
  3  2  1  0
  4  5  1  0
  4  3  1  0
  5  6  1  1
  7  5  1  0
  8  7  2  0
 10  9  1  0
 10 12  1  0
 11 10  2  0
 13 12  1  0
 14 13  1  1
 14 15  1  0
 15  7  1  0
 16 14  1  0
 17 16  2  0
 18 16  1  0
 19 18  1  0
 19 20  1  1
 20 21  1  0
 21 22  2  0
 23 22  1  0
 24 23  1  0
 25 21  1  0
 25 24  2  0
 26 19  1  0
 26 27  1  0
 28 26  2  0
M  END
$$$$
