MQH.pdb
     RDKit          3D

 28 28  0  0  1  0  0  0  0  0999 V2000
   20.2244  -17.5991  -17.6646 C   0  0  0  0  0  0  0  0  0  0  0  0
   20.1347  -15.8027  -17.6709 S   0  0  0  0  0  0  0  0  0  0  0  0
   18.5041  -15.1828  -18.0652 C   0  0  0  0  0  0  0  0  0  0  0  0
   18.3868  -13.7058  -18.1781 C   0  0  0  0  0  0  0  0  0  0  0  0
   18.9790  -12.9558  -17.0073 C   0  0  2  0  0  0  0  0  0  0  0  0
   18.3794  -13.4229  -15.8035 N   0  0  0  0  0  0  0  0  0  0  0  0
   18.9116  -11.4853  -17.2179 C   0  0  0  0  0  0  0  0  0  0  0  0
   19.4518  -11.0974  -18.3156 O   0  0  0  0  0  0  0  0  0  0  0  0
   14.7916   -7.3687  -15.6404 N   0  0  0  0  0  0  0  0  0  0  0  0
   14.6891   -8.3160  -16.6999 C   0  0  0  0  0  0  0  0  0  0  0  0
   13.5767   -8.5554  -17.2040 O   0  0  0  0  0  0  0  0  0  0  0  0
   15.9546   -8.9724  -17.1427 C   0  0  0  0  0  0  0  0  0  0  0  0
   17.0541   -8.4551  -16.2745 C   0  0  0  0  0  0  0  0  0  0  0  0
   18.3366   -9.1645  -16.6272 C   0  0  2  0  0  0  0  0  0  0  0  0
   18.3231  -10.5564  -16.3300 N   0  0  0  0  0  0  0  0  0  0  0  0
   19.4588   -8.4172  -16.0202 C   0  0  0  0  0  0  0  0  0  0  0  0
   19.7524   -8.6748  -14.8314 O   0  0  0  0  0  0  0  0  0  0  0  0
   20.2131   -7.4332  -16.7064 N   0  0  0  0  0  0  0  0  0  0  0  0
   21.2210   -6.5822  -16.1108 C   0  0  1  0  0  0  0  0  0  0  0  0
   22.1564   -6.1468  -17.2135 C   0  0  0  0  0  0  0  0  0  0  0  0
   23.0013   -7.2147  -17.7495 C   0  0  0  0  0  0  0  0  0  0  0  0
   23.0984   -8.4900  -17.2369 C   0  0  0  0  0  0  0  0  0  0  0  0
   23.9830   -9.1319  -18.0367 N   0  0  0  0  0  0  0  0  0  0  0  0
   24.4177   -8.3004  -19.0006 C   0  0  0  0  0  0  0  0  0  0  0  0
   23.8121   -7.1089  -18.8279 N   0  0  0  0  0  0  0  0  0  0  0  0
   20.6771   -5.4619  -15.3172 C   0  0  0  0  0  0  0  0  0  0  0  0
   21.4381   -4.6934  -14.4667 O   0  0  0  0  0  0  0  0  0  0  0  0
   19.4548   -5.1975  -15.4277 O   0  0  0  0  0  0  0  0  0  0  0  0
  1  2  1  0
  3  2  1  0
  4  5  1  0
  4  3  1  0
  5  6  1  1
  7  5  1  0
  8  7  2  0
 10  9  1  0
 10 12  1  0
 11 10  2  0
 13 12  1  0
 14 13  1  1
 14 15  1  0
 15  7  1  0
 16 14  1  0
 17 16  2  0
 18 16  1  0
 19 18  1  0
 19 20  1  6
 20 21  1  0
 21 22  2  0
 23 22  1  0
 24 23  1  0
 25 21  1  0
 25 24  2  0
 26 19  1  0
 26 27  1  0
 28 26  2  0
M  END
$$$$
