MQH.pdb
     RDKit          3D

 28 28  0  0  1  0  0  0  0  0999 V2000
   15.5241  -14.9256  -16.6593 C   0  0  0  0  0  0  0  0  0  0  0  0
   16.2564  -15.5310  -18.1865 S   0  0  0  0  0  0  0  0  0  0  0  0
   17.9052  -14.9000  -18.4724 C   0  0  0  0  0  0  0  0  0  0  0  0
   18.3643  -13.8476  -17.5292 C   0  0  0  0  0  0  0  0  0  0  0  0
   19.7844  -13.3904  -17.7701 C   0  0  2  0  0  0  0  0  0  0  0  0
   20.6812  -14.4083  -17.3384 N   0  0  0  0  0  0  0  0  0  0  0  0
   20.0256  -12.0452  -17.1838 C   0  0  0  0  0  0  0  0  0  0  0  0
   20.4286  -12.0794  -15.9659 O   0  0  0  0  0  0  0  0  0  0  0  0
   21.2717   -6.5057  -19.6106 N   0  0  0  0  0  0  0  0  0  0  0  0
   21.1884   -6.1594  -18.2309 C   0  0  0  0  0  0  0  0  0  0  0  0
   21.4495   -4.9965  -17.8729 O   0  0  0  0  0  0  0  0  0  0  0  0
   20.7835   -7.2426  -17.2868 C   0  0  0  0  0  0  0  0  0  0  0  0
   20.4657   -8.4519  -18.1035 C   0  0  0  0  0  0  0  0  0  0  0  0
   20.0851   -9.5830  -17.1827 C   0  0  2  0  0  0  0  0  0  0  0  0
   19.8450  -10.8144  -17.8548 N   0  0  0  0  0  0  0  0  0  0  0  0
   18.9720   -9.1241  -16.3243 C   0  0  0  0  0  0  0  0  0  0  0  0
   17.8131   -9.1899  -16.7917 O   0  0  0  0  0  0  0  0  0  0  0  0
   19.1455   -8.6178  -15.0122 N   0  0  0  0  0  0  0  0  0  0  0  0
   18.0900   -8.1089  -14.1628 C   0  0  1  0  0  0  0  0  0  0  0  0
   18.1603   -8.8582  -12.8536 C   0  0  0  0  0  0  0  0  0  0  0  0
   17.1621   -8.4480  -11.8652 C   0  0  0  0  0  0  0  0  0  0  0  0
   16.0500   -7.6772  -12.1254 C   0  0  0  0  0  0  0  0  0  0  0  0
   15.4167   -7.5476  -10.9353 N   0  0  0  0  0  0  0  0  0  0  0  0
   16.0980   -8.2037   -9.9789 C   0  0  0  0  0  0  0  0  0  0  0  0
   17.1824   -8.7647  -10.5496 N   0  0  0  0  0  0  0  0  0  0  0  0
   18.0919   -6.6404  -14.0069 C   0  0  0  0  0  0  0  0  0  0  0  0
   19.2212   -5.9082  -13.7213 O   0  0  0  0  0  0  0  0  0  0  0  0
   17.0037   -6.0296  -14.1446 O   0  0  0  0  0  0  0  0  0  0  0  0
  1  2  1  0
  3  2  1  0
  4  5  1  0
  4  3  1  0
  5  6  1  1
  7  5  1  0
  8  7  2  0
 10  9  1  0
 10 12  1  0
 11 10  2  0
 13 12  1  0
 14 13  1  6
 14 15  1  0
 15  7  1  0
 16 14  1  0
 17 16  2  0
 18 16  1  0
 19 18  1  0
 19 20  1  1
 20 21  1  0
 21 22  2  0
 23 22  1  0
 24 23  1  0
 25 21  1  0
 25 24  2  0
 26 19  1  0
 26 27  1  0
 28 26  2  0
M  END
$$$$
