MQH.pdb
     RDKit          3D

 28 28  0  0  1  0  0  0  0  0999 V2000
   26.6608  -21.8927  -10.7062 C   0  0  0  0  0  0  0  0  0  0  0  0
   25.5893  -21.1245   -9.4827 S   0  0  0  0  0  0  0  0  0  0  0  0
   23.9317  -20.8314  -10.0868 C   0  0  0  0  0  0  0  0  0  0  0  0
   23.8048  -20.6495  -11.5561 C   0  0  0  0  0  0  0  0  0  0  0  0
   22.3814  -20.4572  -12.0260 C   0  0  2  0  0  0  0  0  0  0  0  0
   21.6007  -21.5754  -11.6173 N   0  0  0  0  0  0  0  0  0  0  0  0
   22.3295  -20.1474  -13.4796 C   0  0  0  0  0  0  0  0  0  0  0  0
   22.0175  -21.1557  -14.2097 O   0  0  0  0  0  0  0  0  0  0  0  0
   22.3929  -14.8383  -16.7539 N   0  0  0  0  0  0  0  0  0  0  0  0
   22.2932  -15.8015  -17.7992 C   0  0  0  0  0  0  0  0  0  0  0  0
   22.1717  -15.4189  -18.9772 O   0  0  0  0  0  0  0  0  0  0  0  0
   22.3424  -17.2389  -17.3991 C   0  0  0  0  0  0  0  0  0  0  0  0
   22.5455  -17.2846  -15.9202 C   0  0  0  0  0  0  0  0  0  0  0  0
   22.5877  -18.7233  -15.4723 C   0  0  2  0  0  0  0  0  0  0  0  0
   22.5895  -18.8844  -14.0581 N   0  0  0  0  0  0  0  0  0  0  0  0
   23.7090  -19.3902  -16.1682 C   0  0  0  0  0  0  0  0  0  0  0  0
   24.8708  -19.0280  -15.8771 O   0  0  0  0  0  0  0  0  0  0  0  0
   23.5401  -20.4084  -17.1392 N   0  0  0  0  0  0  0  0  0  0  0  0
   24.5601  -21.3457  -17.5582 C   0  0  1  0  0  0  0  0  0  0  0  0
   25.0372  -22.0776  -16.3265 C   0  0  0  0  0  0  0  0  0  0  0  0
   26.1752  -21.4524  -15.6517 C   0  0  0  0  0  0  0  0  0  0  0  0
   26.7964  -20.2874  -16.0462 C   0  0  0  0  0  0  0  0  0  0  0  0
   27.7852  -20.0845  -15.1433 N   0  0  0  0  0  0  0  0  0  0  0  0
   27.7831  -21.0723  -14.2303 C   0  0  0  0  0  0  0  0  0  0  0  0
   26.7862  -21.9246  -14.5403 N   0  0  0  0  0  0  0  0  0  0  0  0
   24.1464  -22.2409  -18.6575 C   0  0  0  0  0  0  0  0  0  0  0  0
   25.0343  -22.9282  -19.4526 O   0  0  0  0  0  0  0  0  0  0  0  0
   22.9180  -22.3818  -18.8749 O   0  0  0  0  0  0  0  0  0  0  0  0
  1  2  1  0
  3  2  1  0
  4  5  1  0
  4  3  1  0
  5  6  1  6
  7  5  1  0
  8  7  2  0
 10  9  1  0
 10 12  1  0
 11 10  2  0
 13 12  1  0
 14 13  1  1
 14 15  1  0
 15  7  1  0
 16 14  1  0
 17 16  2  0
 18 16  1  0
 19 18  1  0
 19 20  1  1
 20 21  1  0
 21 22  2  0
 23 22  1  0
 24 23  1  0
 25 21  1  0
 25 24  2  0
 26 19  1  0
 26 27  1  0
 28 26  2  0
M  END
$$$$
