RRA.pdb
     RDKit          3D

 28 27  0  0  1  0  0  0  0  0999 V2000
   26.3652  -20.9565  -19.4522 N   0  0  0  0  0  0  0  0  0  0  0  0
   25.0414  -21.3108  -19.8943 C   0  0  0  0  0  0  0  0  0  0  0  0
   24.8851  -22.2697  -20.7415 N   0  0  0  0  0  0  0  0  0  0  0  0
   23.8944  -20.6356  -19.4260 N   0  0  0  0  0  0  0  0  0  0  0  0
   23.9788  -19.6668  -18.3613 C   0  0  0  0  0  0  0  0  0  0  0  0
   24.1637  -20.4584  -17.0732 C   0  0  0  0  0  0  0  0  0  0  0  0
   22.9088  -21.1547  -16.6338 C   0  0  0  0  0  0  0  0  0  0  0  0
   23.1578  -21.9483  -15.3696 C   0  0  2  0  0  0  0  0  0  0  0  0
   23.9140  -23.1440  -15.7265 N   0  0  0  0  0  0  0  0  0  0  0  0
   21.9182  -22.3938  -14.7002 C   0  0  0  0  0  0  0  0  0  0  0  0
   21.1409  -23.2619  -15.1827 O   0  0  0  0  0  0  0  0  0  0  0  0
   23.9940  -22.6269  -21.1057 N   0  0  0  0  0  0  0  0  0  0  0  0
   19.1863  -25.1687   -7.3962 C   0  0  0  0  0  0  0  0  0  0  0  0
   17.9994  -24.8190   -8.0909 N   0  0  0  0  0  0  0  0  0  0  0  0
   16.9182  -25.4566   -7.8796 N   0  0  0  0  0  0  0  0  0  0  0  0
   18.0070  -23.7574   -9.0255 C   0  0  0  0  0  0  0  0  0  0  0  0
   19.2676  -23.3107   -9.6143 C   0  0  0  0  0  0  0  0  0  0  0  0
   19.0339  -22.2094  -10.6204 C   0  0  0  0  0  0  0  0  0  0  0  0
   20.2631  -21.8485  -11.3802 C   0  0  2  0  0  0  0  0  0  0  0  0
   20.2302  -22.2546  -12.8327 N   0  0  0  0  0  0  0  0  0  0  0  0
   21.5041  -21.8644  -13.4351 C   0  0  0  0  0  0  0  0  0  0  0  0
   19.1552  -21.6395  -13.6156 O   0  0  0  0  0  0  0  0  0  0  0  0
   19.2168  -20.4324  -13.9199 C   0  0  0  0  0  0  0  0  0  0  0  0
   16.0470  -25.2618   -8.3841 C   0  0  2  0  0  0  0  0  0  0  0  0
   16.2623  -22.7123  -15.7000 N   0  0  0  0  0  0  0  0  0  0  0  0
   16.9678  -21.7404  -14.7827 C   0  0  0  0  0  0  0  0  0  0  0  0
   18.0410  -22.3979  -14.0350 O   0  0  0  0  0  0  0  0  0  0  0  0
   15.9854  -21.1506  -13.8282 O   0  0  0  0  0  0  0  0  0  0  0  0
  2  4  1  0
  2  1  1  0
  3  2  2  0
  5  4  1  0
  6  5  1  0
  7  6  1  0
  8  7  1  0
  8  9  1  6
 10 20  1  0
 10  8  1  0
 11 10  2  0
 13 12  1  0
 14 13  2  0
 15 13  1  0
 16 15  1  0
 17 18  1  0
 17 16  1  0
 19 18  1  1
 19 21  1  0
 19 20  1  0
 21 22  2  0
 24 23  1  6
 25 24  1  0
 25 21  1  0
 26 24  1  0
 27 26  2  0
 28 26  1  0
M  END
$$$$
