RRA.pdb
     RDKit          3D

 28 27  0  0  1  0  0  0  0  0999 V2000
   18.0380  -21.6412  -11.5344 N   0  0  0  0  0  0  0  0  0  0  0  0
   18.7872  -22.1260  -12.6645 C   0  0  0  0  0  0  0  0  0  0  0  0
   18.2284  -22.1854  -13.8247 N   0  0  0  0  0  0  0  0  0  0  0  0
   20.1295  -22.5438  -12.5442 N   0  0  0  0  0  0  0  0  0  0  0  0
   20.9758  -22.0475  -11.4874 C   0  0  0  0  0  0  0  0  0  0  0  0
   21.6852  -20.8203  -12.0451 C   0  0  0  0  0  0  0  0  0  0  0  0
   22.9279  -21.1659  -12.8123 C   0  0  0  0  0  0  0  0  0  0  0  0
   24.0734  -21.4508  -11.8654 C   0  0  2  0  0  0  0  0  0  0  0  0
   23.6802  -21.0080  -10.5319 N   0  0  0  0  0  0  0  0  0  0  0  0
   25.3193  -20.7388  -12.2172 C   0  0  0  0  0  0  0  0  0  0  0  0
   25.3422  -19.5698  -12.6902 O   0  0  0  0  0  0  0  0  0  0  0  0
   18.6306  -22.5887  -14.6790 N   0  0  0  0  0  0  0  0  0  0  0  0
   31.7599  -23.2806   -9.4408 C   0  0  0  0  0  0  0  0  0  0  0  0
   32.2699  -23.1803  -10.7612 N   0  0  0  0  0  0  0  0  0  0  0  0
   32.8579  -24.1716  -11.3013 N   0  0  0  0  0  0  0  0  0  0  0  0
   32.1293  -21.9763  -11.4901 C   0  0  0  0  0  0  0  0  0  0  0  0
   31.3538  -20.8704  -10.9325 C   0  0  0  0  0  0  0  0  0  0  0  0
   30.2601  -20.4444  -11.8823 C   0  0  0  0  0  0  0  0  0  0  0  0
   28.9662  -21.1351  -11.6230 C   0  0  2  0  0  0  0  0  0  0  0  0
   27.8250  -20.6460  -12.4800 N   0  0  0  0  0  0  0  0  0  0  0  0
   26.6109  -21.3334  -12.0428 C   0  0  0  0  0  0  0  0  0  0  0  0
   27.9890  -20.8914  -13.9151 O   0  0  0  0  0  0  0  0  0  0  0  0
   27.8157  -22.0363  -14.3764 C   0  0  0  0  0  0  0  0  0  0  0  0
   33.2661  -24.1348  -12.2413 C   0  0  1  0  0  0  0  0  0  0  0  0
   28.4518  -21.6054  -16.5007 N   0  0  0  0  0  0  0  0  0  0  0  0
   28.4670  -20.1198  -16.2246 C   0  0  0  0  0  0  0  0  0  0  0  0
   28.3428  -19.8435  -14.7922 O   0  0  0  0  0  0  0  0  0  0  0  0
   27.3458  -19.4635  -16.9568 O   0  0  0  0  0  0  0  0  0  0  0  0
  2  4  1  0
  2  1  1  0
  3  2  2  0
  5  4  1  0
  6  5  1  0
  7  6  1  0
  8  7  1  0
  8  9  1  1
 10 20  1  0
 10  8  1  0
 11 10  2  0
 13 12  1  0
 14 13  2  0
 15 13  1  0
 16 15  1  0
 17 18  1  0
 17 16  1  0
 19 18  1  1
 19 21  1  0
 19 20  1  0
 21 22  2  0
 24 23  1  6
 25 24  1  0
 25 21  1  0
 26 24  1  0
 27 26  2  0
 28 26  1  0
M  END
$$$$
