RRA.pdb
     RDKit          3D

 28 27  0  0  1  0  0  0  0  0999 V2000
   27.3010  -26.2914  -16.0699 N   0  0  0  0  0  0  0  0  0  0  0  0
   25.9012  -26.5606  -16.2740 C   0  0  0  0  0  0  0  0  0  0  0  0
   25.3409  -27.5407  -15.6519 N   0  0  0  0  0  0  0  0  0  0  0  0
   25.1116  -25.7785  -17.1432 N   0  0  0  0  0  0  0  0  0  0  0  0
   25.6203  -24.5608  -17.7244 C   0  0  0  0  0  0  0  0  0  0  0  0
   24.8818  -23.4170  -17.0413 C   0  0  0  0  0  0  0  0  0  0  0  0
   23.4286  -23.7162  -16.8156 C   0  0  0  0  0  0  0  0  0  0  0  0
   22.7725  -22.5989  -16.0338 C   0  0  2  0  0  0  0  0  0  0  0  0
   23.5609  -22.3651  -14.8286 N   0  0  0  0  0  0  0  0  0  0  0  0
   21.3934  -22.9109  -15.6051 C   0  0  0  0  0  0  0  0  0  0  0  0
   20.4682  -23.2153  -16.4065 O   0  0  0  0  0  0  0  0  0  0  0  0
   24.3610  -27.8373  -15.7313 N   0  0  0  0  0  0  0  0  0  0  0  0
   17.0826  -26.1655   -8.6641 C   0  0  0  0  0  0  0  0  0  0  0  0
   18.2701  -26.5060   -9.3624 N   0  0  0  0  0  0  0  0  0  0  0  0
   18.7612  -27.6762   -9.2648 N   0  0  0  0  0  0  0  0  0  0  0  0
   18.9195  -25.5469  -10.1743 C   0  0  0  0  0  0  0  0  0  0  0  0
   18.3439  -24.2132  -10.3327 C   0  0  0  0  0  0  0  0  0  0  0  0
   18.2945  -23.8153  -11.7884 C   0  0  0  0  0  0  0  0  0  0  0  0
   19.6452  -23.5841  -12.3720 C   0  0  1  0  0  0  0  0  0  0  0  0
   19.6271  -23.1881  -13.8276 N   0  0  0  0  0  0  0  0  0  0  0  0
   21.0018  -22.8909  -14.2273 C   0  0  0  0  0  0  0  0  0  0  0  0
   18.8062  -22.0131  -14.1316 O   0  0  0  0  0  0  0  0  0  0  0  0
   19.3470  -20.9066  -14.3232 C   0  0  0  0  0  0  0  0  0  0  0  0
   18.3261  -28.4201   -8.7091 C   0  0  2  0  0  0  0  0  0  0  0  0
   17.0540  -21.0160  -16.3821 N   0  0  0  0  0  0  0  0  0  0  0  0
   16.6483  -21.0820  -14.9279 C   0  0  0  0  0  0  0  0  0  0  0  0
   17.4006  -22.1141  -14.2121 O   0  0  0  0  0  0  0  0  0  0  0  0
   15.1887  -21.3711  -14.8283 O   0  0  0  0  0  0  0  0  0  0  0  0
  2  4  1  0
  2  1  1  0
  3  2  2  0
  5  4  1  0
  6  5  1  0
  7  6  1  0
  8  7  1  0
  8  9  1  1
 10 20  1  0
 10  8  1  0
 11 10  2  0
 13 12  1  0
 14 13  2  0
 15 13  1  0
 16 15  1  0
 17 18  1  0
 17 16  1  0
 19 18  1  6
 19 21  1  0
 19 20  1  0
 21 22  2  0
 24 23  1  1
 25 24  1  0
 25 21  1  0
 26 24  1  0
 27 26  2  0
 28 26  1  0
M  END
$$$$
