RRA.pdb
     RDKit          3D

 28 27  0  0  1  0  0  0  0  0999 V2000
   26.8522  -17.3960  -20.2529 N   0  0  0  0  0  0  0  0  0  0  0  0
   28.1177  -16.7094  -20.2731 C   0  0  0  0  0  0  0  0  0  0  0  0
   28.4884  -16.0825  -21.3367 N   0  0  0  0  0  0  0  0  0  0  0  0
   28.9773  -16.6991  -19.1543 N   0  0  0  0  0  0  0  0  0  0  0  0
   28.4561  -16.7241  -17.8100 C   0  0  0  0  0  0  0  0  0  0  0  0
   27.7407  -18.0594  -17.6508 C   0  0  0  0  0  0  0  0  0  0  0  0
   27.1023  -18.2195  -16.3020 C   0  0  0  0  0  0  0  0  0  0  0  0
   27.6273  -19.4591  -15.6108 C   0  0  2  0  0  0  0  0  0  0  0  0
   28.0811  -20.3923  -16.6365 N   0  0  0  0  0  0  0  0  0  0  0  0
   26.6088  -20.1568  -14.7991 C   0  0  0  0  0  0  0  0  0  0  0  0
   25.9289  -21.1306  -15.2237 O   0  0  0  0  0  0  0  0  0  0  0  0
   29.3704  -15.5746  -21.4730 N   0  0  0  0  0  0  0  0  0  0  0  0
   21.9833  -19.9436   -8.8831 C   0  0  0  0  0  0  0  0  0  0  0  0
   22.4787  -20.9545   -8.0193 N   0  0  0  0  0  0  0  0  0  0  0  0
   21.6880  -21.5858   -7.2471 N   0  0  0  0  0  0  0  0  0  0  0  0
   23.8575  -21.2703   -8.0085 C   0  0  0  0  0  0  0  0  0  0  0  0
   24.7830  -20.5330   -8.8659 C   0  0  0  0  0  0  0  0  0  0  0  0
   24.5173  -20.8235  -10.3236 C   0  0  0  0  0  0  0  0  0  0  0  0
   25.4494  -20.1052  -11.2367 C   0  0  2  0  0  0  0  0  0  0  0  0
   25.2389  -20.4140  -12.6982 N   0  0  0  0  0  0  0  0  0  0  0  0
   26.3162  -19.7725  -13.4505 C   0  0  0  0  0  0  0  0  0  0  0  0
   23.9647  -19.9417  -13.2458 O   0  0  0  0  0  0  0  0  0  0  0  0
   23.8338  -18.7487  -13.5823 C   0  0  0  0  0  0  0  0  0  0  0  0
   21.9994  -22.3343   -6.6192 C   0  0  1  0  0  0  0  0  0  0  0  0
   21.4841  -18.8145  -13.6693 N   0  0  0  0  0  0  0  0  0  0  0  0
   21.5986  -20.3036  -13.9001 C   0  0  0  0  0  0  0  0  0  0  0  0
   22.8729  -20.8230  -13.4004 O   0  0  0  0  0  0  0  0  0  0  0  0
   21.4801  -20.5944  -15.3579 O   0  0  0  0  0  0  0  0  0  0  0  0
  2  4  1  0
  2  1  1  0
  3  2  2  0
  5  4  1  0
  6  5  1  0
  7  6  1  0
  8  7  1  0
  8  9  1  6
 10 20  1  0
 10  8  1  0
 11 10  2  0
 13 12  1  0
 14 13  2  0
 15 13  1  0
 16 15  1  0
 17 18  1  0
 17 16  1  0
 19 18  1  1
 19 21  1  0
 19 20  1  0
 21 22  2  0
 24 23  1  1
 25 24  1  0
 25 21  1  0
 26 24  1  0
 27 26  2  0
 28 26  1  0
M  END
$$$$
