RRA.pdb
     RDKit          3D

 28 27  0  0  1  0  0  0  0  0999 V2000
   23.5473  -16.5610  -23.0481 N   0  0  0  0  0  0  0  0  0  0  0  0
   24.3334  -16.2223  -21.8901 C   0  0  0  0  0  0  0  0  0  0  0  0
   25.3422  -15.4290  -22.0114 N   0  0  0  0  0  0  0  0  0  0  0  0
   24.0338  -16.7359  -20.6106 N   0  0  0  0  0  0  0  0  0  0  0  0
   22.8757  -17.5663  -20.3899 C   0  0  0  0  0  0  0  0  0  0  0  0
   22.5378  -17.4484  -18.9093 C   0  0  0  0  0  0  0  0  0  0  0  0
   21.3693  -18.3015  -18.5102 C   0  0  0  0  0  0  0  0  0  0  0  0
   21.0533  -18.1145  -17.0421 C   0  0  2  0  0  0  0  0  0  0  0  0
   20.4941  -16.7785  -16.8653 N   0  0  0  0  0  0  0  0  0  0  0  0
   22.2394  -18.2156  -16.1669 C   0  0  0  0  0  0  0  0  0  0  0  0
   22.8948  -17.2154  -15.7658 O   0  0  0  0  0  0  0  0  0  0  0  0
   25.9431  -15.0812  -21.2549 N   0  0  0  0  0  0  0  0  0  0  0  0
   23.2550  -22.0371   -8.5723 C   0  0  0  0  0  0  0  0  0  0  0  0
   24.4666  -21.3261   -8.7727 N   0  0  0  0  0  0  0  0  0  0  0  0
   25.2921  -21.1781   -7.8152 N   0  0  0  0  0  0  0  0  0  0  0  0
   24.7684  -20.7748  -10.0399 C   0  0  0  0  0  0  0  0  0  0  0  0
   23.7966  -20.8666  -11.1273 C   0  0  0  0  0  0  0  0  0  0  0  0
   24.3489  -20.2662  -12.3978 C   0  0  0  0  0  0  0  0  0  0  0  0
   23.3256  -20.1435  -13.4731 C   0  0  2  0  0  0  0  0  0  0  0  0
   23.8495  -19.5473  -14.7560 N   0  0  0  0  0  0  0  0  0  0  0  0
   22.7376  -19.4760  -15.7028 C   0  0  0  0  0  0  0  0  0  0  0  0
   24.9302  -20.3086  -15.3878 O   0  0  0  0  0  0  0  0  0  0  0  0
   24.6920  -21.4155  -15.9090 C   0  0  0  0  0  0  0  0  0  0  0  0
   26.1649  -20.6477   -7.9069 C   0  0  2  0  0  0  0  0  0  0  0  0
   28.5548  -19.7878  -16.2626 N   0  0  0  0  0  0  0  0  0  0  0  0
   27.3094  -20.6100  -16.0251 C   0  0  0  0  0  0  0  0  0  0  0  0
   26.2486  -19.8052  -15.4166 O   0  0  0  0  0  0  0  0  0  0  0  0
   27.6327  -21.7620  -15.1349 O   0  0  0  0  0  0  0  0  0  0  0  0
  2  4  1  0
  2  1  1  0
  3  2  2  0
  5  4  1  0
  6  5  1  0
  7  6  1  0
  8  7  1  0
  8  9  1  6
 10 20  1  0
 10  8  1  0
 11 10  2  0
 13 12  1  0
 14 13  2  0
 15 13  1  0
 16 15  1  0
 17 18  1  0
 17 16  1  0
 19 18  1  1
 19 21  1  0
 19 20  1  0
 21 22  2  0
 24 23  1  6
 25 24  1  0
 25 21  1  0
 26 24  1  0
 27 26  2  0
 28 26  1  0
M  END
$$$$
