RRA.pdb
     RDKit          3D

 28 27  0  0  1  0  0  0  0  0999 V2000
   16.1204  -25.2808   -5.8870 N   0  0  0  0  0  0  0  0  0  0  0  0
   17.1891  -26.1434   -6.3197 C   0  0  0  0  0  0  0  0  0  0  0  0
   17.7769  -26.9108   -5.4670 N   0  0  0  0  0  0  0  0  0  0  0  0
   17.6207  -26.1780   -7.6626 N   0  0  0  0  0  0  0  0  0  0  0  0
   17.0049  -25.3479   -8.6682 C   0  0  0  0  0  0  0  0  0  0  0  0
   17.6103  -25.7671  -10.0016 C   0  0  0  0  0  0  0  0  0  0  0  0
   19.0385  -25.3318  -10.1538 C   0  0  0  0  0  0  0  0  0  0  0  0
   19.5609  -25.6978  -11.5261 C   0  0  2  0  0  0  0  0  0  0  0  0
   20.6540  -26.6492  -11.3563 N   0  0  0  0  0  0  0  0  0  0  0  0
   20.0932  -24.5444  -12.2806 C   0  0  0  0  0  0  0  0  0  0  0  0
   20.8035  -23.6412  -11.7603 O   0  0  0  0  0  0  0  0  0  0  0  0
   18.5536  -27.5554   -5.6557 N   0  0  0  0  0  0  0  0  0  0  0  0
   25.4430  -24.4764  -18.3981 C   0  0  0  0  0  0  0  0  0  0  0  0
   25.1769  -24.7619  -17.0338 N   0  0  0  0  0  0  0  0  0  0  0  0
   25.9154  -25.5746  -16.3902 N   0  0  0  0  0  0  0  0  0  0  0  0
   24.0872  -24.1450  -16.3759 C   0  0  0  0  0  0  0  0  0  0  0  0
   23.1495  -23.3181  -17.1324 C   0  0  0  0  0  0  0  0  0  0  0  0
   22.0790  -22.7519  -16.2306 C   0  0  0  0  0  0  0  0  0  0  0  0
   21.4494  -23.7836  -15.3603 C   0  0  1  0  0  0  0  0  0  0  0  0
   20.4086  -23.2385  -14.4140 N   0  0  0  0  0  0  0  0  0  0  0  0
   19.8381  -24.3664  -13.6789 C   0  0  0  0  0  0  0  0  0  0  0  0
   19.3078  -22.5214  -15.0627 O   0  0  0  0  0  0  0  0  0  0  0  0
   18.3213  -23.1498  -15.4932 C   0  0  0  0  0  0  0  0  0  0  0  0
   25.7330  -25.8456  -15.4182 C   0  0  1  0  0  0  0  0  0  0  0  0
   18.0103  -21.1167  -17.2713 N   0  0  0  0  0  0  0  0  0  0  0  0
   18.2724  -20.4453  -15.9431 C   0  0  0  0  0  0  0  0  0  0  0  0
   19.3460  -21.1180  -15.2095 O   0  0  0  0  0  0  0  0  0  0  0  0
   17.0269  -20.4559  -15.1229 O   0  0  0  0  0  0  0  0  0  0  0  0
  2  4  1  0
  2  1  1  0
  3  2  2  0
  5  4  1  0
  6  5  1  0
  7  6  1  0
  8  7  1  0
  8  9  1  1
 10 20  1  0
 10  8  1  0
 11 10  2  0
 13 12  1  0
 14 13  2  0
 15 13  1  0
 16 15  1  0
 17 18  1  0
 17 16  1  0
 19 18  1  1
 19 21  1  0
 19 20  1  0
 21 22  2  0
 24 23  1  6
 25 24  1  0
 25 21  1  0
 26 24  1  0
 27 26  2  0
 28 26  1  0
M  END
$$$$
