RRA.pdb
     RDKit          3D

 28 27  0  0  1  0  0  0  0  0999 V2000
   22.0158  -26.5535  -13.7179 N   0  0  0  0  0  0  0  0  0  0  0  0
   21.2828  -26.3164  -12.5013 C   0  0  0  0  0  0  0  0  0  0  0  0
   21.1709  -27.2579  -11.6280 N   0  0  0  0  0  0  0  0  0  0  0  0
   20.6749  -25.0726  -12.2287 N   0  0  0  0  0  0  0  0  0  0  0  0
   19.5804  -24.5831  -13.0298 C   0  0  0  0  0  0  0  0  0  0  0  0
   20.2052  -23.8794  -14.2276 C   0  0  0  0  0  0  0  0  0  0  0  0
   19.6592  -22.4976  -14.4397 C   0  0  0  0  0  0  0  0  0  0  0  0
   20.1946  -21.5490  -13.3892 C   0  0  2  0  0  0  0  0  0  0  0  0
   19.0947  -20.7017  -12.9407 N   0  0  0  0  0  0  0  0  0  0  0  0
   21.2621  -20.6583  -13.8892 C   0  0  0  0  0  0  0  0  0  0  0  0
   21.0722  -19.4498  -14.1962 O   0  0  0  0  0  0  0  0  0  0  0  0
   20.7384  -27.1848  -10.6995 N   0  0  0  0  0  0  0  0  0  0  0  0
   29.5017  -20.2373  -11.8762 C   0  0  0  0  0  0  0  0  0  0  0  0
   28.2954  -20.9671  -11.7155 N   0  0  0  0  0  0  0  0  0  0  0  0
   28.1220  -21.7073  -10.6946 N   0  0  0  0  0  0  0  0  0  0  0  0
   27.2735  -20.8785  -12.6894 C   0  0  0  0  0  0  0  0  0  0  0  0
   27.2713  -19.7760  -13.6485 C   0  0  0  0  0  0  0  0  0  0  0  0
   26.1295  -19.9132  -14.6270 C   0  0  0  0  0  0  0  0  0  0  0  0
   24.9674  -20.6531  -14.0611 C   0  0  1  0  0  0  0  0  0  0  0  0
   23.6345  -20.2323  -14.6287 N   0  0  0  0  0  0  0  0  0  0  0  0
   22.6105  -21.1096  -14.0631 C   0  0  0  0  0  0  0  0  0  0  0  0
   23.5387  -20.3120  -16.0885 O   0  0  0  0  0  0  0  0  0  0  0  0
   23.3503  -21.4125  -16.6426 C   0  0  0  0  0  0  0  0  0  0  0  0
   27.2689  -22.2549  -10.5400 C   0  0  1  0  0  0  0  0  0  0  0  0
   24.2334  -20.5222  -18.8418 N   0  0  0  0  0  0  0  0  0  0  0  0
   23.5508  -19.2706  -18.3408 C   0  0  0  0  0  0  0  0  0  0  0  0
   23.6570  -19.1529  -16.8854 O   0  0  0  0  0  0  0  0  0  0  0  0
   22.1125  -19.2936  -18.7345 O   0  0  0  0  0  0  0  0  0  0  0  0
  2  4  1  0
  2  1  1  0
  3  2  2  0
  5  4  1  0
  6  5  1  0
  7  6  1  0
  8  7  1  0
  8  9  1  6
 10 20  1  0
 10  8  1  0
 11 10  2  0
 13 12  1  0
 14 13  2  0
 15 13  1  0
 16 15  1  0
 17 18  1  0
 17 16  1  0
 19 18  1  1
 19 21  1  0
 19 20  1  0
 21 22  2  0
 24 23  1  6
 25 24  1  0
 25 21  1  0
 26 24  1  0
 27 26  2  0
 28 26  1  0
M  END
$$$$
