RRA.pdb
     RDKit          3D

 28 27  0  0  1  0  0  0  0  0999 V2000
   31.0109  -25.9793  -18.7998 N   0  0  0  0  0  0  0  0  0  0  0  0
   31.9291  -25.7003  -17.7263 C   0  0  0  0  0  0  0  0  0  0  0  0
   32.9550  -26.4603  -17.5481 N   0  0  0  0  0  0  0  0  0  0  0  0
   31.7421  -24.6096  -16.8510 N   0  0  0  0  0  0  0  0  0  0  0  0
   30.6718  -23.6643  -17.0515 C   0  0  0  0  0  0  0  0  0  0  0  0
   29.5252  -24.1169  -16.1567 C   0  0  0  0  0  0  0  0  0  0  0  0
   28.3391  -23.1997  -16.2234 C   0  0  0  0  0  0  0  0  0  0  0  0
   27.2840  -23.6240  -15.2250 C   0  0  2  0  0  0  0  0  0  0  0  0
   26.5168  -24.7169  -15.8130 N   0  0  0  0  0  0  0  0  0  0  0  0
   26.3299  -22.5488  -14.8837 C   0  0  0  0  0  0  0  0  0  0  0  0
   25.3177  -22.2698  -15.5827 O   0  0  0  0  0  0  0  0  0  0  0  0
   33.6597  -26.3751  -16.8061 N   0  0  0  0  0  0  0  0  0  0  0  0
   22.2966  -20.0097   -9.6075 C   0  0  0  0  0  0  0  0  0  0  0  0
   22.8577  -20.8973   -8.6530 N   0  0  0  0  0  0  0  0  0  0  0  0
   22.1142  -21.4763   -7.7973 N   0  0  0  0  0  0  0  0  0  0  0  0
   24.2499  -21.1469   -8.6438 C   0  0  0  0  0  0  0  0  0  0  0  0
   25.1253  -20.4417   -9.5775 C   0  0  0  0  0  0  0  0  0  0  0  0
   24.8453  -20.8594  -11.0012 C   0  0  0  0  0  0  0  0  0  0  0  0
   25.7757  -20.2341  -11.9819 C   0  0  2  0  0  0  0  0  0  0  0  0
   25.5423  -20.6609  -13.4099 N   0  0  0  0  0  0  0  0  0  0  0  0
   26.4872  -21.7340  -13.7161 C   0  0  0  0  0  0  0  0  0  0  0  0
   25.7285  -19.6004  -14.4035 O   0  0  0  0  0  0  0  0  0  0  0  0
   26.8672  -19.1430  -14.6223 C   0  0  0  0  0  0  0  0  0  0  0  0
   22.4678  -22.1656   -7.1255 C   0  0  2  0  0  0  0  0  0  0  0  0
   25.7203  -18.6160  -17.2753 N   0  0  0  0  0  0  0  0  0  0  0  0
   24.8633  -18.0715  -16.1560 C   0  0  0  0  0  0  0  0  0  0  0  0
   24.6303  -19.0833  -15.1239 O   0  0  0  0  0  0  0  0  0  0  0  0
   23.5557  -17.6113  -16.7058 O   0  0  0  0  0  0  0  0  0  0  0  0
  2  4  1  0
  2  1  1  0
  3  2  2  0
  5  4  1  0
  6  5  1  0
  7  6  1  0
  8  7  1  0
  8  9  1  6
 10 20  1  0
 10  8  1  0
 11 10  2  0
 13 12  1  0
 14 13  2  0
 15 13  1  0
 16 15  1  0
 17 18  1  0
 17 16  1  0
 19 18  1  1
 19 21  1  0
 19 20  1  0
 21 22  2  0
 24 23  1  1
 25 24  1  0
 25 21  1  0
 26 24  1  0
 27 26  2  0
 28 26  1  0
M  END
$$$$
