RRA.pdb
     RDKit          3D

 28 27  0  0  1  0  0  0  0  0999 V2000
   18.2009  -23.9788   -9.9738 N   0  0  0  0  0  0  0  0  0  0  0  0
   17.2153  -23.9488  -11.0232 C   0  0  0  0  0  0  0  0  0  0  0  0
   16.3404  -24.8919  -11.1062 N   0  0  0  0  0  0  0  0  0  0  0  0
   17.1737  -22.9092  -11.9762 N   0  0  0  0  0  0  0  0  0  0  0  0
   18.2987  -22.6372  -12.8364 C   0  0  0  0  0  0  0  0  0  0  0  0
   19.4512  -22.2381  -11.9239 C   0  0  0  0  0  0  0  0  0  0  0  0
   20.0085  -20.8833  -12.2503 C   0  0  0  0  0  0  0  0  0  0  0  0
   20.7034  -20.9057  -13.5944 C   0  0  2  0  0  0  0  0  0  0  0  0
   21.6777  -21.9917  -13.5830 N   0  0  0  0  0  0  0  0  0  0  0  0
   21.4357  -19.6593  -13.8996 C   0  0  0  0  0  0  0  0  0  0  0  0
   20.8893  -18.5231  -13.9363 O   0  0  0  0  0  0  0  0  0  0  0  0
   15.5938  -24.9757  -11.8062 N   0  0  0  0  0  0  0  0  0  0  0  0
   27.9267  -20.4905  -14.7994 C   0  0  0  0  0  0  0  0  0  0  0  0
   28.0700  -19.6017  -15.8962 N   0  0  0  0  0  0  0  0  0  0  0  0
   28.3998  -20.0430  -17.0437 N   0  0  0  0  0  0  0  0  0  0  0  0
   27.8474  -18.2155  -15.7242 C   0  0  0  0  0  0  0  0  0  0  0  0
   27.3278  -17.7105  -14.4552 C   0  0  0  0  0  0  0  0  0  0  0  0
   25.8484  -17.4246  -14.5524 C   0  0  0  0  0  0  0  0  0  0  0  0
   25.0076  -18.6222  -14.2744 C   0  0  2  0  0  0  0  0  0  0  0  0
   23.5352  -18.4123  -14.5270 N   0  0  0  0  0  0  0  0  0  0  0  0
   22.8407  -19.6510  -14.1791 C   0  0  0  0  0  0  0  0  0  0  0  0
   23.1936  -18.0789  -15.9122 O   0  0  0  0  0  0  0  0  0  0  0  0
   23.2922  -18.9433  -16.8047 C   0  0  0  0  0  0  0  0  0  0  0  0
   28.5843  -19.4313  -17.8457 C   0  0  1  0  0  0  0  0  0  0  0  0
   21.2422  -15.6310  -17.8154 N   0  0  0  0  0  0  0  0  0  0  0  0
   22.4933  -16.4644  -17.6617 C   0  0  0  0  0  0  0  0  0  0  0  0
   22.7506  -16.7835  -16.2562 O   0  0  0  0  0  0  0  0  0  0  0  0
   23.6592  -15.7250  -18.2255 O   0  0  0  0  0  0  0  0  0  0  0  0
  2  4  1  0
  2  1  1  0
  3  2  2  0
  5  4  1  0
  6  5  1  0
  7  6  1  0
  8  7  1  0
  8  9  1  1
 10 20  1  0
 10  8  1  0
 11 10  2  0
 13 12  1  0
 14 13  2  0
 15 13  1  0
 16 15  1  0
 17 18  1  0
 17 16  1  0
 19 18  1  1
 19 21  1  0
 19 20  1  0
 21 22  2  0
 24 23  1  1
 25 24  1  0
 25 21  1  0
 26 24  1  0
 27 26  2  0
 28 26  1  0
M  END
$$$$
