RRA.pdb
     RDKit          3D

 28 27  0  0  1  0  0  0  0  0999 V2000
   31.2877  -26.4393  -16.0757 N   0  0  0  0  0  0  0  0  0  0  0  0
   31.7787  -25.3749  -16.9120 C   0  0  0  0  0  0  0  0  0  0  0  0
   32.4341  -25.6556  -17.9859 N   0  0  0  0  0  0  0  0  0  0  0  0
   31.5645  -24.0175  -16.5921 N   0  0  0  0  0  0  0  0  0  0  0  0
   30.2669  -23.5412  -16.1812 C   0  0  0  0  0  0  0  0  0  0  0  0
   29.2928  -23.9450  -17.2804 C   0  0  0  0  0  0  0  0  0  0  0  0
   27.9197  -24.2499  -16.7569 C   0  0  0  0  0  0  0  0  0  0  0  0
   26.9612  -23.1300  -17.0990 C   0  0  2  0  0  0  0  0  0  0  0  0
   27.5585  -21.8726  -16.6620 N   0  0  0  0  0  0  0  0  0  0  0  0
   25.6499  -23.2518  -16.4291 C   0  0  0  0  0  0  0  0  0  0  0  0
   24.8950  -24.2543  -16.5556 O   0  0  0  0  0  0  0  0  0  0  0  0
   32.9472  -24.9949  -18.5814 N   0  0  0  0  0  0  0  0  0  0  0  0
   23.5258  -19.9917   -8.7865 C   0  0  0  0  0  0  0  0  0  0  0  0
   22.3324  -19.9288   -9.5515 N   0  0  0  0  0  0  0  0  0  0  0  0
   21.3465  -19.2309   -9.1503 N   0  0  0  0  0  0  0  0  0  0  0  0
   22.2274  -20.6420  -10.7686 C   0  0  0  0  0  0  0  0  0  0  0  0
   23.2157  -21.6648  -11.1041 C   0  0  0  0  0  0  0  0  0  0  0  0
   22.9828  -22.2059  -12.4943 C   0  0  0  0  0  0  0  0  0  0  0  0
   24.1090  -21.9163  -13.4249 C   0  0  2  0  0  0  0  0  0  0  0  0
   23.8883  -22.4141  -14.8318 N   0  0  0  0  0  0  0  0  0  0  0  0
   25.1340  -22.2251  -15.5737 C   0  0  0  0  0  0  0  0  0  0  0  0
   22.8205  -21.7273  -15.5632 O   0  0  0  0  0  0  0  0  0  0  0  0
   23.0391  -20.6209  -16.0938 C   0  0  0  0  0  0  0  0  0  0  0  0
   20.4453  -19.2043   -9.6387 C   0  0  2  0  0  0  0  0  0  0  0  0
   19.7209  -22.4206  -17.3286 N   0  0  0  0  0  0  0  0  0  0  0  0
   20.4726  -21.5519  -16.3468 C   0  0  0  0  0  0  0  0  0  0  0  0
   21.5368  -22.3029  -15.6782 O   0  0  0  0  0  0  0  0  0  0  0  0
   19.5261  -21.0153  -15.3270 O   0  0  0  0  0  0  0  0  0  0  0  0
  2  4  1  0
  2  1  1  0
  3  2  2  0
  5  4  1  0
  6  5  1  0
  7  6  1  0
  8  7  1  0
  8  9  1  1
 10 20  1  0
 10  8  1  0
 11 10  2  0
 13 12  1  0
 14 13  2  0
 15 13  1  0
 16 15  1  0
 17 18  1  0
 17 16  1  0
 19 18  1  1
 19 21  1  0
 19 20  1  0
 21 22  2  0
 24 23  1  1
 25 24  1  0
 25 21  1  0
 26 24  1  0
 27 26  2  0
 28 26  1  0
M  END
$$$$
