RRA.pdb
     RDKit          3D

 28 27  0  0  1  0  0  0  0  0999 V2000
   18.7680  -24.7893   -6.2158 N   0  0  0  0  0  0  0  0  0  0  0  0
   18.1448  -26.0043   -6.6730 C   0  0  0  0  0  0  0  0  0  0  0  0
   17.6198  -26.8146   -5.8189 N   0  0  0  0  0  0  0  0  0  0  0  0
   18.0886  -26.3430   -8.0415 N   0  0  0  0  0  0  0  0  0  0  0  0
   18.4956  -25.4080   -9.0611 C   0  0  0  0  0  0  0  0  0  0  0  0
   17.2159  -24.8842   -9.6998 C   0  0  0  0  0  0  0  0  0  0  0  0
   17.4771  -23.8944  -10.7974 C   0  0  0  0  0  0  0  0  0  0  0  0
   18.1677  -22.6647  -10.2490 C   0  0  2  0  0  0  0  0  0  0  0  0
   17.2211  -21.9566   -9.3938 N   0  0  0  0  0  0  0  0  0  0  0  0
   18.6079  -21.7201  -11.2964 C   0  0  0  0  0  0  0  0  0  0  0  0
   17.9920  -20.6555  -11.5760 O   0  0  0  0  0  0  0  0  0  0  0  0
   17.1809  -27.7203   -6.0226 N   0  0  0  0  0  0  0  0  0  0  0  0
   25.8872  -22.2739  -13.9546 C   0  0  0  0  0  0  0  0  0  0  0  0
   24.8913  -22.9215  -14.7308 N   0  0  0  0  0  0  0  0  0  0  0  0
   24.9786  -24.1665  -14.9809 N   0  0  0  0  0  0  0  0  0  0  0  0
   23.7913  -22.1885  -15.2341 C   0  0  0  0  0  0  0  0  0  0  0  0
   23.6289  -20.7796  -14.8821 C   0  0  0  0  0  0  0  0  0  0  0  0
   22.1868  -20.4645  -14.5649 C   0  0  0  0  0  0  0  0  0  0  0  0
   21.6276  -21.3303  -13.4897 C   0  0  1  0  0  0  0  0  0  0  0  0
   20.2096  -20.9916  -13.1021 N   0  0  0  0  0  0  0  0  0  0  0  0
   19.7844  -21.9481  -12.0812 C   0  0  0  0  0  0  0  0  0  0  0  0
   19.2441  -21.0496  -14.2027 O   0  0  0  0  0  0  0  0  0  0  0  0
   18.7148  -22.1347  -14.5121 C   0  0  0  0  0  0  0  0  0  0  0  0
   24.3498  -24.6514  -15.6296 C   0  0  1  0  0  0  0  0  0  0  0  0
   18.0965  -21.3336  -16.7402 N   0  0  0  0  0  0  0  0  0  0  0  0
   17.9745  -19.9926  -16.0542 C   0  0  0  0  0  0  0  0  0  0  0  0
   18.9001  -19.8866  -14.9249 O   0  0  0  0  0  0  0  0  0  0  0  0
   16.5764  -19.8033  -15.5711 O   0  0  0  0  0  0  0  0  0  0  0  0
  2  4  1  0
  2  1  1  0
  3  2  2  0
  5  4  1  0
  6  5  1  0
  7  6  1  0
  8  7  1  0
  8  9  1  1
 10 20  1  0
 10  8  1  0
 11 10  2  0
 13 12  1  0
 14 13  2  0
 15 13  1  0
 16 15  1  0
 17 18  1  0
 17 16  1  0
 19 18  1  1
 19 21  1  0
 19 20  1  0
 21 22  2  0
 24 23  1  6
 25 24  1  0
 25 21  1  0
 26 24  1  0
 27 26  2  0
 28 26  1  0
M  END
$$$$
