VDT.pdb
     RDKit          3D

 23 22  0  0  1  0  0  0  0  0999 V2000
   18.7397  -10.0525  -11.8406 C   0  0  0  0  0  0  0  0  0  0  0  0
   17.7101  -11.1705  -12.1189 C   0  0  2  0  0  0  0  0  0  0  0  0
   17.1396  -10.9523  -13.4671 C   0  0  0  0  0  0  0  0  0  0  0  0
   16.7632  -11.1252  -10.9586 C   0  0  2  0  0  0  0  0  0  0  0  0
   15.8934  -12.3204  -11.1626 N   0  0  0  0  0  0  0  0  0  0  0  0
   15.9474   -9.9305  -10.8148 C   0  0  0  0  0  0  0  0  0  0  0  0
   14.8539   -9.8654  -11.4390 O   0  0  0  0  0  0  0  0  0  0  0  0
   16.3332   -8.8462   -9.9980 N   0  0  0  0  0  0  0  0  0  0  0  0
   15.4846   -7.6293   -9.9271 C   0  0  1  0  0  0  0  0  0  0  0  0
   15.5719   -7.1199   -8.5184 C   0  0  0  0  0  0  0  0  0  0  0  0
   14.7997   -5.9099   -8.2183 C   0  0  0  0  0  0  0  0  0  0  0  0
   14.1547   -5.1929   -8.9850 O   0  0  0  0  0  0  0  0  0  0  0  0
   16.1011   -6.6451  -10.8545 C   0  0  0  0  0  0  0  0  0  0  0  0
   17.3470   -6.4820  -10.7432 O   0  0  0  0  0  0  0  0  0  0  0  0
   14.8119   -5.5336   -6.8527 O   0  0  0  0  0  0  0  0  0  0  0  0
   16.3209   -3.9579  -14.9813 C   0  0  0  0  0  0  0  0  0  0  0  0
   15.5655   -4.8754  -14.0787 C   0  0  1  0  0  0  0  0  0  0  0  0
   15.6506   -6.1801  -14.6109 O   0  0  0  0  0  0  0  0  0  0  0  0
   16.0632   -4.9512  -12.6817 C   0  0  2  0  0  0  0  0  0  0  0  0
   15.4312   -5.8953  -11.8258 N   0  0  0  0  0  0  0  0  0  0  0  0
   16.2186   -3.5904  -12.0955 C   0  0  0  0  0  0  0  0  0  0  0  0
   17.4015   -2.8854  -12.2296 O   0  0  0  0  0  0  0  0  0  0  0  0
   15.2856   -3.0565  -11.4710 O   0  0  0  0  0  0  0  0  0  0  0  0
  2  1  1  1
  2  3  1  0
  4  6  1  0
  4  2  1  0
  4  5  1  6
  6  8  1  0
  7  6  2  0
  8  9  1  0
  9 13  1  0
  9 10  1  1
 11 10  1  0
 11 12  2  0
 13 14  2  0
 13 20  1  0
 15 11  1  0
 17 16  1  6
 18 17  1  0
 19 17  1  0
 19 21  1  0
 19 20  1  1
 21 22  1  0
 23 21  2  0
M  END
$$$$
