VDT.pdb
     RDKit          3D

 23 22  0  0  1  0  0  0  0  0999 V2000
   14.8351  -12.1222  -17.6448 C   0  0  0  0  0  0  0  0  0  0  0  0
   15.8452  -13.2900  -17.7032 C   0  0  2  0  0  0  0  0  0  0  0  0
   15.2275  -14.4718  -17.0610 C   0  0  0  0  0  0  0  0  0  0  0  0
   17.0991  -12.7513  -17.0846 C   0  0  2  0  0  0  0  0  0  0  0  0
   16.7861  -12.7083  -15.6263 N   0  0  0  0  0  0  0  0  0  0  0  0
   17.5549  -11.4473  -17.5380 C   0  0  0  0  0  0  0  0  0  0  0  0
   17.9535  -11.3255  -18.7278 O   0  0  0  0  0  0  0  0  0  0  0  0
   17.5612  -10.3146  -16.6962 N   0  0  0  0  0  0  0  0  0  0  0  0
   18.1214   -9.0284  -17.1837 C   0  0  1  0  0  0  0  0  0  0  0  0
   16.9556   -8.1368  -17.4958 C   0  0  0  0  0  0  0  0  0  0  0  0
   17.2806   -6.7810  -17.9504 C   0  0  0  0  0  0  0  0  0  0  0  0
   18.3859   -6.2787  -18.1600 O   0  0  0  0  0  0  0  0  0  0  0  0
   18.8952   -8.4618  -16.0483 C   0  0  0  0  0  0  0  0  0  0  0  0
   18.2734   -8.3422  -14.9573 O   0  0  0  0  0  0  0  0  0  0  0  0
   16.1524   -5.9538  -18.1723 O   0  0  0  0  0  0  0  0  0  0  0  0
   21.8885   -9.9209  -14.3319 C   0  0  0  0  0  0  0  0  0  0  0  0
   22.1601   -8.4754  -14.5850 C   0  0  1  0  0  0  0  0  0  0  0  0
   23.0555   -8.3827  -15.6724 O   0  0  0  0  0  0  0  0  0  0  0  0
   20.9743   -7.6539  -14.9374 C   0  0  2  0  0  0  0  0  0  0  0  0
   20.2326   -8.0561  -16.0826 N   0  0  0  0  0  0  0  0  0  0  0  0
   21.2975   -6.2005  -14.8876 C   0  0  0  0  0  0  0  0  0  0  0  0
   21.7877   -5.6166  -13.7330 O   0  0  0  0  0  0  0  0  0  0  0  0
   21.1334   -5.4778  -15.8858 O   0  0  0  0  0  0  0  0  0  0  0  0
  2  1  1  1
  2  3  1  0
  4  6  1  0
  4  2  1  0
  4  5  1  1
  6  8  1  0
  7  6  2  0
  8  9  1  0
  9 13  1  0
  9 10  1  1
 11 10  1  0
 11 12  2  0
 13 14  2  0
 13 20  1  0
 15 11  1  0
 17 16  1  6
 18 17  1  0
 19 17  1  0
 19 21  1  0
 19 20  1  6
 21 22  1  0
 23 21  2  0
M  END
$$$$
