VDT.pdb
     RDKit          3D

 23 22  0  0  1  0  0  0  0  0999 V2000
   24.7040  -32.9890   -6.0726 C   0  0  0  0  0  0  0  0  0  0  0  0
   25.9699  -32.3704   -6.7070 C   0  0  2  0  0  0  0  0  0  0  0  0
   25.7898  -32.3467   -8.1759 C   0  0  0  0  0  0  0  0  0  0  0  0
   27.1101  -33.1804   -6.1695 C   0  0  2  0  0  0  0  0  0  0  0  0
   26.8984  -34.5318   -6.7658 N   0  0  0  0  0  0  0  0  0  0  0  0
   27.2271  -33.2832   -4.7241 C   0  0  0  0  0  0  0  0  0  0  0  0
   27.3383  -32.2242   -4.0491 O   0  0  0  0  0  0  0  0  0  0  0  0
   27.2147  -34.5238   -4.0515 N   0  0  0  0  0  0  0  0  0  0  0  0
   27.4331  -34.5764   -2.5834 C   0  0  1  0  0  0  0  0  0  0  0  0
   26.1177  -34.9424   -1.9610 C   0  0  0  0  0  0  0  0  0  0  0  0
   26.0793  -34.9668   -0.4952 C   0  0  0  0  0  0  0  0  0  0  0  0
   26.9956  -34.7787    0.3067 O   0  0  0  0  0  0  0  0  0  0  0  0
   28.4162  -35.6671   -2.3541 C   0  0  0  0  0  0  0  0  0  0  0  0
   28.3160  -36.6728   -3.1089 O   0  0  0  0  0  0  0  0  0  0  0  0
   24.8025  -35.2470    0.0505 O   0  0  0  0  0  0  0  0  0  0  0  0
   32.5097  -37.6238   -0.2876 C   0  0  0  0  0  0  0  0  0  0  0  0
   31.5563  -36.4825   -0.4127 C   0  0  1  0  0  0  0  0  0  0  0  0
   32.2138  -35.4366   -1.0956 O   0  0  0  0  0  0  0  0  0  0  0  0
   30.3110  -36.7693   -1.1690 C   0  0  2  0  0  0  0  0  0  0  0  0
   29.4281  -35.6761   -1.3895 N   0  0  0  0  0  0  0  0  0  0  0  0
   29.6517  -38.0058   -0.6632 C   0  0  0  0  0  0  0  0  0  0  0  0
   28.4614  -37.9447    0.0395 O   0  0  0  0  0  0  0  0  0  0  0  0
   30.1582  -39.1237   -0.8621 O   0  0  0  0  0  0  0  0  0  0  0  0
  2  1  1  1
  2  3  1  0
  4  6  1  0
  4  2  1  0
  4  5  1  6
  6  8  1  0
  7  6  2  0
  8  9  1  0
  9 13  1  0
  9 10  1  1
 11 10  1  0
 11 12  2  0
 13 14  2  0
 13 20  1  0
 15 11  1  0
 17 16  1  6
 18 17  1  0
 19 17  1  0
 19 21  1  0
 19 20  1  1
 21 22  1  0
 23 21  2  0
M  END
$$$$
