VDT.pdb
     RDKit          3D

 23 22  0  0  1  0  0  0  0  0999 V2000
   24.3521  -11.9442  -17.1050 C   0  0  0  0  0  0  0  0  0  0  0  0
   24.0996  -12.3596  -15.6383 C   0  0  2  0  0  0  0  0  0  0  0  0
   24.9653  -13.5192  -15.3277 C   0  0  0  0  0  0  0  0  0  0  0  0
   22.6185  -12.5649  -15.5415 C   0  0  2  0  0  0  0  0  0  0  0  0
   22.3606  -13.7249  -16.4439 N   0  0  0  0  0  0  0  0  0  0  0  0
   21.7683  -11.4446  -15.9100 C   0  0  0  0  0  0  0  0  0  0  0  0
   21.1558  -11.4863  -17.0112 O   0  0  0  0  0  0  0  0  0  0  0  0
   21.6005  -10.3177  -15.0773 N   0  0  0  0  0  0  0  0  0  0  0  0
   20.6690   -9.2312  -15.4743 C   0  0  1  0  0  0  0  0  0  0  0  0
   19.4188   -9.4129  -14.6647 C   0  0  0  0  0  0  0  0  0  0  0  0
   18.3741   -8.4005  -14.8504 C   0  0  0  0  0  0  0  0  0  0  0  0
   18.3040   -7.2647  -14.3785 O   0  0  0  0  0  0  0  0  0  0  0  0
   21.3346   -7.9594  -15.0891 C   0  0  0  0  0  0  0  0  0  0  0  0
   22.0896   -8.0113  -14.0799 O   0  0  0  0  0  0  0  0  0  0  0  0
   17.3100   -8.8077  -15.6920 O   0  0  0  0  0  0  0  0  0  0  0  0
   22.6362   -3.2074  -15.8934 C   0  0  0  0  0  0  0  0  0  0  0  0
   21.7960   -4.3833  -16.2655 C   0  0  1  0  0  0  0  0  0  0  0  0
   22.2368   -4.8560  -17.5204 O   0  0  0  0  0  0  0  0  0  0  0  0
   21.8575   -5.5350  -15.3301 C   0  0  2  0  0  0  0  0  0  0  0  0
   21.1998   -6.7285  -15.7379 N   0  0  0  0  0  0  0  0  0  0  0  0
   21.5561   -5.1070  -13.9354 C   0  0  0  0  0  0  0  0  0  0  0  0
   22.5556   -4.6444  -13.0980 O   0  0  0  0  0  0  0  0  0  0  0  0
   20.3958   -5.1562  -13.4916 O   0  0  0  0  0  0  0  0  0  0  0  0
  2  1  1  6
  2  3  1  0
  4  6  1  0
  4  2  1  0
  4  5  1  6
  6  8  1  0
  7  6  2  0
  8  9  1  0
  9 13  1  0
  9 10  1  1
 11 10  1  0
 11 12  2  0
 13 14  2  0
 13 20  1  0
 15 11  1  0
 17 16  1  1
 18 17  1  0
 19 17  1  0
 19 21  1  0
 19 20  1  6
 21 22  1  0
 23 21  2  0
M  END
$$$$
