VDT.pdb
     RDKit          3D

 23 22  0  0  1  0  0  0  0  0999 V2000
   26.7980  -20.3503  -13.9113 C   0  0  0  0  0  0  0  0  0  0  0  0
   26.4834  -19.9328  -12.4572 C   0  0  2  0  0  0  0  0  0  0  0  0
   27.7637  -19.6850  -11.7572 C   0  0  0  0  0  0  0  0  0  0  0  0
   25.6086  -21.0241  -11.9196 C   0  0  2  0  0  0  0  0  0  0  0  0
   26.4737  -22.2381  -11.9851 N   0  0  0  0  0  0  0  0  0  0  0  0
   24.3518  -21.2666  -12.6088 C   0  0  0  0  0  0  0  0  0  0  0  0
   24.2662  -22.2605  -13.3798 O   0  0  0  0  0  0  0  0  0  0  0  0
   23.2250  -20.4336  -12.4407 N   0  0  0  0  0  0  0  0  0  0  0  0
   21.9687  -20.7238  -13.1777 C   0  0  1  0  0  0  0  0  0  0  0  0
   20.8433  -20.1717  -12.3529 C   0  0  0  0  0  0  0  0  0  0  0  0
   19.4925  -20.3598  -12.8917 C   0  0  0  0  0  0  0  0  0  0  0  0
   19.1522  -20.7486  -14.0102 O   0  0  0  0  0  0  0  0  0  0  0  0
   22.0633  -19.9769  -14.4591 C   0  0  0  0  0  0  0  0  0  0  0  0
   22.2221  -18.7291  -14.3642 O   0  0  0  0  0  0  0  0  0  0  0  0
   18.4526  -20.0449  -11.9829 O   0  0  0  0  0  0  0  0  0  0  0  0
   22.9954  -19.4935  -19.2670 C   0  0  0  0  0  0  0  0  0  0  0  0
   22.8306  -20.3656  -18.0672 C   0  0  1  0  0  0  0  0  0  0  0  0
   24.1156  -20.6707  -17.5688 O   0  0  0  0  0  0  0  0  0  0  0  0
   22.0674  -19.7681  -16.9422 C   0  0  2  0  0  0  0  0  0  0  0  0
   21.9934  -20.5279  -15.7421 N   0  0  0  0  0  0  0  0  0  0  0  0
   20.7629  -19.2229  -17.4118 C   0  0  0  0  0  0  0  0  0  0  0  0
   20.6681  -17.9436  -17.9302 O   0  0  0  0  0  0  0  0  0  0  0  0
   19.7273  -19.9078  -17.3481 O   0  0  0  0  0  0  0  0  0  0  0  0
  2  1  1  6
  2  3  1  0
  4  6  1  0
  4  2  1  0
  4  5  1  6
  6  8  1  0
  7  6  2  0
  8  9  1  0
  9 13  1  0
  9 10  1  1
 11 10  1  0
 11 12  2  0
 13 14  2  0
 13 20  1  0
 15 11  1  0
 17 16  1  6
 18 17  1  0
 19 17  1  0
 19 21  1  0
 19 20  1  1
 21 22  1  0
 23 21  2  0
M  END
$$$$
