VDT.pdb
     RDKit          3D

 23 22  0  0  1  0  0  0  0  0999 V2000
   15.2977  -13.8222  -17.0102 C   0  0  0  0  0  0  0  0  0  0  0  0
   16.4331  -14.5399  -17.7739 C   0  0  2  0  0  0  0  0  0  0  0  0
   16.4363  -15.9642  -17.3715 C   0  0  0  0  0  0  0  0  0  0  0  0
   17.6662  -13.7416  -17.4782 C   0  0  2  0  0  0  0  0  0  0  0  0
   18.1163  -14.2601  -16.1535 N   0  0  0  0  0  0  0  0  0  0  0  0
   17.5239  -12.2956  -17.4284 C   0  0  0  0  0  0  0  0  0  0  0  0
   17.2603  -11.6763  -18.4944 O   0  0  0  0  0  0  0  0  0  0  0  0
   17.6645  -11.5636  -16.2300 N   0  0  0  0  0  0  0  0  0  0  0  0
   17.5189  -10.0856  -16.2396 C   0  0  1  0  0  0  0  0  0  0  0  0
   16.2163   -9.7726  -15.5637 C   0  0  0  0  0  0  0  0  0  0  0  0
   15.9248   -8.3520  -15.3455 C   0  0  0  0  0  0  0  0  0  0  0  0
   16.2913   -7.3765  -16.0027 O   0  0  0  0  0  0  0  0  0  0  0  0
   18.6448   -9.5576  -15.4256 C   0  0  0  0  0  0  0  0  0  0  0  0
   18.8268  -10.1089  -14.3058 O   0  0  0  0  0  0  0  0  0  0  0  0
   15.1077   -8.0904  -14.2184 O   0  0  0  0  0  0  0  0  0  0  0  0
   22.1670  -10.0213  -15.6027 C   0  0  0  0  0  0  0  0  0  0  0  0
   21.9679   -8.5457  -15.5028 C   0  0  1  0  0  0  0  0  0  0  0  0
   22.1302   -7.9944  -16.7922 O   0  0  0  0  0  0  0  0  0  0  0  0
   20.6330   -8.1118  -15.0182 C   0  0  2  0  0  0  0  0  0  0  0  0
   19.5078   -8.5189  -15.7872 N   0  0  0  0  0  0  0  0  0  0  0  0
   20.6419   -6.6685  -14.6492 C   0  0  0  0  0  0  0  0  0  0  0  0
   21.5182   -6.1798  -13.6965 O   0  0  0  0  0  0  0  0  0  0  0  0
   19.8597   -5.8685  -15.1912 O   0  0  0  0  0  0  0  0  0  0  0  0
  2  1  1  1
  2  3  1  0
  4  6  1  0
  4  2  1  0
  4  5  1  1
  6  8  1  0
  7  6  2  0
  8  9  1  0
  9 13  1  0
  9 10  1  1
 11 10  1  0
 11 12  2  0
 13 14  2  0
 13 20  1  0
 15 11  1  0
 17 16  1  6
 18 17  1  0
 19 17  1  0
 19 21  1  0
 19 20  1  6
 21 22  1  0
 23 21  2  0
M  END
$$$$
