VDT.pdb
     RDKit          3D

 23 22  0  0  1  0  0  0  0  0999 V2000
   23.9699  -12.1671  -19.0635 C   0  0  0  0  0  0  0  0  0  0  0  0
   25.0333  -11.8211  -17.9972 C   0  0  2  0  0  0  0  0  0  0  0  0
   26.1726  -12.7523  -18.1572 C   0  0  0  0  0  0  0  0  0  0  0  0
   24.2997  -11.8541  -16.6911 C   0  0  2  0  0  0  0  0  0  0  0  0
   24.0036  -13.3021  -16.4860 N   0  0  0  0  0  0  0  0  0  0  0  0
   23.0763  -11.0743  -16.5978 C   0  0  0  0  0  0  0  0  0  0  0  0
   21.9899  -11.6081  -16.9504 O   0  0  0  0  0  0  0  0  0  0  0  0
   23.0617   -9.7459  -16.1217 N   0  0  0  0  0  0  0  0  0  0  0  0
   21.7848   -8.9894  -16.0663 C   0  0  1  0  0  0  0  0  0  0  0  0
   20.8618   -9.7596  -15.1683 C   0  0  0  0  0  0  0  0  0  0  0  0
   19.5416   -9.1656  -14.9336 C   0  0  0  0  0  0  0  0  0  0  0  0
   19.2604   -8.0231  -14.5683 O   0  0  0  0  0  0  0  0  0  0  0  0
   22.1110   -7.6796  -15.4442 C   0  0  0  0  0  0  0  0  0  0  0  0
   22.9432   -7.7068  -14.4967 O   0  0  0  0  0  0  0  0  0  0  0  0
   18.4563  -10.0458  -15.1653 O   0  0  0  0  0  0  0  0  0  0  0  0
   22.3567   -2.7134  -15.6031 C   0  0  0  0  0  0  0  0  0  0  0  0
   21.8188   -3.9952  -16.1463 C   0  0  1  0  0  0  0  0  0  0  0  0
   22.4557   -4.2484  -17.3804 O   0  0  0  0  0  0  0  0  0  0  0  0
   22.0415   -5.1931  -15.2975 C   0  0  2  0  0  0  0  0  0  0  0  0
   21.5845   -6.4379  -15.8120 N   0  0  0  0  0  0  0  0  0  0  0  0
   21.6522   -4.9262  -13.8845 C   0  0  0  0  0  0  0  0  0  0  0  0
   22.5631   -4.4164  -12.9764 O   0  0  0  0  0  0  0  0  0  0  0  0
   20.4964   -5.1565  -13.4888 O   0  0  0  0  0  0  0  0  0  0  0  0
  2  1  1  6
  2  3  1  0
  4  6  1  0
  4  2  1  0
  4  5  1  6
  6  8  1  0
  7  6  2  0
  8  9  1  0
  9 13  1  0
  9 10  1  1
 11 10  1  0
 11 12  2  0
 13 14  2  0
 13 20  1  0
 15 11  1  0
 17 16  1  1
 18 17  1  0
 19 17  1  0
 19 21  1  0
 19 20  1  6
 21 22  1  0
 23 21  2  0
M  END
$$$$
