VDT.pdb
     RDKit          3D

 23 22  0  0  1  0  0  0  0  0999 V2000
   18.0892  -14.8411  -17.2342 C   0  0  0  0  0  0  0  0  0  0  0  0
   17.2409  -13.6687  -16.6926 C   0  0  2  0  0  0  0  0  0  0  0  0
   16.5616  -13.0191  -17.8360 C   0  0  0  0  0  0  0  0  0  0  0  0
   18.1962  -12.8317  -15.8977 C   0  0  2  0  0  0  0  0  0  0  0  0
   17.4730  -12.5873  -14.6157 N   0  0  0  0  0  0  0  0  0  0  0  0
   18.6181  -11.5698  -16.4836 C   0  0  0  0  0  0  0  0  0  0  0  0
   19.4735  -11.5884  -17.4096 O   0  0  0  0  0  0  0  0  0  0  0  0
   18.1004  -10.3283  -16.0568 N   0  0  0  0  0  0  0  0  0  0  0  0
   18.5087   -9.0763  -16.7434 C   0  0  1  0  0  0  0  0  0  0  0  0
   17.2600   -8.4597  -17.3022 C   0  0  0  0  0  0  0  0  0  0  0  0
   16.7803   -9.0083  -18.5748 C   0  0  0  0  0  0  0  0  0  0  0  0
   17.4043   -9.1994  -19.6198 O   0  0  0  0  0  0  0  0  0  0  0  0
   19.0730   -8.1952  -15.6879 C   0  0  0  0  0  0  0  0  0  0  0  0
   18.5276   -8.2689  -14.5529 O   0  0  0  0  0  0  0  0  0  0  0  0
   15.4080   -9.3592  -18.5787 O   0  0  0  0  0  0  0  0  0  0  0  0
   22.5529   -5.1548  -13.8322 C   0  0  0  0  0  0  0  0  0  0  0  0
   21.9753   -5.8626  -15.0122 C   0  0  1  0  0  0  0  0  0  0  0  0
   22.8472   -6.9170  -15.3594 O   0  0  0  0  0  0  0  0  0  0  0  0
   20.6357   -6.4681  -14.8023 C   0  0  2  0  0  0  0  0  0  0  0  0
   20.1402   -7.3050  -15.8401 N   0  0  0  0  0  0  0  0  0  0  0  0
   19.6632   -5.4544  -14.3062 C   0  0  0  0  0  0  0  0  0  0  0  0
   19.3568   -5.3566  -12.9605 O   0  0  0  0  0  0  0  0  0  0  0  0
   19.1036   -4.6713  -15.0932 O   0  0  0  0  0  0  0  0  0  0  0  0
  2  1  1  6
  2  3  1  0
  4  6  1  0
  4  2  1  0
  4  5  1  1
  6  8  1  0
  7  6  2  0
  8  9  1  0
  9 13  1  0
  9 10  1  1
 11 10  1  0
 11 12  2  0
 13 14  2  0
 13 20  1  0
 15 11  1  0
 17 16  1  1
 18 17  1  0
 19 17  1  0
 19 21  1  0
 19 20  1  6
 21 22  1  0
 23 21  2  0
M  END
$$$$
