VDT.pdb
     RDKit          3D

 23 22  0  0  1  0  0  0  0  0999 V2000
   27.3006  -18.8780  -14.8754 C   0  0  0  0  0  0  0  0  0  0  0  0
   27.4272  -19.9898  -13.8099 C   0  0  2  0  0  0  0  0  0  0  0  0
   28.6792  -20.7371  -14.0640 C   0  0  0  0  0  0  0  0  0  0  0  0
   26.1427  -20.7566  -13.8930 C   0  0  2  0  0  0  0  0  0  0  0  0
   26.2459  -21.4834  -15.1920 N   0  0  0  0  0  0  0  0  0  0  0  0
   24.9084  -19.9900  -13.8444 C   0  0  0  0  0  0  0  0  0  0  0  0
   24.6278  -19.3608  -12.7885 O   0  0  0  0  0  0  0  0  0  0  0  0
   24.0184  -19.9210  -14.9375 N   0  0  0  0  0  0  0  0  0  0  0  0
   22.7813  -19.1051  -14.8394 C   0  0  1  0  0  0  0  0  0  0  0  0
   22.4975  -18.5784  -16.2155 C   0  0  0  0  0  0  0  0  0  0  0  0
   21.2799  -17.7746  -16.3629 C   0  0  0  0  0  0  0  0  0  0  0  0
   20.4507  -17.4610  -15.5073 O   0  0  0  0  0  0  0  0  0  0  0  0
   21.7033  -20.0428  -14.4301 C   0  0  0  0  0  0  0  0  0  0  0  0
   21.6536  -21.1380  -15.0538 O   0  0  0  0  0  0  0  0  0  0  0  0
   21.0461  -17.3054  -17.6788 O   0  0  0  0  0  0  0  0  0  0  0  0
   19.4426  -19.9340  -10.6066 C   0  0  0  0  0  0  0  0  0  0  0  0
   19.9149  -21.0650  -11.4580 C   0  0  1  0  0  0  0  0  0  0  0  0
   19.0806  -22.1765  -11.2106 O   0  0  0  0  0  0  0  0  0  0  0  0
   19.8786  -20.8218  -12.9225 C   0  0  2  0  0  0  0  0  0  0  0  0
   20.7535  -19.8210  -13.4285 N   0  0  0  0  0  0  0  0  0  0  0  0
   18.4753  -20.7235  -13.4129 C   0  0  0  0  0  0  0  0  0  0  0  0
   17.5984  -21.7864  -13.2874 O   0  0  0  0  0  0  0  0  0  0  0  0
   18.0598  -19.6808  -13.9475 O   0  0  0  0  0  0  0  0  0  0  0  0
  2  1  1  6
  2  3  1  0
  4  6  1  0
  4  2  1  0
  4  5  1  6
  6  8  1  0
  7  6  2  0
  8  9  1  0
  9 13  1  0
  9 10  1  6
 11 10  1  0
 11 12  2  0
 13 14  2  0
 13 20  1  0
 15 11  1  0
 17 16  1  1
 18 17  1  0
 19 17  1  0
 19 21  1  0
 19 20  1  1
 21 22  1  0
 23 21  2  0
M  END
$$$$
