VDT.pdb
     RDKit          3D

 23 22  0  0  1  0  0  0  0  0999 V2000
   12.8819   -7.9868  -10.4533 C   0  0  0  0  0  0  0  0  0  0  0  0
   13.1088   -9.4799  -10.1268 C   0  0  2  0  0  0  0  0  0  0  0  0
   12.7211   -9.7119   -8.7173 C   0  0  0  0  0  0  0  0  0  0  0  0
   14.5358   -9.7469  -10.4976 C   0  0  2  0  0  0  0  0  0  0  0  0
   15.3124   -9.1675   -9.3628 N   0  0  0  0  0  0  0  0  0  0  0  0
   15.0070   -9.1986  -11.7589 C   0  0  0  0  0  0  0  0  0  0  0  0
   14.4624   -9.5856  -12.8281 O   0  0  0  0  0  0  0  0  0  0  0  0
   16.0460   -8.2461  -11.8274 N   0  0  0  0  0  0  0  0  0  0  0  0
   16.5134   -7.7484  -13.1464 C   0  0  1  0  0  0  0  0  0  0  0  0
   16.2374   -6.2738  -13.1774 C   0  0  0  0  0  0  0  0  0  0  0  0
   16.6899   -5.5552  -14.3730 C   0  0  0  0  0  0  0  0  0  0  0  0
   17.0576   -6.0104  -15.4572 O   0  0  0  0  0  0  0  0  0  0  0  0
   17.9805   -7.9838  -13.1770 C   0  0  0  0  0  0  0  0  0  0  0  0
   18.6213   -7.6298  -12.1498 O   0  0  0  0  0  0  0  0  0  0  0  0
   16.6965   -4.1451  -14.2387 O   0  0  0  0  0  0  0  0  0  0  0  0
   20.4609  -10.3516  -16.1090 C   0  0  0  0  0  0  0  0  0  0  0  0
   20.6546  -10.0148  -14.6681 C   0  0  1  0  0  0  0  0  0  0  0  0
   22.0417   -9.9910  -14.4074 O   0  0  0  0  0  0  0  0  0  0  0  0
   20.1175   -8.6979  -14.2412 C   0  0  2  0  0  0  0  0  0  0  0  0
   18.7023   -8.5556  -14.2288 N   0  0  0  0  0  0  0  0  0  0  0  0
   20.8466   -7.5824  -14.9073 C   0  0  0  0  0  0  0  0  0  0  0  0
   22.1882   -7.3554  -14.6569 O   0  0  0  0  0  0  0  0  0  0  0  0
   20.2635   -6.8285  -15.7055 O   0  0  0  0  0  0  0  0  0  0  0  0
  2  1  1  1
  2  3  1  0
  4  6  1  0
  4  2  1  0
  4  5  1  1
  6  8  1  0
  7  6  2  0
  8  9  1  0
  9 13  1  0
  9 10  1  1
 11 10  1  0
 11 12  2  0
 13 14  2  0
 13 20  1  0
 15 11  1  0
 17 16  1  6
 18 17  1  0
 19 17  1  0
 19 21  1  0
 19 20  1  6
 21 22  1  0
 23 21  2  0
M  END
$$$$
