VDT.pdb
     RDKit          3D

 23 22  0  0  1  0  0  0  0  0999 V2000
   17.9650  -13.8697  -15.9972 C   0  0  0  0  0  0  0  0  0  0  0  0
   18.2690  -12.4239  -16.4496 C   0  0  2  0  0  0  0  0  0  0  0  0
   19.7122  -12.1665  -16.2458 C   0  0  0  0  0  0  0  0  0  0  0  0
   17.3057  -11.5667  -15.6864 C   0  0  2  0  0  0  0  0  0  0  0  0
   15.9673  -12.0432  -16.1424 N   0  0  0  0  0  0  0  0  0  0  0  0
   17.4130  -10.1279  -15.8651 C   0  0  0  0  0  0  0  0  0  0  0  0
   16.9729   -9.6157  -16.9297 O   0  0  0  0  0  0  0  0  0  0  0  0
   17.9859   -9.2860  -14.8880 N   0  0  0  0  0  0  0  0  0  0  0  0
   18.1703   -7.8392  -15.1681 C   0  0  1  0  0  0  0  0  0  0  0  0
   16.9632   -7.1336  -14.6235 C   0  0  0  0  0  0  0  0  0  0  0  0
   17.0035   -5.6679  -14.6487 C   0  0  0  0  0  0  0  0  0  0  0  0
   17.3913   -4.9193  -15.5471 O   0  0  0  0  0  0  0  0  0  0  0  0
   19.3779   -7.4250  -14.4073 C   0  0  0  0  0  0  0  0  0  0  0  0
   19.6133   -8.0662  -13.3469 O   0  0  0  0  0  0  0  0  0  0  0  0
   16.5258   -5.0505  -13.4667 O   0  0  0  0  0  0  0  0  0  0  0  0
   22.6889   -8.2554  -14.6275 C   0  0  0  0  0  0  0  0  0  0  0  0
   22.7078   -6.7636  -14.5884 C   0  0  1  0  0  0  0  0  0  0  0  0
   22.8830   -6.2939  -15.9079 O   0  0  0  0  0  0  0  0  0  0  0  0
   21.4744   -6.1217  -14.0671 C   0  0  2  0  0  0  0  0  0  0  0  0
   20.2637   -6.4021  -14.7590 N   0  0  0  0  0  0  0  0  0  0  0  0
   21.7040   -4.6780  -13.7801 C   0  0  0  0  0  0  0  0  0  0  0  0
   22.5961   -4.2770  -12.8015 O   0  0  0  0  0  0  0  0  0  0  0  0
   21.0971   -3.7987  -14.4159 O   0  0  0  0  0  0  0  0  0  0  0  0
  2  1  1  1
  2  3  1  0
  4  6  1  0
  4  2  1  0
  4  5  1  6
  6  8  1  0
  7  6  2  0
  8  9  1  0
  9 13  1  0
  9 10  1  1
 11 10  1  0
 11 12  2  0
 13 14  2  0
 13 20  1  0
 15 11  1  0
 17 16  1  6
 18 17  1  0
 19 17  1  0
 19 21  1  0
 19 20  1  6
 21 22  1  0
 23 21  2  0
M  END
$$$$
