HPQ.pdb
     RDKit          3D

 27 28  0  0  1  0  0  0  0  0999 V2000
   10.7516  -15.5121   15.9933 N   0  0  0  0  0  0  0  0  0  0  0  0
    9.5174  -15.2091   16.7207 C   0  0  1  0  0  0  0  0  0  0  0  0
    8.5957  -16.3846   16.3970 C   0  0  0  0  0  0  0  0  0  0  0  0
    8.2493  -16.4279   14.9686 C   0  0  0  0  0  0  0  0  0  0  0  0
    7.2543  -15.7921   14.2799 C   0  0  0  0  0  0  0  0  0  0  0  0
    7.3398  -16.1486   12.9846 N   0  0  0  0  0  0  0  0  0  0  0  0
    8.3722  -17.0017   12.8314 C   0  0  0  0  0  0  0  0  0  0  0  0
    8.9120  -17.1613   14.0369 N   0  0  0  0  0  0  0  0  0  0  0  0
    9.7655  -15.1268   18.1757 C   0  0  0  0  0  0  0  0  0  0  0  0
   10.5583  -15.9623   18.6797 O   0  0  0  0  0  0  0  0  0  0  0  0
    9.1542  -14.1597   19.0028 N   0  0  0  0  0  0  0  0  0  0  0  0
    8.6302  -12.8954   18.4477 C   0  0  0  0  0  0  0  0  0  0  0  0
    7.2511  -12.9064   19.0240 C   0  0  0  0  0  0  0  0  0  0  0  0
    7.5307  -13.3913   20.4532 C   0  0  0  0  0  0  0  0  0  0  0  0
    8.9206  -14.0506   20.3897 C   0  0  1  0  0  0  0  0  0  0  0  0
    8.8203  -15.2788   21.1773 C   0  0  0  0  0  0  0  0  0  0  0  0
    7.9844  -16.2024   21.0378 O   0  0  0  0  0  0  0  0  0  0  0  0
   11.5111  -19.8152   20.4721 N   0  0  0  0  0  0  0  0  0  0  0  0
   12.3418  -18.7806   20.9690 C   0  0  0  0  0  0  0  0  0  0  0  0
   13.5517  -18.7792   20.6557 O   0  0  0  0  0  0  0  0  0  0  0  0
   11.7914  -17.7444   21.8268 C   0  0  0  0  0  0  0  0  0  0  0  0
   10.3301  -17.7819   22.0808 C   0  0  0  0  0  0  0  0  0  0  0  0
    9.8011  -16.7229   23.0124 C   0  0  2  0  0  0  0  0  0  0  0  0
    9.7705  -15.4788   22.2353 N   0  0  0  0  0  0  0  0  0  0  0  0
   10.6660  -16.5635   24.2082 C   0  0  0  0  0  0  0  0  0  0  0  0
   10.7367  -17.4773   25.0609 O   0  0  0  0  0  0  0  0  0  0  0  0
   11.4035  -15.4131   24.4003 O   0  0  0  0  0  0  0  0  0  0  0  0
  2  1  1  6
  2  9  1  0
  3  2  1  0
  4  5  2  0
  4  3  1  0
  6  5  1  0
  7  8  2  0
  7  6  1  0
  8  4  1  0
  9 11  1  0
 10  9  2  0
 11 15  1  0
 11 12  1  0
 12 13  1  0
 14 15  1  0
 14 13  1  0
 15 16  1  6
 16 17  2  0
 18 19  1  0
 19 21  1  0
 20 19  2  0
 21 22  1  0
 23 22  1  6
 23 24  1  0
 24 16  1  0
 25 23  1  0
 26 25  2  0
 27 25  1  0
M  END
$$$$
