HPQ.pdb
     RDKit          3D

 27 28  0  0  1  0  0  0  0  0999 V2000
   10.6053  -14.3840   20.0823 N   0  0  0  0  0  0  0  0  0  0  0  0
    9.3565  -14.1974   20.8238 C   0  0  1  0  0  0  0  0  0  0  0  0
    8.3634  -15.1218   20.1199 C   0  0  0  0  0  0  0  0  0  0  0  0
    8.1758  -14.7477   18.7103 C   0  0  0  0  0  0  0  0  0  0  0  0
    8.1316  -13.5154   18.1204 C   0  0  0  0  0  0  0  0  0  0  0  0
    7.9388  -13.6840   16.7988 N   0  0  0  0  0  0  0  0  0  0  0  0
    7.8588  -15.0029   16.5317 C   0  0  0  0  0  0  0  0  0  0  0  0
    8.0034  -15.6329   17.6945 N   0  0  0  0  0  0  0  0  0  0  0  0
    9.5172  -14.5871   22.2406 C   0  0  0  0  0  0  0  0  0  0  0  0
   10.4557  -15.3736   22.5256 O   0  0  0  0  0  0  0  0  0  0  0  0
    8.6686  -14.1148   23.2653 N   0  0  0  0  0  0  0  0  0  0  0  0
    7.7441  -12.9859   23.0370 C   0  0  0  0  0  0  0  0  0  0  0  0
    6.4686  -13.5855   23.5347 C   0  0  0  0  0  0  0  0  0  0  0  0
    6.9539  -14.3081   24.7990 C   0  0  0  0  0  0  0  0  0  0  0  0
    8.4770  -14.4488   24.6224 C   0  0  1  0  0  0  0  0  0  0  0  0
    8.8097  -15.8042   25.0592 C   0  0  0  0  0  0  0  0  0  0  0  0
    8.6678  -16.8663   24.4088 O   0  0  0  0  0  0  0  0  0  0  0  0
   10.1509  -16.3747   30.7795 N   0  0  0  0  0  0  0  0  0  0  0  0
   10.4299  -15.2884   29.9137 C   0  0  0  0  0  0  0  0  0  0  0  0
   10.4370  -14.1311   30.3854 O   0  0  0  0  0  0  0  0  0  0  0  0
   10.7010  -15.5224   28.5051 C   0  0  0  0  0  0  0  0  0  0  0  0
   10.7431  -16.9338   28.0495 C   0  0  0  0  0  0  0  0  0  0  0  0
    9.9628  -17.2403   26.7980 C   0  0  2  0  0  0  0  0  0  0  0  0
    9.3625  -15.9704   26.3741 N   0  0  0  0  0  0  0  0  0  0  0  0
    8.9066  -18.2535   27.0453 C   0  0  0  0  0  0  0  0  0  0  0  0
    7.6985  -17.9303   26.9911 O   0  0  0  0  0  0  0  0  0  0  0  0
    9.2350  -19.5617   27.3371 O   0  0  0  0  0  0  0  0  0  0  0  0
  2  1  1  6
  2  9  1  0
  3  2  1  0
  4  5  2  0
  4  3  1  0
  6  5  1  0
  7  8  2  0
  7  6  1  0
  8  4  1  0
  9 11  1  0
 10  9  2  0
 11 15  1  0
 11 12  1  0
 12 13  1  0
 14 15  1  0
 14 13  1  0
 15 16  1  6
 16 17  2  0
 18 19  1  0
 19 21  1  0
 20 19  2  0
 21 22  1  0
 23 22  1  1
 23 24  1  0
 24 16  1  0
 25 23  1  0
 26 25  2  0
 27 25  1  0
M  END
$$$$
