HPQ.pdb
     RDKit          3D

 27 28  0  0  1  0  0  0  0  0999 V2000
    6.1405  -18.6427   19.7991 N   0  0  0  0  0  0  0  0  0  0  0  0
    5.9473  -17.3543   20.4677 C   0  0  1  0  0  0  0  0  0  0  0  0
    5.0708  -17.6884   21.6745 C   0  0  0  0  0  0  0  0  0  0  0  0
    3.8147  -18.3384   21.2722 C   0  0  0  0  0  0  0  0  0  0  0  0
    3.2712  -18.5214   20.0314 C   0  0  0  0  0  0  0  0  0  0  0  0
    2.1020  -19.1736   20.1719 N   0  0  0  0  0  0  0  0  0  0  0  0
    1.8869  -19.4117   21.4812 C   0  0  0  0  0  0  0  0  0  0  0  0
    2.9285  -18.9022   22.1335 N   0  0  0  0  0  0  0  0  0  0  0  0
    7.2394  -16.7838   20.9040 C   0  0  0  0  0  0  0  0  0  0  0  0
    8.0628  -17.5592   21.4530 O   0  0  0  0  0  0  0  0  0  0  0  0
    7.5738  -15.4236   20.7281 N   0  0  0  0  0  0  0  0  0  0  0  0
    7.0918  -14.6594   19.5599 C   0  0  0  0  0  0  0  0  0  0  0  0
    6.5119  -13.4655   20.2473 C   0  0  0  0  0  0  0  0  0  0  0  0
    7.5791  -13.1910   21.3159 C   0  0  0  0  0  0  0  0  0  0  0  0
    8.3754  -14.5033   21.4356 C   0  0  1  0  0  0  0  0  0  0  0  0
    8.5841  -14.7188   22.8669 C   0  0  0  0  0  0  0  0  0  0  0  0
    7.7631  -14.5142   23.7918 O   0  0  0  0  0  0  0  0  0  0  0  0
    7.2656  -18.6837   25.8285 N   0  0  0  0  0  0  0  0  0  0  0  0
    8.1595  -18.1597   26.7948 C   0  0  0  0  0  0  0  0  0  0  0  0
    8.0604  -18.5491   27.9782 O   0  0  0  0  0  0  0  0  0  0  0  0
    9.1695  -17.1876   26.4108 C   0  0  0  0  0  0  0  0  0  0  0  0
    9.1010  -16.6505   25.0294 C   0  0  0  0  0  0  0  0  0  0  0  0
   10.1125  -15.5870   24.6905 C   0  0  2  0  0  0  0  0  0  0  0  0
    9.8608  -15.2199   23.2925 N   0  0  0  0  0  0  0  0  0  0  0  0
   11.5026  -16.0817   24.8523 C   0  0  0  0  0  0  0  0  0  0  0  0
   12.1091  -16.5855   23.8800 O   0  0  0  0  0  0  0  0  0  0  0  0
   12.1477  -15.9954   26.0691 O   0  0  0  0  0  0  0  0  0  0  0  0
  2  1  1  1
  2  9  1  0
  3  2  1  0
  4  5  2  0
  4  3  1  0
  6  5  1  0
  7  8  2  0
  7  6  1  0
  8  4  1  0
  9 11  1  0
 10  9  2  0
 11 15  1  0
 11 12  1  0
 12 13  1  0
 14 15  1  0
 14 13  1  0
 15 16  1  1
 16 17  2  0
 18 19  1  0
 19 21  1  0
 20 19  2  0
 21 22  1  0
 23 22  1  6
 23 24  1  0
 24 16  1  0
 25 23  1  0
 26 25  2  0
 27 25  1  0
M  END
$$$$
