HPQ.pdb
     RDKit          3D

 27 28  0  0  1  0  0  0  0  0999 V2000
   10.1084  -14.3784   20.8244 N   0  0  0  0  0  0  0  0  0  0  0  0
    8.8849  -14.1285   21.5890 C   0  0  1  0  0  0  0  0  0  0  0  0
    7.7898  -14.8184   20.7759 C   0  0  0  0  0  0  0  0  0  0  0  0
    7.7353  -14.3128   19.3963 C   0  0  0  0  0  0  0  0  0  0  0  0
    7.7241  -13.0301   18.9239 C   0  0  0  0  0  0  0  0  0  0  0  0
    7.6671  -13.0730   17.5796 N   0  0  0  0  0  0  0  0  0  0  0  0
    7.6416  -14.3610   17.1825 C   0  0  0  0  0  0  0  0  0  0  0  0
    7.6832  -15.0981   18.2892 N   0  0  0  0  0  0  0  0  0  0  0  0
    8.9761  -14.7146   22.9430 C   0  0  0  0  0  0  0  0  0  0  0  0
    9.6267  -15.7825   23.0729 O   0  0  0  0  0  0  0  0  0  0  0  0
    8.3692  -14.1266   24.0740 N   0  0  0  0  0  0  0  0  0  0  0  0
    7.8086  -12.7613   24.0217 C   0  0  0  0  0  0  0  0  0  0  0  0
    6.4452  -13.0150   24.5794 C   0  0  0  0  0  0  0  0  0  0  0  0
    6.7702  -13.9748   25.7323 C   0  0  0  0  0  0  0  0  0  0  0  0
    8.1696  -14.5306   25.4107 C   0  0  1  0  0  0  0  0  0  0  0  0
    8.1116  -15.9622   25.7038 C   0  0  0  0  0  0  0  0  0  0  0  0
    7.2201  -16.7716   25.3555 O   0  0  0  0  0  0  0  0  0  0  0  0
   13.5030  -17.9334   24.3571 N   0  0  0  0  0  0  0  0  0  0  0  0
   12.5262  -18.7429   24.9878 C   0  0  0  0  0  0  0  0  0  0  0  0
   12.4967  -19.9641   24.7237 O   0  0  0  0  0  0  0  0  0  0  0  0
   11.5791  -18.1580   25.9224 C   0  0  0  0  0  0  0  0  0  0  0  0
   10.1647  -18.5926   25.8131 C   0  0  0  0  0  0  0  0  0  0  0  0
    9.2105  -17.9659   26.7960 C   0  0  2  0  0  0  0  0  0  0  0  0
    9.1798  -16.5348   26.4741 N   0  0  0  0  0  0  0  0  0  0  0  0
    9.6548  -18.1705   28.1974 C   0  0  0  0  0  0  0  0  0  0  0  0
   10.0927  -17.2074   28.8664 O   0  0  0  0  0  0  0  0  0  0  0  0
    9.5934  -19.4178   28.7847 O   0  0  0  0  0  0  0  0  0  0  0  0
  2  1  1  6
  2  9  1  0
  3  2  1  0
  4  5  2  0
  4  3  1  0
  6  5  1  0
  7  8  2  0
  7  6  1  0
  8  4  1  0
  9 11  1  0
 10  9  2  0
 11 15  1  0
 11 12  1  0
 12 13  1  0
 14 15  1  0
 14 13  1  0
 15 16  1  6
 16 17  2  0
 18 19  1  0
 19 21  1  0
 20 19  2  0
 21 22  1  0
 23 22  1  6
 23 24  1  0
 24 16  1  0
 25 23  1  0
 26 25  2  0
 27 25  1  0
M  END
$$$$
