HPQ.pdb
     RDKit          3D

 27 28  0  0  1  0  0  0  0  0999 V2000
    9.7916  -14.2911   21.3254 N   0  0  0  0  0  0  0  0  0  0  0  0
    8.6060  -14.0807   22.1586 C   0  0  1  0  0  0  0  0  0  0  0  0
    7.4986  -14.8420   21.4304 C   0  0  0  0  0  0  0  0  0  0  0  0
    7.3097  -14.3483   20.0583 C   0  0  0  0  0  0  0  0  0  0  0  0
    7.5464  -13.1135   19.5220 C   0  0  0  0  0  0  0  0  0  0  0  0
    7.2165  -13.1469   18.2172 N   0  0  0  0  0  0  0  0  0  0  0  0
    6.7726  -14.3818   17.9083 C   0  0  0  0  0  0  0  0  0  0  0  0
    6.8343  -15.0963   19.0289 N   0  0  0  0  0  0  0  0  0  0  0  0
    8.8082  -14.6277   23.5170 C   0  0  0  0  0  0  0  0  0  0  0  0
    9.5746  -15.6169   23.6385 O   0  0  0  0  0  0  0  0  0  0  0  0
    8.1818  -14.0871   24.6608 N   0  0  0  0  0  0  0  0  0  0  0  0
    7.4384  -12.8125   24.5988 C   0  0  0  0  0  0  0  0  0  0  0  0
    6.1507  -13.2275   25.2343 C   0  0  0  0  0  0  0  0  0  0  0  0
    6.6587  -14.0931   26.3958 C   0  0  0  0  0  0  0  0  0  0  0  0
    8.1037  -14.4664   26.0173 C   0  0  1  0  0  0  0  0  0  0  0  0
    8.2557  -15.8814   26.3541 C   0  0  0  0  0  0  0  0  0  0  0  0
    7.4141  -16.7951   26.1861 O   0  0  0  0  0  0  0  0  0  0  0  0
   13.5053  -18.9090   25.4426 N   0  0  0  0  0  0  0  0  0  0  0  0
   12.8835  -19.7645   26.3855 C   0  0  0  0  0  0  0  0  0  0  0  0
   13.4364  -20.8490   26.6685 O   0  0  0  0  0  0  0  0  0  0  0  0
   11.6264  -19.3826   27.0072 C   0  0  0  0  0  0  0  0  0  0  0  0
   11.0636  -18.0602   26.6387 C   0  0  0  0  0  0  0  0  0  0  0  0
    9.7455  -17.7095   27.2780 C   0  0  2  0  0  0  0  0  0  0  0  0
    9.4952  -16.3029   26.9441 N   0  0  0  0  0  0  0  0  0  0  0  0
    9.7853  -17.8914   28.7506 C   0  0  0  0  0  0  0  0  0  0  0  0
    9.5787  -19.0197   29.2518 O   0  0  0  0  0  0  0  0  0  0  0  0
   10.0496  -16.8272   29.5885 O   0  0  0  0  0  0  0  0  0  0  0  0
  2  1  1  6
  2  9  1  0
  3  2  1  0
  4  5  2  0
  4  3  1  0
  6  5  1  0
  7  8  2  0
  7  6  1  0
  8  4  1  0
  9 11  1  0
 10  9  2  0
 11 15  1  0
 11 12  1  0
 12 13  1  0
 14 15  1  0
 14 13  1  0
 15 16  1  6
 16 17  2  0
 18 19  1  0
 19 21  1  0
 20 19  2  0
 21 22  1  0
 23 22  1  6
 23 24  1  0
 24 16  1  0
 25 23  1  0
 26 25  2  0
 27 25  1  0
M  END
$$$$
