HPQ.pdb
     RDKit          3D

 27 28  0  0  1  0  0  0  0  0999 V2000
   11.3893  -15.1303   18.0704 N   0  0  0  0  0  0  0  0  0  0  0  0
   10.0145  -14.7530   18.4046 C   0  0  1  0  0  0  0  0  0  0  0  0
    9.1625  -15.8578   17.7805 C   0  0  0  0  0  0  0  0  0  0  0  0
    9.1910  -15.8035   16.3114 C   0  0  0  0  0  0  0  0  0  0  0  0
    8.7446  -14.8378   15.4530 C   0  0  0  0  0  0  0  0  0  0  0  0
    8.9924  -15.2421   14.1931 N   0  0  0  0  0  0  0  0  0  0  0  0
    9.5897  -16.4501   14.2293 C   0  0  0  0  0  0  0  0  0  0  0  0
    9.7032  -16.7766   15.5140 N   0  0  0  0  0  0  0  0  0  0  0  0
    9.8177  -14.7075   19.8691 C   0  0  0  0  0  0  0  0  0  0  0  0
   10.6331  -15.3411   20.5863 O   0  0  0  0  0  0  0  0  0  0  0  0
    8.7653  -13.9902   20.4780 N   0  0  0  0  0  0  0  0  0  0  0  0
    8.0942  -12.8735   19.7824 C   0  0  0  0  0  0  0  0  0  0  0  0
    6.6658  -13.2824   19.9451 C   0  0  0  0  0  0  0  0  0  0  0  0
    6.6606  -13.7695   21.4007 C   0  0  0  0  0  0  0  0  0  0  0  0
    8.1383  -14.0368   21.7408 C   0  0  1  0  0  0  0  0  0  0  0  0
    8.1596  -15.2971   22.4822 C   0  0  0  0  0  0  0  0  0  0  0  0
    7.9798  -16.4496   22.0232 O   0  0  0  0  0  0  0  0  0  0  0  0
    9.5823  -15.0326   28.6592 N   0  0  0  0  0  0  0  0  0  0  0  0
   10.3320  -14.6610   27.5159 C   0  0  0  0  0  0  0  0  0  0  0  0
   11.3286  -13.9218   27.6655 O   0  0  0  0  0  0  0  0  0  0  0  0
    9.9437  -15.1331   26.1972 C   0  0  0  0  0  0  0  0  0  0  0  0
    8.7494  -16.0098   26.1170 C   0  0  0  0  0  0  0  0  0  0  0  0
    8.3505  -16.4459   24.7315 C   0  0  2  0  0  0  0  0  0  0  0  0
    8.4120  -15.2422   23.8948 N   0  0  0  0  0  0  0  0  0  0  0  0
    6.9817  -17.0197   24.7106 C   0  0  0  0  0  0  0  0  0  0  0  0
    6.7774  -18.1775   25.1405 O   0  0  0  0  0  0  0  0  0  0  0  0
    5.9163  -16.2921   24.2207 O   0  0  0  0  0  0  0  0  0  0  0  0
  2  1  1  1
  2  9  1  0
  3  2  1  0
  4  5  2  0
  4  3  1  0
  6  5  1  0
  7  8  2  0
  7  6  1  0
  8  4  1  0
  9 11  1  0
 10  9  2  0
 11 15  1  0
 11 12  1  0
 12 13  1  0
 14 15  1  0
 14 13  1  0
 15 16  1  6
 16 17  2  0
 18 19  1  0
 19 21  1  0
 20 19  2  0
 21 22  1  0
 23 22  1  1
 23 24  1  0
 24 16  1  0
 25 23  1  0
 26 25  2  0
 27 25  1  0
M  END
$$$$
