HPQ.pdb
     RDKit          3D

 27 28  0  0  1  0  0  0  0  0999 V2000
   11.3659  -15.1179   17.4991 N   0  0  0  0  0  0  0  0  0  0  0  0
   10.0050  -14.9324   18.0067 C   0  0  1  0  0  0  0  0  0  0  0  0
    9.2831  -16.2224   17.6181 C   0  0  0  0  0  0  0  0  0  0  0  0
    9.1215  -16.3385   16.1612 C   0  0  0  0  0  0  0  0  0  0  0  0
    8.6610  -15.4324   15.2472 C   0  0  0  0  0  0  0  0  0  0  0  0
    8.6988  -16.0022   14.0282 N   0  0  0  0  0  0  0  0  0  0  0  0
    9.1755  -17.2577   14.1453 C   0  0  0  0  0  0  0  0  0  0  0  0
    9.4264  -17.4471   15.4380 N   0  0  0  0  0  0  0  0  0  0  0  0
   10.0053  -14.7573   19.4746 C   0  0  0  0  0  0  0  0  0  0  0  0
   10.9035  -15.3430   20.1309 O   0  0  0  0  0  0  0  0  0  0  0  0
    9.0494  -13.9693   20.1516 N   0  0  0  0  0  0  0  0  0  0  0  0
    8.3346  -12.8730   19.4672 C   0  0  0  0  0  0  0  0  0  0  0  0
    6.9232  -13.2219   19.8141 C   0  0  0  0  0  0  0  0  0  0  0  0
    7.0705  -13.6219   21.2887 C   0  0  0  0  0  0  0  0  0  0  0  0
    8.5693  -13.9196   21.4771 C   0  0  1  0  0  0  0  0  0  0  0  0
    8.6400  -15.1341   22.2888 C   0  0  0  0  0  0  0  0  0  0  0  0
    8.3707  -16.3038   21.9276 O   0  0  0  0  0  0  0  0  0  0  0  0
   11.1818  -14.8957   28.1955 N   0  0  0  0  0  0  0  0  0  0  0  0
    9.8643  -14.4623   27.9062 C   0  0  0  0  0  0  0  0  0  0  0  0
    9.2887  -13.7066   28.7183 O   0  0  0  0  0  0  0  0  0  0  0  0
    9.2003  -14.8926   26.6870 C   0  0  0  0  0  0  0  0  0  0  0  0
   10.0006  -15.6916   25.7265 C   0  0  0  0  0  0  0  0  0  0  0  0
    9.2617  -16.1824   24.5091 C   0  0  2  0  0  0  0  0  0  0  0  0
    9.0614  -15.0059   23.6556 N   0  0  0  0  0  0  0  0  0  0  0  0
    7.9550  -16.7880   24.8686 C   0  0  0  0  0  0  0  0  0  0  0  0
    7.9106  -17.9192   25.4027 O   0  0  0  0  0  0  0  0  0  0  0  0
    6.7731  -16.1194   24.6225 O   0  0  0  0  0  0  0  0  0  0  0  0
  2  1  1  1
  2  9  1  0
  3  2  1  0
  4  5  2  0
  4  3  1  0
  6  5  1  0
  7  8  2  0
  7  6  1  0
  8  4  1  0
  9 11  1  0
 10  9  2  0
 11 15  1  0
 11 12  1  0
 12 13  1  0
 14 15  1  0
 14 13  1  0
 15 16  1  6
 16 17  2  0
 18 19  1  0
 19 21  1  0
 20 19  2  0
 21 22  1  0
 23 22  1  1
 23 24  1  0
 24 16  1  0
 25 23  1  0
 26 25  2  0
 27 25  1  0
M  END
$$$$
