HPQ.pdb
     RDKit          3D

 27 28  0  0  1  0  0  0  0  0999 V2000
   10.0789  -17.0317   17.9754 N   0  0  0  0  0  0  0  0  0  0  0  0
    8.9262  -16.2811   18.4774 C   0  0  1  0  0  0  0  0  0  0  0  0
    7.7766  -17.2873   18.4295 C   0  0  0  0  0  0  0  0  0  0  0  0
    7.4860  -17.7173   17.0538 C   0  0  0  0  0  0  0  0  0  0  0  0
    8.0672  -17.3528   15.8715 C   0  0  0  0  0  0  0  0  0  0  0  0
    7.4552  -18.0186   14.8743 N   0  0  0  0  0  0  0  0  0  0  0  0
    6.4919  -18.8034   15.3972 C   0  0  0  0  0  0  0  0  0  0  0  0
    6.5218  -18.6115   16.7133 N   0  0  0  0  0  0  0  0  0  0  0  0
    9.1564  -15.8183   19.8623 C   0  0  0  0  0  0  0  0  0  0  0  0
    9.7269  -16.6109   20.6541 O   0  0  0  0  0  0  0  0  0  0  0  0
    8.7649  -14.5405   20.3173 N   0  0  0  0  0  0  0  0  0  0  0  0
    8.7160  -13.3817   19.4030 C   0  0  0  0  0  0  0  0  0  0  0  0
    7.3366  -12.8808   19.6865 C   0  0  0  0  0  0  0  0  0  0  0  0
    7.2793  -13.0179   21.2142 C   0  0  0  0  0  0  0  0  0  0  0  0
    8.4050  -14.0055   21.5720 C   0  0  1  0  0  0  0  0  0  0  0  0
    7.8453  -14.9071   22.5783 C   0  0  0  0  0  0  0  0  0  0  0  0
    6.6662  -15.3267   22.6480 O   0  0  0  0  0  0  0  0  0  0  0  0
    5.6556  -19.1349   22.9113 N   0  0  0  0  0  0  0  0  0  0  0  0
    6.3342  -19.5092   24.0974 C   0  0  0  0  0  0  0  0  0  0  0  0
    5.8471  -20.4150   24.8076 O   0  0  0  0  0  0  0  0  0  0  0  0
    7.5719  -18.8479   24.4757 C   0  0  0  0  0  0  0  0  0  0  0  0
    7.9434  -17.6251   23.7220 C   0  0  0  0  0  0  0  0  0  0  0  0
    8.2913  -16.4218   24.5587 C   0  0  2  0  0  0  0  0  0  0  0  0
    8.7178  -15.3823   23.6152 N   0  0  0  0  0  0  0  0  0  0  0  0
    9.3790  -16.7212   25.5234 C   0  0  0  0  0  0  0  0  0  0  0  0
   10.5764  -16.6385   25.1683 O   0  0  0  0  0  0  0  0  0  0  0  0
    9.0919  -17.0933   26.8209 O   0  0  0  0  0  0  0  0  0  0  0  0
  2  1  1  1
  2  9  1  0
  3  2  1  0
  4  5  2  0
  4  3  1  0
  6  5  1  0
  7  8  2  0
  7  6  1  0
  8  4  1  0
  9 11  1  0
 10  9  2  0
 11 15  1  0
 11 12  1  0
 12 13  1  0
 14 15  1  0
 14 13  1  0
 15 16  1  1
 16 17  2  0
 18 19  1  0
 19 21  1  0
 20 19  2  0
 21 22  1  0
 23 22  1  6
 23 24  1  0
 24 16  1  0
 25 23  1  0
 26 25  2  0
 27 25  1  0
M  END
$$$$
