HPQ.pdb
     RDKit          3D

 27 28  0  0  1  0  0  0  0  0999 V2000
   11.3478  -14.2905   16.6277 N   0  0  0  0  0  0  0  0  0  0  0  0
   10.0139  -14.3223   17.2309 C   0  0  1  0  0  0  0  0  0  0  0  0
    9.3796  -15.5930   16.6660 C   0  0  0  0  0  0  0  0  0  0  0  0
    9.2717  -15.5429   15.2004 C   0  0  0  0  0  0  0  0  0  0  0  0
    8.4520  -14.7988   14.3986 C   0  0  0  0  0  0  0  0  0  0  0  0
    8.7246  -15.1011   13.1154 N   0  0  0  0  0  0  0  0  0  0  0  0
    9.7048  -16.0260   13.0812 C   0  0  0  0  0  0  0  0  0  0  0  0
   10.0253  -16.2833   14.3465 N   0  0  0  0  0  0  0  0  0  0  0  0
   10.0996  -14.3934   18.7049 C   0  0  0  0  0  0  0  0  0  0  0  0
   11.1222  -14.9282   19.2039 O   0  0  0  0  0  0  0  0  0  0  0  0
    9.0912  -13.8905   19.5553 N   0  0  0  0  0  0  0  0  0  0  0  0
    8.1787  -12.8169   19.1128 C   0  0  0  0  0  0  0  0  0  0  0  0
    6.8609  -13.4340   19.4545 C   0  0  0  0  0  0  0  0  0  0  0  0
    7.1697  -14.0533   20.8246 C   0  0  0  0  0  0  0  0  0  0  0  0
    8.7054  -14.1437   20.8884 C   0  0  1  0  0  0  0  0  0  0  0  0
    9.0084  -15.4536   21.4638 C   0  0  0  0  0  0  0  0  0  0  0  0
    8.8483  -16.5737   20.9243 O   0  0  0  0  0  0  0  0  0  0  0  0
   14.0757  -15.6171   20.6494 N   0  0  0  0  0  0  0  0  0  0  0  0
   14.1344  -16.6631   21.6031 C   0  0  0  0  0  0  0  0  0  0  0  0
   15.1655  -17.3672   21.6595 O   0  0  0  0  0  0  0  0  0  0  0  0
   13.0134  -16.9079   22.4953 C   0  0  0  0  0  0  0  0  0  0  0  0
   11.8041  -16.0688   22.3083 C   0  0  0  0  0  0  0  0  0  0  0  0
   10.6151  -16.4372   23.1566 C   0  0  2  0  0  0  0  0  0  0  0  0
    9.5508  -15.4952   22.7928 N   0  0  0  0  0  0  0  0  0  0  0  0
   10.9227  -16.3344   24.6052 C   0  0  0  0  0  0  0  0  0  0  0  0
   10.6273  -15.2966   25.2397 O   0  0  0  0  0  0  0  0  0  0  0  0
   11.5355  -17.3741   25.2744 O   0  0  0  0  0  0  0  0  0  0  0  0
  2  1  1  6
  2  9  1  0
  3  2  1  0
  4  5  2  0
  4  3  1  0
  6  5  1  0
  7  8  2  0
  7  6  1  0
  8  4  1  0
  9 11  1  0
 10  9  2  0
 11 15  1  0
 11 12  1  0
 12 13  1  0
 14 15  1  0
 14 13  1  0
 15 16  1  6
 16 17  2  0
 18 19  1  0
 19 21  1  0
 20 19  2  0
 21 22  1  0
 23 22  1  6
 23 24  1  0
 24 16  1  0
 25 23  1  0
 26 25  2  0
 27 25  1  0
M  END
$$$$
