HPQ.pdb
     RDKit          3D

 27 28  0  0  1  0  0  0  0  0999 V2000
   10.1892  -14.6155   21.1816 N   0  0  0  0  0  0  0  0  0  0  0  0
    8.8886  -14.2803   21.7648 C   0  0  1  0  0  0  0  0  0  0  0  0
    7.8790  -14.9574   20.8382 C   0  0  0  0  0  0  0  0  0  0  0  0
    7.9383  -14.4099   19.4749 C   0  0  0  0  0  0  0  0  0  0  0  0
    8.7834  -13.4844   18.9292 C   0  0  0  0  0  0  0  0  0  0  0  0
    8.4429  -13.3070   17.6389 N   0  0  0  0  0  0  0  0  0  0  0  0
    7.3943  -14.1029   17.3484 C   0  0  0  0  0  0  0  0  0  0  0  0
    7.1004  -14.7627   18.4656 N   0  0  0  0  0  0  0  0  0  0  0  0
    8.7710  -14.8102   23.1398 C   0  0  0  0  0  0  0  0  0  0  0  0
    9.3099  -15.9194   23.3846 O   0  0  0  0  0  0  0  0  0  0  0  0
    8.0874  -14.1257   24.1680 N   0  0  0  0  0  0  0  0  0  0  0  0
    7.7684  -12.6883   24.0531 C   0  0  0  0  0  0  0  0  0  0  0  0
    6.3089  -12.7160   24.3743 C   0  0  0  0  0  0  0  0  0  0  0  0
    6.2816  -13.7089   25.5446 C   0  0  0  0  0  0  0  0  0  0  0  0
    7.6079  -14.4846   25.4452 C   0  0  1  0  0  0  0  0  0  0  0  0
    7.2746  -15.8864   25.6948 C   0  0  0  0  0  0  0  0  0  0  0  0
    6.2835  -16.5188   25.2599 O   0  0  0  0  0  0  0  0  0  0  0  0
    8.9261  -20.0026   22.8831 N   0  0  0  0  0  0  0  0  0  0  0  0
    8.5569  -20.8019   23.9931 C   0  0  0  0  0  0  0  0  0  0  0  0
    8.4911  -22.0412   23.8452 O   0  0  0  0  0  0  0  0  0  0  0  0
    8.2609  -20.1862   25.2760 C   0  0  0  0  0  0  0  0  0  0  0  0
    8.3387  -18.7064   25.3502 C   0  0  0  0  0  0  0  0  0  0  0  0
    8.0015  -18.1003   26.6874 C   0  0  2  0  0  0  0  0  0  0  0  0
    8.1612  -16.6508   26.5266 N   0  0  0  0  0  0  0  0  0  0  0  0
    8.8981  -18.6029   27.7584 C   0  0  0  0  0  0  0  0  0  0  0  0
    9.9321  -17.9671   28.0642 O   0  0  0  0  0  0  0  0  0  0  0  0
    8.6098  -19.7721   28.4324 O   0  0  0  0  0  0  0  0  0  0  0  0
  2  1  1  6
  2  9  1  0
  3  2  1  0
  4  5  2  0
  4  3  1  0
  6  5  1  0
  7  8  2  0
  7  6  1  0
  8  4  1  0
  9 11  1  0
 10  9  2  0
 11 15  1  0
 11 12  1  0
 12 13  1  0
 14 15  1  0
 14 13  1  0
 15 16  1  6
 16 17  2  0
 18 19  1  0
 19 21  1  0
 20 19  2  0
 21 22  1  0
 23 22  1  6
 23 24  1  0
 24 16  1  0
 25 23  1  0
 26 25  2  0
 27 25  1  0
M  END
$$$$
