HPQ.pdb
     RDKit          3D

 27 28  0  0  1  0  0  0  0  0999 V2000
   10.9541  -15.1128   17.4706 N   0  0  0  0  0  0  0  0  0  0  0  0
    9.8245  -14.6506   18.2796 C   0  0  1  0  0  0  0  0  0  0  0  0
    8.6169  -15.3698   17.6790 C   0  0  0  0  0  0  0  0  0  0  0  0
    8.4027  -14.9942   16.2736 C   0  0  0  0  0  0  0  0  0  0  0  0
    8.1057  -13.7814   15.7174 C   0  0  0  0  0  0  0  0  0  0  0  0
    8.0048  -13.9389   14.3843 N   0  0  0  0  0  0  0  0  0  0  0  0
    8.2319  -15.2316   14.0767 C   0  0  0  0  0  0  0  0  0  0  0  0
    8.4707  -15.8568   15.2265 N   0  0  0  0  0  0  0  0  0  0  0  0
   10.0004  -15.0239   19.6991 C   0  0  0  0  0  0  0  0  0  0  0  0
   10.7741  -15.9804   19.9583 O   0  0  0  0  0  0  0  0  0  0  0  0
    9.3418  -14.3551   20.7536 N   0  0  0  0  0  0  0  0  0  0  0  0
    8.7043  -13.0388   20.5485 C   0  0  0  0  0  0  0  0  0  0  0  0
    7.3487  -13.3114   21.1161 C   0  0  0  0  0  0  0  0  0  0  0  0
    7.7092  -14.1213   22.3692 C   0  0  0  0  0  0  0  0  0  0  0  0
    9.1435  -14.6247   22.1240 C   0  0  1  0  0  0  0  0  0  0  0  0
    9.1632  -16.0176   22.5692 C   0  0  0  0  0  0  0  0  0  0  0  0
    8.3955  -16.9400   22.2071 O   0  0  0  0  0  0  0  0  0  0  0  0
   13.7724  -19.9430   23.0032 N   0  0  0  0  0  0  0  0  0  0  0  0
   13.1912  -19.0841   22.0379 C   0  0  0  0  0  0  0  0  0  0  0  0
   13.6372  -19.1037   20.8705 O   0  0  0  0  0  0  0  0  0  0  0  0
   12.0984  -18.1989   22.4049 C   0  0  0  0  0  0  0  0  0  0  0  0
   11.6378  -18.2412   23.8147 C   0  0  0  0  0  0  0  0  0  0  0  0
   10.2274  -17.7703   24.0561 C   0  0  2  0  0  0  0  0  0  0  0  0
   10.1610  -16.4033   23.5272 N   0  0  0  0  0  0  0  0  0  0  0  0
    9.8855  -17.7823   25.5005 C   0  0  0  0  0  0  0  0  0  0  0  0
    9.7336  -16.7058   26.1208 O   0  0  0  0  0  0  0  0  0  0  0  0
    9.7293  -18.9725   26.1812 O   0  0  0  0  0  0  0  0  0  0  0  0
  2  1  1  6
  2  9  1  0
  3  2  1  0
  4  5  2  0
  4  3  1  0
  6  5  1  0
  7  8  2  0
  7  6  1  0
  8  4  1  0
  9 11  1  0
 10  9  2  0
 11 15  1  0
 11 12  1  0
 12 13  1  0
 14 15  1  0
 14 13  1  0
 15 16  1  6
 16 17  2  0
 18 19  1  0
 19 21  1  0
 20 19  2  0
 21 22  1  0
 23 22  1  1
 23 24  1  0
 24 16  1  0
 25 23  1  0
 26 25  2  0
 27 25  1  0
M  END
$$$$
