HPQ.pdb
     RDKit          3D

 27 28  0  0  1  0  0  0  0  0999 V2000
   11.1806  -15.0650   16.7388 N   0  0  0  0  0  0  0  0  0  0  0  0
    9.9315  -14.7246   17.4230 C   0  0  1  0  0  0  0  0  0  0  0  0
    8.9243  -15.7424   16.8884 C   0  0  0  0  0  0  0  0  0  0  0  0
    8.5240  -15.4385   15.5066 C   0  0  0  0  0  0  0  0  0  0  0  0
    8.9033  -14.4181   14.6798 C   0  0  0  0  0  0  0  0  0  0  0  0
    8.2638  -14.5641   13.5042 N   0  0  0  0  0  0  0  0  0  0  0  0
    7.4814  -15.6604   13.5634 C   0  0  0  0  0  0  0  0  0  0  0  0
    7.6484  -16.1781   14.7775 N   0  0  0  0  0  0  0  0  0  0  0  0
   10.0765  -14.8552   18.8884 C   0  0  0  0  0  0  0  0  0  0  0  0
   10.8958  -15.7060   19.3192 O   0  0  0  0  0  0  0  0  0  0  0  0
    9.3403  -14.0715   19.8031 N   0  0  0  0  0  0  0  0  0  0  0  0
    8.7451  -12.7805   19.4029 C   0  0  0  0  0  0  0  0  0  0  0  0
    7.3410  -12.9803   19.8750 C   0  0  0  0  0  0  0  0  0  0  0  0
    7.5781  -13.6525   21.2345 C   0  0  0  0  0  0  0  0  0  0  0  0
    9.0196  -14.1898   21.1718 C   0  0  1  0  0  0  0  0  0  0  0  0
    8.9774  -15.5264   21.7637 C   0  0  0  0  0  0  0  0  0  0  0  0
    8.2456  -16.4845   21.4205 O   0  0  0  0  0  0  0  0  0  0  0  0
   13.1602  -19.3435   26.4442 N   0  0  0  0  0  0  0  0  0  0  0  0
   12.8737  -18.8991   25.1298 C   0  0  0  0  0  0  0  0  0  0  0  0
   13.8179  -18.7649   24.3221 O   0  0  0  0  0  0  0  0  0  0  0  0
   11.5060  -18.6057   24.7350 C   0  0  0  0  0  0  0  0  0  0  0  0
   11.2785  -17.3645   23.9546 C   0  0  0  0  0  0  0  0  0  0  0  0
    9.8537  -17.1046   23.5404 C   0  0  2  0  0  0  0  0  0  0  0  0
    9.8604  -15.8038   22.8617 N   0  0  0  0  0  0  0  0  0  0  0  0
    8.9405  -17.0720   24.7101 C   0  0  0  0  0  0  0  0  0  0  0  0
    8.4988  -15.9802   25.1342 O   0  0  0  0  0  0  0  0  0  0  0  0
    8.5637  -18.2369   25.3469 O   0  0  0  0  0  0  0  0  0  0  0  0
  2  1  1  6
  2  9  1  0
  3  2  1  0
  4  5  2  0
  4  3  1  0
  6  5  1  0
  7  8  2  0
  7  6  1  0
  8  4  1  0
  9 11  1  0
 10  9  2  0
 11 15  1  0
 11 12  1  0
 12 13  1  0
 14 15  1  0
 14 13  1  0
 15 16  1  6
 16 17  2  0
 18 19  1  0
 19 21  1  0
 20 19  2  0
 21 22  1  0
 23 22  1  1
 23 24  1  0
 24 16  1  0
 25 23  1  0
 26 25  2  0
 27 25  1  0
M  END
$$$$
