HPQ.pdb
     RDKit          3D

 27 28  0  0  1  0  0  0  0  0999 V2000
   11.4363  -12.8368   19.3847 N   0  0  0  0  0  0  0  0  0  0  0  0
   10.2840  -13.7004   19.6503 C   0  0  1  0  0  0  0  0  0  0  0  0
   10.5481  -14.9453   18.8038 C   0  0  0  0  0  0  0  0  0  0  0  0
   10.0350  -14.7918   17.4344 C   0  0  0  0  0  0  0  0  0  0  0  0
   10.2445  -13.8002   16.5172 C   0  0  0  0  0  0  0  0  0  0  0  0
    9.5585  -14.1038   15.3994 N   0  0  0  0  0  0  0  0  0  0  0  0
    8.9132  -15.2728   15.5845 C   0  0  0  0  0  0  0  0  0  0  0  0
    9.2098  -15.6766   16.8169 N   0  0  0  0  0  0  0  0  0  0  0  0
   10.2038  -14.0523   21.0838 C   0  0  0  0  0  0  0  0  0  0  0  0
   11.2680  -14.0184   21.7524 O   0  0  0  0  0  0  0  0  0  0  0  0
    8.9955  -14.4181   21.7157 N   0  0  0  0  0  0  0  0  0  0  0  0
    7.6885  -13.9823   21.1837 C   0  0  0  0  0  0  0  0  0  0  0  0
    6.9748  -15.2946   21.1312 C   0  0  0  0  0  0  0  0  0  0  0  0
    7.4119  -15.9234   22.4615 C   0  0  0  0  0  0  0  0  0  0  0  0
    8.6695  -15.1411   22.8823 C   0  0  1  0  0  0  0  0  0  0  0  0
    9.6202  -16.1392   23.3709 C   0  0  0  0  0  0  0  0  0  0  0  0
   10.7981  -16.3183   22.9814 O   0  0  0  0  0  0  0  0  0  0  0  0
    9.8767  -14.7829   29.6248 N   0  0  0  0  0  0  0  0  0  0  0  0
   10.6635  -14.7236   28.4480 C   0  0  0  0  0  0  0  0  0  0  0  0
   11.2272  -13.6470   28.1562 O   0  0  0  0  0  0  0  0  0  0  0  0
   10.8074  -15.8955   27.6004 C   0  0  0  0  0  0  0  0  0  0  0  0
   10.0113  -15.9271   26.3488 C   0  0  0  0  0  0  0  0  0  0  0  0
    9.9926  -17.2448   25.6190 C   0  0  2  0  0  0  0  0  0  0  0  0
    9.1867  -17.0277   24.4123 N   0  0  0  0  0  0  0  0  0  0  0  0
    9.3992  -18.3226   26.4493 C   0  0  0  0  0  0  0  0  0  0  0  0
   10.1346  -19.1818   26.9858 O   0  0  0  0  0  0  0  0  0  0  0  0
    8.0350  -18.3964   26.6441 O   0  0  0  0  0  0  0  0  0  0  0  0
  2  1  1  1
  2  9  1  0
  3  2  1  0
  4  5  2  0
  4  3  1  0
  6  5  1  0
  7  8  2  0
  7  6  1  0
  8  4  1  0
  9 11  1  0
 10  9  2  0
 11 15  1  0
 11 12  1  0
 12 13  1  0
 14 15  1  0
 14 13  1  0
 15 16  1  6
 16 17  2  0
 18 19  1  0
 19 21  1  0
 20 19  2  0
 21 22  1  0
 23 22  1  1
 23 24  1  0
 24 16  1  0
 25 23  1  0
 26 25  2  0
 27 25  1  0
M  END
$$$$
