FSM.pdb
     RDKit          3D

 26 26  0  0  1  0  0  0  0  0999 V2000
   17.9960  -12.0604  -13.9087 N   0  0  0  0  0  0  0  0  0  0  0  0
   17.0995  -10.9181  -13.9754 C   0  0  1  0  0  0  0  0  0  0  0  0
   15.7161  -11.4623  -13.8397 C   0  0  0  0  0  0  0  0  0  0  0  0
   15.1572  -12.1517  -14.9838 C   0  0  0  0  0  0  0  0  0  0  0  0
   14.9033  -13.5145  -15.0312 C   0  0  0  0  0  0  0  0  0  0  0  0
   14.3694  -14.0939  -16.1504 C   0  0  0  0  0  0  0  0  0  0  0  0
   14.0612  -13.3649  -17.2703 C   0  0  0  0  0  0  0  0  0  0  0  0
   14.3086  -12.0166  -17.2331 C   0  0  0  0  0  0  0  0  0  0  0  0
   14.8478  -11.4135  -16.1107 C   0  0  0  0  0  0  0  0  0  0  0  0
   17.4265  -10.0282  -12.8385 C   0  0  0  0  0  0  0  0  0  0  0  0
   17.7352  -10.5177  -11.6998 O   0  0  0  0  0  0  0  0  0  0  0  0
   17.5649   -5.9426  -13.5604 O   0  0  0  0  0  0  0  0  0  0  0  0
   18.3345   -6.4171  -12.5203 C   0  0  0  0  0  0  0  0  0  0  0  0
   17.7236   -7.6947  -11.9301 C   0  0  2  0  0  0  0  0  0  0  0  0
   17.4071   -8.6334  -12.9765 N   0  0  0  0  0  0  0  0  0  0  0  0
   16.4549   -7.2454  -11.2662 C   0  0  0  0  0  0  0  0  0  0  0  0
   15.3881   -7.2857  -11.9253 O   0  0  0  0  0  0  0  0  0  0  0  0
   11.5572   -6.6084   -5.3746 C   0  0  0  0  0  0  0  0  0  0  0  0
   12.9987   -7.4265   -6.1450 S   0  0  0  0  0  0  0  0  0  0  0  0
   13.5792   -6.3874   -7.5335 C   0  0  0  0  0  0  0  0  0  0  0  0
   14.7514   -7.0087   -8.2140 C   0  0  0  0  0  0  0  0  0  0  0  0
   15.2447   -6.1761   -9.3566 C   0  0  2  0  0  0  0  0  0  0  0  0
   16.4380   -6.7873   -9.9424 N   0  0  0  0  0  0  0  0  0  0  0  0
   15.6154   -4.8116   -8.9383 C   0  0  0  0  0  0  0  0  0  0  0  0
   14.6194   -3.8405   -8.7236 O   0  0  0  0  0  0  0  0  0  0  0  0
   16.7889   -4.4081   -8.7439 O   0  0  0  0  0  0  0  0  0  0  0  0
  2 10  1  0
  2  1  1  1
  3  2  1  0
  4  3  1  0
  5  4  2  0
  6  5  1  0
  7  6  2  0
  7  8  1  0
  8  9  2  0
  9  4  1  0
 10 11  2  0
 13 12  1  0
 14 13  1  6
 15 14  1  0
 15 10  1  0
 16 14  1  0
 17 16  2  0
 18 19  1  0
 19 20  1  0
 20 21  1  0
 22 21  1  1
 22 23  1  0
 23 16  1  0
 24 22  1  0
 24 25  1  0
 26 24  2  0
M  END
$$$$
