FSM.pdb
     RDKit          3D

 26 26  0  0  1  0  0  0  0  0999 V2000
   23.4058  -21.2265  -14.5221 N   0  0  0  0  0  0  0  0  0  0  0  0
   23.2373  -20.4399  -13.3113 C   0  0  1  0  0  0  0  0  0  0  0  0
   21.7694  -20.3900  -13.0445 C   0  0  0  0  0  0  0  0  0  0  0  0
   20.9363  -19.7319  -14.0290 C   0  0  0  0  0  0  0  0  0  0  0  0
   20.1700  -20.3940  -14.9768 C   0  0  0  0  0  0  0  0  0  0  0  0
   19.4038  -19.7003  -15.8741 C   0  0  0  0  0  0  0  0  0  0  0  0
   19.3546  -18.3299  -15.8821 C   0  0  0  0  0  0  0  0  0  0  0  0
   20.1088  -17.6662  -14.9487 C   0  0  0  0  0  0  0  0  0  0  0  0
   20.8893  -18.3504  -14.0339 C   0  0  0  0  0  0  0  0  0  0  0  0
   23.9446  -21.1461  -12.2193 C   0  0  0  0  0  0  0  0  0  0  0  0
   23.4188  -22.1667  -11.6596 O   0  0  0  0  0  0  0  0  0  0  0  0
   27.9251  -20.8365  -12.0342 O   0  0  0  0  0  0  0  0  0  0  0  0
   27.3260  -21.8352  -11.2973 C   0  0  0  0  0  0  0  0  0  0  0  0
   25.9756  -21.3654  -10.7409 C   0  0  2  0  0  0  0  0  0  0  0  0
   25.2023  -20.7192  -11.7706 N   0  0  0  0  0  0  0  0  0  0  0  0
   26.3227  -20.3636   -9.6787 C   0  0  0  0  0  0  0  0  0  0  0  0
   26.1383  -19.1465   -9.9211 O   0  0  0  0  0  0  0  0  0  0  0  0
   26.6844  -19.7524   -3.4652 C   0  0  0  0  0  0  0  0  0  0  0  0
   28.4279  -19.2831   -3.7495 S   0  0  0  0  0  0  0  0  0  0  0  0
   28.7336  -19.2596   -5.5525 C   0  0  0  0  0  0  0  0  0  0  0  0
   27.6645  -19.9950   -6.2867 C   0  0  0  0  0  0  0  0  0  0  0  0
   27.8902  -19.9853   -7.7671 C   0  0  2  0  0  0  0  0  0  0  0  0
   26.8422  -20.7550   -8.4380 N   0  0  0  0  0  0  0  0  0  0  0  0
   29.1818  -20.5897   -8.1422 C   0  0  0  0  0  0  0  0  0  0  0  0
   29.2836  -21.9795   -8.3396 O   0  0  0  0  0  0  0  0  0  0  0  0
   30.2540  -19.9580   -8.3126 O   0  0  0  0  0  0  0  0  0  0  0  0
  2 10  1  0
  2  1  1  6
  3  2  1  0
  4  3  1  0
  5  4  2  0
  6  5  1  0
  7  6  2  0
  7  8  1  0
  8  9  2  0
  9  4  1  0
 10 11  2  0
 13 12  1  0
 14 13  1  6
 15 14  1  0
 15 10  1  0
 16 14  1  0
 17 16  2  0
 18 19  1  0
 19 20  1  0
 20 21  1  0
 22 21  1  1
 22 23  1  0
 23 16  1  0
 24 22  1  0
 24 25  1  0
 26 24  2  0
M  END
$$$$
