FSM.pdb
     RDKit          3D

 26 26  0  0  1  0  0  0  0  0999 V2000
   24.5713  -21.2464  -10.6273 N   0  0  0  0  0  0  0  0  0  0  0  0
   25.4333  -20.2299  -11.2077 C   0  0  1  0  0  0  0  0  0  0  0  0
   26.7475  -20.3460  -10.5093 C   0  0  0  0  0  0  0  0  0  0  0  0
   26.7996  -19.9457   -9.1188 C   0  0  0  0  0  0  0  0  0  0  0  0
   26.7773  -18.6301   -8.6799 C   0  0  0  0  0  0  0  0  0  0  0  0
   26.8268  -18.3309   -7.3452 C   0  0  0  0  0  0  0  0  0  0  0  0
   26.9000  -19.3058   -6.3835 C   0  0  0  0  0  0  0  0  0  0  0  0
   26.9225  -20.6097   -6.8075 C   0  0  0  0  0  0  0  0  0  0  0  0
   26.8733  -20.9312   -8.1524 C   0  0  0  0  0  0  0  0  0  0  0  0
   25.5767  -20.5372  -12.6487 C   0  0  0  0  0  0  0  0  0  0  0  0
   25.5776  -21.7476  -13.0566 O   0  0  0  0  0  0  0  0  0  0  0  0
   26.1105  -17.3376  -15.1513 O   0  0  0  0  0  0  0  0  0  0  0  0
   25.6186  -18.4503  -15.7987 C   0  0  0  0  0  0  0  0  0  0  0  0
   25.9392  -19.7257  -15.0085 C   0  0  2  0  0  0  0  0  0  0  0  0
   25.7147  -19.5174  -13.6005 N   0  0  0  0  0  0  0  0  0  0  0  0
   27.4004  -19.9710  -15.2470 C   0  0  0  0  0  0  0  0  0  0  0  0
   28.1566  -18.9811  -15.3967 O   0  0  0  0  0  0  0  0  0  0  0  0
   31.5834  -22.1150  -11.3604 C   0  0  0  0  0  0  0  0  0  0  0  0
   31.9409  -23.2624  -12.7375 S   0  0  0  0  0  0  0  0  0  0  0  0
   31.3296  -22.5117  -14.2890 C   0  0  0  0  0  0  0  0  0  0  0  0
   29.8745  -22.2002  -14.1965 C   0  0  0  0  0  0  0  0  0  0  0  0
   29.3697  -21.5026  -15.4217 C   0  0  2  0  0  0  0  0  0  0  0  0
   27.9304  -21.2664  -15.3056 N   0  0  0  0  0  0  0  0  0  0  0  0
   29.5833  -22.2946  -16.6470 C   0  0  0  0  0  0  0  0  0  0  0  0
   30.8005  -22.2025  -17.3477 O   0  0  0  0  0  0  0  0  0  0  0  0
   28.7472  -23.0830  -17.1538 O   0  0  0  0  0  0  0  0  0  0  0  0
  2 10  1  0
  2  1  1  1
  3  2  1  0
  4  3  1  0
  5  4  2  0
  6  5  1  0
  7  6  2  0
  7  8  1  0
  8  9  2  0
  9  4  1  0
 10 11  2  0
 13 12  1  0
 14 13  1  6
 15 14  1  0
 15 10  1  0
 16 14  1  0
 17 16  2  0
 18 19  1  0
 19 20  1  0
 20 21  1  0
 22 21  1  1
 22 23  1  0
 23 16  1  0
 24 22  1  0
 24 25  1  0
 26 24  2  0
M  END
$$$$
