FSM.pdb
     RDKit          3D

 26 26  0  0  1  0  0  0  0  0999 V2000
   28.6674  -21.0888   -9.1673 N   0  0  0  0  0  0  0  0  0  0  0  0
   27.2552  -20.7876   -8.9996 C   0  0  1  0  0  0  0  0  0  0  0  0
   27.1845  -19.5897   -8.1116 C   0  0  0  0  0  0  0  0  0  0  0  0
   27.7084  -19.7253   -6.7686 C   0  0  0  0  0  0  0  0  0  0  0  0
   28.9192  -19.1999   -6.3423 C   0  0  0  0  0  0  0  0  0  0  0  0
   29.3458  -19.3677   -5.0526 C   0  0  0  0  0  0  0  0  0  0  0  0
   28.6062  -20.0564   -4.1256 C   0  0  0  0  0  0  0  0  0  0  0  0
   27.4075  -20.5796   -4.5376 C   0  0  0  0  0  0  0  0  0  0  0  0
   26.9600  -20.4200   -5.8371 C   0  0  0  0  0  0  0  0  0  0  0  0
   26.7032  -20.4807  -10.3385 C   0  0  0  0  0  0  0  0  0  0  0  0
   27.4107  -19.8660  -11.2062 O   0  0  0  0  0  0  0  0  0  0  0  0
   25.2973  -22.8077  -12.7708 O   0  0  0  0  0  0  0  0  0  0  0  0
   25.4418  -21.4674  -13.0573 C   0  0  0  0  0  0  0  0  0  0  0  0
   24.7856  -20.6050  -11.9712 C   0  0  2  0  0  0  0  0  0  0  0  0
   25.3983  -20.8526  -10.6909 N   0  0  0  0  0  0  0  0  0  0  0  0
   23.3547  -21.0558  -11.9319 C   0  0  0  0  0  0  0  0  0  0  0  0
   22.7957  -21.1758  -10.8151 O   0  0  0  0  0  0  0  0  0  0  0  0
   20.9169  -16.6863  -12.2846 C   0  0  0  0  0  0  0  0  0  0  0  0
   19.3019  -17.4204  -12.7244 S   0  0  0  0  0  0  0  0  0  0  0  0
   19.5481  -19.2017  -13.0577 C   0  0  0  0  0  0  0  0  0  0  0  0
   20.9898  -19.5701  -12.9633 C   0  0  0  0  0  0  0  0  0  0  0  0
   21.2167  -21.0263  -13.2290 C   0  0  2  0  0  0  0  0  0  0  0  0
   22.6397  -21.3421  -13.1021 N   0  0  0  0  0  0  0  0  0  0  0  0
   20.8030  -21.4203  -14.5884 C   0  0  0  0  0  0  0  0  0  0  0  0
   19.5062  -21.9161  -14.8192 O   0  0  0  0  0  0  0  0  0  0  0  0
   21.5271  -21.3543  -15.6126 O   0  0  0  0  0  0  0  0  0  0  0  0
  2 10  1  0
  2  1  1  6
  3  2  1  0
  4  3  1  0
  5  4  2  0
  6  5  1  0
  7  6  2  0
  7  8  1  0
  8  9  2  0
  9  4  1  0
 10 11  2  0
 13 12  1  0
 14 13  1  6
 15 14  1  0
 15 10  1  0
 16 14  1  0
 17 16  2  0
 18 19  1  0
 19 20  1  0
 20 21  1  0
 22 21  1  6
 22 23  1  0
 23 16  1  0
 24 22  1  0
 24 25  1  0
 26 24  2  0
M  END
$$$$
