FSM.pdb
     RDKit          3D

 26 26  0  0  1  0  0  0  0  0999 V2000
   25.1159  -18.3851  -15.2937 N   0  0  0  0  0  0  0  0  0  0  0  0
   26.1724  -18.5711  -14.3128 C   0  0  1  0  0  0  0  0  0  0  0  0
   26.9121  -17.2764  -14.2426 C   0  0  0  0  0  0  0  0  0  0  0  0
   27.7734  -16.9410  -15.3571 C   0  0  0  0  0  0  0  0  0  0  0  0
   28.6762  -17.8167  -15.9420 C   0  0  0  0  0  0  0  0  0  0  0  0
   29.4555  -17.4258  -16.9972 C   0  0  0  0  0  0  0  0  0  0  0  0
   29.3845  -16.1620  -17.5249 C   0  0  0  0  0  0  0  0  0  0  0  0
   28.4948  -15.2889  -16.9534 C   0  0  0  0  0  0  0  0  0  0  0  0
   27.6990  -15.6663  -15.8864 C   0  0  0  0  0  0  0  0  0  0  0  0
   25.5275  -18.8770  -13.0159 C   0  0  0  0  0  0  0  0  0  0  0  0
   24.4543  -18.2780  -12.6681 O   0  0  0  0  0  0  0  0  0  0  0  0
   25.4143  -22.5176  -11.5023 O   0  0  0  0  0  0  0  0  0  0  0  0
   24.6497  -21.4751  -11.0250 C   0  0  0  0  0  0  0  0  0  0  0  0
   25.4964  -20.2048  -10.8724 C   0  0  2  0  0  0  0  0  0  0  0  0
   26.0708  -19.8254  -12.1381 N   0  0  0  0  0  0  0  0  0  0  0  0
   26.5949  -20.5843   -9.9228 C   0  0  0  0  0  0  0  0  0  0  0  0
   27.3068  -21.5799  -10.1988 O   0  0  0  0  0  0  0  0  0  0  0  0
   27.5554  -17.4874   -4.0086 C   0  0  0  0  0  0  0  0  0  0  0  0
   28.9055  -18.7092   -4.1659 S   0  0  0  0  0  0  0  0  0  0  0  0
   28.3671  -20.0201   -5.3220 C   0  0  0  0  0  0  0  0  0  0  0  0
   27.9226  -19.4391   -6.6212 C   0  0  0  0  0  0  0  0  0  0  0  0
   27.4216  -20.4887   -7.5645 C   0  0  2  0  0  0  0  0  0  0  0  0
   26.8381  -19.8590   -8.7493 N   0  0  0  0  0  0  0  0  0  0  0  0
   26.3747  -21.3332   -6.9603 C   0  0  0  0  0  0  0  0  0  0  0  0
   25.0164  -21.0773   -7.2256 O   0  0  0  0  0  0  0  0  0  0  0  0
   26.5830  -22.3072   -6.1950 O   0  0  0  0  0  0  0  0  0  0  0  0
  2 10  1  0
  2  1  1  6
  3  2  1  0
  4  3  1  0
  5  4  2  0
  6  5  1  0
  7  6  2  0
  7  8  1  0
  8  9  2  0
  9  4  1  0
 10 11  2  0
 13 12  1  0
 14 13  1  6
 15 14  1  0
 15 10  1  0
 16 14  1  0
 17 16  2  0
 18 19  1  0
 19 20  1  0
 20 21  1  0
 22 21  1  1
 22 23  1  0
 23 16  1  0
 24 22  1  0
 24 25  1  0
 26 24  2  0
M  END
$$$$
