FSM.pdb
     RDKit          3D

 26 26  0  0  1  0  0  0  0  0999 V2000
   23.9464  -19.2441  -18.6048 N   0  0  0  0  0  0  0  0  0  0  0  0
   24.9318  -18.6606  -17.7095 C   0  0  1  0  0  0  0  0  0  0  0  0
   24.3838  -17.3377  -17.2876 C   0  0  0  0  0  0  0  0  0  0  0  0
   24.4581  -16.2517  -18.2423 C   0  0  0  0  0  0  0  0  0  0  0  0
   25.6194  -15.5609  -18.5556 C   0  0  0  0  0  0  0  0  0  0  0  0
   25.6103  -14.5456  -19.4735 C   0  0  0  0  0  0  0  0  0  0  0  0
   24.4650  -14.1632  -20.1236 C   0  0  0  0  0  0  0  0  0  0  0  0
   23.3116  -14.8402  -19.8206 C   0  0  0  0  0  0  0  0  0  0  0  0
   23.3017  -15.8691  -18.8956 C   0  0  0  0  0  0  0  0  0  0  0  0
   25.0685  -19.5662  -16.5465 C   0  0  0  0  0  0  0  0  0  0  0  0
   24.0819  -20.2801  -16.1611 O   0  0  0  0  0  0  0  0  0  0  0  0
   28.5080  -19.3080  -14.2953 O   0  0  0  0  0  0  0  0  0  0  0  0
   28.0088  -20.5895  -14.3830 C   0  0  0  0  0  0  0  0  0  0  0  0
   26.5175  -20.5690  -14.7428 C   0  0  2  0  0  0  0  0  0  0  0  0
   26.2747  -19.6665  -15.8393 N   0  0  0  0  0  0  0  0  0  0  0  0
   25.8304  -20.0518  -13.5129 C   0  0  0  0  0  0  0  0  0  0  0  0
   25.2362  -18.9487  -13.5788 O   0  0  0  0  0  0  0  0  0  0  0  0
   20.9110  -18.6276  -12.1860 C   0  0  0  0  0  0  0  0  0  0  0  0
   21.0638  -19.6657  -10.6894 S   0  0  0  0  0  0  0  0  0  0  0  0
   22.8365  -19.8066  -10.2622 C   0  0  0  0  0  0  0  0  0  0  0  0
   23.6512  -20.1502  -11.4627 C   0  0  0  0  0  0  0  0  0  0  0  0
   25.1043  -20.2985  -11.1325 C   0  0  2  0  0  0  0  0  0  0  0  0
   25.8392  -20.7663  -12.3080 N   0  0  0  0  0  0  0  0  0  0  0  0
   25.3383  -21.2774  -10.0549 C   0  0  0  0  0  0  0  0  0  0  0  0
   25.8372  -22.5584  -10.3568 O   0  0  0  0  0  0  0  0  0  0  0  0
   25.1276  -21.0733   -8.8336 O   0  0  0  0  0  0  0  0  0  0  0  0
  2 10  1  0
  2  1  1  6
  3  2  1  0
  4  3  1  0
  5  4  2  0
  6  5  1  0
  7  6  2  0
  7  8  1  0
  8  9  2  0
  9  4  1  0
 10 11  2  0
 13 12  1  0
 14 13  1  1
 15 14  1  0
 15 10  1  0
 16 14  1  0
 17 16  2  0
 18 19  1  0
 19 20  1  0
 20 21  1  0
 22 21  1  6
 22 23  1  0
 23 16  1  0
 24 22  1  0
 24 25  1  0
 26 24  2  0
M  END
$$$$
