FSM.pdb
     RDKit          3D

 26 26  0  0  1  0  0  0  0  0999 V2000
   22.2265  -21.3115  -14.2033 N   0  0  0  0  0  0  0  0  0  0  0  0
   21.6660  -20.5460  -13.1020 C   0  0  1  0  0  0  0  0  0  0  0  0
   20.3472  -20.0324  -13.5767 C   0  0  0  0  0  0  0  0  0  0  0  0
   20.3574  -19.0827  -14.6696 C   0  0  0  0  0  0  0  0  0  0  0  0
   21.1256  -17.9282  -14.6983 C   0  0  0  0  0  0  0  0  0  0  0  0
   21.0833  -17.0794  -15.7713 C   0  0  0  0  0  0  0  0  0  0  0  0
   20.2880  -17.3241  -16.8614 C   0  0  0  0  0  0  0  0  0  0  0  0
   19.5248  -18.4633  -16.8423 C   0  0  0  0  0  0  0  0  0  0  0  0
   19.5546  -19.3329  -15.7666 C   0  0  0  0  0  0  0  0  0  0  0  0
   21.4878  -21.4722  -11.9610 C   0  0  0  0  0  0  0  0  0  0  0  0
   21.0992  -22.6734  -12.1554 O   0  0  0  0  0  0  0  0  0  0  0  0
   22.3502  -19.9733   -8.2579 O   0  0  0  0  0  0  0  0  0  0  0  0
   22.4359  -21.3475   -8.3179 C   0  0  0  0  0  0  0  0  0  0  0  0
   21.5934  -21.8950   -9.4773 C   0  0  2  0  0  0  0  0  0  0  0  0
   21.7379  -21.0621  -10.6441 N   0  0  0  0  0  0  0  0  0  0  0  0
   20.1753  -21.8259   -8.9909 C   0  0  0  0  0  0  0  0  0  0  0  0
   19.3781  -21.0559   -9.5789 O   0  0  0  0  0  0  0  0  0  0  0  0
   16.8456  -25.0953  -12.3035 C   0  0  0  0  0  0  0  0  0  0  0  0
   17.3466  -26.0953  -10.8580 S   0  0  0  0  0  0  0  0  0  0  0  0
   17.2743  -25.0359   -9.3690 C   0  0  0  0  0  0  0  0  0  0  0  0
   18.5461  -24.2791   -9.1877 C   0  0  0  0  0  0  0  0  0  0  0  0
   18.5049  -23.3906   -7.9831 C   0  0  2  0  0  0  0  0  0  0  0  0
   19.7296  -22.5936   -7.9072 N   0  0  0  0  0  0  0  0  0  0  0  0
   18.4038  -24.1537   -6.7254 C   0  0  0  0  0  0  0  0  0  0  0  0
   17.1547  -24.3293   -6.1010 O   0  0  0  0  0  0  0  0  0  0  0  0
   19.3678  -24.6904   -6.1253 O   0  0  0  0  0  0  0  0  0  0  0  0
  2 10  1  0
  2  1  1  6
  3  2  1  0
  4  3  1  0
  5  4  2  0
  6  5  1  0
  7  6  2  0
  7  8  1  0
  8  9  2  0
  9  4  1  0
 10 11  2  0
 13 12  1  0
 14 13  1  1
 15 14  1  0
 15 10  1  0
 16 14  1  0
 17 16  2  0
 18 19  1  0
 19 20  1  0
 20 21  1  0
 22 21  1  6
 22 23  1  0
 23 16  1  0
 24 22  1  0
 24 25  1  0
 26 24  2  0
M  END
$$$$
