FSM.pdb
     RDKit          3D

 26 26  0  0  1  0  0  0  0  0999 V2000
   28.8618  -21.5104   -9.3101 N   0  0  0  0  0  0  0  0  0  0  0  0
   27.4777  -21.1480   -9.0530 C   0  0  1  0  0  0  0  0  0  0  0  0
   27.5126  -19.8303   -8.3524 C   0  0  0  0  0  0  0  0  0  0  0  0
   27.9377  -19.8238   -6.9683 C   0  0  0  0  0  0  0  0  0  0  0  0
   27.0754  -19.8703   -5.8827 C   0  0  0  0  0  0  0  0  0  0  0  0
   27.5547  -19.8639   -4.6006 C   0  0  0  0  0  0  0  0  0  0  0  0
   28.8973  -19.8120   -4.3262 C   0  0  0  0  0  0  0  0  0  0  0  0
   29.7578  -19.7658   -5.3930 C   0  0  0  0  0  0  0  0  0  0  0  0
   29.2917  -19.7715   -6.6957 C   0  0  0  0  0  0  0  0  0  0  0  0
   26.7982  -21.0272  -10.3626 C   0  0  0  0  0  0  0  0  0  0  0  0
   27.4404  -20.6280  -11.3920 O   0  0  0  0  0  0  0  0  0  0  0  0
   22.6248  -20.9164  -10.7200 O   0  0  0  0  0  0  0  0  0  0  0  0
   23.2747  -21.8066  -11.5473 C   0  0  0  0  0  0  0  0  0  0  0  0
   24.7328  -21.3819  -11.7651 C   0  0  2  0  0  0  0  0  0  0  0  0
   25.4409  -21.3448  -10.5108 N   0  0  0  0  0  0  0  0  0  0  0  0
   24.6508  -19.9939  -12.3299 C   0  0  0  0  0  0  0  0  0  0  0  0
   25.2022  -19.0587  -11.7010 O   0  0  0  0  0  0  0  0  0  0  0  0
   28.9164  -18.8785  -14.6614 C   0  0  0  0  0  0  0  0  0  0  0  0
   28.1369  -18.0409  -16.0868 S   0  0  0  0  0  0  0  0  0  0  0  0
   26.3602  -17.8091  -15.7203 C   0  0  0  0  0  0  0  0  0  0  0  0
   25.8742  -18.8353  -14.7539 C   0  0  0  0  0  0  0  0  0  0  0  0
   24.4211  -18.6641  -14.4354 C   0  0  2  0  0  0  0  0  0  0  0  0
   23.9793  -19.7248  -13.5295 N   0  0  0  0  0  0  0  0  0  0  0  0
   23.5703  -18.7363  -15.6376 C   0  0  0  0  0  0  0  0  0  0  0  0
   23.0949  -19.9791  -16.0963 O   0  0  0  0  0  0  0  0  0  0  0  0
   23.2083  -17.7514  -16.3280 O   0  0  0  0  0  0  0  0  0  0  0  0
  2 10  1  0
  2  1  1  6
  3  2  1  0
  4  3  1  0
  5  4  2  0
  6  5  1  0
  7  6  2  0
  7  8  1  0
  8  9  2  0
  9  4  1  0
 10 11  2  0
 13 12  1  0
 14 13  1  1
 15 14  1  0
 15 10  1  0
 16 14  1  0
 17 16  2  0
 18 19  1  0
 19 20  1  0
 20 21  1  0
 22 21  1  6
 22 23  1  0
 23 16  1  0
 24 22  1  0
 24 25  1  0
 26 24  2  0
M  END
$$$$
