FSM.pdb
     RDKit          3D

 26 26  0  0  1  0  0  0  0  0999 V2000
   21.9145  -13.1299  -16.7945 N   0  0  0  0  0  0  0  0  0  0  0  0
   22.4895  -11.8232  -16.5207 C   0  0  1  0  0  0  0  0  0  0  0  0
   23.4768  -11.5629  -17.6097 C   0  0  0  0  0  0  0  0  0  0  0  0
   24.6304  -12.4348  -17.6842 C   0  0  0  0  0  0  0  0  0  0  0  0
   25.6860  -12.4175  -16.7846 C   0  0  0  0  0  0  0  0  0  0  0  0
   26.7423  -13.2774  -16.9200 C   0  0  0  0  0  0  0  0  0  0  0  0
   26.8105  -14.1905  -17.9410 C   0  0  0  0  0  0  0  0  0  0  0  0
   25.7715  -14.2152  -18.8356 C   0  0  0  0  0  0  0  0  0  0  0  0
   24.6955  -13.3538  -18.7146 C   0  0  0  0  0  0  0  0  0  0  0  0
   21.3887  -10.8343  -16.5640 C   0  0  0  0  0  0  0  0  0  0  0  0
   20.6442  -10.7375  -17.5973 O   0  0  0  0  0  0  0  0  0  0  0  0
   21.1159   -8.2859  -13.3797 O   0  0  0  0  0  0  0  0  0  0  0  0
   19.9106   -8.4385  -14.0303 C   0  0  0  0  0  0  0  0  0  0  0  0
   20.1252   -8.9519  -15.4600 C   0  0  2  0  0  0  0  0  0  0  0  0
   21.1328   -9.9817  -15.4811 N   0  0  0  0  0  0  0  0  0  0  0  0
   20.6171   -7.7605  -16.2287 C   0  0  0  0  0  0  0  0  0  0  0  0
   21.8552   -7.5845  -16.3315 O   0  0  0  0  0  0  0  0  0  0  0  0
   19.1293   -4.4119  -22.7481 C   0  0  0  0  0  0  0  0  0  0  0  0
   18.4072   -4.5045  -21.0716 S   0  0  0  0  0  0  0  0  0  0  0  0
   19.7203   -5.0109  -19.9037 C   0  0  0  0  0  0  0  0  0  0  0  0
   19.1664   -5.2300  -18.5369 C   0  0  0  0  0  0  0  0  0  0  0  0
   20.2153   -5.6897  -17.5721 C   0  0  2  0  0  0  0  0  0  0  0  0
   19.7334   -6.8523  -16.8257 N   0  0  0  0  0  0  0  0  0  0  0  0
   20.5630   -4.6519  -16.5840 C   0  0  0  0  0  0  0  0  0  0  0  0
   20.0580   -4.7240  -15.2723 O   0  0  0  0  0  0  0  0  0  0  0  0
   21.3019   -3.6606  -16.8055 O   0  0  0  0  0  0  0  0  0  0  0  0
  2 10  1  0
  2  1  1  6
  3  2  1  0
  4  3  1  0
  5  4  2  0
  6  5  1  0
  7  6  2  0
  7  8  1  0
  8  9  2  0
  9  4  1  0
 10 11  2  0
 13 12  1  0
 14 13  1  1
 15 14  1  0
 15 10  1  0
 16 14  1  0
 17 16  2  0
 18 19  1  0
 19 20  1  0
 20 21  1  0
 22 21  1  6
 22 23  1  0
 23 16  1  0
 24 22  1  0
 24 25  1  0
 26 24  2  0
M  END
$$$$
