FSM.pdb
     RDKit          3D

 26 26  0  0  1  0  0  0  0  0999 V2000
   22.7883  -19.7833  -17.8162 N   0  0  0  0  0  0  0  0  0  0  0  0
   23.3557  -18.8927  -16.8172 C   0  0  1  0  0  0  0  0  0  0  0  0
   22.2005  -18.2838  -16.0938 C   0  0  0  0  0  0  0  0  0  0  0  0
   21.4130  -17.2999  -16.8067 C   0  0  0  0  0  0  0  0  0  0  0  0
   21.9369  -16.1744  -17.4253 C   0  0  0  0  0  0  0  0  0  0  0  0
   21.1262  -15.2900  -18.0843 C   0  0  0  0  0  0  0  0  0  0  0  0
   19.7691  -15.4693  -18.1661 C   0  0  0  0  0  0  0  0  0  0  0  0
   19.2416  -16.5793  -17.5577 C   0  0  0  0  0  0  0  0  0  0  0  0
   20.0454  -17.4841  -16.8872 C   0  0  0  0  0  0  0  0  0  0  0  0
   24.1735  -19.7167  -15.8988 C   0  0  0  0  0  0  0  0  0  0  0  0
   23.7066  -20.8007  -15.4104 O   0  0  0  0  0  0  0  0  0  0  0  0
   27.8549  -18.2186  -14.6545 O   0  0  0  0  0  0  0  0  0  0  0  0
   27.7895  -19.5878  -14.7961 C   0  0  0  0  0  0  0  0  0  0  0  0
   26.3423  -20.0799  -14.6647 C   0  0  2  0  0  0  0  0  0  0  0  0
   25.4740  -19.3352  -15.5407 N   0  0  0  0  0  0  0  0  0  0  0  0
   25.9670  -19.8002  -13.2388 C   0  0  0  0  0  0  0  0  0  0  0  0
   25.4686  -18.6832  -12.9595 O   0  0  0  0  0  0  0  0  0  0  0  0
   22.2964  -21.3034   -6.7983 C   0  0  0  0  0  0  0  0  0  0  0  0
   22.7113  -21.7609   -8.5186 S   0  0  0  0  0  0  0  0  0  0  0  0
   24.2678  -20.9194   -8.9812 C   0  0  0  0  0  0  0  0  0  0  0  0
   24.5994  -21.1571  -10.4152 C   0  0  0  0  0  0  0  0  0  0  0  0
   25.8542  -20.4509  -10.8267 C   0  0  2  0  0  0  0  0  0  0  0  0
   26.1599  -20.7488  -12.2262 N   0  0  0  0  0  0  0  0  0  0  0  0
   27.0213  -20.8682  -10.0280 C   0  0  0  0  0  0  0  0  0  0  0  0
   27.2518  -20.3022   -8.7601 O   0  0  0  0  0  0  0  0  0  0  0  0
   27.8729  -21.7208  -10.3821 O   0  0  0  0  0  0  0  0  0  0  0  0
  2 10  1  0
  2  1  1  6
  3  2  1  0
  4  3  1  0
  5  4  2  0
  6  5  1  0
  7  6  2  0
  7  8  1  0
  8  9  2  0
  9  4  1  0
 10 11  2  0
 13 12  1  0
 14 13  1  1
 15 14  1  0
 15 10  1  0
 16 14  1  0
 17 16  2  0
 18 19  1  0
 19 20  1  0
 20 21  1  0
 22 21  1  1
 22 23  1  0
 23 16  1  0
 24 22  1  0
 24 25  1  0
 26 24  2  0
M  END
$$$$
