FSM.pdb
     RDKit          3D

 26 26  0  0  1  0  0  0  0  0999 V2000
   19.3502  -21.7693  -16.5987 N   0  0  0  0  0  0  0  0  0  0  0  0
   20.2926  -20.6703  -16.4674 C   0  0  1  0  0  0  0  0  0  0  0  0
   19.6956  -19.7215  -15.4817 C   0  0  0  0  0  0  0  0  0  0  0  0
   18.5049  -19.0038  -15.8862 C   0  0  0  0  0  0  0  0  0  0  0  0
   17.2150  -19.3505  -15.5120 C   0  0  0  0  0  0  0  0  0  0  0  0
   16.1377  -18.6189  -15.9334 C   0  0  0  0  0  0  0  0  0  0  0  0
   16.2765  -17.5174  -16.7384 C   0  0  0  0  0  0  0  0  0  0  0  0
   17.5479  -17.1666  -17.1137 C   0  0  0  0  0  0  0  0  0  0  0  0
   18.6488  -17.8941  -16.6976 C   0  0  0  0  0  0  0  0  0  0  0  0
   21.5620  -21.2313  -15.9522 C   0  0  0  0  0  0  0  0  0  0  0  0
   21.5523  -22.1407  -15.0553 O   0  0  0  0  0  0  0  0  0  0  0  0
   25.4673  -20.0032  -17.4828 O   0  0  0  0  0  0  0  0  0  0  0  0
   25.0631  -21.2923  -17.2106 C   0  0  0  0  0  0  0  0  0  0  0  0
   24.0809  -21.3172  -16.0323 C   0  0  2  0  0  0  0  0  0  0  0  0
   22.8022  -20.7848  -16.4292 N   0  0  0  0  0  0  0  0  0  0  0  0
   24.6938  -20.4177  -14.9992 C   0  0  0  0  0  0  0  0  0  0  0  0
   23.9612  -19.5715  -14.4323 O   0  0  0  0  0  0  0  0  0  0  0  0
   25.5473  -20.4965   -8.2065 C   0  0  0  0  0  0  0  0  0  0  0  0
   24.9138  -20.7465   -9.9026 S   0  0  0  0  0  0  0  0  0  0  0  0
   26.3139  -21.2231  -10.9783 C   0  0  0  0  0  0  0  0  0  0  0  0
   25.8772  -21.3589  -12.3974 C   0  0  0  0  0  0  0  0  0  0  0  0
   26.5090  -20.3282  -13.2812 C   0  0  2  0  0  0  0  0  0  0  0  0
   26.0502  -20.5023  -14.6596 N   0  0  0  0  0  0  0  0  0  0  0  0
   27.9801  -20.4269  -13.2964 C   0  0  0  0  0  0  0  0  0  0  0  0
   28.7624  -19.4631  -12.6330 O   0  0  0  0  0  0  0  0  0  0  0  0
   28.6388  -21.3298  -13.8697 O   0  0  0  0  0  0  0  0  0  0  0  0
  2 10  1  0
  2  1  1  1
  3  2  1  0
  4  3  1  0
  5  4  2  0
  6  5  1  0
  7  6  2  0
  7  8  1  0
  8  9  2  0
  9  4  1  0
 10 11  2  0
 13 12  1  0
 14 13  1  6
 15 14  1  0
 15 10  1  0
 16 14  1  0
 17 16  2  0
 18 19  1  0
 19 20  1  0
 20 21  1  0
 22 21  1  1
 22 23  1  0
 23 16  1  0
 24 22  1  0
 24 25  1  0
 26 24  2  0
M  END
$$$$
