FSM.pdb
     RDKit          3D

 26 26  0  0  1  0  0  0  0  0999 V2000
   33.6780  -21.3856    8.8450 N   0  0  0  0  0  0  0  0  0  0  0  0
   33.7052  -22.6909    8.2057 C   0  0  1  0  0  0  0  0  0  0  0  0
   34.3559  -22.4935    6.8768 C   0  0  0  0  0  0  0  0  0  0  0  0
   33.5385  -21.9564    5.8091 C   0  0  0  0  0  0  0  0  0  0  0  0
   32.9961  -22.7124    4.7804 C   0  0  0  0  0  0  0  0  0  0  0  0
   32.2292  -22.1314    3.8068 C   0  0  0  0  0  0  0  0  0  0  0  0
   31.9605  -20.7867    3.7984 C   0  0  0  0  0  0  0  0  0  0  0  0
   32.4923  -20.0308    4.8114 C   0  0  0  0  0  0  0  0  0  0  0  0
   33.2697  -20.6006    5.8041 C   0  0  0  0  0  0  0  0  0  0  0  0
   34.5172  -23.5878    9.0587 C   0  0  0  0  0  0  0  0  0  0  0  0
   35.6072  -23.1747    9.5809 O   0  0  0  0  0  0  0  0  0  0  0  0
   34.1960  -27.6892    8.8077 O   0  0  0  0  0  0  0  0  0  0  0  0
   34.1778  -27.2209   10.1037 C   0  0  0  0  0  0  0  0  0  0  0  0
   34.8077  -25.8244   10.1865 C   0  0  2  0  0  0  0  0  0  0  0  0
   34.1174  -24.9065    9.3165 N   0  0  0  0  0  0  0  0  0  0  0  0
   36.2156  -26.0060    9.6996 C   0  0  0  0  0  0  0  0  0  0  0  0
   36.6113  -25.3038    8.7381 O   0  0  0  0  0  0  0  0  0  0  0  0
   37.8180  -22.0604   11.1523 C   0  0  0  0  0  0  0  0  0  0  0  0
   39.4896  -22.7857   11.0099 S   0  0  0  0  0  0  0  0  0  0  0  0
   39.3527  -24.3864   10.1361 C   0  0  0  0  0  0  0  0  0  0  0  0
   38.8517  -25.4537   11.0487 C   0  0  0  0  0  0  0  0  0  0  0  0
   38.5330  -26.7186   10.3131 C   0  0  2  0  0  0  0  0  0  0  0  0
   37.0857  -26.9322   10.2891 N   0  0  0  0  0  0  0  0  0  0  0  0
   39.1375  -27.9046   10.9473 C   0  0  0  0  0  0  0  0  0  0  0  0
   38.6123  -28.4100   12.1514 O   0  0  0  0  0  0  0  0  0  0  0  0
   40.1226  -28.5418   10.4990 O   0  0  0  0  0  0  0  0  0  0  0  0
  2 10  1  0
  2  1  1  1
  3  2  1  0
  4  3  1  0
  5  4  2  0
  6  5  1  0
  7  6  2  0
  7  8  1  0
  8  9  2  0
  9  4  1  0
 10 11  2  0
 13 12  1  0
 14 13  1  6
 15 14  1  0
 15 10  1  0
 16 14  1  0
 17 16  2  0
 18 19  1  0
 19 20  1  0
 20 21  1  0
 22 21  1  1
 22 23  1  0
 23 16  1  0
 24 22  1  0
 24 25  1  0
 26 24  2  0
M  END
$$$$
