FSM.pdb
     RDKit          3D

 26 26  0  0  1  0  0  0  0  0999 V2000
   27.7757  -19.4355  -15.8167 N   0  0  0  0  0  0  0  0  0  0  0  0
   27.1389  -18.9890  -14.5886 C   0  0  1  0  0  0  0  0  0  0  0  0
   26.2595  -17.8430  -14.9649 C   0  0  0  0  0  0  0  0  0  0  0  0
   26.9060  -16.6273  -15.4127 C   0  0  0  0  0  0  0  0  0  0  0  0
   27.0736  -16.2722  -16.7430 C   0  0  0  0  0  0  0  0  0  0  0  0
   27.6938  -15.1018  -17.0879 C   0  0  0  0  0  0  0  0  0  0  0  0
   28.1760  -14.2293  -16.1462 C   0  0  0  0  0  0  0  0  0  0  0  0
   28.0150  -14.5715  -14.8281 C   0  0  0  0  0  0  0  0  0  0  0  0
   27.3907  -15.7503  -14.4605 C   0  0  0  0  0  0  0  0  0  0  0  0
   26.3349  -20.1176  -14.0679 C   0  0  0  0  0  0  0  0  0  0  0  0
   25.8061  -20.9608  -14.8684 O   0  0  0  0  0  0  0  0  0  0  0  0
   25.2676  -19.9948  -10.0690 O   0  0  0  0  0  0  0  0  0  0  0  0
   25.3864  -21.2701  -10.5777 C   0  0  0  0  0  0  0  0  0  0  0  0
   25.2414  -21.2622  -12.1051 C   0  0  2  0  0  0  0  0  0  0  0  0
   26.1316  -20.2932  -12.6921 N   0  0  0  0  0  0  0  0  0  0  0  0
   23.8211  -20.8476  -12.3563 C   0  0  0  0  0  0  0  0  0  0  0  0
   23.5694  -19.6257  -12.4897 O   0  0  0  0  0  0  0  0  0  0  0  0
   22.3598  -19.6325  -17.0129 C   0  0  0  0  0  0  0  0  0  0  0  0
   20.6362  -19.5422  -16.4116 S   0  0  0  0  0  0  0  0  0  0  0  0
   20.6333  -19.8725  -14.6129 C   0  0  0  0  0  0  0  0  0  0  0  0
   21.3646  -21.1332  -14.2986 C   0  0  0  0  0  0  0  0  0  0  0  0
   21.4265  -21.3951  -12.8255 C   0  0  2  0  0  0  0  0  0  0  0  0
   22.7839  -21.7851  -12.4433 N   0  0  0  0  0  0  0  0  0  0  0  0
   20.5269  -22.4875  -12.4110 C   0  0  0  0  0  0  0  0  0  0  0  0
   19.1542  -22.2419  -12.2205 O   0  0  0  0  0  0  0  0  0  0  0  0
   20.8793  -23.6746  -12.2007 O   0  0  0  0  0  0  0  0  0  0  0  0
  2 10  1  0
  2  1  1  6
  3  2  1  0
  4  3  1  0
  5  4  2  0
  6  5  1  0
  7  6  2  0
  7  8  1  0
  8  9  2  0
  9  4  1  0
 10 11  2  0
 13 12  1  0
 14 13  1  1
 15 14  1  0
 15 10  1  0
 16 14  1  0
 17 16  2  0
 18 19  1  0
 19 20  1  0
 20 21  1  0
 22 21  1  6
 22 23  1  0
 23 16  1  0
 24 22  1  0
 24 25  1  0
 26 24  2  0
M  END
$$$$
