VKY.pdb
     RDKit          3D

 29 29  0  0  1  0  0  0  0  0999 V2000
    8.6200  -11.9358   19.2570 C   0  0  0  0  0  0  0  0  0  0  0  0
    8.4871  -13.0682   20.2299 C   0  0  1  0  0  0  0  0  0  0  0  0
    7.1436  -13.0871   20.9224 C   0  0  0  0  0  0  0  0  0  0  0  0
    8.7008  -14.4137   19.5592 C   0  0  2  0  0  0  0  0  0  0  0  0
    7.6660  -14.5475   18.5583 N   0  0  0  0  0  0  0  0  0  0  0  0
    8.4964  -15.4486   20.5933 C   0  0  0  0  0  0  0  0  0  0  0  0
    7.3448  -15.9775   20.7218 O   0  0  0  0  0  0  0  0  0  0  0  0
    9.5794  -15.8269   21.4134 N   0  0  0  0  0  0  0  0  0  0  0  0
    9.4250  -17.0178   22.3093 C   0  0  1  0  0  0  0  0  0  0  0  0
   10.2858  -18.0407   21.6669 C   0  0  0  0  0  0  0  0  0  0  0  0
   10.5026  -19.3545   22.3028 C   0  0  0  0  0  0  0  0  0  0  0  0
    9.5315  -20.3910   21.8325 C   0  0  0  0  0  0  0  0  0  0  0  0
    9.7652  -21.7319   22.5166 C   0  0  0  0  0  0  0  0  0  0  0  0
    8.7339  -22.6630   22.0557 N   0  0  0  0  0  0  0  0  0  0  0  0
    9.6985  -16.5756   23.6566 C   0  0  0  0  0  0  0  0  0  0  0  0
   10.6776  -15.7734   23.8799 O   0  0  0  0  0  0  0  0  0  0  0  0
    6.0989  -11.0386   25.8580 O   0  0  0  0  0  0  0  0  0  0  0  0
    6.5725  -12.3200   26.1149 C   0  0  0  0  0  0  0  0  0  0  0  0
    7.7971  -12.4957   26.7090 C   0  0  0  0  0  0  0  0  0  0  0  0
    8.3208  -13.7608   26.9897 C   0  0  0  0  0  0  0  0  0  0  0  0
    7.5959  -14.8797   26.6651 C   0  0  0  0  0  0  0  0  0  0  0  0
    8.0758  -16.2456   26.9221 C   0  0  0  0  0  0  0  0  0  0  0  0
    9.3278  -16.5307   26.0985 C   0  0  2  0  0  0  0  0  0  0  0  0
    8.9242  -16.9685   24.7787 N   0  0  0  0  0  0  0  0  0  0  0  0
   10.1834  -17.5693   26.6957 C   0  0  0  0  0  0  0  0  0  0  0  0
   11.1938  -17.2406   27.5553 O   0  0  0  0  0  0  0  0  0  0  0  0
    6.3481  -14.6956   26.0598 C   0  0  0  0  0  0  0  0  0  0  0  0
    5.8514  -13.4380   25.7924 C   0  0  0  0  0  0  0  0  0  0  0  0
    9.9768  -18.7702   26.4063 O   0  0  0  0  0  0  0  0  0  0  0  0
  2  1  1  6
  2  3  1  0
  4  2  1  0
  4  5  1  6
  6  7  2  0
  6  4  1  0
  8  6  1  0
  9  8  1  0
  9 10  1  6
 11 12  1  0
 11 10  1  0
 13 12  1  0
 14 13  1  0
 15  9  1  0
 16 15  2  0
 17 18  1  0
 18 28  2  0
 19 20  2  0
 19 18  1  0
 20 21  1  0
 21 22  1  0
 21 27  2  0
 23 22  1  1
 23 24  1  0
 24 15  1  0
 25 26  1  0
 25 23  1  0
 28 27  1  0
 29 25  2  0
M  END
$$$$
