VKY.pdb
     RDKit          3D

 29 29  0  0  1  0  0  0  0  0999 V2000
    8.6738  -12.8304   20.5340 C   0  0  0  0  0  0  0  0  0  0  0  0
    7.8277  -13.3514   19.4120 C   0  0  1  0  0  0  0  0  0  0  0  0
    7.5422  -12.3026   18.3615 C   0  0  0  0  0  0  0  0  0  0  0  0
    8.4691  -14.5489   18.7332 C   0  0  2  0  0  0  0  0  0  0  0  0
    7.5259  -15.0195   17.7435 N   0  0  0  0  0  0  0  0  0  0  0  0
    8.6335  -15.5930   19.7652 C   0  0  0  0  0  0  0  0  0  0  0  0
    7.5968  -16.1091   20.2953 O   0  0  0  0  0  0  0  0  0  0  0  0
    9.9327  -15.9938   20.1393 N   0  0  0  0  0  0  0  0  0  0  0  0
   10.0874  -17.0623   21.1782 C   0  0  1  0  0  0  0  0  0  0  0  0
   11.0444  -18.0080   20.5538 C   0  0  0  0  0  0  0  0  0  0  0  0
   11.5872  -19.1487   21.3165 C   0  0  0  0  0  0  0  0  0  0  0  0
   12.4683  -20.0300   20.4886 C   0  0  0  0  0  0  0  0  0  0  0  0
   12.9839  -21.2199   21.2880 C   0  0  0  0  0  0  0  0  0  0  0  0
   13.8953  -21.9816   20.4323 N   0  0  0  0  0  0  0  0  0  0  0  0
   10.4175  -16.4039   22.4204 C   0  0  0  0  0  0  0  0  0  0  0  0
   11.3495  -15.5192   22.4472 O   0  0  0  0  0  0  0  0  0  0  0  0
   10.8541  -14.1760   30.9069 O   0  0  0  0  0  0  0  0  0  0  0  0
   10.4105  -14.5496   29.6435 C   0  0  0  0  0  0  0  0  0  0  0  0
   10.2073  -15.8744   29.3485 C   0  0  0  0  0  0  0  0  0  0  0  0
    9.7624  -16.3048   28.0954 C   0  0  0  0  0  0  0  0  0  0  0  0
    9.5151  -15.3806   27.1118 C   0  0  0  0  0  0  0  0  0  0  0  0
    9.0497  -15.7497   25.7668 C   0  0  0  0  0  0  0  0  0  0  0  0
   10.2384  -16.0485   24.8585 C   0  0  2  0  0  0  0  0  0  0  0  0
    9.7495  -16.6672   23.6442 N   0  0  0  0  0  0  0  0  0  0  0  0
   11.2233  -16.9491   25.4799 C   0  0  0  0  0  0  0  0  0  0  0  0
   12.3912  -16.4647   25.9988 O   0  0  0  0  0  0  0  0  0  0  0  0
    9.7236  -14.0314   27.4173 C   0  0  0  0  0  0  0  0  0  0  0  0
   10.1628  -13.6297   28.6604 C   0  0  0  0  0  0  0  0  0  0  0  0
   10.9808  -18.1769   25.5293 O   0  0  0  0  0  0  0  0  0  0  0  0
  2  1  1  1
  2  3  1  0
  4  2  1  0
  4  5  1  6
  6  7  2  0
  6  4  1  0
  8  6  1  0
  9  8  1  0
  9 10  1  6
 11 12  1  0
 11 10  1  0
 13 12  1  0
 14 13  1  0
 15  9  1  0
 16 15  2  0
 17 18  1  0
 18 28  2  0
 19 20  2  0
 19 18  1  0
 20 21  1  0
 21 22  1  0
 21 27  2  0
 23 22  1  1
 23 24  1  0
 24 15  1  0
 25 26  1  0
 25 23  1  0
 28 27  1  0
 29 25  2  0
M  END
$$$$
