VKY.pdb
     RDKit          3D

 29 29  0  0  1  0  0  0  0  0999 V2000
    7.5912  -11.8067   25.3119 C   0  0  0  0  0  0  0  0  0  0  0  0
    6.7528  -12.7951   26.0644 C   0  0  1  0  0  0  0  0  0  0  0  0
    5.7399  -12.1312   26.9690 C   0  0  0  0  0  0  0  0  0  0  0  0
    6.0161  -13.7362   25.1275 C   0  0  2  0  0  0  0  0  0  0  0  0
    5.4453  -14.7788   25.9509 N   0  0  0  0  0  0  0  0  0  0  0  0
    7.0288  -14.3376   24.2360 C   0  0  0  0  0  0  0  0  0  0  0  0
    7.5746  -15.4384   24.5716 O   0  0  0  0  0  0  0  0  0  0  0  0
    7.3676  -13.6801   23.0354 N   0  0  0  0  0  0  0  0  0  0  0  0
    8.3754  -14.3132   22.1252 C   0  0  1  0  0  0  0  0  0  0  0  0
    8.3419  -13.4443   20.9236 C   0  0  0  0  0  0  0  0  0  0  0  0
    7.4765  -13.7748   19.7750 C   0  0  0  0  0  0  0  0  0  0  0  0
    8.2536  -14.2085   18.5724 C   0  0  0  0  0  0  0  0  0  0  0  0
    7.3371  -14.5581   17.4068 C   0  0  0  0  0  0  0  0  0  0  0  0
    8.1753  -14.8970   16.2555 N   0  0  0  0  0  0  0  0  0  0  0  0
    9.5961  -14.4657   22.8818 C   0  0  0  0  0  0  0  0  0  0  0  0
   10.2235  -13.4248   23.2999 O   0  0  0  0  0  0  0  0  0  0  0  0
   11.9413  -16.2407   30.7652 O   0  0  0  0  0  0  0  0  0  0  0  0
   11.3970  -16.0703   29.4975 C   0  0  0  0  0  0  0  0  0  0  0  0
   10.9675  -17.1586   28.7801 C   0  0  0  0  0  0  0  0  0  0  0  0
   10.4130  -17.0443   27.5022 C   0  0  0  0  0  0  0  0  0  0  0  0
   10.2862  -15.8041   26.9289 C   0  0  0  0  0  0  0  0  0  0  0  0
    9.7182  -15.5973   25.5886 C   0  0  0  0  0  0  0  0  0  0  0  0
   10.7614  -15.9032   24.5183 C   0  0  2  0  0  0  0  0  0  0  0  0
   10.1542  -15.7267   23.2158 N   0  0  0  0  0  0  0  0  0  0  0  0
   11.2898  -17.2744   24.6074 C   0  0  0  0  0  0  0  0  0  0  0  0
   12.5217  -17.5205   25.1458 O   0  0  0  0  0  0  0  0  0  0  0  0
   10.7253  -14.6977   27.6641 C   0  0  0  0  0  0  0  0  0  0  0  0
   11.2691  -14.8343   28.9231 C   0  0  0  0  0  0  0  0  0  0  0  0
   10.5947  -18.2246   24.1803 O   0  0  0  0  0  0  0  0  0  0  0  0
  2  1  1  6
  2  3  1  0
  4  2  1  0
  4  5  1  1
  6  7  2  0
  6  4  1  0
  8  6  1  0
  9  8  1  0
  9 10  1  6
 11 12  1  0
 11 10  1  0
 13 12  1  0
 14 13  1  0
 15  9  1  0
 16 15  2  0
 17 18  1  0
 18 28  2  0
 19 20  2  0
 19 18  1  0
 20 21  1  0
 21 22  1  0
 21 27  2  0
 23 22  1  1
 23 24  1  0
 24 15  1  0
 25 26  1  0
 25 23  1  0
 28 27  1  0
 29 25  2  0
M  END
$$$$
