VKY.pdb
     RDKit          3D

 29 29  0  0  1  0  0  0  0  0999 V2000
    8.4688  -12.8175   21.1525 C   0  0  0  0  0  0  0  0  0  0  0  0
    7.7219  -13.3537   19.9689 C   0  0  1  0  0  0  0  0  0  0  0  0
    7.7225  -12.3984   18.7975 C   0  0  0  0  0  0  0  0  0  0  0  0
    8.2862  -14.6846   19.5037 C   0  0  2  0  0  0  0  0  0  0  0  0
    7.4633  -15.1204   18.3976 N   0  0  0  0  0  0  0  0  0  0  0  0
    8.1218  -15.6371   20.6206 C   0  0  0  0  0  0  0  0  0  0  0  0
    6.9599  -16.0860   20.8865 O   0  0  0  0  0  0  0  0  0  0  0  0
    9.2535  -16.0272   21.3661 N   0  0  0  0  0  0  0  0  0  0  0  0
    9.1186  -17.1497   22.3493 C   0  0  1  0  0  0  0  0  0  0  0  0
   10.0312  -18.1867   21.8092 C   0  0  0  0  0  0  0  0  0  0  0  0
   10.1461  -19.5062   22.4596 C   0  0  0  0  0  0  0  0  0  0  0  0
   11.0386  -20.4439   21.7097 C   0  0  0  0  0  0  0  0  0  0  0  0
   11.3807  -21.6768   22.5366 C   0  0  0  0  0  0  0  0  0  0  0  0
   10.2883  -22.6401   22.3894 N   0  0  0  0  0  0  0  0  0  0  0  0
    9.3416  -16.5939   23.6634 C   0  0  0  0  0  0  0  0  0  0  0  0
   10.2868  -15.7422   23.8454 O   0  0  0  0  0  0  0  0  0  0  0  0
    6.6056  -10.4664   25.9678 O   0  0  0  0  0  0  0  0  0  0  0  0
    6.8556  -11.8175   26.1788 C   0  0  0  0  0  0  0  0  0  0  0  0
    8.1267  -12.2459   26.4688 C   0  0  0  0  0  0  0  0  0  0  0  0
    8.4334  -13.5915   26.6897 C   0  0  0  0  0  0  0  0  0  0  0  0
    7.4373  -14.5325   26.6175 C   0  0  0  0  0  0  0  0  0  0  0  0
    7.6759  -15.9674   26.8322 C   0  0  0  0  0  0  0  0  0  0  0  0
    8.9345  -16.4113   26.0931 C   0  0  2  0  0  0  0  0  0  0  0  0
    8.5520  -16.9254   24.7947 N   0  0  0  0  0  0  0  0  0  0  0  0
    9.6821  -17.4575   26.8099 C   0  0  0  0  0  0  0  0  0  0  0  0
   10.4804  -17.1478   27.8752 O   0  0  0  0  0  0  0  0  0  0  0  0
    6.1431  -14.0909   26.3218 C   0  0  0  0  0  0  0  0  0  0  0  0
    5.8638  -12.7583   26.1076 C   0  0  0  0  0  0  0  0  0  0  0  0
    9.5808  -18.6471   26.4316 O   0  0  0  0  0  0  0  0  0  0  0  0
  2  1  1  1
  2  3  1  0
  4  2  1  0
  4  5  1  6
  6  7  2  0
  6  4  1  0
  8  6  1  0
  9  8  1  0
  9 10  1  6
 11 12  1  0
 11 10  1  0
 13 12  1  0
 14 13  1  0
 15  9  1  0
 16 15  2  0
 17 18  1  0
 18 28  2  0
 19 20  2  0
 19 18  1  0
 20 21  1  0
 21 22  1  0
 21 27  2  0
 23 22  1  1
 23 24  1  0
 24 15  1  0
 25 26  1  0
 25 23  1  0
 28 27  1  0
 29 25  2  0
M  END
$$$$
