VKY.pdb
     RDKit          3D

 29 29  0  0  1  0  0  0  0  0999 V2000
-146821.2188-42617.4023 5665.0737 C   0  0  0  0  0  0  0  0  0  0  0  0
-146822.6562-42617.6094 5665.2134 C   0  0  1  0  0  0  0  0  0  0  0  0
-146823.1875-42618.1367 5666.5645 C   0  0  0  0  0  0  0  0  0  0  0  0
-146823.5156-42616.4297 5664.8398 C   0  0  2  0  0  0  0  0  0  0  0  0
-146823.7656-42616.4766 5663.4771 N   0  0  0  0  0  0  0  0  0  0  0  0
-146822.7344-42615.2227 5665.0659 C   0  0  0  0  0  0  0  0  0  0  0  0
-146822.1406-42614.9727 5666.1597 O   0  0  0  0  0  0  0  0  0  0  0  0
-146822.6562-42614.2852 5663.9341 N   0  0  0  0  0  0  0  0  0  0  0  0
-146821.8438-42613.0039 5664.1934 C   0  0  1  0  0  0  0  0  0  0  0  0
-146821.4062-42612.5508 5662.8027 C   0  0  0  0  0  0  0  0  0  0  0  0
-146820.2031-42613.1016 5662.1982 C   0  0  0  0  0  0  0  0  0  0  0  0
-146820.4531-42614.1094 5661.1055 C   0  0  0  0  0  0  0  0  0  0  0  0
-146819.6562-42613.7500 5659.8037 C   0  0  0  0  0  0  0  0  0  0  0  0
-146819.0000-42615.0273 5659.4409 N   0  0  0  0  0  0  0  0  0  0  0  0
-146822.6719-42612.1523 5665.0142 C   0  0  0  0  0  0  0  0  0  0  0  0
-146823.8281-42612.5352 5665.3218 O   0  0  0  0  0  0  0  0  0  0  0  0
-146821.9375-42607.8047 5659.3765 O   0  0  0  0  0  0  0  0  0  0  0  0
-146821.9531-42607.9531 5660.7446 C   0  0  0  0  0  0  0  0  0  0  0  0
-146821.0938-42608.8008 5661.3989 C   0  0  0  0  0  0  0  0  0  0  0  0
-146821.0469-42609.0508 5662.7725 C   0  0  0  0  0  0  0  0  0  0  0  0
-146822.0156-42608.4375 5663.5894 C   0  0  0  0  0  0  0  0  0  0  0  0
-146822.0625-42608.5781 5665.0322 C   0  0  0  0  0  0  0  0  0  0  0  0
-146822.9844-42609.7344 5665.3975 C   0  0  2  0  0  0  0  0  0  0  0  0
-146822.2188-42610.9688 5665.5684 N   0  0  0  0  0  0  0  0  0  0  0  0
-146823.9844-42610.0078 5664.3555 C   0  0  0  0  0  0  0  0  0  0  0  0
-146824.9062-42609.1250 5663.9531 O   0  0  0  0  0  0  0  0  0  0  0  0
-146822.9062-42607.5703 5662.9292 C   0  0  0  0  0  0  0  0  0  0  0  0
-146822.9688-42607.4688 5661.5522 C   0  0  0  0  0  0  0  0  0  0  0  0
-146823.9375-42611.1055 5663.7378 O   0  0  0  0  0  0  0  0  0  0  0  0
  2  1  1  1
  2  3  1  0
  4  2  1  0
  4  5  1  6
  6  7  2  0
  6  4  1  0
  8  6  1  0
  9  8  1  0
  9 10  1  6
 11 12  1  0
 11 10  1  0
 13 12  1  0
 14 13  1  0
 15  9  1  0
 16 15  2  0
 17 18  1  0
 18 28  2  0
 19 20  2  0
 19 18  1  0
 20 21  1  0
 21 22  1  0
 21 27  2  0
 23 22  1  6
 23 24  1  0
 24 15  1  0
 25 26  1  0
 25 23  1  0
 28 27  1  0
 29 25  2  0
M  END
$$$$
