VKY.pdb
     RDKit          3D

 29 29  0  0  1  0  0  0  0  0999 V2000
    9.6141  -14.5968   17.3427 C   0  0  0  0  0  0  0  0  0  0  0  0
    8.5313  -15.2657   16.5512 C   0  0  1  0  0  0  0  0  0  0  0  0
    8.4363  -14.7435   15.1359 C   0  0  0  0  0  0  0  0  0  0  0  0
    8.7234  -16.7711   16.4959 C   0  0  2  0  0  0  0  0  0  0  0  0
    7.5969  -17.3066   15.7645 N   0  0  0  0  0  0  0  0  0  0  0  0
    8.6635  -17.2652   17.8867 C   0  0  0  0  0  0  0  0  0  0  0  0
    7.5803  -17.1363   18.5441 O   0  0  0  0  0  0  0  0  0  0  0  0
    9.8055  -17.8674   18.4540 N   0  0  0  0  0  0  0  0  0  0  0  0
    9.7206  -18.4033   19.8505 C   0  0  1  0  0  0  0  0  0  0  0  0
   10.1437  -19.8168   19.6989 C   0  0  0  0  0  0  0  0  0  0  0  0
   10.2057  -20.7173   20.8662 C   0  0  0  0  0  0  0  0  0  0  0  0
   10.7728  -22.0603   20.5301 C   0  0  0  0  0  0  0  0  0  0  0  0
   10.7741  -22.9884   21.7382 C   0  0  0  0  0  0  0  0  0  0  0  0
   11.2922  -24.2893   21.3112 N   0  0  0  0  0  0  0  0  0  0  0  0
   10.4686  -17.5045   20.6979 C   0  0  0  0  0  0  0  0  0  0  0  0
   11.5938  -17.0327   20.2938 O   0  0  0  0  0  0  0  0  0  0  0  0
    7.5961  -12.2230   18.8794 O   0  0  0  0  0  0  0  0  0  0  0  0
    8.1572  -12.9096   19.9500 C   0  0  0  0  0  0  0  0  0  0  0  0
    9.5202  -13.0353   20.0496 C   0  0  0  0  0  0  0  0  0  0  0  0
   10.1365  -13.7147   21.1043 C   0  0  0  0  0  0  0  0  0  0  0  0
    9.3637  -14.2833   22.0853 C   0  0  0  0  0  0  0  0  0  0  0  0
    9.9319  -15.0180   23.2251 C   0  0  0  0  0  0  0  0  0  0  0  0
   10.8284  -16.1496   22.7320 C   0  0  2  0  0  0  0  0  0  0  0  0
   10.0208  -17.0848   21.9772 N   0  0  0  0  0  0  0  0  0  0  0  0
   11.4882  -16.8782   23.8279 C   0  0  0  0  0  0  0  0  0  0  0  0
   12.4911  -16.2997   24.5543 O   0  0  0  0  0  0  0  0  0  0  0  0
    7.9749  -14.1523   21.9795 C   0  0  0  0  0  0  0  0  0  0  0  0
    7.3889  -13.4776   20.9302 C   0  0  0  0  0  0  0  0  0  0  0  0
   11.1203  -18.0458   24.0923 O   0  0  0  0  0  0  0  0  0  0  0  0
  2  1  1  6
  2  3  1  0
  4  2  1  0
  4  5  1  6
  6  7  2  0
  6  4  1  0
  8  6  1  0
  9  8  1  0
  9 10  1  6
 11 12  1  0
 11 10  1  0
 13 12  1  0
 14 13  1  0
 15  9  1  0
 16 15  2  0
 17 18  1  0
 18 28  2  0
 19 20  2  0
 19 18  1  0
 20 21  1  0
 21 22  1  0
 21 27  2  0
 23 22  1  1
 23 24  1  0
 24 15  1  0
 25 26  1  0
 25 23  1  0
 28 27  1  0
 29 25  2  0
M  END
$$$$
