VKY.pdb
     RDKit          3D

 29 29  0  0  1  0  0  0  0  0999 V2000
    8.6723  -12.8227   21.8878 C   0  0  0  0  0  0  0  0  0  0  0  0
    7.7160  -13.2808   20.8286 C   0  0  1  0  0  0  0  0  0  0  0  0
    7.5732  -12.2837   19.7015 C   0  0  0  0  0  0  0  0  0  0  0  0
    8.1292  -14.6175   20.2380 C   0  0  2  0  0  0  0  0  0  0  0  0
    7.1414  -14.9517   19.2364 N   0  0  0  0  0  0  0  0  0  0  0  0
    8.0545  -15.6122   21.3275 C   0  0  0  0  0  0  0  0  0  0  0  0
    6.9121  -15.9734   21.7597 O   0  0  0  0  0  0  0  0  0  0  0  0
    9.2480  -16.1383   21.8635 N   0  0  0  0  0  0  0  0  0  0  0  0
    9.1611  -17.2442   22.8707 C   0  0  1  0  0  0  0  0  0  0  0  0
    9.9151  -18.3487   22.2292 C   0  0  0  0  0  0  0  0  0  0  0  0
    9.3440  -19.0926   21.0899 C   0  0  0  0  0  0  0  0  0  0  0  0
   10.2831  -20.1207   20.5426 C   0  0  0  0  0  0  0  0  0  0  0  0
    9.6496  -20.9120   19.4053 C   0  0  0  0  0  0  0  0  0  0  0  0
   10.6639  -21.8165   18.8610 N   0  0  0  0  0  0  0  0  0  0  0  0
    9.5962  -16.7024   24.1366 C   0  0  0  0  0  0  0  0  0  0  0  0
   10.6064  -15.9089   24.1792 O   0  0  0  0  0  0  0  0  0  0  0  0
    6.2521  -11.1635   25.1319 O   0  0  0  0  0  0  0  0  0  0  0  0
    6.7769  -12.3178   25.7017 C   0  0  0  0  0  0  0  0  0  0  0  0
    6.1268  -13.5171   25.5515 C   0  0  0  0  0  0  0  0  0  0  0  0
    6.6100  -14.7071   26.1030 C   0  0  0  0  0  0  0  0  0  0  0  0
    7.7769  -14.6929   26.8247 C   0  0  0  0  0  0  0  0  0  0  0  0
    8.3506  -15.8984   27.4408 C   0  0  0  0  0  0  0  0  0  0  0  0
    9.4988  -16.4326   26.5903 C   0  0  2  0  0  0  0  0  0  0  0  0
    8.9522  -16.9855   25.3688 N   0  0  0  0  0  0  0  0  0  0  0  0
   10.2784  -17.4795   27.2710 C   0  0  0  0  0  0  0  0  0  0  0  0
   11.0173  -17.1949   28.3850 O   0  0  0  0  0  0  0  0  0  0  0  0
    8.4360  -13.4680   26.9749 C   0  0  0  0  0  0  0  0  0  0  0  0
    7.9409  -12.3066   26.4220 C   0  0  0  0  0  0  0  0  0  0  0  0
   10.2602  -18.6462   26.8161 O   0  0  0  0  0  0  0  0  0  0  0  0
  2  1  1  1
  2  3  1  0
  4  2  1  0
  4  5  1  6
  6  7  2  0
  6  4  1  0
  8  6  1  0
  9  8  1  0
  9 10  1  6
 11 12  1  0
 11 10  1  0
 13 12  1  0
 14 13  1  0
 15  9  1  0
 16 15  2  0
 17 18  1  0
 18 28  2  0
 19 20  2  0
 19 18  1  0
 20 21  1  0
 21 22  1  0
 21 27  2  0
 23 22  1  1
 23 24  1  0
 24 15  1  0
 25 26  1  0
 25 23  1  0
 28 27  1  0
 29 25  2  0
M  END
$$$$
