HYD.pdb
     RDKit          3D

 31 32  0  0  1  0  0  0  0  0999 V2000
   28.7063  -19.9786  -19.1058 N   0  0  0  0  0  0  0  0  0  0  0  0
   27.8220  -19.1933  -18.3209 C   0  0  1  0  0  0  0  0  0  0  0  0
   26.6611  -18.6118  -19.0987 C   0  0  0  0  0  0  0  0  0  0  0  0
   27.1341  -17.4784  -19.8984 C   0  0  0  0  0  0  0  0  0  0  0  0
   26.8270  -16.1593  -19.6979 C   0  0  0  0  0  0  0  0  0  0  0  0
   27.4567  -15.4174  -20.6433 N   0  0  0  0  0  0  0  0  0  0  0  0
   28.1380  -16.2898  -21.4066 C   0  0  0  0  0  0  0  0  0  0  0  0
   27.9450  -17.5336  -20.9592 N   0  0  0  0  0  0  0  0  0  0  0  0
   27.3072  -19.8545  -17.0964 C   0  0  0  0  0  0  0  0  0  0  0  0
   26.9421  -21.0739  -17.1705 O   0  0  0  0  0  0  0  0  0  0  0  0
   25.4089  -21.0083   -8.3894 O   0  0  0  0  0  0  0  0  0  0  0  0
   25.8713  -20.5808   -9.6439 C   0  0  0  0  0  0  0  0  0  0  0  0
   25.2969  -19.5048  -10.2847 C   0  0  0  0  0  0  0  0  0  0  0  0
   25.7452  -19.0782  -11.5176 C   0  0  0  0  0  0  0  0  0  0  0  0
   26.7853  -19.7046  -12.1660 C   0  0  0  0  0  0  0  0  0  0  0  0
   27.2857  -19.2800  -13.4712 C   0  0  0  0  0  0  0  0  0  0  0  0
   26.7126  -20.0108  -14.6560 C   0  0  2  0  0  0  0  0  0  0  0  0
   27.1793  -19.2532  -15.8322 N   0  0  0  0  0  0  0  0  0  0  0  0
   25.2322  -20.0252  -14.6653 C   0  0  0  0  0  0  0  0  0  0  0  0
   24.5808  -18.9757  -14.8690 O   0  0  0  0  0  0  0  0  0  0  0  0
   27.3621  -20.7840  -11.5239 C   0  0  0  0  0  0  0  0  0  0  0  0
   26.9140  -21.2191  -10.2797 C   0  0  0  0  0  0  0  0  0  0  0  0
   24.5201  -21.2285  -14.4445 N   0  0  0  0  0  0  0  0  0  0  0  0
   23.0828  -21.2390  -14.2549 C   0  0  1  0  0  0  0  0  0  0  0  0
   22.7033  -21.0642  -12.8065 C   0  0  0  0  0  0  0  0  0  0  0  0
   21.2407  -21.1276  -12.5766 C   0  0  0  0  0  0  0  0  0  0  0  0
   20.5511  -22.1602  -12.6884 O   0  0  0  0  0  0  0  0  0  0  0  0
   22.3963  -20.2045  -15.0469 C   0  0  0  0  0  0  0  0  0  0  0  0
   21.0654  -20.4138  -15.3721 O   0  0  0  0  0  0  0  0  0  0  0  0
   20.5890  -19.9403  -12.2074 O   0  0  0  0  0  0  0  0  0  0  0  0
   22.9335  -19.1534  -15.4436 O   0  0  0  0  0  0  0  0  0  0  0  0
  2  1  1  6
  3  2  1  0
  3  4  1  0
  4  5  2  0
  5  6  1  0
  7  6  1  0
  8  4  1  0
  8  7  2  0
  9 18  1  0
  9  2  1  0
 10  9  2  0
 11 12  1  0
 12 13  2  0
 13 14  1  0
 15 16  1  0
 15 14  2  0
 17 16  1  1
 17 18  1  0
 19 17  1  0
 20 19  2  0
 21 15  1  0
 22 21  2  0
 22 12  1  0
 23 19  1  0
 24 23  1  0
 25 26  1  0
 24 25  1  1
 26 27  2  0
 28 29  1  0
 28 24  1  0
 30 26  1  0
 31 28  2  0
M  END
$$$$
