HYD.pdb
     RDKit          3D

 31 32  0  0  1  0  0  0  0  0999 V2000
   22.7928  -13.0000  -19.1008 N   0  0  0  0  0  0  0  0  0  0  0  0
   22.3763  -12.7362  -20.4319 C   0  0  1  0  0  0  0  0  0  0  0  0
   22.0240  -13.9774  -21.2231 C   0  0  0  0  0  0  0  0  0  0  0  0
   23.1442  -14.9207  -21.1674 C   0  0  0  0  0  0  0  0  0  0  0  0
   24.1642  -15.0241  -22.0748 C   0  0  0  0  0  0  0  0  0  0  0  0
   25.0034  -16.0125  -21.6754 N   0  0  0  0  0  0  0  0  0  0  0  0
   24.4871  -16.4986  -20.5331 C   0  0  0  0  0  0  0  0  0  0  0  0
   23.3657  -15.8416  -20.2246 N   0  0  0  0  0  0  0  0  0  0  0  0
   21.2815  -11.7439  -20.5666 C   0  0  0  0  0  0  0  0  0  0  0  0
   20.9324  -11.3773  -21.7369 O   0  0  0  0  0  0  0  0  0  0  0  0
   13.4225   -7.9090  -19.5563 O   0  0  0  0  0  0  0  0  0  0  0  0
   14.6075   -8.6599  -19.5111 C   0  0  0  0  0  0  0  0  0  0  0  0
   15.1886   -8.9998  -18.3089 C   0  0  0  0  0  0  0  0  0  0  0  0
   16.3531   -9.7375  -18.2556 C   0  0  0  0  0  0  0  0  0  0  0  0
   16.9896  -10.1689  -19.3972 C   0  0  0  0  0  0  0  0  0  0  0  0
   18.2231  -10.9513  -19.3780 C   0  0  0  0  0  0  0  0  0  0  0  0
   19.4758  -10.1986  -19.7390 C   0  0  2  0  0  0  0  0  0  0  0  0
   20.5746  -11.1540  -19.5044 N   0  0  0  0  0  0  0  0  0  0  0  0
   19.7003   -9.0083  -18.8876 C   0  0  0  0  0  0  0  0  0  0  0  0
   20.1206   -9.1277  -17.7143 O   0  0  0  0  0  0  0  0  0  0  0  0
   16.4073   -9.8284  -20.6035 C   0  0  0  0  0  0  0  0  0  0  0  0
   15.2322   -9.0842  -20.6637 C   0  0  0  0  0  0  0  0  0  0  0  0
   19.4450   -7.7071  -19.3830 N   0  0  0  0  0  0  0  0  0  0  0  0
   19.6715   -6.5259  -18.5736 C   0  0  1  0  0  0  0  0  0  0  0  0
   19.7073   -5.2696  -19.4059 C   0  0  0  0  0  0  0  0  0  0  0  0
   20.0565   -4.0619  -18.6216 C   0  0  0  0  0  0  0  0  0  0  0  0
   20.4074   -4.0722  -17.4252 O   0  0  0  0  0  0  0  0  0  0  0  0
   18.6607   -6.3580  -17.5158 C   0  0  0  0  0  0  0  0  0  0  0  0
   19.0693   -6.5043  -16.1996 O   0  0  0  0  0  0  0  0  0  0  0  0
   19.9863   -2.8208  -19.2739 O   0  0  0  0  0  0  0  0  0  0  0  0
   17.4624   -6.0930  -17.7267 O   0  0  0  0  0  0  0  0  0  0  0  0
  2  1  1  1
  3  2  1  0
  3  4  1  0
  4  5  2  0
  5  6  1  0
  7  6  1  0
  8  4  1  0
  8  7  2  0
  9 18  1  0
  9  2  1  0
 10  9  2  0
 11 12  1  0
 12 13  2  0
 13 14  1  0
 15 16  1  0
 15 14  2  0
 17 16  1  1
 17 18  1  0
 19 17  1  0
 20 19  2  0
 21 15  1  0
 22 21  2  0
 22 12  1  0
 23 19  1  0
 24 23  1  0
 25 26  1  0
 24 25  1  6
 26 27  2  0
 28 29  1  0
 28 24  1  0
 30 26  1  0
 31 28  2  0
M  END
$$$$
