HYD.pdb
     RDKit          3D

 31 32  0  0  1  0  0  0  0  0999 V2000
   28.7798  -22.4110  -17.0973 N   0  0  0  0  0  0  0  0  0  0  0  0
   27.7302  -21.4706  -16.9272 C   0  0  1  0  0  0  0  0  0  0  0  0
   26.8855  -21.2614  -18.1655 C   0  0  0  0  0  0  0  0  0  0  0  0
   27.7283  -20.7344  -19.2425 C   0  0  0  0  0  0  0  0  0  0  0  0
   28.2019  -21.4349  -20.3192 C   0  0  0  0  0  0  0  0  0  0  0  0
   28.9426  -20.5995  -21.0901 N   0  0  0  0  0  0  0  0  0  0  0  0
   28.9122  -19.4036  -20.4765 C   0  0  0  0  0  0  0  0  0  0  0  0
   28.1803  -19.4824  -19.3618 N   0  0  0  0  0  0  0  0  0  0  0  0
   26.8410  -21.7193  -15.7657 C   0  0  0  0  0  0  0  0  0  0  0  0
   26.7466  -22.9081  -15.3145 O   0  0  0  0  0  0  0  0  0  0  0  0
   24.0453  -20.7178   -7.4977 O   0  0  0  0  0  0  0  0  0  0  0  0
   24.5471  -20.6034   -8.8036 C   0  0  0  0  0  0  0  0  0  0  0  0
   23.8132  -19.9918   -9.7964 C   0  0  0  0  0  0  0  0  0  0  0  0
   24.2988  -19.8751  -11.0822 C   0  0  0  0  0  0  0  0  0  0  0  0
   25.5366  -20.3625  -11.4355 C   0  0  0  0  0  0  0  0  0  0  0  0
   26.0822  -20.2565  -12.7865 C   0  0  0  0  0  0  0  0  0  0  0  0
   25.3614  -21.0510  -13.8426 C   0  0  2  0  0  0  0  0  0  0  0  0
   26.0736  -20.7487  -15.0983 N   0  0  0  0  0  0  0  0  0  0  0  0
   23.9445  -20.6515  -14.0000 C   0  0  0  0  0  0  0  0  0  0  0  0
   23.6400  -19.5620  -14.5362 O   0  0  0  0  0  0  0  0  0  0  0  0
   26.2735  -20.9763  -10.4403 C   0  0  0  0  0  0  0  0  0  0  0  0
   25.7888  -21.0969   -9.1408 C   0  0  0  0  0  0  0  0  0  0  0  0
   22.9016  -21.4949  -13.5474 N   0  0  0  0  0  0  0  0  0  0  0  0
   21.5087  -21.1065  -13.6513 C   0  0  1  0  0  0  0  0  0  0  0  0
   20.5869  -22.2989  -13.6264 C   0  0  0  0  0  0  0  0  0  0  0  0
   20.7484  -23.1838  -14.8041 C   0  0  0  0  0  0  0  0  0  0  0  0
   20.6549  -24.4267  -14.7732 O   0  0  0  0  0  0  0  0  0  0  0  0
   21.0967  -20.1740  -12.5885 C   0  0  0  0  0  0  0  0  0  0  0  0
   19.8441  -19.5894  -12.6888 O   0  0  0  0  0  0  0  0  0  0  0  0
   21.0262  -22.5773  -16.0393 O   0  0  0  0  0  0  0  0  0  0  0  0
   21.8004  -19.8763  -11.6053 O   0  0  0  0  0  0  0  0  0  0  0  0
  2  1  1  6
  3  2  1  0
  3  4  1  0
  4  5  2  0
  5  6  1  0
  7  6  1  0
  8  4  1  0
  8  7  2  0
  9 18  1  0
  9  2  1  0
 10  9  2  0
 11 12  1  0
 12 13  2  0
 13 14  1  0
 15 16  1  0
 15 14  2  0
 17 16  1  1
 17 18  1  0
 19 17  1  0
 20 19  2  0
 21 15  1  0
 22 21  2  0
 22 12  1  0
 23 19  1  0
 24 23  1  0
 25 26  1  0
 24 25  1  1
 26 27  2  0
 28 29  1  0
 28 24  1  0
 30 26  1  0
 31 28  2  0
M  END
$$$$
