HYD.pdb
     RDKit          3D

 31 32  0  0  1  0  0  0  0  0999 V2000
   20.3126   -9.3803  -15.9492 N   0  0  0  0  0  0  0  0  0  0  0  0
   19.2182   -8.5363  -15.6254 C   0  0  1  0  0  0  0  0  0  0  0  0
   18.2982   -9.1021  -14.5652 C   0  0  0  0  0  0  0  0  0  0  0  0
   17.7793  -10.3965  -15.0158 C   0  0  0  0  0  0  0  0  0  0  0  0
   18.5003  -11.5496  -15.1735 C   0  0  0  0  0  0  0  0  0  0  0  0
   17.6662  -12.5288  -15.6050 N   0  0  0  0  0  0  0  0  0  0  0  0
   16.4505  -11.9632  -15.7052 C   0  0  0  0  0  0  0  0  0  0  0  0
   16.5162  -10.6771  -15.3503 N   0  0  0  0  0  0  0  0  0  0  0  0
   19.5795   -7.1429  -15.2656 C   0  0  0  0  0  0  0  0  0  0  0  0
   18.6434   -6.3249  -14.9820 O   0  0  0  0  0  0  0  0  0  0  0  0
   19.0659   -6.2365   -8.8210 O   0  0  0  0  0  0  0  0  0  0  0  0
   19.7844   -5.9973  -10.0029 C   0  0  0  0  0  0  0  0  0  0  0  0
   20.6618   -6.9342  -10.5038 C   0  0  0  0  0  0  0  0  0  0  0  0
   21.3717   -6.7072  -11.6645 C   0  0  0  0  0  0  0  0  0  0  0  0
   21.2388   -5.5372  -12.3772 C   0  0  0  0  0  0  0  0  0  0  0  0
   21.9741   -5.2633  -13.6094 C   0  0  0  0  0  0  0  0  0  0  0  0
   21.1438   -5.2128  -14.8641 C   0  0  2  0  0  0  0  0  0  0  0  0
   20.8846   -6.6240  -15.2057 N   0  0  0  0  0  0  0  0  0  0  0  0
   21.8507   -4.5782  -15.9997 C   0  0  0  0  0  0  0  0  0  0  0  0
   22.9828   -4.9772  -16.3555 O   0  0  0  0  0  0  0  0  0  0  0  0
   20.3589   -4.5968  -11.8755 C   0  0  0  0  0  0  0  0  0  0  0  0
   19.6396   -4.8202  -10.7046 C   0  0  0  0  0  0  0  0  0  0  0  0
   21.2603   -3.5053  -16.7096 N   0  0  0  0  0  0  0  0  0  0  0  0
   21.9405   -2.8564  -17.8132 C   0  0  1  0  0  0  0  0  0  0  0  0
   21.2685   -3.1361  -19.1333 C   0  0  0  0  0  0  0  0  0  0  0  0
   21.9694   -2.5206  -20.2847 C   0  0  0  0  0  0  0  0  0  0  0  0
   23.0651   -1.9302  -20.2127 O   0  0  0  0  0  0  0  0  0  0  0  0
   22.0434   -1.3975  -17.6401 C   0  0  0  0  0  0  0  0  0  0  0  0
   21.3591   -0.8204  -16.5821 O   0  0  0  0  0  0  0  0  0  0  0  0
   21.3539   -2.6102  -21.5433 O   0  0  0  0  0  0  0  0  0  0  0  0
   22.7054   -0.6483  -18.3824 O   0  0  0  0  0  0  0  0  0  0  0  0
  2  1  1  1
  3  2  1  0
  3  4  1  0
  4  5  2  0
  5  6  1  0
  7  6  1  0
  8  4  1  0
  8  7  2  0
  9 18  1  0
  9  2  1  0
 10  9  2  0
 11 12  1  0
 12 13  2  0
 13 14  1  0
 15 16  1  0
 15 14  2  0
 17 16  1  1
 17 18  1  0
 19 17  1  0
 20 19  2  0
 21 15  1  0
 22 21  2  0
 22 12  1  0
 23 19  1  0
 24 23  1  0
 25 26  1  0
 24 25  1  6
 26 27  2  0
 28 29  1  0
 28 24  1  0
 30 26  1  0
 31 28  2  0
M  END
$$$$
