HYD.pdb
     RDKit          3D

 31 32  0  0  1  0  0  0  0  0999 V2000
   28.3048  -20.8072  -15.2500 N   0  0  0  0  0  0  0  0  0  0  0  0
   27.2542  -19.9896  -14.7573 C   0  0  1  0  0  0  0  0  0  0  0  0
   26.5556  -19.1762  -15.8254 C   0  0  0  0  0  0  0  0  0  0  0  0
   27.5297  -18.2977  -16.4789 C   0  0  0  0  0  0  0  0  0  0  0  0
   28.0204  -18.4331  -17.7498 C   0  0  0  0  0  0  0  0  0  0  0  0
   28.8978  -17.4258  -17.9871 N   0  0  0  0  0  0  0  0  0  0  0  0
   28.9318  -16.6906  -16.8620 C   0  0  0  0  0  0  0  0  0  0  0  0
   28.1073  -17.2144  -15.9508 N   0  0  0  0  0  0  0  0  0  0  0  0
   26.2380  -20.6930  -13.9362 C   0  0  0  0  0  0  0  0  0  0  0  0
   25.9239  -21.8886  -14.2486 O   0  0  0  0  0  0  0  0  0  0  0  0
   29.2395  -21.5438   -7.6241 O   0  0  0  0  0  0  0  0  0  0  0  0
   28.0926  -21.2462   -8.3767 C   0  0  0  0  0  0  0  0  0  0  0  0
   27.2026  -20.2787   -7.9642 C   0  0  0  0  0  0  0  0  0  0  0  0
   26.0732  -19.9800   -8.6978 C   0  0  0  0  0  0  0  0  0  0  0  0
   25.7808  -20.6320   -9.8742 C   0  0  0  0  0  0  0  0  0  0  0  0
   24.5948  -20.3416  -10.6762 C   0  0  0  0  0  0  0  0  0  0  0  0
   24.5818  -20.9401  -12.0575 C   0  0  2  0  0  0  0  0  0  0  0  0
   25.5714  -20.1569  -12.8206 N   0  0  0  0  0  0  0  0  0  0  0  0
   23.2680  -20.8161  -12.7287 C   0  0  0  0  0  0  0  0  0  0  0  0
   22.8903  -19.7212  -13.2041 O   0  0  0  0  0  0  0  0  0  0  0  0
   26.6730  -21.6027  -10.2887 C   0  0  0  0  0  0  0  0  0  0  0  0
   27.8146  -21.9085   -9.5528 C   0  0  0  0  0  0  0  0  0  0  0  0
   22.4094  -21.9351  -12.8483 N   0  0  0  0  0  0  0  0  0  0  0  0
   21.1150  -21.8363  -13.4937 C   0  0  1  0  0  0  0  0  0  0  0  0
   20.4883  -23.1898  -13.7120 C   0  0  0  0  0  0  0  0  0  0  0  0
   19.1475  -23.1158  -14.3386 C   0  0  0  0  0  0  0  0  0  0  0  0
   18.0793  -22.9811  -13.7100 O   0  0  0  0  0  0  0  0  0  0  0  0
   20.1665  -20.9969  -12.7422 C   0  0  0  0  0  0  0  0  0  0  0  0
   19.2348  -20.2669  -13.4631 O   0  0  0  0  0  0  0  0  0  0  0  0
   19.0786  -23.2041  -15.7379 O   0  0  0  0  0  0  0  0  0  0  0  0
   20.1468  -20.9003  -11.5009 O   0  0  0  0  0  0  0  0  0  0  0  0
  2  1  1  6
  3  2  1  0
  3  4  1  0
  4  5  2  0
  5  6  1  0
  7  6  1  0
  8  4  1  0
  8  7  2  0
  9 18  1  0
  9  2  1  0
 10  9  2  0
 11 12  1  0
 12 13  2  0
 13 14  1  0
 15 16  1  0
 15 14  2  0
 17 16  1  1
 17 18  1  0
 19 17  1  0
 20 19  2  0
 21 15  1  0
 22 21  2  0
 22 12  1  0
 23 19  1  0
 24 23  1  0
 25 26  1  0
 24 25  1  1
 26 27  2  0
 28 29  1  0
 28 24  1  0
 30 26  1  0
 31 28  2  0
M  END
$$$$
