HYD.pdb
     RDKit          3D

 31 32  0  0  1  0  0  0  0  0999 V2000
   24.4310  -14.8811  -18.0845 N   0  0  0  0  0  0  0  0  0  0  0  0
   23.6189  -13.7748  -18.4471 C   0  0  1  0  0  0  0  0  0  0  0  0
   22.1531  -14.1152  -18.6091 C   0  0  0  0  0  0  0  0  0  0  0  0
   22.0110  -15.1782  -19.6079 C   0  0  0  0  0  0  0  0  0  0  0  0
   22.0997  -15.0327  -20.9664 C   0  0  0  0  0  0  0  0  0  0  0  0
   21.9121  -16.2445  -21.5470 N   0  0  0  0  0  0  0  0  0  0  0  0
   21.7117  -17.1118  -20.5393 C   0  0  0  0  0  0  0  0  0  0  0  0
   21.7709  -16.4710  -19.3687 N   0  0  0  0  0  0  0  0  0  0  0  0
   23.7497  -12.5819  -17.5746 C   0  0  0  0  0  0  0  0  0  0  0  0
   23.6686  -12.7391  -16.3118 O   0  0  0  0  0  0  0  0  0  0  0  0
   30.0807  -12.8244  -16.5766 O   0  0  0  0  0  0  0  0  0  0  0  0
   28.9535  -12.0195  -16.8036 C   0  0  0  0  0  0  0  0  0  0  0  0
   28.3314  -11.9972  -18.0328 C   0  0  0  0  0  0  0  0  0  0  0  0
   27.2231  -11.2091  -18.2643 C   0  0  0  0  0  0  0  0  0  0  0  0
   26.6861  -10.4087  -17.2817 C   0  0  0  0  0  0  0  0  0  0  0  0
   25.5142   -9.5620  -17.4914 C   0  0  0  0  0  0  0  0  0  0  0  0
   24.1980  -10.1577  -17.0684 C   0  0  2  0  0  0  0  0  0  0  0  0
   23.9591  -11.2634  -18.0148 N   0  0  0  0  0  0  0  0  0  0  0  0
   23.0717   -9.2022  -17.1705 C   0  0  0  0  0  0  0  0  0  0  0  0
   22.5632   -8.9249  -18.2804 O   0  0  0  0  0  0  0  0  0  0  0  0
   27.3095  -10.4304  -16.0484 C   0  0  0  0  0  0  0  0  0  0  0  0
   28.4281  -11.2238  -15.8087 C   0  0  0  0  0  0  0  0  0  0  0  0
   22.5442   -8.5809  -16.0131 N   0  0  0  0  0  0  0  0  0  0  0  0
   21.4018   -7.6909  -16.0801 C   0  0  1  0  0  0  0  0  0  0  0  0
   20.8176   -7.4187  -14.7174 C   0  0  0  0  0  0  0  0  0  0  0  0
   19.6281   -6.5360  -14.7601 C   0  0  0  0  0  0  0  0  0  0  0  0
   18.9984   -6.2470  -15.7966 O   0  0  0  0  0  0  0  0  0  0  0  0
   21.7201   -6.4027  -16.7189 C   0  0  0  0  0  0  0  0  0  0  0  0
   22.9790   -5.8652  -16.5020 O   0  0  0  0  0  0  0  0  0  0  0  0
   19.1816   -5.9884  -13.5471 O   0  0  0  0  0  0  0  0  0  0  0  0
   20.9319   -5.7645  -17.4414 O   0  0  0  0  0  0  0  0  0  0  0  0
  2  1  1  1
  3  2  1  0
  3  4  1  0
  4  5  2  0
  5  6  1  0
  7  6  1  0
  8  4  1  0
  8  7  2  0
  9 18  1  0
  9  2  1  0
 10  9  2  0
 11 12  1  0
 12 13  2  0
 13 14  1  0
 15 16  1  0
 15 14  2  0
 17 16  1  6
 17 18  1  0
 19 17  1  0
 20 19  2  0
 21 15  1  0
 22 21  2  0
 22 12  1  0
 23 19  1  0
 24 23  1  0
 25 26  1  0
 24 25  1  1
 26 27  2  0
 28 29  1  0
 28 24  1  0
 30 26  1  0
 31 28  2  0
M  END
$$$$
