HYD.pdb
     RDKit          3D

 31 32  0  0  1  0  0  0  0  0999 V2000
   22.8094  -14.3047  -17.5578 N   0  0  0  0  0  0  0  0  0  0  0  0
   21.9002  -13.2147  -17.5713 C   0  0  1  0  0  0  0  0  0  0  0  0
   20.4754  -13.5985  -17.2344 C   0  0  0  0  0  0  0  0  0  0  0  0
   19.9773  -14.5401  -18.2408 C   0  0  0  0  0  0  0  0  0  0  0  0
   20.6759  -15.0273  -19.3127 C   0  0  0  0  0  0  0  0  0  0  0  0
   19.8728  -15.8709  -20.0085 N   0  0  0  0  0  0  0  0  0  0  0  0
   18.6979  -15.8881  -19.3551 C   0  0  0  0  0  0  0  0  0  0  0  0
   18.7585  -15.0861  -18.2885 N   0  0  0  0  0  0  0  0  0  0  0  0
   22.2999  -12.0480  -16.7463 C   0  0  0  0  0  0  0  0  0  0  0  0
   22.4983  -12.2234  -15.4990 O   0  0  0  0  0  0  0  0  0  0  0  0
   28.7214  -12.2467  -16.1526 O   0  0  0  0  0  0  0  0  0  0  0  0
   27.5757  -11.4539  -16.3230 C   0  0  0  0  0  0  0  0  0  0  0  0
   26.8800  -11.4559  -17.5123 C   0  0  0  0  0  0  0  0  0  0  0  0
   25.7532  -10.6799  -17.6882 C   0  0  0  0  0  0  0  0  0  0  0  0
   25.2699   -9.8680  -16.6872 C   0  0  0  0  0  0  0  0  0  0  0  0
   24.0804   -9.0336  -16.8384 C   0  0  0  0  0  0  0  0  0  0  0  0
   22.8018   -9.6219  -16.3042 C   0  0  2  0  0  0  0  0  0  0  0  0
   22.4854  -10.7364  -17.2168 N   0  0  0  0  0  0  0  0  0  0  0  0
   21.6725   -8.6647  -16.3247 C   0  0  0  0  0  0  0  0  0  0  0  0
   21.1658   -8.2920  -17.4071 O   0  0  0  0  0  0  0  0  0  0  0  0
   25.9672   -9.8654  -15.4939 C   0  0  0  0  0  0  0  0  0  0  0  0
   27.1050  -10.6464  -15.3104 C   0  0  0  0  0  0  0  0  0  0  0  0
   21.1398   -8.1500  -15.1184 N   0  0  0  0  0  0  0  0  0  0  0  0
   20.0919   -7.1481  -15.1150 C   0  0  1  0  0  0  0  0  0  0  0  0
   19.0556   -7.4189  -14.0542 C   0  0  0  0  0  0  0  0  0  0  0  0
   17.7004   -6.9542  -14.4329 C   0  0  0  0  0  0  0  0  0  0  0  0
   17.4211   -6.3894  -15.5087 O   0  0  0  0  0  0  0  0  0  0  0  0
   20.6101   -5.7827  -14.9255 C   0  0  0  0  0  0  0  0  0  0  0  0
   19.7635   -4.7228  -15.2096 O   0  0  0  0  0  0  0  0  0  0  0  0
   16.6606   -7.1662  -13.5139 O   0  0  0  0  0  0  0  0  0  0  0  0
   21.7596   -5.5180  -14.5265 O   0  0  0  0  0  0  0  0  0  0  0  0
  2  1  1  1
  3  2  1  0
  3  4  1  0
  4  5  2  0
  5  6  1  0
  7  6  1  0
  8  4  1  0
  8  7  2  0
  9 18  1  0
  9  2  1  0
 10  9  2  0
 11 12  1  0
 12 13  2  0
 13 14  1  0
 15 16  1  0
 15 14  2  0
 17 16  1  6
 17 18  1  0
 19 17  1  0
 20 19  2  0
 21 15  1  0
 22 21  2  0
 22 12  1  0
 23 19  1  0
 24 23  1  0
 25 26  1  0
 24 25  1  1
 26 27  2  0
 28 29  1  0
 28 24  1  0
 30 26  1  0
 31 28  2  0
M  END
$$$$
