HYD.pdb
     RDKit          3D

 31 32  0  0  1  0  0  0  0  0999 V2000
   26.7278  -20.6821  -19.6001 N   0  0  0  0  0  0  0  0  0  0  0  0
   26.0209  -19.7993  -18.7422 C   0  0  1  0  0  0  0  0  0  0  0  0
   24.8942  -19.0521  -19.4224 C   0  0  0  0  0  0  0  0  0  0  0  0
   25.4570  -18.0146  -20.2912 C   0  0  0  0  0  0  0  0  0  0  0  0
   26.3260  -17.0255  -19.9161 C   0  0  0  0  0  0  0  0  0  0  0  0
   26.6147  -16.2651  -21.0021 N   0  0  0  0  0  0  0  0  0  0  0  0
   25.9205  -16.7976  -22.0231 C   0  0  0  0  0  0  0  0  0  0  0  0
   25.2215  -17.8530  -21.5967 N   0  0  0  0  0  0  0  0  0  0  0  0
   25.5157  -20.4077  -17.4868 C   0  0  0  0  0  0  0  0  0  0  0  0
   25.1510  -21.6293  -17.5057 O   0  0  0  0  0  0  0  0  0  0  0  0
   23.7337  -21.5184   -8.7811 O   0  0  0  0  0  0  0  0  0  0  0  0
   24.1999  -21.1236  -10.0449 C   0  0  0  0  0  0  0  0  0  0  0  0
   25.3191  -21.7021  -10.6027 C   0  0  0  0  0  0  0  0  0  0  0  0
   25.7838  -21.3201  -11.8440 C   0  0  0  0  0  0  0  0  0  0  0  0
   25.1543  -20.3452  -12.5841 C   0  0  0  0  0  0  0  0  0  0  0  0
   25.6183  -19.9161  -13.9011 C   0  0  0  0  0  0  0  0  0  0  0  0
   24.8150  -20.4214  -15.0696 C   0  0  2  0  0  0  0  0  0  0  0  0
   25.3966  -19.7528  -16.2486 N   0  0  0  0  0  0  0  0  0  0  0  0
   23.3818  -20.0594  -14.9854 C   0  0  0  0  0  0  0  0  0  0  0  0
   23.0109  -18.8706  -15.1143 O   0  0  0  0  0  0  0  0  0  0  0  0
   24.0316  -19.7643  -12.0253 C   0  0  0  0  0  0  0  0  0  0  0  0
   23.5577  -20.1457  -10.7730 C   0  0  0  0  0  0  0  0  0  0  0  0
   22.3983  -21.0516  -14.7577 N   0  0  0  0  0  0  0  0  0  0  0  0
   21.0006  -20.7113  -14.5777 C   0  0  1  0  0  0  0  0  0  0  0  0
   20.1333  -21.2936  -15.6645 C   0  0  0  0  0  0  0  0  0  0  0  0
   18.7029  -20.9337  -15.5227 C   0  0  0  0  0  0  0  0  0  0  0  0
   18.2646  -19.7666  -15.5123 O   0  0  0  0  0  0  0  0  0  0  0  0
   20.4720  -21.1459  -13.2736 C   0  0  0  0  0  0  0  0  0  0  0  0
   19.5211  -20.3457  -12.6603 O   0  0  0  0  0  0  0  0  0  0  0  0
   17.7791  -21.9826  -15.3909 O   0  0  0  0  0  0  0  0  0  0  0  0
   20.8236  -22.1858  -12.6858 O   0  0  0  0  0  0  0  0  0  0  0  0
  2  1  1  6
  3  2  1  0
  3  4  1  0
  4  5  2  0
  5  6  1  0
  7  6  1  0
  8  4  1  0
  8  7  2  0
  9 18  1  0
  9  2  1  0
 10  9  2  0
 11 12  1  0
 12 13  2  0
 13 14  1  0
 15 16  1  0
 15 14  2  0
 17 16  1  1
 17 18  1  0
 19 17  1  0
 20 19  2  0
 21 15  1  0
 22 21  2  0
 22 12  1  0
 23 19  1  0
 24 23  1  0
 25 26  1  0
 24 25  1  6
 26 27  2  0
 28 29  1  0
 28 24  1  0
 30 26  1  0
 31 28  2  0
M  END
$$$$
