HYD.pdb
     RDKit          3D

 31 32  0  0  1  0  0  0  0  0999 V2000
   28.8706  -21.2113  -18.4760 N   0  0  0  0  0  0  0  0  0  0  0  0
   27.7004  -20.5209  -18.0651 C   0  0  1  0  0  0  0  0  0  0  0  0
   26.6039  -20.4948  -19.1080 C   0  0  0  0  0  0  0  0  0  0  0  0
   27.0599  -19.7273  -20.2702 C   0  0  0  0  0  0  0  0  0  0  0  0
   27.4022  -20.2351  -21.4947 C   0  0  0  0  0  0  0  0  0  0  0  0
   27.7709  -19.2099  -22.3033 N   0  0  0  0  0  0  0  0  0  0  0  0
   27.6497  -18.0929  -21.5649 C   0  0  0  0  0  0  0  0  0  0  0  0
   27.2210  -18.4024  -20.3382 N   0  0  0  0  0  0  0  0  0  0  0  0
   27.1301  -20.9605  -16.7677 C   0  0  0  0  0  0  0  0  0  0  0  0
   26.9940  -22.2101  -16.5544 O   0  0  0  0  0  0  0  0  0  0  0  0
   25.1459  -20.8298   -8.0578 O   0  0  0  0  0  0  0  0  0  0  0  0
   25.5399  -20.5519   -9.3760 C   0  0  0  0  0  0  0  0  0  0  0  0
   24.8291  -19.6691  -10.1596 C   0  0  0  0  0  0  0  0  0  0  0  0
   25.2094  -19.3903  -11.4559 C   0  0  0  0  0  0  0  0  0  0  0  0
   26.3142  -19.9785  -12.0286 C   0  0  0  0  0  0  0  0  0  0  0  0
   26.7458  -19.7068  -13.3975 C   0  0  0  0  0  0  0  0  0  0  0  0
   26.2117  -20.6459  -14.4458 C   0  0  2  0  0  0  0  0  0  0  0  0
   26.7149  -20.1131  -15.7257 N   0  0  0  0  0  0  0  0  0  0  0  0
   24.7323  -20.6719  -14.4986 C   0  0  0  0  0  0  0  0  0  0  0  0
   24.0911  -19.7268  -15.0113 O   0  0  0  0  0  0  0  0  0  0  0  0
   27.0277  -20.8642  -11.2433 C   0  0  0  0  0  0  0  0  0  0  0  0
   26.6489  -21.1495   -9.9344 C   0  0  0  0  0  0  0  0  0  0  0  0
   24.0098  -21.7685  -13.9703 N   0  0  0  0  0  0  0  0  0  0  0  0
   22.5616  -21.8191  -14.0153 C   0  0  1  0  0  0  0  0  0  0  0  0
   22.0402  -23.2227  -13.8414 C   0  0  0  0  0  0  0  0  0  0  0  0
   22.5753  -24.1709  -14.8467 C   0  0  0  0  0  0  0  0  0  0  0  0
   22.7318  -23.9070  -16.0551 O   0  0  0  0  0  0  0  0  0  0  0  0
   21.9299  -20.9562  -13.0029 C   0  0  0  0  0  0  0  0  0  0  0  0
   22.7421  -20.3992  -12.0278 O   0  0  0  0  0  0  0  0  0  0  0  0
   22.9297  -25.4552  -14.4043 O   0  0  0  0  0  0  0  0  0  0  0  0
   20.7131  -20.6940  -12.9656 O   0  0  0  0  0  0  0  0  0  0  0  0
  2  1  1  6
  3  2  1  0
  3  4  1  0
  4  5  2  0
  5  6  1  0
  7  6  1  0
  8  4  1  0
  8  7  2  0
  9 18  1  0
  9  2  1  0
 10  9  2  0
 11 12  1  0
 12 13  2  0
 13 14  1  0
 15 16  1  0
 15 14  2  0
 17 16  1  1
 17 18  1  0
 19 17  1  0
 20 19  2  0
 21 15  1  0
 22 21  2  0
 22 12  1  0
 23 19  1  0
 24 23  1  0
 25 26  1  0
 24 25  1  1
 26 27  2  0
 28 29  1  0
 28 24  1  0
 30 26  1  0
 31 28  2  0
M  END
$$$$
