HYD.pdb
     RDKit          3D

 31 32  0  0  1  0  0  0  0  0999 V2000
   28.1861  -20.2474  -18.7912 N   0  0  0  0  0  0  0  0  0  0  0  0
   27.2045  -19.5106  -18.0783 C   0  0  1  0  0  0  0  0  0  0  0  0
   26.0181  -19.0925  -18.9199 C   0  0  0  0  0  0  0  0  0  0  0  0
   26.3213  -17.8230  -19.5864 C   0  0  0  0  0  0  0  0  0  0  0  0
   26.7635  -16.6756  -18.9845 C   0  0  0  0  0  0  0  0  0  0  0  0
   26.9288  -15.7215  -19.9350 N   0  0  0  0  0  0  0  0  0  0  0  0
   26.5865  -16.2964  -21.1012 C   0  0  0  0  0  0  0  0  0  0  0  0
   26.2197  -17.5639  -20.8936 N   0  0  0  0  0  0  0  0  0  0  0  0
   26.7175  -20.1491  -16.8306 C   0  0  0  0  0  0  0  0  0  0  0  0
   26.2936  -21.3503  -16.8866 O   0  0  0  0  0  0  0  0  0  0  0  0
   25.1420  -21.4242   -8.0915 O   0  0  0  0  0  0  0  0  0  0  0  0
   25.5793  -21.0013   -9.3565 C   0  0  0  0  0  0  0  0  0  0  0  0
   26.5624  -21.6877  -10.0352 C   0  0  0  0  0  0  0  0  0  0  0  0
   26.9979  -21.2790  -11.2787 C   0  0  0  0  0  0  0  0  0  0  0  0
   26.4733  -20.1687  -11.9005 C   0  0  0  0  0  0  0  0  0  0  0  0
   26.9102  -19.7074  -13.2159 C   0  0  0  0  0  0  0  0  0  0  0  0
   26.1296  -20.2452  -14.3854 C   0  0  2  0  0  0  0  0  0  0  0  0
   26.6765  -19.5443  -15.5623 N   0  0  0  0  0  0  0  0  0  0  0  0
   24.6810  -19.9523  -14.2971 C   0  0  0  0  0  0  0  0  0  0  0  0
   24.2438  -18.8004  -14.5192 O   0  0  0  0  0  0  0  0  0  0  0  0
   25.4871  -19.4795  -11.2203 C   0  0  0  0  0  0  0  0  0  0  0  0
   25.0434  -19.8872   -9.9652 C   0  0  0  0  0  0  0  0  0  0  0  0
   23.7574  -20.9706  -13.9600 N   0  0  0  0  0  0  0  0  0  0  0  0
   22.3311  -20.7171  -13.9044 C   0  0  1  0  0  0  0  0  0  0  0  0
   21.5386  -21.7958  -14.5977 C   0  0  0  0  0  0  0  0  0  0  0  0
   20.0850  -21.5115  -14.6435 C   0  0  0  0  0  0  0  0  0  0  0  0
   19.5903  -20.3917  -14.8796 O   0  0  0  0  0  0  0  0  0  0  0  0
   21.8301  -20.5807  -12.5262 C   0  0  0  0  0  0  0  0  0  0  0  0
   20.7374  -19.7555  -12.3123 O   0  0  0  0  0  0  0  0  0  0  0  0
   19.2062  -22.5796  -14.4039 O   0  0  0  0  0  0  0  0  0  0  0  0
   22.3243  -21.1586  -11.5401 O   0  0  0  0  0  0  0  0  0  0  0  0
  2  1  1  6
  3  2  1  0
  3  4  1  0
  4  5  2  0
  5  6  1  0
  7  6  1  0
  8  4  1  0
  8  7  2  0
  9 18  1  0
  9  2  1  0
 10  9  2  0
 11 12  1  0
 12 13  2  0
 13 14  1  0
 15 16  1  0
 15 14  2  0
 17 16  1  1
 17 18  1  0
 19 17  1  0
 20 19  2  0
 21 15  1  0
 22 21  2  0
 22 12  1  0
 23 19  1  0
 24 23  1  0
 25 26  1  0
 24 25  1  1
 26 27  2  0
 28 29  1  0
 28 24  1  0
 30 26  1  0
 31 28  2  0
M  END
$$$$
