HYD.pdb
     RDKit          3D

 31 32  0  0  1  0  0  0  0  0999 V2000
   28.1987  -21.5525  -16.6767 N   0  0  0  0  0  0  0  0  0  0  0  0
   27.3338  -20.5708  -16.1261 C   0  0  1  0  0  0  0  0  0  0  0  0
   26.4322  -19.9055  -17.1435 C   0  0  0  0  0  0  0  0  0  0  0  0
   27.1929  -18.8845  -17.8693 C   0  0  0  0  0  0  0  0  0  0  0  0
   28.5019  -18.5441  -17.6575 C   0  0  0  0  0  0  0  0  0  0  0  0
   28.8417  -17.5595  -18.5270 N   0  0  0  0  0  0  0  0  0  0  0  0
   27.7396  -17.3118  -19.2562 C   0  0  0  0  0  0  0  0  0  0  0  0
   26.7437  -18.1098  -18.8614 N   0  0  0  0  0  0  0  0  0  0  0  0
   26.5179  -21.0230  -14.9722 C   0  0  0  0  0  0  0  0  0  0  0  0
   26.1257  -22.2359  -14.9417 O   0  0  0  0  0  0  0  0  0  0  0  0
   31.1484  -22.0324  -10.2301 O   0  0  0  0  0  0  0  0  0  0  0  0
   29.8607  -21.5752  -10.5513 C   0  0  0  0  0  0  0  0  0  0  0  0
   29.6698  -20.6003  -11.5060 C   0  0  0  0  0  0  0  0  0  0  0  0
   28.4078  -20.1454  -11.8276 C   0  0  0  0  0  0  0  0  0  0  0  0
   27.2809  -20.6417  -11.2126 C   0  0  0  0  0  0  0  0  0  0  0  0
   25.9301  -20.1837  -11.5281 C   0  0  0  0  0  0  0  0  0  0  0  0
   25.3198  -20.7689  -12.7736 C   0  0  2  0  0  0  0  0  0  0  0  0
   26.1252  -20.2255  -13.8833 N   0  0  0  0  0  0  0  0  0  0  0  0
   23.9109  -20.3605  -12.9737 C   0  0  0  0  0  0  0  0  0  0  0  0
   23.6220  -19.1851  -13.2934 O   0  0  0  0  0  0  0  0  0  0  0  0
   27.4716  -21.6197  -10.2547 C   0  0  0  0  0  0  0  0  0  0  0  0
   28.7426  -22.0828   -9.9259 C   0  0  0  0  0  0  0  0  0  0  0  0
   22.8582  -21.2923  -12.8083 N   0  0  0  0  0  0  0  0  0  0  0  0
   21.4766  -20.9335  -13.0619 C   0  0  1  0  0  0  0  0  0  0  0  0
   20.7628  -21.9793  -13.8798 C   0  0  0  0  0  0  0  0  0  0  0  0
   19.3394  -21.6513  -14.1291 C   0  0  0  0  0  0  0  0  0  0  0  0
   18.3846  -22.0875  -13.4565 O   0  0  0  0  0  0  0  0  0  0  0  0
   20.7115  -20.7041  -11.8246 C   0  0  0  0  0  0  0  0  0  0  0  0
   19.5338  -19.9793  -11.9157 O   0  0  0  0  0  0  0  0  0  0  0  0
   19.0489  -20.7890  -15.1982 O   0  0  0  0  0  0  0  0  0  0  0  0
   21.0535  -21.1191  -10.7015 O   0  0  0  0  0  0  0  0  0  0  0  0
  2  1  1  6
  3  2  1  0
  3  4  1  0
  4  5  2  0
  5  6  1  0
  7  6  1  0
  8  4  1  0
  8  7  2  0
  9 18  1  0
  9  2  1  0
 10  9  2  0
 11 12  1  0
 12 13  2  0
 13 14  1  0
 15 16  1  0
 15 14  2  0
 17 16  1  1
 17 18  1  0
 19 17  1  0
 20 19  2  0
 21 15  1  0
 22 21  2  0
 22 12  1  0
 23 19  1  0
 24 23  1  0
 25 26  1  0
 24 25  1  1
 26 27  2  0
 28 29  1  0
 28 24  1  0
 30 26  1  0
 31 28  2  0
M  END
$$$$
