HYD.pdb
     RDKit          3D

 31 32  0  0  1  0  0  0  0  0999 V2000
   20.6688  -12.9427  -19.9319 N   0  0  0  0  0  0  0  0  0  0  0  0
   21.3574  -12.0714  -19.0477 C   0  0  1  0  0  0  0  0  0  0  0  0
   22.8379  -11.9469  -19.3364 C   0  0  0  0  0  0  0  0  0  0  0  0
   23.4559  -13.2743  -19.2751 C   0  0  0  0  0  0  0  0  0  0  0  0
   23.8005  -13.9576  -18.1399 C   0  0  0  0  0  0  0  0  0  0  0  0
   24.3447  -15.1481  -18.4969 N   0  0  0  0  0  0  0  0  0  0  0  0
   24.3257  -15.1767  -19.8409 C   0  0  0  0  0  0  0  0  0  0  0  0
   23.7900  -14.0476  -20.3127 N   0  0  0  0  0  0  0  0  0  0  0  0
   20.7704  -10.7155  -18.9121 C   0  0  0  0  0  0  0  0  0  0  0  0
   20.6836   -9.9827  -19.9520 O   0  0  0  0  0  0  0  0  0  0  0  0
   16.0889  -12.6246  -13.8391 O   0  0  0  0  0  0  0  0  0  0  0  0
   16.6018  -11.7583  -14.8173 C   0  0  0  0  0  0  0  0  0  0  0  0
   17.0080  -12.2331  -16.0452 C   0  0  0  0  0  0  0  0  0  0  0  0
   17.5131  -11.3887  -17.0121 C   0  0  0  0  0  0  0  0  0  0  0  0
   17.6356  -10.0345  -16.7982 C   0  0  0  0  0  0  0  0  0  0  0  0
   18.1656   -9.1114  -17.7987 C   0  0  0  0  0  0  0  0  0  0  0  0
   19.6396   -8.8221  -17.6997 C   0  0  2  0  0  0  0  0  0  0  0  0
   20.2894  -10.1459  -17.7204 N   0  0  0  0  0  0  0  0  0  0  0  0
   20.0109   -8.1377  -16.4404 C   0  0  0  0  0  0  0  0  0  0  0  0
   20.4336   -8.7869  -15.4570 O   0  0  0  0  0  0  0  0  0  0  0  0
   17.2283   -9.5574  -15.5666 C   0  0  0  0  0  0  0  0  0  0  0  0
   16.7177  -10.4046  -14.5870 C   0  0  0  0  0  0  0  0  0  0  0  0
   19.8966   -6.7318  -16.3214 N   0  0  0  0  0  0  0  0  0  0  0  0
   20.2378   -6.0412  -15.0932 C   0  0  1  0  0  0  0  0  0  0  0  0
   21.4808   -5.2018  -15.2443 C   0  0  0  0  0  0  0  0  0  0  0  0
   21.8340   -4.4584  -14.0121 C   0  0  0  0  0  0  0  0  0  0  0  0
   21.2408   -4.5738  -12.9216 O   0  0  0  0  0  0  0  0  0  0  0  0
   19.1484   -5.1804  -14.6023 C   0  0  0  0  0  0  0  0  0  0  0  0
   19.2354   -4.7013  -13.3048 O   0  0  0  0  0  0  0  0  0  0  0  0
   22.9122   -3.5620  -14.0807 O   0  0  0  0  0  0  0  0  0  0  0  0
   18.1538   -4.8547  -15.2770 O   0  0  0  0  0  0  0  0  0  0  0  0
  2  1  1  6
  3  2  1  0
  3  4  1  0
  4  5  2  0
  5  6  1  0
  7  6  1  0
  8  4  1  0
  8  7  2  0
  9 18  1  0
  9  2  1  0
 10  9  2  0
 11 12  1  0
 12 13  2  0
 13 14  1  0
 15 16  1  0
 15 14  2  0
 17 16  1  1
 17 18  1  0
 19 17  1  0
 20 19  2  0
 21 15  1  0
 22 21  2  0
 22 12  1  0
 23 19  1  0
 24 23  1  0
 25 26  1  0
 24 25  1  6
 26 27  2  0
 28 29  1  0
 28 24  1  0
 30 26  1  0
 31 28  2  0
M  END
$$$$
