HYD.pdb
     RDKit          3D

 31 32  0  0  1  0  0  0  0  0999 V2000
   13.3653  -13.3258  -14.1644 N   0  0  0  0  0  0  0  0  0  0  0  0
   14.4855  -12.8623  -13.4259 C   0  0  1  0  0  0  0  0  0  0  0  0
   15.7935  -13.5142  -13.8192 C   0  0  0  0  0  0  0  0  0  0  0  0
   15.6658  -14.9688  -13.6944 C   0  0  0  0  0  0  0  0  0  0  0  0
   15.7278  -15.8795  -14.7147 C   0  0  0  0  0  0  0  0  0  0  0  0
   15.5658  -17.1236  -14.1980 N   0  0  0  0  0  0  0  0  0  0  0  0
   15.4072  -16.9574  -12.8733 C   0  0  0  0  0  0  0  0  0  0  0  0
   15.4672  -15.6585  -12.5670 N   0  0  0  0  0  0  0  0  0  0  0  0
   14.6614  -11.3892  -13.4025 C   0  0  0  0  0  0  0  0  0  0  0  0
   14.7621  -10.7702  -14.5127 O   0  0  0  0  0  0  0  0  0  0  0  0
   10.9992  -10.4754   -7.3251 O   0  0  0  0  0  0  0  0  0  0  0  0
   11.6264  -10.0019   -8.4881 C   0  0  0  0  0  0  0  0  0  0  0  0
   12.6378   -9.0686   -8.4209 C   0  0  0  0  0  0  0  0  0  0  0  0
   13.2595   -8.5980   -9.5589 C   0  0  0  0  0  0  0  0  0  0  0  0
   12.9010   -9.0363  -10.8135 C   0  0  0  0  0  0  0  0  0  0  0  0
   13.5373   -8.5601  -12.0392 C   0  0  0  0  0  0  0  0  0  0  0  0
   14.9020   -9.1273  -12.3256 C   0  0  2  0  0  0  0  0  0  0  0  0
   14.7299  -10.5901  -12.2480 N   0  0  0  0  0  0  0  0  0  0  0  0
   15.9176   -8.7216  -11.3275 C   0  0  0  0  0  0  0  0  0  0  0  0
   16.4017   -9.5550  -10.5285 O   0  0  0  0  0  0  0  0  0  0  0  0
   11.8865   -9.9725  -10.8817 C   0  0  0  0  0  0  0  0  0  0  0  0
   11.2555  -10.4512   -9.7369 C   0  0  0  0  0  0  0  0  0  0  0  0
   16.3645   -7.3804  -11.2558 N   0  0  0  0  0  0  0  0  0  0  0  0
   17.4285   -6.9793  -10.3565 C   0  0  1  0  0  0  0  0  0  0  0  0
   18.7567   -6.8796  -11.0625 C   0  0  0  0  0  0  0  0  0  0  0  0
   19.8742   -6.5328  -10.1532 C   0  0  0  0  0  0  0  0  0  0  0  0
   19.8024   -6.5416   -8.9086 O   0  0  0  0  0  0  0  0  0  0  0  0
   17.1559   -5.6954   -9.6884 C   0  0  0  0  0  0  0  0  0  0  0  0
   17.7241   -5.4792   -8.4430 O   0  0  0  0  0  0  0  0  0  0  0  0
   21.0980   -6.1693  -10.7372 O   0  0  0  0  0  0  0  0  0  0  0  0
   16.4481   -4.7910  -10.1697 O   0  0  0  0  0  0  0  0  0  0  0  0
  2  1  1  6
  3  2  1  0
  3  4  1  0
  4  5  2  0
  5  6  1  0
  7  6  1  0
  8  4  1  0
  8  7  2  0
  9 18  1  0
  9  2  1  0
 10  9  2  0
 11 12  1  0
 12 13  2  0
 13 14  1  0
 15 16  1  0
 15 14  2  0
 17 16  1  1
 17 18  1  0
 19 17  1  0
 20 19  2  0
 21 15  1  0
 22 21  2  0
 22 12  1  0
 23 19  1  0
 24 23  1  0
 25 26  1  0
 24 25  1  6
 26 27  2  0
 28 29  1  0
 28 24  1  0
 30 26  1  0
 31 28  2  0
M  END
$$$$
