HYD.pdb
     RDKit          3D

 31 32  0  0  1  0  0  0  0  0999 V2000
   25.6860  -24.1451  -16.9347 N   0  0  0  0  0  0  0  0  0  0  0  0
   25.1978  -22.8128  -16.9726 C   0  0  1  0  0  0  0  0  0  0  0  0
   24.9276  -22.2965  -18.3695 C   0  0  0  0  0  0  0  0  0  0  0  0
   26.1764  -22.3004  -19.1365 C   0  0  0  0  0  0  0  0  0  0  0  0
   27.1682  -21.3586  -19.0773 C   0  0  0  0  0  0  0  0  0  0  0  0
   28.1580  -21.7144  -19.9344 N   0  0  0  0  0  0  0  0  0  0  0  0
   27.7593  -22.8651  -20.5044 C   0  0  0  0  0  0  0  0  0  0  0  0
   26.5643  -23.2206  -20.0246 N   0  0  0  0  0  0  0  0  0  0  0  0
   24.0147  -22.5487  -16.1170 C   0  0  0  0  0  0  0  0  0  0  0  0
   23.1561  -23.4783  -15.9611 O   0  0  0  0  0  0  0  0  0  0  0  0
   19.0083  -18.8457   -9.6914 O   0  0  0  0  0  0  0  0  0  0  0  0
   19.9983  -19.2066  -10.6187 C   0  0  0  0  0  0  0  0  0  0  0  0
   20.2887  -18.4014  -11.6984 C   0  0  0  0  0  0  0  0  0  0  0  0
   21.2600  -18.7486  -12.6144 C   0  0  0  0  0  0  0  0  0  0  0  0
   21.9845  -19.9128  -12.4950 C   0  0  0  0  0  0  0  0  0  0  0  0
   23.0197  -20.3116  -13.4455 C   0  0  0  0  0  0  0  0  0  0  0  0
   22.5589  -21.1909  -14.5772 C   0  0  2  0  0  0  0  0  0  0  0  0
   23.7413  -21.3444  -15.4453 N   0  0  0  0  0  0  0  0  0  0  0  0
   21.4686  -20.5837  -15.3738 C   0  0  0  0  0  0  0  0  0  0  0  0
   21.7023  -19.6536  -16.1785 O   0  0  0  0  0  0  0  0  0  0  0  0
   21.6938  -20.7211  -11.4123 C   0  0  0  0  0  0  0  0  0  0  0  0
   20.7148  -20.3760  -10.4845 C   0  0  0  0  0  0  0  0  0  0  0  0
   20.1361  -21.0431  -15.2430 N   0  0  0  0  0  0  0  0  0  0  0  0
   19.0319  -20.3753  -15.9036 C   0  0  1  0  0  0  0  0  0  0  0  0
   18.3098  -21.2900  -16.8598 C   0  0  0  0  0  0  0  0  0  0  0  0
   17.2111  -20.6165  -17.5914 C   0  0  0  0  0  0  0  0  0  0  0  0
   17.1296  -19.3851  -17.7685 O   0  0  0  0  0  0  0  0  0  0  0  0
   18.0512  -19.8216  -14.9547 C   0  0  0  0  0  0  0  0  0  0  0  0
   18.1369  -20.2173  -13.6292 O   0  0  0  0  0  0  0  0  0  0  0  0
   16.1923  -21.4242  -18.1209 O   0  0  0  0  0  0  0  0  0  0  0  0
   17.1498  -19.0207  -15.2654 O   0  0  0  0  0  0  0  0  0  0  0  0
  2  1  1  6
  3  2  1  0
  3  4  1  0
  4  5  2  0
  5  6  1  0
  7  6  1  0
  8  4  1  0
  8  7  2  0
  9 18  1  0
  9  2  1  0
 10  9  2  0
 11 12  1  0
 12 13  2  0
 13 14  1  0
 15 16  1  0
 15 14  2  0
 17 16  1  1
 17 18  1  0
 19 17  1  0
 20 19  2  0
 21 15  1  0
 22 21  2  0
 22 12  1  0
 23 19  1  0
 24 23  1  0
 25 26  1  0
 24 25  1  6
 26 27  2  0
 28 29  1  0
 28 24  1  0
 30 26  1  0
 31 28  2  0
M  END
$$$$
