HYD.pdb
     RDKit          3D

 31 32  0  0  1  0  0  0  0  0999 V2000
   20.9656  -12.4608  -17.1184 N   0  0  0  0  0  0  0  0  0  0  0  0
   21.1946  -11.0811  -17.3607 C   0  0  1  0  0  0  0  0  0  0  0  0
   20.7354  -10.6119  -18.7244 C   0  0  0  0  0  0  0  0  0  0  0  0
   21.3636  -11.4399  -19.7576 C   0  0  0  0  0  0  0  0  0  0  0  0
   22.5705  -11.2081  -20.3609 C   0  0  0  0  0  0  0  0  0  0  0  0
   22.8042  -12.1964  -21.2607 N   0  0  0  0  0  0  0  0  0  0  0  0
   21.7406  -13.0163  -21.1958 C   0  0  0  0  0  0  0  0  0  0  0  0
   20.8703  -12.5622  -20.2898 N   0  0  0  0  0  0  0  0  0  0  0  0
   20.6655  -10.1610  -16.3239 C   0  0  0  0  0  0  0  0  0  0  0  0
   19.4787  -10.3444  -15.8952 O   0  0  0  0  0  0  0  0  0  0  0  0
   20.3603   -5.1051   -9.0478 O   0  0  0  0  0  0  0  0  0  0  0  0
   20.7134   -5.8646  -10.1742 C   0  0  0  0  0  0  0  0  0  0  0  0
   21.4277   -5.3074  -11.2123 C   0  0  0  0  0  0  0  0  0  0  0  0
   21.7788   -6.0466  -12.3227 C   0  0  0  0  0  0  0  0  0  0  0  0
   21.4337   -7.3732  -12.4479 C   0  0  0  0  0  0  0  0  0  0  0  0
   21.7885   -8.1859  -13.6088 C   0  0  0  0  0  0  0  0  0  0  0  0
   20.7595   -8.2351  -14.7065 C   0  0  2  0  0  0  0  0  0  0  0  0
   21.3615   -9.0805  -15.7545 N   0  0  0  0  0  0  0  0  0  0  0  0
   20.4700   -6.9043  -15.2873 C   0  0  0  0  0  0  0  0  0  0  0  0
   21.3147   -6.3172  -16.0007 O   0  0  0  0  0  0  0  0  0  0  0  0
   20.7170   -7.9330  -11.4071 C   0  0  0  0  0  0  0  0  0  0  0  0
   20.3600   -7.1920  -10.2838 C   0  0  0  0  0  0  0  0  0  0  0  0
   19.2291   -6.2664  -15.0486 N   0  0  0  0  0  0  0  0  0  0  0  0
   18.9516   -4.9317  -15.5417 C   0  0  1  0  0  0  0  0  0  0  0  0
   17.5135   -4.7740  -15.9651 C   0  0  0  0  0  0  0  0  0  0  0  0
   17.2096   -3.4269  -16.5025 C   0  0  0  0  0  0  0  0  0  0  0  0
   17.8706   -2.8540  -17.3909 O   0  0  0  0  0  0  0  0  0  0  0  0
   19.2672   -3.8835  -14.5564 C   0  0  0  0  0  0  0  0  0  0  0  0
   19.9636   -2.7689  -14.9963 O   0  0  0  0  0  0  0  0  0  0  0  0
   16.0994   -2.7510  -15.9721 O   0  0  0  0  0  0  0  0  0  0  0  0
   18.9490   -3.9331  -13.3536 O   0  0  0  0  0  0  0  0  0  0  0  0
  2  1  1  1
  3  2  1  0
  3  4  1  0
  4  5  2  0
  5  6  1  0
  7  6  1  0
  8  4  1  0
  8  7  2  0
  9 18  1  0
  9  2  1  0
 10  9  2  0
 11 12  1  0
 12 13  2  0
 13 14  1  0
 15 16  1  0
 15 14  2  0
 17 16  1  1
 17 18  1  0
 19 17  1  0
 20 19  2  0
 21 15  1  0
 22 21  2  0
 22 12  1  0
 23 19  1  0
 24 23  1  0
 25 26  1  0
 24 25  1  1
 26 27  2  0
 28 29  1  0
 28 24  1  0
 30 26  1  0
 31 28  2  0
M  END
$$$$
