GFN.pdb
     RDKit          3D

 24 24  0  0  1  0  0  0  0  0999 V2000
   28.5897  -22.2415  -14.6861 N   0  0  0  0  0  0  0  0  0  0  0  0
   27.9739  -20.9705  -14.3552 C   0  0  0  0  0  0  0  0  0  0  0  0
   26.8027  -21.2531  -13.4783 C   0  0  0  0  0  0  0  0  0  0  0  0
   26.2534  -22.3899  -13.4964 O   0  0  0  0  0  0  0  0  0  0  0  0
   26.2541  -20.2950  -12.6022 N   0  0  0  0  0  0  0  0  0  0  0  0
   25.0520  -20.6054  -11.8125 C   0  0  1  0  0  0  0  0  0  0  0  0
   24.9732  -19.5946  -10.6823 C   0  0  0  0  0  0  0  0  0  0  0  0
   25.8492  -19.9083   -9.5494 C   0  0  0  0  0  0  0  0  0  0  0  0
   25.5815  -20.9697   -8.7156 C   0  0  0  0  0  0  0  0  0  0  0  0
   26.4079  -21.2646   -7.6708 C   0  0  0  0  0  0  0  0  0  0  0  0
   27.5188  -20.4747   -7.4689 C   0  0  0  0  0  0  0  0  0  0  0  0
   27.8148  -19.4063   -8.2847 C   0  0  0  0  0  0  0  0  0  0  0  0
   26.9689  -19.1133   -9.3446 C   0  0  0  0  0  0  0  0  0  0  0  0
   23.8497  -20.5752  -12.6640 C   0  0  0  0  0  0  0  0  0  0  0  0
   23.8032  -19.7384  -13.6131 O   0  0  0  0  0  0  0  0  0  0  0  0
   20.5488  -23.7634  -15.8976 N   0  0  0  0  0  0  0  0  0  0  0  0
   20.3434  -23.3026  -14.5548 C   0  0  0  0  0  0  0  0  0  0  0  0
   19.1334  -23.0404  -14.2299 O   0  0  0  0  0  0  0  0  0  0  0  0
   21.4403  -23.1295  -13.5811 C   0  0  0  0  0  0  0  0  0  0  0  0
   21.7584  -21.6656  -13.4513 C   0  0  2  0  0  0  0  0  0  0  0  0
   22.7863  -21.4511  -12.4272 N   0  0  0  0  0  0  0  0  0  0  0  0
   20.5320  -20.9246  -13.1049 C   0  0  0  0  0  0  0  0  0  0  0  0
   20.1925  -20.8440  -11.8884 O   0  0  0  0  0  0  0  0  0  0  0  0
   19.7149  -20.2995  -14.0375 O   0  0  0  0  0  0  0  0  0  0  0  0
  1  2  1  0
  3  2  1  0
  3  4  2  0
  5  3  1  0
  6 14  1  0
  6  5  1  0
  6  7  1  1
  8  7  1  0
  9  8  2  0
 10  9  1  0
 11 12  1  0
 11 10  2  0
 12 13  2  0
 13  8  1  0
 14 21  1  0
 15 14  2  0
 16 17  1  0
 17 18  2  0
 20 19  1  1
 19 17  1  0
 21 20  1  0
 22 24  1  0
 22 20  1  0
 23 22  2  0
M  END
$$$$
