GFN.pdb
     RDKit          3D

 24 24  0  0  1  0  0  0  0  0999 V2000
   27.0221  -22.1804  -15.5579 N   0  0  0  0  0  0  0  0  0  0  0  0
   27.8527  -21.4639  -14.6088 C   0  0  0  0  0  0  0  0  0  0  0  0
   27.2112  -21.5847  -13.2692 C   0  0  0  0  0  0  0  0  0  0  0  0
   26.1396  -22.2384  -13.1330 O   0  0  0  0  0  0  0  0  0  0  0  0
   27.7475  -20.9925  -12.1080 N   0  0  0  0  0  0  0  0  0  0  0  0
   27.0244  -21.0666  -10.8287 C   0  0  1  0  0  0  0  0  0  0  0  0
   28.0206  -20.7700   -9.7220 C   0  0  0  0  0  0  0  0  0  0  0  0
   27.3942  -20.4514   -8.4354 C   0  0  0  0  0  0  0  0  0  0  0  0
   27.8819  -19.4421   -7.6372 C   0  0  0  0  0  0  0  0  0  0  0  0
   27.2864  -19.1416   -6.4470 C   0  0  0  0  0  0  0  0  0  0  0  0
   26.1836  -19.8724   -6.0613 C   0  0  0  0  0  0  0  0  0  0  0  0
   25.6712  -20.8877   -6.8366 C   0  0  0  0  0  0  0  0  0  0  0  0
   26.2831  -21.1869   -8.0453 C   0  0  0  0  0  0  0  0  0  0  0  0
   25.8915  -20.1243  -10.8177 C   0  0  0  0  0  0  0  0  0  0  0  0
   26.1087  -18.9156  -11.1257 O   0  0  0  0  0  0  0  0  0  0  0  0
   21.3274  -19.3061  -12.8366 N   0  0  0  0  0  0  0  0  0  0  0  0
   22.3656  -20.1032  -13.4235 C   0  0  0  0  0  0  0  0  0  0  0  0
   22.2339  -20.3685  -14.6688 O   0  0  0  0  0  0  0  0  0  0  0  0
   23.5294  -20.6040  -12.6645 C   0  0  0  0  0  0  0  0  0  0  0  0
   23.4422  -20.1121  -11.2463 C   0  0  2  0  0  0  0  0  0  0  0  0
   24.6074  -20.5575  -10.4746 N   0  0  0  0  0  0  0  0  0  0  0  0
   22.2007  -20.6114  -10.6278 C   0  0  0  0  0  0  0  0  0  0  0  0
   22.2135  -21.7458  -10.0669 O   0  0  0  0  0  0  0  0  0  0  0  0
   21.0028  -19.9091  -10.6186 O   0  0  0  0  0  0  0  0  0  0  0  0
  1  2  1  0
  3  2  1  0
  3  4  2  0
  5  3  1  0
  6 14  1  0
  6  5  1  0
  6  7  1  1
  8  7  1  0
  9  8  2  0
 10  9  1  0
 11 12  1  0
 11 10  2  0
 12 13  2  0
 13  8  1  0
 14 21  1  0
 15 14  2  0
 16 17  1  0
 17 18  2  0
 20 19  1  6
 19 17  1  0
 21 20  1  0
 22 24  1  0
 22 20  1  0
 23 22  2  0
M  END
$$$$
