GFN.pdb
     RDKit          3D

 24 24  0  0  1  0  0  0  0  0999 V2000
   31.5211  -22.3130  -10.1366 N   0  0  0  0  0  0  0  0  0  0  0  0
   30.9401  -21.0058   -9.8964 C   0  0  0  0  0  0  0  0  0  0  0  0
   29.5060  -21.2088   -9.5458 C   0  0  0  0  0  0  0  0  0  0  0  0
   29.0462  -22.3751   -9.3956 O   0  0  0  0  0  0  0  0  0  0  0  0
   28.6036  -20.1409   -9.3669 N   0  0  0  0  0  0  0  0  0  0  0  0
   27.2103  -20.3979   -8.9700 C   0  0  1  0  0  0  0  0  0  0  0  0
   26.8501  -19.3950   -7.8884 C   0  0  0  0  0  0  0  0  0  0  0  0
   27.5113  -19.6500   -6.6050 C   0  0  0  0  0  0  0  0  0  0  0  0
   28.6533  -18.9714   -6.2459 C   0  0  0  0  0  0  0  0  0  0  0  0
   29.2566  -19.2036   -5.0443 C   0  0  0  0  0  0  0  0  0  0  0  0
   28.6957  -20.1342   -4.1967 C   0  0  0  0  0  0  0  0  0  0  0  0
   27.5544  -20.8295   -4.5260 C   0  0  0  0  0  0  0  0  0  0  0  0
   26.9475  -20.5874   -5.7500 C   0  0  0  0  0  0  0  0  0  0  0  0
   26.3125  -20.2993  -10.1343 C   0  0  0  0  0  0  0  0  0  0  0  0
   26.4984  -19.3594  -10.9620 O   0  0  0  0  0  0  0  0  0  0  0  0
   24.1813  -22.9365  -14.5517 N   0  0  0  0  0  0  0  0  0  0  0  0
   23.5911  -22.7921  -13.2524 C   0  0  0  0  0  0  0  0  0  0  0  0
   22.3143  -22.7057  -13.2219 O   0  0  0  0  0  0  0  0  0  0  0  0
   24.3805  -22.7420  -12.0051 C   0  0  0  0  0  0  0  0  0  0  0  0
   24.5776  -21.3065  -11.6035 C   0  0  2  0  0  0  0  0  0  0  0  0
   25.2799  -21.2234  -10.3183 N   0  0  0  0  0  0  0  0  0  0  0  0
   23.2675  -20.6369  -11.5120 C   0  0  0  0  0  0  0  0  0  0  0  0
   22.7565  -20.1529  -12.5638 O   0  0  0  0  0  0  0  0  0  0  0  0
   22.5470  -20.5018  -10.3326 O   0  0  0  0  0  0  0  0  0  0  0  0
  1  2  1  0
  3  2  1  0
  3  4  2  0
  5  3  1  0
  6 14  1  0
  6  5  1  0
  6  7  1  1
  8  7  1  0
  9  8  2  0
 10  9  1  0
 11 12  1  0
 11 10  2  0
 12 13  2  0
 13  8  1  0
 14 21  1  0
 15 14  2  0
 16 17  1  0
 17 18  2  0
 20 19  1  1
 19 17  1  0
 21 20  1  0
 22 24  1  0
 22 20  1  0
 23 22  2  0
M  END
$$$$
