GFN.pdb
     RDKit          3D

 24 24  0  0  1  0  0  0  0  0999 V2000
   26.1462  -19.9680  -16.1174 N   0  0  0  0  0  0  0  0  0  0  0  0
   25.0207  -20.7881  -16.5231 C   0  0  0  0  0  0  0  0  0  0  0  0
   23.8995  -20.5103  -15.5816 C   0  0  0  0  0  0  0  0  0  0  0  0
   24.1072  -20.4763  -14.3366 O   0  0  0  0  0  0  0  0  0  0  0  0
   22.5782  -20.2765  -16.0131 N   0  0  0  0  0  0  0  0  0  0  0  0
   21.5068  -20.0225  -15.0371 C   0  0  1  0  0  0  0  0  0  0  0  0
   20.6423  -18.9024  -15.5877 C   0  0  0  0  0  0  0  0  0  0  0  0
   21.2847  -17.5855  -15.5415 C   0  0  0  0  0  0  0  0  0  0  0  0
   21.1499  -16.7662  -14.4441 C   0  0  0  0  0  0  0  0  0  0  0  0
   21.7612  -15.5472  -14.4016 C   0  0  0  0  0  0  0  0  0  0  0  0
   22.5181  -15.1539  -15.4839 C   0  0  0  0  0  0  0  0  0  0  0  0
   22.6729  -15.9497  -16.5963 C   0  0  0  0  0  0  0  0  0  0  0  0
   22.0476  -17.1877  -16.6313 C   0  0  0  0  0  0  0  0  0  0  0  0
   20.7286  -21.2492  -14.7901 C   0  0  0  0  0  0  0  0  0  0  0  0
   20.8067  -22.1930  -15.6303 O   0  0  0  0  0  0  0  0  0  0  0  0
   19.5604  -25.7562  -12.1414 N   0  0  0  0  0  0  0  0  0  0  0  0
   19.0802  -24.4627  -11.7494 C   0  0  0  0  0  0  0  0  0  0  0  0
   17.9742  -24.4456  -11.1052 O   0  0  0  0  0  0  0  0  0  0  0  0
   19.7943  -23.2066  -12.0555 C   0  0  0  0  0  0  0  0  0  0  0  0
   19.2599  -22.6357  -13.3398 C   0  0  2  0  0  0  0  0  0  0  0  0
   19.9230  -21.3654  -13.6535 N   0  0  0  0  0  0  0  0  0  0  0  0
   17.8044  -22.4345  -13.2207 C   0  0  0  0  0  0  0  0  0  0  0  0
   17.3789  -21.3723  -12.6800 O   0  0  0  0  0  0  0  0  0  0  0  0
   16.8571  -23.3449  -13.6700 O   0  0  0  0  0  0  0  0  0  0  0  0
  1  2  1  0
  3  2  1  0
  3  4  2  0
  5  3  1  0
  6 14  1  0
  6  5  1  0
  6  7  1  6
  8  7  1  0
  9  8  2  0
 10  9  1  0
 11 12  1  0
 11 10  2  0
 12 13  2  0
 13  8  1  0
 14 21  1  0
 15 14  2  0
 16 17  1  0
 17 18  2  0
 20 19  1  1
 19 17  1  0
 21 20  1  0
 22 24  1  0
 22 20  1  0
 23 22  2  0
M  END
$$$$
