GFN.pdb
     RDKit          3D

 24 24  0  0  1  0  0  0  0  0999 V2000
   28.3169  -23.7946  -17.3001 N   0  0  0  0  0  0  0  0  0  0  0  0
   28.0433  -22.4135  -16.9513 C   0  0  0  0  0  0  0  0  0  0  0  0
   27.0944  -22.4196  -15.8023 C   0  0  0  0  0  0  0  0  0  0  0  0
   26.5367  -23.4938  -15.4428 O   0  0  0  0  0  0  0  0  0  0  0  0
   26.7719  -21.2590  -15.0703 N   0  0  0  0  0  0  0  0  0  0  0  0
   25.9404  -21.3457  -13.8595 C   0  0  1  0  0  0  0  0  0  0  0  0
   26.4514  -20.3062  -12.8780 C   0  0  0  0  0  0  0  0  0  0  0  0
   25.8036  -20.3678  -11.5643 C   0  0  0  0  0  0  0  0  0  0  0  0
   24.5566  -19.8231  -11.3597 C   0  0  0  0  0  0  0  0  0  0  0  0
   23.9532  -19.8954  -10.1381 C   0  0  0  0  0  0  0  0  0  0  0  0
   24.6214  -20.5273   -9.1120 C   0  0  0  0  0  0  0  0  0  0  0  0
   25.8692  -21.0824   -9.2839 C   0  0  0  0  0  0  0  0  0  0  0  0
   26.4756  -21.0042  -10.5293 C   0  0  0  0  0  0  0  0  0  0  0  0
   24.5192  -21.1400  -14.1903 C   0  0  0  0  0  0  0  0  0  0  0  0
   24.2049  -20.1485  -14.9122 O   0  0  0  0  0  0  0  0  0  0  0  0
   19.7186  -21.8687  -15.3420 N   0  0  0  0  0  0  0  0  0  0  0  0
   20.0595  -22.9501  -14.4635 C   0  0  0  0  0  0  0  0  0  0  0  0
   19.2175  -23.9124  -14.4043 O   0  0  0  0  0  0  0  0  0  0  0  0
   21.2991  -22.9821  -13.6611 C   0  0  0  0  0  0  0  0  0  0  0  0
   22.1217  -21.7634  -13.9755 C   0  0  2  0  0  0  0  0  0  0  0  0
   23.5424  -22.0207  -13.7165 N   0  0  0  0  0  0  0  0  0  0  0  0
   21.6526  -20.6291  -13.1592 C   0  0  0  0  0  0  0  0  0  0  0  0
   21.1721  -19.6152  -13.7448 O   0  0  0  0  0  0  0  0  0  0  0  0
   21.7022  -20.6001  -11.7718 O   0  0  0  0  0  0  0  0  0  0  0  0
  1  2  1  0
  3  2  1  0
  3  4  2  0
  5  3  1  0
  6 14  1  0
  6  5  1  0
  6  7  1  1
  8  7  1  0
  9  8  2  0
 10  9  1  0
 11 12  1  0
 11 10  2  0
 12 13  2  0
 13  8  1  0
 14 21  1  0
 15 14  2  0
 16 17  1  0
 17 18  2  0
 20 19  1  1
 19 17  1  0
 21 20  1  0
 22 24  1  0
 22 20  1  0
 23 22  2  0
M  END
$$$$
