GFN.pdb
     RDKit          3D

 24 24  0  0  1  0  0  0  0  0999 V2000
   20.6507  -12.1536  -20.1196 N   0  0  0  0  0  0  0  0  0  0  0  0
   21.7453  -12.2278  -19.1707 C   0  0  0  0  0  0  0  0  0  0  0  0
   21.3529  -11.4385  -17.9692 C   0  0  0  0  0  0  0  0  0  0  0  0
   20.4304  -11.8491  -17.2111 O   0  0  0  0  0  0  0  0  0  0  0  0
   21.9705  -10.2210  -17.6184 N   0  0  0  0  0  0  0  0  0  0  0  0
   21.4951   -9.4479  -16.4604 C   0  0  1  0  0  0  0  0  0  0  0  0
   22.7132   -9.0414  -15.6503 C   0  0  0  0  0  0  0  0  0  0  0  0
   22.3933   -8.2267  -14.4742 C   0  0  0  0  0  0  0  0  0  0  0  0
   22.0253   -8.8099  -13.2834 C   0  0  0  0  0  0  0  0  0  0  0  0
   21.7416   -8.0467  -12.1886 C   0  0  0  0  0  0  0  0  0  0  0  0
   21.8323   -6.6764  -12.3019 C   0  0  0  0  0  0  0  0  0  0  0  0
   22.1977   -6.0621  -13.4783 C   0  0  0  0  0  0  0  0  0  0  0  0
   22.4841   -6.8458  -14.5868 C   0  0  0  0  0  0  0  0  0  0  0  0
   20.7119   -8.2805  -16.9020 C   0  0  0  0  0  0  0  0  0  0  0  0
   21.1422   -7.5995  -17.8788 O   0  0  0  0  0  0  0  0  0  0  0  0
   15.4431   -5.2888  -16.5948 N   0  0  0  0  0  0  0  0  0  0  0  0
   16.5608   -5.8980  -17.2561 C   0  0  0  0  0  0  0  0  0  0  0  0
   16.9090   -5.3724  -18.3700 O   0  0  0  0  0  0  0  0  0  0  0  0
   17.2875   -7.0629  -16.7118 C   0  0  0  0  0  0  0  0  0  0  0  0
   18.7593   -6.7567  -16.6828 C   0  0  2  0  0  0  0  0  0  0  0  0
   19.5217   -7.9347  -16.2554 N   0  0  0  0  0  0  0  0  0  0  0  0
   19.0091   -5.6287  -15.7673 C   0  0  0  0  0  0  0  0  0  0  0  0
   19.2717   -4.4924  -16.2587 O   0  0  0  0  0  0  0  0  0  0  0  0
   18.9734   -5.7317  -14.3830 O   0  0  0  0  0  0  0  0  0  0  0  0
  1  2  1  0
  3  2  1  0
  3  4  2  0
  5  3  1  0
  6 14  1  0
  6  5  1  0
  6  7  1  6
  8  7  1  0
  9  8  2  0
 10  9  1  0
 11 12  1  0
 11 10  2  0
 12 13  2  0
 13  8  1  0
 14 21  1  0
 15 14  2  0
 16 17  1  0
 17 18  2  0
 20 19  1  1
 19 17  1  0
 21 20  1  0
 22 24  1  0
 22 20  1  0
 23 22  2  0
M  END
$$$$
