GFN.pdb
     RDKit          3D

 24 24  0  0  1  0  0  0  0  0999 V2000
   31.5059  -22.3690  -10.0353 N   0  0  0  0  0  0  0  0  0  0  0  0
   30.8807  -21.0613  -10.0907 C   0  0  0  0  0  0  0  0  0  0  0  0
   29.4436  -21.2348   -9.7368 C   0  0  0  0  0  0  0  0  0  0  0  0
   28.9557  -22.3917   -9.6041 O   0  0  0  0  0  0  0  0  0  0  0  0
   28.5687  -20.1481   -9.5356 N   0  0  0  0  0  0  0  0  0  0  0  0
   27.1783  -20.3762   -9.1118 C   0  0  1  0  0  0  0  0  0  0  0  0
   26.8359  -19.3191   -8.0771 C   0  0  0  0  0  0  0  0  0  0  0  0
   27.3181  -19.6360   -6.7294 C   0  0  0  0  0  0  0  0  0  0  0  0
   28.2522  -18.8430   -6.1033 C   0  0  0  0  0  0  0  0  0  0  0  0
   28.6873  -19.1357   -4.8436 C   0  0  0  0  0  0  0  0  0  0  0  0
   28.1693  -20.2450   -4.2112 C   0  0  0  0  0  0  0  0  0  0  0  0
   27.2339  -21.0583   -4.8098 C   0  0  0  0  0  0  0  0  0  0  0  0
   26.7973  -20.7535   -6.0909 C   0  0  0  0  0  0  0  0  0  0  0  0
   26.2684  -20.3292  -10.2700 C   0  0  0  0  0  0  0  0  0  0  0  0
   26.4805  -19.4636  -11.1693 O   0  0  0  0  0  0  0  0  0  0  0  0
   23.6109  -23.6148  -14.1755 N   0  0  0  0  0  0  0  0  0  0  0  0
   23.1764  -22.9610  -12.9750 C   0  0  0  0  0  0  0  0  0  0  0  0
   21.9930  -22.4736  -12.9977 O   0  0  0  0  0  0  0  0  0  0  0  0
   24.0191  -22.8398  -11.7681 C   0  0  0  0  0  0  0  0  0  0  0  0
   24.5199  -21.4265  -11.6560 C   0  0  2  0  0  0  0  0  0  0  0  0
   25.1964  -21.2206  -10.3709 N   0  0  0  0  0  0  0  0  0  0  0  0
   23.3883  -20.4915  -11.7913 C   0  0  0  0  0  0  0  0  0  0  0  0
   22.7612  -20.1399  -10.7498 O   0  0  0  0  0  0  0  0  0  0  0  0
   22.9605  -19.9628  -13.0020 O   0  0  0  0  0  0  0  0  0  0  0  0
  1  2  1  0
  3  2  1  0
  3  4  2  0
  5  3  1  0
  6 14  1  0
  6  5  1  0
  6  7  1  1
  8  7  1  0
  9  8  2  0
 10  9  1  0
 11 12  1  0
 11 10  2  0
 12 13  2  0
 13  8  1  0
 14 21  1  0
 15 14  2  0
 16 17  1  0
 17 18  2  0
 20 19  1  1
 19 17  1  0
 21 20  1  0
 22 24  1  0
 22 20  1  0
 23 22  2  0
M  END
$$$$
