GFN.pdb
     RDKit          3D

 24 24  0  0  1  0  0  0  0  0999 V2000
   28.5559  -21.7698  -16.9938 N   0  0  0  0  0  0  0  0  0  0  0  0
   27.9165  -20.6245  -16.3746 C   0  0  0  0  0  0  0  0  0  0  0  0
   27.1647  -21.1174  -15.1862 C   0  0  0  0  0  0  0  0  0  0  0  0
   26.9497  -22.3526  -15.0361 O   0  0  0  0  0  0  0  0  0  0  0  0
   26.6627  -20.2581  -14.1880 N   0  0  0  0  0  0  0  0  0  0  0  0
   25.8930  -20.7967  -13.0556 C   0  0  1  0  0  0  0  0  0  0  0  0
   26.4133  -20.1344  -11.7923 C   0  0  0  0  0  0  0  0  0  0  0  0
   27.7432  -20.6002  -11.3878 C   0  0  0  0  0  0  0  0  0  0  0  0
   28.8616  -20.2868  -12.1256 C   0  0  0  0  0  0  0  0  0  0  0  0
   30.0983  -20.7121  -11.7368 C   0  0  0  0  0  0  0  0  0  0  0  0
   30.2027  -21.4637  -10.5865 C   0  0  0  0  0  0  0  0  0  0  0  0
   29.1038  -21.7942   -9.8263 C   0  0  0  0  0  0  0  0  0  0  0  0
   27.8500  -21.3577  -10.2292 C   0  0  0  0  0  0  0  0  0  0  0  0
   24.4515  -20.5601  -13.2487 C   0  0  0  0  0  0  0  0  0  0  0  0
   24.0694  -19.3995  -13.5803 O   0  0  0  0  0  0  0  0  0  0  0  0
   19.5801  -22.4378  -15.4966 N   0  0  0  0  0  0  0  0  0  0  0  0
   20.0840  -22.5299  -14.1568 C   0  0  0  0  0  0  0  0  0  0  0  0
   19.2163  -22.4238  -13.2218 O   0  0  0  0  0  0  0  0  0  0  0  0
   21.5123  -22.7340  -13.8408 C   0  0  0  0  0  0  0  0  0  0  0  0
   22.1263  -21.4156  -13.4588 C   0  0  2  0  0  0  0  0  0  0  0  0
   23.5289  -21.5949  -13.0689 N   0  0  0  0  0  0  0  0  0  0  0  0
   21.3613  -20.8200  -12.3484 C   0  0  0  0  0  0  0  0  0  0  0  0
   20.3756  -20.0738  -12.6194 O   0  0  0  0  0  0  0  0  0  0  0  0
   21.6536  -21.0277  -11.0068 O   0  0  0  0  0  0  0  0  0  0  0  0
  1  2  1  0
  3  2  1  0
  3  4  2  0
  5  3  1  0
  6 14  1  0
  6  5  1  0
  6  7  1  1
  8  7  1  0
  9  8  2  0
 10  9  1  0
 11 12  1  0
 11 10  2  0
 12 13  2  0
 13  8  1  0
 14 21  1  0
 15 14  2  0
 16 17  1  0
 17 18  2  0
 20 19  1  1
 19 17  1  0
 21 20  1  0
 22 24  1  0
 22 20  1  0
 23 22  2  0
M  END
$$$$
