GFN.pdb
     RDKit          3D

 24 24  0  0  1  0  0  0  0  0999 V2000
   18.2941  -10.8794  -17.4610 N   0  0  0  0  0  0  0  0  0  0  0  0
   19.6286  -10.4875  -17.0491 C   0  0  0  0  0  0  0  0  0  0  0  0
   19.4865   -9.3991  -16.0413 C   0  0  0  0  0  0  0  0  0  0  0  0
   18.6637   -9.5152  -15.0905 O   0  0  0  0  0  0  0  0  0  0  0  0
   20.2403   -8.2091  -16.0890 N   0  0  0  0  0  0  0  0  0  0  0  0
   20.0343   -7.1528  -15.0857 C   0  0  1  0  0  0  0  0  0  0  0  0
   21.3655   -6.9097  -14.3971 C   0  0  0  0  0  0  0  0  0  0  0  0
   21.7571   -7.9817  -13.4768 C   0  0  0  0  0  0  0  0  0  0  0  0
   21.2656   -8.0316  -12.1925 C   0  0  0  0  0  0  0  0  0  0  0  0
   21.6234   -9.0392  -11.3450 C   0  0  0  0  0  0  0  0  0  0  0  0
   22.4892  -10.0076  -11.8046 C   0  0  0  0  0  0  0  0  0  0  0  0
   22.9984   -9.9866  -13.0832 C   0  0  0  0  0  0  0  0  0  0  0  0
   22.6295   -8.9582  -13.9384 C   0  0  0  0  0  0  0  0  0  0  0  0
   19.5101   -5.9302  -15.7195 C   0  0  0  0  0  0  0  0  0  0  0  0
   20.1284   -5.4546  -16.7168 O   0  0  0  0  0  0  0  0  0  0  0  0
   14.5150   -2.7740  -16.9900 N   0  0  0  0  0  0  0  0  0  0  0  0
   15.8381   -3.3129  -17.1185 C   0  0  0  0  0  0  0  0  0  0  0  0
   16.5809   -2.7716  -18.0095 O   0  0  0  0  0  0  0  0  0  0  0  0
   16.3438   -4.4253  -16.2890 C   0  0  0  0  0  0  0  0  0  0  0  0
   17.7784   -4.1579  -15.9266 C   0  0  2  0  0  0  0  0  0  0  0  0
   18.3566   -5.3113  -15.2289 N   0  0  0  0  0  0  0  0  0  0  0  0
   17.8551   -2.9569  -15.0752 C   0  0  0  0  0  0  0  0  0  0  0  0
   17.1998   -2.9352  -13.9927 O   0  0  0  0  0  0  0  0  0  0  0  0
   18.6102   -1.8337  -15.3860 O   0  0  0  0  0  0  0  0  0  0  0  0
  1  2  1  0
  3  2  1  0
  3  4  2  0
  5  3  1  0
  6 14  1  0
  6  5  1  0
  6  7  1  6
  8  7  1  0
  9  8  2  0
 10  9  1  0
 11 12  1  0
 11 10  2  0
 12 13  2  0
 13  8  1  0
 14 21  1  0
 15 14  2  0
 16 17  1  0
 17 18  2  0
 20 19  1  1
 19 17  1  0
 21 20  1  0
 22 24  1  0
 22 20  1  0
 23 22  2  0
M  END
$$$$
