CMC.pdb
     RDKit          3D

 21 20  0  0  1  0  0  0  0  0999 V2000
   20.9064  -13.8293  -17.2126 N   0  0  0  0  0  0  0  0  0  0  0  0
   21.2487  -12.4993  -17.6642 C   0  0  1  0  0  0  0  0  0  0  0  0
   20.0266  -11.7164  -18.0821 C   0  0  0  0  0  0  0  0  0  0  0  0
   19.2445  -12.5295  -19.5015 S   0  0  0  0  0  0  0  0  0  0  0  0
   21.9633  -11.7948  -16.5680 C   0  0  0  0  0  0  0  0  0  0  0  0
   21.4911  -11.7177  -15.3985 O   0  0  0  0  0  0  0  0  0  0  0  0
   28.0995  -12.2206  -16.2557 C   0  0  0  0  0  0  0  0  0  0  0  0
   28.0728  -10.5330  -15.5784 S   0  0  0  0  0  0  0  0  0  0  0  0
   26.3656  -10.0889  -15.0893 C   0  0  0  0  0  0  0  0  0  0  0  0
   25.3771  -10.7423  -15.9896 C   0  0  0  0  0  0  0  0  0  0  0  0
   23.9376  -10.4444  -15.7397 C   0  0  2  0  0  0  0  0  0  0  0  0
   23.2100  -11.1777  -16.7917 N   0  0  0  0  0  0  0  0  0  0  0  0
   23.5410   -9.0425  -15.8344 C   0  0  0  0  0  0  0  0  0  0  0  0
   23.9344   -8.2442  -14.9108 O   0  0  0  0  0  0  0  0  0  0  0  0
   22.7590   -8.4530  -16.8480 N   0  0  0  0  0  0  0  0  0  0  0  0
   22.5050   -7.0266  -16.8421 C   0  0  1  0  0  0  0  0  0  0  0  0
   22.8700   -6.3819  -18.1614 C   0  0  0  0  0  0  0  0  0  0  0  0
   22.3993   -4.6155  -18.0127 S   0  0  0  0  0  0  0  0  0  0  0  0
   21.0644   -6.7604  -16.5971 C   0  0  0  0  0  0  0  0  0  0  0  0
   20.7128   -5.7528  -15.7350 O   0  0  0  0  0  0  0  0  0  0  0  0
   20.1921   -7.4561  -17.1779 O   0  0  0  0  0  0  0  0  0  0  0  0
  2  1  1  1
  2  5  1  0
  3  2  1  0
  3  4  1  0
  5  6  2  0
  7  8  1  0
  9 10  1  0
  9  8  1  0
 11 10  1  6
 11 13  1  0
 12 11  1  0
 12  5  1  0
 13 14  2  0
 13 15  1  0
 15 16  1  0
 16 19  1  0
 16 17  1  6
 18 17  1  0
 19 21  2  0
 19 20  1  0
M  END
$$$$
