CMC.pdb
     RDKit          3D

 21 20  0  0  1  0  0  0  0  0999 V2000
   29.8544  -30.5508  -18.3927 N   0  0  0  0  0  0  0  0  0  0  0  0
   30.5658  -31.0233  -17.2262 C   0  0  1  0  0  0  0  0  0  0  0  0
   29.8902  -32.2223  -16.6039 C   0  0  0  0  0  0  0  0  0  0  0  0
   28.5295  -31.6658  -15.5428 S   0  0  0  0  0  0  0  0  0  0  0  0
   31.9569  -31.3631  -17.6237 C   0  0  0  0  0  0  0  0  0  0  0  0
   32.2822  -31.5622  -18.8284 O   0  0  0  0  0  0  0  0  0  0  0  0
   36.7445  -28.6114  -15.0520 C   0  0  0  0  0  0  0  0  0  0  0  0
   37.6128  -30.2089  -15.0875 S   0  0  0  0  0  0  0  0  0  0  0  0
   36.6879  -31.3935  -16.1325 C   0  0  0  0  0  0  0  0  0  0  0  0
   35.2279  -31.1096  -16.0780 C   0  0  0  0  0  0  0  0  0  0  0  0
   34.3551  -31.8858  -17.0048 C   0  0  2  0  0  0  0  0  0  0  0  0
   32.9802  -31.4781  -16.6621 N   0  0  0  0  0  0  0  0  0  0  0  0
   34.4186  -33.3397  -16.8879 C   0  0  0  0  0  0  0  0  0  0  0  0
   33.9058  -33.8805  -15.8440 O   0  0  0  0  0  0  0  0  0  0  0  0
   34.9904  -34.2368  -17.8124 N   0  0  0  0  0  0  0  0  0  0  0  0
   35.0079  -35.6595  -17.5390 C   0  0  1  0  0  0  0  0  0  0  0  0
   34.6982  -36.4765  -18.7743 C   0  0  0  0  0  0  0  0  0  0  0  0
   34.2635  -38.1558  -18.1789 S   0  0  0  0  0  0  0  0  0  0  0  0
   36.3484  -36.0746  -17.0523 C   0  0  0  0  0  0  0  0  0  0  0  0
   37.3797  -35.1709  -17.0959 O   0  0  0  0  0  0  0  0  0  0  0  0
   36.5203  -37.2396  -16.6101 O   0  0  0  0  0  0  0  0  0  0  0  0
  2  1  1  6
  2  5  1  0
  3  2  1  0
  3  4  1  0
  5  6  2  0
  7  8  1  0
  9 10  1  0
  9  8  1  0
 11 10  1  1
 11 13  1  0
 12 11  1  0
 12  5  1  0
 13 14  2  0
 13 15  1  0
 15 16  1  0
 16 19  1  0
 16 17  1  6
 18 17  1  0
 19 21  2  0
 19 20  1  0
M  END
$$$$
