CMC.pdb
     RDKit          3D

 21 20  0  0  1  0  0  0  0  0999 V2000
   28.8887  -20.2270  -15.8007 N   0  0  0  0  0  0  0  0  0  0  0  0
   28.0706  -19.4441  -14.9020 C   0  0  1  0  0  0  0  0  0  0  0  0
   27.3024  -18.3694  -15.6343 C   0  0  0  0  0  0  0  0  0  0  0  0
   28.2891  -16.8491  -15.6839 S   0  0  0  0  0  0  0  0  0  0  0  0
   27.1347  -20.3568  -14.1949 C   0  0  0  0  0  0  0  0  0  0  0  0
   26.7097  -21.4237  -14.7219 O   0  0  0  0  0  0  0  0  0  0  0  0
   26.4913  -19.3232   -8.0259 C   0  0  0  0  0  0  0  0  0  0  0  0
   25.5586  -20.8845   -8.0342 S   0  0  0  0  0  0  0  0  0  0  0  0
   25.0679  -21.3038   -9.7472 C   0  0  0  0  0  0  0  0  0  0  0  0
   25.9723  -20.6424  -10.7268 C   0  0  0  0  0  0  0  0  0  0  0  0
   25.7279  -20.9283  -12.1697 C   0  0  2  0  0  0  0  0  0  0  0  0
   26.6790  -20.0653  -12.8940 N   0  0  0  0  0  0  0  0  0  0  0  0
   24.3925  -20.6207  -12.6732 C   0  0  0  0  0  0  0  0  0  0  0  0
   24.1113  -19.3932  -12.9168 O   0  0  0  0  0  0  0  0  0  0  0  0
   23.3544  -21.5390  -12.9289 N   0  0  0  0  0  0  0  0  0  0  0  0
   22.0778  -21.0798  -13.4374 C   0  0  1  0  0  0  0  0  0  0  0  0
   21.6452  -21.8553  -14.6625 C   0  0  0  0  0  0  0  0  0  0  0  0
   22.8401  -23.2352  -14.8404 S   0  0  0  0  0  0  0  0  0  0  0  0
   21.0218  -21.2465  -12.4062 C   0  0  0  0  0  0  0  0  0  0  0  0
   19.7525  -20.8028  -12.6782 O   0  0  0  0  0  0  0  0  0  0  0  0
   21.3020  -21.7874  -11.3057 O   0  0  0  0  0  0  0  0  0  0  0  0
  2  1  1  6
  2  5  1  0
  3  2  1  0
  3  4  1  0
  5  6  2  0
  7  8  1  0
  9 10  1  0
  9  8  1  0
 11 10  1  1
 11 13  1  0
 12 11  1  0
 12  5  1  0
 13 14  2  0
 13 15  1  0
 15 16  1  0
 16 19  1  0
 16 17  1  6
 18 17  1  0
 19 21  2  0
 19 20  1  0
M  END
$$$$
