CMC.pdb
     RDKit          3D

 21 20  0  0  1  0  0  0  0  0999 V2000
   24.5098  -12.5509  -15.4122 N   0  0  0  0  0  0  0  0  0  0  0  0
   24.7852  -11.8894  -16.6679 C   0  0  1  0  0  0  0  0  0  0  0  0
   24.8100  -12.8633  -17.8220 C   0  0  0  0  0  0  0  0  0  0  0  0
   25.8031  -14.3112  -17.3693 S   0  0  0  0  0  0  0  0  0  0  0  0
   23.7491  -10.8480  -16.8932 C   0  0  0  0  0  0  0  0  0  0  0  0
   23.7969  -10.0535  -17.8746 O   0  0  0  0  0  0  0  0  0  0  0  0
   17.4543  -11.9152  -15.9214 C   0  0  0  0  0  0  0  0  0  0  0  0
   17.7876  -10.2438  -16.5561 S   0  0  0  0  0  0  0  0  0  0  0  0
   19.1456   -9.4768  -15.5977 C   0  0  0  0  0  0  0  0  0  0  0  0
   20.3671  -10.3253  -15.6509 C   0  0  0  0  0  0  0  0  0  0  0  0
   21.5989   -9.6993  -16.2114 C   0  0  2  0  0  0  0  0  0  0  0  0
   22.6597  -10.7036  -16.0114 N   0  0  0  0  0  0  0  0  0  0  0  0
   22.0448   -8.4642  -15.5733 C   0  0  0  0  0  0  0  0  0  0  0  0
   22.5969   -8.5508  -14.4189 O   0  0  0  0  0  0  0  0  0  0  0  0
   21.9366   -7.1586  -16.0933 N   0  0  0  0  0  0  0  0  0  0  0  0
   22.3997   -6.0220  -15.3234 C   0  0  1  0  0  0  0  0  0  0  0  0
   22.7998   -4.8635  -16.2107 C   0  0  0  0  0  0  0  0  0  0  0  0
   23.2369   -3.4851  -15.0826 S   0  0  0  0  0  0  0  0  0  0  0  0
   21.3260   -5.5414  -14.4167 C   0  0  0  0  0  0  0  0  0  0  0  0
   20.0232   -5.8637  -14.7011 O   0  0  0  0  0  0  0  0  0  0  0  0
   21.6217   -4.8505  -13.4080 O   0  0  0  0  0  0  0  0  0  0  0  0
  2  1  1  1
  2  5  1  0
  3  2  1  0
  3  4  1  0
  5  6  2  0
  7  8  1  0
  9 10  1  0
  9  8  1  0
 11 10  1  1
 11 13  1  0
 12 11  1  0
 12  5  1  0
 13 14  2  0
 13 15  1  0
 15 16  1  0
 16 19  1  0
 16 17  1  6
 18 17  1  0
 19 21  2  0
 19 20  1  0
M  END
$$$$
