CMC.pdb
     RDKit          3D

 21 20  0  0  1  0  0  0  0  0999 V2000
   27.9586  -18.2995  -16.3501 N   0  0  0  0  0  0  0  0  0  0  0  0
   27.3943  -18.1021  -15.0338 C   0  0  1  0  0  0  0  0  0  0  0  0
   26.2753  -17.0877  -15.0491 C   0  0  0  0  0  0  0  0  0  0  0  0
   26.9711  -15.4235  -15.2327 S   0  0  0  0  0  0  0  0  0  0  0  0
   26.8995  -19.4091  -14.5284 C   0  0  0  0  0  0  0  0  0  0  0  0
   26.7732  -20.4165  -15.2807 O   0  0  0  0  0  0  0  0  0  0  0  0
   26.2629  -19.6907   -8.3208 C   0  0  0  0  0  0  0  0  0  0  0  0
   25.9864  -21.4762   -8.5282 S   0  0  0  0  0  0  0  0  0  0  0  0
   25.8102  -21.8733  -10.3065 C   0  0  0  0  0  0  0  0  0  0  0  0
   26.2701  -20.7329  -11.1449 C   0  0  0  0  0  0  0  0  0  0  0  0
   26.1092  -20.8731  -12.6206 C   0  0  2  0  0  0  0  0  0  0  0  0
   26.5473  -19.5790  -13.1748 N   0  0  0  0  0  0  0  0  0  0  0  0
   24.7529  -21.1153  -13.1036 C   0  0  0  0  0  0  0  0  0  0  0  0
   24.2288  -22.2624  -12.8700 O   0  0  0  0  0  0  0  0  0  0  0  0
   23.9350  -20.2119  -13.8117 N   0  0  0  0  0  0  0  0  0  0  0  0
   22.5972  -20.5950  -14.2148 C   0  0  1  0  0  0  0  0  0  0  0  0
   21.5374  -19.9149  -13.3759 C   0  0  0  0  0  0  0  0  0  0  0  0
   21.4358  -20.8682  -11.8124 S   0  0  0  0  0  0  0  0  0  0  0  0
   22.3573  -20.2174  -15.6312 C   0  0  0  0  0  0  0  0  0  0  0  0
   21.2050  -20.6390  -16.2446 O   0  0  0  0  0  0  0  0  0  0  0  0
   23.2065  -19.5219  -16.2456 O   0  0  0  0  0  0  0  0  0  0  0  0
  2  1  1  6
  2  5  1  0
  3  2  1  0
  3  4  1  0
  5  6  2  0
  7  8  1  0
  9 10  1  0
  9  8  1  0
 11 10  1  1
 11 13  1  0
 12 11  1  0
 12  5  1  0
 13 14  2  0
 13 15  1  0
 15 16  1  0
 16 19  1  0
 16 17  1  1
 18 17  1  0
 19 21  2  0
 19 20  1  0
M  END
$$$$
