CMC.pdb
     RDKit          3D

 21 20  0  0  1  0  0  0  0  0999 V2000
   14.1621  -12.4549  -10.8907 N   0  0  0  0  0  0  0  0  0  0  0  0
   12.9540  -11.6735  -11.0312 C   0  0  1  0  0  0  0  0  0  0  0  0
   11.9004  -12.0838  -10.0297 C   0  0  0  0  0  0  0  0  0  0  0  0
   12.0658  -13.8531   -9.6695 S   0  0  0  0  0  0  0  0  0  0  0  0
   13.2952  -10.2369  -10.8623 C   0  0  0  0  0  0  0  0  0  0  0  0
   12.4226   -9.3258  -10.9339 O   0  0  0  0  0  0  0  0  0  0  0  0
   14.9852   -4.4753   -7.2117 C   0  0  0  0  0  0  0  0  0  0  0  0
   14.4472   -6.1017   -7.8224 S   0  0  0  0  0  0  0  0  0  0  0  0
   15.8874   -7.0271   -8.4709 C   0  0  0  0  0  0  0  0  0  0  0  0
   15.4653   -8.3591   -8.9834 C   0  0  0  0  0  0  0  0  0  0  0  0
   14.9943   -8.4192  -10.3969 C   0  0  2  0  0  0  0  0  0  0  0  0
   14.6205   -9.8291  -10.6127 N   0  0  0  0  0  0  0  0  0  0  0  0
   15.9740   -8.0683  -11.4209 C   0  0  0  0  0  0  0  0  0  0  0  0
   17.0101   -8.8148  -11.5406 O   0  0  0  0  0  0  0  0  0  0  0  0
   15.9091   -6.9796  -12.3136 N   0  0  0  0  0  0  0  0  0  0  0  0
   16.9668   -6.7585  -13.2787 C   0  0  1  0  0  0  0  0  0  0  0  0
   16.4814   -6.9382  -14.7005 C   0  0  0  0  0  0  0  0  0  0  0  0
   16.1690   -8.7333  -14.9092 S   0  0  0  0  0  0  0  0  0  0  0  0
   17.4949   -5.3756  -13.1574 C   0  0  0  0  0  0  0  0  0  0  0  0
   18.6096   -5.0252  -13.8762 O   0  0  0  0  0  0  0  0  0  0  0  0
   16.9187   -4.5498  -12.4035 O   0  0  0  0  0  0  0  0  0  0  0  0
  2  1  1  1
  2  5  1  0
  3  2  1  0
  3  4  1  0
  5  6  2  0
  7  8  1  0
  9 10  1  0
  9  8  1  0
 11 10  1  1
 11 13  1  0
 12 11  1  0
 12  5  1  0
 13 14  2  0
 13 15  1  0
 15 16  1  0
 16 19  1  0
 16 17  1  6
 18 17  1  0
 19 21  2  0
 19 20  1  0
M  END
$$$$
