CMC.pdb
     RDKit          3D

 21 20  0  0  1  0  0  0  0  0999 V2000
   20.9483  -10.3096  -17.1421 N   0  0  0  0  0  0  0  0  0  0  0  0
   21.8079   -9.5561  -16.2570 C   0  0  1  0  0  0  0  0  0  0  0  0
   23.0157   -9.0081  -16.9794 C   0  0  0  0  0  0  0  0  0  0  0  0
   24.1845  -10.3544  -17.3094 S   0  0  0  0  0  0  0  0  0  0  0  0
   21.0184   -8.4488  -15.6575 C   0  0  0  0  0  0  0  0  0  0  0  0
   20.1158   -7.8420  -16.3005 O   0  0  0  0  0  0  0  0  0  0  0  0
   17.0608   -9.8974  -10.4540 C   0  0  0  0  0  0  0  0  0  0  0  0
   18.5897   -8.9163  -10.5395 S   0  0  0  0  0  0  0  0  0  0  0  0
   18.8604   -8.3397  -12.2557 C   0  0  0  0  0  0  0  0  0  0  0  0
   20.1010   -7.5224  -12.3431 C   0  0  0  0  0  0  0  0  0  0  0  0
   20.4513   -6.9698  -13.6830 C   0  0  2  0  0  0  0  0  0  0  0  0
   21.2479   -8.0267  -14.3330 N   0  0  0  0  0  0  0  0  0  0  0  0
   21.2572   -5.7525  -13.6903 C   0  0  0  0  0  0  0  0  0  0  0  0
   22.4692   -5.8329  -13.2782 O   0  0  0  0  0  0  0  0  0  0  0  0
   20.8468   -4.4708  -14.1092 N   0  0  0  0  0  0  0  0  0  0  0  0
   21.7511   -3.3430  -14.0118 C   0  0  1  0  0  0  0  0  0  0  0  0
   22.4217   -3.0403  -15.3340 C   0  0  0  0  0  0  0  0  0  0  0  0
   21.0886   -3.0410  -16.5935 S   0  0  0  0  0  0  0  0  0  0  0  0
   21.0119   -2.1239  -13.5954 C   0  0  0  0  0  0  0  0  0  0  0  0
   21.7200   -0.9861  -13.3017 O   0  0  0  0  0  0  0  0  0  0  0  0
   19.7568   -2.1493  -13.5174 O   0  0  0  0  0  0  0  0  0  0  0  0
  2  1  1  6
  2  5  1  0
  3  2  1  0
  3  4  1  0
  5  6  2  0
  7  8  1  0
  9 10  1  0
  9  8  1  0
 11 10  1  1
 11 13  1  0
 12 11  1  0
 12  5  1  0
 13 14  2  0
 13 15  1  0
 15 16  1  0
 16 19  1  0
 16 17  1  6
 18 17  1  0
 19 21  2  0
 19 20  1  0
M  END
$$$$
