CMC.pdb
     RDKit          3D

 21 20  0  0  1  0  0  0  0  0999 V2000
   27.7683  -17.2998  -16.4971 N   0  0  0  0  0  0  0  0  0  0  0  0
   26.8820  -16.9808  -15.4004 C   0  0  1  0  0  0  0  0  0  0  0  0
   25.7678  -16.0559  -15.8298 C   0  0  0  0  0  0  0  0  0  0  0  0
   26.2200  -14.3439  -15.4401 S   0  0  0  0  0  0  0  0  0  0  0  0
   26.3224  -18.2465  -14.8585 C   0  0  0  0  0  0  0  0  0  0  0  0
   26.1243  -19.2600  -15.5868 O   0  0  0  0  0  0  0  0  0  0  0  0
   28.0397  -21.6377  -11.3385 C   0  0  0  0  0  0  0  0  0  0  0  0
   26.3140  -22.1087  -11.0104 S   0  0  0  0  0  0  0  0  0  0  0  0
   25.3388  -20.6225  -10.5731 C   0  0  0  0  0  0  0  0  0  0  0  0
   25.7222  -19.4728  -11.4367 C   0  0  0  0  0  0  0  0  0  0  0  0
   25.4998  -19.6274  -12.9030 C   0  0  2  0  0  0  0  0  0  0  0  0
   25.9866  -18.3681  -13.4956 N   0  0  0  0  0  0  0  0  0  0  0  0
   24.1155  -19.8026  -13.3326 C   0  0  0  0  0  0  0  0  0  0  0  0
   23.3479  -18.7751  -13.3167 O   0  0  0  0  0  0  0  0  0  0  0  0
   23.5133  -20.9981  -13.7738 N   0  0  0  0  0  0  0  0  0  0  0  0
   22.1154  -21.0182  -14.1539 C   0  0  1  0  0  0  0  0  0  0  0  0
   21.8304  -22.0685  -15.2051 C   0  0  0  0  0  0  0  0  0  0  0  0
   22.5263  -23.6377  -14.5594 S   0  0  0  0  0  0  0  0  0  0  0  0
   21.2647  -21.3224  -12.9750 C   0  0  0  0  0  0  0  0  0  0  0  0
   19.9026  -21.2088  -13.0922 O   0  0  0  0  0  0  0  0  0  0  0  0
   21.7990  -21.6772  -11.8929 O   0  0  0  0  0  0  0  0  0  0  0  0
  2  1  1  6
  2  5  1  0
  3  2  1  0
  3  4  1  0
  5  6  2  0
  7  8  1  0
  9 10  1  0
  9  8  1  0
 11 10  1  1
 11 13  1  0
 12 11  1  0
 12  5  1  0
 13 14  2  0
 13 15  1  0
 15 16  1  0
 16 19  1  0
 16 17  1  6
 18 17  1  0
 19 21  2  0
 19 20  1  0
M  END
$$$$
