CMC.pdb
     RDKit          3D

 21 20  0  0  1  0  0  0  0  0999 V2000
   17.1844  -10.6563  -11.7408 N   0  0  0  0  0  0  0  0  0  0  0  0
   17.6398   -9.4433  -11.0995 C   0  0  1  0  0  0  0  0  0  0  0  0
   18.6714   -8.7207  -11.9330 C   0  0  0  0  0  0  0  0  0  0  0  0
   20.1624   -9.7435  -12.0689 S   0  0  0  0  0  0  0  0  0  0  0  0
   16.4657   -8.5653  -10.8559 C   0  0  0  0  0  0  0  0  0  0  0  0
   15.6018   -8.3351  -11.7488 O   0  0  0  0  0  0  0  0  0  0  0  0
   11.1419   -8.5568   -7.3116 C   0  0  0  0  0  0  0  0  0  0  0  0
   12.4147   -7.6555   -6.3761 S   0  0  0  0  0  0  0  0  0  0  0  0
   13.4335   -6.6552   -7.5216 C   0  0  0  0  0  0  0  0  0  0  0  0
   14.5585   -7.4648   -8.0635 C   0  0  0  0  0  0  0  0  0  0  0  0
   15.1625   -7.0056   -9.3472 C   0  0  2  0  0  0  0  0  0  0  0  0
   16.2670   -7.9475   -9.6053 N   0  0  0  0  0  0  0  0  0  0  0  0
   15.7296   -5.6603   -9.3507 C   0  0  0  0  0  0  0  0  0  0  0  0
   16.8104   -5.4632   -8.6887 O   0  0  0  0  0  0  0  0  0  0  0  0
   15.2143   -4.5286  -10.0142 N   0  0  0  0  0  0  0  0  0  0  0  0
   15.8880   -3.2498   -9.9140 C   0  0  1  0  0  0  0  0  0  0  0  0
   15.7142   -2.4195  -11.1669 C   0  0  0  0  0  0  0  0  0  0  0  0
   16.5915   -0.8392  -10.8568 S   0  0  0  0  0  0  0  0  0  0  0  0
   15.3398   -2.4658   -8.7778 C   0  0  0  0  0  0  0  0  0  0  0  0
   14.2331   -2.9375   -8.1184 O   0  0  0  0  0  0  0  0  0  0  0  0
   15.8920   -1.3881   -8.4372 O   0  0  0  0  0  0  0  0  0  0  0  0
  2  1  1  6
  2  5  1  0
  3  2  1  0
  3  4  1  0
  5  6  2  0
  7  8  1  0
  9 10  1  0
  9  8  1  0
 11 10  1  1
 11 13  1  0
 12 11  1  0
 12  5  1  0
 13 14  2  0
 13 15  1  0
 15 16  1  0
 16 19  1  0
 16 17  1  6
 18 17  1  0
 19 21  2  0
 19 20  1  0
M  END
$$$$
