CMC.pdb
     RDKit          3D

 21 20  0  0  1  0  0  0  0  0999 V2000
   27.8839  -17.6588  -18.8365 N   0  0  0  0  0  0  0  0  0  0  0  0
   26.5800  -17.5535  -18.2211 C   0  0  1  0  0  0  0  0  0  0  0  0
   25.4681  -17.7206  -19.2296 C   0  0  0  0  0  0  0  0  0  0  0  0
   23.8718  -17.7464  -18.3701 S   0  0  0  0  0  0  0  0  0  0  0  0
   26.4719  -18.5861  -17.1578 C   0  0  0  0  0  0  0  0  0  0  0  0
   26.9726  -19.7391  -17.2871 O   0  0  0  0  0  0  0  0  0  0  0  0
   27.2874  -21.7455  -10.9781 C   0  0  0  0  0  0  0  0  0  0  0  0
   27.2428  -20.8412  -12.5553 S   0  0  0  0  0  0  0  0  0  0  0  0
   26.2538  -19.3126  -12.3651 C   0  0  0  0  0  0  0  0  0  0  0  0
   26.2083  -18.5565  -13.6461 C   0  0  0  0  0  0  0  0  0  0  0  0
   25.7192  -19.2932  -14.8467 C   0  0  2  0  0  0  0  0  0  0  0  0
   25.7992  -18.3176  -15.9493 N   0  0  0  0  0  0  0  0  0  0  0  0
   24.3423  -19.7758  -14.7933 C   0  0  0  0  0  0  0  0  0  0  0  0
   23.4005  -18.9053  -14.8099 O   0  0  0  0  0  0  0  0  0  0  0  0
   23.9206  -21.1189  -14.7255 N   0  0  0  0  0  0  0  0  0  0  0  0
   22.5163  -21.4397  -14.5703 C   0  0  1  0  0  0  0  0  0  0  0  0
   22.2418  -22.9081  -14.8106 C   0  0  0  0  0  0  0  0  0  0  0  0
   23.4589  -23.8273  -13.7921 S   0  0  0  0  0  0  0  0  0  0  0  0
   22.0633  -21.1191  -13.1926 C   0  0  0  0  0  0  0  0  0  0  0  0
   22.9991  -20.7826  -12.2475 O   0  0  0  0  0  0  0  0  0  0  0  0
   20.8379  -21.1601  -12.9115 O   0  0  0  0  0  0  0  0  0  0  0  0
  2  1  1  6
  2  5  1  0
  3  2  1  0
  3  4  1  0
  5  6  2  0
  7  8  1  0
  9 10  1  0
  9  8  1  0
 11 10  1  1
 11 13  1  0
 12 11  1  0
 12  5  1  0
 13 14  2  0
 13 15  1  0
 15 16  1  0
 16 19  1  0
 16 17  1  1
 18 17  1  0
 19 21  2  0
 19 20  1  0
M  END
$$$$
