CMC.pdb
     RDKit          3D

 21 20  0  0  1  0  0  0  0  0999 V2000
   22.3041  -10.1845  -21.5870 N   0  0  0  0  0  0  0  0  0  0  0  0
   22.8405   -8.9981  -20.9586 C   0  0  1  0  0  0  0  0  0  0  0  0
   22.3556   -7.7371  -21.6339 C   0  0  0  0  0  0  0  0  0  0  0  0
   23.3633   -7.4145  -23.1063 S   0  0  0  0  0  0  0  0  0  0  0  0
   22.4469   -9.0004  -19.5256 C   0  0  0  0  0  0  0  0  0  0  0  0
   21.2936   -9.3502  -19.1458 O   0  0  0  0  0  0  0  0  0  0  0  0
   23.0340  -11.3464  -12.7891 C   0  0  0  0  0  0  0  0  0  0  0  0
   23.1534  -11.1549  -14.5937 S   0  0  0  0  0  0  0  0  0  0  0  0
   24.0933   -9.6361  -14.9946 C   0  0  0  0  0  0  0  0  0  0  0  0
   24.1502   -9.4300  -16.4674 C   0  0  0  0  0  0  0  0  0  0  0  0
   23.0288   -8.6655  -17.0849 C   0  0  2  0  0  0  0  0  0  0  0  0
   23.3544   -8.6082  -18.5218 N   0  0  0  0  0  0  0  0  0  0  0  0
   22.8519   -7.2912  -16.6249 C   0  0  0  0  0  0  0  0  0  0  0  0
   23.6658   -6.4023  -17.0637 O   0  0  0  0  0  0  0  0  0  0  0  0
   21.8662   -6.8192  -15.7349 N   0  0  0  0  0  0  0  0  0  0  0  0
   21.8495   -5.4282  -15.3298 C   0  0  1  0  0  0  0  0  0  0  0  0
   20.5159   -4.7725  -15.6142 C   0  0  0  0  0  0  0  0  0  0  0  0
   19.2545   -5.7898  -14.7554 S   0  0  0  0  0  0  0  0  0  0  0  0
   22.1030   -5.3129  -13.8709 C   0  0  0  0  0  0  0  0  0  0  0  0
   22.2191   -4.0646  -13.3139 O   0  0  0  0  0  0  0  0  0  0  0  0
   22.2075   -6.3522  -13.1700 O   0  0  0  0  0  0  0  0  0  0  0  0
  2  1  1  6
  2  5  1  0
  3  2  1  0
  3  4  1  0
  5  6  2  0
  7  8  1  0
  9 10  1  0
  9  8  1  0
 11 10  1  1
 11 13  1  0
 12 11  1  0
 12  5  1  0
 13 14  2  0
 13 15  1  0
 15 16  1  0
 16 19  1  0
 16 17  1  1
 18 17  1  0
 19 21  2  0
 19 20  1  0
M  END
$$$$
