CMC.pdb
     RDKit          3D

 21 20  0  0  1  0  0  0  0  0999 V2000
   21.4312  -12.6836  -18.7730 N   0  0  0  0  0  0  0  0  0  0  0  0
   21.8844  -11.3152  -18.6631 C   0  0  1  0  0  0  0  0  0  0  0  0
   21.9201  -10.6259  -20.0065 C   0  0  0  0  0  0  0  0  0  0  0  0
   23.0381  -11.5234  -21.1164 S   0  0  0  0  0  0  0  0  0  0  0  0
   20.9802  -10.5887  -17.7339 C   0  0  0  0  0  0  0  0  0  0  0  0
   19.7376  -10.8143  -17.6916 O   0  0  0  0  0  0  0  0  0  0  0  0
   22.9113   -9.5221  -12.0155 C   0  0  0  0  0  0  0  0  0  0  0  0
   21.1474   -9.1187  -11.8329 S   0  0  0  0  0  0  0  0  0  0  0  0
   20.4897   -8.4842  -13.4191 C   0  0  0  0  0  0  0  0  0  0  0  0
   21.1211   -9.1905  -14.5668 C   0  0  0  0  0  0  0  0  0  0  0  0
   20.6132   -8.8537  -15.9277 C   0  0  2  0  0  0  0  0  0  0  0  0
   21.4782   -9.6083  -16.8531 N   0  0  0  0  0  0  0  0  0  0  0  0
   20.6849   -7.4480  -16.3155 C   0  0  0  0  0  0  0  0  0  0  0  0
   21.8448   -6.9414  -16.5232 O   0  0  0  0  0  0  0  0  0  0  0  0
   19.6010   -6.5648  -16.4929 N   0  0  0  0  0  0  0  0  0  0  0  0
   19.8276   -5.2072  -16.9451 C   0  0  1  0  0  0  0  0  0  0  0  0
   18.6706   -4.6849  -17.7684 C   0  0  0  0  0  0  0  0  0  0  0  0
   18.6990   -5.6264  -19.3420 S   0  0  0  0  0  0  0  0  0  0  0  0
   19.9963   -4.2979  -15.7828 C   0  0  0  0  0  0  0  0  0  0  0  0
   20.9371   -3.3017  -15.8503 O   0  0  0  0  0  0  0  0  0  0  0  0
   19.2808   -4.4512  -14.7596 O   0  0  0  0  0  0  0  0  0  0  0  0
  2  1  1  6
  2  5  1  0
  3  2  1  0
  3  4  1  0
  5  6  2  0
  7  8  1  0
  9 10  1  0
  9  8  1  0
 11 10  1  1
 11 13  1  0
 12 11  1  0
 12  5  1  0
 13 14  2  0
 13 15  1  0
 15 16  1  0
 16 19  1  0
 16 17  1  1
 18 17  1  0
 19 21  2  0
 19 20  1  0
M  END
$$$$
