CMC.pdb
     RDKit          3D

 21 20  0  0  1  0  0  0  0  0999 V2000
   21.2085  -19.7079  -12.8354 N   0  0  0  0  0  0  0  0  0  0  0  0
   21.8109  -20.7470  -12.0310 C   0  0  1  0  0  0  0  0  0  0  0  0
   21.7632  -22.0898  -12.7210 C   0  0  0  0  0  0  0  0  0  0  0  0
   20.2006  -22.9185  -12.3224 S   0  0  0  0  0  0  0  0  0  0  0  0
   23.2175  -20.3663  -11.7392 C   0  0  0  0  0  0  0  0  0  0  0  0
   23.9032  -19.6650  -12.5359 O   0  0  0  0  0  0  0  0  0  0  0  0
   28.0086  -18.4683   -7.0268 C   0  0  0  0  0  0  0  0  0  0  0  0
   26.9097  -19.8989   -6.7963 S   0  0  0  0  0  0  0  0  0  0  0  0
   26.8650  -20.8989   -8.3289 C   0  0  0  0  0  0  0  0  0  0  0  0
   25.4783  -20.9736   -8.8642 C   0  0  0  0  0  0  0  0  0  0  0  0
   25.2685  -20.4968  -10.2614 C   0  0  2  0  0  0  0  0  0  0  0  0
   23.8497  -20.7767  -10.5488 N   0  0  0  0  0  0  0  0  0  0  0  0
   26.0594  -21.1569  -11.2960 C   0  0  0  0  0  0  0  0  0  0  0  0
   26.0578  -22.4391  -11.3256 O   0  0  0  0  0  0  0  0  0  0  0  0
   26.8406  -20.5319  -12.2888 N   0  0  0  0  0  0  0  0  0  0  0  0
   27.1458  -21.2233  -13.5248 C   0  0  1  0  0  0  0  0  0  0  0  0
   25.9003  -21.7632  -14.1931 C   0  0  0  0  0  0  0  0  0  0  0  0
   26.4574  -22.5384  -15.7590 S   0  0  0  0  0  0  0  0  0  0  0  0
   27.8035  -20.2992  -14.4838 C   0  0  0  0  0  0  0  0  0  0  0  0
   27.6505  -18.9466  -14.3135 O   0  0  0  0  0  0  0  0  0  0  0  0
   28.4866  -20.7641  -15.4322 O   0  0  0  0  0  0  0  0  0  0  0  0
  2  1  1  6
  2  5  1  0
  3  2  1  0
  3  4  1  0
  5  6  2  0
  7  8  1  0
  9 10  1  0
  9  8  1  0
 11 10  1  1
 11 13  1  0
 12 11  1  0
 12  5  1  0
 13 14  2  0
 13 15  1  0
 15 16  1  0
 16 19  1  0
 16 17  1  6
 18 17  1  0
 19 21  2  0
 19 20  1  0
M  END
$$$$
