LTL.pdb
     RDKit          3D

 24 23  0  0  1  0  0  0  0  0999 V2000
    9.1322  -13.1273   20.4662 C   0  0  0  0  0  0  0  0  0  0  0  0
    8.6626  -13.2569   19.0499 C   0  0  2  0  0  0  0  0  0  0  0  0
    7.7716  -12.0811   18.7294 C   0  0  0  0  0  0  0  0  0  0  0  0
    8.0198  -14.5764   18.7563 C   0  0  0  0  0  0  0  0  0  0  0  0
    8.7934  -15.7393   19.3368 C   0  0  2  0  0  0  0  0  0  0  0  0
    8.7666  -16.8395   18.3912 N   0  0  0  0  0  0  0  0  0  0  0  0
    8.2202  -16.2039   20.6036 C   0  0  0  0  0  0  0  0  0  0  0  0
    6.9798  -16.4945   20.7121 O   0  0  0  0  0  0  0  0  0  0  0  0
    8.0054  -19.0940   22.2526 C   0  0  0  0  0  0  0  0  0  0  0  0
    8.6299  -18.2320   23.3004 C   0  0  1  0  0  0  0  0  0  0  0  0
   10.0058  -18.4433   23.3826 O   0  0  0  0  0  0  0  0  0  0  0  0
    8.3664  -16.7505   23.0702 C   0  0  2  0  0  0  0  0  0  0  0  0
    8.9773  -16.3700   21.8020 N   0  0  0  0  0  0  0  0  0  0  0  0
    8.8501  -15.9147   24.1848 C   0  0  0  0  0  0  0  0  0  0  0  0
   10.0137  -15.4425   24.1252 O   0  0  0  0  0  0  0  0  0  0  0  0
    8.3454  -11.9142   25.6935 C   0  0  0  0  0  0  0  0  0  0  0  0
    7.1624  -12.8646   25.9480 C   0  0  2  0  0  0  0  0  0  0  0  0
    6.0452  -11.9869   26.4703 C   0  0  0  0  0  0  0  0  0  0  0  0
    7.6428  -13.8445   26.9664 C   0  0  0  0  0  0  0  0  0  0  0  0
    8.6204  -14.8629   26.4578 C   0  0  2  0  0  0  0  0  0  0  0  0
    8.0726  -15.6092   25.3313 N   0  0  0  0  0  0  0  0  0  0  0  0
    9.0344  -15.8608   27.4635 C   0  0  0  0  0  0  0  0  0  0  0  0
    8.6832  -17.0779   27.4133 O   0  0  0  0  0  0  0  0  0  0  0  0
    9.8363  -15.4878   28.5131 O   0  0  0  0  0  0  0  0  0  0  0  0
  2  1  1  1
  2  3  1  0
  4  5  1  0
  4  2  1  0
  5  7  1  0
  5  6  1  6
  7  8  2  0
 10  9  1  6
 10 12  1  0
 11 10  1  0
 12 13  1  6
 13  7  1  0
 14 15  2  0
 14 12  1  0
 17 16  1  1
 17 19  1  0
 18 17  1  0
 20 19  1  1
 20 21  1  0
 20 22  1  0
 21 14  1  0
 22 24  1  0
 23 22  2  0
M  END
$$$$
