LTL.pdb
     RDKit          3D

 24 23  0  0  1  0  0  0  0  0999 V2000
   10.0486  -21.3153   21.1763 C   0  0  0  0  0  0  0  0  0  0  0  0
   11.3871  -20.6434   21.1577 C   0  0  2  0  0  0  0  0  0  0  0  0
   12.2871  -21.3375   22.1514 C   0  0  0  0  0  0  0  0  0  0  0  0
   11.3113  -19.1636   21.3697 C   0  0  0  0  0  0  0  0  0  0  0  0
   10.3173  -18.4964   20.4453 C   0  0  2  0  0  0  0  0  0  0  0  0
   10.8609  -18.4865   19.1000 N   0  0  0  0  0  0  0  0  0  0  0  0
   10.0394  -17.1128   20.8422 C   0  0  0  0  0  0  0  0  0  0  0  0
   10.8246  -16.1541   20.5272 O   0  0  0  0  0  0  0  0  0  0  0  0
    7.5116  -14.7055   19.8970 C   0  0  0  0  0  0  0  0  0  0  0  0
    7.3870  -14.8460   21.3788 C   0  0  1  0  0  0  0  0  0  0  0  0
    6.3397  -15.6990   21.7251 O   0  0  0  0  0  0  0  0  0  0  0  0
    8.6708  -15.3447   22.0275 C   0  0  2  0  0  0  0  0  0  0  0  0
    8.8943  -16.7202   21.5982 N   0  0  0  0  0  0  0  0  0  0  0  0
    8.6394  -15.2267   23.4971 C   0  0  0  0  0  0  0  0  0  0  0  0
    7.9883  -16.0754   24.1576 O   0  0  0  0  0  0  0  0  0  0  0  0
    5.3892  -12.4703   26.4337 C   0  0  0  0  0  0  0  0  0  0  0  0
    6.8451  -12.8449   26.7617 C   0  0  2  0  0  0  0  0  0  0  0  0
    7.4239  -11.6359   27.4649 C   0  0  0  0  0  0  0  0  0  0  0  0
    7.5005  -13.1093   25.4469 C   0  0  0  0  0  0  0  0  0  0  0  0
    8.8507  -13.7588   25.5283 C   0  0  2  0  0  0  0  0  0  0  0  0
    9.3070  -14.2024   24.2164 N   0  0  0  0  0  0  0  0  0  0  0  0
    8.9036  -14.9381   26.4144 C   0  0  0  0  0  0  0  0  0  0  0  0
    9.2184  -14.8665   27.6404 O   0  0  0  0  0  0  0  0  0  0  0  0
    8.6039  -16.1832   25.9209 O   0  0  0  0  0  0  0  0  0  0  0  0
  2  1  1  1
  2  3  1  0
  4  5  1  0
  4  2  1  0
  5  7  1  0
  5  6  1  6
  7  8  2  0
 10  9  1  6
 10 12  1  0
 11 10  1  0
 12 13  1  1
 13  7  1  0
 14 15  2  0
 14 12  1  0
 17 16  1  6
 17 19  1  0
 18 17  1  0
 20 19  1  6
 20 21  1  0
 20 22  1  0
 21 14  1  0
 22 24  1  0
 23 22  2  0
M  END
$$$$
