LTL.pdb
     RDKit          3D

 24 23  0  0  1  0  0  0  0  0999 V2000
    9.7347  -13.1770   19.8837 C   0  0  0  0  0  0  0  0  0  0  0  0
    8.6423  -13.3217   18.8692 C   0  0  2  0  0  0  0  0  0  0  0  0
    8.0136  -11.9679   18.6434 C   0  0  0  0  0  0  0  0  0  0  0  0
    7.6439  -14.3804   19.2192 C   0  0  0  0  0  0  0  0  0  0  0  0
    8.2985  -15.6689   19.6655 C   0  0  2  0  0  0  0  0  0  0  0  0
    7.9366  -16.7248   18.7384 N   0  0  0  0  0  0  0  0  0  0  0  0
    7.8703  -16.0668   21.0100 C   0  0  0  0  0  0  0  0  0  0  0  0
    6.6378  -16.2547   21.2932 O   0  0  0  0  0  0  0  0  0  0  0  0
    7.9409  -19.0266   22.6919 C   0  0  0  0  0  0  0  0  0  0  0  0
    8.6564  -18.1266   23.6454 C   0  0  1  0  0  0  0  0  0  0  0  0
   10.0387  -18.2904   23.5632 O   0  0  0  0  0  0  0  0  0  0  0  0
    8.3151  -16.6588   23.4298 C   0  0  2  0  0  0  0  0  0  0  0  0
    8.7696  -16.2754   22.0984 N   0  0  0  0  0  0  0  0  0  0  0  0
    8.8865  -15.7904   24.4759 C   0  0  0  0  0  0  0  0  0  0  0  0
   10.0280  -15.2961   24.2938 O   0  0  0  0  0  0  0  0  0  0  0  0
    7.8573  -11.8585   25.5792 C   0  0  0  0  0  0  0  0  0  0  0  0
    6.9331  -12.9248   26.1927 C   0  0  2  0  0  0  0  0  0  0  0  0
    5.7798  -12.1566   26.8018 C   0  0  0  0  0  0  0  0  0  0  0  0
    7.7555  -13.6302   27.2195 C   0  0  0  0  0  0  0  0  0  0  0  0
    8.7917  -14.5667   26.6711 C   0  0  2  0  0  0  0  0  0  0  0  0
    8.2178  -15.4769   25.6870 N   0  0  0  0  0  0  0  0  0  0  0  0
    9.4489  -15.4078   27.6907 C   0  0  0  0  0  0  0  0  0  0  0  0
   10.1720  -14.9313   28.6166 O   0  0  0  0  0  0  0  0  0  0  0  0
    9.2902  -16.7707   27.6645 O   0  0  0  0  0  0  0  0  0  0  0  0
  2  1  1  1
  2  3  1  0
  4  5  1  0
  4  2  1  0
  5  7  1  0
  5  6  1  6
  7  8  2  0
 10  9  1  6
 10 12  1  0
 11 10  1  0
 12 13  1  6
 13  7  1  0
 14 15  2  0
 14 12  1  0
 17 16  1  1
 17 19  1  0
 18 17  1  0
 20 19  1  1
 20 21  1  0
 20 22  1  0
 21 14  1  0
 22 24  1  0
 23 22  2  0
M  END
$$$$
