LTL.pdb
     RDKit          3D

 24 23  0  0  1  0  0  0  0  0999 V2000
    9.9174  -13.3102   19.3448 C   0  0  0  0  0  0  0  0  0  0  0  0
    8.5023  -13.4233   18.8671 C   0  0  2  0  0  0  0  0  0  0  0  0
    7.9017  -12.0394   18.8113 C   0  0  0  0  0  0  0  0  0  0  0  0
    7.6814  -14.3866   19.6662 C   0  0  0  0  0  0  0  0  0  0  0  0
    8.4814  -15.5839   20.1292 C   0  0  2  0  0  0  0  0  0  0  0  0
    8.1011  -16.7377   19.3357 N   0  0  0  0  0  0  0  0  0  0  0  0
    8.2403  -15.8941   21.5417 C   0  0  0  0  0  0  0  0  0  0  0  0
    7.1375  -15.5948   22.1153 O   0  0  0  0  0  0  0  0  0  0  0  0
    9.3506  -18.7576   25.4203 C   0  0  0  0  0  0  0  0  0  0  0  0
    9.6197  -18.2447   24.0435 C   0  0  1  0  0  0  0  0  0  0  0  0
    9.2812  -19.1861   23.0722 O   0  0  0  0  0  0  0  0  0  0  0  0
    8.8862  -16.9429   23.7523 C   0  0  2  0  0  0  0  0  0  0  0  0
    9.1925  -16.5428   22.3839 N   0  0  0  0  0  0  0  0  0  0  0  0
    9.2190  -15.8824   24.7216 C   0  0  0  0  0  0  0  0  0  0  0  0
   10.3363  -15.3129   24.6341 O   0  0  0  0  0  0  0  0  0  0  0  0
    7.7266  -11.8902   25.6690 C   0  0  0  0  0  0  0  0  0  0  0  0
    6.8093  -13.0021   26.2075 C   0  0  2  0  0  0  0  0  0  0  0  0
    5.5930  -12.2895   26.7590 C   0  0  0  0  0  0  0  0  0  0  0  0
    7.5956  -13.6960   27.2697 C   0  0  0  0  0  0  0  0  0  0  0  0
    8.7585  -14.5046   26.7746 C   0  0  2  0  0  0  0  0  0  0  0  0
    8.3444  -15.4630   25.7567 N   0  0  0  0  0  0  0  0  0  0  0  0
    9.4504  -15.2773   27.8249 C   0  0  0  0  0  0  0  0  0  0  0  0
   10.2557  -14.7516   28.6510 O   0  0  0  0  0  0  0  0  0  0  0  0
    9.2343  -16.6277   27.9405 O   0  0  0  0  0  0  0  0  0  0  0  0
  2  1  1  1
  2  3  1  0
  4  5  1  0
  4  2  1  0
  5  7  1  0
  5  6  1  6
  7  8  2  0
 10  9  1  1
 10 12  1  0
 11 10  1  0
 12 13  1  6
 13  7  1  0
 14 15  2  0
 14 12  1  0
 17 16  1  1
 17 19  1  0
 18 17  1  0
 20 19  1  1
 20 21  1  0
 20 22  1  0
 21 14  1  0
 22 24  1  0
 23 22  2  0
M  END
$$$$
