LTL.pdb
     RDKit          3D

 24 23  0  0  1  0  0  0  0  0999 V2000
    9.9675  -13.1895   19.7876 C   0  0  0  0  0  0  0  0  0  0  0  0
    8.8971  -13.2766   18.7437 C   0  0  2  0  0  0  0  0  0  0  0  0
    8.1361  -11.9729   18.7256 C   0  0  0  0  0  0  0  0  0  0  0  0
    8.0092  -14.4711   18.9024 C   0  0  0  0  0  0  0  0  0  0  0  0
    8.7457  -15.6705   19.4563 C   0  0  2  0  0  0  0  0  0  0  0  0
    8.4731  -16.8193   18.6128 N   0  0  0  0  0  0  0  0  0  0  0  0
    8.3261  -15.9908   20.8239 C   0  0  0  0  0  0  0  0  0  0  0  0
    7.1059  -16.2452   21.1089 O   0  0  0  0  0  0  0  0  0  0  0  0
    8.8144  -18.9230   22.4224 C   0  0  0  0  0  0  0  0  0  0  0  0
    9.3879  -17.9550   23.4047 C   0  0  1  0  0  0  0  0  0  0  0  0
   10.7780  -17.8969   23.3128 O   0  0  0  0  0  0  0  0  0  0  0  0
    8.8189  -16.5525   23.2417 C   0  0  2  0  0  0  0  0  0  0  0  0
    9.2206  -16.0461   21.9346 N   0  0  0  0  0  0  0  0  0  0  0  0
    9.2330  -15.6489   24.3312 C   0  0  0  0  0  0  0  0  0  0  0  0
   10.2506  -14.9294   24.1654 O   0  0  0  0  0  0  0  0  0  0  0  0
    7.4655  -12.0339   26.2302 C   0  0  0  0  0  0  0  0  0  0  0  0
    6.8214  -13.3786   26.6105 C   0  0  2  0  0  0  0  0  0  0  0  0
    5.5937  -13.0226   27.4213 C   0  0  0  0  0  0  0  0  0  0  0  0
    7.8471  -14.1048   27.4158 C   0  0  0  0  0  0  0  0  0  0  0  0
    9.0008  -14.6548   26.6296 C   0  0  2  0  0  0  0  0  0  0  0  0
    8.5445  -15.5426   25.5668 N   0  0  0  0  0  0  0  0  0  0  0  0
    9.9709  -15.4234   27.4340 C   0  0  0  0  0  0  0  0  0  0  0  0
   10.0770  -16.6849   27.3669 O   0  0  0  0  0  0  0  0  0  0  0  0
   10.8114  -14.7740   28.3032 O   0  0  0  0  0  0  0  0  0  0  0  0
  2  1  1  1
  2  3  1  0
  4  5  1  0
  4  2  1  0
  5  7  1  0
  5  6  1  6
  7  8  2  0
 10  9  1  6
 10 12  1  0
 11 10  1  0
 12 13  1  6
 13  7  1  0
 14 15  2  0
 14 12  1  0
 17 16  1  1
 17 19  1  0
 18 17  1  0
 20 19  1  1
 20 21  1  0
 20 22  1  0
 21 14  1  0
 22 24  1  0
 23 22  2  0
M  END
$$$$
