LTL.pdb
     RDKit          3D

 24 23  0  0  1  0  0  0  0  0999 V2000
    9.7959  -12.6476   19.4588 C   0  0  0  0  0  0  0  0  0  0  0  0
    8.6539  -13.1589   18.6355 C   0  0  2  0  0  0  0  0  0  0  0  0
    7.6701  -12.0331   18.4264 C   0  0  0  0  0  0  0  0  0  0  0  0
    8.0213  -14.3927   19.1995 C   0  0  0  0  0  0  0  0  0  0  0  0
    9.0412  -15.4375   19.5946 C   0  0  2  0  0  0  0  0  0  0  0  0
    9.1609  -16.4060   18.5209 N   0  0  0  0  0  0  0  0  0  0  0  0
    8.6558  -16.1479   20.8177 C   0  0  0  0  0  0  0  0  0  0  0  0
    7.9232  -17.1953   20.7824 O   0  0  0  0  0  0  0  0  0  0  0  0
    8.7930  -18.6594   21.9705 C   0  0  0  0  0  0  0  0  0  0  0  0
    9.3911  -17.9191   23.1217 C   0  0  1  0  0  0  0  0  0  0  0  0
   10.7716  -17.7827   22.9797 O   0  0  0  0  0  0  0  0  0  0  0  0
    8.7718  -16.5420   23.3147 C   0  0  2  0  0  0  0  0  0  0  0  0
    9.0541  -15.7441   22.1273 N   0  0  0  0  0  0  0  0  0  0  0  0
    9.2454  -15.8812   24.5452 C   0  0  0  0  0  0  0  0  0  0  0  0
   10.3427  -15.2682   24.5177 O   0  0  0  0  0  0  0  0  0  0  0  0
    8.1983  -12.2521   26.0089 C   0  0  0  0  0  0  0  0  0  0  0  0
    7.2294  -13.4006   26.3401 C   0  0  2  0  0  0  0  0  0  0  0  0
    5.9610  -12.7312   26.8241 C   0  0  0  0  0  0  0  0  0  0  0  0
    7.8985  -14.1983   27.4097 C   0  0  0  0  0  0  0  0  0  0  0  0
    8.9704  -15.1325   26.9303 C   0  0  2  0  0  0  0  0  0  0  0  0
    8.5292  -15.8966   25.7695 N   0  0  0  0  0  0  0  0  0  0  0  0
    9.4134  -16.1152   27.9387 C   0  0  0  0  0  0  0  0  0  0  0  0
    9.9483  -15.7818   29.0387 O   0  0  0  0  0  0  0  0  0  0  0  0
    9.2532  -17.4584   27.7070 O   0  0  0  0  0  0  0  0  0  0  0  0
  2  1  1  1
  2  3  1  0
  4  5  1  0
  4  2  1  0
  5  7  1  0
  5  6  1  6
  7  8  2  0
 10  9  1  6
 10 12  1  0
 11 10  1  0
 12 13  1  6
 13  7  1  0
 14 15  2  0
 14 12  1  0
 17 16  1  1
 17 19  1  0
 18 17  1  0
 20 19  1  1
 20 21  1  0
 20 22  1  0
 21 14  1  0
 22 24  1  0
 23 22  2  0
M  END
$$$$
