LTL.pdb
     RDKit          3D

 24 23  0  0  1  0  0  0  0  0999 V2000
    9.0768  -12.5773   17.8258 C   0  0  0  0  0  0  0  0  0  0  0  0
    7.9563  -13.5475   18.0414 C   0  0  2  0  0  0  0  0  0  0  0  0
    6.8055  -13.1597   17.1446 C   0  0  0  0  0  0  0  0  0  0  0  0
    7.5591  -13.6856   19.4779 C   0  0  0  0  0  0  0  0  0  0  0  0
    8.7406  -13.9594   20.3817 C   0  0  2  0  0  0  0  0  0  0  0  0
    9.7554  -14.6692   19.6254 N   0  0  0  0  0  0  0  0  0  0  0  0
    8.3696  -14.7781   21.5398 C   0  0  0  0  0  0  0  0  0  0  0  0
    7.2516  -14.6228   22.1405 O   0  0  0  0  0  0  0  0  0  0  0  0
    8.7647  -18.7106   22.0573 C   0  0  0  0  0  0  0  0  0  0  0  0
    9.4004  -17.9474   23.1729 C   0  0  1  0  0  0  0  0  0  0  0  0
   10.7859  -17.8886   23.0273 O   0  0  0  0  0  0  0  0  0  0  0  0
    8.8523  -16.5327   23.2984 C   0  0  2  0  0  0  0  0  0  0  0  0
    9.2032  -15.7984   22.0885 N   0  0  0  0  0  0  0  0  0  0  0  0
    9.3340  -15.8502   24.5137 C   0  0  0  0  0  0  0  0  0  0  0  0
   10.4358  -15.2461   24.4708 O   0  0  0  0  0  0  0  0  0  0  0  0
    8.2196  -12.1256   25.9151 C   0  0  0  0  0  0  0  0  0  0  0  0
    7.2940  -13.3191   26.2090 C   0  0  2  0  0  0  0  0  0  0  0  0
    5.9758  -12.7110   26.6376 C   0  0  0  0  0  0  0  0  0  0  0  0
    7.9554  -14.0826   27.3080 C   0  0  0  0  0  0  0  0  0  0  0  0
    9.0457  -15.0149   26.8684 C   0  0  2  0  0  0  0  0  0  0  0  0
    8.6209  -15.8347   25.7398 N   0  0  0  0  0  0  0  0  0  0  0  0
    9.5060  -15.9465   27.9168 C   0  0  0  0  0  0  0  0  0  0  0  0
   10.0419  -15.5581   28.9981 O   0  0  0  0  0  0  0  0  0  0  0  0
    9.3619  -17.3005   27.7454 O   0  0  0  0  0  0  0  0  0  0  0  0
  2  1  1  1
  2  3  1  0
  4  5  1  0
  4  2  1  0
  5  7  1  0
  5  6  1  6
  7  8  2  0
 10  9  1  6
 10 12  1  0
 11 10  1  0
 12 13  1  6
 13  7  1  0
 14 15  2  0
 14 12  1  0
 17 16  1  1
 17 19  1  0
 18 17  1  0
 20 19  1  1
 20 21  1  0
 20 22  1  0
 21 14  1  0
 22 24  1  0
 23 22  2  0
M  END
$$$$
