LTL.pdb
     RDKit          3D

 24 23  0  0  1  0  0  0  0  0999 V2000
    9.9415  -13.0640   19.7493 C   0  0  0  0  0  0  0  0  0  0  0  0
    8.8704  -13.2681   18.7225 C   0  0  2  0  0  0  0  0  0  0  0  0
    8.1461  -11.9596   18.5168 C   0  0  0  0  0  0  0  0  0  0  0  0
    7.9493  -14.4036   19.0435 C   0  0  0  0  0  0  0  0  0  0  0  0
    8.6911  -15.6381   19.5056 C   0  0  2  0  0  0  0  0  0  0  0  0
    8.4270  -16.7199   18.5753 N   0  0  0  0  0  0  0  0  0  0  0  0
    8.2698  -16.0649   20.8433 C   0  0  0  0  0  0  0  0  0  0  0  0
    7.0520  -16.3568   21.1016 O   0  0  0  0  0  0  0  0  0  0  0  0
    8.7396  -19.0400   22.3712 C   0  0  0  0  0  0  0  0  0  0  0  0
    9.2610  -18.1084   23.4158 C   0  0  1  0  0  0  0  0  0  0  0  0
   10.6550  -18.0749   23.4206 O   0  0  0  0  0  0  0  0  0  0  0  0
    8.7293  -16.6915   23.2517 C   0  0  2  0  0  0  0  0  0  0  0  0
    9.1599  -16.1902   21.9518 N   0  0  0  0  0  0  0  0  0  0  0  0
    9.1520  -15.8028   24.3500 C   0  0  0  0  0  0  0  0  0  0  0  0
   10.2440  -15.1890   24.2442 O   0  0  0  0  0  0  0  0  0  0  0  0
    7.9431  -11.9387   25.9165 C   0  0  0  0  0  0  0  0  0  0  0  0
    6.9887  -13.0915   26.2740 C   0  0  2  0  0  0  0  0  0  0  0  0
    5.7867  -12.4346   26.9183 C   0  0  0  0  0  0  0  0  0  0  0  0
    7.7429  -13.9608   27.2246 C   0  0  0  0  0  0  0  0  0  0  0  0
    8.8665  -14.7459   26.6142 C   0  0  2  0  0  0  0  0  0  0  0  0
    8.3920  -15.5977   25.5300 N   0  0  0  0  0  0  0  0  0  0  0  0
    9.5760  -15.6264   27.5629 C   0  0  0  0  0  0  0  0  0  0  0  0
    9.4493  -16.8878   27.5605 O   0  0  0  0  0  0  0  0  0  0  0  0
   10.4190  -15.0879   28.5025 O   0  0  0  0  0  0  0  0  0  0  0  0
  2  1  1  1
  2  3  1  0
  4  5  1  0
  4  2  1  0
  5  7  1  0
  5  6  1  6
  7  8  2  0
 10  9  1  6
 10 12  1  0
 11 10  1  0
 12 13  1  6
 13  7  1  0
 14 15  2  0
 14 12  1  0
 17 16  1  1
 17 19  1  0
 18 17  1  0
 20 19  1  1
 20 21  1  0
 20 22  1  0
 21 14  1  0
 22 24  1  0
 23 22  2  0
M  END
$$$$
