LTL.pdb
     RDKit          3D

 24 23  0  0  1  0  0  0  0  0999 V2000
   10.7777  -20.0935   16.9753 C   0  0  0  0  0  0  0  0  0  0  0  0
   10.3053  -19.9607   18.3905 C   0  0  2  0  0  0  0  0  0  0  0  0
    8.9989  -20.7038   18.5329 C   0  0  0  0  0  0  0  0  0  0  0  0
   10.2261  -18.5413   18.8588 C   0  0  0  0  0  0  0  0  0  0  0  0
    9.9648  -18.4356   20.3449 C   0  0  2  0  0  0  0  0  0  0  0  0
    8.6834  -19.0487   20.6409 N   0  0  0  0  0  0  0  0  0  0  0  0
    9.9269  -17.0423   20.7994 C   0  0  0  0  0  0  0  0  0  0  0  0
   10.9131  -16.2497   20.6150 O   0  0  0  0  0  0  0  0  0  0  0  0
    7.3525  -14.2531   20.0069 C   0  0  0  0  0  0  0  0  0  0  0  0
    7.4565  -14.4599   21.4824 C   0  0  1  0  0  0  0  0  0  0  0  0
    6.4249  -15.2678   21.9592 O   0  0  0  0  0  0  0  0  0  0  0  0
    8.7923  -15.0629   21.8942 C   0  0  2  0  0  0  0  0  0  0  0  0
    8.8121  -16.4587   21.4727 N   0  0  0  0  0  0  0  0  0  0  0  0
    9.0497  -14.9224   23.3394 C   0  0  0  0  0  0  0  0  0  0  0  0
   10.2266  -14.7066   23.7253 O   0  0  0  0  0  0  0  0  0  0  0  0
    7.9790  -11.7927   26.4608 C   0  0  0  0  0  0  0  0  0  0  0  0
    6.9025  -12.7249   25.8778 C   0  0  2  0  0  0  0  0  0  0  0  0
    5.5822  -12.1770   26.3757 C   0  0  0  0  0  0  0  0  0  0  0  0
    7.2018  -14.0806   26.4260 C   0  0  0  0  0  0  0  0  0  0  0  0
    8.3224  -14.8093   25.7444 C   0  0  2  0  0  0  0  0  0  0  0  0
    8.0382  -15.0172   24.3294 N   0  0  0  0  0  0  0  0  0  0  0  0
    8.6170  -16.1383   26.3152 C   0  0  0  0  0  0  0  0  0  0  0  0
    9.0025  -16.3056   27.5112 O   0  0  0  0  0  0  0  0  0  0  0  0
    8.4770  -17.2647   25.5436 O   0  0  0  0  0  0  0  0  0  0  0  0
  2  1  1  6
  2  3  1  0
  4  5  1  0
  4  2  1  0
  5  7  1  0
  5  6  1  6
  7  8  2  0
 10  9  1  6
 10 12  1  0
 11 10  1  0
 12 13  1  1
 13  7  1  0
 14 15  2  0
 14 12  1  0
 17 16  1  1
 17 19  1  0
 18 17  1  0
 20 19  1  1
 20 21  1  0
 20 22  1  0
 21 14  1  0
 22 24  1  0
 23 22  2  0
M  END
$$$$
