LTL.pdb
     RDKit          3D

 24 23  0  0  1  0  0  0  0  0999 V2000
    9.3201  -13.1501   20.1986 C   0  0  0  0  0  0  0  0  0  0  0  0
    7.8964  -13.2995   19.7580 C   0  0  2  0  0  0  0  0  0  0  0  0
    7.3037  -11.9235   19.5727 C   0  0  0  0  0  0  0  0  0  0  0  0
    7.0832  -14.1707   20.6636 C   0  0  0  0  0  0  0  0  0  0  0  0
    7.6448  -15.5705   20.7783 C   0  0  2  0  0  0  0  0  0  0  0  0
    6.9995  -16.4172   19.7924 N   0  0  0  0  0  0  0  0  0  0  0  0
    7.4152  -16.1485   22.1059 C   0  0  0  0  0  0  0  0  0  0  0  0
    6.2972  -16.6830   22.4205 O   0  0  0  0  0  0  0  0  0  0  0  0
    6.5951  -18.4205   23.2421 C   0  0  0  0  0  0  0  0  0  0  0  0
    7.8266  -18.3175   24.0809 C   0  0  1  0  0  0  0  0  0  0  0  0
    8.9139  -18.9424   23.4712 O   0  0  0  0  0  0  0  0  0  0  0  0
    8.1958  -16.8757   24.4007 C   0  0  2  0  0  0  0  0  0  0  0  0
    8.3960  -16.1662   23.1425 N   0  0  0  0  0  0  0  0  0  0  0  0
    9.3771  -16.7804   25.2783 C   0  0  0  0  0  0  0  0  0  0  0  0
   10.5180  -16.7305   24.7526 O   0  0  0  0  0  0  0  0  0  0  0  0
   10.6378  -13.6362   27.1536 C   0  0  0  0  0  0  0  0  0  0  0  0
    9.6565  -14.3388   28.1081 C   0  0  2  0  0  0  0  0  0  0  0  0
    9.4174  -13.3569   29.2350 C   0  0  0  0  0  0  0  0  0  0  0  0
   10.3544  -15.5760   28.5666 C   0  0  0  0  0  0  0  0  0  0  0  0
   10.4943  -16.6497   27.5278 C   0  0  2  0  0  0  0  0  0  0  0  0
    9.3014  -16.7414   26.6943 N   0  0  0  0  0  0  0  0  0  0  0  0
   10.7288  -17.9990   28.0785 C   0  0  0  0  0  0  0  0  0  0  0  0
   11.7800  -18.3117   28.7143 O   0  0  0  0  0  0  0  0  0  0  0  0
    9.7863  -18.9828   27.9130 O   0  0  0  0  0  0  0  0  0  0  0  0
  2  1  1  1
  2  3  1  0
  4  5  1  0
  4  2  1  0
  5  7  1  0
  5  6  1  6
  7  8  2  0
 10  9  1  6
 10 12  1  0
 11 10  1  0
 12 13  1  6
 13  7  1  0
 14 15  2  0
 14 12  1  0
 17 16  1  6
 17 19  1  0
 18 17  1  0
 20 19  1  1
 20 21  1  0
 20 22  1  0
 21 14  1  0
 22 24  1  0
 23 22  2  0
M  END
$$$$
