LTL.pdb
     RDKit          3D

 24 23  0  0  1  0  0  0  0  0999 V2000
    9.9213  -13.2483   20.0699 C   0  0  0  0  0  0  0  0  0  0  0  0
    9.0515  -13.1115   18.8582 C   0  0  2  0  0  0  0  0  0  0  0  0
    8.1844  -11.8869   19.0249 C   0  0  0  0  0  0  0  0  0  0  0  0
    8.2664  -14.3477   18.5487 C   0  0  0  0  0  0  0  0  0  0  0  0
    8.9811  -15.6100   18.9770 C   0  0  2  0  0  0  0  0  0  0  0  0
    8.8200  -16.6146   17.9425 N   0  0  0  0  0  0  0  0  0  0  0  0
    8.4451  -16.1474   20.2312 C   0  0  0  0  0  0  0  0  0  0  0  0
    7.2130  -16.4671   20.3516 O   0  0  0  0  0  0  0  0  0  0  0  0
    8.9239  -19.2282   21.8067 C   0  0  0  0  0  0  0  0  0  0  0  0
    9.2591  -18.2587   22.8924 C   0  0  1  0  0  0  0  0  0  0  0  0
   10.6378  -18.1412   23.0648 O   0  0  0  0  0  0  0  0  0  0  0  0
    8.6688  -16.8776   22.6439 C   0  0  2  0  0  0  0  0  0  0  0  0
    9.2317  -16.3572   21.4035 N   0  0  0  0  0  0  0  0  0  0  0  0
    8.8932  -15.9595   23.7759 C   0  0  0  0  0  0  0  0  0  0  0  0
    9.9428  -15.2677   23.7939 O   0  0  0  0  0  0  0  0  0  0  0  0
    5.6461  -12.3238   27.0856 C   0  0  0  0  0  0  0  0  0  0  0  0
    7.0564  -12.7621   26.6538 C   0  0  2  0  0  0  0  0  0  0  0  0
    7.3460  -11.9934   25.3824 C   0  0  0  0  0  0  0  0  0  0  0  0
    6.9696  -14.2345   26.4241 C   0  0  0  0  0  0  0  0  0  0  0  0
    8.2386  -14.8806   25.9514 C   0  0  2  0  0  0  0  0  0  0  0  0
    7.9861  -15.8094   24.8561 N   0  0  0  0  0  0  0  0  0  0  0  0
    8.9557  -15.6418   26.9932 C   0  0  0  0  0  0  0  0  0  0  0  0
    8.7266  -16.8651   27.2348 O   0  0  0  0  0  0  0  0  0  0  0  0
    9.9205  -15.0281   27.7522 O   0  0  0  0  0  0  0  0  0  0  0  0
  2  1  1  1
  2  3  1  0
  4  5  1  0
  4  2  1  0
  5  7  1  0
  5  6  1  6
  7  8  2  0
 10  9  1  6
 10 12  1  0
 11 10  1  0
 12 13  1  6
 13  7  1  0
 14 15  2  0
 14 12  1  0
 17 16  1  6
 17 19  1  0
 18 17  1  0
 20 19  1  1
 20 21  1  0
 20 22  1  0
 21 14  1  0
 22 24  1  0
 23 22  2  0
M  END
$$$$
