LTL.pdb
     RDKit          3D

 24 23  0  0  1  0  0  0  0  0999 V2000
    9.5401  -12.7926   19.5510 C   0  0  0  0  0  0  0  0  0  0  0  0
    8.3326  -13.3009   18.8250 C   0  0  2  0  0  0  0  0  0  0  0  0
    7.3862  -12.1466   18.5992 C   0  0  0  0  0  0  0  0  0  0  0  0
    7.6825  -14.4684   19.4995 C   0  0  0  0  0  0  0  0  0  0  0  0
    8.6883  -15.4123   20.1202 C   0  0  2  0  0  0  0  0  0  0  0  0
    8.7238  -16.6373   19.3434 N   0  0  0  0  0  0  0  0  0  0  0  0
    8.3434  -15.7518   21.5040 C   0  0  0  0  0  0  0  0  0  0  0  0
    7.2184  -15.4228   22.0149 O   0  0  0  0  0  0  0  0  0  0  0  0
    8.7155  -19.3174   23.0413 C   0  0  0  0  0  0  0  0  0  0  0  0
    9.3415  -18.3044   23.9429 C   0  0  1  0  0  0  0  0  0  0  0  0
   10.7287  -18.2833   23.8027 O   0  0  0  0  0  0  0  0  0  0  0  0
    8.7962  -16.9019   23.7122 C   0  0  2  0  0  0  0  0  0  0  0  0
    9.2118  -16.4633   22.3851 N   0  0  0  0  0  0  0  0  0  0  0  0
    9.2201  -15.9556   24.7608 C   0  0  0  0  0  0  0  0  0  0  0  0
   10.2973  -15.3260   24.6067 O   0  0  0  0  0  0  0  0  0  0  0  0
    8.2418  -12.0531   25.7884 C   0  0  0  0  0  0  0  0  0  0  0  0
    7.1971  -13.0828   26.2530 C   0  0  2  0  0  0  0  0  0  0  0  0
    6.0048  -12.2696   26.7096 C   0  0  0  0  0  0  0  0  0  0  0  0
    7.8392  -13.8335   27.3721 C   0  0  0  0  0  0  0  0  0  0  0  0
    8.9350  -14.7727   26.9619 C   0  0  2  0  0  0  0  0  0  0  0  0
    8.4772  -15.7114   25.9443 N   0  0  0  0  0  0  0  0  0  0  0  0
    9.4840  -15.5831   28.0668 C   0  0  0  0  0  0  0  0  0  0  0  0
   10.1059  -15.0786   29.0496 O   0  0  0  0  0  0  0  0  0  0  0  0
    9.3313  -16.9470   28.0613 O   0  0  0  0  0  0  0  0  0  0  0  0
  2  1  1  1
  2  3  1  0
  4  5  1  0
  4  2  1  0
  5  7  1  0
  5  6  1  6
  7  8  2  0
 10  9  1  6
 10 12  1  0
 11 10  1  0
 12 13  1  6
 13  7  1  0
 14 15  2  0
 14 12  1  0
 17 16  1  1
 17 19  1  0
 18 17  1  0
 20 19  1  1
 20 21  1  0
 20 22  1  0
 21 14  1  0
 22 24  1  0
 23 22  2  0
M  END
$$$$
