LTL.pdb
     RDKit          3D

 24 23  0  0  1  0  0  0  0  0999 V2000
    7.2887  -12.5142   19.9898 C   0  0  0  0  0  0  0  0  0  0  0  0
    8.4478  -13.3514   19.5437 C   0  0  2  0  0  0  0  0  0  0  0  0
    9.3977  -12.4784   18.7598 C   0  0  0  0  0  0  0  0  0  0  0  0
    8.0380  -14.5851   18.8018 C   0  0  0  0  0  0  0  0  0  0  0  0
    8.7330  -15.8269   19.3145 C   0  0  2  0  0  0  0  0  0  0  0  0
    8.4962  -16.9150   18.3843 N   0  0  0  0  0  0  0  0  0  0  0  0
    8.2373  -16.2299   20.6340 C   0  0  0  0  0  0  0  0  0  0  0  0
    7.0145  -16.5529   20.8211 O   0  0  0  0  0  0  0  0  0  0  0  0
    8.5734  -19.0974   22.4516 C   0  0  0  0  0  0  0  0  0  0  0  0
    9.0376  -18.0743   23.4359 C   0  0  1  0  0  0  0  0  0  0  0  0
   10.4288  -18.0458   23.5256 O   0  0  0  0  0  0  0  0  0  0  0  0
    8.5310  -16.6768   23.1074 C   0  0  2  0  0  0  0  0  0  0  0  0
    9.0558  -16.2965   21.8012 N   0  0  0  0  0  0  0  0  0  0  0  0
    8.8836  -15.6932   24.1481 C   0  0  0  0  0  0  0  0  0  0  0  0
    9.9573  -15.0495   24.0320 O   0  0  0  0  0  0  0  0  0  0  0  0
    6.1493  -11.6731   27.1302 C   0  0  0  0  0  0  0  0  0  0  0  0
    7.4187  -12.2909   26.5183 C   0  0  2  0  0  0  0  0  0  0  0  0
    7.2848  -12.0902   25.0239 C   0  0  0  0  0  0  0  0  0  0  0  0
    7.3942  -13.7322   26.9058 C   0  0  0  0  0  0  0  0  0  0  0  0
    8.5242  -14.5564   26.3625 C   0  0  2  0  0  0  0  0  0  0  0  0
    8.0753  -15.4279   25.2831 N   0  0  0  0  0  0  0  0  0  0  0  0
    9.1763  -15.4248   27.3623 C   0  0  0  0  0  0  0  0  0  0  0  0
    8.9330  -16.6649   27.4626 O   0  0  0  0  0  0  0  0  0  0  0  0
   10.0927  -14.8980   28.2376 O   0  0  0  0  0  0  0  0  0  0  0  0
  2  1  1  6
  2  3  1  0
  4  5  1  0
  4  2  1  0
  5  7  1  0
  5  6  1  6
  7  8  2  0
 10  9  1  6
 10 12  1  0
 11 10  1  0
 12 13  1  6
 13  7  1  0
 14 15  2  0
 14 12  1  0
 17 16  1  1
 17 19  1  0
 18 17  1  0
 20 19  1  1
 20 21  1  0
 20 22  1  0
 21 14  1  0
 22 24  1  0
 23 22  2  0
M  END
$$$$
