LTL.pdb
     RDKit          3D

 24 23  0  0  1  0  0  0  0  0999 V2000
    8.7340  -12.9368   16.7507 C   0  0  0  0  0  0  0  0  0  0  0  0
    8.1472  -14.3112   16.8504 C   0  0  2  0  0  0  0  0  0  0  0  0
    7.4391  -14.6265   15.5549 C   0  0  0  0  0  0  0  0  0  0  0  0
    7.2779  -14.4994   18.0542 C   0  0  0  0  0  0  0  0  0  0  0  0
    7.9191  -13.9740   19.3194 C   0  0  2  0  0  0  0  0  0  0  0  0
    9.3549  -13.9015   19.1226 N   0  0  0  0  0  0  0  0  0  0  0  0
    7.6533  -14.8402   20.4719 C   0  0  0  0  0  0  0  0  0  0  0  0
    6.4691  -15.0127   20.9222 O   0  0  0  0  0  0  0  0  0  0  0  0
    8.6709  -18.4908   21.1481 C   0  0  0  0  0  0  0  0  0  0  0  0
    9.1432  -17.6457   22.2854 C   0  0  1  0  0  0  0  0  0  0  0  0
   10.5103  -17.3861   22.1958 O   0  0  0  0  0  0  0  0  0  0  0  0
    8.3910  -16.3258   22.3831 C   0  0  2  0  0  0  0  0  0  0  0  0
    8.6684  -15.5523   21.1785 N   0  0  0  0  0  0  0  0  0  0  0  0
    8.7300  -15.5761   23.6069 C   0  0  0  0  0  0  0  0  0  0  0  0
    9.5154  -14.5984   23.5184 O   0  0  0  0  0  0  0  0  0  0  0  0
    5.7681  -12.5090   27.3338 C   0  0  0  0  0  0  0  0  0  0  0  0
    7.1609  -13.1624   27.3083 C   0  0  2  0  0  0  0  0  0  0  0  0
    8.1406  -12.0177   27.1626 C   0  0  0  0  0  0  0  0  0  0  0  0
    7.1607  -14.0688   26.1224 C   0  0  0  0  0  0  0  0  0  0  0  0
    8.3455  -14.9839   26.0208 C   0  0  2  0  0  0  0  0  0  0  0  0
    8.2173  -15.8958   24.8903 N   0  0  0  0  0  0  0  0  0  0  0  0
    8.5685  -15.8217   27.2154 C   0  0  0  0  0  0  0  0  0  0  0  0
    8.0322  -16.9600   27.3698 O   0  0  0  0  0  0  0  0  0  0  0  0
    9.3883  -15.3786   28.2230 O   0  0  0  0  0  0  0  0  0  0  0  0
  2  1  1  6
  2  3  1  0
  4  5  1  0
  4  2  1  0
  5  7  1  0
  5  6  1  6
  7  8  2  0
 10  9  1  6
 10 12  1  0
 11 10  1  0
 12 13  1  6
 13  7  1  0
 14 15  2  0
 14 12  1  0
 17 16  1  6
 17 19  1  0
 18 17  1  0
 20 19  1  1
 20 21  1  0
 20 22  1  0
 21 14  1  0
 22 24  1  0
 23 22  2  0
M  END
$$$$
