LTL.pdb
     RDKit          3D

 24 23  0  0  1  0  0  0  0  0999 V2000
    9.6481  -13.0685   19.9888 C   0  0  0  0  0  0  0  0  0  0  0  0
    8.6405  -13.2909   18.9032 C   0  0  2  0  0  0  0  0  0  0  0  0
    7.9246  -11.9886   18.6377 C   0  0  0  0  0  0  0  0  0  0  0  0
    7.7065  -14.4263   19.1841 C   0  0  0  0  0  0  0  0  0  0  0  0
    8.4226  -15.6465   19.7191 C   0  0  2  0  0  0  0  0  0  0  0  0
    8.1130  -16.7820   18.8704 N   0  0  0  0  0  0  0  0  0  0  0  0
    8.0135  -15.9680   21.0896 C   0  0  0  0  0  0  0  0  0  0  0  0
    6.7810  -16.0518   21.4195 O   0  0  0  0  0  0  0  0  0  0  0  0
    8.3022  -19.0090   22.8415 C   0  0  0  0  0  0  0  0  0  0  0  0
    8.9594  -18.0230   23.7507 C   0  0  1  0  0  0  0  0  0  0  0  0
   10.3489  -18.0804   23.6480 O   0  0  0  0  0  0  0  0  0  0  0  0
    8.4995  -16.5949   23.4927 C   0  0  2  0  0  0  0  0  0  0  0  0
    8.9324  -16.2109   22.1543 N   0  0  0  0  0  0  0  0  0  0  0  0
    8.9876  -15.6543   24.5183 C   0  0  0  0  0  0  0  0  0  0  0  0
   10.1144  -15.1197   24.3605 O   0  0  0  0  0  0  0  0  0  0  0  0
    7.8112  -11.6811   25.8046 C   0  0  0  0  0  0  0  0  0  0  0  0
    6.8772  -12.7820   26.3370 C   0  0  2  0  0  0  0  0  0  0  0  0
    5.7331  -12.0511   27.0065 C   0  0  0  0  0  0  0  0  0  0  0  0
    7.6943  -13.5725   27.3043 C   0  0  0  0  0  0  0  0  0  0  0  0
    8.7838  -14.4006   26.6890 C   0  0  2  0  0  0  0  0  0  0  0  0
    8.2537  -15.3139   25.6836 N   0  0  0  0  0  0  0  0  0  0  0  0
    9.5361  -15.2261   27.6541 C   0  0  0  0  0  0  0  0  0  0  0  0
    9.3591  -16.4753   27.7789 O   0  0  0  0  0  0  0  0  0  0  0  0
   10.4775  -14.6471   28.4677 O   0  0  0  0  0  0  0  0  0  0  0  0
  2  1  1  1
  2  3  1  0
  4  5  1  0
  4  2  1  0
  5  7  1  0
  5  6  1  6
  7  8  2  0
 10  9  1  6
 10 12  1  0
 11 10  1  0
 12 13  1  6
 13  7  1  0
 14 15  2  0
 14 12  1  0
 17 16  1  1
 17 19  1  0
 18 17  1  0
 20 19  1  1
 20 21  1  0
 20 22  1  0
 21 14  1  0
 22 24  1  0
 23 22  2  0
M  END
$$$$
