LTL.pdb
     RDKit          3D

 24 23  0  0  1  0  0  0  0  0999 V2000
    9.5308  -13.1643   20.3992 C   0  0  0  0  0  0  0  0  0  0  0  0
    8.8840  -13.2572   19.0514 C   0  0  2  0  0  0  0  0  0  0  0  0
    8.2512  -11.9251   18.7292 C   0  0  0  0  0  0  0  0  0  0  0  0
    7.9301  -14.4041   18.9288 C   0  0  0  0  0  0  0  0  0  0  0  0
    8.4953  -15.6900   19.4902 C   0  0  2  0  0  0  0  0  0  0  0  0
    8.0892  -16.7923   18.6385 N   0  0  0  0  0  0  0  0  0  0  0  0
    8.0154  -15.9547   20.8499 C   0  0  0  0  0  0  0  0  0  0  0  0
    6.7681  -15.9654   21.1308 O   0  0  0  0  0  0  0  0  0  0  0  0
    8.1068  -18.9798   22.4659 C   0  0  0  0  0  0  0  0  0  0  0  0
    8.7272  -18.0819   23.4856 C   0  0  1  0  0  0  0  0  0  0  0  0
   10.1148  -18.2176   23.5094 O   0  0  0  0  0  0  0  0  0  0  0  0
    8.3737  -16.6176   23.2657 C   0  0  2  0  0  0  0  0  0  0  0  0
    8.8770  -16.2183   21.9567 N   0  0  0  0  0  0  0  0  0  0  0  0
    8.8888  -15.7486   24.3401 C   0  0  0  0  0  0  0  0  0  0  0  0
   10.0001  -15.1833   24.1794 O   0  0  0  0  0  0  0  0  0  0  0  0
    7.3874  -12.0087   25.8084 C   0  0  0  0  0  0  0  0  0  0  0  0
    6.6513  -13.2183   26.4107 C   0  0  2  0  0  0  0  0  0  0  0  0
    5.4831  -12.6379   27.1787 C   0  0  0  0  0  0  0  0  0  0  0  0
    7.6420  -13.8923   27.3008 C   0  0  0  0  0  0  0  0  0  0  0  0
    8.7354  -14.6337   26.5893 C   0  0  2  0  0  0  0  0  0  0  0  0
    8.1977  -15.5105   25.5558 N   0  0  0  0  0  0  0  0  0  0  0  0
    9.5667  -15.4787   27.4689 C   0  0  0  0  0  0  0  0  0  0  0  0
    9.5219  -16.7456   27.4521 O   0  0  0  0  0  0  0  0  0  0  0  0
   10.4384  -14.8990   28.3563 O   0  0  0  0  0  0  0  0  0  0  0  0
  2  1  1  1
  2  3  1  0
  4  5  1  0
  4  2  1  0
  5  7  1  0
  5  6  1  6
  7  8  2  0
 10  9  1  6
 10 12  1  0
 11 10  1  0
 12 13  1  6
 13  7  1  0
 14 15  2  0
 14 12  1  0
 17 16  1  1
 17 19  1  0
 18 17  1  0
 20 19  1  1
 20 21  1  0
 20 22  1  0
 21 14  1  0
 22 24  1  0
 23 22  2  0
M  END
$$$$
