TEL.pdb
     RDKit          3D

 25 24  0  0  1  0  0  0  0  0999 V2000
   23.2903  -11.7719  -13.7991 C   0  0  0  0  0  0  0  0  0  0  0  0
   23.0020  -10.5779  -14.7147 C   0  0  1  0  0  0  0  0  0  0  0  0
   23.7012  -10.8274  -15.8940 O   0  0  0  0  0  0  0  0  0  0  0  0
   21.5217  -10.5707  -14.9695 C   0  0  2  0  0  0  0  0  0  0  0  0
   21.0534  -11.7484  -15.6678 N   0  0  0  0  0  0  0  0  0  0  0  0
   21.0737   -9.3247  -15.6427 C   0  0  0  0  0  0  0  0  0  0  0  0
   21.1422   -9.1928  -16.8732 O   0  0  0  0  0  0  0  0  0  0  0  0
   20.5495   -8.2356  -14.9040 N   0  0  0  0  0  0  0  0  0  0  0  0
   20.0899   -7.0120  -15.4186 C   0  0  1  0  0  0  0  0  0  0  0  0
   18.8945   -6.3846  -14.8404 C   0  0  0  0  0  0  0  0  0  0  0  0
   17.5704   -6.9839  -15.2553 C   0  0  0  0  0  0  0  0  0  0  0  0
   16.4505   -6.2273  -14.6883 C   0  0  0  0  0  0  0  0  0  0  0  0
   15.6100   -5.6008  -15.3778 O   0  0  0  0  0  0  0  0  0  0  0  0
   21.2442   -6.0408  -15.3257 C   0  0  0  0  0  0  0  0  0  0  0  0
   21.8915   -5.9101  -14.2555 O   0  0  0  0  0  0  0  0  0  0  0  0
   16.3000   -6.1945  -13.3089 O   0  0  0  0  0  0  0  0  0  0  0  0
   25.3787   -3.2818  -18.9680 C   0  0  0  0  0  0  0  0  0  0  0  0
   24.9129   -3.6485  -17.5793 C   0  0  2  0  0  0  0  0  0  0  0  0
   26.0719   -4.4379  -16.9512 C   0  0  0  0  0  0  0  0  0  0  0  0
   23.7181   -4.5187  -17.5289 C   0  0  0  0  0  0  0  0  0  0  0  0
   22.7771   -4.3446  -16.3939 C   0  0  2  0  0  0  0  0  0  0  0  0
   21.6509   -5.2381  -16.4265 N   0  0  0  0  0  0  0  0  0  0  0  0
   22.4123   -2.9386  -16.1289 C   0  0  0  0  0  0  0  0  0  0  0  0
   21.3481   -2.4518  -16.5820 O   0  0  0  0  0  0  0  0  0  0  0  0
   23.2282   -2.1104  -15.3740 O   0  0  0  0  0  0  0  0  0  0  0  0
  2  1  1  1
  2  3  1  0
  4  5  1  6
  4  2  1  0
  6  4  1  0
  7  6  2  0
  8  6  1  0
  9 14  1  0
  9  8  1  0
  9 10  1  1
 11 10  1  0
 12 11  1  0
 13 12  2  0
 14 22  1  0
 15 14  2  0
 16 12  1  0
 18 17  1  6
 19 18  1  0
 20 18  1  0
 21 20  1  6
 21 23  1  0
 22 21  1  0
 23 24  2  0
 23 25  1  0
M  END
$$$$
