TEL.pdb
     RDKit          3D

 25 24  0  0  1  0  0  0  0  0999 V2000
   24.8453  -16.7880  -20.6942 C   0  0  0  0  0  0  0  0  0  0  0  0
   24.2216  -15.3887  -20.6844 C   0  0  1  0  0  0  0  0  0  0  0  0
   23.0983  -15.4688  -21.5052 O   0  0  0  0  0  0  0  0  0  0  0  0
   23.8201  -15.0998  -19.2661 C   0  0  2  0  0  0  0  0  0  0  0  0
   22.9139  -16.0836  -18.7140 N   0  0  0  0  0  0  0  0  0  0  0  0
   23.2927  -13.7209  -19.1014 C   0  0  0  0  0  0  0  0  0  0  0  0
   23.9008  -12.7374  -19.5474 O   0  0  0  0  0  0  0  0  0  0  0  0
   22.0717  -13.4748  -18.4268 N   0  0  0  0  0  0  0  0  0  0  0  0
   21.4705  -12.2254  -18.2018 C   0  0  1  0  0  0  0  0  0  0  0  0
   20.0378  -12.1554  -17.8864 C   0  0  0  0  0  0  0  0  0  0  0  0
   19.1208  -12.9144  -18.8178 C   0  0  0  0  0  0  0  0  0  0  0  0
   18.8595  -14.2651  -18.3125 C   0  0  0  0  0  0  0  0  0  0  0  0
   19.4565  -15.2911  -18.7190 O   0  0  0  0  0  0  0  0  0  0  0  0
   22.2484  -11.5633  -17.0878 C   0  0  0  0  0  0  0  0  0  0  0  0
   22.7504  -12.2462  -16.1587 O   0  0  0  0  0  0  0  0  0  0  0  0
   17.8974  -14.4321  -17.3261 O   0  0  0  0  0  0  0  0  0  0  0  0
   27.3479   -9.7129  -16.4785 C   0  0  0  0  0  0  0  0  0  0  0  0
   26.0006   -9.4906  -15.8342 C   0  0  2  0  0  0  0  0  0  0  0  0
   26.0722  -10.2016  -14.4740 C   0  0  0  0  0  0  0  0  0  0  0  0
   24.8532  -10.0697  -16.5662 C   0  0  0  0  0  0  0  0  0  0  0  0
   23.5010   -9.5255  -16.2842 C   0  0  2  0  0  0  0  0  0  0  0  0
   22.4493  -10.1569  -17.0345 N   0  0  0  0  0  0  0  0  0  0  0  0
   23.4351   -8.0505  -16.2945 C   0  0  0  0  0  0  0  0  0  0  0  0
   23.9037   -7.3771  -15.3449 O   0  0  0  0  0  0  0  0  0  0  0  0
   22.8561   -7.3605  -17.3482 O   0  0  0  0  0  0  0  0  0  0  0  0
  2  1  1  1
  2  3  1  0
  4  5  1  6
  4  2  1  0
  6  4  1  0
  7  6  2  0
  8  6  1  0
  9 14  1  0
  9  8  1  0
  9 10  1  1
 11 10  1  0
 12 11  1  0
 13 12  2  0
 14 22  1  0
 15 14  2  0
 16 12  1  0
 18 17  1  6
 19 18  1  0
 20 18  1  0
 21 20  1  6
 21 23  1  0
 22 21  1  0
 23 24  2  0
 23 25  1  0
M  END
$$$$
