TEL.pdb
     RDKit          3D

 25 24  0  0  1  0  0  0  0  0999 V2000
   15.3855  -10.2425  -15.2453 C   0  0  0  0  0  0  0  0  0  0  0  0
   15.6954  -11.6724  -14.7909 C   0  0  1  0  0  0  0  0  0  0  0  0
   14.4591  -12.2947  -14.6288 O   0  0  0  0  0  0  0  0  0  0  0  0
   16.4734  -12.3234  -15.8986 C   0  0  2  0  0  0  0  0  0  0  0  0
   16.6491  -13.7481  -15.7166 N   0  0  0  0  0  0  0  0  0  0  0  0
   17.7697  -11.6428  -16.1498 C   0  0  0  0  0  0  0  0  0  0  0  0
   18.7039  -11.7092  -15.3380 O   0  0  0  0  0  0  0  0  0  0  0  0
   17.9901  -10.8895  -17.3289 N   0  0  0  0  0  0  0  0  0  0  0  0
   19.1653  -10.2079  -17.6858 C   0  0  1  0  0  0  0  0  0  0  0  0
   19.3345   -9.7245  -19.0624 C   0  0  0  0  0  0  0  0  0  0  0  0
   20.6431   -9.0291  -19.3597 C   0  0  0  0  0  0  0  0  0  0  0  0
   20.6938   -8.5785  -20.7534 C   0  0  0  0  0  0  0  0  0  0  0  0
   20.4620   -7.3998  -21.1157 O   0  0  0  0  0  0  0  0  0  0  0  0
   19.2933   -9.0374  -16.7382 C   0  0  0  0  0  0  0  0  0  0  0  0
   18.2937   -8.3320  -16.4472 O   0  0  0  0  0  0  0  0  0  0  0  0
   21.0164   -9.5004  -21.7396 O   0  0  0  0  0  0  0  0  0  0  0  0
   20.8283   -6.1565  -12.5733 C   0  0  0  0  0  0  0  0  0  0  0  0
   22.0541   -6.5995  -13.3357 C   0  0  2  0  0  0  0  0  0  0  0  0
   22.5061   -5.3701  -14.1389 C   0  0  0  0  0  0  0  0  0  0  0  0
   21.8269   -7.6920  -14.3064 C   0  0  0  0  0  0  0  0  0  0  0  0
   20.7008   -7.5503  -15.2634 C   0  0  2  0  0  0  0  0  0  0  0  0
   20.5311   -8.6798  -16.1370 N   0  0  0  0  0  0  0  0  0  0  0  0
   20.6682   -6.2495  -15.9611 C   0  0  0  0  0  0  0  0  0  0  0  0
   20.0603   -5.2682  -15.4688 O   0  0  0  0  0  0  0  0  0  0  0  0
   21.3047   -6.0666  -17.1790 O   0  0  0  0  0  0  0  0  0  0  0  0
  2  1  1  6
  2  3  1  0
  4  5  1  1
  4  2  1  0
  6  4  1  0
  7  6  2  0
  8  6  1  0
  9 14  1  0
  9  8  1  0
  9 10  1  6
 11 10  1  0
 12 11  1  0
 13 12  2  0
 14 22  1  0
 15 14  2  0
 16 12  1  0
 18 17  1  6
 19 18  1  0
 20 18  1  0
 21 20  1  6
 21 23  1  0
 22 21  1  0
 23 24  2  0
 23 25  1  0
M  END
$$$$
