TEL.pdb
     RDKit          3D

 25 24  0  0  1  0  0  0  0  0999 V2000
   16.9673  -11.8423  -10.6191 C   0  0  0  0  0  0  0  0  0  0  0  0
   15.5524  -12.1613  -11.1126 C   0  0  1  0  0  0  0  0  0  0  0  0
   15.2948  -13.4688  -10.7050 O   0  0  0  0  0  0  0  0  0  0  0  0
   14.6237  -11.2010  -10.4257 C   0  0  2  0  0  0  0  0  0  0  0  0
   13.2251  -11.5214  -10.6128 N   0  0  0  0  0  0  0  0  0  0  0  0
   14.9111   -9.7883  -10.7839 C   0  0  0  0  0  0  0  0  0  0  0  0
   14.7414   -9.3650  -11.9364 O   0  0  0  0  0  0  0  0  0  0  0  0
   15.3914   -8.8671   -9.8210 N   0  0  0  0  0  0  0  0  0  0  0  0
   15.7304   -7.5214  -10.0383 C   0  0  1  0  0  0  0  0  0  0  0  0
   15.4273   -6.5208   -9.0067 C   0  0  0  0  0  0  0  0  0  0  0  0
   15.8526   -5.1043   -9.3183 C   0  0  0  0  0  0  0  0  0  0  0  0
   15.4519   -4.1877   -8.2472 C   0  0  0  0  0  0  0  0  0  0  0  0
   15.7072   -2.9592   -8.2466 O   0  0  0  0  0  0  0  0  0  0  0  0
   17.2131   -7.4884  -10.3295 C   0  0  0  0  0  0  0  0  0  0  0  0
   18.0369   -8.0128   -9.5371 O   0  0  0  0  0  0  0  0  0  0  0  0
   14.7479   -4.6965   -7.1645 O   0  0  0  0  0  0  0  0  0  0  0  0
   21.1959   -9.7024  -13.5671 C   0  0  0  0  0  0  0  0  0  0  0  0
   20.9689   -8.4533  -12.7496 C   0  0  2  0  0  0  0  0  0  0  0  0
   21.9272   -8.5641  -11.5536 C   0  0  0  0  0  0  0  0  0  0  0  0
   19.6042   -8.3045  -12.1993 C   0  0  0  0  0  0  0  0  0  0  0  0
   19.1293   -6.9356  -11.8755 C   0  0  2  0  0  0  0  0  0  0  0  0
   17.7438   -6.8726  -11.4959 N   0  0  0  0  0  0  0  0  0  0  0  0
   19.5199   -5.9158  -12.8691 C   0  0  0  0  0  0  0  0  0  0  0  0
   20.7200   -5.7694  -13.2059 O   0  0  0  0  0  0  0  0  0  0  0  0
   18.5798   -5.0876  -13.4624 O   0  0  0  0  0  0  0  0  0  0  0  0
  2  1  1  1
  2  3  1  0
  4  5  1  6
  4  2  1  0
  6  4  1  0
  7  6  2  0
  8  6  1  0
  9 14  1  0
  9  8  1  0
  9 10  1  1
 11 10  1  0
 12 11  1  0
 13 12  2  0
 14 22  1  0
 15 14  2  0
 16 12  1  0
 18 17  1  6
 19 18  1  0
 20 18  1  0
 21 20  1  6
 21 23  1  0
 22 21  1  0
 23 24  2  0
 23 25  1  0
M  END
$$$$
