TEL.pdb
     RDKit          3D

 25 24  0  0  1  0  0  0  0  0999 V2000
   14.2558   -7.2598   -9.9071 C   0  0  0  0  0  0  0  0  0  0  0  0
   13.6033   -8.5254   -9.3417 C   0  0  1  0  0  0  0  0  0  0  0  0
   12.4451   -8.0981   -8.6952 O   0  0  0  0  0  0  0  0  0  0  0  0
   13.2619   -9.4012  -10.5133 C   0  0  2  0  0  0  0  0  0  0  0  0
   12.5337  -10.5959  -10.1445 N   0  0  0  0  0  0  0  0  0  0  0  0
   14.4535   -9.7234  -11.3398 C   0  0  0  0  0  0  0  0  0  0  0  0
   15.1318  -10.7392  -11.1297 O   0  0  0  0  0  0  0  0  0  0  0  0
   14.8627   -8.8811  -12.4027 N   0  0  0  0  0  0  0  0  0  0  0  0
   15.8151   -9.1757  -13.3921 C   0  0  1  0  0  0  0  0  0  0  0  0
   15.4496   -9.0573  -14.8097 C   0  0  0  0  0  0  0  0  0  0  0  0
   16.5177   -9.4590  -15.8008 C   0  0  0  0  0  0  0  0  0  0  0  0
   16.5464  -10.9131  -15.9816 C   0  0  0  0  0  0  0  0  0  0  0  0
   15.5269  -11.6432  -15.9379 O   0  0  0  0  0  0  0  0  0  0  0  0
   17.0108   -8.2918  -13.1210 C   0  0  0  0  0  0  0  0  0  0  0  0
   16.8607   -7.0814  -12.8147 O   0  0  0  0  0  0  0  0  0  0  0  0
   17.7673  -11.5306  -16.2160 O   0  0  0  0  0  0  0  0  0  0  0  0
   22.5815   -7.4296  -13.5854 C   0  0  0  0  0  0  0  0  0  0  0  0
   21.9460   -7.9188  -12.3059 C   0  0  2  0  0  0  0  0  0  0  0  0
   22.9668   -8.8826  -11.6814 C   0  0  0  0  0  0  0  0  0  0  0  0
   20.6870   -8.6747  -12.4813 C   0  0  0  0  0  0  0  0  0  0  0  0
   19.5090   -7.9500  -13.0209 C   0  0  2  0  0  0  0  0  0  0  0  0
   18.3453   -8.7762  -13.1970 N   0  0  0  0  0  0  0  0  0  0  0  0
   19.8135   -7.0965  -14.1866 C   0  0  0  0  0  0  0  0  0  0  0  0
   19.7568   -7.5543  -15.3537 O   0  0  0  0  0  0  0  0  0  0  0  0
   20.1712   -5.7659  -14.0342 O   0  0  0  0  0  0  0  0  0  0  0  0
  2  1  1  6
  2  3  1  0
  4  5  1  1
  4  2  1  0
  6  4  1  0
  7  6  2  0
  8  6  1  0
  9 14  1  0
  9  8  1  0
  9 10  1  6
 11 10  1  0
 12 11  1  0
 13 12  2  0
 14 22  1  0
 15 14  2  0
 16 12  1  0
 18 17  1  6
 19 18  1  0
 20 18  1  0
 21 20  1  6
 21 23  1  0
 22 21  1  0
 23 24  2  0
 23 25  1  0
M  END
$$$$
