TEL.pdb
     RDKit          3D

 25 24  0  0  1  0  0  0  0  0999 V2000
   16.9616  -13.3032  -14.5221 C   0  0  0  0  0  0  0  0  0  0  0  0
   16.8915  -14.1000  -15.8287 C   0  0  1  0  0  0  0  0  0  0  0  0
   15.9970  -15.1415  -15.5898 O   0  0  0  0  0  0  0  0  0  0  0  0
   16.3522  -13.1706  -16.8783 C   0  0  2  0  0  0  0  0  0  0  0  0
   16.1653  -13.8046  -18.1655 N   0  0  0  0  0  0  0  0  0  0  0  0
   17.1574  -11.9278  -16.9954 C   0  0  0  0  0  0  0  0  0  0  0  0
   18.2023  -11.8936  -17.6613 O   0  0  0  0  0  0  0  0  0  0  0  0
   16.7627  -10.7305  -16.3498 N   0  0  0  0  0  0  0  0  0  0  0  0
   17.4104   -9.4857  -16.4140 C   0  0  1  0  0  0  0  0  0  0  0  0
   16.6762   -8.2659  -16.0530 C   0  0  0  0  0  0  0  0  0  0  0  0
   17.4702   -6.9808  -16.1023 C   0  0  0  0  0  0  0  0  0  0  0  0
   16.6278   -5.8295  -15.7663 C   0  0  0  0  0  0  0  0  0  0  0  0
   17.0337   -4.6422  -15.7682 O   0  0  0  0  0  0  0  0  0  0  0  0
   18.6408   -9.5908  -15.5425 C   0  0  0  0  0  0  0  0  0  0  0  0
   18.5769  -10.1070  -14.3976 O   0  0  0  0  0  0  0  0  0  0  0  0
   15.3012   -6.0527  -15.4245 O   0  0  0  0  0  0  0  0  0  0  0  0
   24.4411  -11.0982  -15.6220 C   0  0  0  0  0  0  0  0  0  0  0  0
   23.3668  -10.3172  -14.9038 C   0  0  2  0  0  0  0  0  0  0  0  0
   23.0911  -11.0932  -13.6065 C   0  0  0  0  0  0  0  0  0  0  0  0
   22.0810  -10.2105  -15.6267 C   0  0  0  0  0  0  0  0  0  0  0  0
   21.1037   -9.1936  -15.1630 C   0  0  2  0  0  0  0  0  0  0  0  0
   19.9132   -9.1188  -15.9661 N   0  0  0  0  0  0  0  0  0  0  0  0
   21.7041   -7.8776  -14.8669 C   0  0  0  0  0  0  0  0  0  0  0  0
   21.9466   -7.5301  -13.6857 O   0  0  0  0  0  0  0  0  0  0  0  0
   22.0195   -6.9833  -15.8780 O   0  0  0  0  0  0  0  0  0  0  0  0
  2  1  1  1
  2  3  1  0
  4  5  1  6
  4  2  1  0
  6  4  1  0
  7  6  2  0
  8  6  1  0
  9 14  1  0
  9  8  1  0
  9 10  1  1
 11 10  1  0
 12 11  1  0
 13 12  2  0
 14 22  1  0
 15 14  2  0
 16 12  1  0
 18 17  1  6
 19 18  1  0
 20 18  1  0
 21 20  1  6
 21 23  1  0
 22 21  1  0
 23 24  2  0
 23 25  1  0
M  END
$$$$
