TEL.pdb
     RDKit          3D

 25 24  0  0  1  0  0  0  0  0999 V2000
   16.0572  -11.1449  -15.6592 C   0  0  0  0  0  0  0  0  0  0  0  0
   16.8051  -11.9761  -16.7064 C   0  0  1  0  0  0  0  0  0  0  0  0
   16.0082  -13.0948  -16.9419 O   0  0  0  0  0  0  0  0  0  0  0  0
   16.9072  -11.1303  -17.9435 C   0  0  2  0  0  0  0  0  0  0  0  0
   17.3463  -11.8674  -19.1087 N   0  0  0  0  0  0  0  0  0  0  0  0
   17.7321   -9.9142  -17.7259 C   0  0  0  0  0  0  0  0  0  0  0  0
   18.9706   -9.9639  -17.7224 O   0  0  0  0  0  0  0  0  0  0  0  0
   17.1354   -8.6472  -17.5134 N   0  0  0  0  0  0  0  0  0  0  0  0
   17.7997   -7.4293  -17.2937 C   0  0  1  0  0  0  0  0  0  0  0  0
   17.0197   -6.1942  -17.1412 C   0  0  0  0  0  0  0  0  0  0  0  0
   17.8227   -4.9264  -16.9616 C   0  0  0  0  0  0  0  0  0  0  0  0
   16.9509   -3.7483  -16.9579 C   0  0  0  0  0  0  0  0  0  0  0  0
   15.8884   -3.6630  -17.6200 O   0  0  0  0  0  0  0  0  0  0  0  0
   18.6591   -7.6187  -16.0649 C   0  0  0  0  0  0  0  0  0  0  0  0
   18.2527   -8.3081  -15.0948 O   0  0  0  0  0  0  0  0  0  0  0  0
   17.3107   -2.6564  -16.1802 O   0  0  0  0  0  0  0  0  0  0  0  0
   23.3742  -10.0100  -13.9641 C   0  0  0  0  0  0  0  0  0  0  0  0
   22.3975   -8.8906  -13.6933 C   0  0  2  0  0  0  0  0  0  0  0  0
   21.5365   -9.3714  -12.5151 C   0  0  0  0  0  0  0  0  0  0  0  0
   21.4747   -8.5816  -14.8071 C   0  0  0  0  0  0  0  0  0  0  0  0
   20.8237   -7.2474  -14.8222 C   0  0  2  0  0  0  0  0  0  0  0  0
   19.9505   -7.0363  -15.9450 N   0  0  0  0  0  0  0  0  0  0  0  0
   21.7508   -6.1259  -14.5716 C   0  0  0  0  0  0  0  0  0  0  0  0
   22.4506   -6.0876  -13.5306 O   0  0  0  0  0  0  0  0  0  0  0  0
   21.8805   -5.0805  -15.4727 O   0  0  0  0  0  0  0  0  0  0  0  0
  2  1  1  1
  2  3  1  0
  4  5  1  6
  4  2  1  0
  6  4  1  0
  7  6  2  0
  8  6  1  0
  9 14  1  0
  9  8  1  0
  9 10  1  1
 11 10  1  0
 12 11  1  0
 13 12  2  0
 14 22  1  0
 15 14  2  0
 16 12  1  0
 18 17  1  6
 19 18  1  0
 20 18  1  0
 21 20  1  6
 21 23  1  0
 22 21  1  0
 23 24  2  0
 23 25  1  0
M  END
$$$$
