TEL.pdb
     RDKit          3D

 25 24  0  0  1  0  0  0  0  0999 V2000
   17.0247  -14.4447  -16.0144 C   0  0  0  0  0  0  0  0  0  0  0  0
   17.6584  -13.0597  -15.8490 C   0  0  1  0  0  0  0  0  0  0  0  0
   18.9578  -13.2888  -15.4004 O   0  0  0  0  0  0  0  0  0  0  0  0
   17.6737  -12.4215  -17.2086 C   0  0  2  0  0  0  0  0  0  0  0  0
   18.3749  -13.2047  -18.2029 N   0  0  0  0  0  0  0  0  0  0  0  0
   18.1720  -11.0227  -17.1669 C   0  0  0  0  0  0  0  0  0  0  0  0
   19.2409  -10.6998  -17.7048 O   0  0  0  0  0  0  0  0  0  0  0  0
   17.4443  -10.0005  -16.5096 N   0  0  0  0  0  0  0  0  0  0  0  0
   17.7811   -8.6386  -16.4392 C   0  0  1  0  0  0  0  0  0  0  0  0
   16.7354   -7.6458  -16.1599 C   0  0  0  0  0  0  0  0  0  0  0  0
   17.1950   -6.2077  -16.0893 C   0  0  0  0  0  0  0  0  0  0  0  0
   16.0876   -5.3195  -15.7251 C   0  0  0  0  0  0  0  0  0  0  0  0
   16.1222   -4.5189  -14.7594 O   0  0  0  0  0  0  0  0  0  0  0  0
   18.8654   -8.5127  -15.3939 C   0  0  0  0  0  0  0  0  0  0  0  0
   18.9430   -9.3336  -14.4443 O   0  0  0  0  0  0  0  0  0  0  0  0
   14.9269   -5.3564  -16.4854 O   0  0  0  0  0  0  0  0  0  0  0  0
   24.3564   -8.4552  -14.9672 C   0  0  0  0  0  0  0  0  0  0  0  0
   23.1532   -8.8248  -14.1331 C   0  0  2  0  0  0  0  0  0  0  0  0
   23.3565  -10.2981  -13.7472 C   0  0  0  0  0  0  0  0  0  0  0  0
   21.8539   -8.7355  -14.8341 C   0  0  0  0  0  0  0  0  0  0  0  0
   21.0570   -7.4940  -14.6680 C   0  0  2  0  0  0  0  0  0  0  0  0
   19.8379   -7.4762  -15.4304 N   0  0  0  0  0  0  0  0  0  0  0  0
   21.8493   -6.2537  -14.7857 C   0  0  0  0  0  0  0  0  0  0  0  0
   22.8005   -6.0188  -14.0016 O   0  0  0  0  0  0  0  0  0  0  0  0
   21.5721   -5.3090  -15.7617 O   0  0  0  0  0  0  0  0  0  0  0  0
  2  1  1  6
  2  3  1  0
  4  5  1  6
  4  2  1  0
  6  4  1  0
  7  6  2  0
  8  6  1  0
  9 14  1  0
  9  8  1  0
  9 10  1  1
 11 10  1  0
 12 11  1  0
 13 12  2  0
 14 22  1  0
 15 14  2  0
 16 12  1  0
 18 17  1  6
 19 18  1  0
 20 18  1  0
 21 20  1  6
 21 23  1  0
 22 21  1  0
 23 24  2  0
 23 25  1  0
M  END
$$$$
