TEL.pdb
     RDKit          3D

 25 24  0  0  1  0  0  0  0  0999 V2000
   17.1311  -12.7238  -14.9292 C   0  0  0  0  0  0  0  0  0  0  0  0
   17.4863  -13.9658  -15.7530 C   0  0  1  0  0  0  0  0  0  0  0  0
   16.5167  -14.9170  -15.4416 O   0  0  0  0  0  0  0  0  0  0  0  0
   17.3940  -13.5712  -17.1994 C   0  0  2  0  0  0  0  0  0  0  0  0
   17.5330  -14.6877  -18.1093 N   0  0  0  0  0  0  0  0  0  0  0  0
   18.3303  -12.4700  -17.5420 C   0  0  0  0  0  0  0  0  0  0  0  0
   19.4726  -12.6992  -17.9649 O   0  0  0  0  0  0  0  0  0  0  0  0
   17.9545  -11.1118  -17.3987 N   0  0  0  0  0  0  0  0  0  0  0  0
   18.7495   -9.9850  -17.6656 C   0  0  1  0  0  0  0  0  0  0  0  0
   18.1318   -8.7780  -18.2303 C   0  0  0  0  0  0  0  0  0  0  0  0
   19.0786   -7.6477  -18.5625 C   0  0  0  0  0  0  0  0  0  0  0  0
   18.3514   -6.4932  -19.0976 C   0  0  0  0  0  0  0  0  0  0  0  0
   18.9065   -5.4396  -19.4929 O   0  0  0  0  0  0  0  0  0  0  0  0
   19.4363   -9.6210  -16.3694 C   0  0  0  0  0  0  0  0  0  0  0  0
   18.7924   -9.5752  -15.2901 O   0  0  0  0  0  0  0  0  0  0  0  0
   16.9671   -6.5570  -19.1769 O   0  0  0  0  0  0  0  0  0  0  0  0
   22.8170  -11.6387  -13.9155 C   0  0  0  0  0  0  0  0  0  0  0  0
   23.2106  -10.8389  -15.1343 C   0  0  2  0  0  0  0  0  0  0  0  0
   24.7345  -10.9940  -15.2541 C   0  0  0  0  0  0  0  0  0  0  0  0
   22.9275   -9.3896  -15.0504 C   0  0  0  0  0  0  0  0  0  0  0  0
   21.5091   -8.9534  -15.0944 C   0  0  2  0  0  0  0  0  0  0  0  0
   20.8236   -9.3168  -16.3052 N   0  0  0  0  0  0  0  0  0  0  0  0
   21.3024   -7.5474  -14.6939 C   0  0  0  0  0  0  0  0  0  0  0  0
   21.2026   -6.6394  -15.5544 O   0  0  0  0  0  0  0  0  0  0  0  0
   21.2118   -7.1821  -13.3598 O   0  0  0  0  0  0  0  0  0  0  0  0
  2  1  1  1
  2  3  1  0
  4  5  1  6
  4  2  1  0
  6  4  1  0
  7  6  2  0
  8  6  1  0
  9 14  1  0
  9  8  1  0
  9 10  1  1
 11 10  1  0
 12 11  1  0
 13 12  2  0
 14 22  1  0
 15 14  2  0
 16 12  1  0
 18 17  1  1
 19 18  1  0
 20 18  1  0
 21 20  1  6
 21 23  1  0
 22 21  1  0
 23 24  2  0
 23 25  1  0
M  END
$$$$
