TEL.pdb
     RDKit          3D

 25 24  0  0  1  0  0  0  0  0999 V2000
   13.8827  -24.6639    1.0433 C   0  0  0  0  0  0  0  0  0  0  0  0
   14.4367  -24.3506   -0.3503 C   0  0  1  0  0  0  0  0  0  0  0  0
   13.5082  -24.8672   -1.2520 O   0  0  0  0  0  0  0  0  0  0  0  0
   14.5090  -22.8547   -0.4651 C   0  0  2  0  0  0  0  0  0  0  0  0
   14.7361  -22.3928   -1.8175 N   0  0  0  0  0  0  0  0  0  0  0  0
   15.4887  -22.2653    0.4832 C   0  0  0  0  0  0  0  0  0  0  0  0
   16.6932  -22.1840    0.2026 O   0  0  0  0  0  0  0  0  0  0  0  0
   15.0848  -21.7718    1.7480 N   0  0  0  0  0  0  0  0  0  0  0  0
   15.8914  -21.1177    2.6938 C   0  0  1  0  0  0  0  0  0  0  0  0
   15.2938  -20.1213    3.5924 C   0  0  0  0  0  0  0  0  0  0  0  0
   16.2481  -19.4360    4.5432 C   0  0  0  0  0  0  0  0  0  0  0  0
   15.5507  -18.4382    5.3592 C   0  0  0  0  0  0  0  0  0  0  0  0
   16.1182  -17.7098    6.2089 O   0  0  0  0  0  0  0  0  0  0  0  0
   16.5457  -22.1959    3.5267 C   0  0  0  0  0  0  0  0  0  0  0  0
   15.8660  -23.1358    4.0127 O   0  0  0  0  0  0  0  0  0  0  0  0
   14.1820  -18.2799    5.1913 O   0  0  0  0  0  0  0  0  0  0  0  0
   19.0468  -25.7961    2.7305 C   0  0  0  0  0  0  0  0  0  0  0  0
   19.7040  -24.4375    2.6825 C   0  0  2  0  0  0  0  0  0  0  0  0
   21.1301  -24.6878    2.1683 C   0  0  0  0  0  0  0  0  0  0  0  0
   19.8277  -23.7552    3.9889 C   0  0  0  0  0  0  0  0  0  0  0  0
   18.5960  -23.1985    4.6031 C   0  0  2  0  0  0  0  0  0  0  0  0
   17.9411  -22.2025    3.7989 N   0  0  0  0  0  0  0  0  0  0  0  0
   18.7563  -22.8082    6.0181 C   0  0  0  0  0  0  0  0  0  0  0  0
   19.1198  -23.6441    6.8807 O   0  0  0  0  0  0  0  0  0  0  0  0
   18.5122  -21.5112    6.4419 O   0  0  0  0  0  0  0  0  0  0  0  0
  2  1  1  1
  2  3  1  0
  4  5  1  6
  4  2  1  0
  6  4  1  0
  7  6  2  0
  8  6  1  0
  9 14  1  0
  9  8  1  0
  9 10  1  1
 11 10  1  0
 12 11  1  0
 13 12  2  0
 14 22  1  0
 15 14  2  0
 16 12  1  0
 18 17  1  1
 19 18  1  0
 20 18  1  0
 21 20  1  6
 21 23  1  0
 22 21  1  0
 23 24  2  0
 23 25  1  0
M  END
$$$$
