TEL.pdb
     RDKit          3D

 25 24  0  0  1  0  0  0  0  0999 V2000
   17.5507   -9.8933  -17.6106 C   0  0  0  0  0  0  0  0  0  0  0  0
   17.5301  -10.9836  -16.5345 C   0  0  1  0  0  0  0  0  0  0  0  0
   16.4649  -11.8200  -16.8629 O   0  0  0  0  0  0  0  0  0  0  0  0
   18.8336  -11.7229  -16.6373 C   0  0  2  0  0  0  0  0  0  0  0  0
   18.8445  -12.9721  -15.9070 N   0  0  0  0  0  0  0  0  0  0  0  0
   19.9937  -10.8694  -16.2732 C   0  0  0  0  0  0  0  0  0  0  0  0
   20.1811  -10.4947  -15.1068 O   0  0  0  0  0  0  0  0  0  0  0  0
   20.9333  -10.4491  -17.2463 N   0  0  0  0  0  0  0  0  0  0  0  0
   22.0784   -9.6654  -17.0282 C   0  0  1  0  0  0  0  0  0  0  0  0
   23.1749   -9.6947  -18.0050 C   0  0  0  0  0  0  0  0  0  0  0  0
   24.3310   -8.7622  -17.7251 C   0  0  0  0  0  0  0  0  0  0  0  0
   25.3292   -8.8266  -18.7963 C   0  0  0  0  0  0  0  0  0  0  0  0
   25.7298   -7.8265  -19.4395 O   0  0  0  0  0  0  0  0  0  0  0  0
   21.6047   -8.2390  -16.8689 C   0  0  0  0  0  0  0  0  0  0  0  0
   20.8361   -7.7171  -17.7165 O   0  0  0  0  0  0  0  0  0  0  0  0
   25.8709  -10.0608  -19.1279 O   0  0  0  0  0  0  0  0  0  0  0  0
   17.6542   -5.1065  -15.0973 C   0  0  0  0  0  0  0  0  0  0  0  0
   19.1578   -4.9727  -15.1333 C   0  0  2  0  0  0  0  0  0  0  0  0
   19.4568   -3.9937  -16.2792 C   0  0  0  0  0  0  0  0  0  0  0  0
   19.8908   -6.2229  -15.4288 C   0  0  0  0  0  0  0  0  0  0  0  0
   21.3746   -6.1752  -15.4352 C   0  0  2  0  0  0  0  0  0  0  0  0
   21.9977   -7.4272  -15.7699 N   0  0  0  0  0  0  0  0  0  0  0  0
   21.9577   -5.5203  -14.2473 C   0  0  0  0  0  0  0  0  0  0  0  0
   21.9601   -4.2703  -14.1356 O   0  0  0  0  0  0  0  0  0  0  0  0
   22.5207   -6.2590  -13.2182 O   0  0  0  0  0  0  0  0  0  0  0  0
  2  1  1  6
  2  3  1  0
  4  5  1  1
  4  2  1  0
  6  4  1  0
  7  6  2  0
  8  6  1  0
  9 14  1  0
  9  8  1  0
  9 10  1  6
 11 10  1  0
 12 11  1  0
 13 12  2  0
 14 22  1  0
 15 14  2  0
 16 12  1  0
 18 17  1  6
 19 18  1  0
 20 18  1  0
 21 20  1  1
 21 23  1  0
 22 21  1  0
 23 24  2  0
 23 25  1  0
M  END
$$$$
