TEL.pdb
     RDKit          3D

 25 24  0  0  1  0  0  0  0  0999 V2000
   14.3342  -13.2794  -14.6668 C   0  0  0  0  0  0  0  0  0  0  0  0
   15.6296  -12.5052  -14.9312 C   0  0  1  0  0  0  0  0  0  0  0  0
   16.6478  -13.2625  -14.3550 O   0  0  0  0  0  0  0  0  0  0  0  0
   15.8007  -12.4370  -16.4219 C   0  0  2  0  0  0  0  0  0  0  0  0
   15.8513  -13.7376  -17.0543 N   0  0  0  0  0  0  0  0  0  0  0  0
   16.9588  -11.5945  -16.8164 C   0  0  0  0  0  0  0  0  0  0  0  0
   18.0526  -12.0957  -17.1141 O   0  0  0  0  0  0  0  0  0  0  0  0
   16.8591  -10.1825  -16.8681 N   0  0  0  0  0  0  0  0  0  0  0  0
   17.8596   -9.2814  -17.2683 C   0  0  1  0  0  0  0  0  0  0  0  0
   17.4961   -7.9026  -17.6203 C   0  0  0  0  0  0  0  0  0  0  0  0
   18.6256   -7.0309  -18.1191 C   0  0  0  0  0  0  0  0  0  0  0  0
   18.8972   -7.2831  -19.5370 C   0  0  0  0  0  0  0  0  0  0  0  0
   18.0065   -7.3487  -20.4184 O   0  0  0  0  0  0  0  0  0  0  0  0
   18.8835   -9.2476  -16.1570 C   0  0  0  0  0  0  0  0  0  0  0  0
   18.5298   -9.3266  -14.9528 O   0  0  0  0  0  0  0  0  0  0  0  0
   20.2131   -7.4614  -19.9412 O   0  0  0  0  0  0  0  0  0  0  0  0
   24.5004   -9.2263  -14.8483 C   0  0  0  0  0  0  0  0  0  0  0  0
   23.3641  -10.1261  -14.4248 C   0  0  2  0  0  0  0  0  0  0  0  0
   23.9622  -11.5397  -14.3550 C   0  0  0  0  0  0  0  0  0  0  0  0
   22.2258  -10.1830  -15.3673 C   0  0  0  0  0  0  0  0  0  0  0  0
   21.2761   -9.0419  -15.3820 C   0  0  2  0  0  0  0  0  0  0  0  0
   20.2769   -9.1269  -16.4125 N   0  0  0  0  0  0  0  0  0  0  0  0
   21.9274   -7.7198  -15.2937 C   0  0  0  0  0  0  0  0  0  0  0  0
   22.1031   -7.0174  -16.3187 O   0  0  0  0  0  0  0  0  0  0  0  0
   22.3659   -7.2098  -14.0815 O   0  0  0  0  0  0  0  0  0  0  0  0
  2  1  1  6
  2  3  1  0
  4  5  1  1
  4  2  1  0
  6  4  1  0
  7  6  2  0
  8  6  1  0
  9 14  1  0
  9  8  1  0
  9 10  1  1
 11 10  1  0
 12 11  1  0
 13 12  2  0
 14 22  1  0
 15 14  2  0
 16 12  1  0
 18 17  1  6
 19 18  1  0
 20 18  1  0
 21 20  1  6
 21 23  1  0
 22 21  1  0
 23 24  2  0
 23 25  1  0
M  END
$$$$
