TEL.pdb
     RDKit          3D

 25 24  0  0  1  0  0  0  0  0999 V2000
   24.4087  -10.6335  -14.9536 C   0  0  0  0  0  0  0  0  0  0  0  0
   24.6137  -11.4497  -16.2339 C   0  0  1  0  0  0  0  0  0  0  0  0
   25.5310  -12.4460  -15.9051 O   0  0  0  0  0  0  0  0  0  0  0  0
   23.2832  -12.0516  -16.5854 C   0  0  2  0  0  0  0  0  0  0  0  0
   23.3532  -13.0047  -17.6720 N   0  0  0  0  0  0  0  0  0  0  0  0
   22.2469  -11.0170  -16.8349 C   0  0  0  0  0  0  0  0  0  0  0  0
   22.2347  -10.3515  -17.8804 O   0  0  0  0  0  0  0  0  0  0  0  0
   21.2297  -10.7492  -15.8861 N   0  0  0  0  0  0  0  0  0  0  0  0
   20.1396   -9.8774  -16.0432 C   0  0  1  0  0  0  0  0  0  0  0  0
   18.8118  -10.2818  -15.5629 C   0  0  0  0  0  0  0  0  0  0  0  0
   18.1575  -11.4179  -16.3150 C   0  0  0  0  0  0  0  0  0  0  0  0
   16.8685  -11.7722  -15.7142 C   0  0  0  0  0  0  0  0  0  0  0  0
   16.3934  -11.2110  -14.6974 O   0  0  0  0  0  0  0  0  0  0  0  0
   20.5242   -8.5764  -15.3771 C   0  0  0  0  0  0  0  0  0  0  0  0
   21.0238   -8.5667  -14.2231 O   0  0  0  0  0  0  0  0  0  0  0  0
   16.1198  -12.7864  -16.2951 O   0  0  0  0  0  0  0  0  0  0  0  0
   22.4181   -2.8285  -16.4287 C   0  0  0  0  0  0  0  0  0  0  0  0
   21.6586   -3.7769  -15.5322 C   0  0  2  0  0  0  0  0  0  0  0  0
   22.5221   -3.9316  -14.2707 C   0  0  0  0  0  0  0  0  0  0  0  0
   21.4530   -5.1328  -16.0860 C   0  0  0  0  0  0  0  0  0  0  0  0
   20.5455   -6.0531  -15.3555 C   0  0  2  0  0  0  0  0  0  0  0  0
   20.3437   -7.3168  -16.0114 N   0  0  0  0  0  0  0  0  0  0  0  0
   19.2957   -5.4184  -14.8917 C   0  0  0  0  0  0  0  0  0  0  0  0
   18.2798   -5.3803  -15.6275 O   0  0  0  0  0  0  0  0  0  0  0  0
   19.2004   -4.8447  -13.6334 O   0  0  0  0  0  0  0  0  0  0  0  0
  2  1  1  1
  2  3  1  0
  4  5  1  6
  4  2  1  0
  6  4  1  0
  7  6  2  0
  8  6  1  0
  9 14  1  0
  9  8  1  0
  9 10  1  1
 11 10  1  0
 12 11  1  0
 13 12  2  0
 14 22  1  0
 15 14  2  0
 16 12  1  0
 18 17  1  6
 19 18  1  0
 20 18  1  0
 21 20  1  6
 21 23  1  0
 22 21  1  0
 23 24  2  0
 23 25  1  0
M  END
$$$$
