TEL.pdb
     RDKit          3D

 25 24  0  0  1  0  0  0  0  0999 V2000
   15.2531  -10.6567  -15.5860 C   0  0  0  0  0  0  0  0  0  0  0  0
   15.7524  -12.0938  -15.7673 C   0  0  1  0  0  0  0  0  0  0  0  0
   14.6093  -12.8901  -15.8039 O   0  0  0  0  0  0  0  0  0  0  0  0
   16.4728  -12.1426  -17.0844 C   0  0  2  0  0  0  0  0  0  0  0  0
   16.8215  -13.4844  -17.4988 N   0  0  0  0  0  0  0  0  0  0  0  0
   17.6524  -11.2402  -17.1133 C   0  0  0  0  0  0  0  0  0  0  0  0
   18.7500  -11.5945  -16.6596 O   0  0  0  0  0  0  0  0  0  0  0  0
   17.5696   -9.9366  -17.6611 N   0  0  0  0  0  0  0  0  0  0  0  0
   18.6069   -8.9939  -17.7531 C   0  0  1  0  0  0  0  0  0  0  0  0
   18.4702   -7.8507  -18.6650 C   0  0  0  0  0  0  0  0  0  0  0  0
   19.6700   -6.9365  -18.7591 C   0  0  0  0  0  0  0  0  0  0  0  0
   19.4394   -5.8654  -19.7324 C   0  0  0  0  0  0  0  0  0  0  0  0
   18.9550   -4.7458  -19.4382 O   0  0  0  0  0  0  0  0  0  0  0  0
   18.8485   -8.4760  -16.3539 C   0  0  0  0  0  0  0  0  0  0  0  0
   17.8853   -8.2081  -15.5911 O   0  0  0  0  0  0  0  0  0  0  0  0
   19.7725   -6.0903  -21.0610 O   0  0  0  0  0  0  0  0  0  0  0  0
   22.6257   -6.8614  -12.3342 C   0  0  0  0  0  0  0  0  0  0  0  0
   21.7663   -8.1017  -12.3906 C   0  0  2  0  0  0  0  0  0  0  0  0
   22.6074   -9.2151  -11.7473 C   0  0  0  0  0  0  0  0  0  0  0  0
   21.4129   -8.5572  -13.7526 C   0  0  0  0  0  0  0  0  0  0  0  0
   20.4260   -7.7568  -14.5204 C   0  0  2  0  0  0  0  0  0  0  0  0
   20.1565   -8.2687  -15.8369 N   0  0  0  0  0  0  0  0  0  0  0  0
   20.6803   -6.3027  -14.4890 C   0  0  0  0  0  0  0  0  0  0  0  0
   20.3399   -5.6094  -13.4998 O   0  0  0  0  0  0  0  0  0  0  0  0
   21.3008   -5.6547  -15.5457 O   0  0  0  0  0  0  0  0  0  0  0  0
  2  1  1  6
  2  3  1  0
  4  5  1  1
  4  2  1  0
  6  4  1  0
  7  6  2  0
  8  6  1  0
  9 14  1  0
  9  8  1  0
  9 10  1  6
 11 10  1  0
 12 11  1  0
 13 12  2  0
 14 22  1  0
 15 14  2  0
 16 12  1  0
 18 17  1  6
 19 18  1  0
 20 18  1  0
 21 20  1  6
 21 23  1  0
 22 21  1  0
 23 24  2  0
 23 25  1  0
M  END
$$$$
