CHM.pdb
     RDKit          3D

 25 25  0  0  1  0  0  0  0  0999 V2000
    7.7478  -15.2079   17.6712 N   0  0  0  0  0  0  0  0  0  0  0  0
    8.3393  -14.6068   18.8451 C   0  0  1  0  0  0  0  0  0  0  0  0
    7.6894  -13.2867   19.1563 C   0  0  0  0  0  0  0  0  0  0  0  0
    8.3101  -12.5796   20.7033 S   0  0  0  0  0  0  0  0  0  0  0  0
    8.3505  -15.5250   20.0027 C   0  0  0  0  0  0  0  0  0  0  0  0
    7.3205  -16.2010   20.2226 O   0  0  0  0  0  0  0  0  0  0  0  0
    9.4492  -15.6860   20.8739 N   0  0  0  0  0  0  0  0  0  0  0  0
    9.4229  -16.5030   22.0673 C   0  0  1  0  0  0  0  0  0  0  0  0
   10.5299  -17.5356   21.9572 C   0  0  0  0  0  0  0  0  0  0  0  0
   10.1615  -18.6357   21.0302 C   0  0  0  0  0  0  0  0  0  0  0  0
   10.7026  -18.8676   19.7816 C   0  0  0  0  0  0  0  0  0  0  0  0
   10.1116  -19.9630   19.2400 N   0  0  0  0  0  0  0  0  0  0  0  0
    9.2123  -20.4208   20.1240 C   0  0  0  0  0  0  0  0  0  0  0  0
    9.2468  -19.6175   21.1999 N   0  0  0  0  0  0  0  0  0  0  0  0
    9.6541  -15.7204   23.2954 C   0  0  0  0  0  0  0  0  0  0  0  0
   10.0760  -14.5420   23.1757 O   0  0  0  0  0  0  0  0  0  0  0  0
    6.3892  -11.2883   26.4094 C   0  0  0  0  0  0  0  0  0  0  0  0
    7.6264  -12.5852   26.6803 S   0  0  0  0  0  0  0  0  0  0  0  0
    6.8304  -14.1766   26.4683 C   0  0  0  0  0  0  0  0  0  0  0  0
    7.4352  -14.9999   25.3579 C   0  0  0  0  0  0  0  0  0  0  0  0
    8.8465  -15.4338   25.6661 C   0  0  2  0  0  0  0  0  0  0  0  0
    9.4335  -16.2043   24.6108 N   0  0  0  0  0  0  0  0  0  0  0  0
    8.8037  -16.2445   26.9009 C   0  0  0  0  0  0  0  0  0  0  0  0
    8.2378  -17.3616   26.8610 O   0  0  0  0  0  0  0  0  0  0  0  0
    9.3523  -15.8493   28.1123 O   0  0  0  0  0  0  0  0  0  0  0  0
  2  1  1  6
  3  2  1  0
  4  3  1  0
  5  2  1  0
  5  6  2  0
  7  5  1  0
  8  7  1  0
  8  9  1  6
 10  9  1  0
 10 14  1  0
 11 12  1  0
 11 10  2  0
 12 13  1  0
 13 14  2  0
 15  8  1  0
 16 15  2  0
 18 17  1  0
 19 18  1  0
 20 19  1  0
 21 20  1  6
 21 22  1  0
 22 15  1  0
 23 21  1  0
 24 23  2  0
 25 23  1  0
M  END
$$$$
