CHM.pdb
     RDKit          3D

 25 25  0  0  1  0  0  0  0  0999 V2000
    9.6850  -15.2995   18.2834 N   0  0  0  0  0  0  0  0  0  0  0  0
    9.0814  -14.2957   19.1303 C   0  0  1  0  0  0  0  0  0  0  0  0
    8.0276  -13.5267   18.3820 C   0  0  0  0  0  0  0  0  0  0  0  0
    7.5935  -11.9848   19.2262 S   0  0  0  0  0  0  0  0  0  0  0  0
    8.5828  -14.8582   20.4024 C   0  0  0  0  0  0  0  0  0  0  0  0
    7.9547  -14.0968   21.1718 O   0  0  0  0  0  0  0  0  0  0  0  0
    8.7711  -16.1986   20.8023 N   0  0  0  0  0  0  0  0  0  0  0  0
    8.1462  -16.7920   21.9640 C   0  0  1  0  0  0  0  0  0  0  0  0
    8.4480  -18.2796   21.9544 C   0  0  0  0  0  0  0  0  0  0  0  0
    7.7177  -18.9928   23.0329 C   0  0  0  0  0  0  0  0  0  0  0  0
    6.8425  -18.4280   23.9388 C   0  0  0  0  0  0  0  0  0  0  0  0
    6.3765  -19.3973   24.7669 N   0  0  0  0  0  0  0  0  0  0  0  0
    6.9420  -20.5563   24.3977 C   0  0  0  0  0  0  0  0  0  0  0  0
    7.7486  -20.3066   23.3531 N   0  0  0  0  0  0  0  0  0  0  0  0
    8.6573  -16.2345   23.2297 C   0  0  0  0  0  0  0  0  0  0  0  0
    9.9009  -16.0993   23.3576 O   0  0  0  0  0  0  0  0  0  0  0  0
    7.1500  -10.0574   25.8009 C   0  0  0  0  0  0  0  0  0  0  0  0
    6.6510  -11.6837   26.4272 S   0  0  0  0  0  0  0  0  0  0  0  0
    7.7572  -12.9154   25.7412 C   0  0  0  0  0  0  0  0  0  0  0  0
    7.4428  -14.3177   26.2008 C   0  0  0  0  0  0  0  0  0  0  0  0
    8.3464  -15.3468   25.5685 C   0  0  2  0  0  0  0  0  0  0  0  0
    7.8419  -15.8370   24.3207 N   0  0  0  0  0  0  0  0  0  0  0  0
    8.4775  -16.4695   26.5205 C   0  0  0  0  0  0  0  0  0  0  0  0
    7.7683  -17.4870   26.3432 O   0  0  0  0  0  0  0  0  0  0  0  0
    9.3402  -16.4735   27.6069 O   0  0  0  0  0  0  0  0  0  0  0  0
  2  1  1  6
  3  2  1  0
  4  3  1  0
  5  2  1  0
  5  6  2  0
  7  5  1  0
  8  7  1  0
  8  9  1  1
 10  9  1  0
 10 14  1  0
 11 12  1  0
 11 10  2  0
 12 13  1  0
 13 14  2  0
 15  8  1  0
 16 15  2  0
 18 17  1  0
 19 18  1  0
 20 19  1  0
 21 20  1  1
 21 22  1  0
 22 15  1  0
 23 21  1  0
 24 23  2  0
 25 23  1  0
M  END
$$$$
