CHM.pdb
     RDKit          3D

 25 25  0  0  1  0  0  0  0  0999 V2000
    8.2336  -14.5275   17.5902 N   0  0  0  0  0  0  0  0  0  0  0  0
    9.2743  -14.3152   18.5704 C   0  0  1  0  0  0  0  0  0  0  0  0
    9.3263  -12.8727   18.9929 C   0  0  0  0  0  0  0  0  0  0  0  0
    7.8590  -12.3964   19.9409 S   0  0  0  0  0  0  0  0  0  0  0  0
    9.1665  -15.2423   19.7158 C   0  0  0  0  0  0  0  0  0  0  0  0
    8.0485  -15.7532   19.9511 O   0  0  0  0  0  0  0  0  0  0  0  0
   10.2447  -15.5865   20.5591 N   0  0  0  0  0  0  0  0  0  0  0  0
   10.1433  -16.5133   21.6651 C   0  0  1  0  0  0  0  0  0  0  0  0
   11.3985  -17.3667   21.6825 C   0  0  0  0  0  0  0  0  0  0  0  0
   11.3153  -18.4818   20.7054 C   0  0  0  0  0  0  0  0  0  0  0  0
   11.9988  -18.5729   19.5095 C   0  0  0  0  0  0  0  0  0  0  0  0
   11.6620  -19.7355   18.8951 N   0  0  0  0  0  0  0  0  0  0  0  0
   10.7823  -20.3732   19.6819 C   0  0  0  0  0  0  0  0  0  0  0  0
   10.5774  -19.6135   20.7705 N   0  0  0  0  0  0  0  0  0  0  0  0
   10.0410  -15.8317   22.9686 C   0  0  0  0  0  0  0  0  0  0  0  0
   10.7317  -14.7969   23.1512 O   0  0  0  0  0  0  0  0  0  0  0  0
    6.6087  -11.3873   27.0493 C   0  0  0  0  0  0  0  0  0  0  0  0
    7.7764  -12.6069   26.3896 S   0  0  0  0  0  0  0  0  0  0  0  0
    6.9115  -14.1632   26.1874 C   0  0  0  0  0  0  0  0  0  0  0  0
    7.3757  -14.9489   24.9858 C   0  0  0  0  0  0  0  0  0  0  0  0
    8.8001  -15.4253   25.1248 C   0  0  2  0  0  0  0  0  0  0  0  0
    9.2143  -16.2619   24.0383 N   0  0  0  0  0  0  0  0  0  0  0  0
    8.8953  -16.1814   26.3909 C   0  0  0  0  0  0  0  0  0  0  0  0
    8.7476  -15.5599   27.4687 O   0  0  0  0  0  0  0  0  0  0  0  0
    9.1392  -17.5449   26.4682 O   0  0  0  0  0  0  0  0  0  0  0  0
  2  1  1  6
  3  2  1  0
  4  3  1  0
  5  2  1  0
  5  6  2  0
  7  5  1  0
  8  7  1  0
  8  9  1  1
 10  9  1  0
 10 14  1  0
 11 12  1  0
 11 10  2  0
 12 13  1  0
 13 14  2  0
 15  8  1  0
 16 15  2  0
 18 17  1  0
 19 18  1  0
 20 19  1  0
 21 20  1  6
 21 22  1  0
 22 15  1  0
 23 21  1  0
 24 23  2  0
 25 23  1  0
M  END
$$$$
