CHM.pdb
     RDKit          3D

 25 25  0  0  1  0  0  0  0  0999 V2000
    6.6607  -20.1401   20.3788 N   0  0  0  0  0  0  0  0  0  0  0  0
    6.6210  -19.0856   21.3665 C   0  0  1  0  0  0  0  0  0  0  0  0
    5.8720  -19.5285   22.5932 C   0  0  0  0  0  0  0  0  0  0  0  0
    5.7794  -18.2146   23.8356 S   0  0  0  0  0  0  0  0  0  0  0  0
    7.9645  -18.5552   21.6779 C   0  0  0  0  0  0  0  0  0  0  0  0
    8.8684  -19.3766   21.9510 O   0  0  0  0  0  0  0  0  0  0  0  0
    8.2903  -17.1819   21.6864 N   0  0  0  0  0  0  0  0  0  0  0  0
    9.5707  -16.6565   22.1068 C   0  0  1  0  0  0  0  0  0  0  0  0
    9.9617  -15.5445   21.1504 C   0  0  0  0  0  0  0  0  0  0  0  0
   10.0230  -16.0264   19.7471 C   0  0  0  0  0  0  0  0  0  0  0  0
    9.2116  -15.6192   18.7072 C   0  0  0  0  0  0  0  0  0  0  0  0
    9.5713  -16.2834   17.5794 N   0  0  0  0  0  0  0  0  0  0  0  0
   10.5906  -17.0974   17.8925 C   0  0  0  0  0  0  0  0  0  0  0  0
   10.8582  -16.9383   19.1991 N   0  0  0  0  0  0  0  0  0  0  0  0
    9.5322  -16.0905   23.4678 C   0  0  0  0  0  0  0  0  0  0  0  0
    9.6070  -14.8414   23.5917 O   0  0  0  0  0  0  0  0  0  0  0  0
    7.5511  -11.3048   27.1242 C   0  0  0  0  0  0  0  0  0  0  0  0
    6.9977  -12.9653   26.6525 S   0  0  0  0  0  0  0  0  0  0  0  0
    8.4330  -14.0348   26.5676 C   0  0  0  0  0  0  0  0  0  0  0  0
    8.0968  -15.4491   26.1633 C   0  0  0  0  0  0  0  0  0  0  0  0
    9.3269  -16.3007   25.9714 C   0  0  2  0  0  0  0  0  0  0  0  0
    9.4161  -16.8586   24.6551 N   0  0  0  0  0  0  0  0  0  0  0  0
    9.2718  -17.3931   26.9652 C   0  0  0  0  0  0  0  0  0  0  0  0
    8.8001  -18.4982   26.6104 O   0  0  0  0  0  0  0  0  0  0  0  0
    9.7109  -17.2771   28.2760 O   0  0  0  0  0  0  0  0  0  0  0  0
  2  1  1  6
  3  2  1  0
  4  3  1  0
  5  2  1  0
  5  6  2  0
  7  5  1  0
  8  7  1  0
  8  9  1  6
 10  9  1  0
 10 14  1  0
 11 12  1  0
 11 10  2  0
 12 13  1  0
 13 14  2  0
 15  8  1  0
 16 15  2  0
 18 17  1  0
 19 18  1  0
 20 19  1  0
 21 20  1  6
 21 22  1  0
 22 15  1  0
 23 21  1  0
 24 23  2  0
 25 23  1  0
M  END
$$$$
