CHM.pdb
     RDKit          3D

 25 25  0  0  1  0  0  0  0  0999 V2000
    6.0656  -18.9885   20.7682 N   0  0  0  0  0  0  0  0  0  0  0  0
    5.9955  -17.6203   21.2290 C   0  0  1  0  0  0  0  0  0  0  0  0
    5.2308  -17.5285   22.5208 C   0  0  0  0  0  0  0  0  0  0  0  0
    6.2015  -18.1394   23.9218 S   0  0  0  0  0  0  0  0  0  0  0  0
    7.3266  -16.9837   21.3067 C   0  0  0  0  0  0  0  0  0  0  0  0
    8.3336  -17.7233   21.2335 O   0  0  0  0  0  0  0  0  0  0  0  0
    7.5319  -15.5954   21.4580 N   0  0  0  0  0  0  0  0  0  0  0  0
    8.8357  -14.9729   21.5275 C   0  0  1  0  0  0  0  0  0  0  0  0
    8.7630  -13.6424   20.8005 C   0  0  0  0  0  0  0  0  0  0  0  0
    8.4931  -13.8248   19.3517 C   0  0  0  0  0  0  0  0  0  0  0  0
    7.4388  -13.2851   18.6426 C   0  0  0  0  0  0  0  0  0  0  0  0
    7.5314  -13.6762   17.3461 N   0  0  0  0  0  0  0  0  0  0  0  0
    8.6216  -14.4492   17.2298 C   0  0  0  0  0  0  0  0  0  0  0  0
    9.1966  -14.5351   18.4406 N   0  0  0  0  0  0  0  0  0  0  0  0
    9.2648  -14.7089   22.9132 C   0  0  0  0  0  0  0  0  0  0  0  0
    9.6898  -13.5588   23.1923 O   0  0  0  0  0  0  0  0  0  0  0  0
    5.9079  -11.9886   27.0587 C   0  0  0  0  0  0  0  0  0  0  0  0
    7.2911  -13.1411   27.2702 S   0  0  0  0  0  0  0  0  0  0  0  0
    6.7726  -14.7560   26.6920 C   0  0  0  0  0  0  0  0  0  0  0  0
    7.2697  -15.0777   25.3042 C   0  0  0  0  0  0  0  0  0  0  0  0
    8.7431  -15.3995   25.2808 C   0  0  2  0  0  0  0  0  0  0  0  0
    9.2326  -15.6650   23.9610 N   0  0  0  0  0  0  0  0  0  0  0  0
    8.9527  -16.5898   26.1311 C   0  0  0  0  0  0  0  0  0  0  0  0
    9.5178  -16.4386   27.2391 O   0  0  0  0  0  0  0  0  0  0  0  0
    8.5627  -17.8749   25.7830 O   0  0  0  0  0  0  0  0  0  0  0  0
  2  1  1  1
  3  2  1  0
  4  3  1  0
  5  2  1  0
  5  6  2  0
  7  5  1  0
  8  7  1  0
  8  9  1  6
 10  9  1  0
 10 14  1  0
 11 12  1  0
 11 10  2  0
 12 13  1  0
 13 14  2  0
 15  8  1  0
 16 15  2  0
 18 17  1  0
 19 18  1  0
 20 19  1  0
 21 20  1  6
 21 22  1  0
 22 15  1  0
 23 21  1  0
 24 23  2  0
 25 23  1  0
M  END
$$$$
