CHM.pdb
     RDKit          3D

 25 25  0  0  1  0  0  0  0  0999 V2000
   13.7359  -19.4126   21.1654 N   0  0  0  0  0  0  0  0  0  0  0  0
   12.3025  -19.4568   21.3461 C   0  0  1  0  0  0  0  0  0  0  0  0
   11.9326  -20.3842   22.4708 C   0  0  0  0  0  0  0  0  0  0  0  0
   12.4531  -19.7330   24.0782 S   0  0  0  0  0  0  0  0  0  0  0  0
   11.7125  -18.1107   21.4981 C   0  0  0  0  0  0  0  0  0  0  0  0
   12.4490  -17.1949   21.9286 O   0  0  0  0  0  0  0  0  0  0  0  0
   10.3722  -17.7949   21.1883 N   0  0  0  0  0  0  0  0  0  0  0  0
    9.8023  -16.4714   21.3156 C   0  0  1  0  0  0  0  0  0  0  0  0
    8.6268  -16.3698   20.3607 C   0  0  0  0  0  0  0  0  0  0  0  0
    8.0912  -14.9861   20.2980 C   0  0  0  0  0  0  0  0  0  0  0  0
    6.8698  -14.5602   20.7799 C   0  0  0  0  0  0  0  0  0  0  0  0
    6.7381  -13.2310   20.5380 N   0  0  0  0  0  0  0  0  0  0  0  0
    7.8516  -12.8171   19.9150 C   0  0  0  0  0  0  0  0  0  0  0  0
    8.6628  -13.8783   19.7731 N   0  0  0  0  0  0  0  0  0  0  0  0
    9.3055  -16.1965   22.6763 C   0  0  0  0  0  0  0  0  0  0  0  0
    8.7065  -17.1191   23.2854 O   0  0  0  0  0  0  0  0  0  0  0  0
    5.8032  -11.5717   27.6917 C   0  0  0  0  0  0  0  0  0  0  0  0
    6.3461  -11.8686   25.9878 S   0  0  0  0  0  0  0  0  0  0  0  0
    7.0593  -13.5102   25.9016 C   0  0  0  0  0  0  0  0  0  0  0  0
    7.6314  -13.8387   24.5446 C   0  0  0  0  0  0  0  0  0  0  0  0
    8.8899  -14.6653   24.6353 C   0  0  2  0  0  0  0  0  0  0  0  0
    9.4556  -14.9580   23.3522 N   0  0  0  0  0  0  0  0  0  0  0  0
    8.5445  -15.9288   25.3196 C   0  0  0  0  0  0  0  0  0  0  0  0
    7.7853  -16.7353   24.7341 O   0  0  0  0  0  0  0  0  0  0  0  0
    9.0079  -16.2858   26.5775 O   0  0  0  0  0  0  0  0  0  0  0  0
  2  1  1  1
  3  2  1  0
  4  3  1  0
  5  2  1  0
  5  6  2  0
  7  5  1  0
  8  7  1  0
  8  9  1  6
 10  9  1  0
 10 14  1  0
 11 12  1  0
 11 10  2  0
 12 13  1  0
 13 14  2  0
 15  8  1  0
 16 15  2  0
 18 17  1  0
 19 18  1  0
 20 19  1  0
 21 20  1  6
 21 22  1  0
 22 15  1  0
 23 21  1  0
 24 23  2  0
 25 23  1  0
M  END
$$$$
