CHM.pdb
     RDKit          3D

 25 25  0  0  1  0  0  0  0  0999 V2000
    8.1033  -15.1700   17.2567 N   0  0  0  0  0  0  0  0  0  0  0  0
    8.6967  -14.5250   18.4061 C   0  0  1  0  0  0  0  0  0  0  0  0
    8.1037  -13.1595   18.6197 C   0  0  0  0  0  0  0  0  0  0  0  0
    8.7716  -12.3604   20.1008 S   0  0  0  0  0  0  0  0  0  0  0  0
    8.6386  -15.3689   19.6176 C   0  0  0  0  0  0  0  0  0  0  0  0
    7.5553  -15.9365   19.8831 O   0  0  0  0  0  0  0  0  0  0  0  0
    9.7275  -15.5736   20.4919 N   0  0  0  0  0  0  0  0  0  0  0  0
    9.6970  -16.4703   21.6265 C   0  0  1  0  0  0  0  0  0  0  0  0
   10.9450  -17.3330   21.5802 C   0  0  0  0  0  0  0  0  0  0  0  0
   10.7254  -18.5705   20.7891 C   0  0  0  0  0  0  0  0  0  0  0  0
   11.0585  -18.7626   19.4633 C   0  0  0  0  0  0  0  0  0  0  0  0
   10.7024  -20.0197   19.0955 N   0  0  0  0  0  0  0  0  0  0  0  0
   10.1537  -20.6176   20.1636 C   0  0  0  0  0  0  0  0  0  0  0  0
   10.1702  -19.7402   21.1805 N   0  0  0  0  0  0  0  0  0  0  0  0
    9.6892  -15.7541   22.9153 C   0  0  0  0  0  0  0  0  0  0  0  0
   10.6167  -14.9363   23.1436 O   0  0  0  0  0  0  0  0  0  0  0  0
    6.9905  -11.0498   27.0633 C   0  0  0  0  0  0  0  0  0  0  0  0
    6.0669  -12.5953   26.8519 S   0  0  0  0  0  0  0  0  0  0  0  0
    7.2388  -13.9499   26.8019 C   0  0  0  0  0  0  0  0  0  0  0  0
    7.2938  -14.6385   25.4604 C   0  0  0  0  0  0  0  0  0  0  0  0
    8.6668  -15.1783   25.1463 C   0  0  2  0  0  0  0  0  0  0  0  0
    8.7044  -15.9221   23.9227 N   0  0  0  0  0  0  0  0  0  0  0  0
    9.0678  -16.0547   26.2665 C   0  0  0  0  0  0  0  0  0  0  0  0
    8.9399  -17.2935   26.1292 O   0  0  0  0  0  0  0  0  0  0  0  0
    9.5809  -15.5952   27.4707 O   0  0  0  0  0  0  0  0  0  0  0  0
  2  1  1  6
  3  2  1  0
  4  3  1  0
  5  2  1  0
  5  6  2  0
  7  5  1  0
  8  7  1  0
  8  9  1  1
 10  9  1  0
 10 14  1  0
 11 12  1  0
 11 10  2  0
 12 13  1  0
 13 14  2  0
 15  8  1  0
 16 15  2  0
 18 17  1  0
 19 18  1  0
 20 19  1  0
 21 20  1  1
 21 22  1  0
 22 15  1  0
 23 21  1  0
 24 23  2  0
 25 23  1  0
M  END
$$$$
