CHM.pdb
     RDKit          3D

 25 25  0  0  1  0  0  0  0  0999 V2000
    7.2121  -14.1273   18.0814 N   0  0  0  0  0  0  0  0  0  0  0  0
    8.3100  -14.6326   18.8740 C   0  0  1  0  0  0  0  0  0  0  0  0
    9.4210  -13.6223   18.9562 C   0  0  0  0  0  0  0  0  0  0  0  0
    8.9000  -12.1184   19.8195 S   0  0  0  0  0  0  0  0  0  0  0  0
    7.8726  -15.1099   20.2022 C   0  0  0  0  0  0  0  0  0  0  0  0
    7.0185  -14.4308   20.8153 O   0  0  0  0  0  0  0  0  0  0  0  0
    8.3577  -16.2822   20.8208 N   0  0  0  0  0  0  0  0  0  0  0  0
    7.8607  -16.7995   22.0769 C   0  0  1  0  0  0  0  0  0  0  0  0
    8.2062  -18.2758   22.1491 C   0  0  0  0  0  0  0  0  0  0  0  0
    7.7136  -18.8918   23.4074 C   0  0  0  0  0  0  0  0  0  0  0  0
    6.4858  -18.6719   23.9987 C   0  0  0  0  0  0  0  0  0  0  0  0
    6.4025  -19.4119   25.1335 N   0  0  0  0  0  0  0  0  0  0  0  0
    7.5526  -20.0900   25.2640 C   0  0  0  0  0  0  0  0  0  0  0  0
    8.3382  -19.7728   24.2218 N   0  0  0  0  0  0  0  0  0  0  0  0
    8.4685  -16.1346   23.2442 C   0  0  0  0  0  0  0  0  0  0  0  0
    9.7162  -15.9794   23.2538 O   0  0  0  0  0  0  0  0  0  0  0  0
    6.4277   -9.9888   26.1546 C   0  0  0  0  0  0  0  0  0  0  0  0
    6.1835  -11.7096   26.6697 S   0  0  0  0  0  0  0  0  0  0  0  0
    7.4444  -12.7157   25.8894 C   0  0  0  0  0  0  0  0  0  0  0  0
    7.3674  -14.1716   26.2784 C   0  0  0  0  0  0  0  0  0  0  0  0
    8.3400  -15.0263   25.5046 C   0  0  2  0  0  0  0  0  0  0  0  0
    7.7422  -15.6542   24.3644 N   0  0  0  0  0  0  0  0  0  0  0  0
    8.8514  -16.0634   26.4247 C   0  0  0  0  0  0  0  0  0  0  0  0
    9.5842  -15.7069   27.3764 O   0  0  0  0  0  0  0  0  0  0  0  0
    8.5728  -17.4172   26.3055 O   0  0  0  0  0  0  0  0  0  0  0  0
  2  1  1  1
  3  2  1  0
  4  3  1  0
  5  2  1  0
  5  6  2  0
  7  5  1  0
  8  7  1  0
  8  9  1  1
 10  9  1  0
 10 14  1  0
 11 12  1  0
 11 10  2  0
 12 13  1  0
 13 14  2  0
 15  8  1  0
 16 15  2  0
 18 17  1  0
 19 18  1  0
 20 19  1  0
 21 20  1  1
 21 22  1  0
 22 15  1  0
 23 21  1  0
 24 23  2  0
 25 23  1  0
M  END
$$$$
