CHM.pdb
     RDKit          3D

 25 25  0  0  1  0  0  0  0  0999 V2000
    7.7421  -14.9754   17.2788 N   0  0  0  0  0  0  0  0  0  0  0  0
    8.5150  -14.4760   18.3933 C   0  0  1  0  0  0  0  0  0  0  0  0
    8.1636  -13.0441   18.6903 C   0  0  0  0  0  0  0  0  0  0  0  0
    9.6358  -12.0476   19.0339 S   0  0  0  0  0  0  0  0  0  0  0  0
    8.4155  -15.3470   19.5827 C   0  0  0  0  0  0  0  0  0  0  0  0
    7.2760  -15.5719   20.0488 O   0  0  0  0  0  0  0  0  0  0  0  0
    9.5243  -15.9398   20.2241 N   0  0  0  0  0  0  0  0  0  0  0  0
    9.4357  -16.7140   21.4427 C   0  0  1  0  0  0  0  0  0  0  0  0
   10.6161  -17.6674   21.4833 C   0  0  0  0  0  0  0  0  0  0  0  0
   10.6006  -18.5052   22.7093 C   0  0  0  0  0  0  0  0  0  0  0  0
    9.4852  -18.8669   23.4377 C   0  0  0  0  0  0  0  0  0  0  0  0
    9.8726  -19.6341   24.4883 N   0  0  0  0  0  0  0  0  0  0  0  0
   11.2070  -19.7597   24.4319 C   0  0  0  0  0  0  0  0  0  0  0  0
   11.6398  -19.0779   23.3586 N   0  0  0  0  0  0  0  0  0  0  0  0
    9.4903  -15.8741   22.6534 C   0  0  0  0  0  0  0  0  0  0  0  0
   10.4180  -15.0305   22.7472 O   0  0  0  0  0  0  0  0  0  0  0  0
    6.2925  -11.3675   27.9765 C   0  0  0  0  0  0  0  0  0  0  0  0
    6.0886  -12.3073   26.4398 S   0  0  0  0  0  0  0  0  0  0  0  0
    7.2671  -13.6571   26.4441 C   0  0  0  0  0  0  0  0  0  0  0  0
    7.2593  -14.4565   25.1644 C   0  0  0  0  0  0  0  0  0  0  0  0
    8.5943  -15.0974   24.8779 C   0  0  2  0  0  0  0  0  0  0  0  0
    8.5655  -15.9495   23.7268 N   0  0  0  0  0  0  0  0  0  0  0  0
    8.9720  -15.8901   26.0665 C   0  0  0  0  0  0  0  0  0  0  0  0
    8.4549  -17.0213   26.2173 O   0  0  0  0  0  0  0  0  0  0  0  0
    9.8684  -15.4633   27.0355 O   0  0  0  0  0  0  0  0  0  0  0  0
  2  1  1  6
  3  2  1  0
  4  3  1  0
  5  2  1  0
  5  6  2  0
  7  5  1  0
  8  7  1  0
  8  9  1  1
 10  9  1  0
 10 14  1  0
 11 12  1  0
 11 10  2  0
 12 13  1  0
 13 14  2  0
 15  8  1  0
 16 15  2  0
 18 17  1  0
 19 18  1  0
 20 19  1  0
 21 20  1  1
 21 22  1  0
 22 15  1  0
 23 21  1  0
 24 23  2  0
 25 23  1  0
M  END
$$$$
