CHM.pdb
     RDKit          3D

 25 25  0  0  1  0  0  0  0  0999 V2000
    8.0284  -15.2131   16.9245 N   0  0  0  0  0  0  0  0  0  0  0  0
    8.6567  -14.5843   18.0642 C   0  0  1  0  0  0  0  0  0  0  0  0
    8.2510  -13.1399   18.1704 C   0  0  0  0  0  0  0  0  0  0  0  0
    8.8942  -12.3698   19.6776 S   0  0  0  0  0  0  0  0  0  0  0  0
    8.4305  -15.3347   19.3168 C   0  0  0  0  0  0  0  0  0  0  0  0
    7.2549  -15.6556   19.6017 O   0  0  0  0  0  0  0  0  0  0  0  0
    9.4567  -15.7109   20.2098 N   0  0  0  0  0  0  0  0  0  0  0  0
    9.2406  -16.4903   21.4090 C   0  0  1  0  0  0  0  0  0  0  0  0
   10.2797  -17.5960   21.4472 C   0  0  0  0  0  0  0  0  0  0  0  0
    9.9174  -18.7185   20.5450 C   0  0  0  0  0  0  0  0  0  0  0  0
    8.8461  -19.5757   20.6970 C   0  0  0  0  0  0  0  0  0  0  0  0
    8.8457  -20.4686   19.6747 N   0  0  0  0  0  0  0  0  0  0  0  0
    9.8943  -20.1875   18.8867 C   0  0  0  0  0  0  0  0  0  0  0  0
   10.5359  -19.1328   19.4157 N   0  0  0  0  0  0  0  0  0  0  0  0
    9.3854  -15.6901   22.6390 C   0  0  0  0  0  0  0  0  0  0  0  0
   10.4242  -14.9946   22.7738 O   0  0  0  0  0  0  0  0  0  0  0  0
    6.1100  -11.1223   27.9536 C   0  0  0  0  0  0  0  0  0  0  0  0
    5.7509  -12.5684   26.9212 S   0  0  0  0  0  0  0  0  0  0  0  0
    7.3050  -13.3345   26.4643 C   0  0  0  0  0  0  0  0  0  0  0  0
    7.2159  -14.1485   25.1969 C   0  0  0  0  0  0  0  0  0  0  0  0
    8.5295  -14.7954   24.8348 C   0  0  2  0  0  0  0  0  0  0  0  0
    8.4310  -15.6481   23.6881 N   0  0  0  0  0  0  0  0  0  0  0  0
    8.9715  -15.5889   26.0005 C   0  0  0  0  0  0  0  0  0  0  0  0
    9.2533  -14.9840   27.0608 O   0  0  0  0  0  0  0  0  0  0  0  0
    9.0968  -16.9705   26.0007 O   0  0  0  0  0  0  0  0  0  0  0  0
  2  1  1  6
  3  2  1  0
  4  3  1  0
  5  2  1  0
  5  6  2  0
  7  5  1  0
  8  7  1  0
  8  9  1  1
 10  9  1  0
 10 14  1  0
 11 12  1  0
 11 10  2  0
 12 13  1  0
 13 14  2  0
 15  8  1  0
 16 15  2  0
 18 17  1  0
 19 18  1  0
 20 19  1  0
 21 20  1  1
 21 22  1  0
 22 15  1  0
 23 21  1  0
 24 23  2  0
 25 23  1  0
M  END
$$$$
