CHM.pdb
     RDKit          3D

 25 25  0  0  1  0  0  0  0  0999 V2000
    7.2680  -13.4126   18.6085 N   0  0  0  0  0  0  0  0  0  0  0  0
    8.1501  -14.4865   19.0056 C   0  0  1  0  0  0  0  0  0  0  0  0
    9.5903  -14.0808   18.8538 C   0  0  0  0  0  0  0  0  0  0  0  0
    9.9858  -12.6197   19.8474 S   0  0  0  0  0  0  0  0  0  0  0  0
    7.8404  -14.9990   20.3564 C   0  0  0  0  0  0  0  0  0  0  0  0
    7.2924  -14.2181   21.1665 O   0  0  0  0  0  0  0  0  0  0  0  0
    8.1240  -16.3125   20.7883 N   0  0  0  0  0  0  0  0  0  0  0  0
    7.7596  -16.8336   22.0876 C   0  0  1  0  0  0  0  0  0  0  0  0
    8.0751  -18.3182   22.1062 C   0  0  0  0  0  0  0  0  0  0  0  0
    7.7468  -18.9307   23.4186 C   0  0  0  0  0  0  0  0  0  0  0  0
    8.6507  -19.4031   24.3488 C   0  0  0  0  0  0  0  0  0  0  0  0
    7.9712  -19.8886   25.4188 N   0  0  0  0  0  0  0  0  0  0  0  0
    6.6614  -19.7296   25.1771 C   0  0  0  0  0  0  0  0  0  0  0  0
    6.5323  -19.1523   23.9712 N   0  0  0  0  0  0  0  0  0  0  0  0
    8.5113  -16.1972   23.1849 C   0  0  0  0  0  0  0  0  0  0  0  0
    9.7267  -15.9358   22.9961 O   0  0  0  0  0  0  0  0  0  0  0  0
    5.9855  -11.5252   26.3405 C   0  0  0  0  0  0  0  0  0  0  0  0
    7.5201  -11.5266   27.3054 S   0  0  0  0  0  0  0  0  0  0  0  0
    8.4646  -12.9828   26.8598 C   0  0  0  0  0  0  0  0  0  0  0  0
    7.7581  -13.8663   25.8613 C   0  0  0  0  0  0  0  0  0  0  0  0
    8.6110  -15.0280   25.4159 C   0  0  2  0  0  0  0  0  0  0  0  0
    7.9585  -15.8562   24.4464 N   0  0  0  0  0  0  0  0  0  0  0  0
    8.9294  -15.8320   26.6143 C   0  0  0  0  0  0  0  0  0  0  0  0
    9.6339  -15.3124   27.5106 O   0  0  0  0  0  0  0  0  0  0  0  0
    8.4974  -17.1348   26.8162 O   0  0  0  0  0  0  0  0  0  0  0  0
  2  1  1  1
  3  2  1  0
  4  3  1  0
  5  2  1  0
  5  6  2  0
  7  5  1  0
  8  7  1  0
  8  9  1  6
 10  9  1  0
 10 14  1  0
 11 12  1  0
 11 10  2  0
 12 13  1  0
 13 14  2  0
 15  8  1  0
 16 15  2  0
 18 17  1  0
 19 18  1  0
 20 19  1  0
 21 20  1  1
 21 22  1  0
 22 15  1  0
 23 21  1  0
 24 23  2  0
 25 23  1  0
M  END
$$$$
