CHM.pdb
     RDKit          3D

 25 25  0  0  1  0  0  0  0  0999 V2000
    7.2346  -14.0046   18.2646 N   0  0  0  0  0  0  0  0  0  0  0  0
    8.5329  -14.1183   18.8894 C   0  0  1  0  0  0  0  0  0  0  0  0
    9.1332  -12.7602   19.1287 C   0  0  0  0  0  0  0  0  0  0  0  0
    8.5178  -12.0131   20.6589 S   0  0  0  0  0  0  0  0  0  0  0  0
    8.4995  -14.9511   20.1095 C   0  0  0  0  0  0  0  0  0  0  0  0
    7.4134  -15.0440   20.7242 O   0  0  0  0  0  0  0  0  0  0  0  0
    9.6151  -15.6467   20.6231 N   0  0  0  0  0  0  0  0  0  0  0  0
    9.5520  -16.5675   21.7370 C   0  0  1  0  0  0  0  0  0  0  0  0
   10.6036  -17.6408   21.5223 C   0  0  0  0  0  0  0  0  0  0  0  0
   10.2035  -18.5928   20.4551 C   0  0  0  0  0  0  0  0  0  0  0  0
    9.2090  -19.5463   20.5415 C   0  0  0  0  0  0  0  0  0  0  0  0
    9.1403  -20.2214   19.3660 N   0  0  0  0  0  0  0  0  0  0  0  0
   10.0710  -19.7100   18.5464 C   0  0  0  0  0  0  0  0  0  0  0  0
   10.7080  -18.7296   19.2076 N   0  0  0  0  0  0  0  0  0  0  0  0
    9.8294  -15.9139   23.0293 C   0  0  0  0  0  0  0  0  0  0  0  0
   10.7832  -15.0965   23.0865 O   0  0  0  0  0  0  0  0  0  0  0  0
    5.5536  -12.2590   26.9030 C   0  0  0  0  0  0  0  0  0  0  0  0
    7.3430  -11.9919   26.7900 S   0  0  0  0  0  0  0  0  0  0  0  0
    8.1559  -13.5876   26.8507 C   0  0  0  0  0  0  0  0  0  0  0  0
    8.0989  -14.3334   25.5403 C   0  0  0  0  0  0  0  0  0  0  0  0
    9.2086  -15.3462   25.4056 C   0  0  2  0  0  0  0  0  0  0  0  0
    9.0930  -16.1422   24.2204 N   0  0  0  0  0  0  0  0  0  0  0  0
    9.1574  -16.2236   26.5936 C   0  0  0  0  0  0  0  0  0  0  0  0
    8.7138  -17.3873   26.4562 O   0  0  0  0  0  0  0  0  0  0  0  0
    9.5708  -15.8432   27.8620 O   0  0  0  0  0  0  0  0  0  0  0  0
  2  1  1  1
  3  2  1  0
  4  3  1  0
  5  2  1  0
  5  6  2  0
  7  5  1  0
  8  7  1  0
  8  9  1  6
 10  9  1  0
 10 14  1  0
 11 12  1  0
 11 10  2  0
 12 13  1  0
 13 14  2  0
 15  8  1  0
 16 15  2  0
 18 17  1  0
 19 18  1  0
 20 19  1  0
 21 20  1  1
 21 22  1  0
 22 15  1  0
 23 21  1  0
 24 23  2  0
 25 23  1  0
M  END
$$$$
