CHM.pdb
     RDKit          3D

 25 25  0  0  1  0  0  0  0  0999 V2000
    5.2848  -13.0218   26.5732 N   0  0  0  0  0  0  0  0  0  0  0  0
    5.8702  -12.6784   25.2970 C   0  0  1  0  0  0  0  0  0  0  0  0
    6.7190  -11.4422   25.4121 C   0  0  0  0  0  0  0  0  0  0  0  0
    8.1519  -11.7080   26.4867 S   0  0  0  0  0  0  0  0  0  0  0  0
    6.5932  -13.8129   24.6859 C   0  0  0  0  0  0  0  0  0  0  0  0
    6.8961  -14.7781   25.4227 O   0  0  0  0  0  0  0  0  0  0  0  0
    6.9624  -13.8747   23.3250 N   0  0  0  0  0  0  0  0  0  0  0  0
    7.6799  -14.9811   22.7305 C   0  0  1  0  0  0  0  0  0  0  0  0
    7.6000  -14.8393   21.2214 C   0  0  0  0  0  0  0  0  0  0  0  0
    8.1954  -16.0107   20.5297 C   0  0  0  0  0  0  0  0  0  0  0  0
    7.5038  -17.0427   19.9279 C   0  0  0  0  0  0  0  0  0  0  0  0
    8.3927  -17.9248   19.4043 N   0  0  0  0  0  0  0  0  0  0  0  0
    9.6257  -17.4658   19.6661 C   0  0  0  0  0  0  0  0  0  0  0  0
    9.5007  -16.3130   20.3440 N   0  0  0  0  0  0  0  0  0  0  0  0
    9.1049  -15.0015   23.1086 C   0  0  0  0  0  0  0  0  0  0  0  0
    9.7627  -13.9359   22.9950 O   0  0  0  0  0  0  0  0  0  0  0  0
   11.3414  -13.9932   29.4858 C   0  0  0  0  0  0  0  0  0  0  0  0
   10.2486  -15.2060   28.6978 S   0  0  0  0  0  0  0  0  0  0  0  0
   11.0024  -15.7271   27.1580 C   0  0  0  0  0  0  0  0  0  0  0  0
   10.0390  -15.7318   25.9967 C   0  0  0  0  0  0  0  0  0  0  0  0
   10.7013  -16.1287   24.7009 C   0  0  2  0  0  0  0  0  0  0  0  0
    9.7917  -16.1440   23.5944 N   0  0  0  0  0  0  0  0  0  0  0  0
   11.2709  -17.4794   24.8873 C   0  0  0  0  0  0  0  0  0  0  0  0
   10.5406  -18.4711   24.6572 O   0  0  0  0  0  0  0  0  0  0  0  0
   12.5711  -17.7265   25.3035 O   0  0  0  0  0  0  0  0  0  0  0  0
  2  1  1  1
  3  2  1  0
  4  3  1  0
  5  2  1  0
  5  6  2  0
  7  5  1  0
  8  7  1  0
  8  9  1  6
 10  9  1  0
 10 14  1  0
 11 12  1  0
 11 10  2  0
 12 13  1  0
 13 14  2  0
 15  8  1  0
 16 15  2  0
 18 17  1  0
 19 18  1  0
 20 19  1  0
 21 20  1  1
 21 22  1  0
 22 15  1  0
 23 21  1  0
 24 23  2  0
 25 23  1  0
M  END
$$$$
