CHM.pdb
     RDKit          3D

 25 25  0  0  1  0  0  0  0  0999 V2000
    7.6888  -14.6903   18.1283 N   0  0  0  0  0  0  0  0  0  0  0  0
    8.5057  -14.3040   19.2564 C   0  0  1  0  0  0  0  0  0  0  0  0
    8.2122  -12.8882   19.6704 C   0  0  0  0  0  0  0  0  0  0  0  0
    8.7329  -11.6972   18.4098 S   0  0  0  0  0  0  0  0  0  0  0  0
    8.4043  -15.2599   20.3785 C   0  0  0  0  0  0  0  0  0  0  0  0
    7.2607  -15.6150   20.7424 O   0  0  0  0  0  0  0  0  0  0  0  0
    9.5156  -15.7961   21.0637 N   0  0  0  0  0  0  0  0  0  0  0  0
    9.4140  -16.7006   22.1879 C   0  0  1  0  0  0  0  0  0  0  0  0
   10.4855  -17.7649   22.0360 C   0  0  0  0  0  0  0  0  0  0  0  0
   10.0520  -18.8506   21.1202 C   0  0  0  0  0  0  0  0  0  0  0  0
    8.8537  -18.9141   20.4378 C   0  0  0  0  0  0  0  0  0  0  0  0
    8.8231  -20.0550   19.7031 N   0  0  0  0  0  0  0  0  0  0  0  0
    9.9771  -20.7062   19.9119 C   0  0  0  0  0  0  0  0  0  0  0  0
   10.7131  -19.9762   20.7661 N   0  0  0  0  0  0  0  0  0  0  0  0
    9.6274  -16.0245   23.4808 C   0  0  0  0  0  0  0  0  0  0  0  0
   10.6475  -15.3006   23.6088 O   0  0  0  0  0  0  0  0  0  0  0  0
    6.6596  -10.5514   25.9463 C   0  0  0  0  0  0  0  0  0  0  0  0
    6.3909  -12.2867   26.3966 S   0  0  0  0  0  0  0  0  0  0  0  0
    7.8553  -13.2179   25.9500 C   0  0  0  0  0  0  0  0  0  0  0  0
    7.7573  -14.6825   26.2994 C   0  0  0  0  0  0  0  0  0  0  0  0
    8.9657  -15.4642   25.8477 C   0  0  2  0  0  0  0  0  0  0  0  0
    8.7592  -16.1325   24.5977 N   0  0  0  0  0  0  0  0  0  0  0  0
    9.2671  -16.4626   26.8947 C   0  0  0  0  0  0  0  0  0  0  0  0
    9.0508  -17.6712   26.6455 O   0  0  0  0  0  0  0  0  0  0  0  0
    9.7779  -16.1499   28.1460 O   0  0  0  0  0  0  0  0  0  0  0  0
  2  1  1  6
  3  2  1  0
  4  3  1  0
  5  2  1  0
  5  6  2  0
  7  5  1  0
  8  7  1  0
  8  9  1  6
 10  9  1  0
 10 14  1  0
 11 12  1  0
 11 10  2  0
 12 13  1  0
 13 14  2  0
 15  8  1  0
 16 15  2  0
 18 17  1  0
 19 18  1  0
 20 19  1  0
 21 20  1  1
 21 22  1  0
 22 15  1  0
 23 21  1  0
 24 23  2  0
 25 23  1  0
M  END
$$$$
