RYT.pdb
     RDKit          3D

 31 31  0  0  1  0  0  0  0  0999 V2000
    6.4536  -22.1347   18.6755 N   0  0  0  0  0  0  0  0  0  0  0  0
    7.4877  -22.1425   17.7081 C   0  0  0  0  0  0  0  0  0  0  0  0
    7.3814  -22.7197   16.5745 N   0  0  0  0  0  0  0  0  0  0  0  0
    8.7056  -21.4730   18.0168 N   0  0  0  0  0  0  0  0  0  0  0  0
    8.9165  -20.9379   19.3771 C   0  0  0  0  0  0  0  0  0  0  0  0
    8.3180  -19.5821   19.3982 C   0  0  0  0  0  0  0  0  0  0  0  0
    8.8897  -18.7028   20.4339 C   0  0  0  0  0  0  0  0  0  0  0  0
    9.0861  -17.3004   19.9716 C   0  0  2  0  0  0  0  0  0  0  0  0
   10.1483  -17.0980   19.0300 N   0  0  0  0  0  0  0  0  0  0  0  0
    9.2776  -16.4208   21.1431 C   0  0  0  0  0  0  0  0  0  0  0  0
   10.4360  -16.2255   21.5606 O   0  0  0  0  0  0  0  0  0  0  0  0
    8.1757  -22.7280   15.8833 O   0  0  0  0  0  0  0  0  0  0  0  0
    7.6664  -11.5477   28.2572 C   0  0  0  0  0  0  0  0  0  0  0  0
    7.5324  -12.1871   27.0349 C   0  0  0  0  0  0  0  0  0  0  0  0
    8.2141  -11.7813   25.9132 C   0  0  0  0  0  0  0  0  0  0  0  0
    8.0471  -12.4505   24.7160 C   0  0  0  0  0  0  0  0  0  0  0  0
    7.2076  -13.5337   24.5905 C   0  0  0  0  0  0  0  0  0  0  0  0
    7.0815  -14.1975   23.2701 C   0  0  1  0  0  0  0  0  0  0  0  0
    8.2807  -15.0971   23.0066 N   0  0  0  0  0  0  0  0  0  0  0  0
    8.1676  -15.8215   21.7649 C   0  0  0  0  0  0  0  0  0  0  0  0
    8.5665  -15.9770   24.1653 O   0  0  0  0  0  0  0  0  0  0  0  0
    7.7372  -16.8820   24.4242 C   0  0  0  0  0  0  0  0  0  0  0  0
    6.5335  -13.9265   25.7223 C   0  0  0  0  0  0  0  0  0  0  0  0
    6.6797  -13.2776   26.9341 C   0  0  0  0  0  0  0  0  0  0  0  0
   11.9020  -18.2738   26.7884 C   0  0  2  0  0  0  0  0  0  0  0  0
   11.5247  -17.3329   25.6708 O   0  0  0  0  0  0  0  0  0  0  0  0
   11.7295  -17.9747   24.4656 C   0  0  1  0  0  0  0  0  0  0  0  0
   10.0952  -16.8969   25.8627 N   0  0  0  0  0  0  0  0  0  0  0  0
    9.7162  -15.8388   24.9767 C   0  0  0  0  0  0  0  0  0  0  0  0
    9.8616  -16.4276   27.2451 O   0  0  0  0  0  0  0  0  0  0  0  0
   10.0568  -15.2308   27.6210 O   0  0  0  0  0  0  0  0  0  0  0  0
  2  1  1  0
  2  3  2  0
  4  2  1  0
  5  4  1  0
  6  7  1  0
  6  5  1  0
  8 10  1  0
  8  7  1  0
  8  9  1  6
 10 11  2  0
 13 23  2  0
 13 12  1  0
 14 13  1  0
 15 16  1  0
 15 14  2  0
 16 22  2  0
 17 16  1  0
 18 17  1  6
 19 18  1  0
 19 10  1  0
 20 28  1  0
 20 18  1  0
 21 20  2  0
 22 23  1  0
 25 24  1  6
 26 25  1  0
 27 29  1  0
 27 25  1  0
 27 28  1  1
 29 31  1  0
 30 29  2  0
M  END
$$$$
