RYT.pdb
     RDKit          3D

 31 31  0  0  1  0  0  0  0  0999 V2000
    8.2190  -12.9338   14.1653 N   0  0  0  0  0  0  0  0  0  0  0  0
    8.2300  -14.3166   13.8601 C   0  0  0  0  0  0  0  0  0  0  0  0
    8.6646  -14.7861   12.7555 N   0  0  0  0  0  0  0  0  0  0  0  0
    7.7313  -15.2267   14.8346 N   0  0  0  0  0  0  0  0  0  0  0  0
    7.7385  -14.8413   16.2603 C   0  0  0  0  0  0  0  0  0  0  0  0
    9.1600  -14.6997   16.6553 C   0  0  0  0  0  0  0  0  0  0  0  0
    9.3430  -14.3168   18.0669 C   0  0  0  0  0  0  0  0  0  0  0  0
    9.1390  -15.4482   19.0141 C   0  0  2  0  0  0  0  0  0  0  0  0
    7.9246  -16.1915   18.8442 N   0  0  0  0  0  0  0  0  0  0  0  0
    9.2333  -14.9487   20.4013 C   0  0  0  0  0  0  0  0  0  0  0  0
   10.2985  -14.4192   20.7745 O   0  0  0  0  0  0  0  0  0  0  0  0
    8.7627  -15.8225   12.5974 O   0  0  0  0  0  0  0  0  0  0  0  0
    7.3555  -12.7509   28.6752 C   0  0  0  0  0  0  0  0  0  0  0  0
    7.2540  -13.0570   27.3273 C   0  0  0  0  0  0  0  0  0  0  0  0
    6.5650  -14.1547   26.8714 C   0  0  0  0  0  0  0  0  0  0  0  0
    6.4922  -14.4190   25.5173 C   0  0  0  0  0  0  0  0  0  0  0  0
    7.0935  -13.6129   24.5779 C   0  0  0  0  0  0  0  0  0  0  0  0
    6.9707  -13.9653   23.1424 C   0  0  1  0  0  0  0  0  0  0  0  0
    8.2141  -14.7014   22.6637 N   0  0  0  0  0  0  0  0  0  0  0  0
    8.1365  -15.0734   21.2727 C   0  0  0  0  0  0  0  0  0  0  0  0
    8.5462  -15.8427   23.5499 O   0  0  0  0  0  0  0  0  0  0  0  0
    7.7984  -16.8491   23.5037 C   0  0  0  0  0  0  0  0  0  0  0  0
    7.7783  -12.5189   25.0509 C   0  0  0  0  0  0  0  0  0  0  0  0
    7.8689  -12.2280   26.3993 C   0  0  0  0  0  0  0  0  0  0  0  0
   11.6598  -18.8675   25.3488 C   0  0  2  0  0  0  0  0  0  0  0  0
   11.2647  -17.6808   24.5050 O   0  0  0  0  0  0  0  0  0  0  0  0
   11.0721  -18.1075   23.2060 C   0  0  1  0  0  0  0  0  0  0  0  0
   10.0324  -17.0492   25.0991 N   0  0  0  0  0  0  0  0  0  0  0  0
    9.6525  -15.8422   24.4304 C   0  0  0  0  0  0  0  0  0  0  0  0
   10.2350  -16.7244   26.5271 O   0  0  0  0  0  0  0  0  0  0  0  0
   10.3675  -15.5398   26.9641 O   0  0  0  0  0  0  0  0  0  0  0  0
  2  1  1  0
  2  3  2  0
  4  2  1  0
  5  4  1  0
  6  7  1  0
  6  5  1  0
  8 10  1  0
  8  7  1  0
  8  9  1  1
 10 11  2  0
 13 23  2  0
 13 12  1  0
 14 13  1  0
 15 16  1  0
 15 14  2  0
 16 22  2  0
 17 16  1  0
 18 17  1  6
 19 18  1  0
 19 10  1  0
 20 28  1  0
 20 18  1  0
 21 20  2  0
 22 23  1  0
 25 24  1  6
 26 25  1  0
 27 29  1  0
 27 25  1  0
 27 28  1  6
 29 31  1  0
 30 29  2  0
M  END
$$$$
