RYT.pdb
     RDKit          3D

 31 31  0  0  1  0  0  0  0  0999 V2000
    7.8105  -11.8348   18.5011 N   0  0  0  0  0  0  0  0  0  0  0  0
    7.8134  -13.2345   18.2865 C   0  0  0  0  0  0  0  0  0  0  0  0
    8.6034  -13.8158   17.4695 N   0  0  0  0  0  0  0  0  0  0  0  0
    6.8886  -14.0314   19.0190 N   0  0  0  0  0  0  0  0  0  0  0  0
    7.3924  -15.0998   19.9056 C   0  0  0  0  0  0  0  0  0  0  0  0
    8.6067  -14.5661   20.5669 C   0  0  0  0  0  0  0  0  0  0  0  0
    8.5553  -14.6386   22.0383 C   0  0  0  0  0  0  0  0  0  0  0  0
    9.1573  -15.8859   22.5868 C   0  0  2  0  0  0  0  0  0  0  0  0
    8.3097  -17.0424   22.5786 N   0  0  0  0  0  0  0  0  0  0  0  0
    9.6481  -15.6314   23.9569 C   0  0  0  0  0  0  0  0  0  0  0  0
   10.6103  -14.8541   24.1121 O   0  0  0  0  0  0  0  0  0  0  0  0
    8.6562  -14.8655   17.4058 O   0  0  0  0  0  0  0  0  0  0  0  0
    5.8895  -10.9770   25.8577 C   0  0  0  0  0  0  0  0  0  0  0  0
    6.5334  -12.1425   26.2422 C   0  0  0  0  0  0  0  0  0  0  0  0
    7.7745  -12.1379   26.8313 C   0  0  0  0  0  0  0  0  0  0  0  0
    8.3770  -13.3263   27.1969 C   0  0  0  0  0  0  0  0  0  0  0  0
    7.7765  -14.5476   26.9933 C   0  0  0  0  0  0  0  0  0  0  0  0
    8.4893  -15.7790   27.4123 C   0  0  2  0  0  0  0  0  0  0  0  0
    9.5575  -16.1519   26.3940 N   0  0  0  0  0  0  0  0  0  0  0  0
    9.0331  -16.2590   25.0550 C   0  0  0  0  0  0  0  0  0  0  0  0
   10.3160  -17.3540   26.8158 O   0  0  0  0  0  0  0  0  0  0  0  0
   10.7645  -17.3748   27.9873 C   0  0  0  0  0  0  0  0  0  0  0  0
    6.5351  -14.5343   26.4031 C   0  0  0  0  0  0  0  0  0  0  0  0
    5.9066  -13.3621   26.0264 C   0  0  0  0  0  0  0  0  0  0  0  0
   11.1937  -20.5803   24.2164 C   0  0  2  0  0  0  0  0  0  0  0  0
   10.8908  -20.8630   25.6672 O   0  0  0  0  0  0  0  0  0  0  0  0
   11.6292  -21.9591   26.0668 C   0  0  1  0  0  0  0  0  0  0  0  0
   11.1944  -19.6296   26.4777 N   0  0  0  0  0  0  0  0  0  0  0  0
   10.5506  -18.4587   25.9651 C   0  0  0  0  0  0  0  0  0  0  0  0
   12.6477  -19.3604   26.5153 O   0  0  0  0  0  0  0  0  0  0  0  0
   13.1733  -18.2896   26.0807 O   0  0  0  0  0  0  0  0  0  0  0  0
  2  1  1  0
  2  3  2  0
  4  2  1  0
  5  4  1  0
  6  7  1  0
  6  5  1  0
  8 10  1  0
  8  7  1  0
  8  9  1  1
 10 11  2  0
 13 23  2  0
 13 12  1  0
 14 13  1  0
 15 16  1  0
 15 14  2  0
 16 22  2  0
 17 16  1  0
 18 17  1  6
 19 18  1  0
 19 10  1  0
 20 28  1  0
 20 18  1  0
 21 20  2  0
 22 23  1  0
 25 24  1  6
 26 25  1  0
 27 29  1  0
 27 25  1  0
 27 28  1  1
 29 31  1  0
 30 29  2  0
M  END
$$$$
