RYT.pdb
     RDKit          3D

 31 31  0  0  1  0  0  0  0  0999 V2000
    9.5400  -13.8133   17.6251 N   0  0  0  0  0  0  0  0  0  0  0  0
    8.2145  -13.7647   17.1289 C   0  0  0  0  0  0  0  0  0  0  0  0
    7.9161  -13.3141   15.9724 N   0  0  0  0  0  0  0  0  0  0  0  0
    7.1639  -14.2423   17.9625 N   0  0  0  0  0  0  0  0  0  0  0  0
    7.4930  -14.8785   19.2542 C   0  0  0  0  0  0  0  0  0  0  0  0
    7.8921  -13.7884   20.1756 C   0  0  0  0  0  0  0  0  0  0  0  0
    7.7807  -14.1518   21.5999 C   0  0  0  0  0  0  0  0  0  0  0  0
    8.3684  -15.4838   21.9145 C   0  0  2  0  0  0  0  0  0  0  0  0
    7.5174  -16.6126   21.6743 N   0  0  0  0  0  0  0  0  0  0  0  0
    8.8350  -15.4946   23.3162 C   0  0  0  0  0  0  0  0  0  0  0  0
    9.7329  -14.6979   23.6531 O   0  0  0  0  0  0  0  0  0  0  0  0
    6.9233  -13.3094   15.6218 O   0  0  0  0  0  0  0  0  0  0  0  0
    6.7336  -10.3186   26.0506 C   0  0  0  0  0  0  0  0  0  0  0  0
    6.9252  -11.6857   26.1742 C   0  0  0  0  0  0  0  0  0  0  0  0
    8.0474  -12.2221   26.7576 C   0  0  0  0  0  0  0  0  0  0  0  0
    8.1939  -13.5923   26.8574 C   0  0  0  0  0  0  0  0  0  0  0  0
    7.2432  -14.4691   26.3873 C   0  0  0  0  0  0  0  0  0  0  0  0
    7.4751  -15.9271   26.5305 C   0  0  2  0  0  0  0  0  0  0  0  0
    8.6244  -16.3763   25.6393 N   0  0  0  0  0  0  0  0  0  0  0  0
    8.2692  -16.3896   24.2418 C   0  0  0  0  0  0  0  0  0  0  0  0
    9.2016  -17.6615   26.1014 O   0  0  0  0  0  0  0  0  0  0  0  0
    9.2851  -17.8476   27.3393 C   0  0  0  0  0  0  0  0  0  0  0  0
    6.1267  -13.9159   25.8068 C   0  0  0  0  0  0  0  0  0  0  0  0
    5.9513  -12.5495   25.6925 C   0  0  0  0  0  0  0  0  0  0  0  0
   13.3753  -19.0632   25.0405 C   0  0  1  0  0  0  0  0  0  0  0  0
   12.0384  -18.4438   24.7156 O   0  0  0  0  0  0  0  0  0  0  0  0
   11.8917  -18.4053   23.3432 C   0  0  1  0  0  0  0  0  0  0  0  0
   10.9545  -19.2403   25.3949 N   0  0  0  0  0  0  0  0  0  0  0  0
    9.6546  -18.6683   25.2179 C   0  0  0  0  0  0  0  0  0  0  0  0
   11.2020  -19.3465   26.8486 O   0  0  0  0  0  0  0  0  0  0  0  0
   11.3274  -20.4528   27.4588 O   0  0  0  0  0  0  0  0  0  0  0  0
  2  1  1  0
  2  3  2  0
  4  2  1  0
  5  4  1  0
  6  7  1  0
  6  5  1  0
  8 10  1  0
  8  7  1  0
  8  9  1  1
 10 11  2  0
 13 23  2  0
 13 12  1  0
 14 13  1  0
 15 16  1  0
 15 14  2  0
 16 22  2  0
 17 16  1  0
 18 17  1  6
 19 18  1  0
 19 10  1  0
 20 28  1  0
 20 18  1  0
 21 20  2  0
 22 23  1  0
 25 24  1  6
 26 25  1  0
 27 29  1  0
 27 25  1  0
 27 28  1  1
 29 31  1  0
 30 29  2  0
M  END
$$$$
