RYT.pdb
     RDKit          3D

 31 31  0  0  1  0  0  0  0  0999 V2000
    9.5485  -16.0934   15.7555 N   0  0  0  0  0  0  0  0  0  0  0  0
    8.1372  -15.9794   15.7282 C   0  0  0  0  0  0  0  0  0  0  0  0
    7.4721  -15.7748   14.6580 N   0  0  0  0  0  0  0  0  0  0  0  0
    7.4267  -16.0991   16.9560 N   0  0  0  0  0  0  0  0  0  0  0  0
    8.1601  -16.4488   18.1893 C   0  0  0  0  0  0  0  0  0  0  0  0
    8.4455  -15.1744   18.8902 C   0  0  0  0  0  0  0  0  0  0  0  0
    7.2950  -14.6491   19.6474 C   0  0  0  0  0  0  0  0  0  0  0  0
    7.6235  -13.4388   20.4513 C   0  0  2  0  0  0  0  0  0  0  0  0
    8.2748  -12.3771   19.7410 N   0  0  0  0  0  0  0  0  0  0  0  0
    8.4348  -13.8334   21.6213 C   0  0  0  0  0  0  0  0  0  0  0  0
    9.6470  -13.5425   21.6332 O   0  0  0  0  0  0  0  0  0  0  0  0
    6.4192  -15.7873   14.6523 O   0  0  0  0  0  0  0  0  0  0  0  0
    6.3710  -10.3882   27.6353 C   0  0  0  0  0  0  0  0  0  0  0  0
    6.7128  -11.5764   27.0090 C   0  0  0  0  0  0  0  0  0  0  0  0
    7.9454  -12.1626   27.1648 C   0  0  0  0  0  0  0  0  0  0  0  0
    8.2401  -13.3479   26.5190 C   0  0  0  0  0  0  0  0  0  0  0  0
    7.3327  -13.9865   25.7049 C   0  0  0  0  0  0  0  0  0  0  0  0
    7.7258  -15.2555   25.0453 C   0  0  2  0  0  0  0  0  0  0  0  0
    8.5998  -14.9788   23.8302 N   0  0  0  0  0  0  0  0  0  0  0  0
    7.8394  -14.5219   22.6934 C   0  0  0  0  0  0  0  0  0  0  0  0
    9.4747  -16.1334   23.5144 O   0  0  0  0  0  0  0  0  0  0  0  0
    9.3118  -16.6979   22.4059 C   0  0  0  0  0  0  0  0  0  0  0  0
    6.1044  -13.3867   25.5602 C   0  0  0  0  0  0  0  0  0  0  0  0
    5.7798  -12.2014   26.1932 C   0  0  0  0  0  0  0  0  0  0  0  0
   11.3732  -20.0194   23.1240 C   0  0  2  0  0  0  0  0  0  0  0  0
   10.4715  -18.8340   23.3654 O   0  0  0  0  0  0  0  0  0  0  0  0
    9.3991  -19.2442   24.1323 C   0  0  1  0  0  0  0  0  0  0  0  0
   11.2717  -17.7389   24.0220 N   0  0  0  0  0  0  0  0  0  0  0  0
   10.4679  -16.6159   24.3976 C   0  0  0  0  0  0  0  0  0  0  0  0
   12.3376  -17.2454   23.1241 O   0  0  0  0  0  0  0  0  0  0  0  0
   12.4275  -16.0384   22.7408 O   0  0  0  0  0  0  0  0  0  0  0  0
  2  1  1  0
  2  3  2  0
  4  2  1  0
  5  4  1  0
  6  7  1  0
  6  5  1  0
  8 10  1  0
  8  7  1  0
  8  9  1  6
 10 11  2  0
 13 23  2  0
 13 12  1  0
 14 13  1  0
 15 16  1  0
 15 14  2  0
 16 22  2  0
 17 16  1  0
 18 17  1  1
 19 18  1  0
 19 10  1  0
 20 28  1  0
 20 18  1  0
 21 20  2  0
 22 23  1  0
 25 24  1  6
 26 25  1  0
 27 29  1  0
 27 25  1  0
 27 28  1  6
 29 31  1  0
 30 29  2  0
M  END
$$$$
