RYT.pdb
     RDKit          3D

 31 31  0  0  1  0  0  0  0  0999 V2000
    7.9159  -13.5041   16.5834 N   0  0  0  0  0  0  0  0  0  0  0  0
    7.7589  -13.3916   17.9863 C   0  0  0  0  0  0  0  0  0  0  0  0
    6.8144  -12.7304   18.5342 N   0  0  0  0  0  0  0  0  0  0  0  0
    8.7022  -14.0492   18.8258 N   0  0  0  0  0  0  0  0  0  0  0  0
    9.8302  -14.7825   18.2167 C   0  0  0  0  0  0  0  0  0  0  0  0
    9.5163  -16.2256   18.3417 C   0  0  0  0  0  0  0  0  0  0  0  0
   10.4151  -16.9455   19.2618 C   0  0  0  0  0  0  0  0  0  0  0  0
    9.7001  -17.5865   20.4005 C   0  0  2  0  0  0  0  0  0  0  0  0
    8.3298  -17.9333   20.1597 N   0  0  0  0  0  0  0  0  0  0  0  0
    9.7974  -16.7176   21.5914 C   0  0  0  0  0  0  0  0  0  0  0  0
   10.9274  -16.3667   21.9842 O   0  0  0  0  0  0  0  0  0  0  0  0
    6.7162  -12.6734   19.5810 O   0  0  0  0  0  0  0  0  0  0  0  0
    7.5806  -12.2184   28.8165 C   0  0  0  0  0  0  0  0  0  0  0  0
    7.5884  -12.7767   27.5480 C   0  0  0  0  0  0  0  0  0  0  0  0
    6.6163  -13.6489   27.1216 C   0  0  0  0  0  0  0  0  0  0  0  0
    6.6671  -14.1804   25.8474 C   0  0  0  0  0  0  0  0  0  0  0  0
    7.6726  -13.8692   24.9609 C   0  0  0  0  0  0  0  0  0  0  0  0
    7.6574  -14.4830   23.6107 C   0  0  1  0  0  0  0  0  0  0  0  0
    8.6754  -15.6114   23.5242 N   0  0  0  0  0  0  0  0  0  0  0  0
    8.6316  -16.3012   22.2587 C   0  0  0  0  0  0  0  0  0  0  0  0
    8.5733  -16.5271   24.6858 O   0  0  0  0  0  0  0  0  0  0  0  0
    7.4789  -17.1132   24.8674 C   0  0  0  0  0  0  0  0  0  0  0  0
    8.6368  -12.9951   25.4034 C   0  0  0  0  0  0  0  0  0  0  0  0
    8.6133  -12.4467   26.6720 C   0  0  0  0  0  0  0  0  0  0  0  0
    9.7369  -19.6958   25.1080 C   0  0  2  0  0  0  0  0  0  0  0  0
   10.3255  -18.9958   26.3080 O   0  0  0  0  0  0  0  0  0  0  0  0
   11.6514  -18.7125   26.0473 C   0  0  2  0  0  0  0  0  0  0  0  0
    9.5126  -17.7608   26.5989 N   0  0  0  0  0  0  0  0  0  0  0  0
    9.6413  -16.7619   25.5821 C   0  0  0  0  0  0  0  0  0  0  0  0
    9.9155  -17.1470   27.8822 O   0  0  0  0  0  0  0  0  0  0  0  0
   10.4244  -15.9876   27.9749 O   0  0  0  0  0  0  0  0  0  0  0  0
  2  1  1  0
  2  3  2  0
  4  2  1  0
  5  4  1  0
  6  7  1  0
  6  5  1  0
  8 10  1  0
  8  7  1  0
  8  9  1  6
 10 11  2  0
 13 23  2  0
 13 12  1  0
 14 13  1  0
 15 16  1  0
 15 14  2  0
 16 22  2  0
 17 16  1  0
 18 17  1  6
 19 18  1  0
 19 10  1  0
 20 28  1  0
 20 18  1  0
 21 20  2  0
 22 23  1  0
 25 24  1  1
 26 25  1  0
 27 29  1  0
 27 25  1  0
 27 28  1  1
 29 31  1  0
 30 29  2  0
M  END
$$$$
