RYT.pdb
     RDKit          3D

 31 31  0  0  1  0  0  0  0  0999 V2000
    7.7011  -14.7838   13.7871 N   0  0  0  0  0  0  0  0  0  0  0  0
    7.9051  -14.0215   14.9629 C   0  0  0  0  0  0  0  0  0  0  0  0
    7.4738  -12.8287   15.1075 N   0  0  0  0  0  0  0  0  0  0  0  0
    8.6271  -14.6164   16.0361 N   0  0  0  0  0  0  0  0  0  0  0  0
    7.9128  -15.4670   17.0095 C   0  0  0  0  0  0  0  0  0  0  0  0
    8.2872  -14.9772   18.3573 C   0  0  0  0  0  0  0  0  0  0  0  0
    9.6606  -15.3371   18.7535 C   0  0  0  0  0  0  0  0  0  0  0  0
    9.7138  -16.4333   19.7608 C   0  0  2  0  0  0  0  0  0  0  0  0
    8.6568  -17.3993   19.6863 N   0  0  0  0  0  0  0  0  0  0  0  0
    9.7678  -15.8500   21.1171 C   0  0  0  0  0  0  0  0  0  0  0  0
   10.8831  -15.6144   21.6221 O   0  0  0  0  0  0  0  0  0  0  0  0
    7.6017  -12.3018   16.0101 O   0  0  0  0  0  0  0  0  0  0  0  0
    7.4404  -12.0712   28.6894 C   0  0  0  0  0  0  0  0  0  0  0  0
    7.4079  -12.5878   27.4037 C   0  0  0  0  0  0  0  0  0  0  0  0
    6.6761  -13.7036   27.0770 C   0  0  0  0  0  0  0  0  0  0  0  0
    6.6755  -14.1818   25.7807 C   0  0  0  0  0  0  0  0  0  0  0  0
    7.3927  -13.5769   24.7741 C   0  0  0  0  0  0  0  0  0  0  0  0
    7.3417  -14.1523   23.4079 C   0  0  2  0  0  0  0  0  0  0  0  0
    8.5789  -14.9962   23.1360 N   0  0  0  0  0  0  0  0  0  0  0  0
    8.5783  -15.5702   21.8132 C   0  0  0  0  0  0  0  0  0  0  0  0
    8.7970  -16.0026   24.2028 O   0  0  0  0  0  0  0  0  0  0  0  0
    7.9917  -16.9624   24.2675 C   0  0  0  0  0  0  0  0  0  0  0  0
    8.1191  -12.4617   25.1180 C   0  0  0  0  0  0  0  0  0  0  0  0
    8.1397  -11.9593   26.4056 C   0  0  0  0  0  0  0  0  0  0  0  0
   11.7171  -18.7693   26.7066 C   0  0  2  0  0  0  0  0  0  0  0  0
   11.4398  -17.7139   25.6647 O   0  0  0  0  0  0  0  0  0  0  0  0
   11.4307  -18.3133   24.4209 C   0  0  1  0  0  0  0  0  0  0  0  0
   10.1352  -17.0354   25.9936 N   0  0  0  0  0  0  0  0  0  0  0  0
    9.8575  -15.9248   25.1347 C   0  0  0  0  0  0  0  0  0  0  0  0
   10.1293  -16.5366   27.3853 O   0  0  0  0  0  0  0  0  0  0  0  0
   10.1071  -15.3038   27.6876 O   0  0  0  0  0  0  0  0  0  0  0  0
  2  1  1  0
  2  3  2  0
  4  2  1  0
  5  4  1  0
  6  7  1  0
  6  5  1  0
  8 10  1  0
  8  7  1  0
  8  9  1  1
 10 11  2  0
 13 23  2  0
 13 12  1  0
 14 13  1  0
 15 16  1  0
 15 14  2  0
 16 22  2  0
 17 16  1  0
 18 17  1  6
 19 18  1  0
 19 10  1  0
 20 28  1  0
 20 18  1  0
 21 20  2  0
 22 23  1  0
 25 24  1  6
 26 25  1  0
 27 29  1  0
 27 25  1  0
 27 28  1  1
 29 31  1  0
 30 29  2  0
M  END
$$$$
