RYT.pdb
     RDKit          3D

 31 31  0  0  1  0  0  0  0  0999 V2000
    8.4173  -11.9823   17.8716 N   0  0  0  0  0  0  0  0  0  0  0  0
    7.9249  -13.1730   17.2841 C   0  0  0  0  0  0  0  0  0  0  0  0
    8.1859  -13.5212   16.0840 N   0  0  0  0  0  0  0  0  0  0  0  0
    7.0980  -14.0226   18.0722 N   0  0  0  0  0  0  0  0  0  0  0  0
    7.3367  -14.1242   19.5262 C   0  0  0  0  0  0  0  0  0  0  0  0
    8.6853  -14.7153   19.6954 C   0  0  0  0  0  0  0  0  0  0  0  0
    9.0948  -14.8524   21.1047 C   0  0  0  0  0  0  0  0  0  0  0  0
    8.5288  -16.0610   21.7665 C   0  0  2  0  0  0  0  0  0  0  0  0
    7.1238  -16.2747   21.5764 N   0  0  0  0  0  0  0  0  0  0  0  0
    8.8410  -16.0205   23.2100 C   0  0  0  0  0  0  0  0  0  0  0  0
    9.9290  -15.5316   23.5724 O   0  0  0  0  0  0  0  0  0  0  0  0
    7.8336  -14.4295   15.6844 O   0  0  0  0  0  0  0  0  0  0  0  0
    6.6110  -10.3703   25.6798 C   0  0  0  0  0  0  0  0  0  0  0  0
    6.7222  -11.7403   25.8576 C   0  0  0  0  0  0  0  0  0  0  0  0
    7.7825  -12.3134   26.5168 C   0  0  0  0  0  0  0  0  0  0  0  0
    7.8498  -13.6850   26.6686 C   0  0  0  0  0  0  0  0  0  0  0  0
    6.8787  -14.5272   26.1774 C   0  0  0  0  0  0  0  0  0  0  0  0
    7.0242  -15.9893   26.3799 C   0  0  2  0  0  0  0  0  0  0  0  0
    8.1891  -16.5296   25.5625 N   0  0  0  0  0  0  0  0  0  0  0  0
    7.9206  -16.5256   24.1457 C   0  0  0  0  0  0  0  0  0  0  0  0
    8.6383  -17.8513   26.0622 O   0  0  0  0  0  0  0  0  0  0  0  0
    7.7868  -18.7711   26.1146 C   0  0  0  0  0  0  0  0  0  0  0  0
    5.8248  -13.9375   25.5208 C   0  0  0  0  0  0  0  0  0  0  0  0
    5.7292  -12.5687   25.3531 C   0  0  0  0  0  0  0  0  0  0  0  0
   11.0252  -20.1942   24.6635 C   0  0  2  0  0  0  0  0  0  0  0  0
   11.4812  -19.9924   26.0875 O   0  0  0  0  0  0  0  0  0  0  0  0
   12.5872  -19.1658   26.0838 C   0  0  2  0  0  0  0  0  0  0  0  0
   10.3369  -19.4302   26.8905 N   0  0  0  0  0  0  0  0  0  0  0  0
    9.9651  -18.1119   26.4755 C   0  0  0  0  0  0  0  0  0  0  0  0
   10.6744  -19.3675   28.3286 O   0  0  0  0  0  0  0  0  0  0  0  0
   10.8796  -20.3950   29.0454 O   0  0  0  0  0  0  0  0  0  0  0  0
  2  1  1  0
  2  3  2  0
  4  2  1  0
  5  4  1  0
  6  7  1  0
  6  5  1  0
  8 10  1  0
  8  7  1  0
  8  9  1  1
 10 11  2  0
 13 23  2  0
 13 12  1  0
 14 13  1  0
 15 16  1  0
 15 14  2  0
 16 22  2  0
 17 16  1  0
 18 17  1  6
 19 18  1  0
 19 10  1  0
 20 28  1  0
 20 18  1  0
 21 20  2  0
 22 23  1  0
 25 24  1  6
 26 25  1  0
 27 29  1  0
 27 25  1  0
 27 28  1  1
 29 31  1  0
 30 29  2  0
M  END
$$$$
