RYT.pdb
     RDKit          3D

 31 31  0  0  1  0  0  0  0  0999 V2000
    8.0509  -13.7901   16.3681 N   0  0  0  0  0  0  0  0  0  0  0  0
    8.1233  -13.0063   17.5453 C   0  0  0  0  0  0  0  0  0  0  0  0
    9.0055  -12.1026   17.7313 N   0  0  0  0  0  0  0  0  0  0  0  0
    7.1641  -13.2393   18.5712 N   0  0  0  0  0  0  0  0  0  0  0  0
    7.5599  -13.0831   19.9855 C   0  0  0  0  0  0  0  0  0  0  0  0
    8.1932  -14.3595   20.3933 C   0  0  0  0  0  0  0  0  0  0  0  0
    7.4827  -15.0455   21.4875 C   0  0  0  0  0  0  0  0  0  0  0  0
    8.1367  -16.3163   21.9074 C   0  0  2  0  0  0  0  0  0  0  0  0
    7.3267  -17.4954   21.8102 N   0  0  0  0  0  0  0  0  0  0  0  0
    8.6505  -16.1708   23.2850 C   0  0  0  0  0  0  0  0  0  0  0  0
    9.6640  -15.4698   23.4737 O   0  0  0  0  0  0  0  0  0  0  0  0
    9.0957  -11.6015   18.6530 O   0  0  0  0  0  0  0  0  0  0  0  0
    6.8601  -10.4853   25.9247 C   0  0  0  0  0  0  0  0  0  0  0  0
    6.9720  -11.8566   26.0912 C   0  0  0  0  0  0  0  0  0  0  0  0
    5.9325  -12.7169   25.8326 C   0  0  0  0  0  0  0  0  0  0  0  0
    6.0920  -14.0772   26.0143 C   0  0  0  0  0  0  0  0  0  0  0  0
    7.2747  -14.6262   26.4540 C   0  0  0  0  0  0  0  0  0  0  0  0
    7.3660  -16.0967   26.6255 C   0  0  2  0  0  0  0  0  0  0  0  0
    8.4422  -16.6756   25.7181 N   0  0  0  0  0  0  0  0  0  0  0  0
    7.9998  -16.8146   24.3527 C   0  0  0  0  0  0  0  0  0  0  0  0
    9.0063  -17.9293   26.2736 O   0  0  0  0  0  0  0  0  0  0  0  0
    8.2251  -18.8993   26.4246 C   0  0  0  0  0  0  0  0  0  0  0  0
    8.3044  -13.7516   26.7078 C   0  0  0  0  0  0  0  0  0  0  0  0
    8.1757  -12.3861   26.5355 C   0  0  0  0  0  0  0  0  0  0  0  0
   11.6084  -20.1621   24.9832 C   0  0  2  0  0  0  0  0  0  0  0  0
   12.0280  -19.8525   26.3990 O   0  0  0  0  0  0  0  0  0  0  0  0
   13.0801  -18.9590   26.3622 C   0  0  2  0  0  0  0  0  0  0  0  0
   10.8380  -19.3197   27.1544 N   0  0  0  0  0  0  0  0  0  0  0  0
   10.3659  -18.0728   26.6343 C   0  0  0  0  0  0  0  0  0  0  0  0
   11.1608  -19.1149   28.5826 O   0  0  0  0  0  0  0  0  0  0  0  0
   11.1496  -17.9779   29.1472 O   0  0  0  0  0  0  0  0  0  0  0  0
  2  1  1  0
  2  3  2  0
  4  2  1  0
  5  4  1  0
  6  7  1  0
  6  5  1  0
  8 10  1  0
  8  7  1  0
  8  9  1  1
 10 11  2  0
 13 23  2  0
 13 12  1  0
 14 13  1  0
 15 16  1  0
 15 14  2  0
 16 22  2  0
 17 16  1  0
 18 17  1  6
 19 18  1  0
 19 10  1  0
 20 28  1  0
 20 18  1  0
 21 20  2  0
 22 23  1  0
 25 24  1  6
 26 25  1  0
 27 29  1  0
 27 25  1  0
 27 28  1  1
 29 31  1  0
 30 29  2  0
M  END
$$$$
