RYT.pdb
     RDKit          3D

 31 31  0  0  1  0  0  0  0  0999 V2000
    6.8498  -14.1405   18.3499 N   0  0  0  0  0  0  0  0  0  0  0  0
    7.8350  -13.1982   18.7329 C   0  0  0  0  0  0  0  0  0  0  0  0
    7.5746  -12.1514   19.4156 N   0  0  0  0  0  0  0  0  0  0  0  0
    9.1822  -13.4313   18.3359 N   0  0  0  0  0  0  0  0  0  0  0  0
    9.4965  -14.5899   17.4757 C   0  0  0  0  0  0  0  0  0  0  0  0
    8.8310  -15.7654   18.0858 C   0  0  0  0  0  0  0  0  0  0  0  0
    9.6346  -16.4171   19.1358 C   0  0  0  0  0  0  0  0  0  0  0  0
    8.8077  -17.0660   20.1912 C   0  0  2  0  0  0  0  0  0  0  0  0
    7.3918  -17.0592   19.9651 N   0  0  0  0  0  0  0  0  0  0  0  0
    9.1114  -16.4499   21.4993 C   0  0  0  0  0  0  0  0  0  0  0  0
   10.3047  -16.3189   21.8353 O   0  0  0  0  0  0  0  0  0  0  0  0
    8.3353  -11.4948   19.7300 O   0  0  0  0  0  0  0  0  0  0  0  0
    8.1700  -12.6576   29.3678 C   0  0  0  0  0  0  0  0  0  0  0  0
    7.9215  -13.1281   28.0881 C   0  0  0  0  0  0  0  0  0  0  0  0
    7.1729  -14.2554   27.8506 C   0  0  0  0  0  0  0  0  0  0  0  0
    6.9529  -14.6861   26.5564 C   0  0  0  0  0  0  0  0  0  0  0  0
    7.4618  -14.0215   25.4642 C   0  0  0  0  0  0  0  0  0  0  0  0
    7.1822  -14.5485   24.1063 C   0  0  1  0  0  0  0  0  0  0  0  0
    8.3100  -15.4598   23.6431 N   0  0  0  0  0  0  0  0  0  0  0  0
    8.0664  -16.0234   22.3384 C   0  0  0  0  0  0  0  0  0  0  0  0
    8.6362  -16.4844   24.6639 O   0  0  0  0  0  0  0  0  0  0  0  0
    7.8013  -17.4019   24.8516 C   0  0  0  0  0  0  0  0  0  0  0  0
    8.2082  -12.8956   25.7195 C   0  0  0  0  0  0  0  0  0  0  0  0
    8.4456  -12.4397   27.0027 C   0  0  0  0  0  0  0  0  0  0  0  0
   11.8605  -19.4049   26.5545 C   0  0  2  0  0  0  0  0  0  0  0  0
   11.4664  -18.2748   25.6358 O   0  0  0  0  0  0  0  0  0  0  0  0
   11.3041  -18.7788   24.3606 C   0  0  1  0  0  0  0  0  0  0  0  0
   10.2150  -17.6269   26.1694 N   0  0  0  0  0  0  0  0  0  0  0  0
    9.8298  -16.4690   25.4217 C   0  0  0  0  0  0  0  0  0  0  0  0
   10.3878  -17.2124   27.5780 O   0  0  0  0  0  0  0  0  0  0  0  0
   10.0494  -17.9330   28.5669 O   0  0  0  0  0  0  0  0  0  0  0  0
  2  1  1  0
  2  3  2  0
  4  2  1  0
  5  4  1  0
  6  7  1  0
  6  5  1  0
  8 10  1  0
  8  7  1  0
  8  9  1  6
 10 11  2  0
 13 23  2  0
 13 12  1  0
 14 13  1  0
 15 16  1  0
 15 14  2  0
 16 22  2  0
 17 16  1  0
 18 17  1  6
 19 18  1  0
 19 10  1  0
 20 28  1  0
 20 18  1  0
 21 20  2  0
 22 23  1  0
 25 24  1  6
 26 25  1  0
 27 29  1  0
 27 25  1  0
 27 28  1  6
 29 31  1  0
 30 29  2  0
M  END
$$$$
