RYT.pdb
     RDKit          3D

 31 31  0  0  1  0  0  0  0  0999 V2000
    8.7430  -14.3055   15.7336 N   0  0  0  0  0  0  0  0  0  0  0  0
    7.3598  -14.0021   15.7338 C   0  0  0  0  0  0  0  0  0  0  0  0
    6.6323  -14.0507   14.6860 N   0  0  0  0  0  0  0  0  0  0  0  0
    6.7520  -13.6241   16.9645 N   0  0  0  0  0  0  0  0  0  0  0  0
    7.5410  -12.8790   17.9663 C   0  0  0  0  0  0  0  0  0  0  0  0
    8.6757  -13.7523   18.3489 C   0  0  0  0  0  0  0  0  0  0  0  0
    8.9815  -13.7217   19.7906 C   0  0  0  0  0  0  0  0  0  0  0  0
    8.7468  -15.0267   20.4692 C   0  0  2  0  0  0  0  0  0  0  0  0
    7.3840  -15.4705   20.5116 N   0  0  0  0  0  0  0  0  0  0  0  0
    9.3017  -14.9741   21.8375 C   0  0  0  0  0  0  0  0  0  0  0  0
   10.5158  -14.7299   21.9808 O   0  0  0  0  0  0  0  0  0  0  0  0
    5.6089  -13.8047   14.7132 O   0  0  0  0  0  0  0  0  0  0  0  0
   10.2328  -14.0484   30.4600 C   0  0  0  0  0  0  0  0  0  0  0  0
    9.6863  -14.1399   29.1896 C   0  0  0  0  0  0  0  0  0  0  0  0
    8.6014  -14.9353   28.9105 C   0  0  0  0  0  0  0  0  0  0  0  0
    8.0921  -14.9943   27.6275 C   0  0  0  0  0  0  0  0  0  0  0  0
    8.6347  -14.2745   26.5877 C   0  0  0  0  0  0  0  0  0  0  0  0
    8.0312  -14.3931   25.2380 C   0  0  2  0  0  0  0  0  0  0  0  0
    8.9600  -15.1524   24.3012 N   0  0  0  0  0  0  0  0  0  0  0  0
    8.4664  -15.1960   22.9470 C   0  0  0  0  0  0  0  0  0  0  0  0
    9.2970  -16.4932   24.8372 O   0  0  0  0  0  0  0  0  0  0  0  0
    8.3488  -17.2854   25.0549 C   0  0  0  0  0  0  0  0  0  0  0  0
    9.7193  -13.4837   26.8843 C   0  0  0  0  0  0  0  0  0  0  0  0
   10.2514  -13.4036   28.1576 C   0  0  0  0  0  0  0  0  0  0  0  0
   10.7809  -19.1830   23.2511 C   0  0  2  0  0  0  0  0  0  0  0  0
   11.6375  -19.0437   24.4854 O   0  0  0  0  0  0  0  0  0  0  0  0
   12.8307  -18.4470   24.1295 C   0  0  2  0  0  0  0  0  0  0  0  0
   10.8774  -18.2542   25.5195 N   0  0  0  0  0  0  0  0  0  0  0  0
   10.6214  -16.9073   25.1088 C   0  0  0  0  0  0  0  0  0  0  0  0
   11.6173  -18.1986   26.7982 O   0  0  0  0  0  0  0  0  0  0  0  0
   12.1103  -17.1309   27.2764 O   0  0  0  0  0  0  0  0  0  0  0  0
  2  1  1  0
  2  3  2  0
  4  2  1  0
  5  4  1  0
  6  7  1  0
  6  5  1  0
  8 10  1  0
  8  7  1  0
  8  9  1  1
 10 11  2  0
 13 23  2  0
 13 12  1  0
 14 13  1  0
 15 16  1  0
 15 14  2  0
 16 22  2  0
 17 16  1  0
 18 17  1  6
 19 18  1  0
 19 10  1  0
 20 28  1  0
 20 18  1  0
 21 20  2  0
 22 23  1  0
 25 24  1  6
 26 25  1  0
 27 29  1  0
 27 25  1  0
 27 28  1  1
 29 31  1  0
 30 29  2  0
M  END
$$$$
