HIE.pdb
     RDKit          3D

 28 28  0  0  1  0  0  0  0  0999 V2000
    8.7327  -15.0632   20.2823 N   0  0  0  0  0  0  0  0  0  0  0  0
    7.8457  -15.4702   21.3186 C   0  0  1  0  0  0  0  0  0  0  0  0
    7.5032  -16.9089   21.2030 C   0  0  0  0  0  0  0  0  0  0  0  0
    6.9054  -17.1281   19.8611 C   0  0  0  0  0  0  0  0  0  0  0  0
    6.8195  -16.2676   18.7861 C   0  0  0  0  0  0  0  0  0  0  0  0
    6.1880  -16.9016   17.7687 N   0  0  0  0  0  0  0  0  0  0  0  0
    5.8871  -18.1303   18.2008 C   0  0  0  0  0  0  0  0  0  0  0  0
    6.3161  -18.2687   19.4549 N   0  0  0  0  0  0  0  0  0  0  0  0
    8.4794  -15.1232   22.6556 C   0  0  0  0  0  0  0  0  0  0  0  0
    9.7195  -15.1941   22.7531 O   0  0  0  0  0  0  0  0  0  0  0  0
    5.9219  -11.4184   25.8302 C   0  0  0  0  0  0  0  0  0  0  0  0
    6.9532  -12.2822   25.1971 C   0  0  0  0  0  0  0  0  0  0  0  0
    7.2285  -13.5851   25.8585 C   0  0  2  0  0  0  0  0  0  0  0  0
    7.9118  -13.4025   27.2168 C   0  0  0  0  0  0  0  0  0  0  0  0
    8.0609  -14.5555   25.1038 C   0  0  2  0  0  0  0  0  0  0  0  0
    7.7053  -14.7343   23.7483 N   0  0  0  0  0  0  0  0  0  0  0  0
    8.5165  -15.7410   25.8495 C   0  0  0  0  0  0  0  0  0  0  0  0
    7.6882  -16.6160   26.1826 O   0  0  0  0  0  0  0  0  0  0  0  0
    9.8428  -15.9681   26.2228 N   0  0  0  0  0  0  0  0  0  0  0  0
   10.3149  -17.2552   26.7892 C   0  0  1  0  0  0  0  0  0  0  0  0
   11.5943  -17.5743   26.0869 C   0  0  0  0  0  0  0  0  0  0  0  0
   12.2015  -18.8462   26.5918 C   0  0  0  0  0  0  0  0  0  0  0  0
   13.5042  -19.1966   25.9995 C   0  0  0  0  0  0  0  0  0  0  0  0
   14.2466  -18.3648   25.4322 O   0  0  0  0  0  0  0  0  0  0  0  0
   10.4211  -17.1524   28.2526 C   0  0  0  0  0  0  0  0  0  0  0  0
   10.4338  -16.0164   28.7844 O   0  0  0  0  0  0  0  0  0  0  0  0
   13.9798  -20.5250   26.0505 O   0  0  0  0  0  0  0  0  0  0  0  0
   10.5068  -18.2525   29.0767 O   0  0  0  0  0  0  0  0  0  0  0  0
  2  1  1  6
  3  2  1  0
  4  5  2  0
  4  3  1  0
  6  5  1  0
  7  8  2  0
  7  6  1  0
  8  4  1  0
  9  2  1  0
 10  9  2  0
 12 11  1  0
 13 15  1  0
 13 12  1  0
 13 14  1  1
 15 16  1  6
 16  9  1  0
 17 15  1  0
 18 17  2  0
 19 17  1  0
 20 25  1  0
 20 19  1  0
 20 21  1  6
 22 21  1  0
 23 27  1  0
 23 22  1  0
 24 23  2  0
 25 28  1  0
 26 25  2  0
M  END
$$$$
