HIE.pdb
     RDKit          3D

 28 28  0  0  1  0  0  0  0  0999 V2000
    9.2523  -15.7446   20.0306 N   0  0  0  0  0  0  0  0  0  0  0  0
    8.3278  -16.1482   21.0349 C   0  0  1  0  0  0  0  0  0  0  0  0
    8.0220  -17.5965   20.9377 C   0  0  0  0  0  0  0  0  0  0  0  0
    7.5080  -17.8625   19.5697 C   0  0  0  0  0  0  0  0  0  0  0  0
    6.4538  -17.2785   18.8981 C   0  0  0  0  0  0  0  0  0  0  0  0
    6.3538  -17.8407   17.6694 N   0  0  0  0  0  0  0  0  0  0  0  0
    7.3248  -18.7550   17.5778 C   0  0  0  0  0  0  0  0  0  0  0  0
    8.0182  -18.7700   18.7158 N   0  0  0  0  0  0  0  0  0  0  0  0
    8.8918  -15.7570   22.3907 C   0  0  0  0  0  0  0  0  0  0  0  0
   10.0423  -16.1382   22.6797 O   0  0  0  0  0  0  0  0  0  0  0  0
    7.3473  -11.8643   27.0769 C   0  0  0  0  0  0  0  0  0  0  0  0
    8.0549  -13.0620   26.5521 C   0  0  0  0  0  0  0  0  0  0  0  0
    7.6751  -13.5158   25.1881 C   0  0  2  0  0  0  0  0  0  0  0  0
    6.1810  -13.8364   25.0887 C   0  0  0  0  0  0  0  0  0  0  0  0
    8.3894  -14.7033   24.6553 C   0  0  2  0  0  0  0  0  0  0  0  0
    8.1526  -14.9928   23.2930 N   0  0  0  0  0  0  0  0  0  0  0  0
    8.5370  -15.8424   25.5771 C   0  0  0  0  0  0  0  0  0  0  0  0
    7.5655  -16.6030   25.7780 O   0  0  0  0  0  0  0  0  0  0  0  0
    9.7148  -16.1460   26.2630 N   0  0  0  0  0  0  0  0  0  0  0  0
    9.8670  -17.3498   27.1161 C   0  0  1  0  0  0  0  0  0  0  0  0
   11.1672  -17.9741   26.7264 C   0  0  0  0  0  0  0  0  0  0  0  0
   11.1277  -18.5107   25.3293 C   0  0  0  0  0  0  0  0  0  0  0  0
   12.4031  -19.0546   24.8310 C   0  0  0  0  0  0  0  0  0  0  0  0
   12.5269  -20.2176   24.3872 O   0  0  0  0  0  0  0  0  0  0  0  0
    9.7597  -16.9781   28.5351 C   0  0  0  0  0  0  0  0  0  0  0  0
    9.7655  -15.7636   28.8491 O   0  0  0  0  0  0  0  0  0  0  0  0
   13.5705  -18.2606   24.8354 O   0  0  0  0  0  0  0  0  0  0  0  0
    9.6506  -17.9063   29.5467 O   0  0  0  0  0  0  0  0  0  0  0  0
  2  1  1  6
  3  2  1  0
  4  5  2  0
  4  3  1  0
  6  5  1  0
  7  8  2  0
  7  6  1  0
  8  4  1  0
  9  2  1  0
 10  9  2  0
 12 11  1  0
 13 15  1  0
 13 12  1  0
 13 14  1  1
 15 16  1  6
 16  9  1  0
 17 15  1  0
 18 17  2  0
 19 17  1  0
 20 25  1  0
 20 19  1  0
 20 21  1  1
 22 21  1  0
 23 27  1  0
 23 22  1  0
 24 23  2  0
 25 28  1  0
 26 25  2  0
M  END
$$$$
