HIE.pdb
     RDKit          3D

 28 28  0  0  1  0  0  0  0  0999 V2000
    9.8513  -17.8559   16.6063 N   0  0  0  0  0  0  0  0  0  0  0  0
    8.7536  -17.7101   17.5009 C   0  0  1  0  0  0  0  0  0  0  0  0
    8.0958  -19.0129   17.7664 C   0  0  0  0  0  0  0  0  0  0  0  0
    7.4707  -19.4736   16.5002 C   0  0  0  0  0  0  0  0  0  0  0  0
    6.2021  -19.2399   16.0105 C   0  0  0  0  0  0  0  0  0  0  0  0
    6.0747  -19.8621   14.8137 N   0  0  0  0  0  0  0  0  0  0  0  0
    7.2386  -20.4702   14.5635 C   0  0  0  0  0  0  0  0  0  0  0  0
    8.0772  -20.2388   15.5730 N   0  0  0  0  0  0  0  0  0  0  0  0
    9.2539  -17.0361   18.7677 C   0  0  0  0  0  0  0  0  0  0  0  0
   10.4091  -17.2977   19.1545 O   0  0  0  0  0  0  0  0  0  0  0  0
    7.0000  -12.0401   19.9715 C   0  0  0  0  0  0  0  0  0  0  0  0
    7.9122  -13.2029   19.8093 C   0  0  0  0  0  0  0  0  0  0  0  0
    7.8906  -14.2227   20.8910 C   0  0  2  0  0  0  0  0  0  0  0  0
    8.3327  -13.6381   22.2355 C   0  0  0  0  0  0  0  0  0  0  0  0
    8.7132  -15.4403   20.6788 C   0  0  2  0  0  0  0  0  0  0  0  0
    8.4525  -16.1478   19.4841 N   0  0  0  0  0  0  0  0  0  0  0  0
    9.0310  -16.2293   21.8811 C   0  0  0  0  0  0  0  0  0  0  0  0
    8.2315  -17.1072   22.2717 O   0  0  0  0  0  0  0  0  0  0  0  0
   10.1923  -16.0662   22.6393 N   0  0  0  0  0  0  0  0  0  0  0  0
   10.6005  -17.0110   23.7074 C   0  0  1  0  0  0  0  0  0  0  0  0
   12.0497  -17.2946   23.4803 C   0  0  0  0  0  0  0  0  0  0  0  0
   12.5951  -18.2447   24.5006 C   0  0  0  0  0  0  0  0  0  0  0  0
   14.0184  -18.5890   24.3382 C   0  0  0  0  0  0  0  0  0  0  0  0
   14.7616  -18.9054   25.2934 O   0  0  0  0  0  0  0  0  0  0  0  0
   10.2797  -16.4474   25.0276 C   0  0  0  0  0  0  0  0  0  0  0  0
   10.1533  -15.2049   25.1454 O   0  0  0  0  0  0  0  0  0  0  0  0
   14.6172  -18.5744   23.0597 O   0  0  0  0  0  0  0  0  0  0  0  0
   10.1080  -17.2237   26.1521 O   0  0  0  0  0  0  0  0  0  0  0  0
  2  1  1  6
  3  2  1  0
  4  5  2  0
  4  3  1  0
  6  5  1  0
  7  8  2  0
  7  6  1  0
  8  4  1  0
  9  2  1  0
 10  9  2  0
 12 11  1  0
 13 15  1  0
 13 12  1  0
 13 14  1  1
 15 16  1  6
 16  9  1  0
 17 15  1  0
 18 17  2  0
 19 17  1  0
 20 25  1  0
 20 19  1  0
 20 21  1  1
 22 21  1  0
 23 27  1  0
 23 22  1  0
 24 23  2  0
 25 28  1  0
 26 25  2  0
M  END
$$$$
