HIE.pdb
     RDKit          3D

 28 28  0  0  1  0  0  0  0  0999 V2000
    9.8825  -14.9507   20.2967 N   0  0  0  0  0  0  0  0  0  0  0  0
    8.7939  -14.3962   21.0274 C   0  0  1  0  0  0  0  0  0  0  0  0
    7.4909  -14.7838   20.4337 C   0  0  0  0  0  0  0  0  0  0  0  0
    7.4977  -14.3658   19.0084 C   0  0  0  0  0  0  0  0  0  0  0  0
    7.6744  -13.1116   18.4614 C   0  0  0  0  0  0  0  0  0  0  0  0
    7.6015  -13.2096   17.1120 N   0  0  0  0  0  0  0  0  0  0  0  0
    7.3839  -14.4970   16.8249 C   0  0  0  0  0  0  0  0  0  0  0  0
    7.3213  -15.1922   17.9602 N   0  0  0  0  0  0  0  0  0  0  0  0
    8.9264  -14.8204   22.4806 C   0  0  0  0  0  0  0  0  0  0  0  0
    9.7372  -15.7257   22.7559 O   0  0  0  0  0  0  0  0  0  0  0  0
    7.2989  -11.9388   27.8187 C   0  0  0  0  0  0  0  0  0  0  0  0
    7.9525  -13.0534   27.0832 C   0  0  0  0  0  0  0  0  0  0  0  0
    7.6394  -13.1698   25.6344 C   0  0  2  0  0  0  0  0  0  0  0  0
    6.1388  -13.3484   25.3873 C   0  0  0  0  0  0  0  0  0  0  0  0
    8.3143  -14.2629   24.8901 C   0  0  2  0  0  0  0  0  0  0  0  0
    8.1685  -14.2204   23.4855 N   0  0  0  0  0  0  0  0  0  0  0  0
    8.3125  -15.5873   25.5343 C   0  0  0  0  0  0  0  0  0  0  0  0
    7.2816  -16.2929   25.4906 O   0  0  0  0  0  0  0  0  0  0  0  0
    9.4078  -16.1302   26.2094 N   0  0  0  0  0  0  0  0  0  0  0  0
    9.4035  -17.4935   26.7937 C   0  0  1  0  0  0  0  0  0  0  0  0
   10.5707  -18.2071   26.1933 C   0  0  0  0  0  0  0  0  0  0  0  0
   10.5279  -18.1787   24.6971 C   0  0  0  0  0  0  0  0  0  0  0  0
   11.5902  -18.9477   24.0254 C   0  0  0  0  0  0  0  0  0  0  0  0
   11.3744  -19.9967   23.3791 O   0  0  0  0  0  0  0  0  0  0  0  0
    9.4166  -17.4119   28.2622 C   0  0  0  0  0  0  0  0  0  0  0  0
    9.5975  -16.2975   28.8090 O   0  0  0  0  0  0  0  0  0  0  0  0
   12.9335  -18.5176   24.0871 O   0  0  0  0  0  0  0  0  0  0  0  0
    9.2368  -18.5089   29.0752 O   0  0  0  0  0  0  0  0  0  0  0  0
  2  1  1  6
  3  2  1  0
  4  5  2  0
  4  3  1  0
  6  5  1  0
  7  8  2  0
  7  6  1  0
  8  4  1  0
  9  2  1  0
 10  9  2  0
 12 11  1  0
 13 15  1  0
 13 12  1  0
 13 14  1  1
 15 16  1  6
 16  9  1  0
 17 15  1  0
 18 17  2  0
 19 17  1  0
 20 25  1  0
 20 19  1  0
 20 21  1  6
 22 21  1  0
 23 27  1  0
 23 22  1  0
 24 23  2  0
 25 28  1  0
 26 25  2  0
M  END
$$$$
