HIE.pdb
     RDKit          3D

 28 28  0  0  1  0  0  0  0  0999 V2000
    9.9697  -17.5714   16.1060 N   0  0  0  0  0  0  0  0  0  0  0  0
    9.2957  -17.9043   17.3148 C   0  0  1  0  0  0  0  0  0  0  0  0
    9.4802  -19.3351   17.6603 C   0  0  0  0  0  0  0  0  0  0  0  0
    8.7770  -20.1458   16.6334 C   0  0  0  0  0  0  0  0  0  0  0  0
    7.8423  -19.7573   15.6958 C   0  0  0  0  0  0  0  0  0  0  0  0
    7.4763  -20.8409   14.9694 N   0  0  0  0  0  0  0  0  0  0  0  0
    8.1679  -21.8816   15.4444 C   0  0  0  0  0  0  0  0  0  0  0  0
    8.9484  -21.4675   16.4421 N   0  0  0  0  0  0  0  0  0  0  0  0
    9.7830  -16.9687   18.4087 C   0  0  0  0  0  0  0  0  0  0  0  0
   11.0062  -16.7447   18.4872 O   0  0  0  0  0  0  0  0  0  0  0  0
    6.6648  -12.6253   19.9037 C   0  0  0  0  0  0  0  0  0  0  0  0
    7.7492  -13.6035   19.6244 C   0  0  0  0  0  0  0  0  0  0  0  0
    8.1004  -14.5408   20.7237 C   0  0  2  0  0  0  0  0  0  0  0  0
    8.5683  -13.7988   21.9789 C   0  0  0  0  0  0  0  0  0  0  0  0
    9.1437  -15.5554   20.4298 C   0  0  2  0  0  0  0  0  0  0  0  0
    8.8959  -16.3715   19.3036 N   0  0  0  0  0  0  0  0  0  0  0  0
    9.7889  -16.1827   21.5957 C   0  0  0  0  0  0  0  0  0  0  0  0
    9.2545  -17.1750   22.1365 O   0  0  0  0  0  0  0  0  0  0  0  0
   10.9878  -15.7401   22.1584 N   0  0  0  0  0  0  0  0  0  0  0  0
   11.7844  -16.5538   23.1090 C   0  0  1  0  0  0  0  0  0  0  0  0
   13.1659  -15.9854   23.0868 C   0  0  0  0  0  0  0  0  0  0  0  0
   14.0756  -16.7023   24.0353 C   0  0  0  0  0  0  0  0  0  0  0  0
   15.4516  -16.1798   24.0991 C   0  0  0  0  0  0  0  0  0  0  0  0
   15.8461  -15.2008   23.4278 O   0  0  0  0  0  0  0  0  0  0  0  0
   11.1388  -16.5597   24.4305 C   0  0  0  0  0  0  0  0  0  0  0  0
   10.3868  -15.6064   24.7457 O   0  0  0  0  0  0  0  0  0  0  0  0
   16.4076  -16.7819   24.9459 O   0  0  0  0  0  0  0  0  0  0  0  0
   11.3194  -17.5706   25.3482 O   0  0  0  0  0  0  0  0  0  0  0  0
  2  1  1  6
  3  2  1  0
  4  5  2  0
  4  3  1  0
  6  5  1  0
  7  8  2  0
  7  6  1  0
  8  4  1  0
  9  2  1  0
 10  9  2  0
 12 11  1  0
 13 15  1  0
 13 12  1  0
 13 14  1  1
 15 16  1  1
 16  9  1  0
 17 15  1  0
 18 17  2  0
 19 17  1  0
 20 25  1  0
 20 19  1  0
 20 21  1  1
 22 21  1  0
 23 27  1  0
 23 22  1  0
 24 23  2  0
 25 28  1  0
 26 25  2  0
M  END
$$$$
