HIE.pdb
     RDKit          3D

 28 28  0  0  1  0  0  0  0  0999 V2000
    9.9102  -13.6757   20.5359 N   0  0  0  0  0  0  0  0  0  0  0  0
    8.6534  -14.0493   21.0902 C   0  0  1  0  0  0  0  0  0  0  0  0
    8.0471  -15.1784   20.3431 C   0  0  0  0  0  0  0  0  0  0  0  0
    7.6484  -14.6760   19.0034 C   0  0  0  0  0  0  0  0  0  0  0  0
    7.9071  -13.4581   18.4088 C   0  0  0  0  0  0  0  0  0  0  0  0
    7.3431  -13.4452   17.1770 N   0  0  0  0  0  0  0  0  0  0  0  0
    6.7461  -14.6293   17.0081 C   0  0  0  0  0  0  0  0  0  0  0  0
    6.9277  -15.3690   18.1016 N   0  0  0  0  0  0  0  0  0  0  0  0
    8.8530  -14.3604   22.5642 C   0  0  0  0  0  0  0  0  0  0  0  0
    9.9411  -14.8544   22.9174 O   0  0  0  0  0  0  0  0  0  0  0  0
    5.4417  -11.4484   25.9075 C   0  0  0  0  0  0  0  0  0  0  0  0
    6.5858  -12.1497   25.2672 C   0  0  0  0  0  0  0  0  0  0  0  0
    6.7908  -13.5730   25.6453 C   0  0  2  0  0  0  0  0  0  0  0  0
    7.1350  -13.7253   27.1296 C   0  0  0  0  0  0  0  0  0  0  0  0
    7.8355  -14.3192   24.8996 C   0  0  2  0  0  0  0  0  0  0  0  0
    7.8549  -14.1038   23.5035 N   0  0  0  0  0  0  0  0  0  0  0  0
    8.1352  -15.6779   25.3825 C   0  0  0  0  0  0  0  0  0  0  0  0
    7.2706  -16.5745   25.2770 O   0  0  0  0  0  0  0  0  0  0  0  0
    9.3480  -16.0510   25.9656 N   0  0  0  0  0  0  0  0  0  0  0  0
    9.6360  -17.4333   26.4198 C   0  0  1  0  0  0  0  0  0  0  0  0
   10.8882  -17.8490   25.7188 C   0  0  0  0  0  0  0  0  0  0  0  0
   11.3346  -19.2133   26.1438 C   0  0  0  0  0  0  0  0  0  0  0  0
   12.5632  -19.7012   25.4934 C   0  0  0  0  0  0  0  0  0  0  0  0
   13.2635  -20.6285   25.9566 O   0  0  0  0  0  0  0  0  0  0  0  0
    9.7053  -17.4766   27.8883 C   0  0  0  0  0  0  0  0  0  0  0  0
    9.8632  -16.4061   28.5228 O   0  0  0  0  0  0  0  0  0  0  0  0
   13.0118  -19.1236   24.2857 O   0  0  0  0  0  0  0  0  0  0  0  0
    9.6030  -18.6457   28.6091 O   0  0  0  0  0  0  0  0  0  0  0  0
  2  1  1  6
  3  2  1  0
  4  5  2  0
  4  3  1  0
  6  5  1  0
  7  8  2  0
  7  6  1  0
  8  4  1  0
  9  2  1  0
 10  9  2  0
 12 11  1  0
 13 15  1  0
 13 12  1  0
 13 14  1  1
 15 16  1  6
 16  9  1  0
 17 15  1  0
 18 17  2  0
 19 17  1  0
 20 25  1  0
 20 19  1  0
 20 21  1  6
 22 21  1  0
 23 27  1  0
 23 22  1  0
 24 23  2  0
 25 28  1  0
 26 25  2  0
M  END
$$$$
