HIE.pdb
     RDKit          3D

 28 28  0  0  1  0  0  0  0  0999 V2000
    9.9631  -14.4514   20.2349 N   0  0  0  0  0  0  0  0  0  0  0  0
    8.7398  -14.1969   20.9168 C   0  0  1  0  0  0  0  0  0  0  0  0
    7.6089  -14.9213   20.2869 C   0  0  0  0  0  0  0  0  0  0  0  0
    7.5353  -14.5015   18.8640 C   0  0  0  0  0  0  0  0  0  0  0  0
    7.6195  -13.2386   18.3150 C   0  0  0  0  0  0  0  0  0  0  0  0
    7.4985  -13.3387   16.9692 N   0  0  0  0  0  0  0  0  0  0  0  0
    7.3423  -14.6359   16.6863 C   0  0  0  0  0  0  0  0  0  0  0  0
    7.3640  -15.3351   17.8206 N   0  0  0  0  0  0  0  0  0  0  0  0
    8.9240  -14.5562   22.3819 C   0  0  0  0  0  0  0  0  0  0  0  0
    9.8240  -15.3651   22.6789 O   0  0  0  0  0  0  0  0  0  0  0  0
    7.0806  -11.7465   27.6805 C   0  0  0  0  0  0  0  0  0  0  0  0
    7.7527  -12.8672   26.9712 C   0  0  0  0  0  0  0  0  0  0  0  0
    7.4870  -12.9879   25.5133 C   0  0  2  0  0  0  0  0  0  0  0  0
    6.0058  -13.2456   25.2225 C   0  0  0  0  0  0  0  0  0  0  0  0
    8.2410  -14.0362   24.7807 C   0  0  2  0  0  0  0  0  0  0  0  0
    8.1157  -14.0021   23.3739 N   0  0  0  0  0  0  0  0  0  0  0  0
    8.3117  -15.3584   25.4255 C   0  0  0  0  0  0  0  0  0  0  0  0
    7.2857  -16.0697   25.4879 O   0  0  0  0  0  0  0  0  0  0  0  0
    9.4725  -15.8931   25.9881 N   0  0  0  0  0  0  0  0  0  0  0  0
    9.5791  -17.3031   26.4363 C   0  0  1  0  0  0  0  0  0  0  0  0
   10.7673  -17.8742   25.7335 C   0  0  0  0  0  0  0  0  0  0  0  0
   11.0699  -19.2652   26.1971 C   0  0  0  0  0  0  0  0  0  0  0  0
   12.2301  -19.9025   25.5503 C   0  0  0  0  0  0  0  0  0  0  0  0
   12.9352  -19.3319   24.6888 O   0  0  0  0  0  0  0  0  0  0  0  0
    9.6415  -17.3612   27.9047 C   0  0  0  0  0  0  0  0  0  0  0  0
    9.9157  -16.3178   28.5448 O   0  0  0  0  0  0  0  0  0  0  0  0
   12.6025  -21.2219   25.8876 O   0  0  0  0  0  0  0  0  0  0  0  0
    9.4102  -18.5155   28.6194 O   0  0  0  0  0  0  0  0  0  0  0  0
  2  1  1  6
  3  2  1  0
  4  5  2  0
  4  3  1  0
  6  5  1  0
  7  8  2  0
  7  6  1  0
  8  4  1  0
  9  2  1  0
 10  9  2  0
 12 11  1  0
 13 15  1  0
 13 12  1  0
 13 14  1  1
 15 16  1  6
 16  9  1  0
 17 15  1  0
 18 17  2  0
 19 17  1  0
 20 25  1  0
 20 19  1  0
 20 21  1  6
 22 21  1  0
 23 27  1  0
 23 22  1  0
 24 23  2  0
 25 28  1  0
 26 25  2  0
M  END
$$$$
