HIE.pdb
     RDKit          3D

 28 28  0  0  1  0  0  0  0  0999 V2000
    9.7602  -14.0990   20.5985 N   0  0  0  0  0  0  0  0  0  0  0  0
    8.5296  -14.1743   21.3100 C   0  0  1  0  0  0  0  0  0  0  0  0
    7.5781  -15.1000   20.6480 C   0  0  0  0  0  0  0  0  0  0  0  0
    7.3499  -14.6064   19.2657 C   0  0  0  0  0  0  0  0  0  0  0  0
    7.2004  -13.3136   18.8077 C   0  0  0  0  0  0  0  0  0  0  0  0
    7.0117  -13.3447   17.4664 N   0  0  0  0  0  0  0  0  0  0  0  0
    7.0430  -14.6291   17.0971 C   0  0  0  0  0  0  0  0  0  0  0  0
    7.2457  -15.3876   18.1739 N   0  0  0  0  0  0  0  0  0  0  0  0
    8.8298  -14.5693   22.7464 C   0  0  0  0  0  0  0  0  0  0  0  0
    9.8330  -15.2758   22.9631 O   0  0  0  0  0  0  0  0  0  0  0  0
    5.8527  -11.4982   26.3578 C   0  0  0  0  0  0  0  0  0  0  0  0
    6.9890  -12.1937   25.6976 C   0  0  0  0  0  0  0  0  0  0  0  0
    7.1842  -13.6267   26.0425 C   0  0  2  0  0  0  0  0  0  0  0  0
    7.6745  -13.8056   27.4822 C   0  0  0  0  0  0  0  0  0  0  0  0
    8.1208  -14.3988   25.1876 C   0  0  2  0  0  0  0  0  0  0  0  0
    8.0137  -14.1581   23.7996 N   0  0  0  0  0  0  0  0  0  0  0  0
    8.4105  -15.7769   25.6186 C   0  0  0  0  0  0  0  0  0  0  0  0
    7.4993  -16.6325   25.6028 O   0  0  0  0  0  0  0  0  0  0  0  0
    9.6631  -16.2127   26.0556 N   0  0  0  0  0  0  0  0  0  0  0  0
    9.9382  -17.6146   26.4545 C   0  0  1  0  0  0  0  0  0  0  0  0
   11.2086  -18.0004   25.7694 C   0  0  0  0  0  0  0  0  0  0  0  0
   11.6949  -19.3432   26.2184 C   0  0  0  0  0  0  0  0  0  0  0  0
   12.9508  -19.7953   25.5947 C   0  0  0  0  0  0  0  0  0  0  0  0
   13.5427  -20.8462   25.9264 O   0  0  0  0  0  0  0  0  0  0  0  0
    9.9680  -17.7241   27.9210 C   0  0  0  0  0  0  0  0  0  0  0  0
    9.8607  -18.8566   28.4499 O   0  0  0  0  0  0  0  0  0  0  0  0
   13.5534  -19.0370   24.5675 O   0  0  0  0  0  0  0  0  0  0  0  0
   10.1110  -16.6345   28.7509 O   0  0  0  0  0  0  0  0  0  0  0  0
  2  1  1  6
  3  2  1  0
  4  5  2  0
  4  3  1  0
  6  5  1  0
  7  8  2  0
  7  6  1  0
  8  4  1  0
  9  2  1  0
 10  9  2  0
 12 11  1  0
 13 15  1  0
 13 12  1  0
 13 14  1  1
 15 16  1  6
 16  9  1  0
 17 15  1  0
 18 17  2  0
 19 17  1  0
 20 25  1  0
 20 19  1  0
 20 21  1  6
 22 21  1  0
 23 27  1  0
 23 22  1  0
 24 23  2  0
 25 28  1  0
 26 25  2  0
M  END
$$$$
