HIE.pdb
     RDKit          3D

 28 28  0  0  1  0  0  0  0  0999 V2000
   10.0351  -17.1624   17.7233 N   0  0  0  0  0  0  0  0  0  0  0  0
    8.9910  -17.3545   18.6717 C   0  0  1  0  0  0  0  0  0  0  0  0
    8.6495  -18.7908   18.8162 C   0  0  0  0  0  0  0  0  0  0  0  0
    8.0402  -19.2445   17.5399 C   0  0  0  0  0  0  0  0  0  0  0  0
    7.0415  -18.6621   16.7870 C   0  0  0  0  0  0  0  0  0  0  0  0
    6.8096  -19.4337   15.6977 N   0  0  0  0  0  0  0  0  0  0  0  0
    7.6456  -20.4743   15.7707 C   0  0  0  0  0  0  0  0  0  0  0  0
    8.3845  -20.3632   16.8742 N   0  0  0  0  0  0  0  0  0  0  0  0
    9.4128  -16.7163   19.9848 C   0  0  0  0  0  0  0  0  0  0  0  0
   10.5735  -16.9194   20.3897 O   0  0  0  0  0  0  0  0  0  0  0  0
    7.3398  -11.7364   21.3353 C   0  0  0  0  0  0  0  0  0  0  0  0
    8.1767  -12.9573   21.1948 C   0  0  0  0  0  0  0  0  0  0  0  0
    7.9376  -14.0459   22.1789 C   0  0  2  0  0  0  0  0  0  0  0  0
    8.2252  -13.5922   23.6129 C   0  0  0  0  0  0  0  0  0  0  0  0
    8.7002  -15.3045   21.9823 C   0  0  2  0  0  0  0  0  0  0  0  0
    8.5349  -15.9234   20.7232 N   0  0  0  0  0  0  0  0  0  0  0  0
    8.8260  -16.1804   23.1596 C   0  0  0  0  0  0  0  0  0  0  0  0
    7.8423  -16.8543   23.5347 O   0  0  0  0  0  0  0  0  0  0  0  0
    9.9956  -16.3193   23.9098 N   0  0  0  0  0  0  0  0  0  0  0  0
   10.1930  -17.3982   24.9084 C   0  0  1  0  0  0  0  0  0  0  0  0
   11.5829  -17.9060   24.7027 C   0  0  0  0  0  0  0  0  0  0  0  0
   11.9730  -18.8957   25.7561 C   0  0  0  0  0  0  0  0  0  0  0  0
   13.3465  -19.4174   25.6475 C   0  0  0  0  0  0  0  0  0  0  0  0
   13.8639  -19.7690   24.5642 O   0  0  0  0  0  0  0  0  0  0  0  0
    9.9133  -16.8904   26.2601 C   0  0  0  0  0  0  0  0  0  0  0  0
    9.9144  -15.6517   26.4581 O   0  0  0  0  0  0  0  0  0  0  0  0
   14.1570  -19.5447   26.7966 O   0  0  0  0  0  0  0  0  0  0  0  0
    9.6459  -17.7153   27.3300 O   0  0  0  0  0  0  0  0  0  0  0  0
  2  1  1  6
  3  2  1  0
  4  5  2  0
  4  3  1  0
  6  5  1  0
  7  8  2  0
  7  6  1  0
  8  4  1  0
  9  2  1  0
 10  9  2  0
 12 11  1  0
 13 15  1  0
 13 12  1  0
 13 14  1  1
 15 16  1  6
 16  9  1  0
 17 15  1  0
 18 17  2  0
 19 17  1  0
 20 25  1  0
 20 19  1  0
 20 21  1  1
 22 21  1  0
 23 27  1  0
 23 22  1  0
 24 23  2  0
 25 28  1  0
 26 25  2  0
M  END
$$$$
