CYN.pdb
     RDKit          3D

 27 27  0  0  1  0  0  0  0  0999 V2000
   -2.2065  -24.3630   23.8952 N   0  0  0  0  0  0  0  0  0  0  0  0
   -3.4968  -24.5348   24.5903 C   0  0  1  0  0  0  0  0  0  0  0  0
   -3.8077  -25.9996   24.7174 C   0  0  0  0  0  0  0  0  0  0  0  0
   -5.3005  -26.2557   25.6821 S   0  0  0  0  0  0  0  0  0  0  0  0
   -3.3516  -23.8590   25.9036 C   0  0  0  0  0  0  0  0  0  0  0  0
   -2.1715  -23.7971   26.4153 O   0  0  0  0  0  0  0  0  0  0  0  0
  -10.5266  -21.5022   27.8878 O   0  0  0  0  0  0  0  0  0  0  0  0
   -9.1276  -21.4494   27.8746 C   0  0  0  0  0  0  0  0  0  0  0  0
   -8.4211  -21.3881   26.6921 C   0  0  0  0  0  0  0  0  0  0  0  0
   -7.0389  -21.3359   26.6870 C   0  0  0  0  0  0  0  0  0  0  0  0
   -6.2994  -21.3423   27.8515 C   0  0  0  0  0  0  0  0  0  0  0  0
   -4.8266  -21.2871   27.9007 C   0  0  0  0  0  0  0  0  0  0  0  0
   -4.1660  -22.6155   27.8655 C   0  0  2  0  0  0  0  0  0  0  0  0
   -4.4417  -23.2814   26.6113 N   0  0  0  0  0  0  0  0  0  0  0  0
   -4.6178  -23.5358   28.9588 C   0  0  0  0  0  0  0  0  0  0  0  0
   -4.4603  -23.2894   30.1818 O   0  0  0  0  0  0  0  0  0  0  0  0
   -7.0183  -21.4041   29.0348 C   0  0  0  0  0  0  0  0  0  0  0  0
   -8.4001  -21.4566   29.0451 C   0  0  0  0  0  0  0  0  0  0  0  0
   -4.8544  -28.2271   29.3308 N   0  0  0  0  0  0  0  0  0  0  0  0
   -4.1316  -27.4701   30.3037 C   0  0  0  0  0  0  0  0  0  0  0  0
   -3.1815  -28.0566   30.8953 O   0  0  0  0  0  0  0  0  0  0  0  0
   -4.5114  -26.0798   30.5692 C   0  0  0  0  0  0  0  0  0  0  0  0
   -5.7087  -25.6573   29.7147 C   0  0  2  0  0  0  0  0  0  0  0  0
   -5.2696  -24.7761   28.6535 N   0  0  0  0  0  0  0  0  0  0  0  0
   -6.6981  -24.9704   30.5713 C   0  0  0  0  0  0  0  0  0  0  0  0
   -7.0325  -23.7959   30.2813 O   0  0  0  0  0  0  0  0  0  0  0  0
   -7.2533  -25.5811   31.6637 O   0  0  0  0  0  0  0  0  0  0  0  0
  2  1  1  6
  3  2  1  0
  4  3  1  0
  5  2  1  0
  5  6  2  0
  7  8  1  0
  8 18  2  0
  9  8  1  0
  9 10  2  0
 10 11  1  0
 11 17  2  0
 11 12  1  0
 13 12  1  6
 13 14  1  0
 14  5  1  0
 15 13  1  0
 16 15  2  0
 18 17  1  0
 20 21  2  0
 20 19  1  0
 23 22  1  1
 22 20  1  0
 23 24  1  0
 24 15  1  0
 25 23  1  0
 26 25  2  0
 27 25  1  0
M  END
$$$$
