CYN.pdb
     RDKit          3D

 27 27  0  0  1  0  0  0  0  0999 V2000
   10.6865  -16.9284   19.4547 N   0  0  0  0  0  0  0  0  0  0  0  0
    9.3002  -17.0911   19.9336 C   0  0  1  0  0  0  0  0  0  0  0  0
    8.9691  -18.5541   20.0257 C   0  0  0  0  0  0  0  0  0  0  0  0
    7.3275  -18.7967   20.7119 S   0  0  0  0  0  0  0  0  0  0  0  0
    9.2326  -16.3997   21.2450 C   0  0  0  0  0  0  0  0  0  0  0  0
   10.2539  -16.4957   22.0233 O   0  0  0  0  0  0  0  0  0  0  0  0
    6.8402  -11.3524   28.1307 O   0  0  0  0  0  0  0  0  0  0  0  0
    6.9248  -11.9720   26.8780 C   0  0  0  0  0  0  0  0  0  0  0  0
    7.8047  -11.5277   25.9137 C   0  0  0  0  0  0  0  0  0  0  0  0
    7.8829  -12.1451   24.6785 C   0  0  0  0  0  0  0  0  0  0  0  0
    7.0938  -13.2269   24.3467 C   0  0  0  0  0  0  0  0  0  0  0  0
    7.1391  -13.9206   23.0462 C   0  0  0  0  0  0  0  0  0  0  0  0
    8.1820  -14.9724   22.9531 C   0  0  2  0  0  0  0  0  0  0  0  0
    8.1071  -15.6433   21.6737 N   0  0  0  0  0  0  0  0  0  0  0  0
    8.0603  -16.0285   24.0096 C   0  0  0  0  0  0  0  0  0  0  0  0
    7.2608  -16.9960   23.9339 O   0  0  0  0  0  0  0  0  0  0  0  0
    6.2126  -13.6660   25.3223 C   0  0  0  0  0  0  0  0  0  0  0  0
    6.1307  -13.0521   26.5586 C   0  0  0  0  0  0  0  0  0  0  0  0
   11.2425  -20.0218   26.0506 N   0  0  0  0  0  0  0  0  0  0  0  0
    9.9263  -19.4653   26.0406 C   0  0  0  0  0  0  0  0  0  0  0  0
    9.0631  -20.0235   26.7753 O   0  0  0  0  0  0  0  0  0  0  0  0
    9.6382  -18.2995   25.2006 C   0  0  0  0  0  0  0  0  0  0  0  0
    9.0287  -17.1600   26.0206 C   0  0  2  0  0  0  0  0  0  0  0  0
    8.8731  -15.9846   25.1903 N   0  0  0  0  0  0  0  0  0  0  0  0
    9.9120  -16.8610   27.1673 C   0  0  0  0  0  0  0  0  0  0  0  0
    9.6330  -17.3556   28.2866 O   0  0  0  0  0  0  0  0  0  0  0  0
   11.0178  -16.0642   27.0371 O   0  0  0  0  0  0  0  0  0  0  0  0
  2  1  1  1
  3  2  1  0
  4  3  1  0
  5  2  1  0
  5  6  2  0
  7  8  1  0
  8 18  2  0
  9  8  1  0
  9 10  2  0
 10 11  1  0
 11 17  2  0
 11 12  1  0
 13 12  1  6
 13 14  1  0
 14  5  1  0
 15 13  1  0
 16 15  2  0
 18 17  1  0
 20 21  2  0
 20 19  1  0
 23 22  1  6
 22 20  1  0
 23 24  1  0
 24 15  1  0
 25 23  1  0
 26 25  2  0
 27 25  1  0
M  END
$$$$
