CYN.pdb
     RDKit          3D

 27 27  0  0  1  0  0  0  0  0999 V2000
    7.6524  -13.2451   19.2658 N   0  0  0  0  0  0  0  0  0  0  0  0
    7.7305  -14.5808   19.8882 C   0  0  1  0  0  0  0  0  0  0  0  0
    8.4776  -15.5156   18.9791 C   0  0  0  0  0  0  0  0  0  0  0  0
    8.6233  -17.1460   19.7174 S   0  0  0  0  0  0  0  0  0  0  0  0
    8.4029  -14.3877   21.1971 C   0  0  0  0  0  0  0  0  0  0  0  0
    9.2665  -13.4371   21.2896 O   0  0  0  0  0  0  0  0  0  0  0  0
    5.8691  -10.3261   27.3536 O   0  0  0  0  0  0  0  0  0  0  0  0
    6.3436  -11.4699   26.7005 C   0  0  0  0  0  0  0  0  0  0  0  0
    7.6072  -11.5120   26.1501 C   0  0  0  0  0  0  0  0  0  0  0  0
    8.0692  -12.6459   25.5066 C   0  0  0  0  0  0  0  0  0  0  0  0
    7.3000  -13.7842   25.3812 C   0  0  0  0  0  0  0  0  0  0  0  0
    7.7452  -15.0176   24.7067 C   0  0  0  0  0  0  0  0  0  0  0  0
    8.7137  -14.7935   23.6048 C   0  0  2  0  0  0  0  0  0  0  0  0
    8.1374  -15.1923   22.3394 N   0  0  0  0  0  0  0  0  0  0  0  0
    9.9901  -15.5623   23.7667 C   0  0  0  0  0  0  0  0  0  0  0  0
   10.8837  -15.2558   24.5966 O   0  0  0  0  0  0  0  0  0  0  0  0
    6.0316  -13.7321   25.9374 C   0  0  0  0  0  0  0  0  0  0  0  0
    5.5652  -12.6009   26.5817 C   0  0  0  0  0  0  0  0  0  0  0  0
   12.3057  -19.4458   26.0154 N   0  0  0  0  0  0  0  0  0  0  0  0
   11.2176  -19.6195   25.1055 C   0  0  0  0  0  0  0  0  0  0  0  0
   10.9719  -20.7993   24.7253 O   0  0  0  0  0  0  0  0  0  0  0  0
   10.4501  -18.4527   24.6615 C   0  0  0  0  0  0  0  0  0  0  0  0
   11.1100  -17.7786   23.4563 C   0  0  2  0  0  0  0  0  0  0  0  0
   10.2605  -16.7167   22.9600 N   0  0  0  0  0  0  0  0  0  0  0  0
   11.3357  -18.7870   22.3996 C   0  0  0  0  0  0  0  0  0  0  0  0
   10.3552  -19.1747   21.7186 O   0  0  0  0  0  0  0  0  0  0  0  0
   12.5790  -19.3025   22.1486 O   0  0  0  0  0  0  0  0  0  0  0  0
  2  1  1  6
  3  2  1  0
  4  3  1  0
  5  2  1  0
  5  6  2  0
  7  8  1  0
  8 18  2  0
  9  8  1  0
  9 10  2  0
 10 11  1  0
 11 17  2  0
 11 12  1  0
 13 12  1  1
 13 14  1  0
 14  5  1  0
 15 13  1  0
 16 15  2  0
 18 17  1  0
 20 21  2  0
 20 19  1  0
 23 22  1  1
 22 20  1  0
 23 24  1  0
 24 15  1  0
 25 23  1  0
 26 25  2  0
 27 25  1  0
M  END
$$$$
