CYN.pdb
     RDKit          3D

 27 27  0  0  1  0  0  0  0  0999 V2000
   10.7064  -17.0957   18.8762 N   0  0  0  0  0  0  0  0  0  0  0  0
    9.6676  -17.5770   19.8073 C   0  0  1  0  0  0  0  0  0  0  0  0
   10.0284  -18.9518   20.2953 C   0  0  0  0  0  0  0  0  0  0  0  0
   11.6026  -18.9316   21.1590 S   0  0  0  0  0  0  0  0  0  0  0  0
    9.5971  -16.5759   20.9006 C   0  0  0  0  0  0  0  0  0  0  0  0
   10.4711  -15.6302   20.9006 O   0  0  0  0  0  0  0  0  0  0  0  0
    6.6778  -11.1393   27.2321 O   0  0  0  0  0  0  0  0  0  0  0  0
    6.8064  -12.1248   26.2461 C   0  0  0  0  0  0  0  0  0  0  0  0
    7.0758  -11.7986   24.9337 C   0  0  0  0  0  0  0  0  0  0  0  0
    7.2018  -12.7778   23.9650 C   0  0  0  0  0  0  0  0  0  0  0  0
    7.0664  -14.1197   24.2551 C   0  0  0  0  0  0  0  0  0  0  0  0
    7.1923  -15.2015   23.2609 C   0  0  0  0  0  0  0  0  0  0  0  0
    8.5915  -15.5238   22.8856 C   0  0  2  0  0  0  0  0  0  0  0  0
    8.6190  -16.6115   21.9324 N   0  0  0  0  0  0  0  0  0  0  0  0
    9.4408  -15.9387   24.0488 C   0  0  0  0  0  0  0  0  0  0  0  0
    9.8044  -15.1501   24.9581 O   0  0  0  0  0  0  0  0  0  0  0  0
    6.7956  -14.4376   25.5766 C   0  0  0  0  0  0  0  0  0  0  0  0
    6.6687  -13.4623   26.5486 C   0  0  0  0  0  0  0  0  0  0  0  0
    8.4906  -19.2311   26.9268 N   0  0  0  0  0  0  0  0  0  0  0  0
    9.1786  -19.5705   25.7211 C   0  0  0  0  0  0  0  0  0  0  0  0
    8.5206  -20.1980   24.8437 O   0  0  0  0  0  0  0  0  0  0  0  0
   10.5833  -19.1870   25.5550 C   0  0  0  0  0  0  0  0  0  0  0  0
   10.7233  -17.6841   25.3023 C   0  0  2  0  0  0  0  0  0  0  0  0
    9.8917  -17.2934   24.1837 N   0  0  0  0  0  0  0  0  0  0  0  0
   12.1394  -17.3694   25.0193 C   0  0  0  0  0  0  0  0  0  0  0  0
   12.5300  -17.3743   23.8265 O   0  0  0  0  0  0  0  0  0  0  0  0
   13.0264  -17.0748   26.0198 O   0  0  0  0  0  0  0  0  0  0  0  0
  2  1  1  6
  3  2  1  0
  4  3  1  0
  5  2  1  0
  5  6  2  0
  7  8  1  0
  8 18  2  0
  9  8  1  0
  9 10  2  0
 10 11  1  0
 11 17  2  0
 11 12  1  0
 13 12  1  1
 13 14  1  0
 14  5  1  0
 15 13  1  0
 16 15  2  0
 18 17  1  0
 20 21  2  0
 20 19  1  0
 23 22  1  6
 22 20  1  0
 23 24  1  0
 24 15  1  0
 25 23  1  0
 26 25  2  0
 27 25  1  0
M  END
$$$$
