CYN.pdb
     RDKit          3D

 27 27  0  0  1  0  0  0  0  0999 V2000
   10.1923  -15.7011   13.1697 N   0  0  0  0  0  0  0  0  0  0  0  0
    9.2439  -16.3919   14.0646 C   0  0  1  0  0  0  0  0  0  0  0  0
    9.5587  -17.8611   14.0925 C   0  0  0  0  0  0  0  0  0  0  0  0
    8.4720  -18.7270   15.2300 S   0  0  0  0  0  0  0  0  0  0  0  0
    9.3844  -15.7456   15.3932 C   0  0  0  0  0  0  0  0  0  0  0  0
   10.5764  -15.5008   15.8143 O   0  0  0  0  0  0  0  0  0  0  0  0
    7.8354  -12.5484   23.5171 O   0  0  0  0  0  0  0  0  0  0  0  0
    7.7035  -12.9774   22.1910 C   0  0  0  0  0  0  0  0  0  0  0  0
    7.2477  -14.2425   21.8860 C   0  0  0  0  0  0  0  0  0  0  0  0
    7.1197  -14.6591   20.5733 C   0  0  0  0  0  0  0  0  0  0  0  0
    7.4376  -13.8413   19.5088 C   0  0  0  0  0  0  0  0  0  0  0  0
    7.3183  -14.2362   18.0930 C   0  0  0  0  0  0  0  0  0  0  0  0
    8.5440  -14.8527   17.5274 C   0  0  2  0  0  0  0  0  0  0  0  0
    8.2768  -15.3862   16.2097 N   0  0  0  0  0  0  0  0  0  0  0  0
    9.0818  -15.9799   18.3559 C   0  0  0  0  0  0  0  0  0  0  0  0
    8.8611  -17.1920   18.1043 O   0  0  0  0  0  0  0  0  0  0  0  0
    7.8950  -12.5718   19.8253 C   0  0  0  0  0  0  0  0  0  0  0  0
    8.0247  -12.1507   21.1361 C   0  0  0  0  0  0  0  0  0  0  0  0
    9.9248  -19.3942   19.5560 N   0  0  0  0  0  0  0  0  0  0  0  0
   11.1390  -18.8842   19.0014 C   0  0  0  0  0  0  0  0  0  0  0  0
   11.8114  -19.6701   18.2755 O   0  0  0  0  0  0  0  0  0  0  0  0
   11.5450  -17.5057   19.2892 C   0  0  0  0  0  0  0  0  0  0  0  0
   10.5405  -16.8111   20.2116 C   0  0  2  0  0  0  0  0  0  0  0  0
    9.8967  -15.7225   19.5075 N   0  0  0  0  0  0  0  0  0  0  0  0
   11.2494  -16.2992   21.4032 C   0  0  0  0  0  0  0  0  0  0  0  0
   11.8434  -17.1169   22.1474 O   0  0  0  0  0  0  0  0  0  0  0  0
   11.2729  -14.9651   21.7104 O   0  0  0  0  0  0  0  0  0  0  0  0
  2  1  1  6
  3  2  1  0
  4  3  1  0
  5  2  1  0
  5  6  2  0
  7  8  1  0
  8 18  2  0
  9  8  1  0
  9 10  2  0
 10 11  1  0
 11 17  2  0
 11 12  1  0
 13 12  1  1
 13 14  1  0
 14  5  1  0
 15 13  1  0
 16 15  2  0
 18 17  1  0
 20 21  2  0
 20 19  1  0
 23 22  1  6
 22 20  1  0
 23 24  1  0
 24 15  1  0
 25 23  1  0
 26 25  2  0
 27 25  1  0
M  END
$$$$
