CYN.pdb
     RDKit          3D

 27 27  0  0  1  0  0  0  0  0999 V2000
    7.0927  -18.8161   25.6661 N   0  0  0  0  0  0  0  0  0  0  0  0
    7.5812  -17.4237   25.6792 C   0  0  1  0  0  0  0  0  0  0  0  0
    8.9058  -17.3628   26.3866 C   0  0  0  0  0  0  0  0  0  0  0  0
    9.4730  -15.6658   26.5380 S   0  0  0  0  0  0  0  0  0  0  0  0
    7.6650  -17.0022   24.2587 C   0  0  0  0  0  0  0  0  0  0  0  0
    7.5173  -17.9099   23.3574 O   0  0  0  0  0  0  0  0  0  0  0  0
    7.9177  -12.4627   16.6968 O   0  0  0  0  0  0  0  0  0  0  0  0
    7.9057  -12.8034   18.0546 C   0  0  0  0  0  0  0  0  0  0  0  0
    8.7077  -12.1512   18.9672 C   0  0  0  0  0  0  0  0  0  0  0  0
    8.6901  -12.4932   20.3073 C   0  0  0  0  0  0  0  0  0  0  0  0
    7.8786  -13.4944   20.7992 C   0  0  0  0  0  0  0  0  0  0  0  0
    7.8215  -13.8964   22.2169 C   0  0  0  0  0  0  0  0  0  0  0  0
    7.8935  -15.3622   22.4375 C   0  0  2  0  0  0  0  0  0  0  0  0
    7.8945  -15.6584   23.8534 N   0  0  0  0  0  0  0  0  0  0  0  0
    9.1228  -15.9933   21.8569 C   0  0  0  0  0  0  0  0  0  0  0  0
    9.1263  -16.6422   20.7799 O   0  0  0  0  0  0  0  0  0  0  0  0
    7.0763  -14.1442   19.8745 C   0  0  0  0  0  0  0  0  0  0  0  0
    7.0904  -13.8059   18.5337 C   0  0  0  0  0  0  0  0  0  0  0  0
   13.2152  -15.6358   18.9462 N   0  0  0  0  0  0  0  0  0  0  0  0
   13.1680  -14.9557   20.2021 C   0  0  0  0  0  0  0  0  0  0  0  0
   14.2560  -14.4851   20.6396 O   0  0  0  0  0  0  0  0  0  0  0  0
   11.8926  -14.8345   20.9138 C   0  0  0  0  0  0  0  0  0  0  0  0
   11.6233  -16.0629   21.7858 C   0  0  2  0  0  0  0  0  0  0  0  0
   10.3892  -15.8838   22.5209 N   0  0  0  0  0  0  0  0  0  0  0  0
   12.7516  -16.2505   22.7219 C   0  0  0  0  0  0  0  0  0  0  0  0
   13.9050  -16.4030   22.2509 O   0  0  0  0  0  0  0  0  0  0  0  0
   12.5687  -16.2610   24.0787 O   0  0  0  0  0  0  0  0  0  0  0  0
  2  1  1  6
  3  2  1  0
  4  3  1  0
  5  2  1  0
  5  6  2  0
  7  8  1  0
  8 18  2  0
  9  8  1  0
  9 10  2  0
 10 11  1  0
 11 17  2  0
 11 12  1  0
 13 12  1  1
 13 14  1  0
 14  5  1  0
 15 13  1  0
 16 15  2  0
 18 17  1  0
 20 21  2  0
 20 19  1  0
 23 22  1  1
 22 20  1  0
 23 24  1  0
 24 15  1  0
 25 23  1  0
 26 25  2  0
 27 25  1  0
M  END
$$$$
