CYN.pdb
     RDKit          3D

 27 27  0  0  1  0  0  0  0  0999 V2000
    6.8383  -17.5938   19.8511 N   0  0  0  0  0  0  0  0  0  0  0  0
    8.2214  -17.7856   20.3285 C   0  0  1  0  0  0  0  0  0  0  0  0
    9.0968  -18.1984   19.1789 C   0  0  0  0  0  0  0  0  0  0  0  0
    9.1276  -19.9857   19.0075 S   0  0  0  0  0  0  0  0  0  0  0  0
    8.6324  -16.4940   20.9329 C   0  0  0  0  0  0  0  0  0  0  0  0
    8.2425  -15.4128   20.3523 O   0  0  0  0  0  0  0  0  0  0  0  0
    6.2126  -11.4683   27.3258 O   0  0  0  0  0  0  0  0  0  0  0  0
    6.5790  -12.4218   26.3684 C   0  0  0  0  0  0  0  0  0  0  0  0
    6.6991  -12.0926   25.0347 C   0  0  0  0  0  0  0  0  0  0  0  0
    7.0618  -13.0400   24.0945 C   0  0  0  0  0  0  0  0  0  0  0  0
    7.3204  -14.3515   24.4351 C   0  0  0  0  0  0  0  0  0  0  0  0
    7.7110  -15.3985   23.4729 C   0  0  0  0  0  0  0  0  0  0  0  0
    9.1308  -15.3338   23.0458 C   0  0  2  0  0  0  0  0  0  0  0  0
    9.4239  -16.3978   22.1107 N   0  0  0  0  0  0  0  0  0  0  0  0
   10.1017  -15.4672   24.1798 C   0  0  0  0  0  0  0  0  0  0  0  0
   10.1890  -14.6359   25.1192 O   0  0  0  0  0  0  0  0  0  0  0  0
    7.1969  -14.6727   25.7778 C   0  0  0  0  0  0  0  0  0  0  0  0
    6.8345  -13.7291   26.7215 C   0  0  0  0  0  0  0  0  0  0  0  0
   11.0144  -17.9761   28.3148 N   0  0  0  0  0  0  0  0  0  0  0  0
   10.2324  -18.6025   27.2958 C   0  0  0  0  0  0  0  0  0  0  0  0
    9.7813  -19.7556   27.5480 O   0  0  0  0  0  0  0  0  0  0  0  0
    9.9910  -17.9005   26.0323 C   0  0  0  0  0  0  0  0  0  0  0  0
   11.2677  -17.2351   25.5130 C   0  0  2  0  0  0  0  0  0  0  0  0
   11.0027  -16.5807   24.2493 N   0  0  0  0  0  0  0  0  0  0  0  0
   12.3167  -18.2625   25.3451 C   0  0  0  0  0  0  0  0  0  0  0  0
   12.3439  -18.9262   24.2801 O   0  0  0  0  0  0  0  0  0  0  0  0
   13.2515  -18.5040   26.3160 O   0  0  0  0  0  0  0  0  0  0  0  0
  2  1  1  6
  3  2  1  0
  4  3  1  0
  5  2  1  0
  5  6  2  0
  7  8  1  0
  8 18  2  0
  9  8  1  0
  9 10  2  0
 10 11  1  0
 11 17  2  0
 11 12  1  0
 13 12  1  1
 13 14  1  0
 14  5  1  0
 15 13  1  0
 16 15  2  0
 18 17  1  0
 20 21  2  0
 20 19  1  0
 23 22  1  6
 22 20  1  0
 23 24  1  0
 24 15  1  0
 25 23  1  0
 26 25  2  0
 27 25  1  0
M  END
$$$$
