CYN.pdb
     RDKit          3D

 27 27  0  0  1  0  0  0  0  0999 V2000
    5.9682  -15.4315   21.0527 N   0  0  0  0  0  0  0  0  0  0  0  0
    6.3101  -16.2972   22.1978 C   0  0  1  0  0  0  0  0  0  0  0  0
    6.6993  -17.6601   21.6984 C   0  0  0  0  0  0  0  0  0  0  0  0
    7.0755  -18.7599   23.0673 S   0  0  0  0  0  0  0  0  0  0  0  0
    7.4098  -15.6109   22.9204 C   0  0  0  0  0  0  0  0  0  0  0  0
    8.2043  -14.8682   22.2310 O   0  0  0  0  0  0  0  0  0  0  0  0
    5.1029   -9.9908   26.4067 O   0  0  0  0  0  0  0  0  0  0  0  0
    5.9146  -11.1311   26.3782 C   0  0  0  0  0  0  0  0  0  0  0  0
    5.4132  -12.3788   26.6835 C   0  0  0  0  0  0  0  0  0  0  0  0
    6.2212  -13.5010   26.6530 C   0  0  0  0  0  0  0  0  0  0  0  0
    7.5581  -13.4347   26.3193 C   0  0  0  0  0  0  0  0  0  0  0  0
    8.4611  -14.5995   26.2708 C   0  0  0  0  0  0  0  0  0  0  0  0
    8.7715  -15.0726   24.8989 C   0  0  2  0  0  0  0  0  0  0  0  0
    7.6207  -15.7321   24.3217 N   0  0  0  0  0  0  0  0  0  0  0  0
    9.9077  -16.0487   24.8471 C   0  0  0  0  0  0  0  0  0  0  0  0
   11.1031  -15.7341   25.0776 O   0  0  0  0  0  0  0  0  0  0  0  0
    8.0528  -12.1765   26.0142 C   0  0  0  0  0  0  0  0  0  0  0  0
    7.2491  -11.0516   26.0434 C   0  0  0  0  0  0  0  0  0  0  0  0
   11.9119  -21.1166   26.0218 N   0  0  0  0  0  0  0  0  0  0  0  0
   11.2727  -20.7965   24.7844 C   0  0  0  0  0  0  0  0  0  0  0  0
   11.6769  -21.4092   23.7559 O   0  0  0  0  0  0  0  0  0  0  0  0
   10.2016  -19.7966   24.7588 C   0  0  0  0  0  0  0  0  0  0  0  0
   10.7630  -18.3847   24.5753 C   0  0  2  0  0  0  0  0  0  0  0  0
    9.6790  -17.4269   24.5231 N   0  0  0  0  0  0  0  0  0  0  0  0
   11.5492  -18.3337   23.3248 C   0  0  0  0  0  0  0  0  0  0  0  0
   12.5728  -19.0536   23.2278 O   0  0  0  0  0  0  0  0  0  0  0  0
   11.1888  -17.5268   22.2790 O   0  0  0  0  0  0  0  0  0  0  0  0
  2  1  1  6
  3  2  1  0
  4  3  1  0
  5  2  1  0
  5  6  2  0
  7  8  1  0
  8 18  2  0
  9  8  1  0
  9 10  2  0
 10 11  1  0
 11 17  2  0
 11 12  1  0
 13 12  1  1
 13 14  1  0
 14  5  1  0
 15 13  1  0
 16 15  2  0
 18 17  1  0
 20 21  2  0
 20 19  1  0
 23 22  1  6
 22 20  1  0
 23 24  1  0
 24 15  1  0
 25 23  1  0
 26 25  2  0
 27 25  1  0
M  END
$$$$
