CYN.pdb
     RDKit          3D

 27 27  0  0  1  0  0  0  0  0999 V2000
    8.1325  -13.2010   17.6720 N   0  0  0  0  0  0  0  0  0  0  0  0
    8.0456  -14.4075   18.5171 C   0  0  1  0  0  0  0  0  0  0  0  0
    9.0567  -15.4186   18.0547 C   0  0  0  0  0  0  0  0  0  0  0  0
    9.0120  -16.8869   19.0874 S   0  0  0  0  0  0  0  0  0  0  0  0
    8.2785  -13.9532   19.9106 C   0  0  0  0  0  0  0  0  0  0  0  0
    9.1123  -12.9889   20.0921 O   0  0  0  0  0  0  0  0  0  0  0  0
    7.0071  -11.9402   28.4349 O   0  0  0  0  0  0  0  0  0  0  0  0
    6.8957  -12.4216   27.1250 C   0  0  0  0  0  0  0  0  0  0  0  0
    6.7491  -11.5655   26.0540 C   0  0  0  0  0  0  0  0  0  0  0  0
    6.6399  -12.0485   24.7625 C   0  0  0  0  0  0  0  0  0  0  0  0
    6.6713  -13.3979   24.4778 C   0  0  0  0  0  0  0  0  0  0  0  0
    6.5603  -13.9636   23.1205 C   0  0  0  0  0  0  0  0  0  0  0  0
    7.8121  -13.8916   22.3267 C   0  0  2  0  0  0  0  0  0  0  0  0
    7.6284  -14.5248   21.0391 N   0  0  0  0  0  0  0  0  0  0  0  0
    8.9761  -14.5679   22.9854 C   0  0  0  0  0  0  0  0  0  0  0  0
    9.3602  -14.3055   24.1537 O   0  0  0  0  0  0  0  0  0  0  0  0
    6.8188  -14.2504   25.5607 C   0  0  0  0  0  0  0  0  0  0  0  0
    6.9283  -13.7723   26.8537 C   0  0  0  0  0  0  0  0  0  0  0  0
   12.3848  -18.0215   24.3963 N   0  0  0  0  0  0  0  0  0  0  0  0
   11.0052  -18.0702   24.7657 C   0  0  0  0  0  0  0  0  0  0  0  0
   10.6881  -18.8708   25.6906 O   0  0  0  0  0  0  0  0  0  0  0  0
   10.0387  -17.2120   24.0752 C   0  0  0  0  0  0  0  0  0  0  0  0
   10.7182  -16.3645   22.9971 C   0  0  2  0  0  0  0  0  0  0  0  0
    9.7285  -15.5749   22.2952 N   0  0  0  0  0  0  0  0  0  0  0  0
   11.4233  -17.2556   22.0520 C   0  0  0  0  0  0  0  0  0  0  0  0
   12.6760  -17.2012   21.9945 O   0  0  0  0  0  0  0  0  0  0  0  0
   10.7470  -18.1314   21.2457 O   0  0  0  0  0  0  0  0  0  0  0  0
  2  1  1  6
  3  2  1  0
  4  3  1  0
  5  2  1  0
  5  6  2  0
  7  8  1  0
  8 18  2  0
  9  8  1  0
  9 10  2  0
 10 11  1  0
 11 17  2  0
 11 12  1  0
 13 12  1  1
 13 14  1  0
 14  5  1  0
 15 13  1  0
 16 15  2  0
 18 17  1  0
 20 21  2  0
 20 19  1  0
 23 22  1  1
 22 20  1  0
 23 24  1  0
 24 15  1  0
 25 23  1  0
 26 25  2  0
 27 25  1  0
M  END
$$$$
