CYN.pdb
     RDKit          3D

 27 27  0  0  1  0  0  0  0  0999 V2000
    9.0034  -16.9505   17.7805 N   0  0  0  0  0  0  0  0  0  0  0  0
    8.4330  -17.6513   18.9471 C   0  0  1  0  0  0  0  0  0  0  0  0
    9.1063  -18.9849   19.1105 C   0  0  0  0  0  0  0  0  0  0  0  0
    8.0589  -20.3096   18.4998 S   0  0  0  0  0  0  0  0  0  0  0  0
    8.6404  -16.7531   20.1103 C   0  0  0  0  0  0  0  0  0  0  0  0
    9.7760  -16.1536   20.2060 O   0  0  0  0  0  0  0  0  0  0  0  0
    7.4885  -12.0476   27.5523 O   0  0  0  0  0  0  0  0  0  0  0  0
    7.3239  -12.7377   26.3454 C   0  0  0  0  0  0  0  0  0  0  0  0
    7.7749  -12.2162   25.1512 C   0  0  0  0  0  0  0  0  0  0  0  0
    7.6089  -12.9040   23.9627 C   0  0  0  0  0  0  0  0  0  0  0  0
    6.9900  -14.1356   23.9070 C   0  0  0  0  0  0  0  0  0  0  0  0
    6.7893  -14.9094   22.6679 C   0  0  0  0  0  0  0  0  0  0  0  0
    7.9892  -15.6564   22.2155 C   0  0  2  0  0  0  0  0  0  0  0  0
    7.6534  -16.5250   21.1086 N   0  0  0  0  0  0  0  0  0  0  0  0
    8.5924  -16.5192   23.2823 C   0  0  0  0  0  0  0  0  0  0  0  0
    8.0722  -17.5915   23.6833 O   0  0  0  0  0  0  0  0  0  0  0  0
    6.5400  -14.6514   25.1122 C   0  0  0  0  0  0  0  0  0  0  0  0
    6.7035  -13.9675   26.3030 C   0  0  0  0  0  0  0  0  0  0  0  0
   13.0278  -16.5652   22.4045 N   0  0  0  0  0  0  0  0  0  0  0  0
   12.3544  -17.4627   23.2894 C   0  0  0  0  0  0  0  0  0  0  0  0
   12.1054  -18.6209   22.8498 O   0  0  0  0  0  0  0  0  0  0  0  0
   11.9893  -17.0154   24.6364 C   0  0  0  0  0  0  0  0  0  0  0  0
   10.4734  -17.0543   24.8436 C   0  0  2  0  0  0  0  0  0  0  0  0
    9.8263  -16.1526   23.9143 N   0  0  0  0  0  0  0  0  0  0  0  0
   10.1635  -16.6618   26.2344 C   0  0  0  0  0  0  0  0  0  0  0  0
   10.6270  -17.3549   27.1727 O   0  0  0  0  0  0  0  0  0  0  0  0
    9.3897  -15.5689   26.5198 O   0  0  0  0  0  0  0  0  0  0  0  0
  2  1  1  6
  3  2  1  0
  4  3  1  0
  5  2  1  0
  5  6  2  0
  7  8  1  0
  8 18  2  0
  9  8  1  0
  9 10  2  0
 10 11  1  0
 11 17  2  0
 11 12  1  0
 13 12  1  1
 13 14  1  0
 14  5  1  0
 15 13  1  0
 16 15  2  0
 18 17  1  0
 20 21  2  0
 20 19  1  0
 23 22  1  1
 22 20  1  0
 23 24  1  0
 24 15  1  0
 25 23  1  0
 26 25  2  0
 27 25  1  0
M  END
$$$$
