CYN.pdb
     RDKit          3D

 27 27  0  0  1  0  0  0  0  0999 V2000
    5.0726  -14.3365   25.6592 N   0  0  0  0  0  0  0  0  0  0  0  0
    6.4173  -13.7443   25.5221 C   0  0  1  0  0  0  0  0  0  0  0  0
    6.9536  -13.3959   26.8821 C   0  0  0  0  0  0  0  0  0  0  0  0
    8.5881  -12.6628   26.7568 S   0  0  0  0  0  0  0  0  0  0  0  0
    7.2437  -14.7553   24.8168 C   0  0  0  0  0  0  0  0  0  0  0  0
    6.8008  -15.9637   24.7748 O   0  0  0  0  0  0  0  0  0  0  0  0
    6.1762  -13.2648   18.1831 O   0  0  0  0  0  0  0  0  0  0  0  0
    7.0778  -13.6583   19.1793 C   0  0  0  0  0  0  0  0  0  0  0  0
    8.0576  -12.8049   19.6407 C   0  0  0  0  0  0  0  0  0  0  0  0
    8.9446  -13.2007   20.6254 C   0  0  0  0  0  0  0  0  0  0  0  0
    8.8986  -14.4568   21.1937 C   0  0  0  0  0  0  0  0  0  0  0  0
    9.8188  -14.9271   22.2457 C   0  0  0  0  0  0  0  0  0  0  0  0
    9.1415  -15.4980   23.4364 C   0  0  2  0  0  0  0  0  0  0  0  0
    8.4844  -14.4531   24.1907 N   0  0  0  0  0  0  0  0  0  0  0  0
   10.0764  -16.1960   24.3773 C   0  0  0  0  0  0  0  0  0  0  0  0
   10.9459  -17.0239   24.0036 O   0  0  0  0  0  0  0  0  0  0  0  0
    7.9106  -15.3074   20.7233 C   0  0  0  0  0  0  0  0  0  0  0  0
    7.0215  -14.9164   19.7390 C   0  0  0  0  0  0  0  0  0  0  0  0
   10.2182  -13.5888   28.5084 N   0  0  0  0  0  0  0  0  0  0  0  0
   11.1413  -14.5103   27.9244 C   0  0  0  0  0  0  0  0  0  0  0  0
   12.1297  -14.0185   27.3097 O   0  0  0  0  0  0  0  0  0  0  0  0
   10.9105  -15.9512   28.0588 C   0  0  0  0  0  0  0  0  0  0  0  0
   10.9095  -16.6440   26.6941 C   0  0  2  0  0  0  0  0  0  0  0  0
   10.0222  -15.9457   25.7883 N   0  0  0  0  0  0  0  0  0  0  0  0
   10.4684  -18.0447   26.8612 C   0  0  0  0  0  0  0  0  0  0  0  0
   11.1380  -18.8016   27.6055 O   0  0  0  0  0  0  0  0  0  0  0  0
    9.3555  -18.5305   26.2285 O   0  0  0  0  0  0  0  0  0  0  0  0
  2  1  1  1
  3  2  1  0
  4  3  1  0
  5  2  1  0
  5  6  2  0
  7  8  1  0
  8 18  2  0
  9  8  1  0
  9 10  2  0
 10 11  1  0
 11 17  2  0
 11 12  1  0
 13 12  1  6
 13 14  1  0
 14  5  1  0
 15 13  1  0
 16 15  2  0
 18 17  1  0
 20 21  2  0
 20 19  1  0
 23 22  1  1
 22 20  1  0
 23 24  1  0
 24 15  1  0
 25 23  1  0
 26 25  2  0
 27 25  1  0
M  END
$$$$
