FHD.pdb
     RDKit          3D

 30 31  0  0  1  0  0  0  0  0999 V2000
   19.9147  -13.2085  -16.8077 N   0  0  0  0  0  0  0  0  0  0  0  0
   19.3839  -11.8469  -16.8858 C   0  0  1  0  0  0  0  0  0  0  0  0
   18.0882  -11.8525  -16.1114 C   0  0  0  0  0  0  0  0  0  0  0  0
   17.0953  -12.6210  -16.9070 C   0  0  0  0  0  0  0  0  0  0  0  0
   16.4161  -12.0719  -17.9726 C   0  0  0  0  0  0  0  0  0  0  0  0
   15.4934  -12.8210  -18.6943 C   0  0  0  0  0  0  0  0  0  0  0  0
   15.2284  -14.1369  -18.3674 C   0  0  0  0  0  0  0  0  0  0  0  0
   15.9005  -14.6959  -17.3054 C   0  0  0  0  0  0  0  0  0  0  0  0
   16.8139  -13.9473  -16.5942 C   0  0  0  0  0  0  0  0  0  0  0  0
   20.3971  -10.9526  -16.2897 C   0  0  0  0  0  0  0  0  0  0  0  0
   20.8634  -11.1301  -15.1165 O   0  0  0  0  0  0  0  0  0  0  0  0
   20.9457   -9.8254  -16.9477 N   0  0  0  0  0  0  0  0  0  0  0  0
   22.0193   -9.0231  -16.4625 C   0  0  1  0  0  0  0  0  0  0  0  0
   23.3347   -9.2151  -17.1137 C   0  0  0  0  0  0  0  0  0  0  0  0
   23.7910  -10.6084  -16.8233 C   0  0  0  0  0  0  0  0  0  0  0  0
   24.4965  -11.0534  -15.7119 C   0  0  0  0  0  0  0  0  0  0  0  0
   24.7297  -12.3566  -15.7888 N   0  0  0  0  0  0  0  0  0  0  0  0
   24.1845  -12.7782  -16.9423 C   0  0  0  0  0  0  0  0  0  0  0  0
   23.6135  -11.7147  -17.5717 N   0  0  0  0  0  0  0  0  0  0  0  0
   21.5630   -7.6221  -16.3790 C   0  0  0  0  0  0  0  0  0  0  0  0
   20.7788   -7.1456  -17.2406 O   0  0  0  0  0  0  0  0  0  0  0  0
   21.9698   -6.7173  -15.3318 N   0  0  0  0  0  0  0  0  0  0  0  0
   21.5085   -5.3687  -15.2430 C   0  0  1  0  0  0  0  0  0  0  0  0
   20.0006   -5.3608  -15.1136 C   0  0  0  0  0  0  0  0  0  0  0  0
   19.4392   -4.0079  -15.0799 C   0  0  0  0  0  0  0  0  0  0  0  0
   20.0071   -3.0628  -15.6648 O   0  0  0  0  0  0  0  0  0  0  0  0
   22.1748   -4.5764  -14.2088 C   0  0  0  0  0  0  0  0  0  0  0  0
   22.5530   -5.0676  -13.1091 O   0  0  0  0  0  0  0  0  0  0  0  0
   18.2683   -3.7612  -14.3963 O   0  0  0  0  0  0  0  0  0  0  0  0
   22.4285   -3.2221  -14.3892 O   0  0  0  0  0  0  0  0  0  0  0  0
  2  1  1  1
  2 10  1  0
  3  2  1  0
  3  4  1  0
  4  5  2  0
  4  9  1  0
  5  6  1  0
  6  7  2  0
  8  7  1  0
  9  8  2  0
 10 11  2  0
 12 10  1  0
 12 13  1  0
 13 20  1  0
 13 14  1  6
 14 15  1  0
 15 16  2  0
 16 17  1  0
 18 17  1  0
 19 15  1  0
 19 18  2  0
 20 21  2  0
 22 23  1  0
 22 20  1  0
 23 27  1  0
 23 24  1  1
 25 24  1  0
 25 29  1  0
 26 25  2  0
 27 28  2  0
 27 30  1  0
M  END
$$$$
