FHD.pdb
     RDKit          3D

 30 31  0  0  1  0  0  0  0  0999 V2000
   24.4430  -11.2016  -17.6185 N   0  0  0  0  0  0  0  0  0  0  0  0
   24.2383  -10.9949  -16.1842 C   0  0  1  0  0  0  0  0  0  0  0  0
   25.4669  -10.2771  -15.6803 C   0  0  0  0  0  0  0  0  0  0  0  0
   26.6225  -11.1966  -15.8489 C   0  0  0  0  0  0  0  0  0  0  0  0
   27.7095  -10.8828  -16.6351 C   0  0  0  0  0  0  0  0  0  0  0  0
   28.7731  -11.7682  -16.7700 C   0  0  0  0  0  0  0  0  0  0  0  0
   28.7747  -12.9882  -16.1218 C   0  0  0  0  0  0  0  0  0  0  0  0
   27.6947  -13.3125  -15.3340 C   0  0  0  0  0  0  0  0  0  0  0  0
   26.6437  -12.4299  -15.2049 C   0  0  0  0  0  0  0  0  0  0  0  0
   23.0093  -10.1896  -16.0340 C   0  0  0  0  0  0  0  0  0  0  0  0
   22.6081   -9.3768  -16.9306 O   0  0  0  0  0  0  0  0  0  0  0  0
   22.1642  -10.2359  -14.8991 N   0  0  0  0  0  0  0  0  0  0  0  0
   20.9422   -9.5184  -14.7452 C   0  0  1  0  0  0  0  0  0  0  0  0
   19.8398  -10.2296  -14.0593 C   0  0  0  0  0  0  0  0  0  0  0  0
   19.4976  -11.4367  -14.8717 C   0  0  0  0  0  0  0  0  0  0  0  0
   19.1093  -11.4768  -16.2053 C   0  0  0  0  0  0  0  0  0  0  0  0
   18.8866  -12.7241  -16.5971 N   0  0  0  0  0  0  0  0  0  0  0  0
   19.1243  -13.5102  -15.5336 C   0  0  0  0  0  0  0  0  0  0  0  0
   19.4960  -12.7270  -14.4839 N   0  0  0  0  0  0  0  0  0  0  0  0
   21.2454   -8.1760  -14.2123 C   0  0  0  0  0  0  0  0  0  0  0  0
   22.1636   -8.0084  -13.3679 O   0  0  0  0  0  0  0  0  0  0  0  0
   20.5320   -6.9865  -14.6084 N   0  0  0  0  0  0  0  0  0  0  0  0
   20.9993   -5.6665  -14.3277 C   0  0  1  0  0  0  0  0  0  0  0  0
   22.4222   -5.5213  -14.8227 C   0  0  0  0  0  0  0  0  0  0  0  0
   22.9698   -4.1814  -14.5957 C   0  0  0  0  0  0  0  0  0  0  0  0
   22.3287   -3.3271  -13.9500 O   0  0  0  0  0  0  0  0  0  0  0  0
   20.1154   -4.6048  -14.8101 C   0  0  0  0  0  0  0  0  0  0  0  0
   19.5185   -4.6644  -15.9209 O   0  0  0  0  0  0  0  0  0  0  0  0
   24.2091   -3.8462  -15.0965 O   0  0  0  0  0  0  0  0  0  0  0  0
   19.8854   -3.4599  -14.0568 O   0  0  0  0  0  0  0  0  0  0  0  0
  2  1  1  6
  2 10  1  0
  3  2  1  0
  3  4  1  0
  4  5  2  0
  4  9  1  0
  5  6  1  0
  6  7  2  0
  8  7  1  0
  9  8  2  0
 10 11  2  0
 12 10  1  0
 12 13  1  0
 13 20  1  0
 13 14  1  1
 14 15  1  0
 15 16  2  0
 16 17  1  0
 18 17  1  0
 19 15  1  0
 19 18  2  0
 20 21  2  0
 22 23  1  0
 22 20  1  0
 23 27  1  0
 23 24  1  6
 25 24  1  0
 25 29  1  0
 26 25  2  0
 27 28  2  0
 27 30  1  0
M  END
$$$$
