FHD.pdb
     RDKit          3D

 30 31  0  0  1  0  0  0  0  0999 V2000
   21.0770  -22.1506  -14.1044 N   0  0  0  0  0  0  0  0  0  0  0  0
   20.8144  -20.8075  -13.5859 C   0  0  1  0  0  0  0  0  0  0  0  0
   20.3488  -19.9832  -14.7616 C   0  0  0  0  0  0  0  0  0  0  0  0
   21.4802  -19.8946  -15.7214 C   0  0  0  0  0  0  0  0  0  0  0  0
   22.6412  -19.2098  -15.4359 C   0  0  0  0  0  0  0  0  0  0  0  0
   23.6794  -19.1477  -16.3588 C   0  0  0  0  0  0  0  0  0  0  0  0
   23.5810  -19.7690  -17.5888 C   0  0  0  0  0  0  0  0  0  0  0  0
   22.4266  -20.4557  -17.8850 C   0  0  0  0  0  0  0  0  0  0  0  0
   21.4012  -20.5131  -16.9653 C   0  0  0  0  0  0  0  0  0  0  0  0
   19.7787  -20.9417  -12.5414 C   0  0  0  0  0  0  0  0  0  0  0  0
   19.2153  -19.9339  -12.0006 O   0  0  0  0  0  0  0  0  0  0  0  0
   19.3125  -22.1813  -12.0412 N   0  0  0  0  0  0  0  0  0  0  0  0
   18.3143  -22.3479  -11.0374 C   0  0  1  0  0  0  0  0  0  0  0  0
   16.9058  -22.2831  -11.4884 C   0  0  0  0  0  0  0  0  0  0  0  0
   16.8138  -22.9828  -12.8060 C   0  0  0  0  0  0  0  0  0  0  0  0
   17.8487  -23.5606  -13.5313 C   0  0  0  0  0  0  0  0  0  0  0  0
   17.3974  -24.0949  -14.6581 N   0  0  0  0  0  0  0  0  0  0  0  0
   16.0720  -23.8756  -14.6847 C   0  0  0  0  0  0  0  0  0  0  0  0
   15.7170  -23.1990  -13.5580 N   0  0  0  0  0  0  0  0  0  0  0  0
   18.6547  -23.5307  -10.2230 C   0  0  0  0  0  0  0  0  0  0  0  0
   19.3451  -24.4679  -10.7021 O   0  0  0  0  0  0  0  0  0  0  0  0
   18.2338  -23.6977   -8.8535 N   0  0  0  0  0  0  0  0  0  0  0  0
   18.5164  -24.8695   -8.0877 C   0  0  1  0  0  0  0  0  0  0  0  0
   18.5486  -24.5132   -6.6171 C   0  0  0  0  0  0  0  0  0  0  0  0
   18.7194  -25.6829   -5.7516 C   0  0  0  0  0  0  0  0  0  0  0  0
   18.8435  -26.8267   -6.2357 O   0  0  0  0  0  0  0  0  0  0  0  0
   17.6375  -26.0018   -8.3821 C   0  0  0  0  0  0  0  0  0  0  0  0
   16.3845  -25.8862   -8.4833 O   0  0  0  0  0  0  0  0  0  0  0  0
   18.7451  -25.5327   -4.3820 O   0  0  0  0  0  0  0  0  0  0  0  0
   18.1472  -27.2812   -8.5680 O   0  0  0  0  0  0  0  0  0  0  0  0
  2  1  1  6
  2 10  1  0
  3  2  1  0
  3  4  1  0
  4  5  2  0
  4  9  1  0
  5  6  1  0
  6  7  2  0
  8  7  1  0
  9  8  2  0
 10 11  2  0
 12 10  1  0
 12 13  1  0
 13 20  1  0
 13 14  1  6
 14 15  1  0
 15 16  2  0
 16 17  1  0
 18 17  1  0
 19 15  1  0
 19 18  2  0
 20 21  2  0
 22 23  1  0
 22 20  1  0
 23 27  1  0
 23 24  1  1
 25 24  1  0
 25 29  1  0
 26 25  2  0
 27 28  2  0
 27 30  1  0
M  END
$$$$
