FHD.pdb
     RDKit          3D

 30 31  0  0  1  0  0  0  0  0999 V2000
   24.6359  -11.1109  -17.6052 N   0  0  0  0  0  0  0  0  0  0  0  0
   24.3959  -10.8585  -16.1837 C   0  0  1  0  0  0  0  0  0  0  0  0
   25.6220  -10.1454  -15.6673 C   0  0  0  0  0  0  0  0  0  0  0  0
   26.7597  -11.0987  -15.7453 C   0  0  0  0  0  0  0  0  0  0  0  0
   27.8801  -10.8530  -16.5084 C   0  0  0  0  0  0  0  0  0  0  0  0
   28.9257  -11.7684  -16.5579 C   0  0  0  0  0  0  0  0  0  0  0  0
   28.8752  -12.9509  -15.8453 C   0  0  0  0  0  0  0  0  0  0  0  0
   27.7615  -13.2070  -15.0798 C   0  0  0  0  0  0  0  0  0  0  0  0
   26.7286  -12.2950  -15.0355 C   0  0  0  0  0  0  0  0  0  0  0  0
   23.1766  -10.0300  -16.0911 C   0  0  0  0  0  0  0  0  0  0  0  0
   22.7870   -9.2744  -17.0413 O   0  0  0  0  0  0  0  0  0  0  0  0
   22.3291   -9.9896  -14.9578 N   0  0  0  0  0  0  0  0  0  0  0  0
   21.1703   -9.1715  -14.8176 C   0  0  1  0  0  0  0  0  0  0  0  0
   20.0768   -9.7123  -13.9789 C   0  0  0  0  0  0  0  0  0  0  0  0
   19.5205  -10.9148  -14.6706 C   0  0  0  0  0  0  0  0  0  0  0  0
   19.9235  -11.4535  -15.8865 C   0  0  0  0  0  0  0  0  0  0  0  0
   19.2053  -12.5260  -16.1913 N   0  0  0  0  0  0  0  0  0  0  0  0
   18.3301  -12.7017  -15.1870 C   0  0  0  0  0  0  0  0  0  0  0  0
   18.5218  -11.7215  -14.2619 N   0  0  0  0  0  0  0  0  0  0  0  0
   21.5973   -7.8002  -14.4778 C   0  0  0  0  0  0  0  0  0  0  0  0
   22.7331   -7.5816  -13.9814 O   0  0  0  0  0  0  0  0  0  0  0  0
   20.7679   -6.6382  -14.6836 N   0  0  0  0  0  0  0  0  0  0  0  0
   21.2638   -5.3014  -14.6031 C   0  0  1  0  0  0  0  0  0  0  0  0
   22.4906   -5.1668  -15.4792 C   0  0  0  0  0  0  0  0  0  0  0  0
   23.0451   -3.8106  -15.4777 C   0  0  0  0  0  0  0  0  0  0  0  0
   22.5261   -2.9045  -16.1614 O   0  0  0  0  0  0  0  0  0  0  0  0
   20.2565   -4.2737  -14.8686 C   0  0  0  0  0  0  0  0  0  0  0  0
   20.4735   -3.0425  -14.6930 O   0  0  0  0  0  0  0  0  0  0  0  0
   24.1550   -3.5174  -14.7153 O   0  0  0  0  0  0  0  0  0  0  0  0
   18.9908   -4.6077  -15.3350 O   0  0  0  0  0  0  0  0  0  0  0  0
  2  1  1  6
  2 10  1  0
  3  2  1  0
  3  4  1  0
  4  5  2  0
  4  9  1  0
  5  6  1  0
  6  7  2  0
  8  7  1  0
  9  8  2  0
 10 11  2  0
 12 10  1  0
 12 13  1  0
 13 20  1  0
 13 14  1  1
 14 15  1  0
 15 16  2  0
 16 17  1  0
 18 17  1  0
 19 15  1  0
 19 18  2  0
 20 21  2  0
 22 23  1  0
 22 20  1  0
 23 27  1  0
 23 24  1  6
 25 24  1  0
 25 29  1  0
 26 25  2  0
 27 28  2  0
 27 30  1  0
M  END
$$$$
