FHD.pdb
     RDKit          3D

 30 31  0  0  1  0  0  0  0  0999 V2000
   26.9070  -21.6676  -13.1713 N   0  0  0  0  0  0  0  0  0  0  0  0
   26.2451  -20.7080  -12.2864 C   0  0  1  0  0  0  0  0  0  0  0  0
   27.3137  -19.7430  -11.8333 C   0  0  0  0  0  0  0  0  0  0  0  0
   28.2972  -20.5117  -11.0263 C   0  0  0  0  0  0  0  0  0  0  0  0
   29.5436  -20.8510  -11.5053 C   0  0  0  0  0  0  0  0  0  0  0  0
   30.4383  -21.5716  -10.7218 C   0  0  0  0  0  0  0  0  0  0  0  0
   30.1074  -21.9697   -9.4409 C   0  0  0  0  0  0  0  0  0  0  0  0
   28.8656  -21.6367   -8.9519 C   0  0  0  0  0  0  0  0  0  0  0  0
   27.9837  -20.9221   -9.7342 C   0  0  0  0  0  0  0  0  0  0  0  0
   25.1850  -20.0503  -13.0770 C   0  0  0  0  0  0  0  0  0  0  0  0
   24.4701  -19.1028  -12.6115 O   0  0  0  0  0  0  0  0  0  0  0  0
   24.8584  -20.3976  -14.4100 N   0  0  0  0  0  0  0  0  0  0  0  0
   23.9131  -19.7215  -15.2353 C   0  0  1  0  0  0  0  0  0  0  0  0
   24.3320  -19.4411  -16.6272 C   0  0  0  0  0  0  0  0  0  0  0  0
   25.5638  -18.5963  -16.5738 C   0  0  0  0  0  0  0  0  0  0  0  0
   25.7588  -17.4298  -15.8443 C   0  0  0  0  0  0  0  0  0  0  0  0
   26.9792  -16.9482  -16.0373 N   0  0  0  0  0  0  0  0  0  0  0  0
   27.5940  -17.7863  -16.8889 C   0  0  0  0  0  0  0  0  0  0  0  0
   26.7328  -18.7889  -17.2153 N   0  0  0  0  0  0  0  0  0  0  0  0
   22.6039  -20.3893  -15.1004 C   0  0  0  0  0  0  0  0  0  0  0  0
   22.5280  -21.6013  -14.7695 O   0  0  0  0  0  0  0  0  0  0  0  0
   21.3463  -19.7215  -15.3308 N   0  0  0  0  0  0  0  0  0  0  0  0
   20.0925  -20.2457  -14.8918 C   0  0  1  0  0  0  0  0  0  0  0  0
   20.1764  -20.5815  -13.4184 C   0  0  0  0  0  0  0  0  0  0  0  0
   19.8148  -21.9717  -13.1300 C   0  0  0  0  0  0  0  0  0  0  0  0
   19.4420  -22.7399  -14.0404 O   0  0  0  0  0  0  0  0  0  0  0  0
   18.9438  -19.4010  -15.2208 C   0  0  0  0  0  0  0  0  0  0  0  0
   19.0645  -18.2177  -15.6440 O   0  0  0  0  0  0  0  0  0  0  0  0
   19.8826  -22.4512  -11.8398 O   0  0  0  0  0  0  0  0  0  0  0  0
   17.6422  -19.8673  -15.0815 O   0  0  0  0  0  0  0  0  0  0  0  0
  2  1  1  6
  2 10  1  0
  3  2  1  0
  3  4  1  0
  4  5  2  0
  4  9  1  0
  5  6  1  0
  6  7  2  0
  8  7  1  0
  9  8  2  0
 10 11  2  0
 12 10  1  0
 12 13  1  0
 13 20  1  0
 13 14  1  6
 14 15  1  0
 15 16  2  0
 16 17  1  0
 18 17  1  0
 19 15  1  0
 19 18  2  0
 20 21  2  0
 22 23  1  0
 22 20  1  0
 23 27  1  0
 23 24  1  1
 25 24  1  0
 25 29  1  0
 26 25  2  0
 27 28  2  0
 27 30  1  0
M  END
$$$$
