FHD.pdb
     RDKit          3D

 30 31  0  0  1  0  0  0  0  0999 V2000
   23.5513  -20.4399  -18.7329 N   0  0  0  0  0  0  0  0  0  0  0  0
   23.5780  -19.4450  -17.6598 C   0  0  1  0  0  0  0  0  0  0  0  0
   22.1898  -19.4240  -17.0673 C   0  0  0  0  0  0  0  0  0  0  0  0
   21.2900  -18.7794  -18.0593 C   0  0  0  0  0  0  0  0  0  0  0  0
   21.4300  -17.4626  -18.4396 C   0  0  0  0  0  0  0  0  0  0  0  0
   20.5690  -16.8924  -19.3707 C   0  0  0  0  0  0  0  0  0  0  0  0
   19.5479  -17.6257  -19.9435 C   0  0  0  0  0  0  0  0  0  0  0  0
   19.3984  -18.9415  -19.5715 C   0  0  0  0  0  0  0  0  0  0  0  0
   20.2556  -19.5003  -18.6478 C   0  0  0  0  0  0  0  0  0  0  0  0
   24.6023  -19.8822  -16.6897 C   0  0  0  0  0  0  0  0  0  0  0  0
   24.6322  -21.0627  -16.2091 O   0  0  0  0  0  0  0  0  0  0  0  0
   25.6388  -19.0505  -16.2015 N   0  0  0  0  0  0  0  0  0  0  0  0
   26.5661  -19.3966  -15.1758 C   0  0  1  0  0  0  0  0  0  0  0  0
   27.8647  -18.6861  -15.1915 C   0  0  0  0  0  0  0  0  0  0  0  0
   28.5847  -19.0746  -16.4423 C   0  0  0  0  0  0  0  0  0  0  0  0
   28.1784  -19.9941  -17.4017 C   0  0  0  0  0  0  0  0  0  0  0  0
   29.0690  -20.0834  -18.3802 N   0  0  0  0  0  0  0  0  0  0  0  0
   30.0619  -19.2305  -18.0765 C   0  0  0  0  0  0  0  0  0  0  0  0
   29.7674  -18.6169  -16.8975 N   0  0  0  0  0  0  0  0  0  0  0  0
   25.8634  -19.3834  -13.8781 C   0  0  0  0  0  0  0  0  0  0  0  0
   25.0267  -18.4833  -13.6057 O   0  0  0  0  0  0  0  0  0  0  0  0
   26.0761  -20.3742  -12.8516 N   0  0  0  0  0  0  0  0  0  0  0  0
   25.2323  -20.5055  -11.7070 C   0  0  1  0  0  0  0  0  0  0  0  0
   23.8036  -20.7202  -12.1579 C   0  0  0  0  0  0  0  0  0  0  0  0
   22.8730  -20.8897  -11.0390 C   0  0  0  0  0  0  0  0  0  0  0  0
   23.0684  -20.3138   -9.9490 O   0  0  0  0  0  0  0  0  0  0  0  0
   25.6845  -21.5099  -10.7437 C   0  0  0  0  0  0  0  0  0  0  0  0
   25.1492  -21.6597   -9.6103 O   0  0  0  0  0  0  0  0  0  0  0  0
   21.7623  -21.6935  -11.1781 O   0  0  0  0  0  0  0  0  0  0  0  0
   26.7428  -22.3625  -11.0339 O   0  0  0  0  0  0  0  0  0  0  0  0
  2  1  1  6
  2 10  1  0
  3  2  1  0
  3  4  1  0
  4  5  2  0
  4  9  1  0
  5  6  1  0
  6  7  2  0
  8  7  1  0
  9  8  2  0
 10 11  2  0
 12 10  1  0
 12 13  1  0
 13 20  1  0
 13 14  1  1
 14 15  1  0
 15 16  2  0
 16 17  1  0
 18 17  1  0
 19 15  1  0
 19 18  2  0
 20 21  2  0
 22 23  1  0
 22 20  1  0
 23 27  1  0
 23 24  1  6
 25 24  1  0
 25 29  1  0
 26 25  2  0
 27 28  2  0
 27 30  1  0
M  END
$$$$
