FHD.pdb
     RDKit          3D

 30 31  0  0  1  0  0  0  0  0999 V2000
   23.7430   -9.3794  -17.9018 N   0  0  0  0  0  0  0  0  0  0  0  0
   23.1816   -8.7315  -16.7156 C   0  0  1  0  0  0  0  0  0  0  0  0
   24.2989   -7.9180  -16.1088 C   0  0  0  0  0  0  0  0  0  0  0  0
   25.4041   -8.8546  -15.7760 C   0  0  0  0  0  0  0  0  0  0  0  0
   26.6266   -8.8119  -16.4097 C   0  0  0  0  0  0  0  0  0  0  0  0
   27.6378   -9.7047  -16.0726 C   0  0  0  0  0  0  0  0  0  0  0  0
   27.4501  -10.6613  -15.0935 C   0  0  0  0  0  0  0  0  0  0  0  0
   26.2336  -10.7135  -14.4538 C   0  0  0  0  0  0  0  0  0  0  0  0
   25.2355   -9.8252  -14.7932 C   0  0  0  0  0  0  0  0  0  0  0  0
   22.0538   -7.8943  -17.1726 C   0  0  0  0  0  0  0  0  0  0  0  0
   22.0594   -7.2895  -18.2949 O   0  0  0  0  0  0  0  0  0  0  0  0
   20.8708   -7.6803  -16.4250 N   0  0  0  0  0  0  0  0  0  0  0  0
   19.7210   -6.9697  -16.8775 C   0  0  1  0  0  0  0  0  0  0  0  0
   18.4370   -7.7060  -16.8535 C   0  0  0  0  0  0  0  0  0  0  0  0
   18.5174   -8.8008  -17.8678 C   0  0  0  0  0  0  0  0  0  0  0  0
   19.1277   -8.7554  -19.1154 C   0  0  0  0  0  0  0  0  0  0  0  0
   19.0039   -9.9152  -19.7464 N   0  0  0  0  0  0  0  0  0  0  0  0
   18.3165  -10.7284  -18.9268 C   0  0  0  0  0  0  0  0  0  0  0  0
   18.0204  -10.0504  -17.7839 N   0  0  0  0  0  0  0  0  0  0  0  0
   19.6941   -5.6472  -16.2231 C   0  0  0  0  0  0  0  0  0  0  0  0
   19.8468   -5.5391  -14.9784 O   0  0  0  0  0  0  0  0  0  0  0  0
   19.4964   -4.4118  -16.9410 N   0  0  0  0  0  0  0  0  0  0  0  0
   19.3768   -3.1441  -16.2943 C   0  0  1  0  0  0  0  0  0  0  0  0
   19.5362   -2.0407  -17.3179 C   0  0  0  0  0  0  0  0  0  0  0  0
   19.4410   -0.7016  -16.7309 C   0  0  0  0  0  0  0  0  0  0  0  0
   19.3319   -0.5482  -15.4970 O   0  0  0  0  0  0  0  0  0  0  0  0
   18.1683   -2.9996  -15.4820 C   0  0  0  0  0  0  0  0  0  0  0  0
   18.1583   -2.3973  -14.3726 O   0  0  0  0  0  0  0  0  0  0  0  0
   19.4709    0.4129  -17.5409 O   0  0  0  0  0  0  0  0  0  0  0  0
   16.9519   -3.5270  -15.8986 O   0  0  0  0  0  0  0  0  0  0  0  0
  2  1  1  6
  2 10  1  0
  3  2  1  0
  3  4  1  0
  4  5  2  0
  4  9  1  0
  5  6  1  0
  6  7  2  0
  8  7  1  0
  9  8  2  0
 10 11  2  0
 12 10  1  0
 12 13  1  0
 13 20  1  0
 13 14  1  1
 14 15  1  0
 15 16  2  0
 16 17  1  0
 18 17  1  0
 19 15  1  0
 19 18  2  0
 20 21  2  0
 22 23  1  0
 22 20  1  0
 23 27  1  0
 23 24  1  6
 25 24  1  0
 25 29  1  0
 26 25  2  0
 27 28  2  0
 27 30  1  0
M  END
$$$$
