FHD.pdb
     RDKit          3D

 30 31  0  0  1  0  0  0  0  0999 V2000
   24.8178  -10.9390  -17.5298 N   0  0  0  0  0  0  0  0  0  0  0  0
   24.6496  -10.5586  -16.1265 C   0  0  1  0  0  0  0  0  0  0  0  0
   25.9209   -9.8511  -15.7243 C   0  0  0  0  0  0  0  0  0  0  0  0
   27.0312  -10.8339  -15.8273 C   0  0  0  0  0  0  0  0  0  0  0  0
   28.1585  -10.6005  -16.5841 C   0  0  0  0  0  0  0  0  0  0  0  0
   29.1777  -11.5434  -16.6575 C   0  0  0  0  0  0  0  0  0  0  0  0
   29.0935  -12.7420  -15.9756 C   0  0  0  0  0  0  0  0  0  0  0  0
   27.9727  -12.9862  -15.2166 C   0  0  0  0  0  0  0  0  0  0  0  0
   26.9660  -12.0468  -15.1484 C   0  0  0  0  0  0  0  0  0  0  0  0
   23.4644   -9.6800  -16.0554 C   0  0  0  0  0  0  0  0  0  0  0  0
   23.0791   -8.9671  -17.0397 O   0  0  0  0  0  0  0  0  0  0  0  0
   22.6480   -9.5406  -14.9072 N   0  0  0  0  0  0  0  0  0  0  0  0
   21.4600   -8.7573  -14.8245 C   0  0  1  0  0  0  0  0  0  0  0  0
   20.3776   -9.2866  -13.9645 C   0  0  0  0  0  0  0  0  0  0  0  0
   19.7969  -10.4846  -14.6438 C   0  0  0  0  0  0  0  0  0  0  0  0
   20.1807  -11.0368  -15.8599 C   0  0  0  0  0  0  0  0  0  0  0  0
   19.4435  -12.0999  -16.1517 N   0  0  0  0  0  0  0  0  0  0  0  0
   18.5747  -12.2562  -15.1387 C   0  0  0  0  0  0  0  0  0  0  0  0
   18.7896  -11.2735  -14.2214 N   0  0  0  0  0  0  0  0  0  0  0  0
   21.8355   -7.3543  -14.5623 C   0  0  0  0  0  0  0  0  0  0  0  0
   22.9706   -7.0645  -14.1021 O   0  0  0  0  0  0  0  0  0  0  0  0
   20.9540   -6.2391  -14.8071 N   0  0  0  0  0  0  0  0  0  0  0  0
   21.3770   -4.8775  -14.7255 C   0  0  1  0  0  0  0  0  0  0  0  0
   22.5225   -4.6485  -15.6877 C   0  0  0  0  0  0  0  0  0  0  0  0
   22.9420   -3.2461  -15.7499 C   0  0  0  0  0  0  0  0  0  0  0  0
   23.8189   -2.8738  -16.5563 O   0  0  0  0  0  0  0  0  0  0  0  0
   20.2948   -3.9054  -14.8838 C   0  0  0  0  0  0  0  0  0  0  0  0
   20.1675   -2.8964  -14.1358 O   0  0  0  0  0  0  0  0  0  0  0  0
   22.3686   -2.3144  -14.9120 O   0  0  0  0  0  0  0  0  0  0  0  0
   19.3382   -4.0471  -15.8818 O   0  0  0  0  0  0  0  0  0  0  0  0
  2  1  1  6
  2 10  1  0
  3  2  1  0
  3  4  1  0
  4  5  2  0
  4  9  1  0
  5  6  1  0
  6  7  2  0
  8  7  1  0
  9  8  2  0
 10 11  2  0
 12 10  1  0
 12 13  1  0
 13 20  1  0
 13 14  1  1
 14 15  1  0
 15 16  2  0
 16 17  1  0
 18 17  1  0
 19 15  1  0
 19 18  2  0
 20 21  2  0
 22 23  1  0
 22 20  1  0
 23 27  1  0
 23 24  1  6
 25 24  1  0
 25 29  1  0
 26 25  2  0
 27 28  2  0
 27 30  1  0
M  END
$$$$
