FHD.pdb
     RDKit          3D

 30 31  0  0  1  0  0  0  0  0999 V2000
   27.2283  -18.9977   -9.1407 N   0  0  0  0  0  0  0  0  0  0  0  0
   26.8223  -20.3854   -9.3669 C   0  0  1  0  0  0  0  0  0  0  0  0
   26.2059  -20.8624   -8.0742 C   0  0  0  0  0  0  0  0  0  0  0  0
   27.1907  -20.6103   -6.9897 C   0  0  0  0  0  0  0  0  0  0  0  0
   28.4620  -21.1410   -7.0064 C   0  0  0  0  0  0  0  0  0  0  0  0
   29.3571  -20.8840   -5.9738 C   0  0  0  0  0  0  0  0  0  0  0  0
   29.0018  -20.0902   -4.9003 C   0  0  0  0  0  0  0  0  0  0  0  0
   27.7350  -19.5549   -4.8728 C   0  0  0  0  0  0  0  0  0  0  0  0
   26.8528  -19.8139   -5.9000 C   0  0  0  0  0  0  0  0  0  0  0  0
   25.8582  -20.3773  -10.4860 C   0  0  0  0  0  0  0  0  0  0  0  0
   24.7656  -19.7216  -10.4452 O   0  0  0  0  0  0  0  0  0  0  0  0
   26.0442  -21.0844  -11.6983 N   0  0  0  0  0  0  0  0  0  0  0  0
   25.3668  -20.8207  -12.9244 C   0  0  1  0  0  0  0  0  0  0  0  0
   26.0778  -21.1977  -14.1669 C   0  0  0  0  0  0  0  0  0  0  0  0
   25.2175  -20.8053  -15.3244 C   0  0  0  0  0  0  0  0  0  0  0  0
   23.9263  -20.2933  -15.2838 C   0  0  0  0  0  0  0  0  0  0  0  0
   23.4711  -20.0574  -16.5069 N   0  0  0  0  0  0  0  0  0  0  0  0
   24.4503  -20.4091  -17.3570 C   0  0  0  0  0  0  0  0  0  0  0  0
   25.5128  -20.8642  -16.6377 N   0  0  0  0  0  0  0  0  0  0  0  0
   23.9839  -21.3255  -12.8193 C   0  0  0  0  0  0  0  0  0  0  0  0
   23.7433  -22.4468  -12.3007 O   0  0  0  0  0  0  0  0  0  0  0  0
   22.8347  -20.5918  -13.2899 N   0  0  0  0  0  0  0  0  0  0  0  0
   21.5008  -21.0955  -13.2094 C   0  0  1  0  0  0  0  0  0  0  0  0
   20.7206  -20.2917  -12.1916 C   0  0  0  0  0  0  0  0  0  0  0  0
   19.7648  -21.1050  -11.4355 C   0  0  0  0  0  0  0  0  0  0  0  0
   19.6795  -22.3359  -11.6239 O   0  0  0  0  0  0  0  0  0  0  0  0
   20.8210  -21.1953  -14.5013 C   0  0  0  0  0  0  0  0  0  0  0  0
   20.3180  -22.2718  -14.9277 O   0  0  0  0  0  0  0  0  0  0  0  0
   18.9422  -20.5155  -10.5002 O   0  0  0  0  0  0  0  0  0  0  0  0
   20.6932  -20.0918  -15.3362 O   0  0  0  0  0  0  0  0  0  0  0  0
  2  1  1  1
  2 10  1  0
  3  2  1  0
  3  4  1  0
  4  5  2  0
  4  9  1  0
  5  6  1  0
  6  7  2  0
  8  7  1  0
  9  8  2  0
 10 11  2  0
 12 10  1  0
 12 13  1  0
 13 20  1  0
 13 14  1  6
 14 15  1  0
 15 16  2  0
 16 17  1  0
 18 17  1  0
 19 15  1  0
 19 18  2  0
 20 21  2  0
 22 23  1  0
 22 20  1  0
 23 27  1  0
 23 24  1  1
 25 24  1  0
 25 29  1  0
 26 25  2  0
 27 28  2  0
 27 30  1  0
M  END
$$$$
