FHD.pdb
     RDKit          3D

 30 31  0  0  1  0  0  0  0  0999 V2000
   22.7150  -10.1992  -18.7843 N   0  0  0  0  0  0  0  0  0  0  0  0
   21.8388   -9.0321  -18.8943 C   0  0  1  0  0  0  0  0  0  0  0  0
   20.8741   -9.3311  -20.0160 C   0  0  0  0  0  0  0  0  0  0  0  0
   21.6178   -9.1891  -21.2951 C   0  0  0  0  0  0  0  0  0  0  0  0
   22.0477  -10.2752  -22.0257 C   0  0  0  0  0  0  0  0  0  0  0  0
   22.7416  -10.1044  -23.2185 C   0  0  0  0  0  0  0  0  0  0  0  0
   23.0219   -8.8435  -23.7086 C   0  0  0  0  0  0  0  0  0  0  0  0
   22.5976   -7.7516  -22.9877 C   0  0  0  0  0  0  0  0  0  0  0  0
   21.9101   -7.9283  -21.8059 C   0  0  0  0  0  0  0  0  0  0  0  0
   21.1621   -8.8748  -17.5908 C   0  0  0  0  0  0  0  0  0  0  0  0
   20.6600   -9.8595  -16.9554 O   0  0  0  0  0  0  0  0  0  0  0  0
   21.0035   -7.6361  -16.9238 N   0  0  0  0  0  0  0  0  0  0  0  0
   20.2720   -7.4315  -15.7176 C   0  0  1  0  0  0  0  0  0  0  0  0
   21.0683   -7.1631  -14.4989 C   0  0  0  0  0  0  0  0  0  0  0  0
   21.8487   -8.3973  -14.1803 C   0  0  0  0  0  0  0  0  0  0  0  0
   21.4729   -9.4449  -13.3481 C   0  0  0  0  0  0  0  0  0  0  0  0
   22.4163  -10.3758  -13.3020 N   0  0  0  0  0  0  0  0  0  0  0  0
   23.4139   -9.9532  -14.0968 C   0  0  0  0  0  0  0  0  0  0  0  0
   23.0686   -8.7495  -14.6311 N   0  0  0  0  0  0  0  0  0  0  0  0
   19.1877   -6.4652  -15.9798 C   0  0  0  0  0  0  0  0  0  0  0  0
   19.4443   -5.2978  -16.3742 O   0  0  0  0  0  0  0  0  0  0  0  0
   17.7899   -6.7771  -15.8088 N   0  0  0  0  0  0  0  0  0  0  0  0
   16.8129   -5.8037  -15.4377 C   0  0  1  0  0  0  0  0  0  0  0  0
   15.8105   -6.4322  -14.4939 C   0  0  0  0  0  0  0  0  0  0  0  0
   14.8636   -7.3177  -15.1765 C   0  0  0  0  0  0  0  0  0  0  0  0
   15.1674   -7.8764  -16.2505 O   0  0  0  0  0  0  0  0  0  0  0  0
   17.3784   -4.5562  -14.9226 C   0  0  0  0  0  0  0  0  0  0  0  0
   18.0851   -4.5062  -13.8778 O   0  0  0  0  0  0  0  0  0  0  0  0
   13.6165   -7.5457  -14.6364 O   0  0  0  0  0  0  0  0  0  0  0  0
   17.1619   -3.3452  -15.5689 O   0  0  0  0  0  0  0  0  0  0  0  0
  2  1  1  1
  2 10  1  0
  3  2  1  0
  3  4  1  0
  4  5  2  0
  4  9  1  0
  5  6  1  0
  6  7  2  0
  8  7  1  0
  9  8  2  0
 10 11  2  0
 12 10  1  0
 12 13  1  0
 13 20  1  0
 13 14  1  1
 14 15  1  0
 15 16  2  0
 16 17  1  0
 18 17  1  0
 19 15  1  0
 19 18  2  0
 20 21  2  0
 22 23  1  0
 22 20  1  0
 23 27  1  0
 23 24  1  1
 25 24  1  0
 25 29  1  0
 26 25  2  0
 27 28  2  0
 27 30  1  0
M  END
$$$$
