MNW.pdb
     RDKit          3D

 31 32  0  0  1  0  0  0  0  0999 V2000
   26.5242  -15.7857  -17.4860 C   0  0  0  0  0  0  0  0  0  0  0  0
   27.8247  -16.5252  -18.4978 S   0  0  0  0  0  0  0  0  0  0  0  0
   28.6576  -17.8782  -17.6708 C   0  0  0  0  0  0  0  0  0  0  0  0
   27.6803  -18.6564  -16.8040 C   0  0  0  0  0  0  0  0  0  0  0  0
   28.4242  -19.7276  -15.9972 C   0  0  2  0  0  0  0  0  0  0  0  0
   28.8749  -20.7060  -16.9650 N   0  0  0  0  0  0  0  0  0  0  0  0
   27.4195  -20.3499  -15.0968 C   0  0  0  0  0  0  0  0  0  0  0  0
   26.7022  -21.3277  -15.4801 O   0  0  0  0  0  0  0  0  0  0  0  0
   25.6295  -22.6343  -10.3951 N   0  0  0  0  0  0  0  0  0  0  0  0
   25.6241  -21.2399  -10.6278 C   0  0  0  0  0  0  0  0  0  0  0  0
   24.6398  -20.6185  -10.0519 O   0  0  0  0  0  0  0  0  0  0  0  0
   26.5898  -20.4770  -11.4260 C   0  0  0  0  0  0  0  0  0  0  0  0
   26.2404  -20.5193  -12.8835 C   0  0  2  0  0  0  0  0  0  0  0  0
   27.2078  -19.8798  -13.7490 N   0  0  0  0  0  0  0  0  0  0  0  0
   24.8721  -19.9774  -13.0758 C   0  0  0  0  0  0  0  0  0  0  0  0
   24.4102  -19.0504  -12.3483 O   0  0  0  0  0  0  0  0  0  0  0  0
   23.9692  -20.4552  -14.0888 N   0  0  0  0  0  0  0  0  0  0  0  0
   22.6364  -19.9039  -14.2156 C   0  0  1  0  0  0  0  0  0  0  0  0
   22.7034  -18.4027  -14.5047 C   0  0  0  0  0  0  0  0  0  0  0  0
   23.4915  -18.1369  -15.7247 C   0  0  0  0  0  0  0  0  0  0  0  0
   23.3815  -18.6917  -16.9880 C   0  0  0  0  0  0  0  0  0  0  0  0
   24.3012  -18.1711  -17.8216 N   0  0  0  0  0  0  0  0  0  0  0  0
   25.0099  -17.2806  -17.1092 C   0  0  0  0  0  0  0  0  0  0  0  0
   26.0722  -16.4661  -17.4814 C   0  0  0  0  0  0  0  0  0  0  0  0
   26.6490  -15.6119  -16.5433 C   0  0  0  0  0  0  0  0  0  0  0  0
   26.1586  -15.5851  -15.2564 C   0  0  0  0  0  0  0  0  0  0  0  0
   25.0903  -16.4068  -14.8890 C   0  0  0  0  0  0  0  0  0  0  0  0
   24.5392  -17.2343  -15.8172 C   0  0  0  0  0  0  0  0  0  0  0  0
   21.8484  -20.5925  -15.2747 C   0  0  0  0  0  0  0  0  0  0  0  0
   20.4936  -20.3181  -15.4620 O   0  0  0  0  0  0  0  0  0  0  0  0
   22.3964  -21.4380  -16.0213 O   0  0  0  0  0  0  0  0  0  0  0  0
  2  1  1  0
  3  2  1  0
  4  5  1  0
  4  3  1  0
  5  6  1  6
  7  5  1  0
  8  7  2  0
  9 10  1  0
 10 12  1  0
 10 11  2  0
 13 12  1  1
 13 14  1  0
 14  7  1  0
 15 13  1  0
 15 16  2  0
 17 15  1  0
 18 17  1  0
 18 19  1  6
 20 19  1  0
 20 21  2  0
 22 21  1  0
 23 22  1  0
 24 23  2  0
 25 24  1  0
 26 25  2  0
 26 27  1  0
 27 28  2  0
 28 23  1  0
 28 20  1  0
 29 18  1  0
 30 29  1  0
 31 29  2  0
M  END
$$$$
