MNW.pdb
     RDKit          3D

 31 32  0  0  1  0  0  0  0  0999 V2000
   28.6938  -15.9085  -17.4673 C   0  0  0  0  0  0  0  0  0  0  0  0
   30.0669  -17.0677  -17.2862 S   0  0  0  0  0  0  0  0  0  0  0  0
   29.6938  -18.6890  -17.9497 C   0  0  0  0  0  0  0  0  0  0  0  0
   28.3062  -19.1361  -17.5176 C   0  0  0  0  0  0  0  0  0  0  0  0
   28.3427  -19.6595  -16.0767 C   0  0  2  0  0  0  0  0  0  0  0  0
   29.3298  -20.7189  -16.0683 N   0  0  0  0  0  0  0  0  0  0  0  0
   26.9998  -20.2332  -15.8030 C   0  0  0  0  0  0  0  0  0  0  0  0
   25.9494  -19.5188  -15.8635 O   0  0  0  0  0  0  0  0  0  0  0  0
   22.8853  -23.2347  -14.7228 N   0  0  0  0  0  0  0  0  0  0  0  0
   23.7869  -23.8321  -15.6331 C   0  0  0  0  0  0  0  0  0  0  0  0
   23.3103  -24.8859  -16.2240 O   0  0  0  0  0  0  0  0  0  0  0  0
   25.1471  -23.3823  -15.9480 C   0  0  0  0  0  0  0  0  0  0  0  0
   25.5036  -22.1512  -15.1699 C   0  0  2  0  0  0  0  0  0  0  0  0
   26.8196  -21.6227  -15.4571 N   0  0  0  0  0  0  0  0  0  0  0  0
   25.3085  -22.4124  -13.7220 C   0  0  0  0  0  0  0  0  0  0  0  0
   24.2007  -22.8092  -13.2561 O   0  0  0  0  0  0  0  0  0  0  0  0
   26.3465  -22.2369  -12.7415 N   0  0  0  0  0  0  0  0  0  0  0  0
   26.0351  -21.7771  -11.4044 C   0  0  1  0  0  0  0  0  0  0  0  0
   27.2121  -20.9924  -10.8206 C   0  0  0  0  0  0  0  0  0  0  0  0
   26.9180  -20.5510   -9.4427 C   0  0  0  0  0  0  0  0  0  0  0  0
   25.7025  -20.2668   -8.8447 C   0  0  0  0  0  0  0  0  0  0  0  0
   25.8750  -19.8923   -7.5633 N   0  0  0  0  0  0  0  0  0  0  0  0
   27.1954  -19.9307   -7.3227 C   0  0  0  0  0  0  0  0  0  0  0  0
   27.9123  -19.6406   -6.1685 C   0  0  0  0  0  0  0  0  0  0  0  0
   29.3010  -19.7583   -6.1703 C   0  0  0  0  0  0  0  0  0  0  0  0
   29.9475  -20.1613   -7.3179 C   0  0  0  0  0  0  0  0  0  0  0  0
   29.2205  -20.4513   -8.4750 C   0  0  0  0  0  0  0  0  0  0  0  0
   27.8657  -20.3312   -8.4555 C   0  0  0  0  0  0  0  0  0  0  0  0
   24.8022  -20.9430  -11.3764 C   0  0  0  0  0  0  0  0  0  0  0  0
   24.6642  -19.8280  -12.2031 O   0  0  0  0  0  0  0  0  0  0  0  0
   23.8601  -21.2332  -10.6011 O   0  0  0  0  0  0  0  0  0  0  0  0
  2  1  1  0
  3  2  1  0
  4  5  1  0
  4  3  1  0
  5  6  1  6
  7  5  1  0
  8  7  2  0
  9 10  1  0
 10 12  1  0
 10 11  2  0
 13 12  1  6
 13 14  1  0
 14  7  1  0
 15 13  1  0
 15 16  2  0
 17 15  1  0
 18 17  1  0
 18 19  1  6
 20 19  1  0
 20 21  2  0
 22 21  1  0
 23 22  1  0
 24 23  2  0
 25 24  1  0
 26 25  2  0
 26 27  1  0
 27 28  2  0
 28 23  1  0
 28 20  1  0
 29 18  1  0
 30 29  1  0
 31 29  2  0
M  END
$$$$
