MNW.pdb
     RDKit          3D

 31 32  0  0  1  0  0  0  0  0999 V2000
   20.2318  -17.7881  -15.0720 C   0  0  0  0  0  0  0  0  0  0  0  0
   21.3758  -16.5455  -15.7115 S   0  0  0  0  0  0  0  0  0  0  0  0
   22.6503  -17.2516  -16.7533 C   0  0  0  0  0  0  0  0  0  0  0  0
   23.1034  -18.5957  -16.2055 C   0  0  0  0  0  0  0  0  0  0  0  0
   23.9151  -18.3976  -14.9196 C   0  0  2  0  0  0  0  0  0  0  0  0
   25.0091  -17.5187  -15.2769 N   0  0  0  0  0  0  0  0  0  0  0  0
   24.4537  -19.7326  -14.5519 C   0  0  0  0  0  0  0  0  0  0  0  0
   23.6856  -20.7302  -14.3721 O   0  0  0  0  0  0  0  0  0  0  0  0
   28.6947  -20.5987  -16.7325 N   0  0  0  0  0  0  0  0  0  0  0  0
   27.8053  -21.4208  -16.0034 C   0  0  0  0  0  0  0  0  0  0  0  0
   26.9787  -22.0871  -16.7513 O   0  0  0  0  0  0  0  0  0  0  0  0
   27.7429  -21.5743  -14.5460 C   0  0  0  0  0  0  0  0  0  0  0  0
   26.3676  -21.2757  -14.0288 C   0  0  2  0  0  0  0  0  0  0  0  0
   25.8679  -19.9644  -14.3815 N   0  0  0  0  0  0  0  0  0  0  0  0
   26.3319  -21.5137  -12.5643 C   0  0  0  0  0  0  0  0  0  0  0  0
   26.5818  -22.6489  -12.0637 O   0  0  0  0  0  0  0  0  0  0  0  0
   26.0129  -20.4893  -11.6059 N   0  0  0  0  0  0  0  0  0  0  0  0
   25.8816  -20.8038  -10.1987 C   0  0  1  0  0  0  0  0  0  0  0  0
   27.0912  -20.2837   -9.4188 C   0  0  0  0  0  0  0  0  0  0  0  0
   26.8887  -20.4454   -7.9653 C   0  0  0  0  0  0  0  0  0  0  0  0
   25.8935  -21.1203   -7.2798 C   0  0  0  0  0  0  0  0  0  0  0  0
   26.0761  -21.0212   -5.9498 N   0  0  0  0  0  0  0  0  0  0  0  0
   27.1841  -20.2858   -5.7645 C   0  0  0  0  0  0  0  0  0  0  0  0
   27.8165  -19.8840   -4.5945 C   0  0  0  0  0  0  0  0  0  0  0  0
   28.9741  -19.1112   -4.6657 C   0  0  0  0  0  0  0  0  0  0  0  0
   29.4784  -18.7542   -5.8969 C   0  0  0  0  0  0  0  0  0  0  0  0
   28.8374  -19.1616   -7.0693 C   0  0  0  0  0  0  0  0  0  0  0  0
   27.7087  -19.9156   -6.9813 C   0  0  0  0  0  0  0  0  0  0  0  0
   24.6260  -20.2509   -9.6203 C   0  0  0  0  0  0  0  0  0  0  0  0
   24.0547  -20.8009   -8.4727 O   0  0  0  0  0  0  0  0  0  0  0  0
   24.0576  -19.2730  -10.1619 O   0  0  0  0  0  0  0  0  0  0  0  0
  2  1  1  0
  3  2  1  0
  4  5  1  0
  4  3  1  0
  5  6  1  6
  7  5  1  0
  8  7  2  0
  9 10  1  0
 10 12  1  0
 10 11  2  0
 13 12  1  1
 13 14  1  0
 14  7  1  0
 15 13  1  0
 15 16  2  0
 17 15  1  0
 18 17  1  0
 18 19  1  1
 20 19  1  0
 20 21  2  0
 22 21  1  0
 23 22  1  0
 24 23  2  0
 25 24  1  0
 26 25  2  0
 26 27  1  0
 27 28  2  0
 28 23  1  0
 28 20  1  0
 29 18  1  0
 30 29  1  0
 31 29  2  0
M  END
$$$$
