MNW.pdb
     RDKit          3D

 31 32  0  0  1  0  0  0  0  0999 V2000
   28.4986  -24.9818  -21.0681 C   0  0  0  0  0  0  0  0  0  0  0  0
   26.9866  -25.9062  -20.7200 S   0  0  0  0  0  0  0  0  0  0  0  0
   27.1823  -27.0669  -19.3699 C   0  0  0  0  0  0  0  0  0  0  0  0
   26.9205  -26.3839  -18.0369 C   0  0  0  0  0  0  0  0  0  0  0  0
   28.2424  -25.9326  -17.4039 C   0  0  2  0  0  0  0  0  0  0  0  0
   28.6452  -27.0105  -16.5247 N   0  0  0  0  0  0  0  0  0  0  0  0
   27.9315  -24.7256  -16.5954 C   0  0  0  0  0  0  0  0  0  0  0  0
   27.6285  -24.8136  -15.3633 O   0  0  0  0  0  0  0  0  0  0  0  0
   30.0646  -22.1241  -17.7879 N   0  0  0  0  0  0  0  0  0  0  0  0
   29.2330  -20.9886  -17.6550 C   0  0  0  0  0  0  0  0  0  0  0  0
   29.7273  -19.9141  -18.1913 O   0  0  0  0  0  0  0  0  0  0  0  0
   27.9249  -20.9283  -16.9941 C   0  0  0  0  0  0  0  0  0  0  0  0
   27.5686  -22.2479  -16.3778 C   0  0  2  0  0  0  0  0  0  0  0  0
   27.9579  -23.3991  -17.1632 N   0  0  0  0  0  0  0  0  0  0  0  0
   26.1221  -22.2595  -16.0455 C   0  0  0  0  0  0  0  0  0  0  0  0
   25.2358  -22.4900  -16.9190 O   0  0  0  0  0  0  0  0  0  0  0  0
   25.6143  -22.0110  -14.7226 N   0  0  0  0  0  0  0  0  0  0  0  0
   24.1902  -21.9156  -14.4795 C   0  0  1  0  0  0  0  0  0  0  0  0
   23.9023  -21.9187  -12.9766 C   0  0  0  0  0  0  0  0  0  0  0  0
   24.4014  -20.6818  -12.3431 C   0  0  0  0  0  0  0  0  0  0  0  0
   24.2526  -19.3633  -12.7371 C   0  0  0  0  0  0  0  0  0  0  0  0
   24.8683  -18.5333  -11.8746 N   0  0  0  0  0  0  0  0  0  0  0  0
   25.4174  -19.3028  -10.9212 C   0  0  0  0  0  0  0  0  0  0  0  0
   26.1613  -18.9585   -9.7994 C   0  0  0  0  0  0  0  0  0  0  0  0
   26.6280  -19.9575   -8.9470 C   0  0  0  0  0  0  0  0  0  0  0  0
   26.3461  -21.2764   -9.2272 C   0  0  0  0  0  0  0  0  0  0  0  0
   25.5978  -21.6156  -10.3570 C   0  0  0  0  0  0  0  0  0  0  0  0
   25.1501  -20.6278  -11.1780 C   0  0  0  0  0  0  0  0  0  0  0  0
   23.5986  -20.7031  -15.1094 C   0  0  0  0  0  0  0  0  0  0  0  0
   24.4017  -19.6477  -15.5419 O   0  0  0  0  0  0  0  0  0  0  0  0
   22.3572  -20.6118  -15.2618 O   0  0  0  0  0  0  0  0  0  0  0  0
  2  1  1  0
  3  2  1  0
  4  5  1  0
  4  3  1  0
  5  6  1  1
  7  5  1  0
  8  7  2  0
  9 10  1  0
 10 12  1  0
 10 11  2  0
 13 12  1  6
 13 14  1  0
 14  7  1  0
 15 13  1  0
 15 16  2  0
 17 15  1  0
 18 17  1  0
 18 19  1  1
 20 19  1  0
 20 21  2  0
 22 21  1  0
 23 22  1  0
 24 23  2  0
 25 24  1  0
 26 25  2  0
 26 27  1  0
 27 28  2  0
 28 23  1  0
 28 20  1  0
 29 18  1  0
 30 29  1  0
 31 29  2  0
M  END
$$$$
