MNW.pdb
     RDKit          3D

 31 32  0  0  1  0  0  0  0  0999 V2000
   25.7662  -17.1169  -21.2352 C   0  0  0  0  0  0  0  0  0  0  0  0
   24.2719  -16.1327  -20.9901 S   0  0  0  0  0  0  0  0  0  0  0  0
   24.6276  -14.4524  -20.4818 C   0  0  0  0  0  0  0  0  0  0  0  0
   23.3409  -13.6556  -20.3352 C   0  0  0  0  0  0  0  0  0  0  0  0
   22.8497  -13.7044  -18.8833 C   0  0  2  0  0  0  0  0  0  0  0  0
   22.4422  -15.0747  -18.6523 N   0  0  0  0  0  0  0  0  0  0  0  0
   21.6606  -12.8167  -18.8111 C   0  0  0  0  0  0  0  0  0  0  0  0
   20.8045  -12.7783  -19.7509 O   0  0  0  0  0  0  0  0  0  0  0  0
   16.8719  -10.6664  -18.5681 N   0  0  0  0  0  0  0  0  0  0  0  0
   17.7601  -11.1105  -17.5619 C   0  0  0  0  0  0  0  0  0  0  0  0
   17.4516  -10.6922  -16.3717 O   0  0  0  0  0  0  0  0  0  0  0  0
   18.9412  -11.9611  -17.7434 C   0  0  0  0  0  0  0  0  0  0  0  0
   20.2061  -11.1708  -17.5889 C   0  0  2  0  0  0  0  0  0  0  0  0
   21.4172  -11.9578  -17.6772 N   0  0  0  0  0  0  0  0  0  0  0  0
   20.1410  -10.3816  -16.3337 C   0  0  0  0  0  0  0  0  0  0  0  0
   20.4242  -10.8874  -15.2087 O   0  0  0  0  0  0  0  0  0  0  0  0
   19.7541   -8.9965  -16.2916 N   0  0  0  0  0  0  0  0  0  0  0  0
   20.4742   -8.0490  -15.4669 C   0  0  1  0  0  0  0  0  0  0  0  0
   21.9805   -8.1629  -15.7116 C   0  0  0  0  0  0  0  0  0  0  0  0
   22.6656   -6.9006  -15.3692 C   0  0  0  0  0  0  0  0  0  0  0  0
   22.4394   -6.0270  -14.3197 C   0  0  0  0  0  0  0  0  0  0  0  0
   23.2902   -4.9852  -14.3717 N   0  0  0  0  0  0  0  0  0  0  0  0
   24.0693   -5.1745  -15.4487 C   0  0  0  0  0  0  0  0  0  0  0  0
   25.1056   -4.4037  -15.9609 C   0  0  0  0  0  0  0  0  0  0  0  0
   25.7723   -4.8202  -17.1117 C   0  0  0  0  0  0  0  0  0  0  0  0
   25.3955   -5.9926  -17.7288 C   0  0  0  0  0  0  0  0  0  0  0  0
   24.3527   -6.7627  -17.2085 C   0  0  0  0  0  0  0  0  0  0  0  0
   23.7129   -6.3414  -16.0845 C   0  0  0  0  0  0  0  0  0  0  0  0
   20.0234   -6.6501  -15.7044 C   0  0  0  0  0  0  0  0  0  0  0  0
   20.2245   -6.0243  -16.9347 O   0  0  0  0  0  0  0  0  0  0  0  0
   19.4507   -6.0071  -14.7925 O   0  0  0  0  0  0  0  0  0  0  0  0
  2  1  1  0
  3  2  1  0
  4  5  1  0
  4  3  1  0
  5  6  1  6
  7  5  1  0
  8  7  2  0
  9 10  1  0
 10 12  1  0
 10 11  2  0
 13 12  1  1
 13 14  1  0
 14  7  1  0
 15 13  1  0
 15 16  2  0
 17 15  1  0
 18 17  1  0
 18 19  1  6
 20 19  1  0
 20 21  2  0
 22 21  1  0
 23 22  1  0
 24 23  2  0
 25 24  1  0
 26 25  2  0
 26 27  1  0
 27 28  2  0
 28 23  1  0
 28 20  1  0
 29 18  1  0
 30 29  1  0
 31 29  2  0
M  END
$$$$
