MNW.pdb
     RDKit          3D

 31 32  0  0  1  0  0  0  0  0999 V2000
   20.5802  -30.3561  -11.6728 C   0  0  0  0  0  0  0  0  0  0  0  0
   21.9505  -29.4854  -12.4639 S   0  0  0  0  0  0  0  0  0  0  0  0
   21.7924  -29.4246  -14.2471 C   0  0  0  0  0  0  0  0  0  0  0  0
   21.8441  -30.8257  -14.8354 C   0  0  0  0  0  0  0  0  0  0  0  0
   23.2832  -31.1838  -15.2259 C   0  0  2  0  0  0  0  0  0  0  0  0
   23.5200  -30.5299  -16.4961 N   0  0  0  0  0  0  0  0  0  0  0  0
   23.3138  -32.6571  -15.4155 C   0  0  0  0  0  0  0  0  0  0  0  0
   22.7730  -33.2061  -16.4273 O   0  0  0  0  0  0  0  0  0  0  0  0
   23.8671  -37.7657  -15.2811 N   0  0  0  0  0  0  0  0  0  0  0  0
   25.0788  -37.0457  -15.1717 C   0  0  0  0  0  0  0  0  0  0  0  0
   26.1358  -37.7653  -15.3988 O   0  0  0  0  0  0  0  0  0  0  0  0
   25.2316  -35.6253  -14.8392 C   0  0  0  0  0  0  0  0  0  0  0  0
   23.8982  -34.9720  -14.6299 C   0  0  2  0  0  0  0  0  0  0  0  0
   23.9554  -33.5354  -14.4671 N   0  0  0  0  0  0  0  0  0  0  0  0
   23.1982  -35.6364  -13.5024 C   0  0  0  0  0  0  0  0  0  0  0  0
   22.9417  -36.8757  -13.5099 O   0  0  0  0  0  0  0  0  0  0  0  0
   22.7574  -34.9367  -12.3251 N   0  0  0  0  0  0  0  0  0  0  0  0
   22.0979  -35.6413  -11.2458 C   0  0  1  0  0  0  0  0  0  0  0  0
   22.8298  -35.4007   -9.9236 C   0  0  0  0  0  0  0  0  0  0  0  0
   22.9237  -33.9568   -9.6298 C   0  0  0  0  0  0  0  0  0  0  0  0
   21.9291  -32.9951   -9.5896 C   0  0  0  0  0  0  0  0  0  0  0  0
   22.4412  -31.7888   -9.2824 N   0  0  0  0  0  0  0  0  0  0  0  0
   23.7634  -31.9585   -9.1223 C   0  0  0  0  0  0  0  0  0  0  0  0
   24.7592  -31.0444   -8.8011 C   0  0  0  0  0  0  0  0  0  0  0  0
   26.0807  -31.4733   -8.6909 C   0  0  0  0  0  0  0  0  0  0  0  0
   26.3845  -32.8001   -8.9023 C   0  0  0  0  0  0  0  0  0  0  0  0
   25.3784  -33.7138   -9.2251 C   0  0  0  0  0  0  0  0  0  0  0  0
   24.0940  -33.2780   -9.3283 C   0  0  0  0  0  0  0  0  0  0  0  0
   20.6681  -35.2470  -11.1162 C   0  0  0  0  0  0  0  0  0  0  0  0
   20.1657  -34.1225  -11.7710 O   0  0  0  0  0  0  0  0  0  0  0  0
   19.8865  -35.9266  -10.4090 O   0  0  0  0  0  0  0  0  0  0  0  0
  2  1  1  0
  3  2  1  0
  4  5  1  0
  4  3  1  0
  5  6  1  6
  7  5  1  0
  8  7  2  0
  9 10  1  0
 10 12  1  0
 10 11  2  0
 13 12  1  1
 13 14  1  0
 14  7  1  0
 15 13  1  0
 15 16  2  0
 17 15  1  0
 18 17  1  0
 18 19  1  1
 20 19  1  0
 20 21  2  0
 22 21  1  0
 23 22  1  0
 24 23  2  0
 25 24  1  0
 26 25  2  0
 26 27  1  0
 27 28  2  0
 28 23  1  0
 28 20  1  0
 29 18  1  0
 30 29  1  0
 31 29  2  0
M  END
$$$$
