MNW.pdb
     RDKit          3D

 31 32  0  0  1  0  0  0  0  0999 V2000
   29.9937  -29.1333  -18.7434 C   0  0  0  0  0  0  0  0  0  0  0  0
   31.3181  -29.5336  -17.5828 S   0  0  0  0  0  0  0  0  0  0  0  0
   31.7545  -31.2707  -17.6056 C   0  0  0  0  0  0  0  0  0  0  0  0
   30.5527  -32.1277  -17.2409 C   0  0  0  0  0  0  0  0  0  0  0  0
   30.6854  -32.6423  -15.8024 C   0  0  2  0  0  0  0  0  0  0  0  0
   31.6360  -33.7331  -15.8615 N   0  0  0  0  0  0  0  0  0  0  0  0
   29.3506  -33.1704  -15.4194 C   0  0  0  0  0  0  0  0  0  0  0  0
   28.8718  -34.2167  -15.9612 O   0  0  0  0  0  0  0  0  0  0  0  0
   28.5986  -34.8190  -12.2928 N   0  0  0  0  0  0  0  0  0  0  0  0
   27.6962  -33.8384  -11.8209 C   0  0  0  0  0  0  0  0  0  0  0  0
   27.6332  -33.7673  -10.5257 O   0  0  0  0  0  0  0  0  0  0  0  0
   26.8676  -32.9412  -12.6333 C   0  0  0  0  0  0  0  0  0  0  0  0
   27.2235  -33.0432  -14.0862 C   0  0  2  0  0  0  0  0  0  0  0  0
   28.5339  -32.5272  -14.4183 N   0  0  0  0  0  0  0  0  0  0  0  0
   26.1518  -32.4159  -14.8990 C   0  0  0  0  0  0  0  0  0  0  0  0
   26.3324  -31.3289  -15.5216 O   0  0  0  0  0  0  0  0  0  0  0  0
   24.8369  -32.9816  -15.0429 N   0  0  0  0  0  0  0  0  0  0  0  0
   23.8484  -32.3557  -15.8958 C   0  0  1  0  0  0  0  0  0  0  0  0
   24.3795  -32.2267  -17.3252 C   0  0  0  0  0  0  0  0  0  0  0  0
   23.3920  -31.5564  -18.1944 C   0  0  0  0  0  0  0  0  0  0  0  0
   23.2662  -30.2178  -18.5229 C   0  0  0  0  0  0  0  0  0  0  0  0
   22.2222  -30.0235  -19.3501 N   0  0  0  0  0  0  0  0  0  0  0  0
   21.6668  -31.2273  -19.5625 C   0  0  0  0  0  0  0  0  0  0  0  0
   20.5695  -31.5930  -20.3323 C   0  0  0  0  0  0  0  0  0  0  0  0
   20.1835  -32.9307  -20.3928 C   0  0  0  0  0  0  0  0  0  0  0  0
   20.8950  -33.8761  -19.6875 C   0  0  0  0  0  0  0  0  0  0  0  0
   21.9972  -33.5015  -18.9153 C   0  0  0  0  0  0  0  0  0  0  0  0
   22.3602  -32.1915  -18.8678 C   0  0  0  0  0  0  0  0  0  0  0  0
   22.5608  -33.1033  -15.8959 C   0  0  0  0  0  0  0  0  0  0  0  0
   21.3383  -32.4382  -15.8019 O   0  0  0  0  0  0  0  0  0  0  0  0
   22.5563  -34.3545  -15.9809 O   0  0  0  0  0  0  0  0  0  0  0  0
  2  1  1  0
  3  2  1  0
  4  5  1  0
  4  3  1  0
  5  6  1  6
  7  5  1  0
  8  7  2  0
  9 10  1  0
 10 12  1  0
 10 11  2  0
 13 12  1  1
 13 14  1  0
 14  7  1  0
 15 13  1  0
 15 16  2  0
 17 15  1  0
 18 17  1  0
 18 19  1  6
 20 19  1  0
 20 21  2  0
 22 21  1  0
 23 22  1  0
 24 23  2  0
 25 24  1  0
 26 25  2  0
 26 27  1  0
 27 28  2  0
 28 23  1  0
 28 20  1  0
 29 18  1  0
 30 29  1  0
 31 29  2  0
M  END
$$$$
