MNW.pdb
     RDKit          3D

 31 32  0  0  1  0  0  0  0  0999 V2000
   31.3775  -14.5314  -18.6651 C   0  0  0  0  0  0  0  0  0  0  0  0
   30.2426  -15.6656  -17.8361 S   0  0  0  0  0  0  0  0  0  0  0  0
   29.2600  -16.6234  -18.9874 C   0  0  0  0  0  0  0  0  0  0  0  0
   28.2767  -17.5105  -18.2404 C   0  0  0  0  0  0  0  0  0  0  0  0
   29.0249  -18.4256  -17.2633 C   0  0  2  0  0  0  0  0  0  0  0  0
   30.0882  -19.0368  -18.0332 N   0  0  0  0  0  0  0  0  0  0  0  0
   28.0573  -19.4708  -16.8406 C   0  0  0  0  0  0  0  0  0  0  0  0
   26.8974  -19.1671  -16.4165 O   0  0  0  0  0  0  0  0  0  0  0  0
   29.0727  -23.9526  -18.9618 N   0  0  0  0  0  0  0  0  0  0  0  0
   27.9653  -23.3859  -18.2903 C   0  0  0  0  0  0  0  0  0  0  0  0
   27.0489  -22.9286  -19.0889 O   0  0  0  0  0  0  0  0  0  0  0  0
   27.7769  -23.2773  -16.8397 C   0  0  0  0  0  0  0  0  0  0  0  0
   27.4335  -21.8729  -16.4422 C   0  0  2  0  0  0  0  0  0  0  0  0
   28.3821  -20.8761  -16.8898 N   0  0  0  0  0  0  0  0  0  0  0  0
   27.2135  -21.8182  -14.9755 C   0  0  0  0  0  0  0  0  0  0  0  0
   28.1476  -22.0341  -14.1493 O   0  0  0  0  0  0  0  0  0  0  0  0
   25.9382  -21.5217  -14.3793 N   0  0  0  0  0  0  0  0  0  0  0  0
   25.7789  -21.4965  -12.9404 C   0  0  1  0  0  0  0  0  0  0  0  0
   26.7737  -20.5201  -12.3088 C   0  0  0  0  0  0  0  0  0  0  0  0
   26.5682  -20.4308  -10.8494 C   0  0  0  0  0  0  0  0  0  0  0  0
   25.4736  -19.9743  -10.1359 C   0  0  0  0  0  0  0  0  0  0  0  0
   25.6954  -20.0607   -8.8110 N   0  0  0  0  0  0  0  0  0  0  0  0
   26.9280  -20.5704   -8.6569 C   0  0  0  0  0  0  0  0  0  0  0  0
   27.6470  -20.8632   -7.5047 C   0  0  0  0  0  0  0  0  0  0  0  0
   28.9309  -21.3953   -7.6085 C   0  0  0  0  0  0  0  0  0  0  0  0
   29.4728  -21.6250   -8.8539 C   0  0  0  0  0  0  0  0  0  0  0  0
   28.7443  -21.3282  -10.0083 C   0  0  0  0  0  0  0  0  0  0  0  0
   27.4926  -20.8095   -9.8886 C   0  0  0  0  0  0  0  0  0  0  0  0
   24.3899  -21.1387  -12.5410 C   0  0  0  0  0  0  0  0  0  0  0  0
   23.8264  -21.6306  -11.3636 O   0  0  0  0  0  0  0  0  0  0  0  0
   23.6990  -20.3826  -13.2647 O   0  0  0  0  0  0  0  0  0  0  0  0
  2  1  1  0
  3  2  1  0
  4  5  1  0
  4  3  1  0
  5  6  1  6
  7  5  1  0
  8  7  2  0
  9 10  1  0
 10 12  1  0
 10 11  2  0
 13 12  1  1
 13 14  1  0
 14  7  1  0
 15 13  1  0
 15 16  2  0
 17 15  1  0
 18 17  1  0
 18 19  1  1
 20 19  1  0
 20 21  2  0
 22 21  1  0
 23 22  1  0
 24 23  2  0
 25 24  1  0
 26 25  2  0
 26 27  1  0
 27 28  2  0
 28 23  1  0
 28 20  1  0
 29 18  1  0
 30 29  1  0
 31 29  2  0
M  END
$$$$
