MNW.pdb
     RDKit          3D

 31 32  0  0  1  0  0  0  0  0999 V2000
   28.4161  -14.9759  -17.4744 C   0  0  0  0  0  0  0  0  0  0  0  0
   29.3145  -16.4565  -17.9866 S   0  0  0  0  0  0  0  0  0  0  0  0
   29.7048  -17.5372  -16.6126 C   0  0  0  0  0  0  0  0  0  0  0  0
   28.5083  -18.4072  -16.2613 C   0  0  0  0  0  0  0  0  0  0  0  0
   28.3451  -19.5270  -17.2962 C   0  0  2  0  0  0  0  0  0  0  0  0
   27.9533  -18.8712  -18.5264 N   0  0  0  0  0  0  0  0  0  0  0  0
   27.2303  -20.3842  -16.8167 C   0  0  0  0  0  0  0  0  0  0  0  0
   26.0157  -20.0458  -16.9833 O   0  0  0  0  0  0  0  0  0  0  0  0
   26.0661  -23.3572  -18.2394 N   0  0  0  0  0  0  0  0  0  0  0  0
   26.3665  -24.2246  -17.1643 C   0  0  0  0  0  0  0  0  0  0  0  0
   26.5686  -25.4551  -17.5273 O   0  0  0  0  0  0  0  0  0  0  0  0
   26.4631  -23.8666  -15.7451 C   0  0  0  0  0  0  0  0  0  0  0  0
   26.3744  -22.3821  -15.5542 C   0  0  2  0  0  0  0  0  0  0  0  0
   27.4673  -21.6375  -16.1417 N   0  0  0  0  0  0  0  0  0  0  0  0
   26.2045  -22.0825  -14.1106 C   0  0  0  0  0  0  0  0  0  0  0  0
   27.1483  -22.2292  -13.2802 O   0  0  0  0  0  0  0  0  0  0  0  0
   24.9702  -21.6093  -13.5428 N   0  0  0  0  0  0  0  0  0  0  0  0
   24.8572  -21.3501  -12.1228 C   0  0  1  0  0  0  0  0  0  0  0  0
   26.2268  -21.0123  -11.5297 C   0  0  0  0  0  0  0  0  0  0  0  0
   26.1090  -20.6630  -10.1000 C   0  0  0  0  0  0  0  0  0  0  0  0
   24.9777  -20.4726   -9.3256 C   0  0  0  0  0  0  0  0  0  0  0  0
   25.3109  -20.1617   -8.0590 N   0  0  0  0  0  0  0  0  0  0  0  0
   26.6524  -20.1482   -8.0034 C   0  0  0  0  0  0  0  0  0  0  0  0
   27.5100  -19.8874   -6.9419 C   0  0  0  0  0  0  0  0  0  0  0  0
   28.8886  -19.9363   -7.1400 C   0  0  0  0  0  0  0  0  0  0  0  0
   29.3855  -20.2427   -8.3877 C   0  0  0  0  0  0  0  0  0  0  0  0
   28.5175  -20.5037   -9.4506 C   0  0  0  0  0  0  0  0  0  0  0  0
   27.1748  -20.4518   -9.2394 C   0  0  0  0  0  0  0  0  0  0  0  0
   23.8917  -20.2544  -11.8327 C   0  0  0  0  0  0  0  0  0  0  0  0
   23.0289  -20.3214  -10.7388 O   0  0  0  0  0  0  0  0  0  0  0  0
   23.8393  -19.2452  -12.5753 O   0  0  0  0  0  0  0  0  0  0  0  0
  2  1  1  0
  3  2  1  0
  4  5  1  0
  4  3  1  0
  5  6  1  6
  7  5  1  0
  8  7  2  0
  9 10  1  0
 10 12  1  0
 10 11  2  0
 13 12  1  1
 13 14  1  0
 14  7  1  0
 15 13  1  0
 15 16  2  0
 17 15  1  0
 18 17  1  0
 18 19  1  6
 20 19  1  0
 20 21  2  0
 22 21  1  0
 23 22  1  0
 24 23  2  0
 25 24  1  0
 26 25  2  0
 26 27  1  0
 27 28  2  0
 28 23  1  0
 28 20  1  0
 29 18  1  0
 30 29  1  0
 31 29  2  0
M  END
$$$$
