TIV.pdb
     RDKit          3D

 23 22  0  0  1  0  0  0  0  0999 V2000
    7.7717  -17.4115   19.6782 C   0  0  0  0  0  0  0  0  0  0  0  0
    8.2434  -16.8698   20.9901 C   0  0  1  0  0  0  0  0  0  0  0  0
    9.5426  -17.3144   21.1909 O   0  0  0  0  0  0  0  0  0  0  0  0
    8.1164  -15.3844   21.0651 C   0  0  2  0  0  0  0  0  0  0  0  0
    8.8274  -14.7519   19.9649 N   0  0  0  0  0  0  0  0  0  0  0  0
    8.5480  -14.8136   22.3506 C   0  0  0  0  0  0  0  0  0  0  0  0
    9.6765  -14.2856   22.4242 O   0  0  0  0  0  0  0  0  0  0  0  0
    5.6318  -11.6081   26.0424 C   0  0  0  0  0  0  0  0  0  0  0  0
    6.8629  -12.1863   25.3930 C   0  0  0  0  0  0  0  0  0  0  0  0
    6.8219  -13.7210   25.3497 C   0  0  2  0  0  0  0  0  0  0  0  0
    6.6432  -14.1546   26.7770 C   0  0  0  0  0  0  0  0  0  0  0  0
    8.0984  -14.1526   24.7069 C   0  0  2  0  0  0  0  0  0  0  0  0
    7.7067  -14.8611   23.4804 N   0  0  0  0  0  0  0  0  0  0  0  0
    8.9422  -15.0552   25.5010 C   0  0  0  0  0  0  0  0  0  0  0  0
    8.9959  -16.2776   25.1333 O   0  0  0  0  0  0  0  0  0  0  0  0
   10.5204  -14.1432   29.3451 C   0  0  0  0  0  0  0  0  0  0  0  0
   11.3753  -14.8969   28.3781 C   0  0  1  0  0  0  0  0  0  0  0  0
   12.1944  -15.9756   29.0633 C   0  0  0  0  0  0  0  0  0  0  0  0
   10.5738  -15.5915   27.2953 C   0  0  2  0  0  0  0  0  0  0  0  0
    9.6806  -14.6427   26.6251 N   0  0  0  0  0  0  0  0  0  0  0  0
    9.7729  -16.7232   27.8256 C   0  0  0  0  0  0  0  0  0  0  0  0
   10.2748  -18.0133   27.9167 O   0  0  0  0  0  0  0  0  0  0  0  0
    8.5724  -16.5656   28.2277 O   0  0  0  0  0  0  0  0  0  0  0  0
  2  3  1  0
  2  1  1  6
  4  2  1  0
  4  5  1  6
  6  4  1  0
  6 13  1  0
  7  6  2  0
  8  9  1  0
 10 11  1  1
 10 12  1  0
 10  9  1  0
 12 13  1  6
 14 12  1  0
 15 14  2  0
 17 16  1  1
 18 17  1  0
 19 20  1  1
 19 17  1  0
 20 14  1  0
 21 19  1  0
 22 21  1  0
 23 21  2  0
M  END
$$$$
