TIV.pdb
     RDKit          3D

 23 22  0  0  1  0  0  0  0  0999 V2000
    6.7756  -17.0556   21.7438 C   0  0  0  0  0  0  0  0  0  0  0  0
    7.4718  -16.0966   20.8312 C   0  0  1  0  0  0  0  0  0  0  0  0
    6.9644  -16.2821   19.5529 O   0  0  0  0  0  0  0  0  0  0  0  0
    7.3601  -14.6855   21.3048 C   0  0  2  0  0  0  0  0  0  0  0  0
    7.7800  -13.7598   20.2643 N   0  0  0  0  0  0  0  0  0  0  0  0
    8.0883  -14.4171   22.5548 C   0  0  0  0  0  0  0  0  0  0  0  0
    9.3211  -14.2291   22.5027 O   0  0  0  0  0  0  0  0  0  0  0  0
    6.1200  -11.3290   26.2757 C   0  0  0  0  0  0  0  0  0  0  0  0
    7.0808  -12.1340   25.4389 C   0  0  0  0  0  0  0  0  0  0  0  0
    7.2833  -13.5495   25.9994 C   0  0  2  0  0  0  0  0  0  0  0  0
    7.8483  -13.3544   27.3778 C   0  0  0  0  0  0  0  0  0  0  0  0
    8.1807  -14.2532   25.0359 C   0  0  2  0  0  0  0  0  0  0  0  0
    7.4108  -14.3733   23.7899 N   0  0  0  0  0  0  0  0  0  0  0  0
    8.6147  -15.5997   25.4311 C   0  0  0  0  0  0  0  0  0  0  0  0
    7.7137  -16.5017   25.5150 O   0  0  0  0  0  0  0  0  0  0  0  0
   12.0706  -19.0783   25.7133 C   0  0  0  0  0  0  0  0  0  0  0  0
   11.5921  -17.7152   25.3301 C   0  0  1  0  0  0  0  0  0  0  0  0
   11.3295  -17.6024   23.8393 C   0  0  0  0  0  0  0  0  0  0  0  0
   10.3018  -17.3240   26.0224 C   0  0  2  0  0  0  0  0  0  0  0  0
    9.9513  -15.9349   25.7142 N   0  0  0  0  0  0  0  0  0  0  0  0
   10.3795  -17.4914   27.4952 C   0  0  0  0  0  0  0  0  0  0  0  0
   10.5194  -16.4166   28.3612 O   0  0  0  0  0  0  0  0  0  0  0  0
   10.3209  -18.6417   28.0440 O   0  0  0  0  0  0  0  0  0  0  0  0
  2  3  1  0
  2  1  1  1
  4  2  1  0
  4  5  1  6
  6  4  1  0
  6 13  1  0
  7  6  2  0
  8  9  1  0
 10 11  1  1
 10 12  1  0
 10  9  1  0
 12 13  1  6
 14 12  1  0
 15 14  2  0
 17 16  1  6
 18 17  1  0
 19 20  1  1
 19 17  1  0
 20 14  1  0
 21 19  1  0
 22 21  1  0
 23 21  2  0
M  END
$$$$
