TIV.pdb
     RDKit          3D

 23 22  0  0  1  0  0  0  0  0999 V2000
    6.4368  -17.1880   19.8127 C   0  0  0  0  0  0  0  0  0  0  0  0
    7.1188  -16.7459   21.0684 C   0  0  1  0  0  0  0  0  0  0  0  0
    8.1686  -17.6202   21.3121 O   0  0  0  0  0  0  0  0  0  0  0  0
    7.5506  -15.3185   21.0029 C   0  0  2  0  0  0  0  0  0  0  0  0
    8.3664  -15.0825   19.8219 N   0  0  0  0  0  0  0  0  0  0  0  0
    8.2488  -14.8513   22.2107 C   0  0  0  0  0  0  0  0  0  0  0  0
    9.4951  -14.7844   22.1955 O   0  0  0  0  0  0  0  0  0  0  0  0
    7.3609  -11.6324   27.3179 C   0  0  0  0  0  0  0  0  0  0  0  0
    8.1319  -12.6610   26.5312 C   0  0  0  0  0  0  0  0  0  0  0  0
    7.3451  -13.1571   25.3091 C   0  0  2  0  0  0  0  0  0  0  0  0
    6.0981  -13.7833   25.8661 C   0  0  0  0  0  0  0  0  0  0  0  0
    8.2553  -14.0886   24.5792 C   0  0  2  0  0  0  0  0  0  0  0  0
    7.5281  -14.4862   23.3655 N   0  0  0  0  0  0  0  0  0  0  0  0
    8.6337  -15.3107   25.3006 C   0  0  0  0  0  0  0  0  0  0  0  0
    7.7526  -16.2315   25.3904 O   0  0  0  0  0  0  0  0  0  0  0  0
   12.0910  -18.5435   26.4857 C   0  0  0  0  0  0  0  0  0  0  0  0
   11.6104  -17.2643   25.8801 C   0  0  1  0  0  0  0  0  0  0  0  0
   11.4712  -17.3655   24.3719 C   0  0  0  0  0  0  0  0  0  0  0  0
   10.2565  -16.8316   26.4064 C   0  0  2  0  0  0  0  0  0  0  0  0
    9.8980  -15.5102   25.8844 N   0  0  0  0  0  0  0  0  0  0  0  0
   10.2133  -16.7976   27.8897 C   0  0  0  0  0  0  0  0  0  0  0  0
   10.0231  -17.9382   28.6562 O   0  0  0  0  0  0  0  0  0  0  0  0
   10.3500  -15.7088   28.5405 O   0  0  0  0  0  0  0  0  0  0  0  0
  2  3  1  0
  2  1  1  6
  4  2  1  0
  4  5  1  6
  6  4  1  0
  6 13  1  0
  7  6  2  0
  8  9  1  0
 10 11  1  1
 10 12  1  0
 10  9  1  0
 12 13  1  6
 14 12  1  0
 15 14  2  0
 17 16  1  1
 18 17  1  0
 19 20  1  6
 19 17  1  0
 20 14  1  0
 21 19  1  0
 22 21  1  0
 23 21  2  0
M  END
$$$$
