TIV.pdb
     RDKit          3D

 23 22  0  0  1  0  0  0  0  0999 V2000
    6.5584  -17.5757   20.3581 C   0  0  0  0  0  0  0  0  0  0  0  0
    7.2324  -16.9950   21.5605 C   0  0  1  0  0  0  0  0  0  0  0  0
    8.3445  -17.7759   21.8427 O   0  0  0  0  0  0  0  0  0  0  0  0
    7.5638  -15.5509   21.3787 C   0  0  2  0  0  0  0  0  0  0  0  0
    8.3427  -15.3514   20.1665 N   0  0  0  0  0  0  0  0  0  0  0  0
    8.2469  -14.9465   22.5330 C   0  0  0  0  0  0  0  0  0  0  0  0
    9.4782  -14.7528   22.4678 O   0  0  0  0  0  0  0  0  0  0  0  0
    7.2827  -11.4262   27.3975 C   0  0  0  0  0  0  0  0  0  0  0  0
    8.1056  -12.4484   26.6563 C   0  0  0  0  0  0  0  0  0  0  0  0
    7.3189  -13.0938   25.5059 C   0  0  2  0  0  0  0  0  0  0  0  0
    6.1018  -13.6987   26.1464 C   0  0  0  0  0  0  0  0  0  0  0  0
    8.2498  -14.0661   24.8603 C   0  0  2  0  0  0  0  0  0  0  0  0
    7.5288  -14.5924   23.6928 N   0  0  0  0  0  0  0  0  0  0  0  0
    8.6612  -15.2064   25.6897 C   0  0  0  0  0  0  0  0  0  0  0  0
    7.7791  -16.0975   25.9351 O   0  0  0  0  0  0  0  0  0  0  0  0
   11.4801  -17.4758   24.8128 C   0  0  0  0  0  0  0  0  0  0  0  0
   11.6053  -17.1737   26.2712 C   0  0  1  0  0  0  0  0  0  0  0  0
   12.6935  -16.1527   26.5497 C   0  0  0  0  0  0  0  0  0  0  0  0
   10.3308  -16.6149   26.8720 C   0  0  2  0  0  0  0  0  0  0  0  0
    9.9574  -15.3597   26.2145 N   0  0  0  0  0  0  0  0  0  0  0  0
   10.4514  -16.3824   28.3330 C   0  0  0  0  0  0  0  0  0  0  0  0
   10.5754  -17.4204   29.2451 O   0  0  0  0  0  0  0  0  0  0  0  0
   10.4472  -15.2067   28.8283 O   0  0  0  0  0  0  0  0  0  0  0  0
  2  3  1  0
  2  1  1  6
  4  2  1  0
  4  5  1  6
  6  4  1  0
  6 13  1  0
  7  6  2  0
  8  9  1  0
 10 11  1  1
 10 12  1  0
 10  9  1  0
 12 13  1  6
 14 12  1  0
 15 14  2  0
 17 16  1  6
 18 17  1  0
 19 20  1  6
 19 17  1  0
 20 14  1  0
 21 19  1  0
 22 21  1  0
 23 21  2  0
M  END
$$$$
