TIV.pdb
     RDKit          3D

 23 22  0  0  1  0  0  0  0  0999 V2000
    8.1665  -18.2337   22.4862 C   0  0  0  0  0  0  0  0  0  0  0  0
    8.7735  -17.5099   21.3265 C   0  0  1  0  0  0  0  0  0  0  0  0
    8.3548  -18.1427   20.1645 O   0  0  0  0  0  0  0  0  0  0  0  0
    8.4567  -16.0513   21.3439 C   0  0  2  0  0  0  0  0  0  0  0  0
    8.9646  -15.4012   20.1459 N   0  0  0  0  0  0  0  0  0  0  0  0
    8.9326  -15.3526   22.5480 C   0  0  0  0  0  0  0  0  0  0  0  0
   10.1510  -15.1040   22.6555 O   0  0  0  0  0  0  0  0  0  0  0  0
    6.9560  -11.7550   27.0749 C   0  0  0  0  0  0  0  0  0  0  0  0
    7.9597  -12.7284   26.5123 C   0  0  0  0  0  0  0  0  0  0  0  0
    7.4410  -13.4176   25.2416 C   0  0  2  0  0  0  0  0  0  0  0  0
    6.1800  -14.1209   25.6571 C   0  0  0  0  0  0  0  0  0  0  0  0
    8.5434  -14.3085   24.7728 C   0  0  2  0  0  0  0  0  0  0  0  0
    8.0334  -14.9702   23.5637 N   0  0  0  0  0  0  0  0  0  0  0  0
    8.9679  -15.3524   25.7149 C   0  0  0  0  0  0  0  0  0  0  0  0
    8.1495  -16.3090   25.9331 O   0  0  0  0  0  0  0  0  0  0  0  0
   12.5849  -18.0271   27.6223 C   0  0  0  0  0  0  0  0  0  0  0  0
   12.0554  -16.9096   26.7827 C   0  0  1  0  0  0  0  0  0  0  0  0
   12.0491  -17.2608   25.3059 C   0  0  0  0  0  0  0  0  0  0  0  0
   10.6326  -16.5253   27.1369 C   0  0  2  0  0  0  0  0  0  0  0  0
   10.2108  -15.3476   26.3738 N   0  0  0  0  0  0  0  0  0  0  0  0
   10.4673  -16.2514   28.5864 C   0  0  0  0  0  0  0  0  0  0  0  0
   10.3439  -17.2637   29.5268 O   0  0  0  0  0  0  0  0  0  0  0  0
   10.4300  -15.0613   29.0446 O   0  0  0  0  0  0  0  0  0  0  0  0
  2  3  1  0
  2  1  1  1
  4  2  1  0
  4  5  1  6
  6  4  1  0
  6 13  1  0
  7  6  2  0
  8  9  1  0
 10 11  1  1
 10 12  1  0
 10  9  1  0
 12 13  1  6
 14 12  1  0
 15 14  2  0
 17 16  1  1
 18 17  1  0
 19 20  1  6
 19 17  1  0
 20 14  1  0
 21 19  1  0
 22 21  1  0
 23 21  2  0
M  END
$$$$
