TIV.pdb
     RDKit          3D

 23 22  0  0  1  0  0  0  0  0999 V2000
    6.0225  -16.5952   19.5568 C   0  0  0  0  0  0  0  0  0  0  0  0
    6.7609  -16.3553   20.8352 C   0  0  1  0  0  0  0  0  0  0  0  0
    7.6702  -17.3905   21.0013 O   0  0  0  0  0  0  0  0  0  0  0  0
    7.3986  -15.0062   20.8733 C   0  0  2  0  0  0  0  0  0  0  0  0
    8.2622  -14.8135   19.7187 N   0  0  0  0  0  0  0  0  0  0  0  0
    8.1350  -14.7301   22.1167 C   0  0  0  0  0  0  0  0  0  0  0  0
    9.3814  -14.7946   22.1030 O   0  0  0  0  0  0  0  0  0  0  0  0
    7.4785  -11.6246   27.3166 C   0  0  0  0  0  0  0  0  0  0  0  0
    8.1824  -12.6783   26.5006 C   0  0  0  0  0  0  0  0  0  0  0  0
    7.3688  -13.0842   25.2628 C   0  0  2  0  0  0  0  0  0  0  0  0
    6.0774  -13.6343   25.7984 C   0  0  0  0  0  0  0  0  0  0  0  0
    8.2143  -14.0585   24.5113 C   0  0  2  0  0  0  0  0  0  0  0  0
    7.4500  -14.3998   23.3033 N   0  0  0  0  0  0  0  0  0  0  0  0
    8.5304  -15.3084   25.2149 C   0  0  0  0  0  0  0  0  0  0  0  0
    7.5873  -16.1610   25.3414 O   0  0  0  0  0  0  0  0  0  0  0  0
   11.7839  -18.8058   26.1788 C   0  0  0  0  0  0  0  0  0  0  0  0
   11.3751  -17.4788   25.6257 C   0  0  1  0  0  0  0  0  0  0  0  0
   11.1538  -17.5314   24.1248 C   0  0  0  0  0  0  0  0  0  0  0  0
   10.0869  -16.9566   26.2299 C   0  0  2  0  0  0  0  0  0  0  0  0
    9.7999  -15.6043   25.7440 N   0  0  0  0  0  0  0  0  0  0  0  0
   10.1253  -16.9432   27.7136 C   0  0  0  0  0  0  0  0  0  0  0  0
    9.9158  -18.0838   28.4749 O   0  0  0  0  0  0  0  0  0  0  0  0
   10.3550  -15.8732   28.3695 O   0  0  0  0  0  0  0  0  0  0  0  0
  2  3  1  0
  2  1  1  6
  4  2  1  0
  4  5  1  6
  6  4  1  0
  6 13  1  0
  7  6  2  0
  8  9  1  0
 10 11  1  1
 10 12  1  0
 10  9  1  0
 12 13  1  6
 14 12  1  0
 15 14  2  0
 17 16  1  1
 18 17  1  0
 19 20  1  6
 19 17  1  0
 20 14  1  0
 21 19  1  0
 22 21  1  0
 23 21  2  0
M  END
$$$$
