TIV.pdb
     RDKit          3D

 23 22  0  0  1  0  0  0  0  0999 V2000
   12.3892  -19.8832   20.5190 C   0  0  0  0  0  0  0  0  0  0  0  0
   11.9507  -18.8512   21.5088 C   0  0  1  0  0  0  0  0  0  0  0  0
   12.9475  -18.7307   22.4669 O   0  0  0  0  0  0  0  0  0  0  0  0
   11.6084  -17.5532   20.8558 C   0  0  2  0  0  0  0  0  0  0  0  0
   12.7323  -17.0584   20.0763 N   0  0  0  0  0  0  0  0  0  0  0  0
   11.1393  -16.5204   21.7927 C   0  0  0  0  0  0  0  0  0  0  0  0
   11.9079  -15.5814   22.0849 O   0  0  0  0  0  0  0  0  0  0  0  0
    6.6404  -14.2921   20.8611 C   0  0  0  0  0  0  0  0  0  0  0  0
    8.0134  -14.5330   21.4341 C   0  0  0  0  0  0  0  0  0  0  0  0
    7.9513  -15.2494   22.7912 C   0  0  2  0  0  0  0  0  0  0  0  0
    7.1682  -14.3338   23.6889 C   0  0  0  0  0  0  0  0  0  0  0  0
    9.3672  -15.4866   23.2008 C   0  0  2  0  0  0  0  0  0  0  0  0
    9.8478  -16.5867   22.3531 N   0  0  0  0  0  0  0  0  0  0  0  0
    9.5723  -15.8730   24.6029 C   0  0  0  0  0  0  0  0  0  0  0  0
    9.9222  -17.0808   24.8298 O   0  0  0  0  0  0  0  0  0  0  0  0
   10.2241  -14.5584   29.3629 C   0  0  0  0  0  0  0  0  0  0  0  0
    9.6737  -14.2513   28.0077 C   0  0  1  0  0  0  0  0  0  0  0  0
   10.3360  -13.0347   27.3866 C   0  0  0  0  0  0  0  0  0  0  0  0
    9.8574  -15.3880   27.0222 C   0  0  2  0  0  0  0  0  0  0  0  0
    9.4059  -14.9908   25.6859 N   0  0  0  0  0  0  0  0  0  0  0  0
    9.1326  -16.6154   27.4363 C   0  0  0  0  0  0  0  0  0  0  0  0
    9.7294  -17.6141   28.1920 O   0  0  0  0  0  0  0  0  0  0  0  0
    7.9141  -16.8159   27.1157 O   0  0  0  0  0  0  0  0  0  0  0  0
  2  3  1  0
  2  1  1  6
  4  2  1  0
  4  5  1  1
  6  4  1  0
  6 13  1  0
  7  6  2  0
  8  9  1  0
 10 11  1  1
 10 12  1  0
 10  9  1  0
 12 13  1  6
 14 12  1  0
 15 14  2  0
 17 16  1  1
 18 17  1  0
 19 20  1  6
 19 17  1  0
 20 14  1  0
 21 19  1  0
 22 21  1  0
 23 21  2  0
M  END
$$$$
