TIV.pdb
     RDKit          3D

 23 22  0  0  1  0  0  0  0  0999 V2000
    6.0248  -16.5721   20.0240 C   0  0  0  0  0  0  0  0  0  0  0  0
    6.8184  -16.3582   21.2736 C   0  0  1  0  0  0  0  0  0  0  0  0
    7.8527  -17.2835   21.2836 O   0  0  0  0  0  0  0  0  0  0  0  0
    7.2938  -14.9493   21.4053 C   0  0  2  0  0  0  0  0  0  0  0  0
    8.0908  -14.5662   20.2503 N   0  0  0  0  0  0  0  0  0  0  0  0
    8.0327  -14.6837   22.6495 C   0  0  0  0  0  0  0  0  0  0  0  0
    9.2771  -14.5998   22.6024 O   0  0  0  0  0  0  0  0  0  0  0  0
    5.9791  -11.2894   26.0334 C   0  0  0  0  0  0  0  0  0  0  0  0
    6.9551  -12.1549   25.2786 C   0  0  0  0  0  0  0  0  0  0  0  0
    7.2069  -13.4919   25.9913 C   0  0  2  0  0  0  0  0  0  0  0  0
    7.7769  -13.1266   27.3325 C   0  0  0  0  0  0  0  0  0  0  0  0
    8.1179  -14.2715   25.1019 C   0  0  2  0  0  0  0  0  0  0  0  0
    7.3523  -14.5274   23.8739 N   0  0  0  0  0  0  0  0  0  0  0  0
    8.5747  -15.5645   25.6280 C   0  0  0  0  0  0  0  0  0  0  0  0
    7.6811  -16.4469   25.8635 O   0  0  0  0  0  0  0  0  0  0  0  0
   11.4224  -17.7451   24.1508 C   0  0  0  0  0  0  0  0  0  0  0  0
   11.5588  -17.6818   25.6378 C   0  0  1  0  0  0  0  0  0  0  0  0
   12.6591  -16.7287   26.0684 C   0  0  0  0  0  0  0  0  0  0  0  0
   10.2936  -17.2146   26.3294 C   0  0  2  0  0  0  0  0  0  0  0  0
    9.9249  -15.8701   25.8780 N   0  0  0  0  0  0  0  0  0  0  0  0
   10.4275  -17.2124   27.8077 C   0  0  0  0  0  0  0  0  0  0  0  0
   10.4590  -18.3809   28.5548 O   0  0  0  0  0  0  0  0  0  0  0  0
   10.5212  -16.1270   28.4716 O   0  0  0  0  0  0  0  0  0  0  0  0
  2  3  1  0
  2  1  1  6
  4  2  1  0
  4  5  1  6
  6  4  1  0
  6 13  1  0
  7  6  2  0
  8  9  1  0
 10 11  1  1
 10 12  1  0
 10  9  1  0
 12 13  1  6
 14 12  1  0
 15 14  2  0
 17 16  1  6
 18 17  1  0
 19 20  1  6
 19 17  1  0
 20 14  1  0
 21 19  1  0
 22 21  1  0
 23 21  2  0
M  END
$$$$
