TIV.pdb
     RDKit          3D

 23 22  0  0  1  0  0  0  0  0999 V2000
    7.7809  -18.0522   20.3238 C   0  0  0  0  0  0  0  0  0  0  0  0
    8.2258  -17.4217   21.6050 C   0  0  1  0  0  0  0  0  0  0  0  0
    9.3139  -18.1420   22.0776 O   0  0  0  0  0  0  0  0  0  0  0  0
    8.5135  -15.9656   21.4467 C   0  0  2  0  0  0  0  0  0  0  0  0
    9.5035  -15.7482   20.4034 N   0  0  0  0  0  0  0  0  0  0  0  0
    8.9265  -15.3010   22.6926 C   0  0  0  0  0  0  0  0  0  0  0  0
   10.1381  -15.0599   22.8712 O   0  0  0  0  0  0  0  0  0  0  0  0
    6.6950  -11.6785   27.0577 C   0  0  0  0  0  0  0  0  0  0  0  0
    7.7620  -12.6010   26.5267 C   0  0  0  0  0  0  0  0  0  0  0  0
    7.2561  -13.4452   25.3477 C   0  0  2  0  0  0  0  0  0  0  0  0
    6.0875  -14.2208   25.8864 C   0  0  0  0  0  0  0  0  0  0  0  0
    8.4169  -14.2700   24.8992 C   0  0  2  0  0  0  0  0  0  0  0  0
    7.9756  -14.9426   23.6693 N   0  0  0  0  0  0  0  0  0  0  0  0
    8.8716  -15.3015   25.8408 C   0  0  0  0  0  0  0  0  0  0  0  0
    8.1555  -16.3548   25.9425 O   0  0  0  0  0  0  0  0  0  0  0  0
   12.5848  -16.4952   25.8321 C   0  0  0  0  0  0  0  0  0  0  0  0
   12.0780  -16.3967   27.2348 C   0  0  1  0  0  0  0  0  0  0  0  0
   12.5742  -15.1432   27.9326 C   0  0  0  0  0  0  0  0  0  0  0  0
   10.5650  -16.3612   27.3169 C   0  0  2  0  0  0  0  0  0  0  0  0
   10.0376  -15.1855   26.6193 N   0  0  0  0  0  0  0  0  0  0  0  0
   10.0768  -16.3556   28.7186 C   0  0  0  0  0  0  0  0  0  0  0  0
    9.4967  -15.2382   29.3013 O   0  0  0  0  0  0  0  0  0  0  0  0
   10.1666  -17.3866   29.4648 O   0  0  0  0  0  0  0  0  0  0  0  0
  2  3  1  0
  2  1  1  6
  4  2  1  0
  4  5  1  6
  6  4  1  0
  6 13  1  0
  7  6  2  0
  8  9  1  0
 10 11  1  1
 10 12  1  0
 10  9  1  0
 12 13  1  6
 14 12  1  0
 15 14  2  0
 17 16  1  6
 18 17  1  0
 19 20  1  1
 19 17  1  0
 20 14  1  0
 21 19  1  0
 22 21  1  0
 23 21  2  0
M  END
$$$$
