TIV.pdb
     RDKit          3D

 23 22  0  0  1  0  0  0  0  0999 V2000
    6.0172  -16.8309   20.4478 C   0  0  0  0  0  0  0  0  0  0  0  0
    6.9107  -16.5981   21.6245 C   0  0  1  0  0  0  0  0  0  0  0  0
    7.9787  -17.4791   21.5278 O   0  0  0  0  0  0  0  0  0  0  0  0
    7.3379  -15.1721   21.7346 C   0  0  2  0  0  0  0  0  0  0  0  0
    8.0394  -14.7519   20.5315 N   0  0  0  0  0  0  0  0  0  0  0  0
    8.1480  -14.8833   22.9283 C   0  0  0  0  0  0  0  0  0  0  0  0
    9.3875  -14.8008   22.8070 O   0  0  0  0  0  0  0  0  0  0  0  0
    6.1644  -11.3941   26.1664 C   0  0  0  0  0  0  0  0  0  0  0  0
    7.1513  -12.2692   25.4372 C   0  0  0  0  0  0  0  0  0  0  0  0
    7.4986  -13.5331   26.2377 C   0  0  2  0  0  0  0  0  0  0  0  0
    8.1507  -13.0391   27.4979 C   0  0  0  0  0  0  0  0  0  0  0  0
    8.3694  -14.3602   25.3509 C   0  0  2  0  0  0  0  0  0  0  0  0
    7.5402  -14.7038   24.1872 N   0  0  0  0  0  0  0  0  0  0  0  0
    8.8723  -15.6113   25.9332 C   0  0  0  0  0  0  0  0  0  0  0  0
    8.0089  -16.5057   26.2283 O   0  0  0  0  0  0  0  0  0  0  0  0
   12.0620  -17.6019   24.6580 C   0  0  0  0  0  0  0  0  0  0  0  0
   12.0160  -17.5491   26.1510 C   0  0  1  0  0  0  0  0  0  0  0  0
   12.9927  -16.5331   26.7150 C   0  0  0  0  0  0  0  0  0  0  0  0
   10.6498  -17.1731   26.6887 C   0  0  2  0  0  0  0  0  0  0  0  0
   10.2348  -15.8651   26.1746 N   0  0  0  0  0  0  0  0  0  0  0  0
   10.6161  -17.1463   28.1724 C   0  0  0  0  0  0  0  0  0  0  0  0
   10.6427  -18.3020   28.9395 O   0  0  0  0  0  0  0  0  0  0  0  0
   10.5604  -16.0503   28.8230 O   0  0  0  0  0  0  0  0  0  0  0  0
  2  3  1  0
  2  1  1  6
  4  2  1  0
  4  5  1  6
  6  4  1  0
  6 13  1  0
  7  6  2  0
  8  9  1  0
 10 11  1  1
 10 12  1  0
 10  9  1  0
 12 13  1  6
 14 12  1  0
 15 14  2  0
 17 16  1  6
 18 17  1  0
 19 20  1  6
 19 17  1  0
 20 14  1  0
 21 19  1  0
 22 21  1  0
 23 21  2  0
M  END
$$$$
