TIV.pdb
     RDKit          3D

 23 22  0  0  1  0  0  0  0  0999 V2000
    8.1793  -18.2000   20.1349 C   0  0  0  0  0  0  0  0  0  0  0  0
    8.5117  -17.5006   21.4146 C   0  0  1  0  0  0  0  0  0  0  0  0
    9.6492  -18.0963   21.9412 O   0  0  0  0  0  0  0  0  0  0  0  0
    8.6565  -16.0264   21.2303 C   0  0  2  0  0  0  0  0  0  0  0  0
    9.6565  -15.7315   20.2161 N   0  0  0  0  0  0  0  0  0  0  0  0
    8.9550  -15.2972   22.4728 C   0  0  0  0  0  0  0  0  0  0  0  0
   10.1246  -14.9120   22.6764 O   0  0  0  0  0  0  0  0  0  0  0  0
    6.1458  -11.8287   26.6119 C   0  0  0  0  0  0  0  0  0  0  0  0
    7.3454  -12.6109   26.1423 C   0  0  0  0  0  0  0  0  0  0  0  0
    6.9798  -13.6155   25.0396 C   0  0  2  0  0  0  0  0  0  0  0  0
    5.9660  -14.5349   25.6592 C   0  0  0  0  0  0  0  0  0  0  0  0
    8.2600  -14.2631   24.6266 C   0  0  2  0  0  0  0  0  0  0  0  0
    7.9428  -15.0373   23.4184 N   0  0  0  0  0  0  0  0  0  0  0  0
    8.8597  -15.1786   25.6061 C   0  0  0  0  0  0  0  0  0  0  0  0
    8.5447  -16.4138   25.5190 O   0  0  0  0  0  0  0  0  0  0  0  0
   12.6106  -14.4315   27.3644 C   0  0  0  0  0  0  0  0  0  0  0  0
   11.5809  -15.1133   28.2063 C   0  0  1  0  0  0  0  0  0  0  0  0
   10.8894  -14.1485   29.1525 C   0  0  0  0  0  0  0  0  0  0  0  0
   10.4861  -15.7686   27.3883 C   0  0  2  0  0  0  0  0  0  0  0  0
    9.7490  -14.7657   26.6149 N   0  0  0  0  0  0  0  0  0  0  0  0
    9.5319  -16.5308   28.2321 C   0  0  0  0  0  0  0  0  0  0  0  0
    9.8195  -17.7946   28.7267 O   0  0  0  0  0  0  0  0  0  0  0  0
    8.3896  -16.0585   28.5479 O   0  0  0  0  0  0  0  0  0  0  0  0
  2  3  1  0
  2  1  1  6
  4  2  1  0
  4  5  1  6
  6  4  1  0
  6 13  1  0
  7  6  2  0
  8  9  1  0
 10 11  1  1
 10 12  1  0
 10  9  1  0
 12 13  1  6
 14 12  1  0
 15 14  2  0
 17 16  1  6
 18 17  1  0
 19 20  1  1
 19 17  1  0
 20 14  1  0
 21 19  1  0
 22 21  1  0
 23 21  2  0
M  END
$$$$
