TIV.pdb
     RDKit          3D

 23 22  0  0  1  0  0  0  0  0999 V2000
    6.5584  -17.3990   19.9820 C   0  0  0  0  0  0  0  0  0  0  0  0
    7.2296  -16.9705   21.2480 C   0  0  1  0  0  0  0  0  0  0  0  0
    8.2071  -17.9085   21.5492 O   0  0  0  0  0  0  0  0  0  0  0  0
    7.7626  -15.5790   21.1605 C   0  0  2  0  0  0  0  0  0  0  0  0
    8.6549  -15.4417   20.0199 N   0  0  0  0  0  0  0  0  0  0  0  0
    8.4261  -15.1167   22.3895 C   0  0  0  0  0  0  0  0  0  0  0  0
    9.6722  -15.0495   22.4101 O   0  0  0  0  0  0  0  0  0  0  0  0
    7.4494  -11.7420   27.3563 C   0  0  0  0  0  0  0  0  0  0  0  0
    8.2310  -12.7989   26.6191 C   0  0  0  0  0  0  0  0  0  0  0  0
    7.4756  -13.3159   25.3858 C   0  0  2  0  0  0  0  0  0  0  0  0
    6.1702  -13.8427   25.9109 C   0  0  0  0  0  0  0  0  0  0  0  0
    8.3646  -14.3331   24.7505 C   0  0  2  0  0  0  0  0  0  0  0  0
    7.6727  -14.7565   23.5250 N   0  0  0  0  0  0  0  0  0  0  0  0
    8.6404  -15.5328   25.5518 C   0  0  0  0  0  0  0  0  0  0  0  0
    7.6558  -16.3092   25.7972 O   0  0  0  0  0  0  0  0  0  0  0  0
   10.9255  -18.1761   24.5225 C   0  0  0  0  0  0  0  0  0  0  0  0
   11.2332  -17.9248   25.9634 C   0  0  1  0  0  0  0  0  0  0  0  0
   12.5027  -17.1117   26.1410 C   0  0  0  0  0  0  0  0  0  0  0  0
   10.1348  -17.1648   26.6799 C   0  0  2  0  0  0  0  0  0  0  0  0
    9.9146  -15.8601   26.0502 N   0  0  0  0  0  0  0  0  0  0  0  0
   10.4342  -16.9662   28.1201 C   0  0  0  0  0  0  0  0  0  0  0  0
   10.4529  -18.0143   29.0288 O   0  0  0  0  0  0  0  0  0  0  0  0
   10.6917  -15.8122   28.5993 O   0  0  0  0  0  0  0  0  0  0  0  0
  2  3  1  0
  2  1  1  6
  4  2  1  0
  4  5  1  6
  6  4  1  0
  6 13  1  0
  7  6  2  0
  8  9  1  0
 10 11  1  1
 10 12  1  0
 10  9  1  0
 12 13  1  6
 14 12  1  0
 15 14  2  0
 17 16  1  6
 18 17  1  0
 19 20  1  6
 19 17  1  0
 20 14  1  0
 21 19  1  0
 22 21  1  0
 23 21  2  0
M  END
$$$$
