ATD.pdb
     RDKit          3D

 21 20  0  0  1  0  0  0  0  0999 V2000
    8.2263  -15.8009   16.5453 C   0  0  0  0  0  0  0  0  0  0  0  0
    7.9377  -14.4724   17.1567 C   0  0  2  0  0  0  0  0  0  0  0  0
    8.4574  -13.3505   16.4472 N   0  0  0  0  0  0  0  0  0  0  0  0
    8.4770  -14.4196   18.5527 C   0  0  0  0  0  0  0  0  0  0  0  0
    9.6465  -13.9656   18.7050 O   0  0  0  0  0  0  0  0  0  0  0  0
    7.7250  -14.8295   23.4659 C   0  0  0  0  0  0  0  0  0  0  0  0
    7.1927  -14.8836   22.0568 C   0  0  1  0  0  0  0  0  0  0  0  0
    6.3192  -13.8032   21.9088 O   0  0  0  0  0  0  0  0  0  0  0  0
    8.2671  -14.8345   21.0177 C   0  0  2  0  0  0  0  0  0  0  0  0
    7.7367  -14.8513   19.6767 N   0  0  0  0  0  0  0  0  0  0  0  0
    9.1224  -16.0568   21.2195 C   0  0  0  0  0  0  0  0  0  0  0  0
    8.8954  -17.0979   20.5377 O   0  0  0  0  0  0  0  0  0  0  0  0
   10.1720  -16.0808   22.1459 N   0  0  0  0  0  0  0  0  0  0  0  0
   10.7982  -17.3604   22.4794 C   0  0  1  0  0  0  0  0  0  0  0  0
   11.7217  -17.7127   21.3473 C   0  0  0  0  0  0  0  0  0  0  0  0
   12.8065  -16.7280   21.2700 C   0  0  0  0  0  0  0  0  0  0  0  0
   12.8604  -15.7727   22.0555 O   0  0  0  0  0  0  0  0  0  0  0  0
   11.4692  -17.2626   23.7941 C   0  0  0  0  0  0  0  0  0  0  0  0
   11.9913  -18.4202   24.4055 O   0  0  0  0  0  0  0  0  0  0  0  0
   13.7889  -16.8929   20.2796 O   0  0  0  0  0  0  0  0  0  0  0  0
   11.6197  -16.2005   24.4359 O   0  0  0  0  0  0  0  0  0  0  0  0
  2  1  1  6
  3  2  1  0
  4 10  1  0
  4  2  1  0
  5  4  2  0
  7  9  1  0
  7  6  1  1
  8  7  1  0
  9 11  1  0
  9 10  1  6
 11 13  1  0
 12 11  2  0
 13 14  1  0
 14 18  1  0
 14 15  1  6
 16 15  1  0
 16 20  1  0
 17 16  2  0
 18 19  1  0
 21 18  2  0
M  END
$$$$
