ATD.pdb
     RDKit          3D

 21 20  0  0  1  0  0  0  0  0999 V2000
    8.3617  -16.8511   16.2148 C   0  0  0  0  0  0  0  0  0  0  0  0
    8.3248  -15.3846   16.4801 C   0  0  2  0  0  0  0  0  0  0  0  0
    8.9601  -14.5723   15.4959 N   0  0  0  0  0  0  0  0  0  0  0  0
    8.9623  -15.0840   17.8013 C   0  0  0  0  0  0  0  0  0  0  0  0
   10.2059  -14.8594   17.8065 O   0  0  0  0  0  0  0  0  0  0  0  0
    7.3264  -12.7803   20.8115 C   0  0  0  0  0  0  0  0  0  0  0  0
    7.8534  -14.1253   21.2417 C   0  0  1  0  0  0  0  0  0  0  0  0
    6.7492  -14.9692   21.3856 O   0  0  0  0  0  0  0  0  0  0  0  0
    8.8370  -14.7095   20.2785 C   0  0  2  0  0  0  0  0  0  0  0  0
    8.2341  -15.0449   19.0120 N   0  0  0  0  0  0  0  0  0  0  0  0
    9.3715  -15.9659   20.9123 C   0  0  0  0  0  0  0  0  0  0  0  0
    9.2276  -17.0746   20.3204 O   0  0  0  0  0  0  0  0  0  0  0  0
   10.0297  -15.9491   22.1481 N   0  0  0  0  0  0  0  0  0  0  0  0
   10.7729  -17.1348   22.5750 C   0  0  1  0  0  0  0  0  0  0  0  0
   11.8695  -17.3583   21.5718 C   0  0  0  0  0  0  0  0  0  0  0  0
   12.7173  -18.4738   22.0070 C   0  0  0  0  0  0  0  0  0  0  0  0
   12.3137  -19.2974   22.8384 O   0  0  0  0  0  0  0  0  0  0  0  0
   11.2550  -16.9521   23.9615 C   0  0  0  0  0  0  0  0  0  0  0  0
   11.5740  -15.6622   24.4313 O   0  0  0  0  0  0  0  0  0  0  0  0
   14.0047  -18.5883   21.4570 O   0  0  0  0  0  0  0  0  0  0  0  0
   11.4102  -17.8788   24.7860 O   0  0  0  0  0  0  0  0  0  0  0  0
  2  1  1  6
  3  2  1  0
  4 10  1  0
  4  2  1  0
  5  4  2  0
  7  9  1  0
  7  6  1  6
  8  7  1  0
  9 11  1  0
  9 10  1  6
 11 13  1  0
 12 11  2  0
 13 14  1  0
 14 18  1  0
 14 15  1  6
 16 15  1  0
 16 20  1  0
 17 16  2  0
 18 19  1  0
 21 18  2  0
M  END
$$$$
