ATD.pdb
     RDKit          3D

 21 20  0  0  1  0  0  0  0  0999 V2000
    7.9143  -12.1557   19.8380 C   0  0  0  0  0  0  0  0  0  0  0  0
    8.3733  -12.7468   18.5488 C   0  0  2  0  0  0  0  0  0  0  0  0
    7.3355  -13.0956   17.6359 N   0  0  0  0  0  0  0  0  0  0  0  0
    9.1869  -13.9772   18.8070 C   0  0  0  0  0  0  0  0  0  0  0  0
    8.6653  -15.0893   18.5101 O   0  0  0  0  0  0  0  0  0  0  0  0
   13.4358  -16.1264   18.4457 C   0  0  0  0  0  0  0  0  0  0  0  0
   12.4138  -15.0247   18.3289 C   0  0  1  0  0  0  0  0  0  0  0  0
   11.8348  -15.1378   17.0624 O   0  0  0  0  0  0  0  0  0  0  0  0
   11.3632  -15.0791   19.3918 C   0  0  2  0  0  0  0  0  0  0  0  0
   10.4874  -13.9337   19.3588 N   0  0  0  0  0  0  0  0  0  0  0  0
   12.0836  -15.1045   20.7134 C   0  0  0  0  0  0  0  0  0  0  0  0
   12.7068  -14.0757   21.1054 O   0  0  0  0  0  0  0  0  0  0  0  0
   12.0874  -16.2401   21.5325 N   0  0  0  0  0  0  0  0  0  0  0  0
   12.7919  -16.1914   22.8138 C   0  0  1  0  0  0  0  0  0  0  0  0
   12.2118  -17.2722   23.6824 C   0  0  0  0  0  0  0  0  0  0  0  0
   12.8920  -17.2795   24.9822 C   0  0  0  0  0  0  0  0  0  0  0  0
   12.8701  -18.2806   25.7100 O   0  0  0  0  0  0  0  0  0  0  0  0
   14.2487  -16.3175   22.5900 C   0  0  0  0  0  0  0  0  0  0  0  0
   15.1482  -15.5623   23.3690 O   0  0  0  0  0  0  0  0  0  0  0  0
   13.5730  -16.1192   25.3862 O   0  0  0  0  0  0  0  0  0  0  0  0
   14.7726  -17.0653   21.7362 O   0  0  0  0  0  0  0  0  0  0  0  0
  2  1  1  1
  3  2  1  0
  4 10  1  0
  4  2  1  0
  5  4  2  0
  7  9  1  0
  7  6  1  1
  8  7  1  0
  9 11  1  0
  9 10  1  1
 11 13  1  0
 12 11  2  0
 13 14  1  0
 14 18  1  0
 14 15  1  1
 16 15  1  0
 16 20  1  0
 17 16  2  0
 18 19  1  0
 21 18  2  0
M  END
$$$$
