ATD.pdb
     RDKit          3D

 21 20  0  0  1  0  0  0  0  0999 V2000
    8.2262  -17.7327   15.8390 C   0  0  0  0  0  0  0  0  0  0  0  0
    8.4777  -16.2702   15.6972 C   0  0  2  0  0  0  0  0  0  0  0  0
    9.3121  -15.8999   14.6024 N   0  0  0  0  0  0  0  0  0  0  0  0
    9.0996  -15.7309   16.9482 C   0  0  0  0  0  0  0  0  0  0  0  0
   10.3555  -15.5904   16.9566 O   0  0  0  0  0  0  0  0  0  0  0  0
    7.6008  -12.7077   19.1908 C   0  0  0  0  0  0  0  0  0  0  0  0
    8.0060  -13.9081   20.0072 C   0  0  1  0  0  0  0  0  0  0  0  0
    6.8313  -14.5779   20.3587 O   0  0  0  0  0  0  0  0  0  0  0  0
    8.9364  -14.8278   19.2827 C   0  0  2  0  0  0  0  0  0  0  0  0
    8.3440  -15.3831   18.0909 N   0  0  0  0  0  0  0  0  0  0  0  0
    9.2650  -15.9490   20.2321 C   0  0  0  0  0  0  0  0  0  0  0  0
    8.9848  -17.1406   19.9129 O   0  0  0  0  0  0  0  0  0  0  0  0
    9.8770  -15.7154   21.4697 N   0  0  0  0  0  0  0  0  0  0  0  0
   10.6874  -16.7730   22.0741 C   0  0  1  0  0  0  0  0  0  0  0  0
   11.7727  -17.1179   21.0933 C   0  0  0  0  0  0  0  0  0  0  0  0
   12.6382  -18.1582   21.6600 C   0  0  0  0  0  0  0  0  0  0  0  0
   13.5615  -17.8711   22.4331 O   0  0  0  0  0  0  0  0  0  0  0  0
   11.1884  -16.3288   23.3931 C   0  0  0  0  0  0  0  0  0  0  0  0
   11.1623  -17.2134   24.4901 O   0  0  0  0  0  0  0  0  0  0  0  0
   12.3956  -19.4955   21.3048 O   0  0  0  0  0  0  0  0  0  0  0  0
   11.6514  -15.1920   23.6293 O   0  0  0  0  0  0  0  0  0  0  0  0
  2  1  1  1
  3  2  1  0
  4 10  1  0
  4  2  1  0
  5  4  2  0
  7  9  1  0
  7  6  1  6
  8  7  1  0
  9 11  1  0
  9 10  1  6
 11 13  1  0
 12 11  2  0
 13 14  1  0
 14 18  1  0
 14 15  1  6
 16 15  1  0
 16 20  1  0
 17 16  2  0
 18 19  1  0
 21 18  2  0
M  END
$$$$
