ATD.pdb
     RDKit          3D

 21 20  0  0  1  0  0  0  0  0999 V2000
    8.1099  -15.0831   18.2219 C   0  0  0  0  0  0  0  0  0  0  0  0
    7.8519  -13.8417   19.0057 C   0  0  2  0  0  0  0  0  0  0  0  0
    8.3882  -12.6459   18.4450 N   0  0  0  0  0  0  0  0  0  0  0  0
    8.4026  -13.9834   20.3911 C   0  0  0  0  0  0  0  0  0  0  0  0
    9.5664  -13.5374   20.6001 O   0  0  0  0  0  0  0  0  0  0  0  0
    7.6628  -15.2644   25.1731 C   0  0  0  0  0  0  0  0  0  0  0  0
    7.1422  -15.1238   23.7656 C   0  0  1  0  0  0  0  0  0  0  0  0
    6.0877  -14.2084   23.8100 O   0  0  0  0  0  0  0  0  0  0  0  0
    8.1852  -14.6744   22.7926 C   0  0  2  0  0  0  0  0  0  0  0  0
    7.6788  -14.5856   21.4452 N   0  0  0  0  0  0  0  0  0  0  0  0
    9.2871  -15.6994   22.8332 C   0  0  0  0  0  0  0  0  0  0  0  0
    9.4619  -16.4686   21.8441 O   0  0  0  0  0  0  0  0  0  0  0  0
   10.1343  -15.8317   23.9401 N   0  0  0  0  0  0  0  0  0  0  0  0
   11.2241  -16.8066   23.8900 C   0  0  1  0  0  0  0  0  0  0  0  0
   12.3981  -16.1292   23.2405 C   0  0  0  0  0  0  0  0  0  0  0  0
   13.5448  -17.0439   23.2164 C   0  0  0  0  0  0  0  0  0  0  0  0
   13.4408  -18.1881   22.7555 O   0  0  0  0  0  0  0  0  0  0  0  0
   11.5022  -17.3180   25.2499 C   0  0  0  0  0  0  0  0  0  0  0  0
   12.2053  -18.5280   25.4166 O   0  0  0  0  0  0  0  0  0  0  0  0
   14.7712  -16.5912   23.7305 O   0  0  0  0  0  0  0  0  0  0  0  0
   11.1542  -16.7478   26.3065 O   0  0  0  0  0  0  0  0  0  0  0  0
  2  1  1  6
  3  2  1  0
  4 10  1  0
  4  2  1  0
  5  4  2  0
  7  9  1  0
  7  6  1  1
  8  7  1  0
  9 11  1  0
  9 10  1  6
 11 13  1  0
 12 11  2  0
 13 14  1  0
 14 18  1  0
 14 15  1  1
 16 15  1  0
 16 20  1  0
 17 16  2  0
 18 19  1  0
 21 18  2  0
M  END
$$$$
