ATD.pdb
     RDKit          3D

 21 20  0  0  1  0  0  0  0  0999 V2000
    8.9126  -14.9392   17.3360 C   0  0  0  0  0  0  0  0  0  0  0  0
    8.1754  -13.9755   18.2020 C   0  0  2  0  0  0  0  0  0  0  0  0
    8.4210  -12.5987   17.9258 N   0  0  0  0  0  0  0  0  0  0  0  0
    8.5074  -14.2187   19.6419 C   0  0  0  0  0  0  0  0  0  0  0  0
    9.3824  -13.4742   20.1682 O   0  0  0  0  0  0  0  0  0  0  0  0
    7.4328  -16.5195   23.9447 C   0  0  0  0  0  0  0  0  0  0  0  0
    7.1566  -16.3018   22.4790 C   0  0  1  0  0  0  0  0  0  0  0  0
    5.8899  -15.7197   22.3845 O   0  0  0  0  0  0  0  0  0  0  0  0
    8.1793  -15.4424   21.8068 C   0  0  2  0  0  0  0  0  0  0  0  0
    7.8876  -15.2300   20.4105 N   0  0  0  0  0  0  0  0  0  0  0  0
    9.4965  -16.1613   21.9262 C   0  0  0  0  0  0  0  0  0  0  0  0
    9.7591  -17.1191   21.1425 O   0  0  0  0  0  0  0  0  0  0  0  0
   10.4515  -15.8021   22.8851 N   0  0  0  0  0  0  0  0  0  0  0  0
   11.7147  -16.5380   22.9426 C   0  0  1  0  0  0  0  0  0  0  0  0
   12.8233  -15.5245   22.8921 C   0  0  0  0  0  0  0  0  0  0  0  0
   14.1190  -16.2115   22.8517 C   0  0  0  0  0  0  0  0  0  0  0  0
   14.1912  -17.4292   22.6409 O   0  0  0  0  0  0  0  0  0  0  0  0
   11.7401  -17.3971   24.1466 C   0  0  0  0  0  0  0  0  0  0  0  0
   12.4896  -18.5906   24.1437 O   0  0  0  0  0  0  0  0  0  0  0  0
   15.2835  -15.4535   23.0586 O   0  0  0  0  0  0  0  0  0  0  0  0
   11.1306  -17.1468   25.2089 O   0  0  0  0  0  0  0  0  0  0  0  0
  2  1  1  6
  3  2  1  0
  4 10  1  0
  4  2  1  0
  5  4  2  0
  7  9  1  0
  7  6  1  1
  8  7  1  0
  9 11  1  0
  9 10  1  6
 11 13  1  0
 12 11  2  0
 13 14  1  0
 14 18  1  0
 14 15  1  1
 16 15  1  0
 16 20  1  0
 17 16  2  0
 18 19  1  0
 21 18  2  0
M  END
$$$$
