ATD.pdb
     RDKit          3D

 21 20  0  0  1  0  0  0  0  0999 V2000
    8.3680  -12.1518   19.8784 C   0  0  0  0  0  0  0  0  0  0  0  0
    8.4261  -13.2570   18.8797 C   0  0  2  0  0  0  0  0  0  0  0  0
    7.2568  -13.4163   18.0801 N   0  0  0  0  0  0  0  0  0  0  0  0
    8.6895  -14.5603   19.5685 C   0  0  0  0  0  0  0  0  0  0  0  0
    7.6876  -15.2700   19.8678 O   0  0  0  0  0  0  0  0  0  0  0  0
    8.8433  -17.4633   18.5235 C   0  0  0  0  0  0  0  0  0  0  0  0
   10.2269  -17.3097   19.1014 C   0  0  1  0  0  0  0  0  0  0  0  0
   11.0523  -16.8569   18.0691 O   0  0  0  0  0  0  0  0  0  0  0  0
   10.2799  -16.3710   20.2644 C   0  0  2  0  0  0  0  0  0  0  0  0
    9.9914  -15.0095   19.8861 N   0  0  0  0  0  0  0  0  0  0  0  0
   11.6800  -16.4385   20.8132 C   0  0  0  0  0  0  0  0  0  0  0  0
   12.5222  -15.5522   20.4884 O   0  0  0  0  0  0  0  0  0  0  0  0
   12.0864  -17.4598   21.6807 N   0  0  0  0  0  0  0  0  0  0  0  0
   13.4392  -17.4255   22.2367 C   0  0  1  0  0  0  0  0  0  0  0  0
   13.3640  -17.9923   23.6266 C   0  0  0  0  0  0  0  0  0  0  0  0
   12.7332  -17.0180   24.5239 C   0  0  0  0  0  0  0  0  0  0  0  0
   12.7847  -15.8039   24.2876 O   0  0  0  0  0  0  0  0  0  0  0  0
   14.3677  -18.1501   21.3416 C   0  0  0  0  0  0  0  0  0  0  0  0
   15.7577  -17.9474   21.4564 O   0  0  0  0  0  0  0  0  0  0  0  0
   12.0652  -17.4947   25.6639 O   0  0  0  0  0  0  0  0  0  0  0  0
   14.0129  -18.9589   20.4570 O   0  0  0  0  0  0  0  0  0  0  0  0
  2  1  1  1
  3  2  1  0
  4 10  1  0
  4  2  1  0
  5  4  2  0
  7  9  1  0
  7  6  1  6
  8  7  1  0
  9 11  1  0
  9 10  1  6
 11 13  1  0
 12 11  2  0
 13 14  1  0
 14 18  1  0
 14 15  1  1
 16 15  1  0
 16 20  1  0
 17 16  2  0
 18 19  1  0
 21 18  2  0
M  END
$$$$
