ATD.pdb
     RDKit          3D

 21 20  0  0  1  0  0  0  0  0999 V2000
    6.0684  -18.8845   18.9637 C   0  0  0  0  0  0  0  0  0  0  0  0
    6.3920  -17.8946   17.8972 C   0  0  2  0  0  0  0  0  0  0  0  0
    6.7266  -18.4539   16.6295 N   0  0  0  0  0  0  0  0  0  0  0  0
    7.5335  -17.0268   18.3292 C   0  0  0  0  0  0  0  0  0  0  0  0
    8.7016  -17.4739   18.1485 O   0  0  0  0  0  0  0  0  0  0  0  0
    6.9553  -13.2290   20.4563 C   0  0  0  0  0  0  0  0  0  0  0  0
    8.0846  -13.4997   19.4954 C   0  0  1  0  0  0  0  0  0  0  0  0
    9.1809  -12.7523   19.9331 O   0  0  0  0  0  0  0  0  0  0  0  0
    8.4432  -14.9483   19.3991 C   0  0  2  0  0  0  0  0  0  0  0  0
    7.3489  -15.7552   18.9180 N   0  0  0  0  0  0  0  0  0  0  0  0
    8.8073  -15.3987   20.7886 C   0  0  0  0  0  0  0  0  0  0  0  0
    7.9086  -15.8541   21.5537 O   0  0  0  0  0  0  0  0  0  0  0  0
   10.1210  -15.3301   21.2683 N   0  0  0  0  0  0  0  0  0  0  0  0
   10.4999  -16.1420   22.4250 C   0  0  1  0  0  0  0  0  0  0  0  0
   10.2187  -17.5760   22.0739 C   0  0  0  0  0  0  0  0  0  0  0  0
   10.6496  -18.4472   23.1729 C   0  0  0  0  0  0  0  0  0  0  0  0
   11.0242  -19.6078   22.9600 O   0  0  0  0  0  0  0  0  0  0  0  0
   11.9102  -15.8765   22.7836 C   0  0  0  0  0  0  0  0  0  0  0  0
   12.7802  -15.2990   21.8370 O   0  0  0  0  0  0  0  0  0  0  0  0
   10.6280  -17.9335   24.4801 O   0  0  0  0  0  0  0  0  0  0  0  0
   12.4181  -16.1296   23.8974 O   0  0  0  0  0  0  0  0  0  0  0  0
  2  1  1  1
  3  2  1  0
  4 10  1  0
  4  2  1  0
  5  4  2  0
  7  9  1  0
  7  6  1  1
  8  7  1  0
  9 11  1  0
  9 10  1  1
 11 13  1  0
 12 11  2  0
 13 14  1  0
 14 18  1  0
 14 15  1  6
 16 15  1  0
 16 20  1  0
 17 16  2  0
 18 19  1  0
 21 18  2  0
M  END
$$$$
