ATD.pdb
     RDKit          3D

 21 20  0  0  1  0  0  0  0  0999 V2000
    6.9421  -19.2488   18.4827 C   0  0  0  0  0  0  0  0  0  0  0  0
    7.2564  -18.1688   17.5045 C   0  0  2  0  0  0  0  0  0  0  0  0
    7.9263  -18.5962   16.3210 N   0  0  0  0  0  0  0  0  0  0  0  0
    8.1017  -17.1164   18.1530 C   0  0  0  0  0  0  0  0  0  0  0  0
    9.3547  -17.2206   18.0261 O   0  0  0  0  0  0  0  0  0  0  0  0
    8.3830  -12.7475   20.5638 C   0  0  0  0  0  0  0  0  0  0  0  0
    7.6045  -13.7606   19.7641 C   0  0  1  0  0  0  0  0  0  0  0  0
    7.2526  -13.1464   18.5595 O   0  0  0  0  0  0  0  0  0  0  0  0
    8.3668  -15.0210   19.5062 C   0  0  2  0  0  0  0  0  0  0  0  0
    7.5547  -16.0377   18.8843 N   0  0  0  0  0  0  0  0  0  0  0  0
    8.8388  -15.5244   20.8441 C   0  0  0  0  0  0  0  0  0  0  0  0
    7.9997  -15.9914   21.6676 O   0  0  0  0  0  0  0  0  0  0  0  0
   10.1894  -15.4932   21.2121 N   0  0  0  0  0  0  0  0  0  0  0  0
   10.6122  -16.1880   22.4283 C   0  0  1  0  0  0  0  0  0  0  0  0
   10.4998  -17.6626   22.1606 C   0  0  0  0  0  0  0  0  0  0  0  0
   10.2513  -18.3754   23.4186 C   0  0  0  0  0  0  0  0  0  0  0  0
   10.1124  -17.7618   24.4848 O   0  0  0  0  0  0  0  0  0  0  0  0
   11.9722  -15.7484   22.8097 C   0  0  0  0  0  0  0  0  0  0  0  0
   12.4345  -15.9525   24.1254 O   0  0  0  0  0  0  0  0  0  0  0  0
   10.1738  -19.7776   23.3878 O   0  0  0  0  0  0  0  0  0  0  0  0
   12.7794  -15.1894   22.0361 O   0  0  0  0  0  0  0  0  0  0  0  0
  2  1  1  1
  3  2  1  0
  4 10  1  0
  4  2  1  0
  5  4  2  0
  7  9  1  0
  7  6  1  1
  8  7  1  0
  9 11  1  0
  9 10  1  1
 11 13  1  0
 12 11  2  0
 13 14  1  0
 14 18  1  0
 14 15  1  6
 16 15  1  0
 16 20  1  0
 17 16  2  0
 18 19  1  0
 21 18  2  0
M  END
$$$$
