ATD.pdb
     RDKit          3D

 21 20  0  0  1  0  0  0  0  0999 V2000
    8.6708  -17.6129   16.2575 C   0  0  0  0  0  0  0  0  0  0  0  0
    8.4384  -16.1484   16.1047 C   0  0  2  0  0  0  0  0  0  0  0  0
    8.9328  -15.5770   14.8960 N   0  0  0  0  0  0  0  0  0  0  0  0
    9.0589  -15.4064   17.2479 C   0  0  0  0  0  0  0  0  0  0  0  0
   10.2529  -15.0176   17.1061 O   0  0  0  0  0  0  0  0  0  0  0  0
    7.2597  -12.6341   19.7571 C   0  0  0  0  0  0  0  0  0  0  0  0
    7.9667  -13.7769   20.4397 C   0  0  1  0  0  0  0  0  0  0  0  0
    6.9826  -14.6830   20.8430 O   0  0  0  0  0  0  0  0  0  0  0  0
    8.9750  -14.4532   19.5667 C   0  0  2  0  0  0  0  0  0  0  0  0
    8.3674  -15.1346   18.4502 N   0  0  0  0  0  0  0  0  0  0  0  0
    9.6858  -15.4638   20.4268 C   0  0  0  0  0  0  0  0  0  0  0  0
    9.4278  -16.6944   20.2880 O   0  0  0  0  0  0  0  0  0  0  0  0
   10.6331  -15.0840   21.3855 N   0  0  0  0  0  0  0  0  0  0  0  0
   11.4059  -16.1194   22.0719 C   0  0  1  0  0  0  0  0  0  0  0  0
   12.8133  -15.6093   22.2060 C   0  0  0  0  0  0  0  0  0  0  0  0
   13.6456  -16.6231   22.8632 C   0  0  0  0  0  0  0  0  0  0  0  0
   14.1227  -17.5706   22.2252 O   0  0  0  0  0  0  0  0  0  0  0  0
   10.7623  -16.4533   23.3613 C   0  0  0  0  0  0  0  0  0  0  0  0
   11.0497  -17.6792   23.9945 O   0  0  0  0  0  0  0  0  0  0  0  0
   13.8913  -16.4952   24.2403 O   0  0  0  0  0  0  0  0  0  0  0  0
    9.9536  -15.7136   23.9624 O   0  0  0  0  0  0  0  0  0  0  0  0
  2  1  1  1
  3  2  1  0
  4 10  1  0
  4  2  1  0
  5  4  2  0
  7  9  1  0
  7  6  1  6
  8  7  1  0
  9 11  1  0
  9 10  1  6
 11 13  1  0
 12 11  2  0
 13 14  1  0
 14 18  1  0
 14 15  1  1
 16 15  1  0
 16 20  1  0
 17 16  2  0
 18 19  1  0
 21 18  2  0
M  END
$$$$
