EQH.pdb
     RDKit          3D

 29 29  0  0  1  0  0  0  0  0999 V2000
   13.0662  -16.5088   14.0576 N   0  0  0  0  0  0  0  0  0  0  0  0
   12.6163  -15.9685   15.3035 C   0  0  1  0  0  0  0  0  0  0  0  0
   11.4637  -16.7353   15.9146 C   0  0  0  0  0  0  0  0  0  0  0  0
   10.7233  -17.5836   14.9255 C   0  0  0  0  0  0  0  0  0  0  0  0
    9.6379  -18.2818   15.6882 C   0  0  0  0  0  0  0  0  0  0  0  0
    8.4268  -18.0023   15.5666 O   0  0  0  0  0  0  0  0  0  0  0  0
   13.7398  -15.8999   16.2540 C   0  0  0  0  0  0  0  0  0  0  0  0
   14.5076  -16.8528   16.4753 O   0  0  0  0  0  0  0  0  0  0  0  0
   10.0292  -19.2852   16.5666 O   0  0  0  0  0  0  0  0  0  0  0  0
   18.2687  -11.3401   19.7047 N   0  0  0  0  0  0  0  0  0  0  0  0
   17.8663  -12.1124   18.5892 C   0  0  0  0  0  0  0  0  0  0  0  0
   18.2563  -11.7639   17.4500 O   0  0  0  0  0  0  0  0  0  0  0  0
   17.0045  -13.3124   18.7184 C   0  0  0  0  0  0  0  0  0  0  0  0
   15.8604  -13.2885   17.7331 C   0  0  0  0  0  0  0  0  0  0  0  0
   15.0723  -14.5228   17.8724 C   0  0  2  0  0  0  0  0  0  0  0  0
   13.9812  -14.7019   16.9653 N   0  0  0  0  0  0  0  0  0  0  0  0
   14.5734  -14.7482   19.2756 C   0  0  0  0  0  0  0  0  0  0  0  0
   13.5196  -14.1815   19.6621 O   0  0  0  0  0  0  0  0  0  0  0  0
   15.2400  -15.5794   20.1991 N   0  0  0  0  0  0  0  0  0  0  0  0
   14.7423  -15.8713   21.5354 C   0  0  1  0  0  0  0  0  0  0  0  0
   14.3046  -17.2861   21.6822 C   0  0  0  0  0  0  0  0  0  0  0  0
   12.9600  -17.4570   21.0861 C   0  0  0  0  0  0  0  0  0  0  0  0
   12.1801  -16.4831   20.4542 C   0  0  0  0  0  0  0  0  0  0  0  0
   11.0195  -17.0046   20.0389 N   0  0  0  0  0  0  0  0  0  0  0  0
   11.0346  -18.3043   20.3924 C   0  0  0  0  0  0  0  0  0  0  0  0
   12.1908  -18.5661   21.0143 N   0  0  0  0  0  0  0  0  0  0  0  0
   15.7637  -15.4446   22.5135 C   0  0  0  0  0  0  0  0  0  0  0  0
   16.8984  -15.0645   22.1467 O   0  0  0  0  0  0  0  0  0  0  0  0
   15.4803  -15.4582   23.8626 O   0  0  0  0  0  0  0  0  0  0  0  0
  2  1  1  6
  2  3  1  0
  4  3  1  0
  4  5  1  0
  5  9  1  0
  5  6  2  0
  7  2  1  0
  8  7  2  0
 11 12  2  0
 11 10  1  0
 13 11  1  0
 14 13  1  0
 15 14  1  1
 15 16  1  0
 16  7  1  0
 17 15  1  0
 18 17  2  0
 19 17  1  0
 20 19  1  0
 20 21  1  6
 22 21  1  0
 22 23  2  0
 24 23  1  0
 25 24  1  0
 26 25  2  0
 26 22  1  0
 27 20  1  0
 27 29  1  0
 28 27  2  0
M  END
$$$$
