EQH.pdb
     RDKit          3D

 29 29  0  0  1  0  0  0  0  0999 V2000
    9.5850  -16.0047   18.5666 N   0  0  0  0  0  0  0  0  0  0  0  0
   10.3058  -16.6489   19.6211 C   0  0  1  0  0  0  0  0  0  0  0  0
   11.7165  -16.1295   19.7949 C   0  0  0  0  0  0  0  0  0  0  0  0
   11.8803  -14.7012   19.3719 C   0  0  0  0  0  0  0  0  0  0  0  0
   13.3505  -14.4101   19.4077 C   0  0  0  0  0  0  0  0  0  0  0  0
   14.1559  -15.0391   20.1255 O   0  0  0  0  0  0  0  0  0  0  0  0
    9.5604  -16.5240   20.8857 C   0  0  0  0  0  0  0  0  0  0  0  0
    8.7660  -15.5970   21.1226 O   0  0  0  0  0  0  0  0  0  0  0  0
   13.8105  -13.3841   18.5908 O   0  0  0  0  0  0  0  0  0  0  0  0
    7.5203  -21.6577   24.0064 N   0  0  0  0  0  0  0  0  0  0  0  0
    6.9783  -20.5268   24.6621 C   0  0  0  0  0  0  0  0  0  0  0  0
    6.1356  -20.7111   25.5715 O   0  0  0  0  0  0  0  0  0  0  0  0
    7.3691  -19.1392   24.3141 C   0  0  0  0  0  0  0  0  0  0  0  0
    8.3840  -19.1072   23.1964 C   0  0  0  0  0  0  0  0  0  0  0  0
    8.8009  -17.7169   22.9573 C   0  0  2  0  0  0  0  0  0  0  0  0
    9.7377  -17.4930   21.9000 N   0  0  0  0  0  0  0  0  0  0  0  0
    9.3049  -17.0308   24.1998 C   0  0  0  0  0  0  0  0  0  0  0  0
   10.5413  -16.8825   24.3734 O   0  0  0  0  0  0  0  0  0  0  0  0
    8.4445  -16.5349   25.2010 N   0  0  0  0  0  0  0  0  0  0  0  0
    8.9062  -15.9167   26.4352 C   0  0  1  0  0  0  0  0  0  0  0  0
    7.7954  -15.3059   27.2148 C   0  0  0  0  0  0  0  0  0  0  0  0
    7.3770  -14.0368   26.5770 C   0  0  0  0  0  0  0  0  0  0  0  0
    7.9970  -13.3756   25.5120 C   0  0  0  0  0  0  0  0  0  0  0  0
    7.3349  -12.2540   25.2034 N   0  0  0  0  0  0  0  0  0  0  0  0
    6.2930  -12.1774   26.0536 C   0  0  0  0  0  0  0  0  0  0  0  0
    6.3243  -13.2402   26.8670 N   0  0  0  0  0  0  0  0  0  0  0  0
    9.7002  -16.9127   27.1832 C   0  0  0  0  0  0  0  0  0  0  0  0
   10.2950  -16.6097   28.2420 O   0  0  0  0  0  0  0  0  0  0  0  0
    9.8002  -18.2080   26.7217 O   0  0  0  0  0  0  0  0  0  0  0  0
  2  1  1  6
  2  3  1  0
  4  3  1  0
  4  5  1  0
  5  9  1  0
  5  6  2  0
  7  2  1  0
  8  7  2  0
 11 12  2  0
 11 10  1  0
 13 11  1  0
 14 13  1  0
 15 14  1  1
 15 16  1  0
 16  7  1  0
 17 15  1  0
 18 17  2  0
 19 17  1  0
 20 19  1  0
 20 21  1  1
 22 21  1  0
 22 23  2  0
 24 23  1  0
 25 24  1  0
 26 25  2  0
 26 22  1  0
 27 20  1  0
 27 29  1  0
 28 27  2  0
M  END
$$$$
