EQH.pdb
     RDKit          3D

 29 29  0  0  1  0  0  0  0  0999 V2000
    8.9596  -19.9339   18.3695 N   0  0  0  0  0  0  0  0  0  0  0  0
    9.4614  -18.6227   18.6445 C   0  0  1  0  0  0  0  0  0  0  0  0
    9.7137  -17.7983   17.4009 C   0  0  0  0  0  0  0  0  0  0  0  0
    8.7772  -18.1184   16.2755 C   0  0  0  0  0  0  0  0  0  0  0  0
    9.1093  -17.1732   15.1603 C   0  0  0  0  0  0  0  0  0  0  0  0
    8.2907  -16.3568   14.6878 O   0  0  0  0  0  0  0  0  0  0  0  0
    8.5369  -17.9119   19.5448 C   0  0  0  0  0  0  0  0  0  0  0  0
    7.6545  -17.1331   19.1430 O   0  0  0  0  0  0  0  0  0  0  0  0
   10.3995  -17.2314   14.6471 O   0  0  0  0  0  0  0  0  0  0  0  0
    4.5763  -19.7720   23.5491 N   0  0  0  0  0  0  0  0  0  0  0  0
    5.7195  -20.4315   23.0385 C   0  0  0  0  0  0  0  0  0  0  0  0
    5.8477  -21.6591   23.2568 O   0  0  0  0  0  0  0  0  0  0  0  0
    6.7657  -19.7266   22.2588 C   0  0  0  0  0  0  0  0  0  0  0  0
    6.4777  -18.2487   22.1439 C   0  0  0  0  0  0  0  0  0  0  0  0
    7.7337  -17.5264   21.8896 C   0  0  2  0  0  0  0  0  0  0  0  0
    8.6350  -18.1057   20.9420 N   0  0  0  0  0  0  0  0  0  0  0  0
    8.4973  -17.2105   23.1488 C   0  0  0  0  0  0  0  0  0  0  0  0
    9.4818  -17.9204   23.4768 O   0  0  0  0  0  0  0  0  0  0  0  0
    8.1591  -16.1369   23.9982 N   0  0  0  0  0  0  0  0  0  0  0  0
    8.8584  -15.8307   25.2376 C   0  0  1  0  0  0  0  0  0  0  0  0
    8.4680  -14.5087   25.7985 C   0  0  0  0  0  0  0  0  0  0  0  0
    9.1641  -14.2879   27.0865 C   0  0  0  0  0  0  0  0  0  0  0  0
    8.5967  -13.8966   28.3034 C   0  0  0  0  0  0  0  0  0  0  0  0
    9.5360  -13.7980   29.2519 N   0  0  0  0  0  0  0  0  0  0  0  0
   10.7062  -14.1199   28.6676 C   0  0  0  0  0  0  0  0  0  0  0  0
   10.4776  -14.4098   27.3809 N   0  0  0  0  0  0  0  0  0  0  0  0
    8.6742  -16.9652   26.1656 C   0  0  0  0  0  0  0  0  0  0  0  0
    7.5729  -17.5510   26.2680 O   0  0  0  0  0  0  0  0  0  0  0  0
    9.7252  -17.4024   26.9434 O   0  0  0  0  0  0  0  0  0  0  0  0
  2  1  1  6
  2  3  1  0
  4  3  1  0
  4  5  1  0
  5  9  1  0
  5  6  2  0
  7  2  1  0
  8  7  2  0
 11 12  2  0
 11 10  1  0
 13 11  1  0
 14 13  1  0
 15 14  1  1
 15 16  1  0
 16  7  1  0
 17 15  1  0
 18 17  2  0
 19 17  1  0
 20 19  1  0
 20 21  1  1
 22 21  1  0
 22 23  2  0
 24 23  1  0
 25 24  1  0
 26 25  2  0
 26 22  1  0
 27 20  1  0
 27 29  1  0
 28 27  2  0
M  END
$$$$
