EQH.pdb
     RDKit          3D

 29 29  0  0  1  0  0  0  0  0999 V2000
   12.4079  -18.8058   15.1299 N   0  0  0  0  0  0  0  0  0  0  0  0
   11.4325  -19.4939   15.9184 C   0  0  1  0  0  0  0  0  0  0  0  0
   12.0307  -20.3119   17.0422 C   0  0  0  0  0  0  0  0  0  0  0  0
   13.0728  -19.5730   17.8257 C   0  0  0  0  0  0  0  0  0  0  0  0
   13.6230  -20.5431   18.8275 C   0  0  0  0  0  0  0  0  0  0  0  0
   12.9128  -21.1433   19.6612 O   0  0  0  0  0  0  0  0  0  0  0  0
   10.4551  -18.5318   16.4566 C   0  0  0  0  0  0  0  0  0  0  0  0
    9.8853  -17.6737   15.7599 O   0  0  0  0  0  0  0  0  0  0  0  0
   14.9947  -20.7651   18.8032 O   0  0  0  0  0  0  0  0  0  0  0  0
    5.9085  -18.9781   15.8726 N   0  0  0  0  0  0  0  0  0  0  0  0
    5.5376  -19.1963   17.2207 C   0  0  0  0  0  0  0  0  0  0  0  0
    4.3267  -19.0995   17.5298 O   0  0  0  0  0  0  0  0  0  0  0  0
    6.5243  -19.5335   18.2753 C   0  0  0  0  0  0  0  0  0  0  0  0
    7.9196  -19.6679   17.7138 C   0  0  0  0  0  0  0  0  0  0  0  0
    8.7916  -18.6559   18.3298 C   0  0  2  0  0  0  0  0  0  0  0  0
   10.1293  -18.5623   17.8322 N   0  0  0  0  0  0  0  0  0  0  0  0
    8.8431  -18.7578   19.8316 C   0  0  0  0  0  0  0  0  0  0  0  0
    7.8273  -19.1394   20.4667 O   0  0  0  0  0  0  0  0  0  0  0  0
    9.9956  -18.4409   20.5797 N   0  0  0  0  0  0  0  0  0  0  0  0
   10.7053  -19.3938   21.4205 C   0  0  1  0  0  0  0  0  0  0  0  0
   10.9959  -20.6700   20.7123 C   0  0  0  0  0  0  0  0  0  0  0  0
    9.9172  -21.6476   20.9825 C   0  0  0  0  0  0  0  0  0  0  0  0
    8.8372  -21.5014   21.8590 C   0  0  0  0  0  0  0  0  0  0  0  0
    8.0639  -22.5937   21.8412 N   0  0  0  0  0  0  0  0  0  0  0  0
    8.6269  -23.4479   20.9649 C   0  0  0  0  0  0  0  0  0  0  0  0
    9.7278  -22.8790   20.4585 N   0  0  0  0  0  0  0  0  0  0  0  0
   11.8963  -18.7215   21.9787 C   0  0  0  0  0  0  0  0  0  0  0  0
   12.5706  -17.9177   21.2962 O   0  0  0  0  0  0  0  0  0  0  0  0
   12.2893  -18.9715   23.2763 O   0  0  0  0  0  0  0  0  0  0  0  0
  2  1  1  1
  2  3  1  0
  4  3  1  0
  4  5  1  0
  5  9  1  0
  5  6  2  0
  7  2  1  0
  8  7  2  0
 11 12  2  0
 11 10  1  0
 13 11  1  0
 14 13  1  0
 15 14  1  6
 15 16  1  0
 16  7  1  0
 17 15  1  0
 18 17  2  0
 19 17  1  0
 20 19  1  0
 20 21  1  6
 22 21  1  0
 22 23  2  0
 24 23  1  0
 25 24  1  0
 26 25  2  0
 26 22  1  0
 27 20  1  0
 27 29  1  0
 28 27  2  0
M  END
$$$$
