EQH.pdb
     RDKit          3D

 29 29  0  0  1  0  0  0  0  0999 V2000
   11.7406  -17.8086   14.0742 N   0  0  0  0  0  0  0  0  0  0  0  0
   11.5989  -18.5472   15.2911 C   0  0  1  0  0  0  0  0  0  0  0  0
   12.9149  -18.8373   15.9796 C   0  0  0  0  0  0  0  0  0  0  0  0
   13.6546  -17.6013   16.3930 C   0  0  0  0  0  0  0  0  0  0  0  0
   14.9796  -18.0542   16.9282 C   0  0  0  0  0  0  0  0  0  0  0  0
   15.1969  -18.2503   18.1423 O   0  0  0  0  0  0  0  0  0  0  0  0
   10.6942  -17.8321   16.2080 C   0  0  0  0  0  0  0  0  0  0  0  0
   10.4003  -16.6305   16.0797 O   0  0  0  0  0  0  0  0  0  0  0  0
   15.9972  -18.2577   16.0038 O   0  0  0  0  0  0  0  0  0  0  0  0
    6.0593  -21.2634   18.9367 N   0  0  0  0  0  0  0  0  0  0  0  0
    5.7279  -19.8984   19.1086 C   0  0  0  0  0  0  0  0  0  0  0  0
    4.5983  -19.6119   19.5704 O   0  0  0  0  0  0  0  0  0  0  0  0
    6.6635  -18.8005   18.7640 C   0  0  0  0  0  0  0  0  0  0  0  0
    7.9872  -19.3291   18.2653 C   0  0  0  0  0  0  0  0  0  0  0  0
    8.8374  -18.2015   17.8533 C   0  0  2  0  0  0  0  0  0  0  0  0
   10.1161  -18.5219   17.2985 N   0  0  0  0  0  0  0  0  0  0  0  0
    9.0280  -17.1785   18.9421 C   0  0  0  0  0  0  0  0  0  0  0  0
    8.0268  -16.6071   19.4442 O   0  0  0  0  0  0  0  0  0  0  0  0
   10.2977  -16.8195   19.4393 N   0  0  0  0  0  0  0  0  0  0  0  0
   10.5043  -15.9228   20.5670 C   0  0  1  0  0  0  0  0  0  0  0  0
    9.2265  -15.3783   21.1015 C   0  0  0  0  0  0  0  0  0  0  0  0
    8.7701  -14.2534   20.2538 C   0  0  0  0  0  0  0  0  0  0  0  0
    9.4012  -13.7328   19.1197 C   0  0  0  0  0  0  0  0  0  0  0  0
    8.6947  -12.7158   18.6115 N   0  0  0  0  0  0  0  0  0  0  0  0
    7.6128  -12.5686   19.4003 C   0  0  0  0  0  0  0  0  0  0  0  0
    7.6642  -13.4856   20.3742 N   0  0  0  0  0  0  0  0  0  0  0  0
   11.3353  -16.6219   21.5684 C   0  0  0  0  0  0  0  0  0  0  0  0
   12.3779  -16.1029   22.0267 O   0  0  0  0  0  0  0  0  0  0  0  0
   10.9713  -17.8727   22.0200 O   0  0  0  0  0  0  0  0  0  0  0  0
  2  1  1  6
  2  3  1  0
  4  3  1  0
  4  5  1  0
  5  9  1  0
  5  6  2  0
  7  2  1  0
  8  7  2  0
 11 12  2  0
 11 10  1  0
 13 11  1  0
 14 13  1  0
 15 14  1  1
 15 16  1  0
 16  7  1  0
 17 15  1  0
 18 17  2  0
 19 17  1  0
 20 19  1  0
 20 21  1  1
 22 21  1  0
 22 23  2  0
 24 23  1  0
 25 24  1  0
 26 25  2  0
 26 22  1  0
 27 20  1  0
 27 29  1  0
 28 27  2  0
M  END
$$$$
