EQH.pdb
     RDKit          3D

 29 29  0  0  1  0  0  0  0  0999 V2000
    8.5996  -12.2069   18.2363 N   0  0  0  0  0  0  0  0  0  0  0  0
    7.8724  -13.3164   18.7718 C   0  0  1  0  0  0  0  0  0  0  0  0
    7.8378  -14.5177   17.8521 C   0  0  0  0  0  0  0  0  0  0  0  0
    9.1977  -14.9708   17.4148 C   0  0  0  0  0  0  0  0  0  0  0  0
    8.9858  -16.1395   16.5001 C   0  0  0  0  0  0  0  0  0  0  0  0
    8.1629  -16.1336   15.5608 O   0  0  0  0  0  0  0  0  0  0  0  0
    8.4316  -13.6964   20.0808 C   0  0  0  0  0  0  0  0  0  0  0  0
    9.6264  -13.5364   20.3865 O   0  0  0  0  0  0  0  0  0  0  0  0
    9.7577  -17.2714   16.7335 O   0  0  0  0  0  0  0  0  0  0  0  0
    6.3052  -17.3308   24.7305 N   0  0  0  0  0  0  0  0  0  0  0  0
    7.1625  -16.3998   25.3636 C   0  0  0  0  0  0  0  0  0  0  0  0
    7.5881  -16.6656   26.5123 O   0  0  0  0  0  0  0  0  0  0  0  0
    7.5734  -15.1280   24.7208 C   0  0  0  0  0  0  0  0  0  0  0  0
    6.9641  -14.9725   23.3479 C   0  0  0  0  0  0  0  0  0  0  0  0
    8.0085  -14.5652   22.3954 C   0  0  2  0  0  0  0  0  0  0  0  0
    7.5902  -14.2748   21.0588 N   0  0  0  0  0  0  0  0  0  0  0  0
    9.1635  -15.5302   22.3390 C   0  0  0  0  0  0  0  0  0  0  0  0
    9.5743  -15.9481   21.2266 O   0  0  0  0  0  0  0  0  0  0  0  0
    9.8231  -16.0004   23.4932 N   0  0  0  0  0  0  0  0  0  0  0  0
   11.2448  -16.3078   23.5475 C   0  0  1  0  0  0  0  0  0  0  0  0
   12.0817  -15.2335   22.9471 C   0  0  0  0  0  0  0  0  0  0  0  0
   12.3082  -15.5205   21.5123 C   0  0  0  0  0  0  0  0  0  0  0  0
   11.8115  -16.5980   20.7720 C   0  0  0  0  0  0  0  0  0  0  0  0
   12.2257  -16.5280   19.5011 N   0  0  0  0  0  0  0  0  0  0  0  0
   12.9849  -15.4195   19.4056 C   0  0  0  0  0  0  0  0  0  0  0  0
   13.0296  -14.8258   20.6046 N   0  0  0  0  0  0  0  0  0  0  0  0
   11.5931  -16.6436   24.9432 C   0  0  0  0  0  0  0  0  0  0  0  0
   10.7465  -16.5686   25.8620 O   0  0  0  0  0  0  0  0  0  0  0  0
   12.8717  -17.0500   25.2602 O   0  0  0  0  0  0  0  0  0  0  0  0
  2  1  1  6
  2  3  1  0
  4  3  1  0
  4  5  1  0
  5  9  1  0
  5  6  2  0
  7  2  1  0
  8  7  2  0
 11 12  2  0
 11 10  1  0
 13 11  1  0
 14 13  1  0
 15 14  1  1
 15 16  1  0
 16  7  1  0
 17 15  1  0
 18 17  2  0
 19 17  1  0
 20 19  1  0
 20 21  1  1
 22 21  1  0
 22 23  2  0
 24 23  1  0
 25 24  1  0
 26 25  2  0
 26 22  1  0
 27 20  1  0
 27 29  1  0
 28 27  2  0
M  END
$$$$
