EQH.pdb
     RDKit          3D

 29 29  0  0  1  0  0  0  0  0999 V2000
   10.2158  -23.6615   20.0775 N   0  0  0  0  0  0  0  0  0  0  0  0
   11.1525  -23.7362   21.1562 C   0  0  1  0  0  0  0  0  0  0  0  0
   12.4628  -23.0358   20.8692 C   0  0  0  0  0  0  0  0  0  0  0  0
   12.2898  -21.6781   20.2588 C   0  0  0  0  0  0  0  0  0  0  0  0
   13.6666  -21.1598   19.9703 C   0  0  0  0  0  0  0  0  0  0  0  0
   14.2405  -20.3082   20.6809 O   0  0  0  0  0  0  0  0  0  0  0  0
   10.5459  -23.1932   22.3841 C   0  0  0  0  0  0  0  0  0  0  0  0
    9.5649  -22.4290   22.3820 O   0  0  0  0  0  0  0  0  0  0  0  0
   14.3112  -21.6708   18.8502 O   0  0  0  0  0  0  0  0  0  0  0  0
    9.9511  -25.7904   28.1561 N   0  0  0  0  0  0  0  0  0  0  0  0
    9.4589  -24.4652   28.2199 C   0  0  0  0  0  0  0  0  0  0  0  0
    8.8684  -24.0972   29.2625 O   0  0  0  0  0  0  0  0  0  0  0  0
    9.6154  -23.5012   27.1038 C   0  0  0  0  0  0  0  0  0  0  0  0
   10.2840  -24.1344   25.9070 C   0  0  0  0  0  0  0  0  0  0  0  0
   10.5412  -23.1024   24.8907 C   0  0  2  0  0  0  0  0  0  0  0  0
   11.0862  -23.5416   23.6434 N   0  0  0  0  0  0  0  0  0  0  0  0
   11.3791  -21.9625   25.4072 C   0  0  0  0  0  0  0  0  0  0  0  0
   12.6326  -22.0613   25.4125 O   0  0  0  0  0  0  0  0  0  0  0  0
   10.8202  -20.7636   25.8959 N   0  0  0  0  0  0  0  0  0  0  0  0
   11.6072  -19.6397   26.3817 C   0  0  1  0  0  0  0  0  0  0  0  0
   10.9796  -18.3279   26.0655 C   0  0  0  0  0  0  0  0  0  0  0  0
   11.1178  -18.0443   24.6189 C   0  0  0  0  0  0  0  0  0  0  0  0
   11.7973  -18.8073   23.6640 C   0  0  0  0  0  0  0  0  0  0  0  0
   11.7075  -18.2394   22.4553 N   0  0  0  0  0  0  0  0  0  0  0  0
   10.9786  -17.1175   22.6119 C   0  0  0  0  0  0  0  0  0  0  0  0
   10.6316  -17.0079   23.9001 N   0  0  0  0  0  0  0  0  0  0  0  0
   11.8827  -19.8535   27.8171 C   0  0  0  0  0  0  0  0  0  0  0  0
   11.3252  -20.7730   28.4577 O   0  0  0  0  0  0  0  0  0  0  0  0
   12.7692  -19.0338   28.4826 O   0  0  0  0  0  0  0  0  0  0  0  0
  2  1  1  6
  2  3  1  0
  4  3  1  0
  4  5  1  0
  5  9  1  0
  5  6  2  0
  7  2  1  0
  8  7  2  0
 11 12  2  0
 11 10  1  0
 13 11  1  0
 14 13  1  0
 15 14  1  1
 15 16  1  0
 16  7  1  0
 17 15  1  0
 18 17  2  0
 19 17  1  0
 20 19  1  0
 20 21  1  1
 22 21  1  0
 22 23  2  0
 24 23  1  0
 25 24  1  0
 26 25  2  0
 26 22  1  0
 27 20  1  0
 27 29  1  0
 28 27  2  0
M  END
$$$$
