EQH.pdb
     RDKit          3D

 29 29  0  0  1  0  0  0  0  0999 V2000
    8.7156  -17.4318   20.4279 N   0  0  0  0  0  0  0  0  0  0  0  0
    7.3519  -17.1163   20.7233 C   0  0  1  0  0  0  0  0  0  0  0  0
    6.3563  -17.9820   19.9820 C   0  0  0  0  0  0  0  0  0  0  0  0
    6.9599  -18.7310   18.8328 C   0  0  0  0  0  0  0  0  0  0  0  0
    6.0440  -18.5307   17.6630 C   0  0  0  0  0  0  0  0  0  0  0  0
    4.8004  -18.6089   17.7457 O   0  0  0  0  0  0  0  0  0  0  0  0
    7.1204  -17.2077   22.1754 C   0  0  0  0  0  0  0  0  0  0  0  0
    6.0239  -16.9652   22.7097 O   0  0  0  0  0  0  0  0  0  0  0  0
    6.6372  -18.2451   16.4390 O   0  0  0  0  0  0  0  0  0  0  0  0
    9.0767  -21.1627   26.6426 N   0  0  0  0  0  0  0  0  0  0  0  0
    8.2839  -20.1501   27.2331 C   0  0  0  0  0  0  0  0  0  0  0  0
    7.8540  -20.3308   28.3965 O   0  0  0  0  0  0  0  0  0  0  0  0
    7.9451  -18.8895   26.5289 C   0  0  0  0  0  0  0  0  0  0  0  0
    8.4934  -18.8696   25.1221 C   0  0  0  0  0  0  0  0  0  0  0  0
    8.0782  -17.6257   24.4555 C   0  0  2  0  0  0  0  0  0  0  0  0
    8.1811  -17.5880   23.0295 N   0  0  0  0  0  0  0  0  0  0  0  0
    8.7520  -16.4021   25.0189 C   0  0  0  0  0  0  0  0  0  0  0  0
    8.8012  -15.3467   24.3372 O   0  0  0  0  0  0  0  0  0  0  0  0
    9.3435  -16.3767   26.2987 N   0  0  0  0  0  0  0  0  0  0  0  0
    9.2396  -15.2539   27.2191 C   0  0  1  0  0  0  0  0  0  0  0  0
    7.8314  -14.8221   27.4319 C   0  0  0  0  0  0  0  0  0  0  0  0
    7.5679  -13.5833   26.6649 C   0  0  0  0  0  0  0  0  0  0  0  0
    8.4705  -12.8643   25.8748 C   0  0  0  0  0  0  0  0  0  0  0  0
    7.8751  -11.7951   25.3326 N   0  0  0  0  0  0  0  0  0  0  0  0
    6.5978  -11.8096   25.7599 C   0  0  0  0  0  0  0  0  0  0  0  0
    6.4224  -12.8750   26.5512 N   0  0  0  0  0  0  0  0  0  0  0  0
    9.9642  -15.6024   28.4583 C   0  0  0  0  0  0  0  0  0  0  0  0
   10.1147  -16.7935   28.8120 O   0  0  0  0  0  0  0  0  0  0  0  0
   10.4930  -14.6092   29.2549 O   0  0  0  0  0  0  0  0  0  0  0  0
  2  1  1  1
  2  3  1  0
  4  3  1  0
  4  5  1  0
  5  9  1  0
  5  6  2  0
  7  2  1  0
  8  7  2  0
 11 12  2  0
 11 10  1  0
 13 11  1  0
 14 13  1  0
 15 14  1  1
 15 16  1  0
 16  7  1  0
 17 15  1  0
 18 17  2  0
 19 17  1  0
 20 19  1  0
 20 21  1  1
 22 21  1  0
 22 23  2  0
 24 23  1  0
 25 24  1  0
 26 25  2  0
 26 22  1  0
 27 20  1  0
 27 29  1  0
 28 27  2  0
M  END
$$$$
