EQH.pdb
     RDKit          3D

 29 29  0  0  1  0  0  0  0  0999 V2000
   13.3264  -14.3750   17.2308 N   0  0  0  0  0  0  0  0  0  0  0  0
   12.2967  -15.1993   17.7846 C   0  0  1  0  0  0  0  0  0  0  0  0
   12.6869  -16.6566   17.9037 C   0  0  0  0  0  0  0  0  0  0  0  0
   13.9666  -16.8698   18.6539 C   0  0  0  0  0  0  0  0  0  0  0  0
   14.2321  -18.3451   18.6368 C   0  0  0  0  0  0  0  0  0  0  0  0
   13.7350  -19.1400   19.4618 O   0  0  0  0  0  0  0  0  0  0  0  0
   11.8889  -14.6748   19.0995 C   0  0  0  0  0  0  0  0  0  0  0  0
   12.6632  -14.0774   19.8676 O   0  0  0  0  0  0  0  0  0  0  0  0
   15.0772  -18.8226   17.6421 O   0  0  0  0  0  0  0  0  0  0  0  0
    9.1982  -12.5904   17.9571 N   0  0  0  0  0  0  0  0  0  0  0  0
    8.0316  -13.2147   18.4590 C   0  0  0  0  0  0  0  0  0  0  0  0
    7.0733  -13.4078   17.6745 O   0  0  0  0  0  0  0  0  0  0  0  0
    7.9025  -13.6463   19.8720 C   0  0  0  0  0  0  0  0  0  0  0  0
    9.0935  -13.2220   20.6978 C   0  0  0  0  0  0  0  0  0  0  0  0
   10.0534  -14.3341   20.7747 C   0  0  2  0  0  0  0  0  0  0  0  0
   10.5550  -14.8451   19.5366 N   0  0  0  0  0  0  0  0  0  0  0  0
    9.5536  -15.4877   21.6040 C   0  0  0  0  0  0  0  0  0  0  0  0
    8.7459  -16.3119   21.1049 O   0  0  0  0  0  0  0  0  0  0  0  0
    9.9523  -15.6971   22.9403 N   0  0  0  0  0  0  0  0  0  0  0  0
   10.7447  -16.8353   23.3824 C   0  0  1  0  0  0  0  0  0  0  0  0
   11.9225  -17.0819   22.5068 C   0  0  0  0  0  0  0  0  0  0  0  0
   11.6902  -18.2928   21.6870 C   0  0  0  0  0  0  0  0  0  0  0  0
   10.5220  -19.0582   21.6130 C   0  0  0  0  0  0  0  0  0  0  0  0
   10.6814  -20.0815   20.7650 N   0  0  0  0  0  0  0  0  0  0  0  0
   11.9375  -19.9914   20.2870 C   0  0  0  0  0  0  0  0  0  0  0  0
   12.5311  -18.9262   20.8392 N   0  0  0  0  0  0  0  0  0  0  0  0
   11.0753  -16.6432   24.8092 C   0  0  0  0  0  0  0  0  0  0  0  0
   11.4483  -17.5990   25.5260 O   0  0  0  0  0  0  0  0  0  0  0  0
   10.9772  -15.3927   25.3814 O   0  0  0  0  0  0  0  0  0  0  0  0
  2  1  1  1
  2  3  1  0
  4  3  1  0
  4  5  1  0
  5  9  1  0
  5  6  2  0
  7  2  1  0
  8  7  2  0
 11 12  2  0
 11 10  1  0
 13 11  1  0
 14 13  1  0
 15 14  1  6
 15 16  1  0
 16  7  1  0
 17 15  1  0
 18 17  2  0
 19 17  1  0
 20 19  1  0
 20 21  1  6
 22 21  1  0
 22 23  2  0
 24 23  1  0
 25 24  1  0
 26 25  2  0
 26 22  1  0
 27 20  1  0
 27 29  1  0
 28 27  2  0
M  END
$$$$
