EQH.pdb
     RDKit          3D

 29 29  0  0  1  0  0  0  0  0999 V2000
   11.3976  -19.4966   20.7867 N   0  0  0  0  0  0  0  0  0  0  0  0
   12.1377  -18.3044   20.5083 C   0  0  1  0  0  0  0  0  0  0  0  0
   12.3415  -18.0500   19.0306 C   0  0  0  0  0  0  0  0  0  0  0  0
   12.8427  -19.2493   18.2846 C   0  0  0  0  0  0  0  0  0  0  0  0
   12.9344  -18.8490   16.8428 C   0  0  0  0  0  0  0  0  0  0  0  0
   13.8484  -19.2317   16.0826 O   0  0  0  0  0  0  0  0  0  0  0  0
   11.4762  -17.1470   21.1353 C   0  0  0  0  0  0  0  0  0  0  0  0
   11.9537  -15.9988   21.1264 O   0  0  0  0  0  0  0  0  0  0  0  0
   11.9389  -18.0100   16.3565 O   0  0  0  0  0  0  0  0  0  0  0  0
    6.1036  -14.4539   20.6570 N   0  0  0  0  0  0  0  0  0  0  0  0
    6.5412  -14.0468   21.9397 C   0  0  0  0  0  0  0  0  0  0  0  0
    5.9366  -13.1060   22.5060 O   0  0  0  0  0  0  0  0  0  0  0  0
    7.6830  -14.6894   22.6345 C   0  0  0  0  0  0  0  0  0  0  0  0
    8.2684  -15.8195   21.8219 C   0  0  0  0  0  0  0  0  0  0  0  0
    9.5256  -16.2648   22.4424 C   0  0  2  0  0  0  0  0  0  0  0  0
   10.2339  -17.3210   21.7878 N   0  0  0  0  0  0  0  0  0  0  0  0
    9.3711  -16.6192   23.8981 C   0  0  0  0  0  0  0  0  0  0  0  0
    8.8124  -15.8101   24.6818 O   0  0  0  0  0  0  0  0  0  0  0  0
    9.8301  -17.8371   24.4408 N   0  0  0  0  0  0  0  0  0  0  0  0
    9.7310  -18.1865   25.8503 C   0  0  1  0  0  0  0  0  0  0  0  0
    9.0984  -19.5166   26.0628 C   0  0  0  0  0  0  0  0  0  0  0  0
    7.7424  -19.5251   25.4681 C   0  0  0  0  0  0  0  0  0  0  0  0
    7.0657  -18.4523   24.8790 C   0  0  0  0  0  0  0  0  0  0  0  0
    5.8569  -18.8352   24.4503 N   0  0  0  0  0  0  0  0  0  0  0  0
    5.7390  -20.1424   24.7530 C   0  0  0  0  0  0  0  0  0  0  0  0
    6.8631  -20.5457   25.3577 N   0  0  0  0  0  0  0  0  0  0  0  0
   11.0700  -18.0442   26.4578 C   0  0  0  0  0  0  0  0  0  0  0  0
   12.0508  -17.6499   25.7878 O   0  0  0  0  0  0  0  0  0  0  0  0
   11.2632  -18.3471   27.7888 O   0  0  0  0  0  0  0  0  0  0  0  0
  2  1  1  6
  2  3  1  0
  4  3  1  0
  4  5  1  0
  5  9  1  0
  5  6  2  0
  7  2  1  0
  8  7  2  0
 11 12  2  0
 11 10  1  0
 13 11  1  0
 14 13  1  0
 15 14  1  6
 15 16  1  0
 16  7  1  0
 17 15  1  0
 18 17  2  0
 19 17  1  0
 20 19  1  0
 20 21  1  6
 22 21  1  0
 22 23  2  0
 24 23  1  0
 25 24  1  0
 26 25  2  0
 26 22  1  0
 27 20  1  0
 27 29  1  0
 28 27  2  0
M  END
$$$$
