EQH.pdb
     RDKit          3D

 29 29  0  0  1  0  0  0  0  0999 V2000
   14.4204  -15.6515   15.3197 N   0  0  0  0  0  0  0  0  0  0  0  0
   13.7186  -16.2259   16.4261 C   0  0  1  0  0  0  0  0  0  0  0  0
   14.6015  -17.0428   17.3444 C   0  0  0  0  0  0  0  0  0  0  0  0
   15.9173  -16.3891   17.6403 C   0  0  0  0  0  0  0  0  0  0  0  0
   16.6761  -17.3344   18.5222 C   0  0  0  0  0  0  0  0  0  0  0  0
   17.0285  -18.4762   18.1592 O   0  0  0  0  0  0  0  0  0  0  0  0
   13.0358  -15.1670   17.1896 C   0  0  0  0  0  0  0  0  0  0  0  0
   13.4408  -13.9924   17.2424 O   0  0  0  0  0  0  0  0  0  0  0  0
   16.9885  -16.8905   19.8016 O   0  0  0  0  0  0  0  0  0  0  0  0
    7.6867  -13.6376   17.0490 N   0  0  0  0  0  0  0  0  0  0  0  0
    7.8821  -13.0958   18.3416 C   0  0  0  0  0  0  0  0  0  0  0  0
    7.1827  -12.1157   18.6900 O   0  0  0  0  0  0  0  0  0  0  0  0
    8.8789  -13.6427   19.2938 C   0  0  0  0  0  0  0  0  0  0  0  0
    9.6095  -14.8320   18.7175 C   0  0  0  0  0  0  0  0  0  0  0  0
   11.0275  -14.4880   18.5301 C   0  0  2  0  0  0  0  0  0  0  0  0
   11.8576  -15.4732   17.9089 N   0  0  0  0  0  0  0  0  0  0  0  0
   11.6949  -14.0276   19.7994 C   0  0  0  0  0  0  0  0  0  0  0  0
   11.2671  -13.0062   20.3948 O   0  0  0  0  0  0  0  0  0  0  0  0
   12.7986  -14.6961   20.3680 N   0  0  0  0  0  0  0  0  0  0  0  0
   12.7584  -15.3851   21.6496 C   0  0  1  0  0  0  0  0  0  0  0  0
   11.6422  -16.3658   21.7326 C   0  0  0  0  0  0  0  0  0  0  0  0
   11.6158  -16.9790   23.0800 C   0  0  0  0  0  0  0  0  0  0  0  0
   12.4056  -16.6411   24.1836 C   0  0  0  0  0  0  0  0  0  0  0  0
   12.1019  -17.4120   25.2349 N   0  0  0  0  0  0  0  0  0  0  0  0
   11.1254  -18.2463   24.8293 C   0  0  0  0  0  0  0  0  0  0  0  0
   10.8415  -17.9834   23.5477 N   0  0  0  0  0  0  0  0  0  0  0  0
   14.0947  -15.9589   21.9089 C   0  0  0  0  0  0  0  0  0  0  0  0
   14.9160  -16.1422   20.9824 O   0  0  0  0  0  0  0  0  0  0  0  0
   14.4632  -16.3061   23.1912 O   0  0  0  0  0  0  0  0  0  0  0  0
  2  1  1  6
  2  3  1  0
  4  3  1  0
  4  5  1  0
  5  9  1  0
  5  6  2  0
  7  2  1  0
  8  7  2  0
 11 12  2  0
 11 10  1  0
 13 11  1  0
 14 13  1  0
 15 14  1  1
 15 16  1  0
 16  7  1  0
 17 15  1  0
 18 17  2  0
 19 17  1  0
 20 19  1  0
 20 21  1  6
 22 21  1  0
 22 23  2  0
 24 23  1  0
 25 24  1  0
 26 25  2  0
 26 22  1  0
 27 20  1  0
 27 29  1  0
 28 27  2  0
M  END
$$$$
