EQH.pdb
     RDKit          3D

 29 29  0  0  1  0  0  0  0  0999 V2000
    8.9280  -12.5856   17.7056 N   0  0  0  0  0  0  0  0  0  0  0  0
    8.2927  -13.8286   18.0186 C   0  0  1  0  0  0  0  0  0  0  0  0
    7.9068  -14.6351   16.7977 C   0  0  0  0  0  0  0  0  0  0  0  0
    8.9178  -14.5630   15.6938 C   0  0  0  0  0  0  0  0  0  0  0  0
    8.4091  -15.4401   14.5896 C   0  0  0  0  0  0  0  0  0  0  0  0
    8.9542  -15.5152   13.4685 O   0  0  0  0  0  0  0  0  0  0  0  0
    9.1627  -14.6273   18.8994 C   0  0  0  0  0  0  0  0  0  0  0  0
    8.8475  -15.7470   19.3392 O   0  0  0  0  0  0  0  0  0  0  0  0
    7.2733  -16.1953   14.8562 O   0  0  0  0  0  0  0  0  0  0  0  0
   15.4203  -14.7296   18.9271 N   0  0  0  0  0  0  0  0  0  0  0  0
   14.3882  -14.9341   17.9809 C   0  0  0  0  0  0  0  0  0  0  0  0
   14.7050  -15.1156   16.7818 O   0  0  0  0  0  0  0  0  0  0  0  0
   12.9530  -14.9413   18.3545 C   0  0  0  0  0  0  0  0  0  0  0  0
   12.7594  -14.7244   19.8363 C   0  0  0  0  0  0  0  0  0  0  0  0
   11.3258  -14.8043   20.1566 C   0  0  2  0  0  0  0  0  0  0  0  0
   10.4260  -14.1196   19.2807 N   0  0  0  0  0  0  0  0  0  0  0  0
   11.0156  -14.4027   21.5747 C   0  0  0  0  0  0  0  0  0  0  0  0
   10.9187  -13.1848   21.8718 O   0  0  0  0  0  0  0  0  0  0  0  0
   10.8238  -15.3409   22.6098 N   0  0  0  0  0  0  0  0  0  0  0  0
    9.9807  -15.1057   23.7728 C   0  0  1  0  0  0  0  0  0  0  0  0
    8.6174  -14.6386   23.4012 C   0  0  0  0  0  0  0  0  0  0  0  0
    7.8358  -14.3550   24.6263 C   0  0  0  0  0  0  0  0  0  0  0  0
    8.2755  -14.4298   25.9517 C   0  0  0  0  0  0  0  0  0  0  0  0
    7.2895  -14.1011   26.7952 N   0  0  0  0  0  0  0  0  0  0  0  0
    6.2149  -13.8139   26.0356 C   0  0  0  0  0  0  0  0  0  0  0  0
    6.5468  -13.9669   24.7478 N   0  0  0  0  0  0  0  0  0  0  0  0
   10.0009  -16.3208   24.6126 C   0  0  0  0  0  0  0  0  0  0  0  0
   10.1293  -17.4592   24.1085 O   0  0  0  0  0  0  0  0  0  0  0  0
    9.8772  -16.2194   25.9820 O   0  0  0  0  0  0  0  0  0  0  0  0
  2  1  1  6
  2  3  1  0
  4  3  1  0
  4  5  1  0
  5  9  1  0
  5  6  2  0
  7  2  1  0
  8  7  2  0
 11 12  2  0
 11 10  1  0
 13 11  1  0
 14 13  1  0
 15 14  1  6
 15 16  1  0
 16  7  1  0
 17 15  1  0
 18 17  2  0
 19 17  1  0
 20 19  1  0
 20 21  1  6
 22 21  1  0
 22 23  2  0
 24 23  1  0
 25 24  1  0
 26 25  2  0
 26 22  1  0
 27 20  1  0
 27 29  1  0
 28 27  2  0
M  END
$$$$
