AAS.pdb
     RDKit          3D

 17 16  0  0  1  0  0  0  0  0999 V2000
   17.8086  -12.2658  -16.5453 C   0  0  0  0  0  0  0  0  0  0  0  0
   18.4980  -11.0447  -17.0835 C   0  0  2  0  0  0  0  0  0  0  0  0
   19.2769  -11.4166  -18.2268 N   0  0  0  0  0  0  0  0  0  0  0  0
   19.3045  -10.3469  -16.0481 C   0  0  0  0  0  0  0  0  0  0  0  0
   18.7235   -9.8964  -15.0530 O   0  0  0  0  0  0  0  0  0  0  0  0
   22.9797   -9.8236  -15.3054 C   0  0  0  0  0  0  0  0  0  0  0  0
   21.5232   -9.4296  -15.2697 C   0  0  2  0  0  0  0  0  0  0  0  0
   20.7060  -10.1864  -16.1706 N   0  0  0  0  0  0  0  0  0  0  0  0
   21.4537   -7.9665  -15.5214 C   0  0  0  0  0  0  0  0  0  0  0  0
   21.4443   -7.5660  -16.7146 O   0  0  0  0  0  0  0  0  0  0  0  0
   19.3239   -5.3923  -13.7088 O   0  0  0  0  0  0  0  0  0  0  0  0
   19.9954   -5.0012  -14.8724 C   0  0  0  0  0  0  0  0  0  0  0  0
   21.4017   -5.5536  -14.7664 C   0  0  2  0  0  0  0  0  0  0  0  0
   21.3972   -6.9832  -14.5187 N   0  0  0  0  0  0  0  0  0  0  0  0
   22.0316   -4.9111  -13.6039 C   0  0  0  0  0  0  0  0  0  0  0  0
   22.3206   -3.7048  -13.6264 O   0  0  0  0  0  0  0  0  0  0  0  0
   22.3054   -5.6524  -12.4767 O   0  0  0  0  0  0  0  0  0  0  0  0
  2  1  1  1
  2  3  1  0
  4  5  2  0
  4  2  1  0
  7  6  1  6
  7  8  1  0
  8  4  1  0
  9  7  1  0
 10  9  2  0
 11 12  1  0
 13 12  1  1
 13 15  1  0
 13 14  1  0
 14  9  1  0
 15 17  1  0
 16 15  2  0
M  END
$$$$
