AAS.pdb
     RDKit          3D

 17 16  0  0  1  0  0  0  0  0999 V2000
   16.7329   -8.2550  -18.1436 C   0  0  0  0  0  0  0  0  0  0  0  0
   17.5667   -9.2579  -17.3987 C   0  0  2  0  0  0  0  0  0  0  0  0
   16.7403  -10.3691  -17.0323 N   0  0  0  0  0  0  0  0  0  0  0  0
   18.2649   -8.6587  -16.2313 C   0  0  0  0  0  0  0  0  0  0  0  0
   17.5928   -8.0417  -15.3956 O   0  0  0  0  0  0  0  0  0  0  0  0
   21.7624   -8.8073  -14.7691 C   0  0  0  0  0  0  0  0  0  0  0  0
   20.4030   -8.1851  -14.9767 C   0  0  2  0  0  0  0  0  0  0  0  0
   19.6649   -8.7749  -16.0535 N   0  0  0  0  0  0  0  0  0  0  0  0
   20.6070   -6.7235  -15.1522 C   0  0  0  0  0  0  0  0  0  0  0  0
   20.8946   -6.2945  -16.3000 O   0  0  0  0  0  0  0  0  0  0  0  0
   19.9225   -2.2200  -13.5956 O   0  0  0  0  0  0  0  0  0  0  0  0
   19.8130   -3.5767  -13.2710 C   0  0  0  0  0  0  0  0  0  0  0  0
   20.6020   -4.3366  -14.3169 C   0  0  2  0  0  0  0  0  0  0  0  0
   20.5026   -5.7711  -14.1238 N   0  0  0  0  0  0  0  0  0  0  0  0
   22.0148   -3.9694  -14.1433 C   0  0  0  0  0  0  0  0  0  0  0  0
   22.7194   -4.5439  -13.2992 O   0  0  0  0  0  0  0  0  0  0  0  0
   22.5653   -2.9781  -14.9239 O   0  0  0  0  0  0  0  0  0  0  0  0
  2  1  1  1
  2  3  1  0
  4  5  2  0
  4  2  1  0
  7  6  1  6
  7  8  1  0
  8  4  1  0
  9  7  1  0
 10  9  2  0
 11 12  1  0
 13 12  1  1
 13 15  1  0
 13 14  1  0
 14  9  1  0
 15 17  1  0
 16 15  2  0
M  END
$$$$
