AAS.pdb
     RDKit          3D

 17 16  0  0  1  0  0  0  0  0999 V2000
   17.5496   -9.5368  -18.3486 C   0  0  0  0  0  0  0  0  0  0  0  0
   18.3402  -10.3262  -17.3448 C   0  0  2  0  0  0  0  0  0  0  0  0
   17.4941  -11.3310  -16.7732 N   0  0  0  0  0  0  0  0  0  0  0  0
   18.9721   -9.4610  -16.3145 C   0  0  0  0  0  0  0  0  0  0  0  0
   18.2691   -8.6225  -15.7372 O   0  0  0  0  0  0  0  0  0  0  0  0
   22.3664   -9.3545  -14.5980 C   0  0  0  0  0  0  0  0  0  0  0  0
   20.9931   -8.8305  -14.9405 C   0  0  2  0  0  0  0  0  0  0  0  0
   20.3437   -9.5712  -15.9807 N   0  0  0  0  0  0  0  0  0  0  0  0
   21.1381   -7.3878  -15.2664 C   0  0  0  0  0  0  0  0  0  0  0  0
   21.4589   -7.0707  -16.4415 O   0  0  0  0  0  0  0  0  0  0  0  0
   18.8238   -4.4795  -15.0928 O   0  0  0  0  0  0  0  0  0  0  0  0
   19.8702   -4.1340  -14.2304 C   0  0  0  0  0  0  0  0  0  0  0  0
   21.0792   -4.9293  -14.6774 C   0  0  2  0  0  0  0  0  0  0  0  0
   20.9426   -6.3370  -14.3537 N   0  0  0  0  0  0  0  0  0  0  0  0
   22.2344   -4.4183  -13.9252 C   0  0  0  0  0  0  0  0  0  0  0  0
   22.7607   -5.1003  -13.0324 O   0  0  0  0  0  0  0  0  0  0  0  0
   22.7402   -3.1704  -14.2117 O   0  0  0  0  0  0  0  0  0  0  0  0
  2  1  1  6
  2  3  1  0
  4  5  2  0
  4  2  1  0
  7  6  1  6
  7  8  1  0
  8  4  1  0
  9  7  1  0
 10  9  2  0
 11 12  1  0
 13 12  1  1
 13 15  1  0
 13 14  1  0
 14  9  1  0
 15 17  1  0
 16 15  2  0
M  END
$$$$
