AAS.pdb
     RDKit          3D

 17 16  0  0  1  0  0  0  0  0999 V2000
   23.2134  -12.7404  -15.0090 C   0  0  0  0  0  0  0  0  0  0  0  0
   22.0423  -12.6008  -15.9391 C   0  0  2  0  0  0  0  0  0  0  0  0
   22.3054  -13.3472  -17.1331 N   0  0  0  0  0  0  0  0  0  0  0  0
   21.7071  -11.1799  -16.2186 C   0  0  0  0  0  0  0  0  0  0  0  0
   22.4277  -10.5471  -17.0003 O   0  0  0  0  0  0  0  0  0  0  0  0
   18.8190   -8.8567  -15.3688 C   0  0  0  0  0  0  0  0  0  0  0  0
   20.2095   -9.1806  -15.8584 C   0  0  2  0  0  0  0  0  0  0  0  0
   20.5957  -10.5392  -15.6191 N   0  0  0  0  0  0  0  0  0  0  0  0
   21.1377   -8.2007  -15.2362 C   0  0  0  0  0  0  0  0  0  0  0  0
   21.7223   -8.5263  -14.1701 O   0  0  0  0  0  0  0  0  0  0  0  0
   23.6755   -4.0810  -15.5477 O   0  0  0  0  0  0  0  0  0  0  0  0
   22.6453   -4.8326  -16.1236 C   0  0  0  0  0  0  0  0  0  0  0  0
   22.4070   -6.0139  -15.2061 C   0  0  2  0  0  0  0  0  0  0  0  0
   21.4169   -6.9233  -15.7516 N   0  0  0  0  0  0  0  0  0  0  0  0
   21.8643   -5.4809  -13.9481 C   0  0  0  0  0  0  0  0  0  0  0  0
   20.6486   -5.2673  -13.8230 O   0  0  0  0  0  0  0  0  0  0  0  0
   22.7108   -5.2149  -12.8955 O   0  0  0  0  0  0  0  0  0  0  0  0
  2  1  1  1
  2  3  1  0
  4  5  2  0
  4  2  1  0
  7  6  1  1
  7  8  1  0
  8  4  1  0
  9  7  1  0
 10  9  2  0
 11 12  1  0
 13 12  1  6
 13 15  1  0
 13 14  1  0
 14  9  1  0
 15 17  1  0
 16 15  2  0
M  END
$$$$
