AAS.pdb
     RDKit          3D

 17 16  0  0  1  0  0  0  0  0999 V2000
   14.9470   -8.6171  -13.9716 C   0  0  0  0  0  0  0  0  0  0  0  0
   14.8494   -7.6492  -15.1160 C   0  0  2  0  0  0  0  0  0  0  0  0
   14.2592   -8.3148  -16.2388 N   0  0  0  0  0  0  0  0  0  0  0  0
   16.1591   -7.0287  -15.4463 C   0  0  0  0  0  0  0  0  0  0  0  0
   17.1430   -7.7662  -15.5827 O   0  0  0  0  0  0  0  0  0  0  0  0
   17.3666   -3.5078  -16.2596 C   0  0  0  0  0  0  0  0  0  0  0  0
   17.5377   -4.9707  -15.9297 C   0  0  2  0  0  0  0  0  0  0  0  0
   16.3073   -5.6297  -15.6070 N   0  0  0  0  0  0  0  0  0  0  0  0
   18.5433   -5.0641  -14.8393 C   0  0  0  0  0  0  0  0  0  0  0  0
   18.1456   -4.9567  -13.6499 O   0  0  0  0  0  0  0  0  0  0  0  0
   22.6838   -6.6513  -13.1185 O   0  0  0  0  0  0  0  0  0  0  0  0
   21.8192   -6.5858  -14.2167 C   0  0  0  0  0  0  0  0  0  0  0  0
   20.8905   -5.4158  -13.9666 C   0  0  2  0  0  0  0  0  0  0  0  0
   19.9204   -5.2654  -15.0350 N   0  0  0  0  0  0  0  0  0  0  0  0
   21.7190   -4.2015  -13.9548 C   0  0  0  0  0  0  0  0  0  0  0  0
   21.8319   -3.5020  -14.9732 O   0  0  0  0  0  0  0  0  0  0  0  0
   22.3781   -3.8336  -12.8036 O   0  0  0  0  0  0  0  0  0  0  0  0
  2  1  1  1
  2  3  1  0
  4  5  2  0
  4  2  1  0
  7  6  1  1
  7  8  1  0
  8  4  1  0
  9  7  1  0
 10  9  2  0
 11 12  1  0
 13 12  1  6
 13 15  1  0
 13 14  1  0
 14  9  1  0
 15 17  1  0
 16 15  2  0
M  END
$$$$
