AAS.pdb
     RDKit          3D

 17 16  0  0  1  0  0  0  0  0999 V2000
   14.5570  -11.5325  -13.7005 C   0  0  0  0  0  0  0  0  0  0  0  0
   15.7503  -10.6209  -13.7339 C   0  0  2  0  0  0  0  0  0  0  0  0
   16.8491  -11.3155  -14.3357 N   0  0  0  0  0  0  0  0  0  0  0  0
   16.0866  -10.0786  -12.3914 C   0  0  0  0  0  0  0  0  0  0  0  0
   15.4324  -10.4699  -11.4169 O   0  0  0  0  0  0  0  0  0  0  0  0
   18.7926   -7.8127  -10.9683 C   0  0  0  0  0  0  0  0  0  0  0  0
   17.4733   -8.5454  -10.9436 C   0  0  2  0  0  0  0  0  0  0  0  0
   17.1257   -9.1355  -12.2018 N   0  0  0  0  0  0  0  0  0  0  0  0
   16.4455   -7.5907  -10.4527 C   0  0  0  0  0  0  0  0  0  0  0  0
   15.7749   -6.9471  -11.3015 O   0  0  0  0  0  0  0  0  0  0  0  0
   13.9284   -5.6462   -6.7870 O   0  0  0  0  0  0  0  0  0  0  0  0
   14.9992   -6.4845   -7.1169 C   0  0  0  0  0  0  0  0  0  0  0  0
   15.1479   -6.4233   -8.6230 C   0  0  2  0  0  0  0  0  0  0  0  0
   16.1606   -7.3473   -9.0981 N   0  0  0  0  0  0  0  0  0  0  0  0
   15.6036   -5.0662   -8.9572 C   0  0  0  0  0  0  0  0  0  0  0  0
   16.8039   -4.7633   -8.8762 O   0  0  0  0  0  0  0  0  0  0  0  0
   14.6917   -4.1188   -9.3648 O   0  0  0  0  0  0  0  0  0  0  0  0
  2  1  1  1
  2  3  1  0
  4  5  2  0
  4  2  1  0
  7  6  1  6
  7  8  1  0
  8  4  1  0
  9  7  1  0
 10  9  2  0
 11 12  1  0
 13 12  1  1
 13 15  1  0
 13 14  1  0
 14  9  1  0
 15 17  1  0
 16 15  2  0
M  END
$$$$
