AAS.pdb
     RDKit          3D

 17 16  0  0  1  0  0  0  0  0999 V2000
   13.2976  -11.7120  -14.0180 C   0  0  0  0  0  0  0  0  0  0  0  0
   14.7891  -11.8796  -13.9593 C   0  0  2  0  0  0  0  0  0  0  0  0
   15.1010  -12.9575  -13.0689 N   0  0  0  0  0  0  0  0  0  0  0  0
   15.4868  -10.6191  -13.5934 C   0  0  0  0  0  0  0  0  0  0  0  0
   15.4865   -9.6876  -14.4076 O   0  0  0  0  0  0  0  0  0  0  0  0
   16.9882   -9.1506  -10.4457 C   0  0  0  0  0  0  0  0  0  0  0  0
   16.8465   -9.2787  -11.9429 C   0  0  2  0  0  0  0  0  0  0  0  0
   16.1447  -10.4595  -12.3498 N   0  0  0  0  0  0  0  0  0  0  0  0
   18.2107   -9.1909  -12.5260 C   0  0  0  0  0  0  0  0  0  0  0  0
   18.9057  -10.2390  -12.5791 O   0  0  0  0  0  0  0  0  0  0  0  0
   18.9555   -7.5972  -15.6519 O   0  0  0  0  0  0  0  0  0  0  0  0
   20.0471   -8.2916  -15.1188 C   0  0  0  0  0  0  0  0  0  0  0  0
   20.1037   -7.9431  -13.6460 C   0  0  2  0  0  0  0  0  0  0  0  0
   18.7925   -8.0145  -13.0290 N   0  0  0  0  0  0  0  0  0  0  0  0
   20.5563   -6.5477  -13.5495 C   0  0  0  0  0  0  0  0  0  0  0  0
   19.7806   -5.6547  -13.1756 O   0  0  0  0  0  0  0  0  0  0  0  0
   21.8540   -6.2248  -13.8766 O   0  0  0  0  0  0  0  0  0  0  0  0
  2  1  1  1
  2  3  1  0
  4  5  2  0
  4  2  1  0
  7  6  1  1
  7  8  1  0
  8  4  1  0
  9  7  1  0
 10  9  2  0
 11 12  1  0
 13 12  1  6
 13 15  1  0
 13 14  1  0
 14  9  1  0
 15 17  1  0
 16 15  2  0
M  END
$$$$
