AAS.pdb
     RDKit          3D

 17 16  0  0  1  0  0  0  0  0999 V2000
   17.9805  -10.6619  -18.5077 C   0  0  0  0  0  0  0  0  0  0  0  0
   19.0110  -11.3907  -17.6936 C   0  0  2  0  0  0  0  0  0  0  0  0
   18.4377  -12.6066  -17.1986 N   0  0  0  0  0  0  0  0  0  0  0  0
   19.5776  -10.5461  -16.6096 C   0  0  0  0  0  0  0  0  0  0  0  0
   18.8165   -9.7915  -15.9916 O   0  0  0  0  0  0  0  0  0  0  0  0
   22.9593  -10.2177  -14.8966 C   0  0  0  0  0  0  0  0  0  0  0  0
   21.5672   -9.7667  -15.2666 C   0  0  2  0  0  0  0  0  0  0  0  0
   20.9518  -10.5831  -16.2701 N   0  0  0  0  0  0  0  0  0  0  0  0
   21.6555   -8.3370  -15.6629 C   0  0  0  0  0  0  0  0  0  0  0  0
   21.8951   -8.0655  -16.8683 O   0  0  0  0  0  0  0  0  0  0  0  0
   20.4148   -3.8705  -15.5877 O   0  0  0  0  0  0  0  0  0  0  0  0
   20.2077   -5.2097  -15.2389 C   0  0  0  0  0  0  0  0  0  0  0  0
   21.5758   -5.8567  -15.1768 C   0  0  2  0  0  0  0  0  0  0  0  0
   21.4903   -7.2513  -14.7858 N   0  0  0  0  0  0  0  0  0  0  0  0
   22.3378   -5.1563  -14.1328 C   0  0  0  0  0  0  0  0  0  0  0  0
   22.2678   -5.5171  -12.9479 O   0  0  0  0  0  0  0  0  0  0  0  0
   23.1386   -4.0885  -14.4697 O   0  0  0  0  0  0  0  0  0  0  0  0
  2  1  1  1
  2  3  1  0
  4  5  2  0
  4  2  1  0
  7  6  1  6
  7  8  1  0
  8  4  1  0
  9  7  1  0
 10  9  2  0
 11 12  1  0
 13 12  1  1
 13 15  1  0
 13 14  1  0
 14  9  1  0
 15 17  1  0
 16 15  2  0
M  END
$$$$
