AAS.pdb
     RDKit          3D

 17 16  0  0  1  0  0  0  0  0999 V2000
   25.2635  -11.2535  -15.3905 C   0  0  0  0  0  0  0  0  0  0  0  0
   24.1472  -11.4219  -16.3811 C   0  0  2  0  0  0  0  0  0  0  0  0
   24.6462  -12.1166  -17.5302 N   0  0  0  0  0  0  0  0  0  0  0  0
   23.5023  -10.1297  -16.7330 C   0  0  0  0  0  0  0  0  0  0  0  0
   24.1497   -9.3089  -17.3946 O   0  0  0  0  0  0  0  0  0  0  0  0
   20.0157   -8.6515  -16.4100 C   0  0  0  0  0  0  0  0  0  0  0  0
   21.5083   -8.5864  -16.6247 C   0  0  2  0  0  0  0  0  0  0  0  0
   22.1799   -9.8180  -16.3342 N   0  0  0  0  0  0  0  0  0  0  0  0
   22.0223   -7.4475  -15.8200 C   0  0  0  0  0  0  0  0  0  0  0  0
   22.4809   -7.6864  -14.6724 O   0  0  0  0  0  0  0  0  0  0  0  0
   23.4329   -2.8155  -15.5939 O   0  0  0  0  0  0  0  0  0  0  0  0
   22.7165   -3.7531  -16.3459 C   0  0  0  0  0  0  0  0  0  0  0  0
   22.6575   -5.0187  -15.5160 C   0  0  2  0  0  0  0  0  0  0  0  0
   22.0363   -6.1081  -16.2457 N   0  0  0  0  0  0  0  0  0  0  0  0
   21.8072   -4.7324  -14.3514 C   0  0  0  0  0  0  0  0  0  0  0  0
   20.5708   -4.7714  -14.4451 O   0  0  0  0  0  0  0  0  0  0  0  0
   22.3855   -4.4172  -13.1425 O   0  0  0  0  0  0  0  0  0  0  0  0
  2  1  1  1
  2  3  1  0
  4  5  2  0
  4  2  1  0
  7  6  1  1
  7  8  1  0
  8  4  1  0
  9  7  1  0
 10  9  2  0
 11 12  1  0
 13 12  1  6
 13 15  1  0
 13 14  1  0
 14  9  1  0
 15 17  1  0
 16 15  2  0
M  END
$$$$
