AAS.pdb
     RDKit          3D

 17 16  0  0  1  0  0  0  0  0999 V2000
   23.5640  -11.8725  -14.8671 C   0  0  0  0  0  0  0  0  0  0  0  0
   22.3118  -11.8320  -15.6955 C   0  0  2  0  0  0  0  0  0  0  0  0
   22.5063  -12.6270  -16.8712 N   0  0  0  0  0  0  0  0  0  0  0  0
   21.8864  -10.4433  -16.0116 C   0  0  0  0  0  0  0  0  0  0  0  0
   22.5464   -9.7977  -16.8352 O   0  0  0  0  0  0  0  0  0  0  0  0
   18.8995   -8.2513  -15.1683 C   0  0  0  0  0  0  0  0  0  0  0  0
   20.3093   -8.5078  -15.6423 C   0  0  2  0  0  0  0  0  0  0  0  0
   20.7569   -9.8470  -15.4004 N   0  0  0  0  0  0  0  0  0  0  0  0
   21.1826   -7.4862  -15.0080 C   0  0  0  0  0  0  0  0  0  0  0  0
   21.7199   -7.7627  -13.9039 O   0  0  0  0  0  0  0  0  0  0  0  0
   23.5617   -3.2649  -15.2837 O   0  0  0  0  0  0  0  0  0  0  0  0
   22.5978   -4.0743  -15.8950 C   0  0  0  0  0  0  0  0  0  0  0  0
   22.3907   -5.2648  -14.9819 C   0  0  2  0  0  0  0  0  0  0  0  0
   21.4589   -6.2198  -15.5516 N   0  0  0  0  0  0  0  0  0  0  0  0
   21.7906   -4.7569  -13.7396 C   0  0  0  0  0  0  0  0  0  0  0  0
   20.5665   -4.5733  -13.6565 O   0  0  0  0  0  0  0  0  0  0  0  0
   22.5923   -4.4811  -12.6550 O   0  0  0  0  0  0  0  0  0  0  0  0
  2  1  1  6
  2  3  1  0
  4  5  2  0
  4  2  1  0
  7  6  1  1
  7  8  1  0
  8  4  1  0
  9  7  1  0
 10  9  2  0
 11 12  1  0
 13 12  1  6
 13 15  1  0
 13 14  1  0
 14  9  1  0
 15 17  1  0
 16 15  2  0
M  END
$$$$
