AAS.pdb
     RDKit          3D

 17 16  0  0  1  0  0  0  0  0999 V2000
   18.6072  -10.8618  -17.7640 C   0  0  0  0  0  0  0  0  0  0  0  0
   19.8752  -10.5423  -17.0250 C   0  0  2  0  0  0  0  0  0  0  0  0
   20.3452  -11.7285  -16.3739 N   0  0  0  0  0  0  0  0  0  0  0  0
   19.7107   -9.4037  -16.0837 C   0  0  0  0  0  0  0  0  0  0  0  0
   18.5645   -9.0544  -15.7758 O   0  0  0  0  0  0  0  0  0  0  0  0
   21.9916   -7.4868  -13.7564 C   0  0  0  0  0  0  0  0  0  0  0  0
   20.7334   -7.6608  -14.5717 C   0  0  2  0  0  0  0  0  0  0  0  0
   20.8210   -8.7161  -15.5365 N   0  0  0  0  0  0  0  0  0  0  0  0
   20.4181   -6.3447  -15.1860 C   0  0  0  0  0  0  0  0  0  0  0  0
   20.8064   -6.1273  -16.3635 O   0  0  0  0  0  0  0  0  0  0  0  0
   17.0987   -4.4323  -14.6978 O   0  0  0  0  0  0  0  0  0  0  0  0
   18.0987   -3.4630  -14.5616 C   0  0  0  0  0  0  0  0  0  0  0  0
   19.3556   -4.0501  -15.1695 C   0  0  2  0  0  0  0  0  0  0  0  0
   19.7118   -5.3113  -14.5470 N   0  0  0  0  0  0  0  0  0  0  0  0
   20.4486   -3.1051  -14.8984 C   0  0  0  0  0  0  0  0  0  0  0  0
   21.3828   -3.4170  -14.1440 O   0  0  0  0  0  0  0  0  0  0  0  0
   20.4388   -1.8602  -15.4859 O   0  0  0  0  0  0  0  0  0  0  0  0
  2  1  1  1
  2  3  1  0
  4  5  2  0
  4  2  1  0
  7  6  1  6
  7  8  1  0
  8  4  1  0
  9  7  1  0
 10  9  2  0
 11 12  1  0
 13 12  1  1
 13 15  1  0
 13 14  1  0
 14  9  1  0
 15 17  1  0
 16 15  2  0
M  END
$$$$
