AAS.pdb
     RDKit          3D

 17 16  0  0  1  0  0  0  0  0999 V2000
   16.7943  -12.6944  -14.4714 C   0  0  0  0  0  0  0  0  0  0  0  0
   16.0485  -11.3970  -14.3428 C   0  0  2  0  0  0  0  0  0  0  0  0
   15.9878  -10.7664  -15.6276 N   0  0  0  0  0  0  0  0  0  0  0  0
   16.6295  -10.5105  -13.3007 C   0  0  0  0  0  0  0  0  0  0  0  0
   16.6898  -10.9288  -12.1379 O   0  0  0  0  0  0  0  0  0  0  0  0
   18.3246   -7.1042  -13.2450 C   0  0  0  0  0  0  0  0  0  0  0  0
   17.6002   -8.2785  -12.6333 C   0  0  2  0  0  0  0  0  0  0  0  0
   17.1105   -9.2133  -13.6021 N   0  0  0  0  0  0  0  0  0  0  0  0
   16.5239   -7.7322  -11.7661 C   0  0  0  0  0  0  0  0  0  0  0  0
   15.3985   -7.5061  -12.2824 O   0  0  0  0  0  0  0  0  0  0  0  0
   14.6796   -7.0621   -7.3798 O   0  0  0  0  0  0  0  0  0  0  0  0
   15.8439   -7.3808   -8.0874 C   0  0  0  0  0  0  0  0  0  0  0  0
   15.5884   -7.0048   -9.5322 C   0  0  2  0  0  0  0  0  0  0  0  0
   16.6665   -7.4446  -10.3977 N   0  0  0  0  0  0  0  0  0  0  0  0
   15.5485   -5.5367   -9.5958 C   0  0  0  0  0  0  0  0  0  0  0  0
   16.5542   -4.8895   -9.9257 O   0  0  0  0  0  0  0  0  0  0  0  0
   14.3847   -4.8694   -9.2867 O   0  0  0  0  0  0  0  0  0  0  0  0
  2  1  1  6
  2  3  1  0
  4  5  2  0
  4  2  1  0
  7  6  1  6
  7  8  1  0
  8  4  1  0
  9  7  1  0
 10  9  2  0
 11 12  1  0
 13 12  1  1
 13 15  1  0
 13 14  1  0
 14  9  1  0
 15 17  1  0
 16 15  2  0
M  END
$$$$
