AAS.pdb
     RDKit          3D

 17 16  0  0  1  0  0  0  0  0999 V2000
   15.4710  -10.5228  -15.7626 C   0  0  0  0  0  0  0  0  0  0  0  0
   16.0734  -10.4597  -17.1370 C   0  0  2  0  0  0  0  0  0  0  0  0
   16.2708  -11.7939  -17.6197 N   0  0  0  0  0  0  0  0  0  0  0  0
   17.3203   -9.6514  -17.1725 C   0  0  0  0  0  0  0  0  0  0  0  0
   18.3825  -10.1917  -16.8402 O   0  0  0  0  0  0  0  0  0  0  0  0
   18.2310   -6.1555  -18.3827 C   0  0  0  0  0  0  0  0  0  0  0  0
   18.4994   -7.4920  -17.7347 C   0  0  2  0  0  0  0  0  0  0  0  0
   17.3230   -8.2932  -17.5728 N   0  0  0  0  0  0  0  0  0  0  0  0
   19.1974   -7.2288  -16.4493 C   0  0  0  0  0  0  0  0  0  0  0  0
   18.4994   -7.0167  -15.4236 O   0  0  0  0  0  0  0  0  0  0  0  0
   23.2471   -7.5907  -16.0935 O   0  0  0  0  0  0  0  0  0  0  0  0
   22.5372   -7.7554  -14.8990 C   0  0  0  0  0  0  0  0  0  0  0  0
   21.2710   -6.9351  -15.0320 C   0  0  2  0  0  0  0  0  0  0  0  0
   20.5933   -7.1977  -16.2877 N   0  0  0  0  0  0  0  0  0  0  0  0
   21.6716   -5.5206  -15.0395 C   0  0  0  0  0  0  0  0  0  0  0  0
   21.4778   -4.8128  -16.0397 O   0  0  0  0  0  0  0  0  0  0  0  0
   22.2683   -4.9722  -13.9267 O   0  0  0  0  0  0  0  0  0  0  0  0
  2  1  1  1
  2  3  1  0
  4  5  2  0
  4  2  1  0
  7  6  1  1
  7  8  1  0
  8  4  1  0
  9  7  1  0
 10  9  2  0
 11 12  1  0
 13 12  1  6
 13 15  1  0
 13 14  1  0
 14  9  1  0
 15 17  1  0
 16 15  2  0
M  END
$$$$
