AAS.pdb
     RDKit          3D

 17 16  0  0  1  0  0  0  0  0999 V2000
   17.7016  -12.4903  -15.7817 C   0  0  0  0  0  0  0  0  0  0  0  0
   17.3581  -11.1477  -15.2026 C   0  0  2  0  0  0  0  0  0  0  0  0
   16.0394  -10.7824  -15.6262 N   0  0  0  0  0  0  0  0  0  0  0  0
   18.3703  -10.1114  -15.5357 C   0  0  0  0  0  0  0  0  0  0  0  0
   19.5008  -10.2119  -15.0432 O   0  0  0  0  0  0  0  0  0  0  0  0
   18.5436   -7.1788  -17.9517 C   0  0  0  0  0  0  0  0  0  0  0  0
   19.0182   -8.0207  -16.7922 C   0  0  2  0  0  0  0  0  0  0  0  0
   18.0763   -9.0237  -16.3934 N   0  0  0  0  0  0  0  0  0  0  0  0
   19.3726   -7.0926  -15.6869 C   0  0  0  0  0  0  0  0  0  0  0  0
   18.4742   -6.7715  -14.8659 O   0  0  0  0  0  0  0  0  0  0  0  0
   22.6998   -5.0426  -12.8815 O   0  0  0  0  0  0  0  0  0  0  0  0
   22.4864   -5.8100  -14.0320 C   0  0  0  0  0  0  0  0  0  0  0  0
   21.0117   -5.6981  -14.3588 C   0  0  2  0  0  0  0  0  0  0  0  0
   20.6484   -6.5386  -15.4843 N   0  0  0  0  0  0  0  0  0  0  0  0
   20.7618   -4.3049  -14.7557 C   0  0  0  0  0  0  0  0  0  0  0  0
   20.9357   -3.9395  -15.9284 O   0  0  0  0  0  0  0  0  0  0  0  0
   20.3300   -3.3932  -13.8189 O   0  0  0  0  0  0  0  0  0  0  0  0
  2  1  1  6
  2  3  1  0
  4  5  2  0
  4  2  1  0
  7  6  1  6
  7  8  1  0
  8  4  1  0
  9  7  1  0
 10  9  2  0
 11 12  1  0
 13 12  1  6
 13 15  1  0
 13 14  1  0
 14  9  1  0
 15 17  1  0
 16 15  2  0
M  END
$$$$
