AAS.pdb
     RDKit          3D

 17 16  0  0  1  0  0  0  0  0999 V2000
   19.6271   -7.5932  -17.8020 C   0  0  0  0  0  0  0  0  0  0  0  0
   19.7682   -8.0855  -16.3901 C   0  0  2  0  0  0  0  0  0  0  0  0
   18.6708   -8.9559  -16.0895 N   0  0  0  0  0  0  0  0  0  0  0  0
   19.8966   -6.9732  -15.4125 C   0  0  0  0  0  0  0  0  0  0  0  0
   18.8684   -6.3953  -15.0389 O   0  0  0  0  0  0  0  0  0  0  0  0
   22.7091   -5.4995  -13.3234 C   0  0  0  0  0  0  0  0  0  0  0  0
   21.3454   -5.4931  -13.9703 C   0  0  2  0  0  0  0  0  0  0  0  0
   21.1525   -6.5628  -14.9035 N   0  0  0  0  0  0  0  0  0  0  0  0
   21.1523   -4.1532  -14.5836 C   0  0  0  0  0  0  0  0  0  0  0  0
   21.5558   -3.9724  -15.7621 O   0  0  0  0  0  0  0  0  0  0  0  0
   19.0088    0.1852  -14.5269 O   0  0  0  0  0  0  0  0  0  0  0  0
   19.2002   -1.0114  -13.8274 C   0  0  0  0  0  0  0  0  0  0  0  0
   20.2635   -1.7858  -14.5782 C   0  0  2  0  0  0  0  0  0  0  0  0
   20.5470   -3.0587  -13.9424 N   0  0  0  0  0  0  0  0  0  0  0  0
   21.4968   -0.9874  -14.5263 C   0  0  0  0  0  0  0  0  0  0  0  0
   22.2514   -1.0508  -13.5436 O   0  0  0  0  0  0  0  0  0  0  0  0
   21.8211   -0.1595  -15.5773 O   0  0  0  0  0  0  0  0  0  0  0  0
  2  1  1  6
  2  3  1  0
  4  5  2  0
  4  2  1  0
  7  6  1  6
  7  8  1  0
  8  4  1  0
  9  7  1  0
 10  9  2  0
 11 12  1  0
 13 12  1  1
 13 15  1  0
 13 14  1  0
 14  9  1  0
 15 17  1  0
 16 15  2  0
M  END
$$$$
