AAS.pdb
     RDKit          3D

 17 16  0  0  1  0  0  0  0  0999 V2000
   17.6928  -11.2668  -15.0059 C   0  0  0  0  0  0  0  0  0  0  0  0
   18.5839  -11.2015  -16.2132 C   0  0  2  0  0  0  0  0  0  0  0  0
   19.3695  -12.3977  -16.2763 N   0  0  0  0  0  0  0  0  0  0  0  0
   19.4178   -9.9712  -16.2359 C   0  0  0  0  0  0  0  0  0  0  0  0
   20.4396   -9.9389  -15.5391 O   0  0  0  0  0  0  0  0  0  0  0  0
   19.4652   -6.7762  -18.2949 C   0  0  0  0  0  0  0  0  0  0  0  0
   19.8616   -7.6544  -17.1331 C   0  0  2  0  0  0  0  0  0  0  0  0
   19.0757   -8.8474  -17.0264 N   0  0  0  0  0  0  0  0  0  0  0  0
   19.8061   -6.8175  -15.9061 C   0  0  0  0  0  0  0  0  0  0  0  0
   18.7633   -6.8588  -15.2023 O   0  0  0  0  0  0  0  0  0  0  0  0
   22.8542   -5.7723  -13.5004 O   0  0  0  0  0  0  0  0  0  0  0  0
   22.1282   -4.6329  -13.8647 C   0  0  0  0  0  0  0  0  0  0  0  0
   20.7591   -5.1132  -14.2994 C   0  0  2  0  0  0  0  0  0  0  0  0
   20.8395   -5.9733  -15.4651 N   0  0  0  0  0  0  0  0  0  0  0  0
   19.9869   -3.9238  -14.6866 C   0  0  0  0  0  0  0  0  0  0  0  0
   19.8391   -3.6262  -15.8819 O   0  0  0  0  0  0  0  0  0  0  0  0
   19.4205   -3.1293  -13.7156 O   0  0  0  0  0  0  0  0  0  0  0  0
  2  1  1  1
  2  3  1  0
  4  5  2  0
  4  2  1  0
  7  6  1  6
  7  8  1  0
  8  4  1  0
  9  7  1  0
 10  9  2  0
 11 12  1  0
 13 12  1  6
 13 15  1  0
 13 14  1  0
 14  9  1  0
 15 17  1  0
 16 15  2  0
M  END
$$$$
