KEI.pdb
     RDKit          3D

 27 26  0  0  1  0  0  0  0  0999 V2000
    5.6757  -16.8592   20.8773 N   0  0  0  0  0  0  0  0  0  0  0  0
    7.0000  -16.4343   21.1782 C   0  0  1  0  0  0  0  0  0  0  0  0
    7.2687  -14.9690   20.9225 C   0  0  0  0  0  0  0  0  0  0  0  0
    7.8485  -14.6876   19.5903 C   0  0  0  0  0  0  0  0  0  0  0  0
    8.1662  -13.2849   19.2424 C   0  0  0  0  0  0  0  0  0  0  0  0
    8.7276  -13.0459   17.8829 C   0  0  0  0  0  0  0  0  0  0  0  0
    8.8976  -11.6554   17.6170 N   0  0  0  0  0  0  0  0  0  0  0  0
    7.3002  -16.7465   22.6079 C   0  0  0  0  0  0  0  0  0  0  0  0
    6.3817  -16.5825   23.4881 O   0  0  0  0  0  0  0  0  0  0  0  0
    8.5629  -17.2135   22.9877 N   0  0  0  0  0  0  0  0  0  0  0  0
    8.8762  -17.5769   24.4144 C   0  0  1  0  0  0  0  0  0  0  0  0
    9.8741  -18.6577   24.3228 C   0  0  0  0  0  0  0  0  0  0  0  0
   10.5366  -19.2191   25.4981 C   0  0  0  0  0  0  0  0  0  0  0  0
   11.5425  -20.2569   25.3234 C   0  0  0  0  0  0  0  0  0  0  0  0
   12.4219  -20.1930   24.4360 O   0  0  0  0  0  0  0  0  0  0  0  0
    9.3095  -16.3520   25.0514 C   0  0  0  0  0  0  0  0  0  0  0  0
   10.2227  -15.6377   24.4971 O   0  0  0  0  0  0  0  0  0  0  0  0
   11.5478  -21.3675   26.1566 O   0  0  0  0  0  0  0  0  0  0  0  0
    6.4725  -12.3862   26.2797 C   0  0  0  0  0  0  0  0  0  0  0  0
    7.6276  -13.3171   26.0464 C   0  0  0  0  0  0  0  0  0  0  0  0
    8.3255  -13.7129   27.3092 C   0  0  2  0  0  0  0  0  0  0  0  0
    8.9400  -12.5767   28.0495 C   0  0  0  0  0  0  0  0  0  0  0  0
    9.4457  -14.6951   26.9308 C   0  0  2  0  0  0  0  0  0  0  0  0
    8.7988  -15.8137   26.2846 N   0  0  0  0  0  0  0  0  0  0  0  0
   10.2268  -15.0765   28.1068 C   0  0  0  0  0  0  0  0  0  0  0  0
   11.2867  -14.3192   28.5567 O   0  0  0  0  0  0  0  0  0  0  0  0
    9.9734  -16.1203   28.7725 O   0  0  0  0  0  0  0  0  0  0  0  0
  2  1  1  1
  3  2  1  0
  4  3  1  0
  4  5  1  0
  5  6  1  0
  7  6  1  0
  8  2  1  0
  8  9  2  0
 10  8  1  0
 11 10  1  0
 11 12  1  6
 13 12  1  0
 13 14  1  0
 14 15  2  0
 16 24  1  0
 16 11  1  0
 17 16  2  0
 18 14  1  0
 19 20  1  0
 20 21  1  0
 21 22  1  6
 23 24  1  1
 23 21  1  0
 25 23  1  0
 26 25  1  0
 27 25  2  0
M  END
$$$$
