KEI.pdb
     RDKit          3D

 27 26  0  0  1  0  0  0  0  0999 V2000
    6.6409  -16.7159   19.4892 N   0  0  0  0  0  0  0  0  0  0  0  0
    7.7329  -15.9342   19.9596 C   0  0  1  0  0  0  0  0  0  0  0  0
    7.5216  -14.4394   19.8828 C   0  0  0  0  0  0  0  0  0  0  0  0
    7.2140  -13.9448   18.5224 C   0  0  0  0  0  0  0  0  0  0  0  0
    8.3367  -13.5234   17.6555 C   0  0  0  0  0  0  0  0  0  0  0  0
    7.9859  -13.0905   16.2735 C   0  0  0  0  0  0  0  0  0  0  0  0
    9.1477  -12.8641   15.4784 N   0  0  0  0  0  0  0  0  0  0  0  0
    8.0341  -16.3157   21.3721 C   0  0  0  0  0  0  0  0  0  0  0  0
    7.0622  -16.5566   22.1737 O   0  0  0  0  0  0  0  0  0  0  0  0
    9.3557  -16.4125   21.8202 N   0  0  0  0  0  0  0  0  0  0  0  0
    9.6878  -16.8882   23.2092 C   0  0  1  0  0  0  0  0  0  0  0  0
   11.0104  -17.5271   23.0880 C   0  0  0  0  0  0  0  0  0  0  0  0
   11.7023  -18.1265   24.2270 C   0  0  0  0  0  0  0  0  0  0  0  0
   11.3207  -19.4584   24.6742 C   0  0  0  0  0  0  0  0  0  0  0  0
   11.5530  -20.4836   23.9962 O   0  0  0  0  0  0  0  0  0  0  0  0
    9.6122  -15.7194   24.0589 C   0  0  0  0  0  0  0  0  0  0  0  0
   10.4457  -14.7563   23.8882 O   0  0  0  0  0  0  0  0  0  0  0  0
   10.6741  -19.6243   25.8917 O   0  0  0  0  0  0  0  0  0  0  0  0
    6.5011  -11.4593   26.8000 C   0  0  0  0  0  0  0  0  0  0  0  0
    7.6799  -12.3887   26.8416 C   0  0  0  0  0  0  0  0  0  0  0  0
    7.5132  -13.5865   25.9607 C   0  0  2  0  0  0  0  0  0  0  0  0
    6.3843  -14.4768   26.3474 C   0  0  0  0  0  0  0  0  0  0  0  0
    8.8123  -14.4042   26.0405 C   0  0  2  0  0  0  0  0  0  0  0  0
    8.6559  -15.4999   25.1119 N   0  0  0  0  0  0  0  0  0  0  0  0
    9.0738  -14.8388   27.4122 C   0  0  0  0  0  0  0  0  0  0  0  0
    9.5610  -13.9771   28.3710 O   0  0  0  0  0  0  0  0  0  0  0  0
    8.8689  -16.0266   27.7917 O   0  0  0  0  0  0  0  0  0  0  0  0
  2  1  1  1
  3  2  1  0
  4  3  1  0
  4  5  1  0
  5  6  1  0
  7  6  1  0
  8  2  1  0
  8  9  2  0
 10  8  1  0
 11 10  1  0
 11 12  1  6
 13 12  1  0
 13 14  1  0
 14 15  2  0
 16 24  1  0
 16 11  1  0
 17 16  2  0
 18 14  1  0
 19 20  1  0
 20 21  1  0
 21 22  1  1
 23 24  1  6
 23 21  1  0
 25 23  1  0
 26 25  1  0
 27 25  2  0
M  END
$$$$
