KEI.pdb
     RDKit          3D

 27 26  0  0  1  0  0  0  0  0999 V2000
    7.3217  -17.3116   19.6948 N   0  0  0  0  0  0  0  0  0  0  0  0
    8.2003  -16.3644   20.2913 C   0  0  1  0  0  0  0  0  0  0  0  0
    7.8507  -14.9187   20.0221 C   0  0  0  0  0  0  0  0  0  0  0  0
    8.3354  -14.4159   18.7174 C   0  0  0  0  0  0  0  0  0  0  0  0
    8.0876  -12.9983   18.3727 C   0  0  0  0  0  0  0  0  0  0  0  0
    8.5263  -12.5546   17.0195 C   0  0  0  0  0  0  0  0  0  0  0  0
    8.0435  -13.4215   15.9955 N   0  0  0  0  0  0  0  0  0  0  0  0
    8.2374  -16.5941   21.7669 C   0  0  0  0  0  0  0  0  0  0  0  0
    7.1376  -16.8017   22.3935 O   0  0  0  0  0  0  0  0  0  0  0  0
    9.4516  -16.5861   22.4614 N   0  0  0  0  0  0  0  0  0  0  0  0
    9.5347  -16.9682   23.9150 C   0  0  1  0  0  0  0  0  0  0  0  0
   10.6973  -17.8693   24.0070 C   0  0  0  0  0  0  0  0  0  0  0  0
   11.1768  -18.4083   25.2779 C   0  0  0  0  0  0  0  0  0  0  0  0
   12.3494  -19.2710   25.2908 C   0  0  0  0  0  0  0  0  0  0  0  0
   13.5048  -18.8317   25.0989 O   0  0  0  0  0  0  0  0  0  0  0  0
    9.6236  -15.7244   24.6491 C   0  0  0  0  0  0  0  0  0  0  0  0
   10.5178  -14.8600   24.3260 O   0  0  0  0  0  0  0  0  0  0  0  0
   12.2082  -20.6330   25.5208 O   0  0  0  0  0  0  0  0  0  0  0  0
    5.8106  -12.6540   27.4591 C   0  0  0  0  0  0  0  0  0  0  0  0
    6.8216  -13.7171   27.1381 C   0  0  0  0  0  0  0  0  0  0  0  0
    8.0529  -13.1760   26.4828 C   0  0  2  0  0  0  0  0  0  0  0  0
    7.8882  -12.8635   25.0365 C   0  0  0  0  0  0  0  0  0  0  0  0
    9.1542  -14.2400   26.6169 C   0  0  2  0  0  0  0  0  0  0  0  0
    8.7751  -15.3243   25.7405 N   0  0  0  0  0  0  0  0  0  0  0  0
    9.3183  -14.6506   28.0108 C   0  0  0  0  0  0  0  0  0  0  0  0
    9.8267  -13.7994   28.9680 O   0  0  0  0  0  0  0  0  0  0  0  0
    9.0046  -15.8070   28.4124 O   0  0  0  0  0  0  0  0  0  0  0  0
  2  1  1  6
  3  2  1  0
  4  3  1  0
  4  5  1  0
  5  6  1  0
  7  6  1  0
  8  2  1  0
  8  9  2  0
 10  8  1  0
 11 10  1  0
 11 12  1  6
 13 12  1  0
 13 14  1  0
 14 15  2  0
 16 24  1  0
 16 11  1  0
 17 16  2  0
 18 14  1  0
 19 20  1  0
 20 21  1  0
 21 22  1  6
 23 24  1  6
 23 21  1  0
 25 23  1  0
 26 25  1  0
 27 25  2  0
M  END
$$$$
