KEI.pdb
     RDKit          3D

 27 26  0  0  1  0  0  0  0  0999 V2000
    6.5657  -16.2889   20.5674 N   0  0  0  0  0  0  0  0  0  0  0  0
    7.6579  -15.4969   21.0198 C   0  0  1  0  0  0  0  0  0  0  0  0
    7.3674  -14.0171   21.1235 C   0  0  0  0  0  0  0  0  0  0  0  0
    7.1221  -13.3598   19.8205 C   0  0  0  0  0  0  0  0  0  0  0  0
    8.2489  -13.2400   18.8689 C   0  0  0  0  0  0  0  0  0  0  0  0
    7.9385  -12.6419   17.5398 C   0  0  0  0  0  0  0  0  0  0  0  0
    9.0344  -12.7626   16.6356 N   0  0  0  0  0  0  0  0  0  0  0  0
    8.1102  -16.0030   22.3505 C   0  0  0  0  0  0  0  0  0  0  0  0
    7.2405  -16.1919   23.2742 O   0  0  0  0  0  0  0  0  0  0  0  0
    9.4618  -16.2711   22.5917 N   0  0  0  0  0  0  0  0  0  0  0  0
    9.9286  -16.8853   23.8842 C   0  0  1  0  0  0  0  0  0  0  0  0
   11.1916  -17.5668   23.5489 C   0  0  0  0  0  0  0  0  0  0  0  0
   11.2413  -18.7683   22.7186 C   0  0  0  0  0  0  0  0  0  0  0  0
   12.5309  -19.3662   22.4040 C   0  0  0  0  0  0  0  0  0  0  0  0
   13.3413  -19.7132   23.2915 O   0  0  0  0  0  0  0  0  0  0  0  0
   10.0160  -15.7967   24.8336 C   0  0  0  0  0  0  0  0  0  0  0  0
   10.7503  -14.7773   24.5635 O   0  0  0  0  0  0  0  0  0  0  0  0
   12.8994  -19.5684   21.0807 O   0  0  0  0  0  0  0  0  0  0  0  0
    6.3767  -12.9799   26.1412 C   0  0  0  0  0  0  0  0  0  0  0  0
    7.8499  -13.2714   26.1429 C   0  0  0  0  0  0  0  0  0  0  0  0
    8.3040  -13.9876   27.3755 C   0  0  2  0  0  0  0  0  0  0  0  0
    8.5203  -13.1016   28.5522 C   0  0  0  0  0  0  0  0  0  0  0  0
    9.6390  -14.6748   27.0461 C   0  0  2  0  0  0  0  0  0  0  0  0
    9.3306  -15.7193   26.0967 N   0  0  0  0  0  0  0  0  0  0  0  0
   10.2876  -15.1675   28.2607 C   0  0  0  0  0  0  0  0  0  0  0  0
   10.4171  -16.5139   28.5248 O   0  0  0  0  0  0  0  0  0  0  0  0
   10.7626  -14.3866   29.1333 O   0  0  0  0  0  0  0  0  0  0  0  0
  2  1  1  1
  3  2  1  0
  4  3  1  0
  4  5  1  0
  5  6  1  0
  7  6  1  0
  8  2  1  0
  8  9  2  0
 10  8  1  0
 11 10  1  0
 11 12  1  6
 13 12  1  0
 13 14  1  0
 14 15  2  0
 16 24  1  0
 16 11  1  0
 17 16  2  0
 18 14  1  0
 19 20  1  0
 20 21  1  0
 21 22  1  1
 23 24  1  6
 23 21  1  0
 25 23  1  0
 26 25  1  0
 27 25  2  0
M  END
$$$$
