KEI.pdb
     RDKit          3D

 27 26  0  0  1  0  0  0  0  0999 V2000
    6.4978  -16.0009   19.0919 N   0  0  0  0  0  0  0  0  0  0  0  0
    7.6288  -15.3287   19.6338 C   0  0  1  0  0  0  0  0  0  0  0  0
    7.5698  -13.8206   19.5500 C   0  0  0  0  0  0  0  0  0  0  0  0
    7.3909  -13.3014   18.1758 C   0  0  0  0  0  0  0  0  0  0  0  0
    8.3977  -13.6576   17.1516 C   0  0  0  0  0  0  0  0  0  0  0  0
    8.1495  -13.1571   15.7702 C   0  0  0  0  0  0  0  0  0  0  0  0
    9.0999  -13.6732   14.8410 N   0  0  0  0  0  0  0  0  0  0  0  0
    7.8010  -15.7349   21.0610 C   0  0  0  0  0  0  0  0  0  0  0  0
    6.7681  -15.8060   21.8181 O   0  0  0  0  0  0  0  0  0  0  0  0
    9.0684  -16.0369   21.5704 N   0  0  0  0  0  0  0  0  0  0  0  0
    9.2470  -16.6714   22.9237 C   0  0  1  0  0  0  0  0  0  0  0  0
   10.4917  -17.4534   22.8174 C   0  0  0  0  0  0  0  0  0  0  0  0
   11.0745  -18.1637   23.9537 C   0  0  0  0  0  0  0  0  0  0  0  0
   12.2559  -18.9898   23.7500 C   0  0  0  0  0  0  0  0  0  0  0  0
   12.7165  -19.7305   24.6466 O   0  0  0  0  0  0  0  0  0  0  0  0
    9.2493  -15.5826   23.8767 C   0  0  0  0  0  0  0  0  0  0  0  0
   10.0787  -14.6121   23.7287 O   0  0  0  0  0  0  0  0  0  0  0  0
   12.9138  -18.9727   22.5274 O   0  0  0  0  0  0  0  0  0  0  0  0
    7.5629  -11.0665   26.2130 C   0  0  0  0  0  0  0  0  0  0  0  0
    7.4114  -12.4093   26.8679 C   0  0  0  0  0  0  0  0  0  0  0  0
    7.2708  -13.5282   25.8847 C   0  0  2  0  0  0  0  0  0  0  0  0
    6.1084  -14.4229   26.1394 C   0  0  0  0  0  0  0  0  0  0  0  0
    8.5501  -14.3768   25.9632 C   0  0  2  0  0  0  0  0  0  0  0  0
    8.3780  -15.4531   25.0149 N   0  0  0  0  0  0  0  0  0  0  0  0
    8.7878  -14.8400   27.3299 C   0  0  0  0  0  0  0  0  0  0  0  0
    9.3087  -14.0126   28.3012 O   0  0  0  0  0  0  0  0  0  0  0  0
    8.5304  -16.0225   27.6933 O   0  0  0  0  0  0  0  0  0  0  0  0
  2  1  1  1
  3  2  1  0
  4  3  1  0
  4  5  1  0
  5  6  1  0
  7  6  1  0
  8  2  1  0
  8  9  2  0
 10  8  1  0
 11 10  1  0
 11 12  1  6
 13 12  1  0
 13 14  1  0
 14 15  2  0
 16 24  1  0
 16 11  1  0
 17 16  2  0
 18 14  1  0
 19 20  1  0
 20 21  1  0
 21 22  1  1
 23 24  1  6
 23 21  1  0
 25 23  1  0
 26 25  1  0
 27 25  2  0
M  END
$$$$
