KEI.pdb
     RDKit          3D

 27 26  0  0  1  0  0  0  0  0999 V2000
    6.5991  -16.2191   19.7484 N   0  0  0  0  0  0  0  0  0  0  0  0
    7.7571  -15.5148   20.1815 C   0  0  1  0  0  0  0  0  0  0  0  0
    7.6222  -14.0092   20.1755 C   0  0  0  0  0  0  0  0  0  0  0  0
    7.3804  -13.4326   18.8341 C   0  0  0  0  0  0  0  0  0  0  0  0
    8.3391  -13.7433   17.7506 C   0  0  0  0  0  0  0  0  0  0  0  0
    8.1132  -13.0621   16.4448 C   0  0  0  0  0  0  0  0  0  0  0  0
    9.1121  -13.4071   15.4876 N   0  0  0  0  0  0  0  0  0  0  0  0
    8.1197  -15.9698   21.5574 C   0  0  0  0  0  0  0  0  0  0  0  0
    7.1922  -16.1113   22.4319 O   0  0  0  0  0  0  0  0  0  0  0  0
    9.4502  -16.2414   21.8931 N   0  0  0  0  0  0  0  0  0  0  0  0
    9.8203  -16.8888   23.2006 C   0  0  1  0  0  0  0  0  0  0  0  0
   11.1425  -17.4959   22.9653 C   0  0  0  0  0  0  0  0  0  0  0  0
   11.9252  -18.1159   24.0324 C   0  0  0  0  0  0  0  0  0  0  0  0
   13.2387  -18.6650   23.7280 C   0  0  0  0  0  0  0  0  0  0  0  0
   14.2976  -18.0650   24.0169 O   0  0  0  0  0  0  0  0  0  0  0  0
    9.7607  -15.8396   24.1953 C   0  0  0  0  0  0  0  0  0  0  0  0
   10.4318  -14.7582   24.0173 O   0  0  0  0  0  0  0  0  0  0  0  0
   13.3480  -19.8956   23.0943 O   0  0  0  0  0  0  0  0  0  0  0  0
    6.9002  -11.7758   27.0525 C   0  0  0  0  0  0  0  0  0  0  0  0
    7.9828  -12.8049   27.2083 C   0  0  0  0  0  0  0  0  0  0  0  0
    7.8638  -13.9328   26.2326 C   0  0  2  0  0  0  0  0  0  0  0  0
    6.6631  -14.7900   26.4333 C   0  0  0  0  0  0  0  0  0  0  0  0
    9.1111  -14.8168   26.3926 C   0  0  2  0  0  0  0  0  0  0  0  0
    8.9882  -15.8681   25.4093 N   0  0  0  0  0  0  0  0  0  0  0  0
    9.2277  -15.3144   27.7628 C   0  0  0  0  0  0  0  0  0  0  0  0
    9.6586  -14.5120   28.7971 O   0  0  0  0  0  0  0  0  0  0  0  0
    8.9414  -16.5058   28.0721 O   0  0  0  0  0  0  0  0  0  0  0  0
  2  1  1  1
  3  2  1  0
  4  3  1  0
  4  5  1  0
  5  6  1  0
  7  6  1  0
  8  2  1  0
  8  9  2  0
 10  8  1  0
 11 10  1  0
 11 12  1  6
 13 12  1  0
 13 14  1  0
 14 15  2  0
 16 24  1  0
 16 11  1  0
 17 16  2  0
 18 14  1  0
 19 20  1  0
 20 21  1  0
 21 22  1  1
 23 24  1  6
 23 21  1  0
 25 23  1  0
 26 25  1  0
 27 25  2  0
M  END
$$$$
