KEI.pdb
     RDKit          3D

 27 26  0  0  1  0  0  0  0  0999 V2000
    7.7866  -17.5616   19.2404 N   0  0  0  0  0  0  0  0  0  0  0  0
    8.5472  -16.5896   19.9485 C   0  0  1  0  0  0  0  0  0  0  0  0
    8.2438  -15.1556   19.5790 C   0  0  0  0  0  0  0  0  0  0  0  0
    8.3050  -14.8834   18.1257 C   0  0  0  0  0  0  0  0  0  0  0  0
    8.0793  -13.4975   17.6585 C   0  0  0  0  0  0  0  0  0  0  0  0
    8.0488  -13.2878   16.1836 C   0  0  0  0  0  0  0  0  0  0  0  0
    7.7425  -11.9365   15.8469 N   0  0  0  0  0  0  0  0  0  0  0  0
    8.3324  -16.7747   21.4152 C   0  0  0  0  0  0  0  0  0  0  0  0
    7.1335  -16.8375   21.8668 O   0  0  0  0  0  0  0  0  0  0  0  0
    9.4194  -16.8808   22.2891 N   0  0  0  0  0  0  0  0  0  0  0  0
    9.2311  -17.1554   23.7571 C   0  0  1  0  0  0  0  0  0  0  0  0
   10.1488  -18.2687   24.0581 C   0  0  0  0  0  0  0  0  0  0  0  0
    9.7402  -19.6694   23.9779 C   0  0  0  0  0  0  0  0  0  0  0  0
   10.7131  -20.7146   24.2616 C   0  0  0  0  0  0  0  0  0  0  0  0
   11.6447  -20.9924   23.4743 O   0  0  0  0  0  0  0  0  0  0  0  0
    9.4933  -15.9032   24.4332 C   0  0  0  0  0  0  0  0  0  0  0  0
   10.6837  -15.4192   24.4322 O   0  0  0  0  0  0  0  0  0  0  0  0
   10.6261  -21.4444   25.4395 O   0  0  0  0  0  0  0  0  0  0  0  0
    5.6371  -12.2576   26.7687 C   0  0  0  0  0  0  0  0  0  0  0  0
    6.6794  -13.3308   26.6380 C   0  0  0  0  0  0  0  0  0  0  0  0
    7.8502  -12.9123   25.8060 C   0  0  2  0  0  0  0  0  0  0  0  0
    7.5477  -12.7652   24.3557 C   0  0  0  0  0  0  0  0  0  0  0  0
    8.9353  -13.9904   25.9583 C   0  0  2  0  0  0  0  0  0  0  0  0
    8.5230  -15.0968   25.1257 N   0  0  0  0  0  0  0  0  0  0  0  0
    9.1158  -14.3565   27.3626 C   0  0  0  0  0  0  0  0  0  0  0  0
    8.7756  -15.6030   27.8420 O   0  0  0  0  0  0  0  0  0  0  0  0
    9.5915  -13.5505   28.2117 O   0  0  0  0  0  0  0  0  0  0  0  0
  2  1  1  6
  3  2  1  0
  4  3  1  0
  4  5  1  0
  5  6  1  0
  7  6  1  0
  8  2  1  0
  8  9  2  0
 10  8  1  0
 11 10  1  0
 11 12  1  1
 13 12  1  0
 13 14  1  0
 14 15  2  0
 16 24  1  0
 16 11  1  0
 17 16  2  0
 18 14  1  0
 19 20  1  0
 20 21  1  0
 21 22  1  6
 23 24  1  6
 23 21  1  0
 25 23  1  0
 26 25  1  0
 27 25  2  0
M  END
$$$$
