KEI.pdb
     RDKit          3D

 27 26  0  0  1  0  0  0  0  0999 V2000
    6.4208  -16.1250   19.5946 N   0  0  0  0  0  0  0  0  0  0  0  0
    7.5604  -15.3846   20.0164 C   0  0  1  0  0  0  0  0  0  0  0  0
    7.3920  -13.8831   19.9733 C   0  0  0  0  0  0  0  0  0  0  0  0
    7.4120  -13.3147   18.6071 C   0  0  0  0  0  0  0  0  0  0  0  0
    8.2435  -13.9800   17.5796 C   0  0  0  0  0  0  0  0  0  0  0  0
    8.2213  -13.3827   16.2147 C   0  0  0  0  0  0  0  0  0  0  0  0
    9.0423  -14.1110   15.3043 N   0  0  0  0  0  0  0  0  0  0  0  0
    7.9254  -15.7983   21.4046 C   0  0  0  0  0  0  0  0  0  0  0  0
    6.9964  -15.9397   22.2776 O   0  0  0  0  0  0  0  0  0  0  0  0
    9.2597  -16.0317   21.7535 N   0  0  0  0  0  0  0  0  0  0  0  0
    9.6357  -16.6621   23.0677 C   0  0  1  0  0  0  0  0  0  0  0  0
   10.9949  -17.1931   22.8615 C   0  0  0  0  0  0  0  0  0  0  0  0
   11.7722  -17.8058   23.9366 C   0  0  0  0  0  0  0  0  0  0  0  0
   13.1233  -18.2744   23.6636 C   0  0  0  0  0  0  0  0  0  0  0  0
   14.0720  -18.0770   24.4547 O   0  0  0  0  0  0  0  0  0  0  0  0
    9.4944  -15.6215   24.0632 C   0  0  0  0  0  0  0  0  0  0  0  0
   10.2623  -14.5921   24.0178 O   0  0  0  0  0  0  0  0  0  0  0  0
   13.3957  -18.9662   22.4910 O   0  0  0  0  0  0  0  0  0  0  0  0
    7.6614  -11.3999   26.6318 C   0  0  0  0  0  0  0  0  0  0  0  0
    7.3207  -12.7639   27.1595 C   0  0  0  0  0  0  0  0  0  0  0  0
    7.2859  -13.8128   26.0932 C   0  0  2  0  0  0  0  0  0  0  0  0
    6.1626  -14.7810   26.2251 C   0  0  0  0  0  0  0  0  0  0  0  0
    8.6038  -14.5997   26.1749 C   0  0  2  0  0  0  0  0  0  0  0  0
    8.5378  -15.6040   25.1384 N   0  0  0  0  0  0  0  0  0  0  0  0
    8.7980  -15.1580   27.5125 C   0  0  0  0  0  0  0  0  0  0  0  0
    8.7303  -16.5129   27.7553 O   0  0  0  0  0  0  0  0  0  0  0  0
    9.0365  -14.4294   28.5171 O   0  0  0  0  0  0  0  0  0  0  0  0
  2  1  1  1
  3  2  1  0
  4  3  1  0
  4  5  1  0
  5  6  1  0
  7  6  1  0
  8  2  1  0
  8  9  2  0
 10  8  1  0
 11 10  1  0
 11 12  1  6
 13 12  1  0
 13 14  1  0
 14 15  2  0
 16 24  1  0
 16 11  1  0
 17 16  2  0
 18 14  1  0
 19 20  1  0
 20 21  1  0
 21 22  1  1
 23 24  1  6
 23 21  1  0
 25 23  1  0
 26 25  1  0
 27 25  2  0
M  END
$$$$
