KEI.pdb
     RDKit          3D

 27 26  0  0  1  0  0  0  0  0999 V2000
    7.3991  -17.7124   19.5715 N   0  0  0  0  0  0  0  0  0  0  0  0
    8.3980  -16.8514   20.1059 C   0  0  1  0  0  0  0  0  0  0  0  0
    8.1919  -15.3830   19.8122 C   0  0  0  0  0  0  0  0  0  0  0  0
    8.1940  -15.0522   18.3698 C   0  0  0  0  0  0  0  0  0  0  0  0
    7.9879  -13.6425   17.9701 C   0  0  0  0  0  0  0  0  0  0  0  0
    8.0626  -13.3451   16.5119 C   0  0  0  0  0  0  0  0  0  0  0  0
    7.8854  -11.9557   16.2448 N   0  0  0  0  0  0  0  0  0  0  0  0
    8.4746  -17.0505   21.5844 C   0  0  0  0  0  0  0  0  0  0  0  0
    7.4151  -17.3875   22.2239 O   0  0  0  0  0  0  0  0  0  0  0  0
    9.6826  -16.8753   22.2676 N   0  0  0  0  0  0  0  0  0  0  0  0
    9.8313  -17.2428   23.7198 C   0  0  1  0  0  0  0  0  0  0  0  0
   11.0808  -18.0210   23.7907 C   0  0  0  0  0  0  0  0  0  0  0  0
   11.1025  -19.4814   23.7425 C   0  0  0  0  0  0  0  0  0  0  0  0
   12.1245  -20.2054   24.4847 C   0  0  0  0  0  0  0  0  0  0  0  0
   11.9258  -21.3469   24.9563 O   0  0  0  0  0  0  0  0  0  0  0  0
    9.8071  -15.9943   24.4509 C   0  0  0  0  0  0  0  0  0  0  0  0
   10.7779  -15.1629   24.3181 O   0  0  0  0  0  0  0  0  0  0  0  0
   13.3716  -19.6312   24.6916 O   0  0  0  0  0  0  0  0  0  0  0  0
    6.5726  -11.3136   26.3667 C   0  0  0  0  0  0  0  0  0  0  0  0
    7.7643  -12.2105   26.5414 C   0  0  0  0  0  0  0  0  0  0  0  0
    7.6228  -13.5184   25.8289 C   0  0  2  0  0  0  0  0  0  0  0  0
    6.4572  -14.3321   26.2712 C   0  0  0  0  0  0  0  0  0  0  0  0
    8.8994  -14.3318   26.0965 C   0  0  2  0  0  0  0  0  0  0  0  0
    8.7636  -15.5546   25.3392 N   0  0  0  0  0  0  0  0  0  0  0  0
    9.0872  -14.5545   27.5296 C   0  0  0  0  0  0  0  0  0  0  0  0
    9.5433  -13.5615   28.3695 O   0  0  0  0  0  0  0  0  0  0  0  0
    8.8433  -15.6682   28.0746 O   0  0  0  0  0  0  0  0  0  0  0  0
  2  1  1  1
  3  2  1  0
  4  3  1  0
  4  5  1  0
  5  6  1  0
  7  6  1  0
  8  2  1  0
  8  9  2  0
 10  8  1  0
 11 10  1  0
 11 12  1  6
 13 12  1  0
 13 14  1  0
 14 15  2  0
 16 24  1  0
 16 11  1  0
 17 16  2  0
 18 14  1  0
 19 20  1  0
 20 21  1  0
 21 22  1  1
 23 24  1  6
 23 21  1  0
 25 23  1  0
 26 25  1  0
 27 25  2  0
M  END
$$$$
