KEI.pdb
     RDKit          3D

 27 26  0  0  1  0  0  0  0  0999 V2000
    6.4745  -15.8810   20.2854 N   0  0  0  0  0  0  0  0  0  0  0  0
    7.6519  -15.2792   20.8113 C   0  0  1  0  0  0  0  0  0  0  0  0
    7.6032  -13.7716   20.9094 C   0  0  0  0  0  0  0  0  0  0  0  0
    7.6201  -13.0830   19.5996 C   0  0  0  0  0  0  0  0  0  0  0  0
    8.3461  -13.7198   18.4784 C   0  0  0  0  0  0  0  0  0  0  0  0
    8.3952  -12.9590   17.1981 C   0  0  0  0  0  0  0  0  0  0  0  0
    9.1423  -13.6502   16.1994 N   0  0  0  0  0  0  0  0  0  0  0  0
    7.9306  -15.8506   22.1631 C   0  0  0  0  0  0  0  0  0  0  0  0
    6.9572  -16.0209   22.9808 O   0  0  0  0  0  0  0  0  0  0  0  0
    9.2326  -16.1990   22.5374 N   0  0  0  0  0  0  0  0  0  0  0  0
    9.5149  -16.9606   23.8047 C   0  0  1  0  0  0  0  0  0  0  0  0
   10.5597  -17.9341   23.4403 C   0  0  0  0  0  0  0  0  0  0  0  0
   11.9046  -17.5309   23.0353 C   0  0  0  0  0  0  0  0  0  0  0  0
   12.8834  -18.5523   22.6913 C   0  0  0  0  0  0  0  0  0  0  0  0
   12.9094  -19.1020   21.5680 O   0  0  0  0  0  0  0  0  0  0  0  0
    9.8757  -15.9679   24.7938 C   0  0  0  0  0  0  0  0  0  0  0  0
   10.7943  -15.1102   24.5256 O   0  0  0  0  0  0  0  0  0  0  0  0
   13.8314  -18.9493   23.6248 O   0  0  0  0  0  0  0  0  0  0  0  0
    6.5730  -12.9042   26.6531 C   0  0  0  0  0  0  0  0  0  0  0  0
    7.9283  -13.4724   26.3445 C   0  0  0  0  0  0  0  0  0  0  0  0
    8.6094  -14.0486   27.5456 C   0  0  2  0  0  0  0  0  0  0  0  0
    9.1126  -13.0313   28.5092 C   0  0  0  0  0  0  0  0  0  0  0  0
    9.8114  -14.8674   27.0478 C   0  0  2  0  0  0  0  0  0  0  0  0
    9.2841  -15.8191   26.0973 N   0  0  0  0  0  0  0  0  0  0  0  0
   10.5171  -15.4933   28.1654 C   0  0  0  0  0  0  0  0  0  0  0  0
   11.4163  -14.7967   28.9435 O   0  0  0  0  0  0  0  0  0  0  0  0
   10.3420  -16.7055   28.4768 O   0  0  0  0  0  0  0  0  0  0  0  0
  2  1  1  1
  3  2  1  0
  4  3  1  0
  4  5  1  0
  5  6  1  0
  7  6  1  0
  8  2  1  0
  8  9  2  0
 10  8  1  0
 11 10  1  0
 11 12  1  6
 13 12  1  0
 13 14  1  0
 14 15  2  0
 16 24  1  0
 16 11  1  0
 17 16  2  0
 18 14  1  0
 19 20  1  0
 20 21  1  0
 21 22  1  1
 23 24  1  6
 23 21  1  0
 25 23  1  0
 26 25  1  0
 27 25  2  0
M  END
$$$$
