KEI.pdb
     RDKit          3D

 27 26  0  0  1  0  0  0  0  0999 V2000
   12.1372  -20.7571   23.9429 N   0  0  0  0  0  0  0  0  0  0  0  0
   10.8452  -20.3124   23.5459 C   0  0  1  0  0  0  0  0  0  0  0  0
    9.6955  -21.0001   24.2461 C   0  0  0  0  0  0  0  0  0  0  0  0
   10.0115  -21.4510   25.6198 C   0  0  0  0  0  0  0  0  0  0  0  0
    9.0463  -21.1485   26.6999 C   0  0  0  0  0  0  0  0  0  0  0  0
    9.3330  -21.7429   28.0359 C   0  0  0  0  0  0  0  0  0  0  0  0
    8.4125  -21.2894   29.0260 N   0  0  0  0  0  0  0  0  0  0  0  0
   10.7456  -18.8388   23.7694 C   0  0  0  0  0  0  0  0  0  0  0  0
   11.4756  -18.2945   24.6728 O   0  0  0  0  0  0  0  0  0  0  0  0
    9.8718  -18.0573   23.0062 N   0  0  0  0  0  0  0  0  0  0  0  0
    9.8496  -16.5564   23.1176 C   0  0  1  0  0  0  0  0  0  0  0  0
    9.5854  -16.0758   21.7497 C   0  0  0  0  0  0  0  0  0  0  0  0
   10.6547  -15.7041   20.8257 C   0  0  0  0  0  0  0  0  0  0  0  0
   10.3253  -15.3814   19.4447 C   0  0  0  0  0  0  0  0  0  0  0  0
    9.1597  -15.4644   18.9985 O   0  0  0  0  0  0  0  0  0  0  0  0
    8.8477  -16.2460   24.1145 C   0  0  0  0  0  0  0  0  0  0  0  0
    7.7166  -16.8552   24.0879 O   0  0  0  0  0  0  0  0  0  0  0  0
   11.3213  -14.9657   18.5712 O   0  0  0  0  0  0  0  0  0  0  0  0
    9.2215  -11.8525   27.7449 C   0  0  0  0  0  0  0  0  0  0  0  0
    8.6384  -12.7868   26.7240 C   0  0  0  0  0  0  0  0  0  0  0  0
    8.4756  -14.1840   27.2337 C   0  0  2  0  0  0  0  0  0  0  0  0
    9.7444  -14.8239   27.6779 C   0  0  0  0  0  0  0  0  0  0  0  0
    7.8921  -15.0289   26.0898 C   0  0  2  0  0  0  0  0  0  0  0  0
    8.9887  -15.2985   25.1887 N   0  0  0  0  0  0  0  0  0  0  0  0
    6.7711  -14.3412   25.4504 C   0  0  0  0  0  0  0  0  0  0  0  0
    5.5543  -14.1870   26.0789 O   0  0  0  0  0  0  0  0  0  0  0  0
    6.8566  -13.8530   24.2879 O   0  0  0  0  0  0  0  0  0  0  0  0
  2  1  1  1
  3  2  1  0
  4  3  1  0
  4  5  1  0
  5  6  1  0
  7  6  1  0
  8  2  1  0
  8  9  2  0
 10  8  1  0
 11 10  1  0
 11 12  1  6
 13 12  1  0
 13 14  1  0
 14 15  2  0
 16 24  1  0
 16 11  1  0
 17 16  2  0
 18 14  1  0
 19 20  1  0
 20 21  1  0
 21 22  1  6
 23 24  1  6
 23 21  1  0
 25 23  1  0
 26 25  1  0
 27 25  2  0
M  END
$$$$
