KEI.pdb
     RDKit          3D

 27 26  0  0  1  0  0  0  0  0999 V2000
   10.0444  -18.7471   19.8165 N   0  0  0  0  0  0  0  0  0  0  0  0
    8.9311  -18.6803   20.7002 C   0  0  1  0  0  0  0  0  0  0  0  0
    8.8705  -19.7872   21.7278 C   0  0  0  0  0  0  0  0  0  0  0  0
    7.6059  -20.5557   21.7097 C   0  0  0  0  0  0  0  0  0  0  0  0
    7.0659  -20.9928   20.4032 C   0  0  0  0  0  0  0  0  0  0  0  0
    6.8465  -22.4563   20.2284 C   0  0  0  0  0  0  0  0  0  0  0  0
    6.0023  -22.9906   21.2457 N   0  0  0  0  0  0  0  0  0  0  0  0
    8.9415  -17.3605   21.4000 C   0  0  0  0  0  0  0  0  0  0  0  0
    9.9909  -17.0059   22.0468 O   0  0  0  0  0  0  0  0  0  0  0  0
    7.8261  -16.5176   21.3530 N   0  0  0  0  0  0  0  0  0  0  0  0
    7.8109  -15.1850   22.0528 C   0  0  1  0  0  0  0  0  0  0  0  0
    6.8762  -14.3546   21.2725 C   0  0  0  0  0  0  0  0  0  0  0  0
    7.1472  -13.9462   19.8958 C   0  0  0  0  0  0  0  0  0  0  0  0
    8.4530  -13.3989   19.5571 C   0  0  0  0  0  0  0  0  0  0  0  0
    9.3384  -13.2000   20.4181 O   0  0  0  0  0  0  0  0  0  0  0  0
    7.4386  -15.4596   23.4239 C   0  0  0  0  0  0  0  0  0  0  0  0
    6.5246  -16.3286   23.6708 O   0  0  0  0  0  0  0  0  0  0  0  0
    8.7517  -13.0770   18.2399 O   0  0  0  0  0  0  0  0  0  0  0  0
    8.6477  -12.0835   27.8900 C   0  0  0  0  0  0  0  0  0  0  0  0
    7.8702  -12.9597   26.9504 C   0  0  0  0  0  0  0  0  0  0  0  0
    8.3828  -14.3644   26.8997 C   0  0  2  0  0  0  0  0  0  0  0  0
    9.7959  -14.4830   26.4461 C   0  0  0  0  0  0  0  0  0  0  0  0
    7.4996  -15.1441   25.9124 C   0  0  2  0  0  0  0  0  0  0  0  0
    8.0133  -14.8505   24.5944 N   0  0  0  0  0  0  0  0  0  0  0  0
    6.0905  -14.7896   26.0783 C   0  0  0  0  0  0  0  0  0  0  0  0
    5.4282  -13.9861   25.1754 O   0  0  0  0  0  0  0  0  0  0  0  0
    5.4051  -15.1990   27.0579 O   0  0  0  0  0  0  0  0  0  0  0  0
  2  1  1  1
  3  2  1  0
  4  3  1  0
  4  5  1  0
  5  6  1  0
  7  6  1  0
  8  2  1  0
  8  9  2  0
 10  8  1  0
 11 10  1  0
 11 12  1  6
 13 12  1  0
 13 14  1  0
 14 15  2  0
 16 24  1  0
 16 11  1  0
 17 16  2  0
 18 14  1  0
 19 20  1  0
 20 21  1  0
 21 22  1  6
 23 24  1  6
 23 21  1  0
 25 23  1  0
 26 25  1  0
 27 25  2  0
M  END
$$$$
