KEI.pdb
     RDKit          3D

 27 26  0  0  1  0  0  0  0  0999 V2000
   10.0527  -13.0712   19.1326 N   0  0  0  0  0  0  0  0  0  0  0  0
    8.6713  -13.0913   19.4736 C   0  0  1  0  0  0  0  0  0  0  0  0
    7.7368  -13.3596   18.3163 C   0  0  0  0  0  0  0  0  0  0  0  0
    8.2404  -14.3691   17.3585 C   0  0  0  0  0  0  0  0  0  0  0  0
    7.4316  -14.6630   16.1547 C   0  0  0  0  0  0  0  0  0  0  0  0
    7.9404  -15.7366   15.2553 C   0  0  0  0  0  0  0  0  0  0  0  0
    7.1277  -15.8832   14.0929 N   0  0  0  0  0  0  0  0  0  0  0  0
    8.4452  -14.1173   20.5355 C   0  0  0  0  0  0  0  0  0  0  0  0
    7.2663  -14.2652   21.0188 O   0  0  0  0  0  0  0  0  0  0  0  0
    9.5000  -14.9105   20.9995 N   0  0  0  0  0  0  0  0  0  0  0  0
    9.2984  -15.9474   22.0718 C   0  0  1  0  0  0  0  0  0  0  0  0
   10.3173  -16.9778   21.8030 C   0  0  0  0  0  0  0  0  0  0  0  0
   10.5668  -18.0942   22.7123 C   0  0  0  0  0  0  0  0  0  0  0  0
   11.5553  -19.1008   22.3529 C   0  0  0  0  0  0  0  0  0  0  0  0
   11.5401  -19.6885   21.2487 O   0  0  0  0  0  0  0  0  0  0  0  0
    9.4097  -15.2441   23.3316 C   0  0  0  0  0  0  0  0  0  0  0  0
   10.4165  -14.4734   23.5407 O   0  0  0  0  0  0  0  0  0  0  0  0
   12.5600  -19.4398   23.2492 O   0  0  0  0  0  0  0  0  0  0  0  0
    6.7766  -11.7402   27.2920 C   0  0  0  0  0  0  0  0  0  0  0  0
    7.8395  -12.7663   27.0225 C   0  0  0  0  0  0  0  0  0  0  0  0
    7.5427  -13.6177   25.8285 C   0  0  2  0  0  0  0  0  0  0  0  0
    6.2913  -14.4160   25.9433 C   0  0  0  0  0  0  0  0  0  0  0  0
    8.7159  -14.5954   25.6541 C   0  0  2  0  0  0  0  0  0  0  0  0
    8.4692  -15.3039   24.4194 N   0  0  0  0  0  0  0  0  0  0  0  0
    8.8395  -15.4770   26.8144 C   0  0  0  0  0  0  0  0  0  0  0  0
    9.3748  -15.0428   28.0078 O   0  0  0  0  0  0  0  0  0  0  0  0
    8.4642  -16.6833   26.7852 O   0  0  0  0  0  0  0  0  0  0  0  0
  2  1  1  6
  3  2  1  0
  4  3  1  0
  4  5  1  0
  5  6  1  0
  7  6  1  0
  8  2  1  0
  8  9  2  0
 10  8  1  0
 11 10  1  0
 11 12  1  1
 13 12  1  0
 13 14  1  0
 14 15  2  0
 16 24  1  0
 16 11  1  0
 17 16  2  0
 18 14  1  0
 19 20  1  0
 20 21  1  0
 21 22  1  1
 23 24  1  6
 23 21  1  0
 25 23  1  0
 26 25  1  0
 27 25  2  0
M  END
$$$$
