TWP.pdb
     RDKit          3D

 29 31  0  0  1  0  0  0  0  0999 V2000
    7.7188  -20.8722   19.0087 C   0  0  0  0  0  0  0  0  0  0  0  0
    8.3252  -19.8911   19.9483 C   0  0  1  0  0  0  0  0  0  0  0  0
    9.5666  -20.3175   20.3631 O   0  0  0  0  0  0  0  0  0  0  0  0
    8.3708  -18.4732   19.3909 C   0  0  2  0  0  0  0  0  0  0  0  0
    9.2305  -18.5531   18.2151 N   0  0  0  0  0  0  0  0  0  0  0  0
    8.9071  -17.5176   20.4125 C   0  0  0  0  0  0  0  0  0  0  0  0
   10.1537  -17.3924   20.4926 O   0  0  0  0  0  0  0  0  0  0  0  0
    8.0417  -16.7891   21.2345 N   0  0  0  0  0  0  0  0  0  0  0  0
    8.3549  -15.9764   22.3445 C   0  0  1  0  0  0  0  0  0  0  0  0
    7.1627  -14.9732   22.5685 C   0  0  0  0  0  0  0  0  0  0  0  0
    7.5199  -13.9461   23.5730 C   0  0  0  0  0  0  0  0  0  0  0  0
    8.4548  -12.9232   23.3333 C   0  0  0  0  0  0  0  0  0  0  0  0
    8.5869  -12.1562   24.4202 N   0  0  0  0  0  0  0  0  0  0  0  0
    7.7553  -12.6360   25.3940 C   0  0  0  0  0  0  0  0  0  0  0  0
    7.5325  -12.1954   26.6751 C   0  0  0  0  0  0  0  0  0  0  0  0
    6.6086  -12.9066   27.4367 C   0  0  0  0  0  0  0  0  0  0  0  0
    5.9524  -13.9990   26.9343 C   0  0  0  0  0  0  0  0  0  0  0  0
    6.1952  -14.4197   25.6520 C   0  0  0  0  0  0  0  0  0  0  0  0
    7.1054  -13.7427   24.8540 C   0  0  0  0  0  0  0  0  0  0  0  0
    8.6552  -16.6187   23.6055 C   0  0  0  0  0  0  0  0  0  0  0  0
    7.8965  -17.5209   24.1045 O   0  0  0  0  0  0  0  0  0  0  0  0
    9.8155  -16.3032   24.3870 N   0  0  0  0  0  0  0  0  0  0  0  0
   10.6890  -15.1984   24.2220 C   0  0  0  0  0  0  0  0  0  0  0  0
   12.0773  -15.8455   24.3986 C   0  0  0  0  0  0  0  0  0  0  0  0
   11.8139  -16.8601   25.4630 C   0  0  0  0  0  0  0  0  0  0  0  0
   10.3492  -17.1511   25.4607 C   0  0  1  0  0  0  0  0  0  0  0  0
    9.7829  -16.7225   26.7649 C   0  0  0  0  0  0  0  0  0  0  0  0
    9.9471  -17.4035   27.9486 O   0  0  0  0  0  0  0  0  0  0  0  0
    9.0808  -15.6489   26.8609 O   0  0  0  0  0  0  0  0  0  0  0  0
  2  1  1  6
  2  3  1  0
  4  2  1  0
  4  5  1  6
  6  7  2  0
  6  4  1  0
  8  6  1  0
  9  8  1  0
  9 10  1  1
 10 11  1  0
 11 19  1  0
 11 12  2  0
 12 13  1  0
 14 13  1  0
 14 15  2  0
 16 15  1  0
 17 16  2  0
 18 19  2  0
 18 17  1  0
 19 14  1  0
 20  9  1  0
 21 20  2  0
 22 20  1  0
 22 26  1  0
 23 24  1  0
 23 22  1  0
 24 25  1  0
 25 26  1  0
 26 27  1  1
 27 28  1  0
 29 27  2  0
M  END
$$$$
