TWP.pdb
     RDKit          3D

 29 31  0  0  1  0  0  0  0  0999 V2000
   10.0063  -16.3110   18.5656 C   0  0  0  0  0  0  0  0  0  0  0  0
    9.6907  -15.8059   19.9289 C   0  0  1  0  0  0  0  0  0  0  0  0
    8.3371  -15.8710   20.1709 O   0  0  0  0  0  0  0  0  0  0  0  0
   10.4954  -16.4927   21.0261 C   0  0  2  0  0  0  0  0  0  0  0  0
    9.9877  -17.8595   21.0729 N   0  0  0  0  0  0  0  0  0  0  0  0
   10.3205  -15.7856   22.3352 C   0  0  0  0  0  0  0  0  0  0  0  0
   10.9189  -14.6927   22.4893 O   0  0  0  0  0  0  0  0  0  0  0  0
    9.5099  -16.3266   23.3380 N   0  0  0  0  0  0  0  0  0  0  0  0
    9.3665  -15.9082   24.6777 C   0  0  1  0  0  0  0  0  0  0  0  0
    8.0021  -16.4728   25.2233 C   0  0  0  0  0  0  0  0  0  0  0  0
    7.0629  -15.3717   25.5346 C   0  0  0  0  0  0  0  0  0  0  0  0
    5.7064  -15.5774   25.8436 C   0  0  0  0  0  0  0  0  0  0  0  0
    5.1013  -14.4057   26.0631 N   0  0  0  0  0  0  0  0  0  0  0  0
    6.0227  -13.4063   25.9137 C   0  0  0  0  0  0  0  0  0  0  0  0
    5.8918  -12.0452   26.0357 C   0  0  0  0  0  0  0  0  0  0  0  0
    7.0338  -11.2782   25.8191 C   0  0  0  0  0  0  0  0  0  0  0  0
    8.2344  -11.8527   25.4955 C   0  0  0  0  0  0  0  0  0  0  0  0
    8.3374  -13.2149   25.3774 C   0  0  0  0  0  0  0  0  0  0  0  0
    7.2283  -14.0211   25.5855 C   0  0  0  0  0  0  0  0  0  0  0  0
   10.4107  -16.2456   25.6203 C   0  0  0  0  0  0  0  0  0  0  0  0
   11.4208  -16.9579   25.2870 O   0  0  0  0  0  0  0  0  0  0  0  0
   10.4007  -15.8113   26.9870 N   0  0  0  0  0  0  0  0  0  0  0  0
    9.4285  -14.9991   27.6241 C   0  0  0  0  0  0  0  0  0  0  0  0
   10.2974  -14.0325   28.4535 C   0  0  0  0  0  0  0  0  0  0  0  0
   11.4150  -14.9202   28.8945 C   0  0  0  0  0  0  0  0  0  0  0  0
   11.4775  -16.0753   27.9500 C   0  0  1  0  0  0  0  0  0  0  0  0
   11.1786  -17.3176   28.7067 C   0  0  0  0  0  0  0  0  0  0  0  0
   12.0843  -17.9880   29.4955 O   0  0  0  0  0  0  0  0  0  0  0  0
   10.0103  -17.8543   28.6629 O   0  0  0  0  0  0  0  0  0  0  0  0
  2  1  1  6
  2  3  1  0
  4  2  1  0
  4  5  1  1
  6  7  2  0
  6  4  1  0
  8  6  1  0
  9  8  1  0
  9 10  1  1
 10 11  1  0
 11 19  1  0
 11 12  2  0
 12 13  1  0
 14 13  1  0
 14 15  2  0
 16 15  1  0
 17 16  2  0
 18 19  2  0
 18 17  1  0
 19 14  1  0
 20  9  1  0
 21 20  2  0
 22 20  1  0
 22 26  1  0
 23 24  1  0
 23 22  1  0
 24 25  1  0
 25 26  1  0
 26 27  1  1
 27 28  1  0
 29 27  2  0
M  END
$$$$
