TWP.pdb
     RDKit          3D

 29 31  0  0  1  0  0  0  0  0999 V2000
    6.3220  -22.9670   22.6144 C   0  0  0  0  0  0  0  0  0  0  0  0
    6.6780  -21.5229   22.5821 C   0  0  1  0  0  0  0  0  0  0  0  0
    7.1052  -21.1548   21.3263 O   0  0  0  0  0  0  0  0  0  0  0  0
    5.5619  -20.6167   23.0885 C   0  0  2  0  0  0  0  0  0  0  0  0
    4.4135  -20.9153   22.2399 N   0  0  0  0  0  0  0  0  0  0  0  0
    5.9648  -19.1766   22.9988 C   0  0  0  0  0  0  0  0  0  0  0  0
    5.5972  -18.5328   21.9855 O   0  0  0  0  0  0  0  0  0  0  0  0
    6.7140  -18.5784   24.0168 N   0  0  0  0  0  0  0  0  0  0  0  0
    7.4069  -17.3495   23.9964 C   0  0  1  0  0  0  0  0  0  0  0  0
    7.7561  -16.9600   25.4811 C   0  0  0  0  0  0  0  0  0  0  0  0
    7.0930  -15.6929   25.8633 C   0  0  0  0  0  0  0  0  0  0  0  0
    5.7036  -15.5721   26.0449 C   0  0  0  0  0  0  0  0  0  0  0  0
    5.3894  -14.3139   26.3696 N   0  0  0  0  0  0  0  0  0  0  0  0
    6.5404  -13.5771   26.4167 C   0  0  0  0  0  0  0  0  0  0  0  0
    6.7399  -12.2494   26.7034 C   0  0  0  0  0  0  0  0  0  0  0  0
    8.0525  -11.7855   26.6701 C   0  0  0  0  0  0  0  0  0  0  0  0
    9.0995  -12.6135   26.3623 C   0  0  0  0  0  0  0  0  0  0  0  0
    8.8724  -13.9354   26.0774 C   0  0  0  0  0  0  0  0  0  0  0  0
    7.5825  -14.4444   26.0996 C   0  0  0  0  0  0  0  0  0  0  0  0
    8.6121  -17.2514   23.2023 C   0  0  0  0  0  0  0  0  0  0  0  0
    9.3775  -18.2581   23.0044 O   0  0  0  0  0  0  0  0  0  0  0  0
    9.0394  -16.0337   22.5768 N   0  0  0  0  0  0  0  0  0  0  0  0
    8.4220  -14.7601   22.6630 C   0  0  0  0  0  0  0  0  0  0  0  0
    8.4852  -14.2628   21.2049 C   0  0  0  0  0  0  0  0  0  0  0  0
    9.8086  -14.7895   20.7542 C   0  0  0  0  0  0  0  0  0  0  0  0
   10.1709  -15.9309   21.6464 C   0  0  1  0  0  0  0  0  0  0  0  0
   11.4023  -15.5702   22.3941 C   0  0  0  0  0  0  0  0  0  0  0  0
   11.4395  -15.2630   23.7343 O   0  0  0  0  0  0  0  0  0  0  0  0
   12.5448  -15.5239   21.8049 O   0  0  0  0  0  0  0  0  0  0  0  0
  2  1  1  6
  2  3  1  0
  4  2  1  0
  4  5  1  6
  6  7  2  0
  6  4  1  0
  8  6  1  0
  9  8  1  0
  9 10  1  1
 10 11  1  0
 11 19  1  0
 11 12  2  0
 12 13  1  0
 14 13  1  0
 14 15  2  0
 16 15  1  0
 17 16  2  0
 18 19  2  0
 18 17  1  0
 19 14  1  0
 20  9  1  0
 21 20  2  0
 22 20  1  0
 22 26  1  0
 23 24  1  0
 23 22  1  0
 24 25  1  0
 25 26  1  0
 26 27  1  1
 27 28  1  0
 29 27  2  0
M  END
$$$$
