TWP.pdb
     RDKit          3D

 29 31  0  0  1  0  0  0  0  0999 V2000
   10.8008  -18.4079   19.7556 C   0  0  0  0  0  0  0  0  0  0  0  0
   10.8660  -17.6457   21.0315 C   0  0  1  0  0  0  0  0  0  0  0  0
   12.1490  -17.2089   21.2727 O   0  0  0  0  0  0  0  0  0  0  0  0
    9.8570  -16.5055   21.1033 C   0  0  2  0  0  0  0  0  0  0  0  0
   10.2198  -15.6060   20.0137 N   0  0  0  0  0  0  0  0  0  0  0  0
    9.9193  -15.8241   22.4360 C   0  0  0  0  0  0  0  0  0  0  0  0
   10.6362  -14.7977   22.5305 O   0  0  0  0  0  0  0  0  0  0  0  0
    9.1933  -16.3154   23.5255 N   0  0  0  0  0  0  0  0  0  0  0  0
    9.2080  -15.8753   24.8659 C   0  0  1  0  0  0  0  0  0  0  0  0
    7.8450  -16.2934   25.5332 C   0  0  0  0  0  0  0  0  0  0  0  0
    6.8981  -15.1557   25.5553 C   0  0  0  0  0  0  0  0  0  0  0  0
    5.5011  -15.3123   25.5134 C   0  0  0  0  0  0  0  0  0  0  0  0
    4.9031  -14.1167   25.5300 N   0  0  0  0  0  0  0  0  0  0  0  0
    5.8679  -13.1493   25.5871 C   0  0  0  0  0  0  0  0  0  0  0  0
    5.7598  -11.7812   25.6244 C   0  0  0  0  0  0  0  0  0  0  0  0
    6.9463  -11.0544   25.6812 C   0  0  0  0  0  0  0  0  0  0  0  0
    8.1681  -11.6736   25.6959 C   0  0  0  0  0  0  0  0  0  0  0  0
    8.2482  -13.0419   25.6554 C   0  0  0  0  0  0  0  0  0  0  0  0
    7.0941  -13.8090   25.6002 C   0  0  0  0  0  0  0  0  0  0  0  0
   10.2892  -16.3114   25.7223 C   0  0  0  0  0  0  0  0  0  0  0  0
   11.2032  -17.1065   25.3088 O   0  0  0  0  0  0  0  0  0  0  0  0
   10.4250  -15.8900   27.0863 N   0  0  0  0  0  0  0  0  0  0  0  0
    9.5927  -14.9860   27.7940 C   0  0  0  0  0  0  0  0  0  0  0  0
   10.6166  -14.1225   28.5577 C   0  0  0  0  0  0  0  0  0  0  0  0
   11.6643  -15.1260   28.9144 C   0  0  0  0  0  0  0  0  0  0  0  0
   11.5359  -16.2732   27.9671 C   0  0  1  0  0  0  0  0  0  0  0  0
   11.1646  -17.4838   28.7428 C   0  0  0  0  0  0  0  0  0  0  0  0
    9.9200  -18.0690   28.7277 O   0  0  0  0  0  0  0  0  0  0  0  0
   12.0212  -18.0730   29.5004 O   0  0  0  0  0  0  0  0  0  0  0  0
  2  1  1  6
  2  3  1  0
  4  2  1  0
  4  5  1  6
  6  7  2  0
  6  4  1  0
  8  6  1  0
  9  8  1  0
  9 10  1  1
 10 11  1  0
 11 19  1  0
 11 12  2  0
 12 13  1  0
 14 13  1  0
 14 15  2  0
 16 15  1  0
 17 16  2  0
 18 19  2  0
 18 17  1  0
 19 14  1  0
 20  9  1  0
 21 20  2  0
 22 20  1  0
 22 26  1  0
 23 24  1  0
 23 22  1  0
 24 25  1  0
 25 26  1  0
 26 27  1  1
 27 28  1  0
 29 27  2  0
M  END
$$$$
