TWP.pdb
     RDKit          3D

 29 31  0  0  1  0  0  0  0  0999 V2000
   10.9360  -17.1239   20.7867 C   0  0  0  0  0  0  0  0  0  0  0  0
   10.1861  -16.0445   20.0899 C   0  0  1  0  0  0  0  0  0  0  0  0
   10.0098  -16.3543   18.7603 O   0  0  0  0  0  0  0  0  0  0  0  0
    8.8674  -15.6933   20.7689 C   0  0  2  0  0  0  0  0  0  0  0  0
    8.2371  -14.7114   19.8933 N   0  0  0  0  0  0  0  0  0  0  0  0
    9.1063  -15.1463   22.1429 C   0  0  0  0  0  0  0  0  0  0  0  0
    9.7043  -14.0462   22.2341 O   0  0  0  0  0  0  0  0  0  0  0  0
    8.6661  -15.8388   23.2752 N   0  0  0  0  0  0  0  0  0  0  0  0
    8.8635  -15.5209   24.6357 C   0  0  1  0  0  0  0  0  0  0  0  0
    7.6027  -16.0113   25.4406 C   0  0  0  0  0  0  0  0  0  0  0  0
    6.6390  -14.9046   25.6359 C   0  0  0  0  0  0  0  0  0  0  0  0
    5.2485  -15.0972   25.7218 C   0  0  0  0  0  0  0  0  0  0  0  0
    4.6300  -13.9227   25.8811 N   0  0  0  0  0  0  0  0  0  0  0  0
    5.5749  -12.9346   25.9098 C   0  0  0  0  0  0  0  0  0  0  0  0
    5.4422  -11.5757   26.0532 C   0  0  0  0  0  0  0  0  0  0  0  0
    6.6127  -10.8214   26.0428 C   0  0  0  0  0  0  0  0  0  0  0  0
    7.8426  -11.4057   25.8931 C   0  0  0  0  0  0  0  0  0  0  0  0
    7.9472  -12.7653   25.7493 C   0  0  0  0  0  0  0  0  0  0  0  0
    6.8099  -13.5590   25.7552 C   0  0  0  0  0  0  0  0  0  0  0  0
   10.0500  -16.0213   25.2948 C   0  0  0  0  0  0  0  0  0  0  0  0
   10.9012  -16.7610   24.6891 O   0  0  0  0  0  0  0  0  0  0  0  0
   10.3666  -15.7293   26.6627 N   0  0  0  0  0  0  0  0  0  0  0  0
    9.6650  -14.8664   27.5424 C   0  0  0  0  0  0  0  0  0  0  0  0
   10.8095  -14.1089   28.2450 C   0  0  0  0  0  0  0  0  0  0  0  0
   11.8482  -15.1737   28.3825 C   0  0  0  0  0  0  0  0  0  0  0  0
   11.5577  -16.2261   27.3636 C   0  0  1  0  0  0  0  0  0  0  0  0
   11.2304  -17.4891   28.0727 C   0  0  0  0  0  0  0  0  0  0  0  0
   12.1576  -18.3139   28.6658 O   0  0  0  0  0  0  0  0  0  0  0  0
   10.0140  -17.8952   28.1741 O   0  0  0  0  0  0  0  0  0  0  0  0
  2  1  1  1
  2  3  1  0
  4  2  1  0
  4  5  1  6
  6  7  2  0
  6  4  1  0
  8  6  1  0
  9  8  1  0
  9 10  1  1
 10 11  1  0
 11 19  1  0
 11 12  2  0
 12 13  1  0
 14 13  1  0
 14 15  2  0
 16 15  1  0
 17 16  2  0
 18 19  2  0
 18 17  1  0
 19 14  1  0
 20  9  1  0
 21 20  2  0
 22 20  1  0
 22 26  1  0
 23 24  1  0
 23 22  1  0
 24 25  1  0
 25 26  1  0
 26 27  1  1
 27 28  1  0
 29 27  2  0
M  END
$$$$
