TWP.pdb
     RDKit          3D

 29 31  0  0  1  0  0  0  0  0999 V2000
   11.0812  -20.3501   16.3450 C   0  0  0  0  0  0  0  0  0  0  0  0
   11.2535  -19.6442   17.6432 C   0  0  1  0  0  0  0  0  0  0  0  0
   12.5584  -19.7282   18.0736 O   0  0  0  0  0  0  0  0  0  0  0  0
   10.7589  -18.2027   17.6143 C   0  0  2  0  0  0  0  0  0  0  0  0
   11.5789  -17.5380   16.6074 N   0  0  0  0  0  0  0  0  0  0  0  0
   10.9015  -17.5650   18.9624 C   0  0  0  0  0  0  0  0  0  0  0  0
   11.9482  -16.9089   19.1867 O   0  0  0  0  0  0  0  0  0  0  0  0
    9.8950  -17.6933   19.9247 N   0  0  0  0  0  0  0  0  0  0  0  0
    9.8978  -17.2593   21.2672 C   0  0  1  0  0  0  0  0  0  0  0  0
    8.4098  -17.2473   21.7807 C   0  0  0  0  0  0  0  0  0  0  0  0
    7.6824  -16.0675   21.2608 C   0  0  0  0  0  0  0  0  0  0  0  0
    6.2870  -15.9180   21.3526 C   0  0  0  0  0  0  0  0  0  0  0  0
    5.9090  -14.7673   20.7866 N   0  0  0  0  0  0  0  0  0  0  0  0
    7.0225  -14.1288   20.3152 C   0  0  0  0  0  0  0  0  0  0  0  0
    7.1547  -12.9280   19.6629 C   0  0  0  0  0  0  0  0  0  0  0  0
    8.4437  -12.5415   19.3045 C   0  0  0  0  0  0  0  0  0  0  0  0
    9.5325  -13.3236   19.5857 C   0  0  0  0  0  0  0  0  0  0  0  0
    9.3726  -14.5201   20.2362 C   0  0  0  0  0  0  0  0  0  0  0  0
    8.1086  -14.9470   20.6151 C   0  0  0  0  0  0  0  0  0  0  0  0
   10.7058  -17.9839   22.2237 C   0  0  0  0  0  0  0  0  0  0  0  0
   11.2017  -19.1340   21.9590 O   0  0  0  0  0  0  0  0  0  0  0  0
   11.0163  -17.4764   23.5286 N   0  0  0  0  0  0  0  0  0  0  0  0
   10.6834  -16.2038   24.0579 C   0  0  0  0  0  0  0  0  0  0  0  0
   11.9867  -15.7913   24.7712 C   0  0  0  0  0  0  0  0  0  0  0  0
   12.4651  -17.0949   25.3221 C   0  0  0  0  0  0  0  0  0  0  0  0
   11.8316  -18.1858   24.5229 C   0  0  1  0  0  0  0  0  0  0  0  0
   10.9508  -18.9753   25.4208 C   0  0  0  0  0  0  0  0  0  0  0  0
   11.3935  -19.9309   26.3054 O   0  0  0  0  0  0  0  0  0  0  0  0
    9.6763  -18.8006   25.4189 O   0  0  0  0  0  0  0  0  0  0  0  0
  2  1  1  6
  2  3  1  0
  4  2  1  0
  4  5  1  6
  6  7  2  0
  6  4  1  0
  8  6  1  0
  9  8  1  0
  9 10  1  1
 10 11  1  0
 11 19  1  0
 11 12  2  0
 12 13  1  0
 14 13  1  0
 14 15  2  0
 16 15  1  0
 17 16  2  0
 18 19  2  0
 18 17  1  0
 19 14  1  0
 20  9  1  0
 21 20  2  0
 22 20  1  0
 22 26  1  0
 23 24  1  0
 23 22  1  0
 24 25  1  0
 25 26  1  0
 26 27  1  1
 27 28  1  0
 29 27  2  0
M  END
$$$$
