TWP.pdb
     RDKit          3D

 29 31  0  0  1  0  0  0  0  0999 V2000
    6.0130  -22.7518   23.1643 C   0  0  0  0  0  0  0  0  0  0  0  0
    6.2797  -21.2888   23.1230 C   0  0  1  0  0  0  0  0  0  0  0  0
    6.7949  -20.9223   21.9002 O   0  0  0  0  0  0  0  0  0  0  0  0
    5.0681  -20.4455   23.5024 C   0  0  2  0  0  0  0  0  0  0  0  0
    4.0261  -20.8271   22.5554 N   0  0  0  0  0  0  0  0  0  0  0  0
    5.3908  -18.9848   23.4209 C   0  0  0  0  0  0  0  0  0  0  0  0
    4.8860  -18.3304   22.4758 O   0  0  0  0  0  0  0  0  0  0  0  0
    6.2166  -18.3803   24.3737 N   0  0  0  0  0  0  0  0  0  0  0  0
    6.6702  -17.0454   24.4281 C   0  0  1  0  0  0  0  0  0  0  0  0
    6.4846  -16.5252   25.9022 C   0  0  0  0  0  0  0  0  0  0  0  0
    7.2629  -15.2859   26.1257 C   0  0  0  0  0  0  0  0  0  0  0  0
    8.6666  -15.2595   26.2086 C   0  0  0  0  0  0  0  0  0  0  0  0
    9.0912  -14.0114   26.4303 N   0  0  0  0  0  0  0  0  0  0  0  0
    8.0021  -13.1871   26.4952 C   0  0  0  0  0  0  0  0  0  0  0  0
    7.9181  -11.8325   26.7025 C   0  0  0  0  0  0  0  0  0  0  0  0
    6.6432  -11.2724   26.7147 C   0  0  0  0  0  0  0  0  0  0  0  0
    5.5211  -12.0365   26.5318 C   0  0  0  0  0  0  0  0  0  0  0  0
    5.6327  -13.3880   26.3292 C   0  0  0  0  0  0  0  0  0  0  0  0
    6.8812  -13.9915   26.3067 C   0  0  0  0  0  0  0  0  0  0  0  0
    8.0255  -16.7608   24.0100 C   0  0  0  0  0  0  0  0  0  0  0  0
    9.0121  -17.4974   24.3605 O   0  0  0  0  0  0  0  0  0  0  0  0
    8.3687  -15.6461   23.1756 N   0  0  0  0  0  0  0  0  0  0  0  0
    7.7970  -14.3487   23.1959 C   0  0  0  0  0  0  0  0  0  0  0  0
    7.6333  -14.0361   21.6949 C   0  0  0  0  0  0  0  0  0  0  0  0
    8.8567  -14.6646   21.1116 C   0  0  0  0  0  0  0  0  0  0  0  0
    9.3371  -15.7015   22.0729 C   0  0  1  0  0  0  0  0  0  0  0  0
   10.6793  -15.2998   22.5652 C   0  0  0  0  0  0  0  0  0  0  0  0
   11.8443  -15.4247   21.8447 O   0  0  0  0  0  0  0  0  0  0  0  0
   10.8300  -14.7939   23.7383 O   0  0  0  0  0  0  0  0  0  0  0  0
  2  1  1  6
  2  3  1  0
  4  2  1  0
  4  5  1  6
  6  7  2  0
  6  4  1  0
  8  6  1  0
  9  8  1  0
  9 10  1  1
 10 11  1  0
 11 19  1  0
 11 12  2  0
 12 13  1  0
 14 13  1  0
 14 15  2  0
 16 15  1  0
 17 16  2  0
 18 19  2  0
 18 17  1  0
 19 14  1  0
 20  9  1  0
 21 20  2  0
 22 20  1  0
 22 26  1  0
 23 24  1  0
 23 22  1  0
 24 25  1  0
 25 26  1  0
 26 27  1  1
 27 28  1  0
 29 27  2  0
M  END
$$$$
