TWP.pdb
     RDKit          3D

 29 31  0  0  1  0  0  0  0  0999 V2000
   10.4729  -18.9011   19.8478 C   0  0  0  0  0  0  0  0  0  0  0  0
   10.6349  -18.1708   21.1337 C   0  0  1  0  0  0  0  0  0  0  0  0
   11.9646  -17.9213   21.3877 O   0  0  0  0  0  0  0  0  0  0  0  0
    9.7954  -16.9011   21.2141 C   0  0  2  0  0  0  0  0  0  0  0  0
   10.2753  -16.0568   20.1256 N   0  0  0  0  0  0  0  0  0  0  0  0
    9.9583  -16.2402   22.5487 C   0  0  0  0  0  0  0  0  0  0  0  0
   10.7919  -15.3055   22.6360 O   0  0  0  0  0  0  0  0  0  0  0  0
    9.1971  -16.6501   23.6478 N   0  0  0  0  0  0  0  0  0  0  0  0
    9.3039  -16.2450   24.9951 C   0  0  1  0  0  0  0  0  0  0  0  0
    7.9120  -16.4850   25.6900 C   0  0  0  0  0  0  0  0  0  0  0  0
    6.9757  -15.3781   25.3907 C   0  0  0  0  0  0  0  0  0  0  0  0
    5.7393  -15.5647   24.7469 C   0  0  0  0  0  0  0  0  0  0  0  0
    5.1174  -14.3910   24.5954 N   0  0  0  0  0  0  0  0  0  0  0  0
    5.9061  -13.4095   25.1286 C   0  0  0  0  0  0  0  0  0  0  0  0
    5.7079  -12.0538   25.2170 C   0  0  0  0  0  0  0  0  0  0  0  0
    6.7123  -11.3063   25.8267 C   0  0  0  0  0  0  0  0  0  0  0  0
    7.8496  -11.8937   26.3143 C   0  0  0  0  0  0  0  0  0  0  0  0
    8.0239  -13.2499   26.2111 C   0  0  0  0  0  0  0  0  0  0  0  0
    7.0506  -14.0369   25.6137 C   0  0  0  0  0  0  0  0  0  0  0  0
   10.3338  -16.8445   25.8151 C   0  0  0  0  0  0  0  0  0  0  0  0
   11.0513  -17.8190   25.3976 O   0  0  0  0  0  0  0  0  0  0  0  0
   10.6335  -16.3982   27.1446 N   0  0  0  0  0  0  0  0  0  0  0  0
   10.0527  -15.3049   27.8360 C   0  0  0  0  0  0  0  0  0  0  0  0
   11.2779  -14.6455   28.5003 C   0  0  0  0  0  0  0  0  0  0  0  0
   12.1088  -15.8319   28.8663 C   0  0  0  0  0  0  0  0  0  0  0  0
   11.6870  -16.9684   27.9942 C   0  0  1  0  0  0  0  0  0  0  0  0
   11.1134  -18.0337   28.8553 C   0  0  0  0  0  0  0  0  0  0  0  0
    9.7827  -18.3804   28.8857 O   0  0  0  0  0  0  0  0  0  0  0  0
   11.8601  -18.7158   29.6503 O   0  0  0  0  0  0  0  0  0  0  0  0
  2  1  1  6
  2  3  1  0
  4  2  1  0
  4  5  1  6
  6  7  2  0
  6  4  1  0
  8  6  1  0
  9  8  1  0
  9 10  1  1
 10 11  1  0
 11 19  1  0
 11 12  2  0
 12 13  1  0
 14 13  1  0
 14 15  2  0
 16 15  1  0
 17 16  2  0
 18 19  2  0
 18 17  1  0
 19 14  1  0
 20  9  1  0
 21 20  2  0
 22 20  1  0
 22 26  1  0
 23 24  1  0
 23 22  1  0
 24 25  1  0
 25 26  1  0
 26 27  1  1
 27 28  1  0
 29 27  2  0
M  END
$$$$
