TWP.pdb
     RDKit          3D

 29 31  0  0  1  0  0  0  0  0999 V2000
   11.1326  -18.1668   21.8551 C   0  0  0  0  0  0  0  0  0  0  0  0
   10.8564  -17.0100   20.9613 C   0  0  1  0  0  0  0  0  0  0  0  0
   10.8984  -17.3946   19.6402 O   0  0  0  0  0  0  0  0  0  0  0  0
    9.5586  -16.2855   21.2988 C   0  0  2  0  0  0  0  0  0  0  0  0
    9.3596  -15.3331   20.2120 N   0  0  0  0  0  0  0  0  0  0  0  0
    9.6611  -15.6037   22.6288 C   0  0  0  0  0  0  0  0  0  0  0  0
   10.2692  -14.5062   22.6734 O   0  0  0  0  0  0  0  0  0  0  0  0
    9.0879  -16.1724   23.7705 N   0  0  0  0  0  0  0  0  0  0  0  0
    9.2153  -15.7681   25.1163 C   0  0  1  0  0  0  0  0  0  0  0  0
    7.8569  -16.0747   25.8501 C   0  0  0  0  0  0  0  0  0  0  0  0
    6.8768  -14.9894   25.6197 C   0  0  0  0  0  0  0  0  0  0  0  0
    5.5631  -15.2169   25.1719 C   0  0  0  0  0  0  0  0  0  0  0  0
    4.9146  -14.0555   25.0385 N   0  0  0  0  0  0  0  0  0  0  0  0
    5.7618  -13.0418   25.3918 C   0  0  0  0  0  0  0  0  0  0  0  0
    5.5651  -11.6835   25.4235 C   0  0  0  0  0  0  0  0  0  0  0  0
    6.6388  -10.8985   25.8359 C   0  0  0  0  0  0  0  0  0  0  0  0
    7.8396  -11.4534   26.1915 C   0  0  0  0  0  0  0  0  0  0  0  0
    8.0106  -12.8132   26.1486 C   0  0  0  0  0  0  0  0  0  0  0  0
    6.9698  -13.6368   25.7462 C   0  0  0  0  0  0  0  0  0  0  0  0
   10.2953  -16.3229   25.9028 C   0  0  0  0  0  0  0  0  0  0  0  0
   11.0816  -17.2197   25.4378 O   0  0  0  0  0  0  0  0  0  0  0  0
   10.5715  -15.9148   27.2496 N   0  0  0  0  0  0  0  0  0  0  0  0
    9.9231  -14.8931   27.9886 C   0  0  0  0  0  0  0  0  0  0  0  0
   11.1053  -14.1826   28.6779 C   0  0  0  0  0  0  0  0  0  0  0  0
   12.0148  -15.3257   28.9906 C   0  0  0  0  0  0  0  0  0  0  0  0
   11.6649  -16.4494   28.0714 C   0  0  1  0  0  0  0  0  0  0  0  0
   11.1677  -17.5863   28.8873 C   0  0  0  0  0  0  0  0  0  0  0  0
    9.8687  -18.0384   28.8861 O   0  0  0  0  0  0  0  0  0  0  0  0
   11.9567  -18.2344   29.6697 O   0  0  0  0  0  0  0  0  0  0  0  0
  2  1  1  1
  2  3  1  0
  4  2  1  0
  4  5  1  6
  6  7  2  0
  6  4  1  0
  8  6  1  0
  9  8  1  0
  9 10  1  1
 10 11  1  0
 11 19  1  0
 11 12  2  0
 12 13  1  0
 14 13  1  0
 14 15  2  0
 16 15  1  0
 17 16  2  0
 18 19  2  0
 18 17  1  0
 19 14  1  0
 20  9  1  0
 21 20  2  0
 22 20  1  0
 22 26  1  0
 23 24  1  0
 23 22  1  0
 24 25  1  0
 25 26  1  0
 26 27  1  1
 27 28  1  0
 29 27  2  0
M  END
$$$$
