TWP.pdb
     RDKit          3D

 29 31  0  0  1  0  0  0  0  0999 V2000
   11.7927  -14.9981   20.6935 C   0  0  0  0  0  0  0  0  0  0  0  0
   10.7051  -16.0132   20.6938 C   0  0  1  0  0  0  0  0  0  0  0  0
   10.6180  -16.6336   19.4681 O   0  0  0  0  0  0  0  0  0  0  0  0
   10.8232  -17.0210   21.8312 C   0  0  2  0  0  0  0  0  0  0  0  0
    9.7115  -17.9457   21.6385 N   0  0  0  0  0  0  0  0  0  0  0  0
   10.7550  -16.3328   23.1601 C   0  0  0  0  0  0  0  0  0  0  0  0
   11.6506  -15.4942   23.4265 O   0  0  0  0  0  0  0  0  0  0  0  0
    9.7215  -16.6139   24.0592 N   0  0  0  0  0  0  0  0  0  0  0  0
    9.5610  -16.1647   25.3870 C   0  0  1  0  0  0  0  0  0  0  0  0
    8.1065  -16.5396   25.8580 C   0  0  0  0  0  0  0  0  0  0  0  0
    7.1318  -15.5120   25.4274 C   0  0  0  0  0  0  0  0  0  0  0  0
    6.0388  -15.7880   24.5865 C   0  0  0  0  0  0  0  0  0  0  0  0
    5.3428  -14.6705   24.3543 N   0  0  0  0  0  0  0  0  0  0  0  0
    5.9397  -13.6396   25.0257 C   0  0  0  0  0  0  0  0  0  0  0  0
    5.6042  -12.3106   25.1026 C   0  0  0  0  0  0  0  0  0  0  0  0
    6.4225  -11.4958   25.8809 C   0  0  0  0  0  0  0  0  0  0  0  0
    7.5156  -11.9942   26.5389 C   0  0  0  0  0  0  0  0  0  0  0  0
    7.8301  -13.3254   26.4434 C   0  0  0  0  0  0  0  0  0  0  0  0
    7.0442  -14.1771   25.6816 C   0  0  0  0  0  0  0  0  0  0  0  0
   10.4986  -16.6249   26.3879 C   0  0  0  0  0  0  0  0  0  0  0  0
   11.3616  -17.5373   26.1400 O   0  0  0  0  0  0  0  0  0  0  0  0
   10.5393  -16.0994   27.7217 N   0  0  0  0  0  0  0  0  0  0  0  0
    9.7855  -15.0175   28.2429 C   0  0  0  0  0  0  0  0  0  0  0  0
   10.8379  -14.2475   29.0657 C   0  0  0  0  0  0  0  0  0  0  0  0
   11.6619  -15.3574   29.6323 C   0  0  0  0  0  0  0  0  0  0  0  0
   11.4632  -16.5581   28.7670 C   0  0  1  0  0  0  0  0  0  0  0  0
   10.8141  -17.6194   29.5779 C   0  0  0  0  0  0  0  0  0  0  0  0
    9.5089  -18.0269   29.4289 O   0  0  0  0  0  0  0  0  0  0  0  0
   11.4636  -18.2385   30.4996 O   0  0  0  0  0  0  0  0  0  0  0  0
  2  1  1  6
  2  3  1  0
  4  2  1  0
  4  5  1  1
  6  7  2  0
  6  4  1  0
  8  6  1  0
  9  8  1  0
  9 10  1  1
 10 11  1  0
 11 19  1  0
 11 12  2  0
 12 13  1  0
 14 13  1  0
 14 15  2  0
 16 15  1  0
 17 16  2  0
 18 19  2  0
 18 17  1  0
 19 14  1  0
 20  9  1  0
 21 20  2  0
 22 20  1  0
 22 26  1  0
 23 24  1  0
 23 22  1  0
 24 25  1  0
 25 26  1  0
 26 27  1  1
 27 28  1  0
 29 27  2  0
M  END
$$$$
