TWP.pdb
     RDKit          3D

 29 31  0  0  1  0  0  0  0  0999 V2000
   11.6417  -18.8239   22.2213 C   0  0  0  0  0  0  0  0  0  0  0  0
   11.6420  -17.6815   21.2684 C   0  0  1  0  0  0  0  0  0  0  0  0
   11.8657  -18.1199   19.9828 O   0  0  0  0  0  0  0  0  0  0  0  0
   10.3884  -16.8196   21.3623 C   0  0  2  0  0  0  0  0  0  0  0  0
   10.4774  -15.8930   20.2392 N   0  0  0  0  0  0  0  0  0  0  0  0
   10.3338  -16.1025   22.6766 C   0  0  0  0  0  0  0  0  0  0  0  0
   11.0771  -15.1014   22.8232 O   0  0  0  0  0  0  0  0  0  0  0  0
    9.4752  -16.5345   23.6923 N   0  0  0  0  0  0  0  0  0  0  0  0
    9.4061  -16.1003   25.0329 C   0  0  1  0  0  0  0  0  0  0  0  0
    7.9609  -16.4109   25.5740 C   0  0  0  0  0  0  0  0  0  0  0  0
    7.0312  -15.3024   25.2604 C   0  0  0  0  0  0  0  0  0  0  0  0
    5.9475  -15.4304   24.3732 C   0  0  0  0  0  0  0  0  0  0  0  0
    5.2952  -14.2679   24.2723 N   0  0  0  0  0  0  0  0  0  0  0  0
    5.9126  -13.3520   25.0785 C   0  0  0  0  0  0  0  0  0  0  0  0
    5.6211  -12.0318   25.3169 C   0  0  0  0  0  0  0  0  0  0  0  0
    6.4500  -11.3517   26.2055 C   0  0  0  0  0  0  0  0  0  0  0  0
    7.5113  -11.9684   26.8135 C   0  0  0  0  0  0  0  0  0  0  0  0
    7.7821  -13.2877   26.5559 C   0  0  0  0  0  0  0  0  0  0  0  0
    6.9839  -14.0077   25.6796 C   0  0  0  0  0  0  0  0  0  0  0  0
   10.3699  -16.6229   25.9767 C   0  0  0  0  0  0  0  0  0  0  0  0
   11.1611  -17.5833   25.6764 O   0  0  0  0  0  0  0  0  0  0  0  0
   10.5178  -16.1105   27.3080 N   0  0  0  0  0  0  0  0  0  0  0  0
    9.7906  -15.0509   27.9073 C   0  0  0  0  0  0  0  0  0  0  0  0
   10.8955  -14.2664   28.6429 C   0  0  0  0  0  0  0  0  0  0  0  0
   11.7898  -15.3635   29.1206 C   0  0  0  0  0  0  0  0  0  0  0  0
   11.5405  -16.5594   28.2616 C   0  0  1  0  0  0  0  0  0  0  0  0
   10.9885  -17.6431   29.1138 C   0  0  0  0  0  0  0  0  0  0  0  0
    9.6795  -18.0648   29.0896 O   0  0  0  0  0  0  0  0  0  0  0  0
   11.7348  -18.2699   29.9534 O   0  0  0  0  0  0  0  0  0  0  0  0
  2  1  1  1
  2  3  1  0
  4  2  1  0
  4  5  1  6
  6  7  2  0
  6  4  1  0
  8  6  1  0
  9  8  1  0
  9 10  1  1
 10 11  1  0
 11 19  1  0
 11 12  2  0
 12 13  1  0
 14 13  1  0
 14 15  2  0
 16 15  1  0
 17 16  2  0
 18 19  2  0
 18 17  1  0
 19 14  1  0
 20  9  1  0
 21 20  2  0
 22 20  1  0
 22 26  1  0
 23 24  1  0
 23 22  1  0
 24 25  1  0
 25 26  1  0
 26 27  1  1
 27 28  1  0
 29 27  2  0
M  END
$$$$
