TWP.pdb
     RDKit          3D

 29 31  0  0  1  0  0  0  0  0999 V2000
   11.8681  -18.5193   21.9868 C   0  0  0  0  0  0  0  0  0  0  0  0
   11.8608  -17.3922   21.0159 C   0  0  1  0  0  0  0  0  0  0  0  0
   12.1811  -17.8357   19.7527 O   0  0  0  0  0  0  0  0  0  0  0  0
   10.5589  -16.5996   21.0242 C   0  0  2  0  0  0  0  0  0  0  0  0
   10.6646  -15.6804   19.8964 N   0  0  0  0  0  0  0  0  0  0  0  0
   10.3870  -15.8739   22.3236 C   0  0  0  0  0  0  0  0  0  0  0  0
   11.1286  -14.8840   22.5384 O   0  0  0  0  0  0  0  0  0  0  0  0
    9.4255  -16.2861   23.2515 N   0  0  0  0  0  0  0  0  0  0  0  0
    9.2567  -15.8720   24.5897 C   0  0  1  0  0  0  0  0  0  0  0  0
    7.8681  -16.4121   25.0976 C   0  0  0  0  0  0  0  0  0  0  0  0
    6.9383  -15.2946   25.3771 C   0  0  0  0  0  0  0  0  0  0  0  0
    5.5788  -15.4796   25.6863 C   0  0  0  0  0  0  0  0  0  0  0  0
    4.9841  -14.2969   25.8735 N   0  0  0  0  0  0  0  0  0  0  0  0
    5.9155  -13.3105   25.7017 C   0  0  0  0  0  0  0  0  0  0  0  0
    5.7971  -11.9455   25.7882 C   0  0  0  0  0  0  0  0  0  0  0  0
    6.9469  -11.1950   25.5562 C   0  0  0  0  0  0  0  0  0  0  0  0
    8.1432  -11.7889   25.2518 C   0  0  0  0  0  0  0  0  0  0  0  0
    8.2337  -13.1546   25.1692 C   0  0  0  0  0  0  0  0  0  0  0  0
    7.1163  -13.9447   25.3939 C   0  0  0  0  0  0  0  0  0  0  0  0
   10.2699  -16.2354   25.5562 C   0  0  0  0  0  0  0  0  0  0  0  0
   11.2168  -17.0489   25.2726 O   0  0  0  0  0  0  0  0  0  0  0  0
   10.2974  -15.7168   26.8929 N   0  0  0  0  0  0  0  0  0  0  0  0
    9.4303  -14.7469   27.4569 C   0  0  0  0  0  0  0  0  0  0  0  0
   10.4059  -13.8492   28.2442 C   0  0  0  0  0  0  0  0  0  0  0  0
   11.3922  -14.8437   28.7638 C   0  0  0  0  0  0  0  0  0  0  0  0
   11.3171  -16.0552   27.8940 C   0  0  1  0  0  0  0  0  0  0  0  0
   10.8484  -17.1976   28.7191 C   0  0  0  0  0  0  0  0  0  0  0  0
    9.5934  -17.7548   28.6393 O   0  0  0  0  0  0  0  0  0  0  0  0
   11.6217  -17.7485   29.5870 O   0  0  0  0  0  0  0  0  0  0  0  0
  2  1  1  1
  2  3  1  0
  4  2  1  0
  4  5  1  6
  6  7  2  0
  6  4  1  0
  8  6  1  0
  9  8  1  0
  9 10  1  1
 10 11  1  0
 11 19  1  0
 11 12  2  0
 12 13  1  0
 14 13  1  0
 14 15  2  0
 16 15  1  0
 17 16  2  0
 18 19  2  0
 18 17  1  0
 19 14  1  0
 20  9  1  0
 21 20  2  0
 22 20  1  0
 22 26  1  0
 23 24  1  0
 23 22  1  0
 24 25  1  0
 25 26  1  0
 26 27  1  1
 27 28  1  0
 29 27  2  0
M  END
$$$$
