TWP.pdb
     RDKit          3D

 29 31  0  0  1  0  0  0  0  0999 V2000
   12.3036  -18.3097   21.9177 C   0  0  0  0  0  0  0  0  0  0  0  0
   12.1745  -17.2330   20.8992 C   0  0  1  0  0  0  0  0  0  0  0  0
   12.5394  -17.6942   19.6545 O   0  0  0  0  0  0  0  0  0  0  0  0
   10.7952  -16.5848   20.8805 C   0  0  2  0  0  0  0  0  0  0  0  0
   10.8112  -15.6868   19.7310 N   0  0  0  0  0  0  0  0  0  0  0  0
   10.5357  -15.8509   22.1605 C   0  0  0  0  0  0  0  0  0  0  0  0
   11.2432  -14.8432   22.4059 O   0  0  0  0  0  0  0  0  0  0  0  0
    9.5327  -16.2750   23.0378 N   0  0  0  0  0  0  0  0  0  0  0  0
    9.2713  -15.8411   24.3547 C   0  0  1  0  0  0  0  0  0  0  0  0
    7.8636  -16.4000   24.7836 C   0  0  0  0  0  0  0  0  0  0  0  0
    6.9814  -15.3057   25.2483 C   0  0  0  0  0  0  0  0  0  0  0  0
    5.6779  -15.5169   25.7322 C   0  0  0  0  0  0  0  0  0  0  0  0
    5.1148  -14.3502   26.0627 N   0  0  0  0  0  0  0  0  0  0  0  0
    6.0134  -13.3492   25.8166 C   0  0  0  0  0  0  0  0  0  0  0  0
    5.9080  -11.9916   25.9914 C   0  0  0  0  0  0  0  0  0  0  0  0
    7.0146  -11.2214   25.6429 C   0  0  0  0  0  0  0  0  0  0  0  0
    8.1572  -11.7894   25.1447 C   0  0  0  0  0  0  0  0  0  0  0  0
    8.2355  -13.1482   24.9776 C   0  0  0  0  0  0  0  0  0  0  0  0
    7.1600  -13.9573   25.3123 C   0  0  0  0  0  0  0  0  0  0  0  0
   10.2276  -16.1671   25.3900 C   0  0  0  0  0  0  0  0  0  0  0  0
   11.1836  -16.9955   25.1936 O   0  0  0  0  0  0  0  0  0  0  0  0
   10.1848  -15.5923   26.7032 N   0  0  0  0  0  0  0  0  0  0  0  0
    9.2840  -14.6073   27.1817 C   0  0  0  0  0  0  0  0  0  0  0  0
   10.2130  -13.6686   27.9774 C   0  0  0  0  0  0  0  0  0  0  0  0
   11.1789  -14.6314   28.5872 C   0  0  0  0  0  0  0  0  0  0  0  0
   11.1556  -15.8792   27.7671 C   0  0  1  0  0  0  0  0  0  0  0  0
   10.6541  -16.9898   28.6158 C   0  0  0  0  0  0  0  0  0  0  0  0
    9.4098  -17.5635   28.4952 O   0  0  0  0  0  0  0  0  0  0  0  0
   11.3856  -17.4944   29.5459 O   0  0  0  0  0  0  0  0  0  0  0  0
  2  1  1  1
  2  3  1  0
  4  2  1  0
  4  5  1  6
  6  7  2  0
  6  4  1  0
  8  6  1  0
  9  8  1  0
  9 10  1  1
 10 11  1  0
 11 19  1  0
 11 12  2  0
 12 13  1  0
 14 13  1  0
 14 15  2  0
 16 15  1  0
 17 16  2  0
 18 19  2  0
 18 17  1  0
 19 14  1  0
 20  9  1  0
 21 20  2  0
 22 20  1  0
 22 26  1  0
 23 24  1  0
 23 22  1  0
 24 25  1  0
 25 26  1  0
 26 27  1  1
 27 28  1  0
 29 27  2  0
M  END
$$$$
