TWP.pdb
     RDKit          3D

 29 31  0  0  1  0  0  0  0  0999 V2000
   10.7732  -17.6885   20.9545 C   0  0  0  0  0  0  0  0  0  0  0  0
   10.1895  -16.5659   20.1719 C   0  0  1  0  0  0  0  0  0  0  0  0
   10.0082  -16.9315   18.8572 O   0  0  0  0  0  0  0  0  0  0  0  0
    8.9113  -16.0060   20.7851 C   0  0  2  0  0  0  0  0  0  0  0  0
    8.4265  -15.0216   19.8238 N   0  0  0  0  0  0  0  0  0  0  0  0
    9.1885  -15.3921   22.1233 C   0  0  0  0  0  0  0  0  0  0  0  0
    9.9224  -14.3740   22.1543 O   0  0  0  0  0  0  0  0  0  0  0  0
    8.6366  -15.9352   23.2877 N   0  0  0  0  0  0  0  0  0  0  0  0
    8.8521  -15.5512   24.6282 C   0  0  1  0  0  0  0  0  0  0  0  0
    7.5771  -15.9478   25.4618 C   0  0  0  0  0  0  0  0  0  0  0  0
    6.6697  -14.7890   25.6204 C   0  0  0  0  0  0  0  0  0  0  0  0
    5.2716  -14.9096   25.7143 C   0  0  0  0  0  0  0  0  0  0  0  0
    4.7123  -13.7012   25.8343 N   0  0  0  0  0  0  0  0  0  0  0  0
    5.7048  -12.7606   25.8284 C   0  0  0  0  0  0  0  0  0  0  0  0
    5.6397  -11.3928   25.9257 C   0  0  0  0  0  0  0  0  0  0  0  0
    6.8460  -10.6980   25.8886 C   0  0  0  0  0  0  0  0  0  0  0  0
    8.0451  -11.3470   25.7575 C   0  0  0  0  0  0  0  0  0  0  0  0
    8.0821  -12.7142   25.6597 C   0  0  0  0  0  0  0  0  0  0  0  0
    6.9071  -13.4502   25.6938 C   0  0  0  0  0  0  0  0  0  0  0  0
   10.0215  -16.0601   25.3110 C   0  0  0  0  0  0  0  0  0  0  0  0
   10.8263  -16.8853   24.7542 O   0  0  0  0  0  0  0  0  0  0  0  0
   10.3715  -15.6827   26.6495 N   0  0  0  0  0  0  0  0  0  0  0  0
    9.7138  -14.7368   27.4761 C   0  0  0  0  0  0  0  0  0  0  0  0
   10.8943  -13.9701   28.1052 C   0  0  0  0  0  0  0  0  0  0  0  0
   11.9005  -15.0566   28.3023 C   0  0  0  0  0  0  0  0  0  0  0  0
   11.5582  -16.1682   27.3656 C   0  0  1  0  0  0  0  0  0  0  0  0
   11.2030  -17.3662   28.1681 C   0  0  0  0  0  0  0  0  0  0  0  0
    9.9366  -17.8943   28.2632 O   0  0  0  0  0  0  0  0  0  0  0  0
   12.0962  -17.9988   28.8439 O   0  0  0  0  0  0  0  0  0  0  0  0
  2  1  1  1
  2  3  1  0
  4  2  1  0
  4  5  1  6
  6  7  2  0
  6  4  1  0
  8  6  1  0
  9  8  1  0
  9 10  1  1
 10 11  1  0
 11 19  1  0
 11 12  2  0
 12 13  1  0
 14 13  1  0
 14 15  2  0
 16 15  1  0
 17 16  2  0
 18 19  2  0
 18 17  1  0
 19 14  1  0
 20  9  1  0
 21 20  2  0
 22 20  1  0
 22 26  1  0
 23 24  1  0
 23 22  1  0
 24 25  1  0
 25 26  1  0
 26 27  1  1
 27 28  1  0
 29 27  2  0
M  END
$$$$
