TWP.pdb
     RDKit          3D

 29 31  0  0  1  0  0  0  0  0999 V2000
    6.8439  -20.2634   20.7940 C   0  0  0  0  0  0  0  0  0  0  0  0
    5.4344  -20.2591   21.2701 C   0  0  1  0  0  0  0  0  0  0  0  0
    4.9258  -21.5380   21.2971 O   0  0  0  0  0  0  0  0  0  0  0  0
    5.2532  -19.5496   22.6069 C   0  0  2  0  0  0  0  0  0  0  0  0
    3.8380  -19.6971   22.9283 N   0  0  0  0  0  0  0  0  0  0  0  0
    5.6567  -18.1105   22.5036 C   0  0  0  0  0  0  0  0  0  0  0  0
    4.9696  -17.3666   21.7615 O   0  0  0  0  0  0  0  0  0  0  0  0
    6.7537  -17.6218   23.2199 N   0  0  0  0  0  0  0  0  0  0  0  0
    7.4699  -16.4217   23.0262 C   0  0  1  0  0  0  0  0  0  0  0  0
    8.1991  -16.0639   24.3747 C   0  0  0  0  0  0  0  0  0  0  0  0
    7.3131  -15.2743   25.2595 C   0  0  0  0  0  0  0  0  0  0  0  0
    6.1801  -15.8111   25.8967 C   0  0  0  0  0  0  0  0  0  0  0  0
    5.5656  -14.8665   26.6161 N   0  0  0  0  0  0  0  0  0  0  0  0
    6.2626  -13.6974   26.4836 C   0  0  0  0  0  0  0  0  0  0  0  0
    6.0350  -12.4558   27.0232 C   0  0  0  0  0  0  0  0  0  0  0  0
    6.9393  -11.4486   26.6959 C   0  0  0  0  0  0  0  0  0  0  0  0
    8.0070  -11.6822   25.8702 C   0  0  0  0  0  0  0  0  0  0  0  0
    8.2101  -12.9313   25.3424 C   0  0  0  0  0  0  0  0  0  0  0  0
    7.3378  -13.9673   25.6408 C   0  0  0  0  0  0  0  0  0  0  0  0
    8.4382  -16.3629   21.9531 C   0  0  0  0  0  0  0  0  0  0  0  0
    9.1313  -17.3825   21.6086 O   0  0  0  0  0  0  0  0  0  0  0  0
    8.6940  -15.1727   21.1949 N   0  0  0  0  0  0  0  0  0  0  0  0
    8.0762  -13.9058   21.3489 C   0  0  0  0  0  0  0  0  0  0  0  0
    7.8200  -13.4832   19.8883 C   0  0  0  0  0  0  0  0  0  0  0  0
    9.0326  -14.0126   19.1947 C   0  0  0  0  0  0  0  0  0  0  0  0
    9.6027  -15.1010   20.0435 C   0  0  1  0  0  0  0  0  0  0  0  0
   10.9537  -14.6839   20.4976 C   0  0  0  0  0  0  0  0  0  0  0  0
   12.0853  -14.7209   19.7167 O   0  0  0  0  0  0  0  0  0  0  0  0
   11.1451  -14.2487   21.6929 O   0  0  0  0  0  0  0  0  0  0  0  0
  2  1  1  1
  2  3  1  0
  4  2  1  0
  4  5  1  6
  6  7  2  0
  6  4  1  0
  8  6  1  0
  9  8  1  0
  9 10  1  1
 10 11  1  0
 11 19  1  0
 11 12  2  0
 12 13  1  0
 14 13  1  0
 14 15  2  0
 16 15  1  0
 17 16  2  0
 18 19  2  0
 18 17  1  0
 19 14  1  0
 20  9  1  0
 21 20  2  0
 22 20  1  0
 22 26  1  0
 23 24  1  0
 23 22  1  0
 24 25  1  0
 25 26  1  0
 26 27  1  1
 27 28  1  0
 29 27  2  0
M  END
$$$$
