LKH.pdb
     RDKit          3D

 28 28  0  0  1  0  0  0  0  0999 V2000
    8.6352  -14.8795   17.2683 C   0  0  0  0  0  0  0  0  0  0  0  0
    7.9349  -13.9107   18.1780 C   0  0  2  0  0  0  0  0  0  0  0  0
    7.6182  -12.5934   17.4707 C   0  0  0  0  0  0  0  0  0  0  0  0
    8.7670  -13.6450   19.4413 C   0  0  0  0  0  0  0  0  0  0  0  0
    8.7617  -14.9316   20.2241 C   0  0  2  0  0  0  0  0  0  0  0  0
    7.4797  -15.5513   20.0880 N   0  0  0  0  0  0  0  0  0  0  0  0
    9.1619  -14.7405   21.6395 C   0  0  0  0  0  0  0  0  0  0  0  0
   10.3255  -14.5504   22.0153 O   0  0  0  0  0  0  0  0  0  0  0  0
    8.1417  -14.7800   22.6127 N   0  0  0  0  0  0  0  0  0  0  0  0
    8.3389  -14.4620   24.0195 C   0  0  1  0  0  0  0  0  0  0  0  0
    7.1603  -13.8089   24.6276 C   0  0  0  0  0  0  0  0  0  0  0  0
    7.4768  -13.3172   26.0041 C   0  0  0  0  0  0  0  0  0  0  0  0
    6.3295  -12.5786   26.6700 C   0  0  0  0  0  0  0  0  0  0  0  0
    6.7856  -12.0922   28.0140 C   0  0  0  0  0  0  0  0  0  0  0  0
    5.6912  -11.4274   28.7276 N   0  0  0  0  0  0  0  0  0  0  0  0
    8.7668  -15.6723   24.7018 C   0  0  0  0  0  0  0  0  0  0  0  0
    8.0975  -16.7275   24.8795 O   0  0  0  0  0  0  0  0  0  0  0  0
   10.1035  -15.7158   25.2554 N   0  0  0  0  0  0  0  0  0  0  0  0
   10.5835  -16.9297   25.9016 C   0  0  1  0  0  0  0  0  0  0  0  0
   12.0765  -16.9672   25.6438 C   0  0  0  0  0  0  0  0  0  0  0  0
   12.2890  -17.6706   24.3536 C   0  0  0  0  0  0  0  0  0  0  0  0
   11.2934  -18.2501   23.5580 C   0  0  0  0  0  0  0  0  0  0  0  0
   11.8416  -18.7994   22.4632 N   0  0  0  0  0  0  0  0  0  0  0  0
   13.1612  -18.5738   22.5602 C   0  0  0  0  0  0  0  0  0  0  0  0
   13.4335  -17.9023   23.6834 N   0  0  0  0  0  0  0  0  0  0  0  0
   10.2824  -16.8211   27.3475 C   0  0  0  0  0  0  0  0  0  0  0  0
   10.4932  -17.7640   28.1373 O   0  0  0  0  0  0  0  0  0  0  0  0
    9.7510  -15.6556   27.8750 O   0  0  0  0  0  0  0  0  0  0  0  0
  2  1  1  6
  3  2  1  0
  4  2  1  0
  5  4  1  0
  5  6  1  1
  7  5  1  0
  7  8  2  0
  9  7  1  0
 10  9  1  0
 10 11  1  1
 11 12  1  0
 12 13  1  0
 13 14  1  0
 14 15  1  0
 16 10  1  0
 17 16  2  0
 18 16  1  0
 19 18  1  0
 19 20  1  1
 20 21  1  0
 21 22  2  0
 22 23  1  0
 24 23  1  0
 25 21  1  0
 25 24  2  0
 26 28  1  0
 26 19  1  0
 27 26  2  0
M  END
$$$$
