LKH.pdb
     RDKit          3D

 28 28  0  0  1  0  0  0  0  0999 V2000
    9.4188  -12.8123   19.1841 C   0  0  0  0  0  0  0  0  0  0  0  0
    8.0195  -13.3497   19.0862 C   0  0  2  0  0  0  0  0  0  0  0  0
    7.0098  -12.2508   18.7568 C   0  0  0  0  0  0  0  0  0  0  0  0
    7.6154  -14.0665   20.3831 C   0  0  0  0  0  0  0  0  0  0  0  0
    8.7128  -15.0562   20.6736 C   0  0  2  0  0  0  0  0  0  0  0  0
    8.7945  -15.9880   19.5914 N   0  0  0  0  0  0  0  0  0  0  0  0
    8.5518  -15.7168   21.9918 C   0  0  0  0  0  0  0  0  0  0  0  0
    8.3194  -15.1165   23.0486 O   0  0  0  0  0  0  0  0  0  0  0  0
    8.6734  -17.1215   22.0322 N   0  0  0  0  0  0  0  0  0  0  0  0
    8.5807  -17.9170   23.2478 C   0  0  1  0  0  0  0  0  0  0  0  0
    8.4158  -19.3604   22.9740 C   0  0  0  0  0  0  0  0  0  0  0  0
    7.1925  -19.6084   22.1502 C   0  0  0  0  0  0  0  0  0  0  0  0
    7.0833  -21.0298   21.6276 C   0  0  0  0  0  0  0  0  0  0  0  0
    5.8803  -21.1239   20.7363 C   0  0  0  0  0  0  0  0  0  0  0  0
    5.7241  -22.4839   20.2120 N   0  0  0  0  0  0  0  0  0  0  0  0
    9.7241  -17.5972   24.0868 C   0  0  0  0  0  0  0  0  0  0  0  0
   10.7496  -16.9366   23.7628 O   0  0  0  0  0  0  0  0  0  0  0  0
    9.7291  -18.0698   25.4549 N   0  0  0  0  0  0  0  0  0  0  0  0
   10.2803  -17.2321   26.5114 C   0  0  1  0  0  0  0  0  0  0  0  0
    9.4279  -15.9791   26.5263 C   0  0  0  0  0  0  0  0  0  0  0  0
    9.8850  -15.1419   27.6640 C   0  0  0  0  0  0  0  0  0  0  0  0
    9.2679  -15.0476   28.9171 C   0  0  0  0  0  0  0  0  0  0  0  0
    9.9495  -14.1994   29.7025 N   0  0  0  0  0  0  0  0  0  0  0  0
   10.9808  -13.7620   28.9632 C   0  0  0  0  0  0  0  0  0  0  0  0
   10.9478  -14.3196   27.7488 N   0  0  0  0  0  0  0  0  0  0  0  0
   10.1716  -17.9808   27.7844 C   0  0  0  0  0  0  0  0  0  0  0  0
    9.1643  -18.6622   28.0644 O   0  0  0  0  0  0  0  0  0  0  0  0
   11.1968  -17.9479   28.7156 O   0  0  0  0  0  0  0  0  0  0  0  0
  2  1  1  1
  3  2  1  0
  4  2  1  0
  5  4  1  0
  5  6  1  6
  7  5  1  0
  7  8  2  0
  9  7  1  0
 10  9  1  0
 10 11  1  6
 11 12  1  0
 12 13  1  0
 13 14  1  0
 14 15  1  0
 16 10  1  0
 17 16  2  0
 18 16  1  0
 19 18  1  0
 19 20  1  1
 20 21  1  0
 21 22  2  0
 22 23  1  0
 24 23  1  0
 25 21  1  0
 25 24  2  0
 26 28  1  0
 26 19  1  0
 27 26  2  0
M  END
$$$$
