LKH.pdb
     RDKit          3D

 28 28  0  0  1  0  0  0  0  0999 V2000
    9.3691  -13.3122   18.7988 C   0  0  0  0  0  0  0  0  0  0  0  0
    7.9169  -13.1893   19.1626 C   0  0  2  0  0  0  0  0  0  0  0  0
    7.5080  -11.7340   19.3876 C   0  0  0  0  0  0  0  0  0  0  0  0
    7.5905  -14.0278   20.4073 C   0  0  0  0  0  0  0  0  0  0  0  0
    7.9452  -15.4495   20.0587 C   0  0  2  0  0  0  0  0  0  0  0  0
    7.1175  -15.8809   18.9748 N   0  0  0  0  0  0  0  0  0  0  0  0
    7.8807  -16.3576   21.2297 C   0  0  0  0  0  0  0  0  0  0  0  0
    6.8365  -16.6590   21.8214 O   0  0  0  0  0  0  0  0  0  0  0  0
    9.0947  -16.9080   21.6910 N   0  0  0  0  0  0  0  0  0  0  0  0
    9.2041  -17.8182   22.8218 C   0  0  1  0  0  0  0  0  0  0  0  0
    9.9634  -19.0441   22.4963 C   0  0  0  0  0  0  0  0  0  0  0  0
   11.2674  -18.7047   21.8474 C   0  0  0  0  0  0  0  0  0  0  0  0
   12.1084  -19.9173   21.4905 C   0  0  0  0  0  0  0  0  0  0  0  0
   13.3881  -19.4481   20.8636 C   0  0  0  0  0  0  0  0  0  0  0  0
   14.2885  -20.5762   20.6076 N   0  0  0  0  0  0  0  0  0  0  0  0
    9.7326  -17.0736   23.9531 C   0  0  0  0  0  0  0  0  0  0  0  0
   10.7474  -16.3234   23.9682 O   0  0  0  0  0  0  0  0  0  0  0  0
    9.0491  -17.1749   25.2250 N   0  0  0  0  0  0  0  0  0  0  0  0
    9.5915  -16.5017   26.3974 C   0  0  1  0  0  0  0  0  0  0  0  0
    8.3894  -16.0569   27.2060 C   0  0  0  0  0  0  0  0  0  0  0  0
    7.7858  -14.8951   26.5059 C   0  0  0  0  0  0  0  0  0  0  0  0
    8.2790  -14.2855   25.3460 C   0  0  0  0  0  0  0  0  0  0  0  0
    7.4842  -13.2646   24.9897 N   0  0  0  0  0  0  0  0  0  0  0  0
    6.5037  -13.2252   25.9054 C   0  0  0  0  0  0  0  0  0  0  0  0
    6.6779  -14.1933   26.8105 N   0  0  0  0  0  0  0  0  0  0  0  0
   10.4160  -17.4823   27.1402 C   0  0  0  0  0  0  0  0  0  0  0  0
   10.9939  -17.1847   28.2055 O   0  0  0  0  0  0  0  0  0  0  0  0
   10.5734  -18.7759   26.6705 O   0  0  0  0  0  0  0  0  0  0  0  0
  2  1  1  1
  3  2  1  0
  4  2  1  0
  5  4  1  0
  5  6  1  6
  7  5  1  0
  7  8  2  0
  9  7  1  0
 10  9  1  0
 10 11  1  6
 11 12  1  0
 12 13  1  0
 13 14  1  0
 14 15  1  0
 16 10  1  0
 17 16  2  0
 18 16  1  0
 19 18  1  0
 19 20  1  1
 20 21  1  0
 21 22  2  0
 22 23  1  0
 24 23  1  0
 25 21  1  0
 25 24  2  0
 26 28  1  0
 26 19  1  0
 27 26  2  0
M  END
$$$$
