LKH.pdb
     RDKit          3D

 28 28  0  0  1  0  0  0  0  0999 V2000
    6.7128  -11.7427   23.7250 C   0  0  0  0  0  0  0  0  0  0  0  0
    6.2463  -12.3839   25.0008 C   0  0  2  0  0  0  0  0  0  0  0  0
    6.1919  -11.3825   26.1540 C   0  0  0  0  0  0  0  0  0  0  0  0
    7.1426  -13.5734   25.3763 C   0  0  0  0  0  0  0  0  0  0  0  0
    7.0766  -14.5300   24.2149 C   0  0  2  0  0  0  0  0  0  0  0  0
    5.7154  -14.9205   24.0132 N   0  0  0  0  0  0  0  0  0  0  0  0
    7.9902  -15.6874   24.3759 C   0  0  0  0  0  0  0  0  0  0  0  0
    7.9920  -16.4430   25.3558 O   0  0  0  0  0  0  0  0  0  0  0  0
    8.9134  -15.9338   23.3383 N   0  0  0  0  0  0  0  0  0  0  0  0
    9.9369  -16.9680   23.3811 C   0  0  1  0  0  0  0  0  0  0  0  0
   10.6262  -17.1428   22.0851 C   0  0  0  0  0  0  0  0  0  0  0  0
   11.5701  -18.3017   22.1375 C   0  0  0  0  0  0  0  0  0  0  0  0
   12.3323  -18.5304   20.8445 C   0  0  0  0  0  0  0  0  0  0  0  0
   13.2156  -19.7313   21.0122 C   0  0  0  0  0  0  0  0  0  0  0  0
   14.0188  -19.9611   19.8077 N   0  0  0  0  0  0  0  0  0  0  0  0
   10.8265  -16.6792   24.4942 C   0  0  0  0  0  0  0  0  0  0  0  0
   11.4456  -15.6026   24.7189 O   0  0  0  0  0  0  0  0  0  0  0  0
   11.0568  -17.7143   25.4793 N   0  0  0  0  0  0  0  0  0  0  0  0
   11.5209  -17.3581   26.8132 C   0  0  1  0  0  0  0  0  0  0  0  0
   10.2859  -16.9135   27.5707 C   0  0  0  0  0  0  0  0  0  0  0  0
   10.6927  -16.6546   28.9749 C   0  0  0  0  0  0  0  0  0  0  0  0
   11.7072  -15.7843   29.3911 C   0  0  0  0  0  0  0  0  0  0  0  0
   11.8032  -15.7968   30.7296 N   0  0  0  0  0  0  0  0  0  0  0  0
   10.8674  -16.6588   31.1572 C   0  0  0  0  0  0  0  0  0  0  0  0
   10.2032  -17.1727   30.1172 N   0  0  0  0  0  0  0  0  0  0  0  0
   12.1264  -18.5665   27.4185 C   0  0  0  0  0  0  0  0  0  0  0  0
   12.4196  -18.6203   28.6303 O   0  0  0  0  0  0  0  0  0  0  0  0
   12.3895  -19.6882   26.6494 O   0  0  0  0  0  0  0  0  0  0  0  0
  2  1  1  6
  3  2  1  0
  4  2  1  0
  5  4  1  0
  5  6  1  1
  7  5  1  0
  7  8  2  0
  9  7  1  0
 10  9  1  0
 10 11  1  6
 11 12  1  0
 12 13  1  0
 13 14  1  0
 14 15  1  0
 16 10  1  0
 17 16  2  0
 18 16  1  0
 19 18  1  0
 19 20  1  1
 20 21  1  0
 21 22  2  0
 22 23  1  0
 24 23  1  0
 25 21  1  0
 25 24  2  0
 26 28  1  0
 26 19  1  0
 27 26  2  0
M  END
$$$$
