LKH.pdb
     RDKit          3D

 28 28  0  0  1  0  0  0  0  0999 V2000
    5.8777  -11.9503   25.6554 C   0  0  0  0  0  0  0  0  0  0  0  0
    6.5584  -12.7557   26.7252 C   0  0  2  0  0  0  0  0  0  0  0  0
    7.2560  -11.8638   27.7516 C   0  0  0  0  0  0  0  0  0  0  0  0
    7.5640  -13.7420   26.1127 C   0  0  0  0  0  0  0  0  0  0  0  0
    6.7678  -14.6407   25.2035 C   0  0  2  0  0  0  0  0  0  0  0  0
    5.9059  -15.4588   25.9997 N   0  0  0  0  0  0  0  0  0  0  0  0
    7.6258  -15.4299   24.2864 C   0  0  0  0  0  0  0  0  0  0  0  0
    7.8698  -16.6351   24.4243 O   0  0  0  0  0  0  0  0  0  0  0  0
    8.1961  -14.7524   23.1884 N   0  0  0  0  0  0  0  0  0  0  0  0
    9.1928  -15.3292   22.2979 C   0  0  1  0  0  0  0  0  0  0  0  0
    9.4664  -14.4786   21.1203 C   0  0  0  0  0  0  0  0  0  0  0  0
    8.3998  -14.6453   20.0853 C   0  0  0  0  0  0  0  0  0  0  0  0
    8.6633  -13.8747   18.8039 C   0  0  0  0  0  0  0  0  0  0  0  0
    7.5740  -14.1879   17.8210 C   0  0  0  0  0  0  0  0  0  0  0  0
    7.7446  -13.4134   16.5882 N   0  0  0  0  0  0  0  0  0  0  0  0
   10.3714  -15.6521   23.0856 C   0  0  0  0  0  0  0  0  0  0  0  0
   11.0017  -14.8877   23.8675 O   0  0  0  0  0  0  0  0  0  0  0  0
   10.9172  -16.9894   22.9932 N   0  0  0  0  0  0  0  0  0  0  0  0
   12.1136  -17.3399   23.7466 C   0  0  1  0  0  0  0  0  0  0  0  0
   11.9672  -18.8098   24.0858 C   0  0  0  0  0  0  0  0  0  0  0  0
   11.0807  -18.9076   25.2727 C   0  0  0  0  0  0  0  0  0  0  0  0
   10.6808  -17.8449   26.0916 C   0  0  0  0  0  0  0  0  0  0  0  0
    9.8806  -18.2946   27.0705 N   0  0  0  0  0  0  0  0  0  0  0  0
    9.7731  -19.6187   26.8782 C   0  0  0  0  0  0  0  0  0  0  0  0
   10.4853  -19.9894   25.8095 N   0  0  0  0  0  0  0  0  0  0  0  0
   13.2847  -17.0957   22.8737 C   0  0  0  0  0  0  0  0  0  0  0  0
   13.1690  -16.9575   21.6388 O   0  0  0  0  0  0  0  0  0  0  0  0
   14.5606  -17.0120   23.4068 O   0  0  0  0  0  0  0  0  0  0  0  0
  2  1  1  6
  3  2  1  0
  4  2  1  0
  5  4  1  0
  5  6  1  1
  7  5  1  0
  7  8  2  0
  9  7  1  0
 10  9  1  0
 10 11  1  6
 11 12  1  0
 12 13  1  0
 13 14  1  0
 14 15  1  0
 16 10  1  0
 17 16  2  0
 18 16  1  0
 19 18  1  0
 19 20  1  6
 20 21  1  0
 21 22  2  0
 22 23  1  0
 24 23  1  0
 25 21  1  0
 25 24  2  0
 26 28  1  0
 26 19  1  0
 27 26  2  0
M  END
$$$$
