LKH.pdb
     RDKit          3D

 28 28  0  0  1  0  0  0  0  0999 V2000
    9.5014  -13.9434   19.1770 C   0  0  0  0  0  0  0  0  0  0  0  0
    8.0778  -13.4750   19.2796 C   0  0  2  0  0  0  0  0  0  0  0  0
    7.9685  -11.9555   19.1566 C   0  0  0  0  0  0  0  0  0  0  0  0
    7.4392  -13.9455   20.5948 C   0  0  0  0  0  0  0  0  0  0  0  0
    7.6210  -15.4400   20.6371 C   0  0  2  0  0  0  0  0  0  0  0  0
    6.8332  -16.0318   19.6001 N   0  0  0  0  0  0  0  0  0  0  0  0
    7.3356  -16.0123   21.9754 C   0  0  0  0  0  0  0  0  0  0  0  0
    6.3071  -15.7863   22.6253 O   0  0  0  0  0  0  0  0  0  0  0  0
    8.3066  -16.8690   22.5347 N   0  0  0  0  0  0  0  0  0  0  0  0
    8.1422  -17.5828   23.7926 C   0  0  1  0  0  0  0  0  0  0  0  0
    8.4943  -19.0146   23.6866 C   0  0  0  0  0  0  0  0  0  0  0  0
    7.3465  -19.8050   23.1438 C   0  0  0  0  0  0  0  0  0  0  0  0
    7.6222  -21.2946   23.0411 C   0  0  0  0  0  0  0  0  0  0  0  0
    6.4795  -21.9472   22.3208 C   0  0  0  0  0  0  0  0  0  0  0  0
    6.7034  -23.3895   22.1849 N   0  0  0  0  0  0  0  0  0  0  0  0
    8.8767  -16.8638   24.8208 C   0  0  0  0  0  0  0  0  0  0  0  0
   10.0205  -16.3400   24.7188 O   0  0  0  0  0  0  0  0  0  0  0  0
    8.2652  -16.7075   26.1233 N   0  0  0  0  0  0  0  0  0  0  0  0
    8.9693  -15.9869   27.1753 C   0  0  1  0  0  0  0  0  0  0  0  0
    7.8975  -15.2531   27.9562 C   0  0  0  0  0  0  0  0  0  0  0  0
    7.4436  -14.1099   27.1248 C   0  0  0  0  0  0  0  0  0  0  0  0
    7.9968  -13.7096   25.9026 C   0  0  0  0  0  0  0  0  0  0  0  0
    7.3395  -12.6399   25.4288 N   0  0  0  0  0  0  0  0  0  0  0  0
    6.3860  -12.3644   26.3324 C   0  0  0  0  0  0  0  0  0  0  0  0
    6.4430  -13.2361   27.3442 N   0  0  0  0  0  0  0  0  0  0  0  0
    9.6695  -16.9850   28.0158 C   0  0  0  0  0  0  0  0  0  0  0  0
    9.5006  -18.2117   27.8610 O   0  0  0  0  0  0  0  0  0  0  0  0
   10.5442  -16.5837   29.0122 O   0  0  0  0  0  0  0  0  0  0  0  0
  2  1  1  1
  3  2  1  0
  4  2  1  0
  5  4  1  0
  5  6  1  6
  7  5  1  0
  7  8  2  0
  9  7  1  0
 10  9  1  0
 10 11  1  6
 11 12  1  0
 12 13  1  0
 13 14  1  0
 14 15  1  0
 16 10  1  0
 17 16  2  0
 18 16  1  0
 19 18  1  0
 19 20  1  1
 20 21  1  0
 21 22  2  0
 22 23  1  0
 24 23  1  0
 25 21  1  0
 25 24  2  0
 26 28  1  0
 26 19  1  0
 27 26  2  0
M  END
$$$$
