LKH.pdb
     RDKit          3D

 28 28  0  0  1  0  0  0  0  0999 V2000
    9.4821  -12.9025   19.3299 C   0  0  0  0  0  0  0  0  0  0  0  0
    8.0578  -13.2280   18.9810 C   0  0  2  0  0  0  0  0  0  0  0  0
    7.1883  -11.9731   18.9107 C   0  0  0  0  0  0  0  0  0  0  0  0
    7.4622  -14.2275   19.9837 C   0  0  0  0  0  0  0  0  0  0  0  0
    8.6333  -14.9168   20.6330 C   0  0  2  0  0  0  0  0  0  0  0  0
    9.2136  -15.8270   19.6944 N   0  0  0  0  0  0  0  0  0  0  0  0
    8.2737  -15.5654   21.9176 C   0  0  0  0  0  0  0  0  0  0  0  0
    7.5932  -15.0306   22.8020 O   0  0  0  0  0  0  0  0  0  0  0  0
    8.7432  -16.8776   22.1351 N   0  0  0  0  0  0  0  0  0  0  0  0
    8.4578  -17.6625   23.3274 C   0  0  1  0  0  0  0  0  0  0  0  0
    8.7918  -19.0931   23.1623 C   0  0  0  0  0  0  0  0  0  0  0  0
    7.8111  -19.7663   22.2558 C   0  0  0  0  0  0  0  0  0  0  0  0
    8.1305  -21.2253   21.9826 C   0  0  0  0  0  0  0  0  0  0  0  0
    7.1597  -21.7484   20.9654 C   0  0  0  0  0  0  0  0  0  0  0  0
    7.3850  -23.1749   20.7140 N   0  0  0  0  0  0  0  0  0  0  0  0
    9.1136  -17.0248   24.4574 C   0  0  0  0  0  0  0  0  0  0  0  0
   10.2923  -16.5761   24.5040 O   0  0  0  0  0  0  0  0  0  0  0  0
    8.3678  -16.8659   25.6876 N   0  0  0  0  0  0  0  0  0  0  0  0
    8.9853  -16.2109   26.8327 C   0  0  1  0  0  0  0  0  0  0  0  0
    7.8427  -15.6038   27.6218 C   0  0  0  0  0  0  0  0  0  0  0  0
    7.4214  -14.3669   26.9170 C   0  0  0  0  0  0  0  0  0  0  0  0
    8.0290  -13.8189   25.7809 C   0  0  0  0  0  0  0  0  0  0  0  0
    7.3882  -12.6990   25.4119 N   0  0  0  0  0  0  0  0  0  0  0  0
    6.3916  -12.5373   26.2964 C   0  0  0  0  0  0  0  0  0  0  0  0
    6.4063  -13.5270   27.1947 N   0  0  0  0  0  0  0  0  0  0  0  0
    9.6987  -17.2464   27.6149 C   0  0  0  0  0  0  0  0  0  0  0  0
    9.4974  -18.4646   27.4336 O   0  0  0  0  0  0  0  0  0  0  0  0
   10.6228  -16.8913   28.5839 O   0  0  0  0  0  0  0  0  0  0  0  0
  2  1  1  1
  3  2  1  0
  4  2  1  0
  5  4  1  0
  5  6  1  6
  7  5  1  0
  7  8  2  0
  9  7  1  0
 10  9  1  0
 10 11  1  6
 11 12  1  0
 12 13  1  0
 13 14  1  0
 14 15  1  0
 16 10  1  0
 17 16  2  0
 18 16  1  0
 19 18  1  0
 19 20  1  1
 20 21  1  0
 21 22  2  0
 22 23  1  0
 24 23  1  0
 25 21  1  0
 25 24  2  0
 26 28  1  0
 26 19  1  0
 27 26  2  0
M  END
$$$$
