LKH.pdb
     RDKit          3D

 28 28  0  0  1  0  0  0  0  0999 V2000
    9.1754  -12.2805   19.3120 C   0  0  0  0  0  0  0  0  0  0  0  0
    8.1043  -13.1172   18.6725 C   0  0  2  0  0  0  0  0  0  0  0  0
    6.9399  -12.2641   18.1703 C   0  0  0  0  0  0  0  0  0  0  0  0
    7.5919  -14.1895   19.6455 C   0  0  0  0  0  0  0  0  0  0  0  0
    8.7995  -14.6831   20.3980 C   0  0  2  0  0  0  0  0  0  0  0  0
    9.7031  -15.2950   19.4732 N   0  0  0  0  0  0  0  0  0  0  0  0
    8.4428  -15.5732   21.5296 C   0  0  0  0  0  0  0  0  0  0  0  0
    7.5427  -15.3371   22.3452 O   0  0  0  0  0  0  0  0  0  0  0  0
    9.1843  -16.7641   21.6764 N   0  0  0  0  0  0  0  0  0  0  0  0
    8.9426  -17.7569   22.7133 C   0  0  1  0  0  0  0  0  0  0  0  0
    9.6046  -19.0484   22.4322 C   0  0  0  0  0  0  0  0  0  0  0  0
    8.9106  -19.7704   21.3214 C   0  0  0  0  0  0  0  0  0  0  0  0
    9.6336  -21.0226   20.8584 C   0  0  0  0  0  0  0  0  0  0  0  0
    8.8169  -21.6813   19.7860 C   0  0  0  0  0  0  0  0  0  0  0  0
    9.5576  -22.7864   19.1704 N   0  0  0  0  0  0  0  0  0  0  0  0
    9.3015  -17.1705   23.9943 C   0  0  0  0  0  0  0  0  0  0  0  0
   10.3833  -16.5944   24.2955 O   0  0  0  0  0  0  0  0  0  0  0  0
    8.3398  -17.2319   25.0743 N   0  0  0  0  0  0  0  0  0  0  0  0
    8.6926  -16.7207   26.3918 C   0  0  1  0  0  0  0  0  0  0  0  0
    7.4067  -16.1691   26.9741 C   0  0  0  0  0  0  0  0  0  0  0  0
    7.2672  -14.7688   26.5008 C   0  0  0  0  0  0  0  0  0  0  0  0
    8.1988  -14.0636   25.7295 C   0  0  0  0  0  0  0  0  0  0  0  0
    7.7481  -12.8236   25.4844 N   0  0  0  0  0  0  0  0  0  0  0  0
    6.5523  -12.7411   26.0884 C   0  0  0  0  0  0  0  0  0  0  0  0
    6.2606  -13.8959   26.6951 N   0  0  0  0  0  0  0  0  0  0  0  0
    9.2116  -17.8537   27.1918 C   0  0  0  0  0  0  0  0  0  0  0  0
    9.0846  -19.0375   26.8178 O   0  0  0  0  0  0  0  0  0  0  0  0
    9.8620  -17.6326   28.3948 O   0  0  0  0  0  0  0  0  0  0  0  0
  2  1  1  1
  3  2  1  0
  4  2  1  0
  5  4  1  0
  5  6  1  6
  7  5  1  0
  7  8  2  0
  9  7  1  0
 10  9  1  0
 10 11  1  6
 11 12  1  0
 12 13  1  0
 13 14  1  0
 14 15  1  0
 16 10  1  0
 17 16  2  0
 18 16  1  0
 19 18  1  0
 19 20  1  1
 20 21  1  0
 21 22  2  0
 22 23  1  0
 24 23  1  0
 25 21  1  0
 25 24  2  0
 26 28  1  0
 26 19  1  0
 27 26  2  0
M  END
$$$$
