LKH.pdb
     RDKit          3D

 28 28  0  0  1  0  0  0  0  0999 V2000
    8.9597  -13.2369   18.9356 C   0  0  0  0  0  0  0  0  0  0  0  0
    7.6777  -13.0938   19.7053 C   0  0  2  0  0  0  0  0  0  0  0  0
    7.2658  -11.6299   19.8575 C   0  0  0  0  0  0  0  0  0  0  0  0
    7.7901  -13.7569   21.0861 C   0  0  0  0  0  0  0  0  0  0  0  0
    8.0678  -15.2146   20.8289 C   0  0  2  0  0  0  0  0  0  0  0  0
    7.0345  -15.7423   19.9922 N   0  0  0  0  0  0  0  0  0  0  0  0
    8.2490  -15.9908   22.0798 C   0  0  0  0  0  0  0  0  0  0  0  0
    7.3716  -16.1430   22.9390 O   0  0  0  0  0  0  0  0  0  0  0  0
    9.5075  -16.5905   22.2941 N   0  0  0  0  0  0  0  0  0  0  0  0
    9.8603  -17.3514   23.4840 C   0  0  1  0  0  0  0  0  0  0  0  0
   11.0919  -18.1495   23.3066 C   0  0  0  0  0  0  0  0  0  0  0  0
   10.8472  -19.3079   22.3928 C   0  0  0  0  0  0  0  0  0  0  0  0
   12.1024  -20.0859   22.0399 C   0  0  0  0  0  0  0  0  0  0  0  0
   11.7219  -21.2403   21.1604 C   0  0  0  0  0  0  0  0  0  0  0  0
   12.9063  -22.0085   20.7657 N   0  0  0  0  0  0  0  0  0  0  0  0
    9.9023  -16.4349   24.6118 C   0  0  0  0  0  0  0  0  0  0  0  0
    9.9193  -15.1735   24.5720 O   0  0  0  0  0  0  0  0  0  0  0  0
    9.9288  -16.9881   25.9490 N   0  0  0  0  0  0  0  0  0  0  0  0
    9.5223  -16.1688   27.0828 C   0  0  1  0  0  0  0  0  0  0  0  0
    8.0152  -16.0467   26.9795 C   0  0  0  0  0  0  0  0  0  0  0  0
    7.7088  -14.6618   26.5407 C   0  0  0  0  0  0  0  0  0  0  0  0
    8.6392  -13.6327   26.3528 C   0  0  0  0  0  0  0  0  0  0  0  0
    8.0136  -12.5147   25.9535 N   0  0  0  0  0  0  0  0  0  0  0  0
    6.7097  -12.8263   25.8885 C   0  0  0  0  0  0  0  0  0  0  0  0
    6.5221  -14.1031   26.2369 N   0  0  0  0  0  0  0  0  0  0  0  0
    9.9288  -16.8752   28.3193 C   0  0  0  0  0  0  0  0  0  0  0  0
    9.8388  -16.3409   29.4435 O   0  0  0  0  0  0  0  0  0  0  0  0
   10.4275  -18.1665   28.2663 O   0  0  0  0  0  0  0  0  0  0  0  0
  2  1  1  1
  3  2  1  0
  4  2  1  0
  5  4  1  0
  5  6  1  1
  7  5  1  0
  7  8  2  0
  9  7  1  0
 10  9  1  0
 10 11  1  6
 11 12  1  0
 12 13  1  0
 13 14  1  0
 14 15  1  0
 16 10  1  0
 17 16  2  0
 18 16  1  0
 19 18  1  0
 19 20  1  1
 20 21  1  0
 21 22  2  0
 22 23  1  0
 24 23  1  0
 25 21  1  0
 25 24  2  0
 26 28  1  0
 26 19  1  0
 27 26  2  0
M  END
$$$$
