LKH.pdb
     RDKit          3D

 28 28  0  0  1  0  0  0  0  0999 V2000
    6.1894  -12.1333   24.2184 C   0  0  0  0  0  0  0  0  0  0  0  0
    6.0607  -12.6795   25.6118 C   0  0  2  0  0  0  0  0  0  0  0  0
    6.1599  -11.5775   26.6662 C   0  0  0  0  0  0  0  0  0  0  0  0
    7.1189  -13.7606   25.8770 C   0  0  0  0  0  0  0  0  0  0  0  0
    6.7273  -14.9452   25.0333 C   0  0  2  0  0  0  0  0  0  0  0  0
    5.4644  -15.4401   25.4875 N   0  0  0  0  0  0  0  0  0  0  0  0
    7.7771  -15.9923   24.9968 C   0  0  0  0  0  0  0  0  0  0  0  0
    7.9594  -16.8281   25.8909 O   0  0  0  0  0  0  0  0  0  0  0  0
    8.6173  -16.0289   23.8644 N   0  0  0  0  0  0  0  0  0  0  0  0
    9.6477  -17.0326   23.6410 C   0  0  1  0  0  0  0  0  0  0  0  0
    9.9923  -17.1885   22.2119 C   0  0  0  0  0  0  0  0  0  0  0  0
    8.9225  -17.9408   21.4866 C   0  0  0  0  0  0  0  0  0  0  0  0
    9.1467  -18.0329   19.9877 C   0  0  0  0  0  0  0  0  0  0  0  0
    7.9976  -18.7768   19.3738 C   0  0  0  0  0  0  0  0  0  0  0  0
    8.2123  -18.9762   17.9375 N   0  0  0  0  0  0  0  0  0  0  0  0
   10.7807  -16.7165   24.4954 C   0  0  0  0  0  0  0  0  0  0  0  0
   11.4465  -15.6445   24.5173 O   0  0  0  0  0  0  0  0  0  0  0  0
   11.2296  -17.7147   25.4426 N   0  0  0  0  0  0  0  0  0  0  0  0
   12.5021  -17.5437   26.1306 C   0  0  1  0  0  0  0  0  0  0  0  0
   12.2168  -17.8216   27.5929 C   0  0  0  0  0  0  0  0  0  0  0  0
   11.7741  -16.5465   28.2113 C   0  0  0  0  0  0  0  0  0  0  0  0
   11.5832  -15.3305   27.5443 C   0  0  0  0  0  0  0  0  0  0  0  0
   11.1807  -14.3888   28.4115 N   0  0  0  0  0  0  0  0  0  0  0  0
   11.1168  -14.9939   29.6078 C   0  0  0  0  0  0  0  0  0  0  0  0
   11.4688  -16.2785   29.4950 N   0  0  0  0  0  0  0  0  0  0  0  0
   13.4567  -18.5246   25.5652 C   0  0  0  0  0  0  0  0  0  0  0  0
   13.1063  -19.3737   24.7204 O   0  0  0  0  0  0  0  0  0  0  0  0
   14.7843  -18.5305   25.9609 O   0  0  0  0  0  0  0  0  0  0  0  0
  2  1  1  6
  3  2  1  0
  4  2  1  0
  5  4  1  0
  5  6  1  1
  7  5  1  0
  7  8  2  0
  9  7  1  0
 10  9  1  0
 10 11  1  6
 11 12  1  0
 12 13  1  0
 13 14  1  0
 14 15  1  0
 16 10  1  0
 17 16  2  0
 18 16  1  0
 19 18  1  0
 19 20  1  1
 20 21  1  0
 21 22  2  0
 22 23  1  0
 24 23  1  0
 25 21  1  0
 25 24  2  0
 26 28  1  0
 26 19  1  0
 27 26  2  0
M  END
$$$$
