LKH.pdb
     RDKit          3D

 28 28  0  0  1  0  0  0  0  0999 V2000
    6.4742  -11.8579   24.7911 C   0  0  0  0  0  0  0  0  0  0  0  0
    6.2146  -12.5763   26.0845 C   0  0  2  0  0  0  0  0  0  0  0  0
    6.3771  -11.6524   27.2911 C   0  0  0  0  0  0  0  0  0  0  0  0
    7.1343  -13.7981   26.2275 C   0  0  0  0  0  0  0  0  0  0  0  0
    6.6749  -14.7910   25.1924 C   0  0  2  0  0  0  0  0  0  0  0  0
    5.4127  -15.3299   25.5956 N   0  0  0  0  0  0  0  0  0  0  0  0
    7.6877  -15.8393   24.9176 C   0  0  0  0  0  0  0  0  0  0  0  0
    7.9869  -16.7435   25.7075 O   0  0  0  0  0  0  0  0  0  0  0  0
    8.3468  -15.7932   23.6714 N   0  0  0  0  0  0  0  0  0  0  0  0
    9.3942  -16.7184   23.2641 C   0  0  1  0  0  0  0  0  0  0  0  0
    9.6049  -16.7338   21.8010 C   0  0  0  0  0  0  0  0  0  0  0  0
   10.6199  -17.7645   21.4213 C   0  0  0  0  0  0  0  0  0  0  0  0
   10.8328  -17.8923   19.9234 C   0  0  0  0  0  0  0  0  0  0  0  0
   11.8306  -18.9837   19.6704 C   0  0  0  0  0  0  0  0  0  0  0  0
   12.0418  -19.1750   18.2324 N   0  0  0  0  0  0  0  0  0  0  0  0
   10.5898  -16.4168   24.0344 C   0  0  0  0  0  0  0  0  0  0  0  0
   11.2777  -15.3594   23.9961 O   0  0  0  0  0  0  0  0  0  0  0  0
   11.0821  -17.4131   24.9618 N   0  0  0  0  0  0  0  0  0  0  0  0
   12.3673  -17.2215   25.6200 C   0  0  1  0  0  0  0  0  0  0  0  0
   12.1558  -17.6428   27.0604 C   0  0  0  0  0  0  0  0  0  0  0  0
   11.6864  -16.4501   27.8097 C   0  0  0  0  0  0  0  0  0  0  0  0
   11.4053  -15.1923   27.2631 C   0  0  0  0  0  0  0  0  0  0  0  0
   11.0044  -14.3507   28.2285 N   0  0  0  0  0  0  0  0  0  0  0  0
   11.0298  -15.0596   29.3680 C   0  0  0  0  0  0  0  0  0  0  0  0
   11.4350  -16.3100   29.1250 N   0  0  0  0  0  0  0  0  0  0  0  0
   13.3572  -18.0868   24.9385 C   0  0  0  0  0  0  0  0  0  0  0  0
   13.0116  -19.0729   24.2562 O   0  0  0  0  0  0  0  0  0  0  0  0
   14.7140  -17.8256   25.0380 O   0  0  0  0  0  0  0  0  0  0  0  0
  2  1  1  6
  3  2  1  0
  4  2  1  0
  5  4  1  0
  5  6  1  1
  7  5  1  0
  7  8  2  0
  9  7  1  0
 10  9  1  0
 10 11  1  6
 11 12  1  0
 12 13  1  0
 13 14  1  0
 14 15  1  0
 16 10  1  0
 17 16  2  0
 18 16  1  0
 19 18  1  0
 19 20  1  1
 20 21  1  0
 21 22  2  0
 22 23  1  0
 24 23  1  0
 25 21  1  0
 25 24  2  0
 26 28  1  0
 26 19  1  0
 27 26  2  0
M  END
$$$$
