LKH.pdb
     RDKit          3D

 28 28  0  0  1  0  0  0  0  0999 V2000
    9.6118  -12.4404   19.3047 C   0  0  0  0  0  0  0  0  0  0  0  0
    8.4049  -13.1640   18.7790 C   0  0  2  0  0  0  0  0  0  0  0  0
    7.2050  -12.2304   18.6231 C   0  0  0  0  0  0  0  0  0  0  0  0
    8.0379  -14.3485   19.6852 C   0  0  0  0  0  0  0  0  0  0  0  0
    9.3418  -14.9789   20.0985 C   0  0  2  0  0  0  0  0  0  0  0  0
    9.8356  -15.7736   19.0165 N   0  0  0  0  0  0  0  0  0  0  0  0
    9.2319  -15.7383   21.3678 C   0  0  0  0  0  0  0  0  0  0  0  0
    8.6686  -15.3168   22.3858 O   0  0  0  0  0  0  0  0  0  0  0  0
    9.8108  -17.0240   21.4063 N   0  0  0  0  0  0  0  0  0  0  0  0
    9.7128  -17.9329   22.5392 C   0  0  1  0  0  0  0  0  0  0  0  0
   10.1836  -19.2971   22.2188 C   0  0  0  0  0  0  0  0  0  0  0  0
    9.1645  -20.0344   21.4098 C   0  0  0  0  0  0  0  0  0  0  0  0
    9.5831  -21.4449   21.0349 C   0  0  0  0  0  0  0  0  0  0  0  0
    8.4903  -22.0708   20.2196 C   0  0  0  0  0  0  0  0  0  0  0  0
    8.8907  -23.3970   19.7403 N   0  0  0  0  0  0  0  0  0  0  0  0
   10.3890  -17.3204   23.6711 C   0  0  0  0  0  0  0  0  0  0  0  0
   11.5339  -16.7894   23.6822 O   0  0  0  0  0  0  0  0  0  0  0  0
    9.7092  -17.2947   24.9487 N   0  0  0  0  0  0  0  0  0  0  0  0
   10.3410  -16.6565   26.0956 C   0  0  1  0  0  0  0  0  0  0  0  0
    9.2982  -15.7164   26.6662 C   0  0  0  0  0  0  0  0  0  0  0  0
    9.8498  -15.1472   27.9216 C   0  0  0  0  0  0  0  0  0  0  0  0
   11.0864  -15.4648   28.4961 C   0  0  0  0  0  0  0  0  0  0  0  0
   11.2617  -14.7635   29.6267 N   0  0  0  0  0  0  0  0  0  0  0  0
   10.1575  -14.0137   29.7691 C   0  0  0  0  0  0  0  0  0  0  0  0
    9.3135  -14.2378   28.7572 N   0  0  0  0  0  0  0  0  0  0  0  0
   10.7037  -17.7193   27.0609 C   0  0  0  0  0  0  0  0  0  0  0  0
   10.0836  -18.8009   27.1141 O   0  0  0  0  0  0  0  0  0  0  0  0
   11.7553  -17.5442   27.9456 O   0  0  0  0  0  0  0  0  0  0  0  0
  2  1  1  1
  3  2  1  0
  4  2  1  0
  5  4  1  0
  5  6  1  6
  7  5  1  0
  7  8  2  0
  9  7  1  0
 10  9  1  0
 10 11  1  6
 11 12  1  0
 12 13  1  0
 13 14  1  0
 14 15  1  0
 16 10  1  0
 17 16  2  0
 18 16  1  0
 19 18  1  0
 19 20  1  1
 20 21  1  0
 21 22  2  0
 22 23  1  0
 24 23  1  0
 25 21  1  0
 25 24  2  0
 26 28  1  0
 26 19  1  0
 27 26  2  0
M  END
$$$$
