YYY.pdb
     RDKit          3D

 37 39  0  0  1  0  0  0  0  0999 V2000
   13.8303  -16.6784  -14.5785 O   0  0  0  0  0  0  0  0  0  0  0  0
   14.4190  -15.4304  -14.8474 C   0  0  0  0  0  0  0  0  0  0  0  0
   15.7270  -15.2191  -14.4548 C   0  0  0  0  0  0  0  0  0  0  0  0
   16.3282  -13.9986  -14.7084 C   0  0  0  0  0  0  0  0  0  0  0  0
   15.6519  -12.9751  -15.3491 C   0  0  0  0  0  0  0  0  0  0  0  0
   16.2904  -11.6815  -15.6162 C   0  0  0  0  0  0  0  0  0  0  0  0
   16.2724  -10.8070  -14.3859 C   0  0  2  0  0  0  0  0  0  0  0  0
   14.9247  -10.5042  -13.9552 N   0  0  0  0  0  0  0  0  0  0  0  0
   17.0762   -9.5756  -14.5879 C   0  0  0  0  0  0  0  0  0  0  0  0
   16.4816   -8.5549  -15.0135 O   0  0  0  0  0  0  0  0  0  0  0  0
   14.3497  -13.2287  -15.7235 C   0  0  0  0  0  0  0  0  0  0  0  0
   13.7290  -14.4372  -15.4815 C   0  0  0  0  0  0  0  0  0  0  0  0
   24.2786   -4.4384  -15.1683 O   0  0  0  0  0  0  0  0  0  0  0  0
   23.3727   -5.4286  -14.8057 C   0  0  0  0  0  0  0  0  0  0  0  0
   23.5831   -6.6975  -15.2889 C   0  0  0  0  0  0  0  0  0  0  0  0
   22.6743   -7.6892  -14.9246 C   0  0  0  0  0  0  0  0  0  0  0  0
   21.5937   -7.4641  -14.1172 C   0  0  0  0  0  0  0  0  0  0  0  0
   20.6346   -8.4960  -13.7143 C   0  0  0  0  0  0  0  0  0  0  0  0
   19.3207   -8.4430  -14.5217 C   0  0  2  0  0  0  0  0  0  0  0  0
   18.4700   -9.5565  -14.3089 N   0  0  0  0  0  0  0  0  0  0  0  0
   19.6866   -8.1626  -15.9202 C   0  0  0  0  0  0  0  0  0  0  0  0
   20.3089   -9.0621  -16.5680 O   0  0  0  0  0  0  0  0  0  0  0  0
   21.4489   -6.1388  -13.6645 C   0  0  0  0  0  0  0  0  0  0  0  0
   22.3012   -5.1291  -13.9853 C   0  0  0  0  0  0  0  0  0  0  0  0
   14.7916   -2.6888  -17.8901 O   0  0  0  0  0  0  0  0  0  0  0  0
   15.7083   -3.7021  -18.1446 C   0  0  0  0  0  0  0  0  0  0  0  0
   16.8495   -3.4299  -18.8531 C   0  0  0  0  0  0  0  0  0  0  0  0
   17.7700   -4.4542  -19.1066 C   0  0  0  0  0  0  0  0  0  0  0  0
   17.5602   -5.7321  -18.6626 C   0  0  0  0  0  0  0  0  0  0  0  0
   18.5418   -6.7803  -18.9392 C   0  0  0  0  0  0  0  0  0  0  0  0
   19.7392   -6.7985  -18.0314 C   0  0  2  0  0  0  0  0  0  0  0  0
   19.4136   -6.9736  -16.6341 N   0  0  0  0  0  0  0  0  0  0  0  0
   20.5874   -5.6032  -18.1699 C   0  0  0  0  0  0  0  0  0  0  0  0
   21.2485   -5.3366  -19.3522 O   0  0  0  0  0  0  0  0  0  0  0  0
   16.4231   -6.0157  -17.9538 C   0  0  0  0  0  0  0  0  0  0  0  0
   15.5126   -5.0056  -17.7021 C   0  0  0  0  0  0  0  0  0  0  0  0
   20.7193   -4.8133  -17.2149 O   0  0  0  0  0  0  0  0  0  0  0  0
  2  1  1  0
  3  2  2  0
  4  3  1  0
  5 11  1  0
  5  4  2  0
  6  5  1  0
  7  6  1  0
  7  8  1  6
  9  7  1  0
 10  9  2  0
 11 12  2  0
 12  2  1  0
 13 14  1  0
 14 24  2  0
 14 15  1  0
 15 16  2  0
 16 17  1  0
 17 18  1  0
 19 18  1  1
 19 20  1  0
 20  9  1  0
 21 19  1  0
 21 32  1  0
 22 21  2  0
 23 17  2  0
 24 23  1  0
 25 26  1  0
 26 36  2  0
 27 26  1  0
 27 28  2  0
 28 29  1  0
 29 35  2  0
 29 30  1  0
 31 32  1  0
 31 33  1  0
 31 30  1  6
 33 37  2  0
 33 34  1  0
 36 35  1  0
M  END
$$$$
