YYY.pdb
     RDKit          3D

 37 39  0  0  1  0  0  0  0  0999 V2000
   18.6246  -37.8758  -11.5275 O   0  0  0  0  0  0  0  0  0  0  0  0
   18.8365  -36.5238  -11.8495 C   0  0  0  0  0  0  0  0  0  0  0  0
   18.5971  -35.5688  -10.8798 C   0  0  0  0  0  0  0  0  0  0  0  0
   18.7985  -34.2313  -11.1729 C   0  0  0  0  0  0  0  0  0  0  0  0
   19.2362  -33.8190  -12.4194 C   0  0  0  0  0  0  0  0  0  0  0  0
   19.4481  -32.4007  -12.7289 C   0  0  0  0  0  0  0  0  0  0  0  0
   20.8588  -32.1582  -13.2083 C   0  0  2  0  0  0  0  0  0  0  0  0
   21.8318  -32.3636  -12.1572 N   0  0  0  0  0  0  0  0  0  0  0  0
   20.9940  -30.8172  -13.8301 C   0  0  0  0  0  0  0  0  0  0  0  0
   20.1015  -30.4559  -14.6360 O   0  0  0  0  0  0  0  0  0  0  0  0
   19.4628  -34.8044  -13.3566 C   0  0  0  0  0  0  0  0  0  0  0  0
   19.2692  -36.1440  -13.0878 C   0  0  0  0  0  0  0  0  0  0  0  0
   17.6501  -26.8704  -10.1152 O   0  0  0  0  0  0  0  0  0  0  0  0
   18.8222  -27.0306  -10.8453 C   0  0  0  0  0  0  0  0  0  0  0  0
   19.8287  -27.7795  -10.2850 C   0  0  0  0  0  0  0  0  0  0  0  0
   21.0032  -27.9395  -11.0180 C   0  0  0  0  0  0  0  0  0  0  0  0
   21.2014  -27.3934  -12.2561 C   0  0  0  0  0  0  0  0  0  0  0  0
   22.4241  -27.5602  -13.0461 C   0  0  0  0  0  0  0  0  0  0  0  0
   22.3166  -28.6937  -14.0874 C   0  0  2  0  0  0  0  0  0  0  0  0
   22.0968  -29.9747  -13.5221 N   0  0  0  0  0  0  0  0  0  0  0  0
   23.4807  -28.5686  -14.9806 C   0  0  0  0  0  0  0  0  0  0  0  0
   24.6263  -28.8645  -14.5158 O   0  0  0  0  0  0  0  0  0  0  0  0
   20.1232  -26.6408  -12.7593 C   0  0  0  0  0  0  0  0  0  0  0  0
   18.9539  -26.4489  -12.0923 C   0  0  0  0  0  0  0  0  0  0  0  0
   27.4668  -33.4194  -14.9754 O   0  0  0  0  0  0  0  0  0  0  0  0
   26.8569  -32.4027  -15.7009 C   0  0  0  0  0  0  0  0  0  0  0  0
   25.5392  -32.5149  -16.0607 C   0  0  0  0  0  0  0  0  0  0  0  0
   24.9293  -31.4877  -16.7913 C   0  0  0  0  0  0  0  0  0  0  0  0
   25.6187  -30.3638  -17.1600 C   0  0  0  0  0  0  0  0  0  0  0  0
   24.9537  -29.3056  -17.9194 C   0  0  0  0  0  0  0  0  0  0  0  0
   24.6465  -28.0534  -17.1476 C   0  0  2  0  0  0  0  0  0  0  0  0
   23.4589  -28.1450  -16.3289 N   0  0  0  0  0  0  0  0  0  0  0  0
   24.5365  -26.8600  -18.0027 C   0  0  0  0  0  0  0  0  0  0  0  0
   25.5603  -26.5044  -18.8581 O   0  0  0  0  0  0  0  0  0  0  0  0
   26.9361  -30.2411  -16.8061 C   0  0  0  0  0  0  0  0  0  0  0  0
   27.5405  -31.2543  -16.0844 C   0  0  0  0  0  0  0  0  0  0  0  0
   23.5113  -26.1524  -17.9638 O   0  0  0  0  0  0  0  0  0  0  0  0
  2  1  1  0
  3  2  2  0
  4  3  1  0
  5 11  1  0
  5  4  2  0
  6  5  1  0
  7  6  1  0
  7  8  1  1
  9  7  1  0
 10  9  2  0
 11 12  2  0
 12  2  1  0
 13 14  1  0
 14 24  2  0
 14 15  1  0
 15 16  2  0
 16 17  1  0
 17 18  1  0
 19 18  1  1
 19 20  1  0
 20  9  1  0
 21 19  1  0
 21 32  1  0
 22 21  2  0
 23 17  2  0
 24 23  1  0
 25 26  1  0
 26 36  2  0
 27 26  1  0
 27 28  2  0
 28 29  1  0
 29 35  2  0
 29 30  1  0
 31 32  1  0
 31 33  1  0
 31 30  1  6
 33 37  2  0
 33 34  1  0
 36 35  1  0
M  END
$$$$
