YYY.pdb
     RDKit          3D

 37 39  0  0  1  0  0  0  0  0999 V2000
   24.2143  -16.0332  -24.2792 O   0  0  0  0  0  0  0  0  0  0  0  0
   23.6799  -15.0738  -23.4015 C   0  0  0  0  0  0  0  0  0  0  0  0
   24.5516  -14.2663  -22.6960 C   0  0  0  0  0  0  0  0  0  0  0  0
   24.0495  -13.3144  -21.8259 C   0  0  0  0  0  0  0  0  0  0  0  0
   22.6884  -13.1464  -21.6402 C   0  0  0  0  0  0  0  0  0  0  0  0
   22.1577  -12.1376  -20.7166 C   0  0  0  0  0  0  0  0  0  0  0  0
   22.2327  -12.6212  -19.2886 C   0  0  2  0  0  0  0  0  0  0  0  0
   21.5186  -13.8653  -19.0989 N   0  0  0  0  0  0  0  0  0  0  0  0
   21.7773  -11.5742  -18.3401 C   0  0  0  0  0  0  0  0  0  0  0  0
   20.5401  -11.4101  -18.2034 O   0  0  0  0  0  0  0  0  0  0  0  0
   21.8551  -13.9726  -22.3637 C   0  0  0  0  0  0  0  0  0  0  0  0
   22.3321  -14.9286  -23.2370 C   0  0  0  0  0  0  0  0  0  0  0  0
   22.0139   -5.1984  -12.2147 O   0  0  0  0  0  0  0  0  0  0  0  0
   22.3709   -6.2253  -13.0809 C   0  0  0  0  0  0  0  0  0  0  0  0
   22.9978   -5.8844  -14.2550 C   0  0  0  0  0  0  0  0  0  0  0  0
   23.3553   -6.9149  -15.1225 C   0  0  0  0  0  0  0  0  0  0  0  0
   23.1156   -8.2365  -14.8650 C   0  0  0  0  0  0  0  0  0  0  0  0
   23.4942   -9.3338  -15.7591 C   0  0  0  0  0  0  0  0  0  0  0  0
   22.3667   -9.7297  -16.7353 C   0  0  2  0  0  0  0  0  0  0  0  0
   22.7120  -10.7866  -17.6142 N   0  0  0  0  0  0  0  0  0  0  0  0
   21.8901   -8.4882  -17.3677 C   0  0  0  0  0  0  0  0  0  0  0  0
   22.5655   -8.0106  -18.3329 O   0  0  0  0  0  0  0  0  0  0  0  0
   22.4699   -8.5019  -13.6424 C   0  0  0  0  0  0  0  0  0  0  0  0
   22.0968   -7.5407  -12.7560 C   0  0  0  0  0  0  0  0  0  0  0  0
   17.4331   -2.1446  -21.3952 O   0  0  0  0  0  0  0  0  0  0  0  0
   17.9204   -3.2842  -20.7660 C   0  0  0  0  0  0  0  0  0  0  0  0
   18.6657   -4.1906  -21.4742 C   0  0  0  0  0  0  0  0  0  0  0  0
   19.1545   -5.3370  -20.8356 C   0  0  0  0  0  0  0  0  0  0  0  0
   18.9066   -5.5803  -19.5114 C   0  0  0  0  0  0  0  0  0  0  0  0
   19.4340   -6.7844  -18.8706 C   0  0  0  0  0  0  0  0  0  0  0  0
   20.3250   -6.5463  -17.6842 C   0  0  2  0  0  0  0  0  0  0  0  0
   20.7365   -7.7552  -17.0073 N   0  0  0  0  0  0  0  0  0  0  0  0
   19.7355   -5.6307  -16.6934 C   0  0  0  0  0  0  0  0  0  0  0  0
   19.7236   -4.2669  -16.9079 O   0  0  0  0  0  0  0  0  0  0  0  0
   18.1628   -4.6814  -18.7940 C   0  0  0  0  0  0  0  0  0  0  0  0
   17.6790   -3.5485  -19.4225 C   0  0  0  0  0  0  0  0  0  0  0  0
   19.2373   -6.0793  -15.6427 O   0  0  0  0  0  0  0  0  0  0  0  0
  2  1  1  0
  3  2  2  0
  4  3  1  0
  5 11  1  0
  5  4  2  0
  6  5  1  0
  7  6  1  0
  7  8  1  6
  9  7  1  0
 10  9  2  0
 11 12  2  0
 12  2  1  0
 13 14  1  0
 14 24  2  0
 14 15  1  0
 15 16  2  0
 16 17  1  0
 17 18  1  0
 19 18  1  6
 19 20  1  0
 20  9  1  0
 21 19  1  0
 21 32  1  0
 22 21  2  0
 23 17  2  0
 24 23  1  0
 25 26  1  0
 26 36  2  0
 27 26  1  0
 27 28  2  0
 28 29  1  0
 29 35  2  0
 29 30  1  0
 31 32  1  0
 31 33  1  0
 31 30  1  6
 33 37  2  0
 33 34  1  0
 36 35  1  0
M  END
$$$$
