YYY.pdb
     RDKit          3D

 37 39  0  0  1  0  0  0  0  0999 V2000
   26.1429  -35.2950  -13.1043 O   0  0  0  0  0  0  0  0  0  0  0  0
   26.4469  -34.1966  -13.9275 C   0  0  0  0  0  0  0  0  0  0  0  0
   27.3657  -33.2681  -13.4767 C   0  0  0  0  0  0  0  0  0  0  0  0
   27.6815  -32.1783  -14.2693 C   0  0  0  0  0  0  0  0  0  0  0  0
   27.0988  -31.9899  -15.5104 C   0  0  0  0  0  0  0  0  0  0  0  0
   27.4337  -30.8335  -16.3488 C   0  0  0  0  0  0  0  0  0  0  0  0
   28.6241  -31.1314  -17.2279 C   0  0  2  0  0  0  0  0  0  0  0  0
   29.8431  -31.2722  -16.4612 N   0  0  0  0  0  0  0  0  0  0  0  0
   28.7648  -30.1208  -18.3059 C   0  0  0  0  0  0  0  0  0  0  0  0
   29.8646  -29.5233  -18.4047 O   0  0  0  0  0  0  0  0  0  0  0  0
   26.1882  -32.9399  -15.9209 C   0  0  0  0  0  0  0  0  0  0  0  0
   25.8574  -34.0346  -15.1486 C   0  0  0  0  0  0  0  0  0  0  0  0
   29.4180  -25.6356  -25.5553 O   0  0  0  0  0  0  0  0  0  0  0  0
   29.2926  -26.5491  -24.5150 C   0  0  0  0  0  0  0  0  0  0  0  0
   28.2624  -26.3680  -23.6240 C   0  0  0  0  0  0  0  0  0  0  0  0
   28.1377  -27.2845  -22.5816 C   0  0  0  0  0  0  0  0  0  0  0  0
   28.9819  -28.3456  -22.4035 C   0  0  0  0  0  0  0  0  0  0  0  0
   28.8597  -29.3254  -21.3209 C   0  0  0  0  0  0  0  0  0  0  0  0
   27.7641  -28.9576  -20.2985 C   0  0  2  0  0  0  0  0  0  0  0  0
   27.6896  -29.8413  -19.1929 N   0  0  0  0  0  0  0  0  0  0  0  0
   26.5176  -28.7592  -21.0570 C   0  0  0  0  0  0  0  0  0  0  0  0
   26.1456  -29.6814  -21.8490 O   0  0  0  0  0  0  0  0  0  0  0  0
   30.0103  -28.4607  -23.3581 C   0  0  0  0  0  0  0  0  0  0  0  0
   30.1835  -27.5992  -24.3957 C   0  0  0  0  0  0  0  0  0  0  0  0
   21.8604  -28.7131  -15.8601 O   0  0  0  0  0  0  0  0  0  0  0  0
   22.2556  -28.7119  -17.1926 C   0  0  0  0  0  0  0  0  0  0  0  0
   21.8395  -27.7085  -18.0285 C   0  0  0  0  0  0  0  0  0  0  0  0
   22.2407  -27.7118  -19.3701 C   0  0  0  0  0  0  0  0  0  0  0  0
   23.0443  -28.6983  -19.8753 C   0  0  0  0  0  0  0  0  0  0  0  0
   23.4504  -28.6727  -21.2800 C   0  0  0  0  0  0  0  0  0  0  0  0
   24.3899  -27.5631  -21.6597 C   0  0  2  0  0  0  0  0  0  0  0  0
   25.6727  -27.6276  -20.9967 N   0  0  0  0  0  0  0  0  0  0  0  0
   23.8180  -26.2234  -21.4467 C   0  0  0  0  0  0  0  0  0  0  0  0
   24.4856  -25.2799  -20.6915 O   0  0  0  0  0  0  0  0  0  0  0  0
   23.4659  -29.7060  -19.0492 C   0  0  0  0  0  0  0  0  0  0  0  0
   23.0710  -29.7049  -17.7238 C   0  0  0  0  0  0  0  0  0  0  0  0
   22.7174  -25.9237  -21.9488 O   0  0  0  0  0  0  0  0  0  0  0  0
  2  1  1  0
  3  2  2  0
  4  3  1  0
  5 11  1  0
  5  4  2  0
  6  5  1  0
  7  6  1  0
  7  8  1  1
  9  7  1  0
 10  9  2  0
 11 12  2  0
 12  2  1  0
 13 14  1  0
 14 24  2  0
 14 15  1  0
 15 16  2  0
 16 17  1  0
 17 18  1  0
 19 18  1  6
 19 20  1  0
 20  9  1  0
 21 19  1  0
 21 32  1  0
 22 21  2  0
 23 17  2  0
 24 23  1  0
 25 26  1  0
 26 36  2  0
 27 26  1  0
 27 28  2  0
 28 29  1  0
 29 35  2  0
 29 30  1  0
 31 32  1  0
 31 33  1  0
 31 30  1  1
 33 37  2  0
 33 34  1  0
 36 35  1  0
M  END
$$$$
