YYY.pdb
     RDKit          3D

 37 39  0  0  1  0  0  0  0  0999 V2000
   35.8503  -40.0390  -16.2691 O   0  0  0  0  0  0  0  0  0  0  0  0
   35.4618  -38.6879  -16.2552 C   0  0  0  0  0  0  0  0  0  0  0  0
   35.0101  -38.1431  -15.0683 C   0  0  0  0  0  0  0  0  0  0  0  0
   34.6220  -36.8152  -15.0295 C   0  0  0  0  0  0  0  0  0  0  0  0
   34.6734  -36.0105  -16.1543 C   0  0  0  0  0  0  0  0  0  0  0  0
   34.2605  -34.6033  -16.1119 C   0  0  0  0  0  0  0  0  0  0  0  0
   35.4531  -33.6968  -15.9254 C   0  0  2  0  0  0  0  0  0  0  0  0
   35.9170  -33.6856  -14.5548 N   0  0  0  0  0  0  0  0  0  0  0  0
   35.1721  -32.3270  -16.4232 C   0  0  0  0  0  0  0  0  0  0  0  0
   34.8330  -31.4592  -15.5816 O   0  0  0  0  0  0  0  0  0  0  0  0
   35.1303  -36.5943  -17.3166 C   0  0  0  0  0  0  0  0  0  0  0  0
   35.5228  -37.9157  -17.3798 C   0  0  0  0  0  0  0  0  0  0  0  0
   40.6780  -29.1280  -16.0422 O   0  0  0  0  0  0  0  0  0  0  0  0
   39.5491  -29.3799  -16.8133 C   0  0  0  0  0  0  0  0  0  0  0  0
   38.5922  -28.3967  -16.8889 C   0  0  0  0  0  0  0  0  0  0  0  0
   37.4611  -28.6505  -17.6623 C   0  0  0  0  0  0  0  0  0  0  0  0
   37.2583  -29.8188  -18.3438 C   0  0  0  0  0  0  0  0  0  0  0  0
   36.0816  -30.0989  -19.1707 C   0  0  0  0  0  0  0  0  0  0  0  0
   34.9360  -30.7643  -18.3796 C   0  0  2  0  0  0  0  0  0  0  0  0
   35.2835  -32.0125  -17.8051 N   0  0  0  0  0  0  0  0  0  0  0  0
   33.7505  -30.7585  -19.2530 C   0  0  0  0  0  0  0  0  0  0  0  0
   33.6555  -31.6649  -20.1393 O   0  0  0  0  0  0  0  0  0  0  0  0
   38.2843  -30.7742  -18.2148 C   0  0  0  0  0  0  0  0  0  0  0  0
   39.4098  -30.5852  -17.4757 C   0  0  0  0  0  0  0  0  0  0  0  0
   28.8524  -32.6365  -14.8539 O   0  0  0  0  0  0  0  0  0  0  0  0
   29.3268  -32.2878  -16.1130 C   0  0  0  0  0  0  0  0  0  0  0  0
   30.4329  -32.9146  -16.6248 C   0  0  0  0  0  0  0  0  0  0  0  0
   30.9067  -32.5597  -17.8939 C   0  0  0  0  0  0  0  0  0  0  0  0
   30.2906  -31.5951  -18.6448 C   0  0  0  0  0  0  0  0  0  0  0  0
   30.8060  -31.2487  -19.9688 C   0  0  0  0  0  0  0  0  0  0  0  0
   31.5183  -29.9286  -20.0587 C   0  0  2  0  0  0  0  0  0  0  0  0
   32.6840  -29.8319  -19.2098 N   0  0  0  0  0  0  0  0  0  0  0  0
   30.6408  -28.7788  -19.7845 C   0  0  0  0  0  0  0  0  0  0  0  0
   30.9243  -27.9000  -18.7581 O   0  0  0  0  0  0  0  0  0  0  0  0
   29.1846  -30.9619  -18.1432 C   0  0  0  0  0  0  0  0  0  0  0  0
   28.7147  -31.3107  -16.8901 C   0  0  0  0  0  0  0  0  0  0  0  0
   29.6252  -28.5843  -20.4802 O   0  0  0  0  0  0  0  0  0  0  0  0
  2  1  1  0
  3  2  2  0
  4  3  1  0
  5 11  1  0
  5  4  2  0
  6  5  1  0
  7  6  1  0
  7  8  1  1
  9  7  1  0
 10  9  2  0
 11 12  2  0
 12  2  1  0
 13 14  1  0
 14 24  2  0
 14 15  1  0
 15 16  2  0
 16 17  1  0
 17 18  1  0
 19 18  1  6
 19 20  1  0
 20  9  1  0
 21 19  1  0
 21 32  1  0
 22 21  2  0
 23 17  2  0
 24 23  1  0
 25 26  1  0
 26 36  2  0
 27 26  1  0
 27 28  2  0
 28 29  1  0
 29 35  2  0
 29 30  1  0
 31 32  1  0
 31 33  1  0
 31 30  1  1
 33 37  2  0
 33 34  1  0
 36 35  1  0
M  END
$$$$
