YYY.pdb
     RDKit          3D

 37 39  0  0  1  0  0  0  0  0999 V2000
   51.7626  -12.9035  -15.8861 O   0  0  0  0  0  0  0  0  0  0  0  0
   51.0901  -12.2579  -14.8338 C   0  0  0  0  0  0  0  0  0  0  0  0
   50.5901  -13.0263  -13.7999 C   0  0  0  0  0  0  0  0  0  0  0  0
   49.9242  -12.4135  -12.7527 C   0  0  0  0  0  0  0  0  0  0  0  0
   49.7431  -11.0421  -12.7106 C   0  0  0  0  0  0  0  0  0  0  0  0
   49.0360  -10.3941  -11.6004 C   0  0  0  0  0  0  0  0  0  0  0  0
   47.5411  -10.5262  -11.7628 C   0  0  2  0  0  0  0  0  0  0  0  0
   47.0679   -9.8851  -12.9706 N   0  0  0  0  0  0  0  0  0  0  0  0
   46.8227  -10.0349  -10.5604 C   0  0  0  0  0  0  0  0  0  0  0  0
   46.1634   -8.9719  -10.6692 O   0  0  0  0  0  0  0  0  0  0  0  0
   50.2579  -10.3140  -13.7620 C   0  0  0  0  0  0  0  0  0  0  0  0
   50.9253  -10.9024  -14.8168 C   0  0  0  0  0  0  0  0  0  0  0  0
   43.0600   -9.9872   -2.5802 O   0  0  0  0  0  0  0  0  0  0  0  0
   43.7179  -10.3822   -3.7394 C   0  0  0  0  0  0  0  0  0  0  0  0
   42.9961  -10.4093   -4.9082 C   0  0  0  0  0  0  0  0  0  0  0  0
   43.6568  -10.8054   -6.0696 C   0  0  0  0  0  0  0  0  0  0  0  0
   44.9759  -11.1648   -6.1031 C   0  0  0  0  0  0  0  0  0  0  0  0
   45.6900  -11.5727   -7.3158 C   0  0  0  0  0  0  0  0  0  0  0  0
   46.1901  -10.3749   -8.1502 C   0  0  2  0  0  0  0  0  0  0  0  0
   46.8818  -10.7454   -9.3305 N   0  0  0  0  0  0  0  0  0  0  0  0
   46.9101   -9.4800   -7.2288 C   0  0  0  0  0  0  0  0  0  0  0  0
   48.1151   -9.7630   -6.9390 O   0  0  0  0  0  0  0  0  0  0  0  0
   45.6440  -11.1105   -4.8651 C   0  0  0  0  0  0  0  0  0  0  0  0
   45.0544  -10.7329   -3.6996 C   0  0  0  0  0  0  0  0  0  0  0  0
   41.9292   -3.9372   -4.5308 O   0  0  0  0  0  0  0  0  0  0  0  0
   43.1729   -4.4375   -4.8982 C   0  0  0  0  0  0  0  0  0  0  0  0
   43.3405   -5.0174   -6.1287 C   0  0  0  0  0  0  0  0  0  0  0  0
   44.5955   -5.5197   -6.4940 C   0  0  0  0  0  0  0  0  0  0  0  0
   45.6700   -5.4474   -5.6488 C   0  0  0  0  0  0  0  0  0  0  0  0
   46.9697   -5.9770   -6.0599 C   0  0  0  0  0  0  0  0  0  0  0  0
   47.1861   -7.4388   -5.7872 C   0  0  2  0  0  0  0  0  0  0  0  0
   46.3923   -8.3147   -6.6189 N   0  0  0  0  0  0  0  0  0  0  0  0
   46.9658   -7.8025   -4.3778 C   0  0  0  0  0  0  0  0  0  0  0  0
   47.7756   -7.2968   -3.3805 O   0  0  0  0  0  0  0  0  0  0  0  0
   45.5140   -4.8703   -4.4166 C   0  0  0  0  0  0  0  0  0  0  0  0
   44.2755   -4.3734   -4.0535 C   0  0  0  0  0  0  0  0  0  0  0  0
   46.0396   -8.5763   -4.0667 O   0  0  0  0  0  0  0  0  0  0  0  0
  2  1  1  0
  3  2  2  0
  4  3  1  0
  5 11  1  0
  5  4  2  0
  6  5  1  0
  7  6  1  0
  7  8  1  6
  9  7  1  0
 10  9  2  0
 11 12  2  0
 12  2  1  0
 13 14  1  0
 14 24  2  0
 14 15  1  0
 15 16  2  0
 16 17  1  0
 17 18  1  0
 19 18  1  1
 19 20  1  0
 20  9  1  0
 21 19  1  0
 21 32  1  0
 22 21  2  0
 23 17  2  0
 24 23  1  0
 25 26  1  0
 26 36  2  0
 27 26  1  0
 27 28  2  0
 28 29  1  0
 29 35  2  0
 29 30  1  0
 31 32  1  0
 31 33  1  0
 31 30  1  1
 33 37  2  0
 33 34  1  0
 36 35  1  0
M  END
$$$$
