YYY.pdb
     RDKit          3D

 37 39  0  0  1  0  0  0  0  0999 V2000
   24.6180  -31.6656   -9.8540 O   0  0  0  0  0  0  0  0  0  0  0  0
   25.3499  -32.1191   -8.7426 C   0  0  0  0  0  0  0  0  0  0  0  0
   26.6989  -32.3742   -8.9000 C   0  0  0  0  0  0  0  0  0  0  0  0
   27.4406  -32.8215   -7.8206 C   0  0  0  0  0  0  0  0  0  0  0  0
   26.8657  -33.0225   -6.5778 C   0  0  0  0  0  0  0  0  0  0  0  0
   27.6531  -33.4978   -5.4348 C   0  0  0  0  0  0  0  0  0  0  0  0
   28.3634  -34.7874   -5.7682 C   0  0  2  0  0  0  0  0  0  0  0  0
   27.4426  -35.8202   -6.1915 N   0  0  0  0  0  0  0  0  0  0  0  0
   29.2180  -35.2390   -4.6417 C   0  0  0  0  0  0  0  0  0  0  0  0
   28.7357  -36.0817   -3.8458 O   0  0  0  0  0  0  0  0  0  0  0  0
   25.5179  -32.7557   -6.4653 C   0  0  0  0  0  0  0  0  0  0  0  0
   24.7578  -32.3090   -7.5269 C   0  0  0  0  0  0  0  0  0  0  0  0
   35.0284  -38.4436   -7.3242 O   0  0  0  0  0  0  0  0  0  0  0  0
   34.5029  -37.5441   -6.4037 C   0  0  0  0  0  0  0  0  0  0  0  0
   33.9167  -36.4000   -6.8887 C   0  0  0  0  0  0  0  0  0  0  0  0
   33.3902  -35.4992   -5.9648 C   0  0  0  0  0  0  0  0  0  0  0  0
   33.4274  -35.6961   -4.6119 C   0  0  0  0  0  0  0  0  0  0  0  0
   32.8693  -34.7664   -3.6265 C   0  0  0  0  0  0  0  0  0  0  0  0
   31.3684  -35.0044   -3.3588 C   0  0  2  0  0  0  0  0  0  0  0  0
   30.5356  -34.7325   -4.4729 N   0  0  0  0  0  0  0  0  0  0  0  0
   31.0367  -34.2957   -2.1113 C   0  0  0  0  0  0  0  0  0  0  0  0
   30.7032  -33.0715   -2.1888 O   0  0  0  0  0  0  0  0  0  0  0  0
   34.0446  -36.8914   -4.1965 C   0  0  0  0  0  0  0  0  0  0  0  0
   34.5762  -37.8079   -5.0487 C   0  0  0  0  0  0  0  0  0  0  0  0
   26.5032  -31.5318    4.6474 O   0  0  0  0  0  0  0  0  0  0  0  0
   27.1211  -32.0708    3.5250 C   0  0  0  0  0  0  0  0  0  0  0  0
   28.4793  -31.9650    3.3750 C   0  0  0  0  0  0  0  0  0  0  0  0
   29.0970  -32.5099    2.2425 C   0  0  0  0  0  0  0  0  0  0  0  0
   28.3757  -33.1513    1.2717 C   0  0  0  0  0  0  0  0  0  0  0  0
   29.0492  -33.7142    0.1019 C   0  0  0  0  0  0  0  0  0  0  0  0
   30.4576  -34.1845    0.3327 C   0  0  2  0  0  0  0  0  0  0  0  0
   31.0503  -34.8442   -0.8086 N   0  0  0  0  0  0  0  0  0  0  0  0
   30.5877  -35.0659    1.5046 C   0  0  0  0  0  0  0  0  0  0  0  0
   30.7684  -36.4261    1.3516 O   0  0  0  0  0  0  0  0  0  0  0  0
   27.0177  -33.2627    1.4111 C   0  0  0  0  0  0  0  0  0  0  0  0
   26.4055  -32.7254    2.5287 C   0  0  0  0  0  0  0  0  0  0  0  0
   30.5358  -34.5912    2.6558 O   0  0  0  0  0  0  0  0  0  0  0  0
  2  1  1  0
  3  2  2  0
  4  3  1  0
  5 11  1  0
  5  4  2  0
  6  5  1  0
  7  6  1  0
  7  8  1  1
  9  7  1  0
 10  9  2  0
 11 12  2  0
 12  2  1  0
 13 14  1  0
 14 24  2  0
 14 15  1  0
 15 16  2  0
 16 17  1  0
 17 18  1  0
 19 18  1  6
 19 20  1  0
 20  9  1  0
 21 19  1  0
 21 32  1  0
 22 21  2  0
 23 17  2  0
 24 23  1  0
 25 26  1  0
 26 36  2  0
 27 26  1  0
 27 28  2  0
 28 29  1  0
 29 35  2  0
 29 30  1  0
 31 32  1  0
 31 33  1  0
 31 30  1  6
 33 37  2  0
 33 34  1  0
 36 35  1  0
M  END
$$$$
