YYY.pdb
     RDKit          3D

 37 39  0  0  1  0  0  0  0  0999 V2000
   18.5743  -16.6535  -16.0485 O   0  0  0  0  0  0  0  0  0  0  0  0
   18.8048  -15.2668  -16.0744 C   0  0  0  0  0  0  0  0  0  0  0  0
   19.9254  -14.7961  -16.7319 C   0  0  0  0  0  0  0  0  0  0  0  0
   20.1738  -13.4352  -16.7711 C   0  0  0  0  0  0  0  0  0  0  0  0
   19.3255  -12.5245  -16.1659 C   0  0  0  0  0  0  0  0  0  0  0  0
   19.5908  -11.0821  -16.2074 C   0  0  0  0  0  0  0  0  0  0  0  0
   18.5432  -10.3643  -17.0234 C   0  0  2  0  0  0  0  0  0  0  0  0
   18.5204  -10.8184  -18.3971 N   0  0  0  0  0  0  0  0  0  0  0  0
   18.7045   -8.8916  -16.9324 C   0  0  0  0  0  0  0  0  0  0  0  0
   19.4309   -8.3309  -17.7895 O   0  0  0  0  0  0  0  0  0  0  0  0
   18.2199  -13.0371  -15.5215 C   0  0  0  0  0  0  0  0  0  0  0  0
   17.9512  -14.3896  -15.4690 C   0  0  0  0  0  0  0  0  0  0  0  0
   13.8483   -6.0474  -20.4305 O   0  0  0  0  0  0  0  0  0  0  0  0
   14.5763   -6.0298  -19.2464 C   0  0  0  0  0  0  0  0  0  0  0  0
   14.4846   -7.1249  -18.4215 C   0  0  0  0  0  0  0  0  0  0  0  0
   15.2150   -7.1060  -17.2348 C   0  0  0  0  0  0  0  0  0  0  0  0
   16.0114   -6.0613  -16.8543 C   0  0  0  0  0  0  0  0  0  0  0  0
   16.7952   -6.0284  -15.6168 C   0  0  0  0  0  0  0  0  0  0  0  0
   18.1575   -6.7409  -15.7492 C   0  0  2  0  0  0  0  0  0  0  0  0
   18.0583   -8.1456  -15.9093 N   0  0  0  0  0  0  0  0  0  0  0  0
   18.9981   -6.2715  -14.6351 C   0  0  0  0  0  0  0  0  0  0  0  0
   18.7816   -6.7518  -13.4782 O   0  0  0  0  0  0  0  0  0  0  0  0
   16.0509   -4.9787  -17.7536 C   0  0  0  0  0  0  0  0  0  0  0  0
   15.3616   -4.9386  -18.9249 C   0  0  0  0  0  0  0  0  0  0  0  0
   25.2401   -6.9765  -17.8956 O   0  0  0  0  0  0  0  0  0  0  0  0
   24.4532   -6.7060  -16.7822 C   0  0  0  0  0  0  0  0  0  0  0  0
   23.5689   -7.6478  -16.3246 C   0  0  0  0  0  0  0  0  0  0  0  0
   22.7786   -7.3704  -15.2023 C   0  0  0  0  0  0  0  0  0  0  0  0
   22.8652   -6.1737  -14.5431 C   0  0  0  0  0  0  0  0  0  0  0  0
   22.0298   -5.9144  -13.3711 C   0  0  0  0  0  0  0  0  0  0  0  0
   20.8812   -4.9714  -13.5935 C   0  0  2  0  0  0  0  0  0  0  0  0
   20.0427   -5.3228  -14.7172 N   0  0  0  0  0  0  0  0  0  0  0  0
   21.3051   -3.5696  -13.7441 C   0  0  0  0  0  0  0  0  0  0  0  0
   21.9849   -2.9223  -12.7317 O   0  0  0  0  0  0  0  0  0  0  0  0
   23.7453   -5.2251  -14.9917 C   0  0  0  0  0  0  0  0  0  0  0  0
   24.5269   -5.4968  -16.0999 C   0  0  0  0  0  0  0  0  0  0  0  0
   21.0533   -2.9472  -14.7941 O   0  0  0  0  0  0  0  0  0  0  0  0
  2  1  1  0
  3  2  2  0
  4  3  1  0
  5 11  1  0
  5  4  2  0
  6  5  1  0
  7  6  1  0
  7  8  1  6
  9  7  1  0
 10  9  2  0
 11 12  2  0
 12  2  1  0
 13 14  1  0
 14 24  2  0
 14 15  1  0
 15 16  2  0
 16 17  1  0
 17 18  1  0
 19 18  1  1
 19 20  1  0
 20  9  1  0
 21 19  1  0
 21 32  1  0
 22 21  2  0
 23 17  2  0
 24 23  1  0
 25 26  1  0
 26 36  2  0
 27 26  1  0
 27 28  2  0
 28 29  1  0
 29 35  2  0
 29 30  1  0
 31 32  1  0
 31 33  1  0
 31 30  1  6
 33 37  2  0
 33 34  1  0
 36 35  1  0
M  END
$$$$
