YYY.pdb
     RDKit          3D

 37 39  0  0  1  0  0  0  0  0999 V2000
   32.2383  -17.1914  -19.4224 O   0  0  0  0  0  0  0  0  0  0  0  0
   31.1787  -17.3317  -18.5091 C   0  0  0  0  0  0  0  0  0  0  0  0
   30.7026  -18.6008  -18.2404 C   0  0  0  0  0  0  0  0  0  0  0  0
   29.6602  -18.7645  -17.3448 C   0  0  0  0  0  0  0  0  0  0  0  0
   29.0758  -17.6851  -16.7055 C   0  0  0  0  0  0  0  0  0  0  0  0
   27.9701  -17.8602  -15.7573 C   0  0  0  0  0  0  0  0  0  0  0  0
   26.7373  -18.3799  -16.4565 C   0  0  2  0  0  0  0  0  0  0  0  0
   26.2370  -17.4447  -17.4407 N   0  0  0  0  0  0  0  0  0  0  0  0
   25.6876  -18.7679  -15.4814 C   0  0  0  0  0  0  0  0  0  0  0  0
   24.9176  -17.8679  -15.0651 O   0  0  0  0  0  0  0  0  0  0  0  0
   29.5816  -16.4376  -17.0026 C   0  0  0  0  0  0  0  0  0  0  0  0
   30.6201  -16.2494  -17.8917 C   0  0  0  0  0  0  0  0  0  0  0  0
   26.6471  -26.1641  -16.4522 O   0  0  0  0  0  0  0  0  0  0  0  0
   25.9290  -25.0731  -15.9762 C   0  0  0  0  0  0  0  0  0  0  0  0
   25.7082  -24.0260  -16.8380 C   0  0  0  0  0  0  0  0  0  0  0  0
   24.9881  -22.9329  -16.3596 C   0  0  0  0  0  0  0  0  0  0  0  0
   24.4945  -22.8519  -15.0867 C   0  0  0  0  0  0  0  0  0  0  0  0
   23.7258  -21.7166  -14.5698 C   0  0  0  0  0  0  0  0  0  0  0  0
   24.6203  -20.5602  -14.0765 C   0  0  2  0  0  0  0  0  0  0  0  0
   25.5621  -20.1122  -15.0363 N   0  0  0  0  0  0  0  0  0  0  0  0
   25.1664  -20.9661  -12.7706 C   0  0  0  0  0  0  0  0  0  0  0  0
   26.2935  -21.5536  -12.7495 O   0  0  0  0  0  0  0  0  0  0  0  0
   24.7635  -23.9646  -14.2671 C   0  0  0  0  0  0  0  0  0  0  0  0
   25.4597  -25.0586  -14.6760 C   0  0  0  0  0  0  0  0  0  0  0  0
   28.3709  -19.7771   -4.7400 O   0  0  0  0  0  0  0  0  0  0  0  0
   27.8386  -19.7784   -6.0240 C   0  0  0  0  0  0  0  0  0  0  0  0
   28.4688  -20.4709   -7.0248 C   0  0  0  0  0  0  0  0  0  0  0  0
   27.9283  -20.4693   -8.3167 C   0  0  0  0  0  0  0  0  0  0  0  0
   26.7774  -19.7889   -8.6110 C   0  0  0  0  0  0  0  0  0  0  0  0
   26.2345  -19.8091   -9.9688 C   0  0  0  0  0  0  0  0  0  0  0  0
   25.2633  -20.9185  -10.2588 C   0  0  2  0  0  0  0  0  0  0  0  0
   24.5569  -20.7677  -11.5107 N   0  0  0  0  0  0  0  0  0  0  0  0
   24.2771  -21.1187   -9.1842 C   0  0  0  0  0  0  0  0  0  0  0  0
   22.9436  -20.8205   -9.3817 O   0  0  0  0  0  0  0  0  0  0  0  0
   26.1393  -19.0933   -7.6187 C   0  0  0  0  0  0  0  0  0  0  0  0
   26.6712  -19.0935   -6.3420 C   0  0  0  0  0  0  0  0  0  0  0  0
   24.6371  -21.5625   -8.0766 O   0  0  0  0  0  0  0  0  0  0  0  0
  2  1  1  0
  3  2  2  0
  4  3  1  0
  5 11  1  0
  5  4  2  0
  6  5  1  0
  7  6  1  0
  7  8  1  6
  9  7  1  0
 10  9  2  0
 11 12  2  0
 12  2  1  0
 13 14  1  0
 14 24  2  0
 14 15  1  0
 15 16  2  0
 16 17  1  0
 17 18  1  0
 19 18  1  6
 19 20  1  0
 20  9  1  0
 21 19  1  0
 21 32  1  0
 22 21  2  0
 23 17  2  0
 24 23  1  0
 25 26  1  0
 26 36  2  0
 27 26  1  0
 27 28  2  0
 28 29  1  0
 29 35  2  0
 29 30  1  0
 31 32  1  0
 31 33  1  0
 31 30  1  1
 33 37  2  0
 33 34  1  0
 36 35  1  0
M  END
$$$$
