YYY.pdb
     RDKit          3D

 37 39  0  0  1  0  0  0  0  0999 V2000
   26.9480  -11.6344  -16.7437 O   0  0  0  0  0  0  0  0  0  0  0  0
   26.3558  -12.9069  -16.6618 C   0  0  0  0  0  0  0  0  0  0  0  0
   26.4386  -13.5980  -15.4680 C   0  0  0  0  0  0  0  0  0  0  0  0
   25.8634  -14.8523  -15.3629 C   0  0  0  0  0  0  0  0  0  0  0  0
   25.2022  -15.4396  -16.4274 C   0  0  0  0  0  0  0  0  0  0  0  0
   24.5939  -16.7699  -16.3147 C   0  0  0  0  0  0  0  0  0  0  0  0
   25.6334  -17.8532  -16.4713 C   0  0  2  0  0  0  0  0  0  0  0  0
   26.2495  -17.8287  -17.7804 N   0  0  0  0  0  0  0  0  0  0  0  0
   25.0720  -19.1895  -16.1514 C   0  0  0  0  0  0  0  0  0  0  0  0
   24.6709  -19.8972  -17.1078 O   0  0  0  0  0  0  0  0  0  0  0  0
   25.1431  -14.7154  -17.5990 C   0  0  0  0  0  0  0  0  0  0  0  0
   25.7088  -13.4634  -17.7278 C   0  0  0  0  0  0  0  0  0  0  0  0
   29.4253  -23.8294  -17.0342 O   0  0  0  0  0  0  0  0  0  0  0  0
   28.4182  -23.3477  -16.2059 C   0  0  0  0  0  0  0  0  0  0  0  0
   28.6003  -22.1155  -15.6257 C   0  0  0  0  0  0  0  0  0  0  0  0
   27.5898  -21.6338  -14.7956 C   0  0  0  0  0  0  0  0  0  0  0  0
   26.4366  -22.3202  -14.5326 C   0  0  0  0  0  0  0  0  0  0  0  0
   25.3588  -21.8251  -13.6722 C   0  0  0  0  0  0  0  0  0  0  0  0
   24.3953  -20.8691  -14.4062 C   0  0  2  0  0  0  0  0  0  0  0  0
   24.9923  -19.6482  -14.8082 N   0  0  0  0  0  0  0  0  0  0  0  0
   23.1845  -20.7579  -13.5755 C   0  0  0  0  0  0  0  0  0  0  0  0
   23.2615  -20.1005  -12.4902 O   0  0  0  0  0  0  0  0  0  0  0  0
   26.3271  -23.5735  -15.1647 C   0  0  0  0  0  0  0  0  0  0  0  0
   27.2777  -24.0967  -15.9840 C   0  0  0  0  0  0  0  0  0  0  0  0
   19.4076  -16.7684  -17.7157 O   0  0  0  0  0  0  0  0  0  0  0  0
   19.6523  -17.4657  -16.5384 C   0  0  0  0  0  0  0  0  0  0  0  0
   20.7825  -17.2017  -15.8095 C   0  0  0  0  0  0  0  0  0  0  0  0
   21.0243  -17.9068  -14.6240 C   0  0  0  0  0  0  0  0  0  0  0  0
   20.1554  -18.8616  -14.1683 C   0  0  0  0  0  0  0  0  0  0  0  0
   20.4326  -19.5786  -12.9243 C   0  0  0  0  0  0  0  0  0  0  0  0
   20.7367  -21.0423  -13.0774 C   0  0  2  0  0  0  0  0  0  0  0  0
   21.9185  -21.3170  -13.8629 N   0  0  0  0  0  0  0  0  0  0  0  0
   19.6122  -21.8107  -13.6363 C   0  0  0  0  0  0  0  0  0  0  0  0
   18.4067  -21.8904  -12.9680 O   0  0  0  0  0  0  0  0  0  0  0  0
   19.0229  -19.1338  -14.8888 C   0  0  0  0  0  0  0  0  0  0  0  0
   18.7820  -18.4387  -16.0599 C   0  0  0  0  0  0  0  0  0  0  0  0
   19.7364  -22.4021  -14.7264 O   0  0  0  0  0  0  0  0  0  0  0  0
  2  1  1  0
  3  2  2  0
  4  3  1  0
  5 11  1  0
  5  4  2  0
  6  5  1  0
  7  6  1  0
  7  8  1  6
  9  7  1  0
 10  9  2  0
 11 12  2  0
 12  2  1  0
 13 14  1  0
 14 24  2  0
 14 15  1  0
 15 16  2  0
 16 17  1  0
 17 18  1  0
 19 18  1  1
 19 20  1  0
 20  9  1  0
 21 19  1  0
 21 32  1  0
 22 21  2  0
 23 17  2  0
 24 23  1  0
 25 26  1  0
 26 36  2  0
 27 26  1  0
 27 28  2  0
 28 29  1  0
 29 35  2  0
 29 30  1  0
 31 32  1  0
 31 33  1  0
 31 30  1  6
 33 37  2  0
 33 34  1  0
 36 35  1  0
M  END
$$$$
