YYY.pdb
     RDKit          3D

 37 39  0  0  1  0  0  0  0  0999 V2000
   30.6010   -6.3142  -22.4093 O   0  0  0  0  0  0  0  0  0  0  0  0
   29.3668   -6.3153  -21.7360 C   0  0  0  0  0  0  0  0  0  0  0  0
   29.3664   -6.4267  -20.3586 C   0  0  0  0  0  0  0  0  0  0  0  0
   28.1639   -6.4301  -19.6734 C   0  0  0  0  0  0  0  0  0  0  0  0
   26.9519   -6.3244  -20.3331 C   0  0  0  0  0  0  0  0  0  0  0  0
   25.6780   -6.3293  -19.6053 C   0  0  0  0  0  0  0  0  0  0  0  0
   25.2042   -7.7409  -19.3570 C   0  0  2  0  0  0  0  0  0  0  0  0
   25.0059   -8.4714  -20.5902 N   0  0  0  0  0  0  0  0  0  0  0  0
   23.9898   -7.7598  -18.5039 C   0  0  0  0  0  0  0  0  0  0  0  0
   22.8793   -7.5992  -19.0673 O   0  0  0  0  0  0  0  0  0  0  0  0
   26.9985   -6.2152  -21.7065 C   0  0  0  0  0  0  0  0  0  0  0  0
   28.1848   -6.2094  -22.4115 C   0  0  0  0  0  0  0  0  0  0  0  0
   18.7795   -8.4849  -11.4133 O   0  0  0  0  0  0  0  0  0  0  0  0
   19.8756   -8.5379  -12.2667 C   0  0  0  0  0  0  0  0  0  0  0  0
   19.8454   -9.4515  -13.2925 C   0  0  0  0  0  0  0  0  0  0  0  0
   20.9448   -9.5036  -14.1473 C   0  0  0  0  0  0  0  0  0  0  0  0
   22.0419   -8.6974  -14.0171 C   0  0  0  0  0  0  0  0  0  0  0  0
   23.2013   -8.7299  -14.9125 C   0  0  0  0  0  0  0  0  0  0  0  0
   22.9876   -7.9101  -16.2021 C   0  0  2  0  0  0  0  0  0  0  0  0
   24.0846   -7.9526  -17.0986 N   0  0  0  0  0  0  0  0  0  0  0  0
   22.5366   -6.5703  -15.7900 C   0  0  0  0  0  0  0  0  0  0  0  0
   23.4030   -5.7630  -15.3279 O   0  0  0  0  0  0  0  0  0  0  0  0
   21.9950   -7.7897  -12.9420 C   0  0  0  0  0  0  0  0  0  0  0  0
   20.9520   -7.6920  -12.0752 C   0  0  0  0  0  0  0  0  0  0  0  0
   19.7804    1.5976  -15.0142 O   0  0  0  0  0  0  0  0  0  0  0  0
   20.1856    0.3053  -15.3267 C   0  0  0  0  0  0  0  0  0  0  0  0
   19.5342   -0.3975  -16.3066 C   0  0  0  0  0  0  0  0  0  0  0  0
   19.9465   -1.6991  -16.6178 C   0  0  0  0  0  0  0  0  0  0  0  0
   20.9916   -2.2952  -15.9646 C   0  0  0  0  0  0  0  0  0  0  0  0
   21.4021   -3.6545  -16.3145 C   0  0  0  0  0  0  0  0  0  0  0  0
   20.8477   -4.7416  -15.4376 C   0  0  2  0  0  0  0  0  0  0  0  0
   21.2139   -6.0761  -15.8549 N   0  0  0  0  0  0  0  0  0  0  0  0
   19.3837   -4.6791  -15.2956 C   0  0  0  0  0  0  0  0  0  0  0  0
   18.5853   -5.7214  -15.7224 O   0  0  0  0  0  0  0  0  0  0  0  0
   21.6497   -1.6023  -14.9835 C   0  0  0  0  0  0  0  0  0  0  0  0
   21.2444   -0.3166  -14.6744 C   0  0  0  0  0  0  0  0  0  0  0  0
   18.8448   -3.6779  -14.7853 O   0  0  0  0  0  0  0  0  0  0  0  0
  2  1  1  0
  3  2  2  0
  4  3  1  0
  5 11  1  0
  5  4  2  0
  6  5  1  0
  7  6  1  0
  7  8  1  6
  9  7  1  0
 10  9  2  0
 11 12  2  0
 12  2  1  0
 13 14  1  0
 14 24  2  0
 14 15  1  0
 15 16  2  0
 16 17  1  0
 17 18  1  0
 19 18  1  1
 19 20  1  0
 20  9  1  0
 21 19  1  0
 21 32  1  0
 22 21  2  0
 23 17  2  0
 24 23  1  0
 25 26  1  0
 26 36  2  0
 27 26  1  0
 27 28  2  0
 28 29  1  0
 29 35  2  0
 29 30  1  0
 31 32  1  0
 31 33  1  0
 31 30  1  6
 33 37  2  0
 33 34  1  0
 36 35  1  0
M  END
$$$$
