YYY.pdb
     RDKit          3D

 37 39  0  0  1  0  0  0  0  0999 V2000
   30.2410  -42.2983   -5.1519 O   0  0  0  0  0  0  0  0  0  0  0  0
   29.3796  -41.1871   -5.1481 C   0  0  0  0  0  0  0  0  0  0  0  0
   29.1527  -40.5237   -6.3388 C   0  0  0  0  0  0  0  0  0  0  0  0
   28.3086  -39.4271   -6.3603 C   0  0  0  0  0  0  0  0  0  0  0  0
   27.6801  -38.9718   -5.2144 C   0  0  0  0  0  0  0  0  0  0  0  0
   26.7865  -37.8085   -5.2387 C   0  0  0  0  0  0  0  0  0  0  0  0
   27.5718  -36.5284   -5.3906 C   0  0  2  0  0  0  0  0  0  0  0  0
   28.3828  -36.2479   -4.2255 N   0  0  0  0  0  0  0  0  0  0  0  0
   26.6843  -35.3885   -5.7316 C   0  0  0  0  0  0  0  0  0  0  0  0
   26.3901  -34.5841   -4.8135 O   0  0  0  0  0  0  0  0  0  0  0  0
   27.9343  -39.6630   -4.0490 C   0  0  0  0  0  0  0  0  0  0  0  0
   28.7718  -40.7588   -4.0027 C   0  0  0  0  0  0  0  0  0  0  0  0
   22.7388  -29.0954  -10.4306 O   0  0  0  0  0  0  0  0  0  0  0  0
   23.4911  -30.1973  -10.0402 C   0  0  0  0  0  0  0  0  0  0  0  0
   23.2011  -31.4089  -10.6196 C   0  0  0  0  0  0  0  0  0  0  0  0
   23.9561  -32.5127  -10.2274 C   0  0  0  0  0  0  0  0  0  0  0  0
   24.9623  -32.4501   -9.3033 C   0  0  0  0  0  0  0  0  0  0  0  0
   25.7739  -33.5968   -8.8872 C   0  0  0  0  0  0  0  0  0  0  0  0
   25.4027  -34.1177   -7.4830 C   0  0  2  0  0  0  0  0  0  0  0  0
   26.1863  -35.2173   -7.0520 N   0  0  0  0  0  0  0  0  0  0  0  0
   23.9434  -34.3148   -7.4696 C   0  0  0  0  0  0  0  0  0  0  0  0
   23.4793  -35.3850   -7.9747 O   0  0  0  0  0  0  0  0  0  0  0  0
   25.1964  -31.1737   -8.7571 C   0  0  0  0  0  0  0  0  0  0  0  0
   24.4942  -30.0607   -9.0989 C   0  0  0  0  0  0  0  0  0  0  0  0
   15.4012  -34.4661   -5.1886 O   0  0  0  0  0  0  0  0  0  0  0  0
   16.7440  -34.1337   -5.3239 C   0  0  0  0  0  0  0  0  0  0  0  0
   17.0984  -32.8861   -5.7670 C   0  0  0  0  0  0  0  0  0  0  0  0
   18.4527  -32.5561   -5.9013 C   0  0  0  0  0  0  0  0  0  0  0  0
   19.4421  -33.4530   -5.5998 C   0  0  0  0  0  0  0  0  0  0  0  0
   20.8480  -33.0781   -5.7460 C   0  0  0  0  0  0  0  0  0  0  0  0
   21.5691  -33.7160   -6.8999 C   0  0  2  0  0  0  0  0  0  0  0  0
   22.9833  -33.4207   -6.9436 N   0  0  0  0  0  0  0  0  0  0  0  0
   20.9788  -33.3811   -8.2064 C   0  0  0  0  0  0  0  0  0  0  0  0
   21.7228  -32.7400   -9.1767 O   0  0  0  0  0  0  0  0  0  0  0  0
   19.0995  -34.7027   -5.1563 C   0  0  0  0  0  0  0  0  0  0  0  0
   17.7627  -35.0309   -5.0228 C   0  0  0  0  0  0  0  0  0  0  0  0
   19.7928  -33.6745   -8.4529 O   0  0  0  0  0  0  0  0  0  0  0  0
  2  1  1  0
  3  2  2  0
  4  3  1  0
  5 11  1  0
  5  4  2  0
  6  5  1  0
  7  6  1  0
  7  8  1  1
  9  7  1  0
 10  9  2  0
 11 12  2  0
 12  2  1  0
 13 14  1  0
 14 24  2  0
 14 15  1  0
 15 16  2  0
 16 17  1  0
 17 18  1  0
 19 18  1  6
 19 20  1  0
 20  9  1  0
 21 19  1  0
 21 32  1  0
 22 21  2  0
 23 17  2  0
 24 23  1  0
 25 26  1  0
 26 36  2  0
 27 26  1  0
 27 28  2  0
 28 29  1  0
 29 35  2  0
 29 30  1  0
 31 32  1  0
 31 33  1  0
 31 30  1  1
 33 37  2  0
 33 34  1  0
 36 35  1  0
M  END
$$$$
