YYY.pdb
     RDKit          3D

 37 39  0  0  1  0  0  0  0  0999 V2000
   33.2912   -3.8224  -13.7913 O   0  0  0  0  0  0  0  0  0  0  0  0
   33.1644   -4.9876  -14.5677 C   0  0  0  0  0  0  0  0  0  0  0  0
   32.1378   -5.0579  -15.4899 C   0  0  0  0  0  0  0  0  0  0  0  0
   31.9925   -6.1946  -16.2659 C   0  0  0  0  0  0  0  0  0  0  0  0
   32.8526   -7.2720  -16.1439 C   0  0  0  0  0  0  0  0  0  0  0  0
   32.6965   -8.4768  -16.9664 C   0  0  0  0  0  0  0  0  0  0  0  0
   33.9290   -8.7221  -17.8028 C   0  0  2  0  0  0  0  0  0  0  0  0
   34.2950   -7.5602  -18.5836 N   0  0  0  0  0  0  0  0  0  0  0  0
   33.7728   -9.9297  -18.6517 C   0  0  0  0  0  0  0  0  0  0  0  0
   33.5464   -9.7570  -19.8746 O   0  0  0  0  0  0  0  0  0  0  0  0
   33.8624   -7.1595  -15.2122 C   0  0  0  0  0  0  0  0  0  0  0  0
   34.0274   -6.0366  -14.4273 C   0  0  0  0  0  0  0  0  0  0  0  0
   40.0927  -12.5485  -19.1491 O   0  0  0  0  0  0  0  0  0  0  0  0
   38.7410  -12.8130  -18.9609 C   0  0  0  0  0  0  0  0  0  0  0  0
   38.2022  -12.5483  -17.7250 C   0  0  0  0  0  0  0  0  0  0  0  0
   36.8470  -12.8139  -17.5377 C   0  0  0  0  0  0  0  0  0  0  0  0
   36.0343  -13.3199  -18.5144 C   0  0  0  0  0  0  0  0  0  0  0  0
   34.6057  -13.5946  -18.3395 C   0  0  0  0  0  0  0  0  0  0  0  0
   33.7076  -12.4378  -18.8253 C   0  0  2  0  0  0  0  0  0  0  0  0
   33.8760  -11.2342  -18.0961 N   0  0  0  0  0  0  0  0  0  0  0  0
   32.3343  -12.9635  -18.9035 C   0  0  0  0  0  0  0  0  0  0  0  0
   31.6386  -12.9810  -17.8396 O   0  0  0  0  0  0  0  0  0  0  0  0
   36.6623  -13.5636  -19.7507 C   0  0  0  0  0  0  0  0  0  0  0  0
   37.9787  -13.3254  -19.9940 C   0  0  0  0  0  0  0  0  0  0  0  0
   24.1395  -15.1249  -21.3549 O   0  0  0  0  0  0  0  0  0  0  0  0
   25.4124  -14.6034  -21.1555 C   0  0  0  0  0  0  0  0  0  0  0  0
   26.3236  -14.6131  -22.1793 C   0  0  0  0  0  0  0  0  0  0  0  0
   27.6046  -14.0863  -21.9734 C   0  0  0  0  0  0  0  0  0  0  0  0
   27.9762  -13.5570  -20.7667 C   0  0  0  0  0  0  0  0  0  0  0  0
   29.3200  -13.0102  -20.5828 C   0  0  0  0  0  0  0  0  0  0  0  0
   30.3433  -13.9768  -20.0567 C   0  0  2  0  0  0  0  0  0  0  0  0
   31.6938  -13.4616  -20.0609 N   0  0  0  0  0  0  0  0  0  0  0  0
   30.3319  -15.2700  -20.7601 C   0  0  0  0  0  0  0  0  0  0  0  0
   31.2723  -15.5579  -21.7291 O   0  0  0  0  0  0  0  0  0  0  0  0
   27.0739  -13.5424  -19.7364 C   0  0  0  0  0  0  0  0  0  0  0  0
   25.8082  -14.0620  -19.9375 C   0  0  0  0  0  0  0  0  0  0  0  0
   29.4674  -16.1253  -20.4873 O   0  0  0  0  0  0  0  0  0  0  0  0
  2  1  1  0
  3  2  2  0
  4  3  1  0
  5 11  1  0
  5  4  2  0
  6  5  1  0
  7  6  1  0
  7  8  1  6
  9  7  1  0
 10  9  2  0
 11 12  2  0
 12  2  1  0
 13 14  1  0
 14 24  2  0
 14 15  1  0
 15 16  2  0
 16 17  1  0
 17 18  1  0
 19 18  1  1
 19 20  1  0
 20  9  1  0
 21 19  1  0
 21 32  1  0
 22 21  2  0
 23 17  2  0
 24 23  1  0
 25 26  1  0
 26 36  2  0
 27 26  1  0
 27 28  2  0
 28 29  1  0
 29 35  2  0
 29 30  1  0
 31 32  1  0
 31 33  1  0
 31 30  1  6
 33 37  2  0
 33 34  1  0
 36 35  1  0
M  END
$$$$
