YYY.pdb
     RDKit          3D

 37 39  0  0  1  0  0  0  0  0999 V2000
   16.9944  -23.8581  -16.3194 O   0  0  0  0  0  0  0  0  0  0  0  0
   18.1727  -23.2621  -15.8367 C   0  0  0  0  0  0  0  0  0  0  0  0
   18.5943  -22.0762  -16.4073 C   0  0  0  0  0  0  0  0  0  0  0  0
   19.7512  -21.4703  -15.9491 C   0  0  0  0  0  0  0  0  0  0  0  0
   20.5045  -22.0224  -14.9277 C   0  0  0  0  0  0  0  0  0  0  0  0
   21.7313  -21.3795  -14.4439 C   0  0  0  0  0  0  0  0  0  0  0  0
   21.5398  -20.8322  -13.0502 C   0  0  2  0  0  0  0  0  0  0  0  0
   20.5131  -19.8137  -13.0036 N   0  0  0  0  0  0  0  0  0  0  0  0
   22.8221  -20.3486  -12.4800 C   0  0  0  0  0  0  0  0  0  0  0  0
   23.0999  -19.1321  -12.6196 O   0  0  0  0  0  0  0  0  0  0  0  0
   20.0477  -23.2054  -14.3872 C   0  0  0  0  0  0  0  0  0  0  0  0
   18.8974  -23.8280  -14.8272 C   0  0  0  0  0  0  0  0  0  0  0  0
   29.2430  -19.1302   -6.8051 O   0  0  0  0  0  0  0  0  0  0  0  0
   28.2707  -19.7474   -7.5837 C   0  0  0  0  0  0  0  0  0  0  0  0
   28.6740  -20.7382   -8.4460 C   0  0  0  0  0  0  0  0  0  0  0  0
   27.6982  -21.3562   -9.2258 C   0  0  0  0  0  0  0  0  0  0  0  0
   26.3714  -21.0285   -9.1755 C   0  0  0  0  0  0  0  0  0  0  0  0
   25.3302  -21.6747   -9.9789 C   0  0  0  0  0  0  0  0  0  0  0  0
   24.9441  -20.8589  -11.2304 C   0  0  2  0  0  0  0  0  0  0  0  0
   23.7023  -21.2346  -11.8009 N   0  0  0  0  0  0  0  0  0  0  0  0
   26.1071  -20.8806  -12.1333 C   0  0  0  0  0  0  0  0  0  0  0  0
   26.7164  -21.9840  -12.2981 O   0  0  0  0  0  0  0  0  0  0  0  0
   26.0405  -20.0045   -8.2677 C   0  0  0  0  0  0  0  0  0  0  0  0
   26.9463  -19.3647   -7.4811 C   0  0  0  0  0  0  0  0  0  0  0  0
   25.9164  -15.0913  -17.6840 O   0  0  0  0  0  0  0  0  0  0  0  0
   26.5442  -15.9605  -16.7995 C   0  0  0  0  0  0  0  0  0  0  0  0
   26.1666  -15.9862  -15.4822 C   0  0  0  0  0  0  0  0  0  0  0  0
   26.8020  -16.8639  -14.5951 C   0  0  0  0  0  0  0  0  0  0  0  0
   27.7993  -17.7049  -15.0104 C   0  0  0  0  0  0  0  0  0  0  0  0
   28.4416  -18.6136  -14.0615 C   0  0  0  0  0  0  0  0  0  0  0  0
   27.7096  -19.9006  -13.8044 C   0  0  2  0  0  0  0  0  0  0  0  0
   26.6294  -19.7809  -12.8515 N   0  0  0  0  0  0  0  0  0  0  0  0
   28.5966  -20.9938  -13.3738 C   0  0  0  0  0  0  0  0  0  0  0  0
   28.4985  -21.5278  -12.1045 O   0  0  0  0  0  0  0  0  0  0  0  0
   28.1848  -17.6875  -16.3245 C   0  0  0  0  0  0  0  0  0  0  0  0
   27.5587  -16.8216  -17.2024 C   0  0  0  0  0  0  0  0  0  0  0  0
   29.4521  -21.4526  -14.1555 O   0  0  0  0  0  0  0  0  0  0  0  0
  2  1  1  0
  3  2  2  0
  4  3  1  0
  5 11  1  0
  5  4  2  0
  6  5  1  0
  7  6  1  0
  7  8  1  6
  9  7  1  0
 10  9  2  0
 11 12  2  0
 12  2  1  0
 13 14  1  0
 14 24  2  0
 14 15  1  0
 15 16  2  0
 16 17  1  0
 17 18  1  0
 19 18  1  1
 19 20  1  0
 20  9  1  0
 21 19  1  0
 21 32  1  0
 22 21  2  0
 23 17  2  0
 24 23  1  0
 25 26  1  0
 26 36  2  0
 27 26  1  0
 27 28  2  0
 28 29  1  0
 29 35  2  0
 29 30  1  0
 31 32  1  0
 31 33  1  0
 31 30  1  1
 33 37  2  0
 33 34  1  0
 36 35  1  0
M  END
$$$$
