YYY.pdb
     RDKit          3D

 37 39  0  0  1  0  0  0  0  0999 V2000
   31.0487  -32.7777  -15.4746 O   0  0  0  0  0  0  0  0  0  0  0  0
   30.3171  -31.6477  -15.8799 C   0  0  0  0  0  0  0  0  0  0  0  0
   31.0097  -30.5351  -16.3180 C   0  0  0  0  0  0  0  0  0  0  0  0
   30.3115  -29.4105  -16.7222 C   0  0  0  0  0  0  0  0  0  0  0  0
   28.9284  -29.3675  -16.7000 C   0  0  0  0  0  0  0  0  0  0  0  0
   28.1899  -28.1742  -17.1277 C   0  0  0  0  0  0  0  0  0  0  0  0
   27.9993  -28.1658  -18.6251 C   0  0  2  0  0  0  0  0  0  0  0  0
   29.2315  -27.8792  -19.3273 N   0  0  0  0  0  0  0  0  0  0  0  0
   26.9093  -27.2409  -19.0248 C   0  0  0  0  0  0  0  0  0  0  0  0
   27.2056  -26.0341  -19.2043 O   0  0  0  0  0  0  0  0  0  0  0  0
   28.2778  -30.4989  -16.2562 C   0  0  0  0  0  0  0  0  0  0  0  0
   28.9520  -31.6318  -15.8482 C   0  0  0  0  0  0  0  0  0  0  0  0
   19.4924  -24.2695  -22.6427 O   0  0  0  0  0  0  0  0  0  0  0  0
   20.5189  -25.0879  -22.1856 C   0  0  0  0  0  0  0  0  0  0  0  0
   21.7750  -24.8918  -22.7067 C   0  0  0  0  0  0  0  0  0  0  0  0
   22.8032  -25.7129  -22.2475 C   0  0  0  0  0  0  0  0  0  0  0  0
   22.6255  -26.6947  -21.3122 C   0  0  0  0  0  0  0  0  0  0  0  0
   23.6960  -27.5595  -20.8091 C   0  0  0  0  0  0  0  0  0  0  0  0
   24.4971  -26.9161  -19.6580 C   0  0  2  0  0  0  0  0  0  0  0  0
   25.5778  -27.7086  -19.1966 N   0  0  0  0  0  0  0  0  0  0  0  0
   23.5214  -26.4919  -18.6399 C   0  0  0  0  0  0  0  0  0  0  0  0
   23.1456  -27.3473  -17.7779 O   0  0  0  0  0  0  0  0  0  0  0  0
   21.3103  -26.8314  -20.8286 C   0  0  0  0  0  0  0  0  0  0  0  0
   20.2667  -26.0618  -21.2375 C   0  0  0  0  0  0  0  0  0  0  0  0
   20.8518  -18.6030  -18.5043 O   0  0  0  0  0  0  0  0  0  0  0  0
   21.2393  -19.8547  -18.0404 C   0  0  0  0  0  0  0  0  0  0  0  0
   22.4915  -20.3326  -18.3267 C   0  0  0  0  0  0  0  0  0  0  0  0
   22.8772  -21.5941  -17.8567 C   0  0  0  0  0  0  0  0  0  0  0  0
   22.0306  -22.3709  -17.1123 C   0  0  0  0  0  0  0  0  0  0  0  0
   22.4630  -23.6827  -16.6317 C   0  0  0  0  0  0  0  0  0  0  0  0
   22.0207  -24.8528  -17.4644 C   0  0  2  0  0  0  0  0  0  0  0  0
   22.9457  -25.2068  -18.5170 N   0  0  0  0  0  0  0  0  0  0  0  0
   20.6847  -24.6694  -18.0551 C   0  0  0  0  0  0  0  0  0  0  0  0
   19.5458  -24.7992  -17.2855 O   0  0  0  0  0  0  0  0  0  0  0  0
   20.7768  -21.9035  -16.8203 C   0  0  0  0  0  0  0  0  0  0  0  0
   20.3937  -20.6579  -17.2834 C   0  0  0  0  0  0  0  0  0  0  0  0
   20.5659  -24.3933  -19.2646 O   0  0  0  0  0  0  0  0  0  0  0  0
  2  1  1  0
  3  2  2  0
  4  3  1  0
  5 11  1  0
  5  4  2  0
  6  5  1  0
  7  6  1  0
  7  8  1  6
  9  7  1  0
 10  9  2  0
 11 12  2  0
 12  2  1  0
 13 14  1  0
 14 24  2  0
 14 15  1  0
 15 16  2  0
 16 17  1  0
 17 18  1  0
 19 18  1  6
 19 20  1  0
 20  9  1  0
 21 19  1  0
 21 32  1  0
 22 21  2  0
 23 17  2  0
 24 23  1  0
 25 26  1  0
 26 36  2  0
 27 26  1  0
 27 28  2  0
 28 29  1  0
 29 35  2  0
 29 30  1  0
 31 32  1  0
 31 33  1  0
 31 30  1  6
 33 37  2  0
 33 34  1  0
 36 35  1  0
M  END
$$$$
