QDM.pdb
     RDKit          3D

 26 25  0  0  1  0  0  0  0  0999 V2000
    9.3288  -12.3585   17.5864 N   0  0  0  0  0  0  0  0  0  0  0  0
    8.3540  -13.2925   17.1753 C   0  0  0  0  0  0  0  0  0  0  0  0
    8.5226  -13.9829   16.1591 O   0  0  0  0  0  0  0  0  0  0  0  0
    7.0770  -13.4708   17.9705 C   0  0  0  0  0  0  0  0  0  0  0  0
    7.3836  -14.1010   19.2929 C   0  0  0  0  0  0  0  0  0  0  0  0
    8.3189  -15.1968   19.3923 C   0  0  2  0  0  0  0  0  0  0  0  0
    7.7332  -16.3217   18.5472 N   0  0  0  0  0  0  0  0  0  0  0  0
    8.6910  -15.8556   20.6344 C   0  0  0  0  0  0  0  0  0  0  0  0
    7.7529  -15.8067   21.5410 O   0  0  0  0  0  0  0  0  0  0  0  0
    9.8481  -16.5145   21.0340 N   0  0  0  0  0  0  0  0  0  0  0  0
   10.2170  -17.1245   22.2783 C   0  0  1  0  0  0  0  0  0  0  0  0
   11.2579  -18.1816   22.2826 C   0  0  0  0  0  0  0  0  0  0  0  0
   11.2403  -19.1275   21.1496 C   0  0  0  0  0  0  0  0  0  0  0  0
   10.4638  -20.0837   20.9983 O   0  0  0  0  0  0  0  0  0  0  0  0
   10.1883  -16.2217   23.4261 C   0  0  0  0  0  0  0  0  0  0  0  0
   11.1975  -15.4962   23.6950 O   0  0  0  0  0  0  0  0  0  0  0  0
   12.1983  -18.9159   20.1526 O   0  0  0  0  0  0  0  0  0  0  0  0
    6.2641  -11.0332   27.5981 C   0  0  0  0  0  0  0  0  0  0  0  0
    6.2030  -12.3204   26.3483 S   0  0  0  0  0  0  0  0  0  0  0  0
    7.7381  -13.3298   26.4847 C   0  0  0  0  0  0  0  0  0  0  0  0
    7.7813  -14.3317   25.3680 C   0  0  0  0  0  0  0  0  0  0  0  0
    9.0273  -15.1438   25.4161 C   0  0  2  0  0  0  0  0  0  0  0  0
    9.0770  -16.0891   24.2943 N   0  0  0  0  0  0  0  0  0  0  0  0
    9.2808  -15.7846   26.6829 C   0  0  0  0  0  0  0  0  0  0  0  0
    9.7995  -15.1380   27.7676 O   0  0  0  0  0  0  0  0  0  0  0  0
    9.0111  -17.0272   26.8096 O   0  0  0  0  0  0  0  0  0  0  0  0
  2  1  1  0
  2  3  2  0
  4  5  1  0
  4  2  1  0
  6  7  1  6
  6  5  1  0
  8  6  1  0
  8 10  1  0
  9  8  2  0
 11 10  1  0
 11 12  1  6
 13 14  2  0
 13 12  1  0
 15 11  1  0
 16 15  2  0
 17 13  1  0
 18 19  1  0
 20 21  1  0
 20 19  1  0
 22 21  1  1
 22 24  1  0
 22 23  1  0
 23 15  1  0
 24 25  1  0
 26 24  2  0
M  END
$$$$
