QDM.pdb
     RDKit          3D

 26 25  0  0  1  0  0  0  0  0999 V2000
    7.8082  -12.3687   16.8119 N   0  0  0  0  0  0  0  0  0  0  0  0
    7.5703  -13.7371   16.5621 C   0  0  0  0  0  0  0  0  0  0  0  0
    7.1744  -14.1221   15.4518 O   0  0  0  0  0  0  0  0  0  0  0  0
    7.7946  -14.7671   17.6501 C   0  0  0  0  0  0  0  0  0  0  0  0
    8.1724  -14.0852   18.9276 C   0  0  0  0  0  0  0  0  0  0  0  0
    9.2901  -14.5519   19.7142 C   0  0  2  0  0  0  0  0  0  0  0  0
   10.1493  -15.3798   18.7660 N   0  0  0  0  0  0  0  0  0  0  0  0
    9.1753  -15.3899   20.8973 C   0  0  0  0  0  0  0  0  0  0  0  0
    8.1052  -15.1381   21.6015 O   0  0  0  0  0  0  0  0  0  0  0  0
    9.9862  -16.3932   21.4156 N   0  0  0  0  0  0  0  0  0  0  0  0
    9.8549  -17.2191   22.5806 C   0  0  1  0  0  0  0  0  0  0  0  0
   10.3547  -18.6152   22.5349 C   0  0  0  0  0  0  0  0  0  0  0  0
   10.1819  -19.4169   23.7621 C   0  0  0  0  0  0  0  0  0  0  0  0
    9.3659  -20.3358   23.9347 O   0  0  0  0  0  0  0  0  0  0  0  0
   10.0027  -16.5063   23.8468 C   0  0  0  0  0  0  0  0  0  0  0  0
   11.1412  -16.0680   24.2055 O   0  0  0  0  0  0  0  0  0  0  0  0
   11.0272  -19.1013   24.8310 O   0  0  0  0  0  0  0  0  0  0  0  0
    6.6617  -11.0672   25.5543 C   0  0  0  0  0  0  0  0  0  0  0  0
    6.6797  -12.4249   26.7283 S   0  0  0  0  0  0  0  0  0  0  0  0
    8.2278  -13.3899   26.4702 C   0  0  0  0  0  0  0  0  0  0  0  0
    7.9073  -14.8560   26.4442 C   0  0  0  0  0  0  0  0  0  0  0  0
    9.0992  -15.6649   26.0707 C   0  0  2  0  0  0  0  0  0  0  0  0
    8.9305  -16.2571   24.7383 N   0  0  0  0  0  0  0  0  0  0  0  0
    9.4992  -16.6393   27.0557 C   0  0  0  0  0  0  0  0  0  0  0  0
    9.3471  -17.9862   26.8931 O   0  0  0  0  0  0  0  0  0  0  0  0
   10.0247  -16.2321   28.1470 O   0  0  0  0  0  0  0  0  0  0  0  0
  2  1  1  0
  2  3  2  0
  4  5  1  0
  4  2  1  0
  6  7  1  6
  6  5  1  0
  8  6  1  0
  8 10  1  0
  9  8  2  0
 11 10  1  0
 11 12  1  6
 13 14  2  0
 13 12  1  0
 15 11  1  0
 16 15  2  0
 17 13  1  0
 18 19  1  0
 20 21  1  0
 20 19  1  0
 22 21  1  1
 22 24  1  0
 22 23  1  0
 23 15  1  0
 24 25  1  0
 26 24  2  0
M  END
$$$$
