QDM.pdb
     RDKit          3D

 26 25  0  0  1  0  0  0  0  0999 V2000
    7.7380  -12.4601   17.0309 N   0  0  0  0  0  0  0  0  0  0  0  0
    7.3577  -13.8015   16.8126 C   0  0  0  0  0  0  0  0  0  0  0  0
    7.4093  -14.3012   15.6789 O   0  0  0  0  0  0  0  0  0  0  0  0
    6.8767  -14.6609   17.9637 C   0  0  0  0  0  0  0  0  0  0  0  0
    7.3356  -14.0763   19.2628 C   0  0  0  0  0  0  0  0  0  0  0  0
    8.6649  -14.3363   19.7638 C   0  0  2  0  0  0  0  0  0  0  0  0
    9.4077  -15.0335   18.6304 N   0  0  0  0  0  0  0  0  0  0  0  0
    8.9637  -15.1551   20.9281 C   0  0  0  0  0  0  0  0  0  0  0  0
    8.3055  -14.7889   21.9944 O   0  0  0  0  0  0  0  0  0  0  0  0
    9.8143  -16.2385   21.1167 N   0  0  0  0  0  0  0  0  0  0  0  0
   10.1298  -17.0116   22.2826 C   0  0  1  0  0  0  0  0  0  0  0  0
   11.0096  -18.1982   22.1446 C   0  0  0  0  0  0  0  0  0  0  0  0
   11.1922  -19.0264   23.3526 C   0  0  0  0  0  0  0  0  0  0  0  0
   12.2621  -19.2473   23.9414 O   0  0  0  0  0  0  0  0  0  0  0  0
   10.2642  -16.2293   23.5086 C   0  0  0  0  0  0  0  0  0  0  0  0
   11.3535  -15.6261   23.7668 O   0  0  0  0  0  0  0  0  0  0  0  0
   10.0378  -19.6164   23.8781 O   0  0  0  0  0  0  0  0  0  0  0  0
    6.4910  -12.0019   25.5141 C   0  0  0  0  0  0  0  0  0  0  0  0
    7.0733  -12.2635   27.1918 S   0  0  0  0  0  0  0  0  0  0  0  0
    8.3106  -13.6283   27.1665 C   0  0  0  0  0  0  0  0  0  0  0  0
    8.2793  -14.3099   25.8296 C   0  0  0  0  0  0  0  0  0  0  0  0
    9.3709  -15.3138   25.7072 C   0  0  2  0  0  0  0  0  0  0  0  0
    9.2313  -16.0869   24.4674 N   0  0  0  0  0  0  0  0  0  0  0  0
    9.5448  -16.1593   26.8624 C   0  0  0  0  0  0  0  0  0  0  0  0
    9.9326  -15.6970   28.0870 O   0  0  0  0  0  0  0  0  0  0  0  0
    9.3291  -17.4133   26.7461 O   0  0  0  0  0  0  0  0  0  0  0  0
  2  1  1  0
  2  3  2  0
  4  5  1  0
  4  2  1  0
  6  7  1  6
  6  5  1  0
  8  6  1  0
  8 10  1  0
  9  8  2  0
 11 10  1  0
 11 12  1  6
 13 14  2  0
 13 12  1  0
 15 11  1  0
 16 15  2  0
 17 13  1  0
 18 19  1  0
 20 21  1  0
 20 19  1  0
 22 21  1  1
 22 24  1  0
 22 23  1  0
 23 15  1  0
 24 25  1  0
 26 24  2  0
M  END
$$$$
