QDM.pdb
     RDKit          3D

 26 25  0  0  1  0  0  0  0  0999 V2000
    7.3258  -15.4551   16.5249 N   0  0  0  0  0  0  0  0  0  0  0  0
    7.6894  -14.1367   16.1770 C   0  0  0  0  0  0  0  0  0  0  0  0
    7.8339  -13.8084   14.9900 O   0  0  0  0  0  0  0  0  0  0  0  0
    7.9116  -13.0920   17.2514 C   0  0  0  0  0  0  0  0  0  0  0  0
    7.6023  -13.6704   18.5966 C   0  0  0  0  0  0  0  0  0  0  0  0
    8.5566  -13.5847   19.6772 C   0  0  2  0  0  0  0  0  0  0  0  0
    9.9177  -13.4016   19.0167 N   0  0  0  0  0  0  0  0  0  0  0  0
    8.7876  -14.6310   20.6606 C   0  0  0  0  0  0  0  0  0  0  0  0
    7.7598  -14.8389   21.4383 O   0  0  0  0  0  0  0  0  0  0  0  0
    9.8881  -15.4373   20.9281 N   0  0  0  0  0  0  0  0  0  0  0  0
   10.1099  -16.4504   21.9186 C   0  0  1  0  0  0  0  0  0  0  0  0
   11.0942  -17.5255   21.6425 C   0  0  0  0  0  0  0  0  0  0  0  0
   10.9753  -18.2083   20.3393 C   0  0  0  0  0  0  0  0  0  0  0  0
    9.9582  -18.7521   19.8811 O   0  0  0  0  0  0  0  0  0  0  0  0
   10.0176  -15.9781   23.2976 C   0  0  0  0  0  0  0  0  0  0  0  0
   10.9874  -15.3459   23.8238 O   0  0  0  0  0  0  0  0  0  0  0  0
   12.1298  -18.2397   19.5500 O   0  0  0  0  0  0  0  0  0  0  0  0
    6.2803  -10.9904   26.3604 C   0  0  0  0  0  0  0  0  0  0  0  0
    6.0277  -12.7591   26.1872 S   0  0  0  0  0  0  0  0  0  0  0  0
    7.6590  -13.5435   25.8438 C   0  0  0  0  0  0  0  0  0  0  0  0
    7.4918  -15.0325   25.7557 C   0  0  0  0  0  0  0  0  0  0  0  0
    8.7935  -15.7108   25.5112 C   0  0  2  0  0  0  0  0  0  0  0  0
    8.8844  -16.1795   24.1232 N   0  0  0  0  0  0  0  0  0  0  0  0
    9.1219  -16.7454   26.4605 C   0  0  0  0  0  0  0  0  0  0  0  0
    9.3756  -16.5083   27.7808 O   0  0  0  0  0  0  0  0  0  0  0  0
    9.1842  -17.9558   26.0556 O   0  0  0  0  0  0  0  0  0  0  0  0
  2  1  1  0
  2  3  2  0
  4  5  1  0
  4  2  1  0
  6  7  1  6
  6  5  1  0
  8  6  1  0
  8 10  1  0
  9  8  2  0
 11 10  1  0
 11 12  1  6
 13 14  2  0
 13 12  1  0
 15 11  1  0
 16 15  2  0
 17 13  1  0
 18 19  1  0
 20 21  1  0
 20 19  1  0
 22 21  1  1
 22 24  1  0
 22 23  1  0
 23 15  1  0
 24 25  1  0
 26 24  2  0
M  END
$$$$
