QDM.pdb
     RDKit          3D

 26 25  0  0  1  0  0  0  0  0999 V2000
    9.7223  -13.0965   19.0096 N   0  0  0  0  0  0  0  0  0  0  0  0
    8.3831  -12.8418   18.6446 C   0  0  0  0  0  0  0  0  0  0  0  0
    8.1041  -12.3847   17.5262 O   0  0  0  0  0  0  0  0  0  0  0  0
    7.2552  -13.1226   19.6162 C   0  0  0  0  0  0  0  0  0  0  0  0
    7.8013  -13.7338   20.8684 C   0  0  0  0  0  0  0  0  0  0  0  0
    8.4361  -15.0307   20.8441 C   0  0  2  0  0  0  0  0  0  0  0  0
    7.3667  -16.0086   20.3721 N   0  0  0  0  0  0  0  0  0  0  0  0
    9.0178  -15.6880   22.0038 C   0  0  0  0  0  0  0  0  0  0  0  0
    8.1601  -15.8753   22.9701 O   0  0  0  0  0  0  0  0  0  0  0  0
   10.3032  -16.1432   22.2747 N   0  0  0  0  0  0  0  0  0  0  0  0
   10.8825  -16.7185   23.4536 C   0  0  1  0  0  0  0  0  0  0  0  0
   12.0942  -17.5644   23.3225 C   0  0  0  0  0  0  0  0  0  0  0  0
   12.3284  -18.1788   22.0010 C   0  0  0  0  0  0  0  0  0  0  0  0
   11.6959  -19.1238   21.5039 O   0  0  0  0  0  0  0  0  0  0  0  0
   10.7900  -15.8780   24.6446 C   0  0  0  0  0  0  0  0  0  0  0  0
   11.4650  -14.8031   24.7234 O   0  0  0  0  0  0  0  0  0  0  0  0
   13.3689  -17.6340   21.2414 O   0  0  0  0  0  0  0  0  0  0  0  0
    5.8479  -13.6109   26.4146 C   0  0  0  0  0  0  0  0  0  0  0  0
    7.1985  -12.4805   26.7614 S   0  0  0  0  0  0  0  0  0  0  0  0
    8.7849  -13.3772   26.4902 C   0  0  0  0  0  0  0  0  0  0  0  0
    8.7612  -14.6777   27.2390 C   0  0  0  0  0  0  0  0  0  0  0  0
   10.0175  -15.4471   27.0294 C   0  0  2  0  0  0  0  0  0  0  0  0
    9.9724  -16.1831   25.7603 N   0  0  0  0  0  0  0  0  0  0  0  0
   10.4011  -16.2882   28.1362 C   0  0  0  0  0  0  0  0  0  0  0  0
   10.5171  -17.6457   28.0503 O   0  0  0  0  0  0  0  0  0  0  0  0
   10.6469  -15.7451   29.2664 O   0  0  0  0  0  0  0  0  0  0  0  0
  2  1  1  0
  2  3  2  0
  4  5  1  0
  4  2  1  0
  6  7  1  1
  6  5  1  0
  8  6  1  0
  8 10  1  0
  9  8  2  0
 11 10  1  0
 11 12  1  6
 13 14  2  0
 13 12  1  0
 15 11  1  0
 16 15  2  0
 17 13  1  0
 18 19  1  0
 20 21  1  0
 20 19  1  0
 22 21  1  1
 22 24  1  0
 22 23  1  0
 23 15  1  0
 24 25  1  0
 26 24  2  0
M  END
$$$$
