QDM.pdb
     RDKit          3D

 26 25  0  0  1  0  0  0  0  0999 V2000
    7.4205  -15.5785   17.0786 N   0  0  0  0  0  0  0  0  0  0  0  0
    7.7135  -14.3200   16.5114 C   0  0  0  0  0  0  0  0  0  0  0  0
    7.8212  -14.1848   15.2835 O   0  0  0  0  0  0  0  0  0  0  0  0
    7.9036  -13.1043   17.3952 C   0  0  0  0  0  0  0  0  0  0  0  0
    7.6399  -13.4660   18.8233 C   0  0  0  0  0  0  0  0  0  0  0  0
    8.7202  -13.5491   19.7781 C   0  0  2  0  0  0  0  0  0  0  0  0
    9.9923  -13.7084   18.9542 N   0  0  0  0  0  0  0  0  0  0  0  0
    8.8409  -14.5748   20.8021 C   0  0  0  0  0  0  0  0  0  0  0  0
    7.8251  -14.6023   21.6218 O   0  0  0  0  0  0  0  0  0  0  0  0
    9.8275  -15.5165   21.0716 N   0  0  0  0  0  0  0  0  0  0  0  0
    9.9291  -16.5289   22.0822 C   0  0  1  0  0  0  0  0  0  0  0  0
   10.7379  -17.7421   21.8087 C   0  0  0  0  0  0  0  0  0  0  0  0
   10.6009  -18.3355   20.4642 C   0  0  0  0  0  0  0  0  0  0  0  0
   11.2669  -18.0453   19.4580 O   0  0  0  0  0  0  0  0  0  0  0  0
    9.9477  -16.0177   23.4503 C   0  0  0  0  0  0  0  0  0  0  0  0
   10.9969  -15.4694   23.9145 O   0  0  0  0  0  0  0  0  0  0  0  0
    9.6200  -19.3223   20.3208 O   0  0  0  0  0  0  0  0  0  0  0  0
    6.8036  -10.7932   26.7349 C   0  0  0  0  0  0  0  0  0  0  0  0
    6.4091  -12.5388   26.5952 S   0  0  0  0  0  0  0  0  0  0  0  0
    7.9448  -13.4411   26.1245 C   0  0  0  0  0  0  0  0  0  0  0  0
    7.6778  -14.9180   26.1185 C   0  0  0  0  0  0  0  0  0  0  0  0
    8.8945  -15.6875   25.7419 C   0  0  2  0  0  0  0  0  0  0  0  0
    8.8409  -16.0899   24.3314 N   0  0  0  0  0  0  0  0  0  0  0  0
    9.2027  -16.7932   26.6149 C   0  0  0  0  0  0  0  0  0  0  0  0
    9.5894  -16.6454   27.9157 O   0  0  0  0  0  0  0  0  0  0  0  0
    9.1149  -17.9828   26.1567 O   0  0  0  0  0  0  0  0  0  0  0  0
  2  1  1  0
  2  3  2  0
  4  5  1  0
  4  2  1  0
  6  7  1  6
  6  5  1  0
  8  6  1  0
  8 10  1  0
  9  8  2  0
 11 10  1  0
 11 12  1  6
 13 14  2  0
 13 12  1  0
 15 11  1  0
 16 15  2  0
 17 13  1  0
 18 19  1  0
 20 21  1  0
 20 19  1  0
 22 21  1  1
 22 24  1  0
 22 23  1  0
 23 15  1  0
 24 25  1  0
 26 24  2  0
M  END
$$$$
