QDM.pdb
     RDKit          3D

 26 25  0  0  1  0  0  0  0  0999 V2000
    9.0220  -12.2081   18.5588 N   0  0  0  0  0  0  0  0  0  0  0  0
    8.0918  -13.0073   17.8605 C   0  0  0  0  0  0  0  0  0  0  0  0
    8.1885  -13.1735   16.6355 O   0  0  0  0  0  0  0  0  0  0  0  0
    6.9517  -13.6804   18.5967 C   0  0  0  0  0  0  0  0  0  0  0  0
    7.3344  -13.9144   20.0245 C   0  0  0  0  0  0  0  0  0  0  0  0
    8.4997  -14.6987   20.3602 C   0  0  2  0  0  0  0  0  0  0  0  0
    8.5799  -15.7967   19.3063 N   0  0  0  0  0  0  0  0  0  0  0  0
    8.6834  -15.4103   21.6153 C   0  0  0  0  0  0  0  0  0  0  0  0
    7.8780  -15.0020   22.5582 O   0  0  0  0  0  0  0  0  0  0  0  0
    9.5507  -16.4281   21.9956 N   0  0  0  0  0  0  0  0  0  0  0  0
    9.7526  -17.0892   23.2521 C   0  0  1  0  0  0  0  0  0  0  0  0
   10.3683  -18.4389   23.2659 C   0  0  0  0  0  0  0  0  0  0  0  0
   10.5296  -19.1025   21.9574 C   0  0  0  0  0  0  0  0  0  0  0  0
   11.5022  -19.0011   21.1933 O   0  0  0  0  0  0  0  0  0  0  0  0
   10.0936  -16.1968   24.3569 C   0  0  0  0  0  0  0  0  0  0  0  0
   10.7700  -15.1416   24.1419 O   0  0  0  0  0  0  0  0  0  0  0  0
    9.4755  -19.9255   21.5473 O   0  0  0  0  0  0  0  0  0  0  0  0
    7.2605  -11.6837   25.3846 C   0  0  0  0  0  0  0  0  0  0  0  0
    7.1243  -12.1830   27.1035 S   0  0  0  0  0  0  0  0  0  0  0  0
    8.5150  -13.3304   27.4825 C   0  0  0  0  0  0  0  0  0  0  0  0
    8.5402  -14.4402   26.4723 C   0  0  0  0  0  0  0  0  0  0  0  0
    9.6651  -15.3802   26.7274 C   0  0  2  0  0  0  0  0  0  0  0  0
    9.7115  -16.4284   25.7010 N   0  0  0  0  0  0  0  0  0  0  0  0
    9.7078  -15.9208   28.0637 C   0  0  0  0  0  0  0  0  0  0  0  0
    9.9841  -15.1750   29.1732 O   0  0  0  0  0  0  0  0  0  0  0  0
    9.4780  -17.1665   28.2319 O   0  0  0  0  0  0  0  0  0  0  0  0
  2  1  1  0
  2  3  2  0
  4  5  1  0
  4  2  1  0
  6  7  1  6
  6  5  1  0
  8  6  1  0
  8 10  1  0
  9  8  2  0
 11 10  1  0
 11 12  1  6
 13 14  2  0
 13 12  1  0
 15 11  1  0
 16 15  2  0
 17 13  1  0
 18 19  1  0
 20 21  1  0
 20 19  1  0
 22 21  1  1
 22 24  1  0
 22 23  1  0
 23 15  1  0
 24 25  1  0
 26 24  2  0
M  END
$$$$
