QDM.pdb
     RDKit          3D

 26 25  0  0  1  0  0  0  0  0999 V2000
    9.9942  -12.5396   19.0669 N   0  0  0  0  0  0  0  0  0  0  0  0
    8.7595  -13.1458   18.7519 C   0  0  0  0  0  0  0  0  0  0  0  0
    8.5228  -13.5487   17.6032 O   0  0  0  0  0  0  0  0  0  0  0  0
    7.6940  -13.3169   19.8151 C   0  0  0  0  0  0  0  0  0  0  0  0
    7.0742  -14.6744   19.7021 C   0  0  0  0  0  0  0  0  0  0  0  0
    7.8822  -15.8678   19.7953 C   0  0  2  0  0  0  0  0  0  0  0  0
    6.9317  -17.0339   19.5513 N   0  0  0  0  0  0  0  0  0  0  0  0
    8.6274  -16.2710   20.9774 C   0  0  0  0  0  0  0  0  0  0  0  0
    7.8603  -16.6781   21.9523 O   0  0  0  0  0  0  0  0  0  0  0  0
    9.9880  -16.2977   21.2619 N   0  0  0  0  0  0  0  0  0  0  0  0
   10.7082  -16.6776   22.4423 C   0  0  1  0  0  0  0  0  0  0  0  0
   12.1073  -17.1533   22.3116 C   0  0  0  0  0  0  0  0  0  0  0  0
   12.3585  -18.1863   21.2877 C   0  0  0  0  0  0  0  0  0  0  0  0
   13.0112  -18.0454   20.2416 O   0  0  0  0  0  0  0  0  0  0  0  0
   10.3884  -15.8852   23.6269 C   0  0  0  0  0  0  0  0  0  0  0  0
   11.0185  -14.8065   23.8646 O   0  0  0  0  0  0  0  0  0  0  0  0
   11.8011  -19.4461   21.5304 O   0  0  0  0  0  0  0  0  0  0  0  0
    6.0469  -12.0301   25.7277 C   0  0  0  0  0  0  0  0  0  0  0  0
    7.4252  -12.3472   26.8333 S   0  0  0  0  0  0  0  0  0  0  0  0
    7.5383  -14.1656   27.1068 C   0  0  0  0  0  0  0  0  0  0  0  0
    7.8227  -14.8529   25.8032 C   0  0  0  0  0  0  0  0  0  0  0  0
    9.1535  -15.5184   25.8201 C   0  0  2  0  0  0  0  0  0  0  0  0
    9.3900  -16.2430   24.5658 N   0  0  0  0  0  0  0  0  0  0  0  0
    9.4033  -16.3374   26.9805 C   0  0  0  0  0  0  0  0  0  0  0  0
    9.1142  -17.6702   27.0424 O   0  0  0  0  0  0  0  0  0  0  0  0
    9.9219  -15.7971   28.0158 O   0  0  0  0  0  0  0  0  0  0  0  0
  2  1  1  0
  2  3  2  0
  4  5  1  0
  4  2  1  0
  6  7  1  1
  6  5  1  0
  8  6  1  0
  8 10  1  0
  9  8  2  0
 11 10  1  0
 11 12  1  6
 13 14  2  0
 13 12  1  0
 15 11  1  0
 16 15  2  0
 17 13  1  0
 18 19  1  0
 20 21  1  0
 20 19  1  0
 22 21  1  6
 22 24  1  0
 22 23  1  0
 23 15  1  0
 24 25  1  0
 26 24  2  0
M  END
$$$$
