QDM.pdb
     RDKit          3D

 26 25  0  0  1  0  0  0  0  0999 V2000
    7.4854  -15.1499   16.8990 N   0  0  0  0  0  0  0  0  0  0  0  0
    7.6042  -13.7493   16.7737 C   0  0  0  0  0  0  0  0  0  0  0  0
    7.5112  -13.1991   15.6663 O   0  0  0  0  0  0  0  0  0  0  0  0
    7.8492  -12.8866   17.9946 C   0  0  0  0  0  0  0  0  0  0  0  0
    7.8795  -13.7397   19.2239 C   0  0  0  0  0  0  0  0  0  0  0  0
    9.1089  -13.9449   19.9533 C   0  0  2  0  0  0  0  0  0  0  0  0
   10.1259  -14.4289   18.9266 N   0  0  0  0  0  0  0  0  0  0  0  0
    9.2674  -14.8738   21.0611 C   0  0  0  0  0  0  0  0  0  0  0  0
    8.3039  -14.7937   21.9384 O   0  0  0  0  0  0  0  0  0  0  0  0
   10.2452  -15.8159   21.3598 N   0  0  0  0  0  0  0  0  0  0  0  0
   10.3895  -16.7247   22.4597 C   0  0  1  0  0  0  0  0  0  0  0  0
   11.2809  -17.9012   22.3107 C   0  0  0  0  0  0  0  0  0  0  0  0
   11.1385  -18.6817   21.0660 C   0  0  0  0  0  0  0  0  0  0  0  0
   11.7856  -18.5254   20.0186 O   0  0  0  0  0  0  0  0  0  0  0  0
   10.3448  -16.0930   23.7759 C   0  0  0  0  0  0  0  0  0  0  0  0
   11.2737  -15.3040   24.1390 O   0  0  0  0  0  0  0  0  0  0  0  0
   10.1756  -19.6963   21.0791 O   0  0  0  0  0  0  0  0  0  0  0  0
    6.1554  -11.5144   25.6604 C   0  0  0  0  0  0  0  0  0  0  0  0
    6.2854  -13.1565   26.3739 S   0  0  0  0  0  0  0  0  0  0  0  0
    7.9017  -13.8798   25.8654 C   0  0  0  0  0  0  0  0  0  0  0  0
    8.0790  -15.2206   26.5163 C   0  0  0  0  0  0  0  0  0  0  0  0
    9.3621  -15.8552   26.1098 C   0  0  2  0  0  0  0  0  0  0  0  0
    9.3033  -16.3017   24.7129 N   0  0  0  0  0  0  0  0  0  0  0  0
    9.8292  -16.8923   26.9964 C   0  0  0  0  0  0  0  0  0  0  0  0
   10.0277  -18.1862   26.6092 O   0  0  0  0  0  0  0  0  0  0  0  0
   10.0724  -16.5970   28.2156 O   0  0  0  0  0  0  0  0  0  0  0  0
  2  1  1  0
  2  3  2  0
  4  5  1  0
  4  2  1  0
  6  7  1  6
  6  5  1  0
  8  6  1  0
  8 10  1  0
  9  8  2  0
 11 10  1  0
 11 12  1  6
 13 14  2  0
 13 12  1  0
 15 11  1  0
 16 15  2  0
 17 13  1  0
 18 19  1  0
 20 21  1  0
 20 19  1  0
 22 21  1  1
 22 24  1  0
 22 23  1  0
 23 15  1  0
 24 25  1  0
 26 24  2  0
M  END
$$$$
