QDM.pdb
     RDKit          3D

 26 25  0  0  1  0  0  0  0  0999 V2000
    8.7285  -12.8794   17.8463 N   0  0  0  0  0  0  0  0  0  0  0  0
    8.2995  -14.0706   17.2230 C   0  0  0  0  0  0  0  0  0  0  0  0
    8.7539  -14.4115   16.1208 O   0  0  0  0  0  0  0  0  0  0  0  0
    7.2708  -14.9598   17.8909 C   0  0  0  0  0  0  0  0  0  0  0  0
    6.8421  -14.3558   19.1914 C   0  0  0  0  0  0  0  0  0  0  0  0
    6.8115  -15.1449   20.4005 C   0  0  2  0  0  0  0  0  0  0  0  0
    6.5112  -14.1657   21.5289 N   0  0  0  0  0  0  0  0  0  0  0  0
    7.9303  -15.9238   20.9074 C   0  0  0  0  0  0  0  0  0  0  0  0
    7.5861  -17.1219   21.2956 O   0  0  0  0  0  0  0  0  0  0  0  0
    9.2810  -15.6319   21.0598 N   0  0  0  0  0  0  0  0  0  0  0  0
   10.3017  -16.2344   21.8671 C   0  0  1  0  0  0  0  0  0  0  0  0
   11.6619  -16.4057   21.3002 C   0  0  0  0  0  0  0  0  0  0  0  0
   11.7482  -17.0701   19.9849 C   0  0  0  0  0  0  0  0  0  0  0  0
   11.1898  -18.1279   19.6543 O   0  0  0  0  0  0  0  0  0  0  0  0
   10.2150  -15.9144   23.2896 C   0  0  0  0  0  0  0  0  0  0  0  0
   10.9708  -15.0240   23.7926 O   0  0  0  0  0  0  0  0  0  0  0  0
   12.5406  -16.4357   19.0224 O   0  0  0  0  0  0  0  0  0  0  0  0
    6.5717  -12.2397   28.2094 C   0  0  0  0  0  0  0  0  0  0  0  0
    7.0747  -12.8474   26.5970 S   0  0  0  0  0  0  0  0  0  0  0  0
    7.2036  -14.6830   26.6871 C   0  0  0  0  0  0  0  0  0  0  0  0
    7.6479  -15.2212   25.3583 C   0  0  0  0  0  0  0  0  0  0  0  0
    8.9224  -15.9797   25.4792 C   0  0  2  0  0  0  0  0  0  0  0  0
    9.3166  -16.5464   24.1839 N   0  0  0  0  0  0  0  0  0  0  0  0
    8.9414  -16.9622   26.5347 C   0  0  0  0  0  0  0  0  0  0  0  0
    9.1204  -16.6538   27.8525 O   0  0  0  0  0  0  0  0  0  0  0  0
    8.7852  -18.1939   26.2326 O   0  0  0  0  0  0  0  0  0  0  0  0
  2  1  1  0
  2  3  2  0
  4  5  1  0
  4  2  1  0
  6  7  1  1
  6  5  1  0
  8  6  1  0
  8 10  1  0
  9  8  2  0
 11 10  1  0
 11 12  1  6
 13 14  2  0
 13 12  1  0
 15 11  1  0
 16 15  2  0
 17 13  1  0
 18 19  1  0
 20 21  1  0
 20 19  1  0
 22 21  1  6
 22 24  1  0
 22 23  1  0
 23 15  1  0
 24 25  1  0
 26 24  2  0
M  END
$$$$
