QDM.pdb
     RDKit          3D

 26 25  0  0  1  0  0  0  0  0999 V2000
    7.8501  -15.3877   16.8558 N   0  0  0  0  0  0  0  0  0  0  0  0
    7.8384  -14.0205   16.5064 C   0  0  0  0  0  0  0  0  0  0  0  0
    7.9086  -13.6660   15.3202 O   0  0  0  0  0  0  0  0  0  0  0  0
    7.7400  -12.9544   17.5782 C   0  0  0  0  0  0  0  0  0  0  0  0
    7.6742  -13.5944   18.9294 C   0  0  0  0  0  0  0  0  0  0  0  0
    8.8743  -13.8269   19.6984 C   0  0  2  0  0  0  0  0  0  0  0  0
    9.9144  -14.3299   18.7045 N   0  0  0  0  0  0  0  0  0  0  0  0
    8.9766  -14.7613   20.8082 C   0  0  0  0  0  0  0  0  0  0  0  0
    8.1194  -14.5188   21.7626 O   0  0  0  0  0  0  0  0  0  0  0  0
    9.8113  -15.8481   21.0426 N   0  0  0  0  0  0  0  0  0  0  0  0
   10.0022  -16.6717   22.2009 C   0  0  1  0  0  0  0  0  0  0  0  0
   10.7609  -17.9395   22.0671 C   0  0  0  0  0  0  0  0  0  0  0  0
   10.8741  -18.4985   20.7056 C   0  0  0  0  0  0  0  0  0  0  0  0
    9.9388  -18.7376   19.9258 O   0  0  0  0  0  0  0  0  0  0  0  0
   10.1695  -15.9309   23.4485 C   0  0  0  0  0  0  0  0  0  0  0  0
   11.2288  -15.2589   23.6568 O   0  0  0  0  0  0  0  0  0  0  0  0
   12.1690  -18.7833   20.2598 O   0  0  0  0  0  0  0  0  0  0  0  0
    5.6544  -12.4791   27.0525 C   0  0  0  0  0  0  0  0  0  0  0  0
    7.3531  -11.9181   27.2009 S   0  0  0  0  0  0  0  0  0  0  0  0
    8.4517  -13.3970   27.1901 C   0  0  0  0  0  0  0  0  0  0  0  0
    8.3955  -14.0546   25.8421 C   0  0  0  0  0  0  0  0  0  0  0  0
    9.3747  -15.1706   25.7420 C   0  0  2  0  0  0  0  0  0  0  0  0
    9.2018  -15.9044   24.4826 N   0  0  0  0  0  0  0  0  0  0  0  0
    9.4080  -16.0479   26.8861 C   0  0  0  0  0  0  0  0  0  0  0  0
    9.1686  -17.3901   26.8177 O   0  0  0  0  0  0  0  0  0  0  0  0
    9.6730  -15.5533   28.0341 O   0  0  0  0  0  0  0  0  0  0  0  0
  2  1  1  0
  2  3  2  0
  4  5  1  0
  4  2  1  0
  6  7  1  6
  6  5  1  0
  8  6  1  0
  8 10  1  0
  9  8  2  0
 11 10  1  0
 11 12  1  6
 13 14  2  0
 13 12  1  0
 15 11  1  0
 16 15  2  0
 17 13  1  0
 18 19  1  0
 20 21  1  0
 20 19  1  0
 22 21  1  1
 22 24  1  0
 22 23  1  0
 23 15  1  0
 24 25  1  0
 26 24  2  0
M  END
$$$$
