QDM.pdb
     RDKit          3D

 26 25  0  0  1  0  0  0  0  0999 V2000
    7.9388  -13.3001   15.2754 N   0  0  0  0  0  0  0  0  0  0  0  0
    7.4598  -13.8357   16.4900 C   0  0  0  0  0  0  0  0  0  0  0  0
    7.2594  -15.0531   16.6138 O   0  0  0  0  0  0  0  0  0  0  0  0
    7.1795  -12.9299   17.6716 C   0  0  0  0  0  0  0  0  0  0  0  0
    7.2485  -13.7153   18.9437 C   0  0  0  0  0  0  0  0  0  0  0  0
    8.5080  -13.9223   19.6193 C   0  0  2  0  0  0  0  0  0  0  0  0
    9.4699  -14.4401   18.5567 N   0  0  0  0  0  0  0  0  0  0  0  0
    8.7064  -14.8311   20.7373 C   0  0  0  0  0  0  0  0  0  0  0  0
    7.8514  -14.6454   21.7062 O   0  0  0  0  0  0  0  0  0  0  0  0
    9.6299  -15.8447   20.9668 N   0  0  0  0  0  0  0  0  0  0  0  0
    9.7473  -16.8064   22.0241 C   0  0  1  0  0  0  0  0  0  0  0  0
   10.4846  -18.0689   21.7718 C   0  0  0  0  0  0  0  0  0  0  0  0
   10.1003  -18.8257   20.5643 C   0  0  0  0  0  0  0  0  0  0  0  0
   10.8650  -19.2433   19.6805 O   0  0  0  0  0  0  0  0  0  0  0  0
    9.8698  -16.2259   23.3587 C   0  0  0  0  0  0  0  0  0  0  0  0
   10.9557  -15.6697   23.7175 O   0  0  0  0  0  0  0  0  0  0  0  0
    8.7361  -19.0938   20.4105 O   0  0  0  0  0  0  0  0  0  0  0  0
    6.8785  -10.7896   26.3332 C   0  0  0  0  0  0  0  0  0  0  0  0
    6.5312  -12.5449   26.4770 S   0  0  0  0  0  0  0  0  0  0  0  0
    8.0326  -13.4746   25.9516 C   0  0  0  0  0  0  0  0  0  0  0  0
    7.7892  -14.9480   26.1021 C   0  0  0  0  0  0  0  0  0  0  0  0
    8.9808  -15.7391   25.6916 C   0  0  2  0  0  0  0  0  0  0  0  0
    8.8287  -16.2364   24.3191 N   0  0  0  0  0  0  0  0  0  0  0  0
    9.3584  -16.7825   26.6128 C   0  0  0  0  0  0  0  0  0  0  0  0
    9.9866  -16.5507   27.8024 O   0  0  0  0  0  0  0  0  0  0  0  0
    9.0979  -17.9961   26.3093 O   0  0  0  0  0  0  0  0  0  0  0  0
  2  1  1  0
  2  3  2  0
  4  5  1  0
  4  2  1  0
  6  7  1  6
  6  5  1  0
  8  6  1  0
  8 10  1  0
  9  8  2  0
 11 10  1  0
 11 12  1  6
 13 14  2  0
 13 12  1  0
 15 11  1  0
 16 15  2  0
 17 13  1  0
 18 19  1  0
 20 21  1  0
 20 19  1  0
 22 21  1  1
 22 24  1  0
 22 23  1  0
 23 15  1  0
 24 25  1  0
 26 24  2  0
M  END
$$$$
