QDM.pdb
     RDKit          3D

 26 25  0  0  1  0  0  0  0  0999 V2000
    7.0759  -12.9207   15.6321 N   0  0  0  0  0  0  0  0  0  0  0  0
    7.8792  -14.0591   15.8560 C   0  0  0  0  0  0  0  0  0  0  0  0
    8.4786  -14.6092   14.9203 O   0  0  0  0  0  0  0  0  0  0  0  0
    8.0253  -14.6343   17.2499 C   0  0  0  0  0  0  0  0  0  0  0  0
    8.8554  -13.7192   18.0946 C   0  0  0  0  0  0  0  0  0  0  0  0
    9.7866  -14.2471   19.0641 C   0  0  2  0  0  0  0  0  0  0  0  0
   10.7510  -15.1274   18.2783 N   0  0  0  0  0  0  0  0  0  0  0  0
    9.4150  -15.0722   20.2027 C   0  0  0  0  0  0  0  0  0  0  0  0
    8.5249  -14.5093   20.9743 O   0  0  0  0  0  0  0  0  0  0  0  0
    9.8304  -16.3312   20.6212 N   0  0  0  0  0  0  0  0  0  0  0  0
    9.4800  -17.1191   21.7671 C   0  0  1  0  0  0  0  0  0  0  0  0
    9.7926  -18.5693   21.7680 C   0  0  0  0  0  0  0  0  0  0  0  0
    9.2904  -19.3518   20.6216 C   0  0  0  0  0  0  0  0  0  0  0  0
    9.9291  -19.6636   19.6042 O   0  0  0  0  0  0  0  0  0  0  0  0
    9.5990  -16.4174   23.0426 C   0  0  0  0  0  0  0  0  0  0  0  0
   10.7437  -16.2189   23.5595 O   0  0  0  0  0  0  0  0  0  0  0  0
    7.9610  -19.7797   20.6999 O   0  0  0  0  0  0  0  0  0  0  0  0
    6.3582  -10.8905   27.5873 C   0  0  0  0  0  0  0  0  0  0  0  0
    6.0961  -12.0916   26.2792 S   0  0  0  0  0  0  0  0  0  0  0  0
    7.5693  -13.1956   26.2067 C   0  0  0  0  0  0  0  0  0  0  0  0
    7.4422  -14.1264   25.0361 C   0  0  0  0  0  0  0  0  0  0  0  0
    8.6133  -15.0394   24.9397 C   0  0  2  0  0  0  0  0  0  0  0  0
    8.4913  -15.9224   23.7736 N   0  0  0  0  0  0  0  0  0  0  0  0
    8.9112  -15.7675   26.1484 C   0  0  0  0  0  0  0  0  0  0  0  0
    9.7243  -15.2928   27.1369 O   0  0  0  0  0  0  0  0  0  0  0  0
    8.3931  -16.9237   26.3146 O   0  0  0  0  0  0  0  0  0  0  0  0
  2  1  1  0
  2  3  2  0
  4  5  1  0
  4  2  1  0
  6  7  1  6
  6  5  1  0
  8  6  1  0
  8 10  1  0
  9  8  2  0
 11 10  1  0
 11 12  1  1
 13 14  2  0
 13 12  1  0
 15 11  1  0
 16 15  2  0
 17 13  1  0
 18 19  1  0
 20 21  1  0
 20 19  1  0
 22 21  1  1
 22 24  1  0
 22 23  1  0
 23 15  1  0
 24 25  1  0
 26 24  2  0
M  END
$$$$
