QDM.pdb
     RDKit          3D

 26 25  0  0  1  0  0  0  0  0999 V2000
    5.8383  -16.9037   18.2594 N   0  0  0  0  0  0  0  0  0  0  0  0
    6.3458  -18.2198   18.2170 C   0  0  0  0  0  0  0  0  0  0  0  0
    6.1292  -18.9544   17.2418 O   0  0  0  0  0  0  0  0  0  0  0  0
    7.1685  -18.7636   19.3670 C   0  0  0  0  0  0  0  0  0  0  0  0
    7.0738  -17.8417   20.5422 C   0  0  0  0  0  0  0  0  0  0  0  0
    8.0872  -16.8413   20.7826 C   0  0  2  0  0  0  0  0  0  0  0  0
    9.0397  -16.9202   19.5956 N   0  0  0  0  0  0  0  0  0  0  0  0
    8.9730  -16.8229   21.9360 C   0  0  0  0  0  0  0  0  0  0  0  0
    8.3351  -16.8929   23.0729 O   0  0  0  0  0  0  0  0  0  0  0  0
   10.3559  -16.7394   22.0525 N   0  0  0  0  0  0  0  0  0  0  0  0
   11.2152  -16.6931   23.1996 C   0  0  1  0  0  0  0  0  0  0  0  0
   12.6828  -16.7902   23.0056 C   0  0  0  0  0  0  0  0  0  0  0  0
   13.1448  -17.6438   21.8936 C   0  0  0  0  0  0  0  0  0  0  0  0
   13.7574  -17.2697   20.8811 O   0  0  0  0  0  0  0  0  0  0  0  0
   10.7476  -15.8167   24.2704 C   0  0  0  0  0  0  0  0  0  0  0  0
   10.9101  -14.5584   24.1845 O   0  0  0  0  0  0  0  0  0  0  0  0
   12.8588  -19.0088   22.0018 O   0  0  0  0  0  0  0  0  0  0  0  0
    7.2652  -11.6630   25.3776 C   0  0  0  0  0  0  0  0  0  0  0  0
    6.6740  -12.6510   26.7548 S   0  0  0  0  0  0  0  0  0  0  0  0
    8.0495  -13.7414   27.3145 C   0  0  0  0  0  0  0  0  0  0  0  0
    8.5880  -14.5115   26.1441 C   0  0  0  0  0  0  0  0  0  0  0  0
    9.7006  -15.4113   26.5528 C   0  0  2  0  0  0  0  0  0  0  0  0
   10.1013  -16.2825   25.4416 N   0  0  0  0  0  0  0  0  0  0  0  0
    9.4632  -16.1497   27.7686 C   0  0  0  0  0  0  0  0  0  0  0  0
    9.3809  -15.5703   29.0020 O   0  0  0  0  0  0  0  0  0  0  0  0
    9.3224  -17.4179   27.7016 O   0  0  0  0  0  0  0  0  0  0  0  0
  2  1  1  0
  2  3  2  0
  4  5  1  0
  4  2  1  0
  6  7  1  6
  6  5  1  0
  8  6  1  0
  8 10  1  0
  9  8  2  0
 11 10  1  0
 11 12  1  6
 13 14  2  0
 13 12  1  0
 15 11  1  0
 16 15  2  0
 17 13  1  0
 18 19  1  0
 20 21  1  0
 20 19  1  0
 22 21  1  6
 22 24  1  0
 22 23  1  0
 23 15  1  0
 24 25  1  0
 26 24  2  0
M  END
$$$$
