DFR.pdb
     RDKit          3D

 31 31  0  0  1  0  0  0  0  0999 V2000
   10.1851  -15.7883   19.3608 N   0  0  0  0  0  0  0  0  0  0  0  0
    9.9481  -16.7349   20.4319 C   0  0  1  0  0  0  0  0  0  0  0  0
   11.1642  -17.6541   20.4848 C   0  0  0  0  0  0  0  0  0  0  0  0
   11.4241  -18.2520   19.1541 C   0  0  0  0  0  0  0  0  0  0  0  0
   12.1703  -19.2391   18.9748 O   0  0  0  0  0  0  0  0  0  0  0  0
    9.7659  -15.9980   21.6884 C   0  0  0  0  0  0  0  0  0  0  0  0
   10.7662  -15.7985   22.4540 O   0  0  0  0  0  0  0  0  0  0  0  0
   10.8087  -17.6853   18.0645 O   0  0  0  0  0  0  0  0  0  0  0  0
    8.5391  -15.4716   22.1412 N   0  0  0  0  0  0  0  0  0  0  0  0
    8.4119  -14.8155   23.3902 C   0  0  1  0  0  0  0  0  0  0  0  0
    7.1200  -14.0649   23.5722 C   0  0  0  0  0  0  0  0  0  0  0  0
    7.0065  -13.4003   24.8783 C   0  0  0  0  0  0  0  0  0  0  0  0
    7.6911  -12.1931   25.0255 C   0  0  0  0  0  0  0  0  0  0  0  0
    7.6733  -11.4687   26.1786 C   0  0  0  0  0  0  0  0  0  0  0  0
    6.9578  -11.9303   27.2498 C   0  0  0  0  0  0  0  0  0  0  0  0
    6.2685  -13.1254   27.1330 C   0  0  0  0  0  0  0  0  0  0  0  0
    6.2936  -13.8576   25.9497 C   0  0  0  0  0  0  0  0  0  0  0  0
    8.5775  -15.7039   24.5574 C   0  0  0  0  0  0  0  0  0  0  0  0
    7.9384  -16.8041   24.5849 O   0  0  0  0  0  0  0  0  0  0  0  0
   13.3327  -20.8005   27.1864 N   0  0  0  0  0  0  0  0  0  0  0  0
   12.7947  -21.2701   25.9570 C   0  0  0  0  0  0  0  0  0  0  0  0
   12.7143  -22.5241   25.7642 N   0  0  0  0  0  0  0  0  0  0  0  0
   12.3470  -20.3895   24.9432 N   0  0  0  0  0  0  0  0  0  0  0  0
   12.4352  -18.9664   25.1782 C   0  0  0  0  0  0  0  0  0  0  0  0
   11.1217  -18.4553   25.7816 C   0  0  0  0  0  0  0  0  0  0  0  0
   11.2202  -16.9934   26.1022 C   0  0  0  0  0  0  0  0  0  0  0  0
    9.8976  -16.4785   26.5731 C   0  0  2  0  0  0  0  0  0  0  0  0
    9.4001  -15.4362   25.6714 N   0  0  0  0  0  0  0  0  0  0  0  0
    9.9837  -15.9197   27.9247 C   0  0  0  0  0  0  0  0  0  0  0  0
   10.3133  -16.5265   28.9639 O   0  0  0  0  0  0  0  0  0  0  0  0
    9.6686  -14.5600   28.1001 O   0  0  0  0  0  0  0  0  0  0  0  0
  2  1  1  6
  2  3  1  0
  3  4  1  0
  4  8  1  0
  5  4  2  0
  6  2  1  0
  6  7  2  0
  9  6  1  0
 10  9  1  0
 10 11  1  6
 11 12  1  0
 12 13  2  0
 12 17  1  0
 13 14  1  0
 14 15  2  0
 16 15  1  0
 17 16  2  0
 18 10  1  0
 19 18  2  0
 20 21  1  0
 21 22  2  0
 21 23  1  0
 24 23  1  0
 24 25  1  0
 25 26  1  0
 27 26  1  6
 27 29  1  0
 27 28  1  0
 28 18  1  0
 29 31  1  0
 30 29  2  0
M  END
$$$$
