DFR.pdb
     RDKit          3D

 31 31  0  0  1  0  0  0  0  0999 V2000
    9.7989  -16.0316   18.8398 N   0  0  0  0  0  0  0  0  0  0  0  0
    8.7080  -16.4469   19.6982 C   0  0  1  0  0  0  0  0  0  0  0  0
    8.7815  -17.9670   19.8001 C   0  0  0  0  0  0  0  0  0  0  0  0
    8.7319  -18.5829   18.4533 C   0  0  0  0  0  0  0  0  0  0  0  0
    8.0017  -18.1634   17.5289 O   0  0  0  0  0  0  0  0  0  0  0  0
    8.8608  -15.8039   21.0090 C   0  0  0  0  0  0  0  0  0  0  0  0
    9.9385  -15.9683   21.6708 O   0  0  0  0  0  0  0  0  0  0  0  0
    9.5336  -19.6728   18.2158 O   0  0  0  0  0  0  0  0  0  0  0  0
    7.8873  -14.9911   21.6243 N   0  0  0  0  0  0  0  0  0  0  0  0
    8.0488  -14.4766   22.9342 C   0  0  1  0  0  0  0  0  0  0  0  0
    7.0164  -13.4578   23.3363 C   0  0  0  0  0  0  0  0  0  0  0  0
    7.1567  -12.9967   24.7249 C   0  0  0  0  0  0  0  0  0  0  0  0
    6.1635  -13.3990   25.6191 C   0  0  0  0  0  0  0  0  0  0  0  0
    6.1670  -13.0480   26.9350 C   0  0  0  0  0  0  0  0  0  0  0  0
    7.1814  -12.2670   27.4183 C   0  0  0  0  0  0  0  0  0  0  0  0
    8.1807  -11.8526   26.5542 C   0  0  0  0  0  0  0  0  0  0  0  0
    8.1673  -12.2173   25.2112 C   0  0  0  0  0  0  0  0  0  0  0  0
    8.0864  -15.5102   23.9874 C   0  0  0  0  0  0  0  0  0  0  0  0
    7.1663  -16.3889   24.0159 O   0  0  0  0  0  0  0  0  0  0  0  0
   14.2616  -19.2543   25.4823 N   0  0  0  0  0  0  0  0  0  0  0  0
   13.6410  -20.5219   25.6549 C   0  0  0  0  0  0  0  0  0  0  0  0
   14.2829  -21.4401   26.2558 N   0  0  0  0  0  0  0  0  0  0  0  0
   12.3356  -20.7945   25.1804 N   0  0  0  0  0  0  0  0  0  0  0  0
   11.6525  -19.7744   24.4180 C   0  0  0  0  0  0  0  0  0  0  0  0
   10.7253  -18.9701   25.3367 C   0  0  0  0  0  0  0  0  0  0  0  0
   10.3645  -17.6577   24.7066 C   0  0  0  0  0  0  0  0  0  0  0  0
    9.4597  -16.8830   25.6107 C   0  0  2  0  0  0  0  0  0  0  0  0
    9.0742  -15.6135   24.9889 N   0  0  0  0  0  0  0  0  0  0  0  0
   10.0975  -16.5940   26.8976 C   0  0  0  0  0  0  0  0  0  0  0  0
   10.7132  -15.5544   27.2090 O   0  0  0  0  0  0  0  0  0  0  0  0
   10.0244  -17.5711   27.9069 O   0  0  0  0  0  0  0  0  0  0  0  0
  2  1  1  6
  2  3  1  0
  3  4  1  0
  4  8  1  0
  5  4  2  0
  6  2  1  0
  6  7  2  0
  9  6  1  0
 10  9  1  0
 10 11  1  1
 11 12  1  0
 12 13  2  0
 12 17  1  0
 13 14  1  0
 14 15  2  0
 16 15  1  0
 17 16  2  0
 18 10  1  0
 19 18  2  0
 20 21  1  0
 21 22  2  0
 21 23  1  0
 24 23  1  0
 24 25  1  0
 25 26  1  0
 27 26  1  6
 27 29  1  0
 27 28  1  0
 28 18  1  0
 29 31  1  0
 30 29  2  0
M  END
$$$$
