DFR.pdb
     RDKit          3D

 31 31  0  0  1  0  0  0  0  0999 V2000
    7.6396  -17.6921   20.3456 N   0  0  0  0  0  0  0  0  0  0  0  0
    9.0261  -17.3123   20.5263 C   0  0  1  0  0  0  0  0  0  0  0  0
    9.4936  -16.7092   19.2057 C   0  0  0  0  0  0  0  0  0  0  0  0
    9.6451  -17.7635   18.1756 C   0  0  0  0  0  0  0  0  0  0  0  0
    9.3781  -18.9684   18.3767 O   0  0  0  0  0  0  0  0  0  0  0  0
    9.1169  -16.3479   21.6294 C   0  0  0  0  0  0  0  0  0  0  0  0
   10.2289  -15.7741   21.8762 O   0  0  0  0  0  0  0  0  0  0  0  0
   10.1045  -17.3890   16.9363 O   0  0  0  0  0  0  0  0  0  0  0  0
    8.0458  -15.9858   22.4712 N   0  0  0  0  0  0  0  0  0  0  0  0
    8.2185  -15.1411   23.5951 C   0  0  1  0  0  0  0  0  0  0  0  0
    7.0116  -14.3120   23.9440 C   0  0  0  0  0  0  0  0  0  0  0  0
    7.2363  -13.3933   25.0691 C   0  0  0  0  0  0  0  0  0  0  0  0
    6.7348  -13.7914   26.3092 C   0  0  0  0  0  0  0  0  0  0  0  0
    6.8715  -13.0411   27.4376 C   0  0  0  0  0  0  0  0  0  0  0  0
    7.5264  -11.8415   27.3703 C   0  0  0  0  0  0  0  0  0  0  0  0
    8.0345  -11.4205   26.1531 C   0  0  0  0  0  0  0  0  0  0  0  0
    7.8891  -12.1953   25.0062 C   0  0  0  0  0  0  0  0  0  0  0  0
    8.6414  -15.8471   24.8205 C   0  0  0  0  0  0  0  0  0  0  0  0
    7.8460  -16.6894   25.3472 O   0  0  0  0  0  0  0  0  0  0  0  0
   14.4359  -19.2605   23.3354 N   0  0  0  0  0  0  0  0  0  0  0  0
   14.1251  -18.0147   22.7245 C   0  0  0  0  0  0  0  0  0  0  0  0
   13.8005  -18.0007   21.4954 N   0  0  0  0  0  0  0  0  0  0  0  0
   14.1653  -16.7929   23.4380 N   0  0  0  0  0  0  0  0  0  0  0  0
   13.7891  -16.7969   24.8333 C   0  0  0  0  0  0  0  0  0  0  0  0
   12.2650  -16.6923   24.9626 C   0  0  0  0  0  0  0  0  0  0  0  0
   11.8511  -16.7482   26.4032 C   0  0  0  0  0  0  0  0  0  0  0  0
   10.3716  -16.5662   26.5220 C   0  0  2  0  0  0  0  0  0  0  0  0
    9.8776  -15.6676   25.4754 N   0  0  0  0  0  0  0  0  0  0  0  0
    9.9969  -16.0107   27.8248 C   0  0  0  0  0  0  0  0  0  0  0  0
    9.5259  -14.8766   28.0454 O   0  0  0  0  0  0  0  0  0  0  0  0
   10.1749  -16.8166   28.9640 O   0  0  0  0  0  0  0  0  0  0  0  0
  2  1  1  6
  2  3  1  0
  3  4  1  0
  4  8  1  0
  5  4  2  0
  6  2  1  0
  6  7  2  0
  9  6  1  0
 10  9  1  0
 10 11  1  1
 11 12  1  0
 12 13  2  0
 12 17  1  0
 13 14  1  0
 14 15  2  0
 16 15  1  0
 17 16  2  0
 18 10  1  0
 19 18  2  0
 20 21  1  0
 21 22  2  0
 21 23  1  0
 24 23  1  0
 24 25  1  0
 25 26  1  0
 27 26  1  1
 27 29  1  0
 27 28  1  0
 28 18  1  0
 29 31  1  0
 30 29  2  0
M  END
$$$$
