DFR.pdb
     RDKit          3D

 31 31  0  0  1  0  0  0  0  0999 V2000
    8.7330  -18.3449   18.2056 N   0  0  0  0  0  0  0  0  0  0  0  0
    9.9818  -17.6997   18.5571 C   0  0  1  0  0  0  0  0  0  0  0  0
   10.2944  -16.7072   17.4419 C   0  0  0  0  0  0  0  0  0  0  0  0
    9.7916  -17.2089   16.1415 C   0  0  0  0  0  0  0  0  0  0  0  0
   10.0587  -16.6716   15.0444 O   0  0  0  0  0  0  0  0  0  0  0  0
    9.8249  -17.0312   19.8546 C   0  0  0  0  0  0  0  0  0  0  0  0
   10.8010  -16.3761   20.3493 O   0  0  0  0  0  0  0  0  0  0  0  0
    8.9893  -18.3240   16.1503 O   0  0  0  0  0  0  0  0  0  0  0  0
    8.6487  -17.0491   20.6314 N   0  0  0  0  0  0  0  0  0  0  0  0
    8.5766  -16.4433   21.9098 C   0  0  1  0  0  0  0  0  0  0  0  0
    7.2786  -15.7357   22.1929 C   0  0  0  0  0  0  0  0  0  0  0  0
    7.2926  -14.3135   21.8218 C   0  0  0  0  0  0  0  0  0  0  0  0
    7.3473  -13.3955   22.8714 C   0  0  0  0  0  0  0  0  0  0  0  0
    7.3680  -12.0479   22.6750 C   0  0  0  0  0  0  0  0  0  0  0  0
    7.3341  -11.5555   21.3988 C   0  0  0  0  0  0  0  0  0  0  0  0
    7.2794  -12.4427   20.3372 C   0  0  0  0  0  0  0  0  0  0  0  0
    7.2588  -13.8180   20.5495 C   0  0  0  0  0  0  0  0  0  0  0  0
    8.8310  -17.3693   23.0308 C   0  0  0  0  0  0  0  0  0  0  0  0
    8.1644  -18.4516   23.0943 O   0  0  0  0  0  0  0  0  0  0  0  0
   16.9254  -19.4050   22.6024 N   0  0  0  0  0  0  0  0  0  0  0  0
   16.3380  -20.4430   23.3765 C   0  0  0  0  0  0  0  0  0  0  0  0
   17.0101  -21.5005   23.5914 N   0  0  0  0  0  0  0  0  0  0  0  0
   15.0328  -20.3378   23.9141 N   0  0  0  0  0  0  0  0  0  0  0  0
   14.2141  -19.2138   23.5210 C   0  0  0  0  0  0  0  0  0  0  0  0
   12.8814  -19.2495   24.2782 C   0  0  0  0  0  0  0  0  0  0  0  0
   11.9817  -18.1410   23.8183 C   0  0  0  0  0  0  0  0  0  0  0  0
   10.6786  -18.1976   24.5496 C   0  0  2  0  0  0  0  0  0  0  0  0
    9.7691  -17.1571   24.0625 N   0  0  0  0  0  0  0  0  0  0  0  0
   10.8586  -18.0176   25.9923 C   0  0  0  0  0  0  0  0  0  0  0  0
   10.5273  -17.0221   26.6676 O   0  0  0  0  0  0  0  0  0  0  0  0
   11.4646  -19.0587   26.7188 O   0  0  0  0  0  0  0  0  0  0  0  0
  2  1  1  6
  2  3  1  0
  3  4  1  0
  4  8  1  0
  5  4  2  0
  6  2  1  0
  6  7  2  0
  9  6  1  0
 10  9  1  0
 10 11  1  1
 11 12  1  0
 12 13  2  0
 12 17  1  0
 13 14  1  0
 14 15  2  0
 16 15  1  0
 17 16  2  0
 18 10  1  0
 19 18  2  0
 20 21  1  0
 21 22  2  0
 21 23  1  0
 24 23  1  0
 24 25  1  0
 25 26  1  0
 27 26  1  6
 27 29  1  0
 27 28  1  0
 28 18  1  0
 29 31  1  0
 30 29  2  0
M  END
$$$$
