DFR.pdb
     RDKit          3D

 31 31  0  0  1  0  0  0  0  0999 V2000
    7.8774  -17.6444   20.0467 N   0  0  0  0  0  0  0  0  0  0  0  0
    9.2107  -17.0973   20.1964 C   0  0  1  0  0  0  0  0  0  0  0  0
    9.5732  -16.4488   18.8642 C   0  0  0  0  0  0  0  0  0  0  0  0
    9.4672  -17.4313   17.7601 C   0  0  0  0  0  0  0  0  0  0  0  0
   10.2260  -18.4178   17.6388 O   0  0  0  0  0  0  0  0  0  0  0  0
    9.2063  -16.1230   21.2944 C   0  0  0  0  0  0  0  0  0  0  0  0
   10.2713  -15.4777   21.5700 O   0  0  0  0  0  0  0  0  0  0  0  0
    8.4804  -17.2408   16.8237 O   0  0  0  0  0  0  0  0  0  0  0  0
    8.0892  -15.8258   22.1013 N   0  0  0  0  0  0  0  0  0  0  0  0
    8.1954  -15.0615   23.2892 C   0  0  1  0  0  0  0  0  0  0  0  0
    6.9476  -14.3050   23.6583 C   0  0  0  0  0  0  0  0  0  0  0  0
    7.1160  -13.4302   24.8274 C   0  0  0  0  0  0  0  0  0  0  0  0
    6.4027  -13.7787   25.9751 C   0  0  0  0  0  0  0  0  0  0  0  0
    6.4647  -13.0608   27.1308 C   0  0  0  0  0  0  0  0  0  0  0  0
    7.2563  -11.9460   27.1864 C   0  0  0  0  0  0  0  0  0  0  0  0
    7.9756  -11.5758   26.0628 C   0  0  0  0  0  0  0  0  0  0  0  0
    7.9048  -12.3168   24.8869 C   0  0  0  0  0  0  0  0  0  0  0  0
    8.6083  -15.8412   24.4727 C   0  0  0  0  0  0  0  0  0  0  0  0
    7.7649  -16.6259   25.0135 O   0  0  0  0  0  0  0  0  0  0  0  0
   15.2874  -18.3091   24.8708 N   0  0  0  0  0  0  0  0  0  0  0  0
   14.9477  -17.9055   23.5504 C   0  0  0  0  0  0  0  0  0  0  0  0
   15.5118  -18.4852   22.5698 N   0  0  0  0  0  0  0  0  0  0  0  0
   14.0046  -16.8818   23.2928 N   0  0  0  0  0  0  0  0  0  0  0  0
   13.3414  -16.2575   24.4148 C   0  0  0  0  0  0  0  0  0  0  0  0
   12.4485  -17.2800   25.1273 C   0  0  0  0  0  0  0  0  0  0  0  0
   11.7840  -16.6612   26.3212 C   0  0  0  0  0  0  0  0  0  0  0  0
   10.2981  -16.6881   26.1559 C   0  0  2  0  0  0  0  0  0  0  0  0
    9.8842  -15.7933   25.0720 N   0  0  0  0  0  0  0  0  0  0  0  0
    9.6090  -16.2799   27.3826 C   0  0  0  0  0  0  0  0  0  0  0  0
    8.7211  -16.9149   27.9869 O   0  0  0  0  0  0  0  0  0  0  0  0
    9.9645  -15.0488   27.9632 O   0  0  0  0  0  0  0  0  0  0  0  0
  2  1  1  6
  2  3  1  0
  3  4  1  0
  4  8  1  0
  5  4  2  0
  6  2  1  0
  6  7  2  0
  9  6  1  0
 10  9  1  0
 10 11  1  1
 11 12  1  0
 12 13  2  0
 12 17  1  0
 13 14  1  0
 14 15  2  0
 16 15  1  0
 17 16  2  0
 18 10  1  0
 19 18  2  0
 20 21  1  0
 21 22  2  0
 21 23  1  0
 24 23  1  0
 24 25  1  0
 25 26  1  0
 27 26  1  1
 27 29  1  0
 27 28  1  0
 28 18  1  0
 29 31  1  0
 30 29  2  0
M  END
$$$$
