DFR.pdb
     RDKit          3D

 31 31  0  0  1  0  0  0  0  0999 V2000
    8.9372  -16.3605   19.2325 N   0  0  0  0  0  0  0  0  0  0  0  0
    9.9743  -16.7823   20.1523 C   0  0  1  0  0  0  0  0  0  0  0  0
   11.3091  -16.5144   19.4646 C   0  0  0  0  0  0  0  0  0  0  0  0
   11.3542  -17.1744   18.1387 C   0  0  0  0  0  0  0  0  0  0  0  0
   11.3030  -16.5518   17.0555 O   0  0  0  0  0  0  0  0  0  0  0  0
    9.8418  -16.0229   21.4017 C   0  0  0  0  0  0  0  0  0  0  0  0
   10.8269  -15.9595   22.2092 O   0  0  0  0  0  0  0  0  0  0  0  0
   11.4574  -18.5439   18.1066 O   0  0  0  0  0  0  0  0  0  0  0  0
    8.6807  -15.3320   21.8035 N   0  0  0  0  0  0  0  0  0  0  0  0
    8.5352  -14.7882   23.1033 C   0  0  1  0  0  0  0  0  0  0  0  0
    7.3738  -13.8433   23.2582 C   0  0  0  0  0  0  0  0  0  0  0  0
    7.3123  -13.2005   24.5786 C   0  0  0  0  0  0  0  0  0  0  0  0
    6.2756  -13.6042   25.4211 C   0  0  0  0  0  0  0  0  0  0  0  0
    6.0983  -13.0952   26.6719 C   0  0  0  0  0  0  0  0  0  0  0  0
    6.9657  -12.1453   27.1387 C   0  0  0  0  0  0  0  0  0  0  0  0
    8.0039  -11.7252   26.3247 C   0  0  0  0  0  0  0  0  0  0  0  0
    8.1757  -12.2523   25.0482 C   0  0  0  0  0  0  0  0  0  0  0  0
    8.4291  -15.8009   24.1721 C   0  0  0  0  0  0  0  0  0  0  0  0
    7.4161  -16.5711   24.1873 O   0  0  0  0  0  0  0  0  0  0  0  0
   12.4573  -21.6963   29.2368 N   0  0  0  0  0  0  0  0  0  0  0  0
   12.4169  -20.3233   29.6040 C   0  0  0  0  0  0  0  0  0  0  0  0
   12.2074  -20.0219   30.8212 N   0  0  0  0  0  0  0  0  0  0  0  0
   12.6015  -19.2837   28.6612 N   0  0  0  0  0  0  0  0  0  0  0  0
   12.1349  -19.4889   27.3090 C   0  0  0  0  0  0  0  0  0  0  0  0
   10.7244  -18.9093   27.1505 C   0  0  0  0  0  0  0  0  0  0  0  0
   10.7512  -17.6788   26.2933 C   0  0  0  0  0  0  0  0  0  0  0  0
    9.3631  -17.1604   26.0918 C   0  0  2  0  0  0  0  0  0  0  0  0
    9.3724  -15.9960   25.2024 N   0  0  0  0  0  0  0  0  0  0  0  0
    8.7409  -16.7705   27.3595 C   0  0  0  0  0  0  0  0  0  0  0  0
    8.7955  -15.6493   27.9043 O   0  0  0  0  0  0  0  0  0  0  0  0
    7.9978  -17.7395   28.0578 O   0  0  0  0  0  0  0  0  0  0  0  0
  2  1  1  6
  2  3  1  0
  3  4  1  0
  4  8  1  0
  5  4  2  0
  6  2  1  0
  6  7  2  0
  9  6  1  0
 10  9  1  0
 10 11  1  6
 11 12  1  0
 12 13  2  0
 12 17  1  0
 13 14  1  0
 14 15  2  0
 16 15  1  0
 17 16  2  0
 18 10  1  0
 19 18  2  0
 20 21  1  0
 21 22  2  0
 21 23  1  0
 24 23  1  0
 24 25  1  0
 25 26  1  0
 27 26  1  1
 27 29  1  0
 27 28  1  0
 28 18  1  0
 29 31  1  0
 30 29  2  0
M  END
$$$$
