DFR.pdb
     RDKit          3D

 31 31  0  0  1  0  0  0  0  0999 V2000
    8.8681  -15.8820   19.0593 N   0  0  0  0  0  0  0  0  0  0  0  0
    8.4337  -16.7255   20.1544 C   0  0  1  0  0  0  0  0  0  0  0  0
    9.2605  -18.0050   20.0799 C   0  0  0  0  0  0  0  0  0  0  0  0
    9.1382  -18.6276   18.7408 C   0  0  0  0  0  0  0  0  0  0  0  0
    8.1686  -18.4336   17.9754 O   0  0  0  0  0  0  0  0  0  0  0  0
    8.6454  -16.0116   21.4196 C   0  0  0  0  0  0  0  0  0  0  0  0
    9.7712  -16.0986   22.0127 O   0  0  0  0  0  0  0  0  0  0  0  0
   10.1479  -19.4615   18.3259 O   0  0  0  0  0  0  0  0  0  0  0  0
    7.6805  -15.2091   22.0614 N   0  0  0  0  0  0  0  0  0  0  0  0
    7.9080  -14.6199   23.3293 C   0  0  1  0  0  0  0  0  0  0  0  0
    6.7824  -13.7525   23.8255 C   0  0  0  0  0  0  0  0  0  0  0  0
    7.0136  -13.2027   25.1689 C   0  0  0  0  0  0  0  0  0  0  0  0
    5.8822  -12.8101   25.8854 C   0  0  0  0  0  0  0  0  0  0  0  0
    5.9469  -12.2864   27.1409 C   0  0  0  0  0  0  0  0  0  0  0  0
    7.1669  -12.1314   27.7411 C   0  0  0  0  0  0  0  0  0  0  0  0
    8.3071  -12.5121   27.0541 C   0  0  0  0  0  0  0  0  0  0  0  0
    8.2293  -13.0463   25.7713 C   0  0  0  0  0  0  0  0  0  0  0  0
    8.2250  -15.5893   24.3963 C   0  0  0  0  0  0  0  0  0  0  0  0
    7.3472  -16.4520   24.7203 O   0  0  0  0  0  0  0  0  0  0  0  0
   15.1197  -19.0580   23.8613 N   0  0  0  0  0  0  0  0  0  0  0  0
   14.9385  -19.7227   25.1051 C   0  0  0  0  0  0  0  0  0  0  0  0
   15.9560  -20.2075   25.6931 N   0  0  0  0  0  0  0  0  0  0  0  0
   13.6656  -19.8622   25.7083 N   0  0  0  0  0  0  0  0  0  0  0  0
   12.4955  -19.5067   24.9384 C   0  0  0  0  0  0  0  0  0  0  0  0
   11.5289  -18.6913   25.8053 C   0  0  0  0  0  0  0  0  0  0  0  0
   11.0249  -17.4951   25.0540 C   0  0  0  0  0  0  0  0  0  0  0  0
    9.9091  -16.8451   25.8081 C   0  0  2  0  0  0  0  0  0  0  0  0
    9.4426  -15.6466   25.1060 N   0  0  0  0  0  0  0  0  0  0  0  0
   10.3213  -16.4593   27.1600 C   0  0  0  0  0  0  0  0  0  0  0  0
   10.5113  -15.3000   27.5804 O   0  0  0  0  0  0  0  0  0  0  0  0
   10.5318  -17.4803   28.1045 O   0  0  0  0  0  0  0  0  0  0  0  0
  2  1  1  6
  2  3  1  0
  3  4  1  0
  4  8  1  0
  5  4  2  0
  6  2  1  0
  6  7  2  0
  9  6  1  0
 10  9  1  0
 10 11  1  1
 11 12  1  0
 12 13  2  0
 12 17  1  0
 13 14  1  0
 14 15  2  0
 16 15  1  0
 17 16  2  0
 18 10  1  0
 19 18  2  0
 20 21  1  0
 21 22  2  0
 21 23  1  0
 24 23  1  0
 24 25  1  0
 25 26  1  0
 27 26  1  6
 27 29  1  0
 27 28  1  0
 28 18  1  0
 29 31  1  0
 30 29  2  0
M  END
$$$$
