DFR.pdb
     RDKit          3D

 31 31  0  0  1  0  0  0  0  0999 V2000
    6.3973  -15.1996   20.7186 N   0  0  0  0  0  0  0  0  0  0  0  0
    7.8197  -14.9664   20.5712 C   0  0  1  0  0  0  0  0  0  0  0  0
    7.9744  -13.6988   19.7372 C   0  0  0  0  0  0  0  0  0  0  0  0
    7.6641  -13.9699   18.3139 C   0  0  0  0  0  0  0  0  0  0  0  0
    7.2514  -15.0737   17.8956 O   0  0  0  0  0  0  0  0  0  0  0  0
    8.4198  -14.8204   21.9030 C   0  0  0  0  0  0  0  0  0  0  0  0
    9.6179  -14.3969   22.0124 O   0  0  0  0  0  0  0  0  0  0  0  0
    7.8423  -12.9490   17.4122 O   0  0  0  0  0  0  0  0  0  0  0  0
    7.7666  -15.1170   23.1164 N   0  0  0  0  0  0  0  0  0  0  0  0
    8.4632  -15.2210   24.3454 C   0  0  1  0  0  0  0  0  0  0  0  0
    7.5940  -15.0974   25.5679 C   0  0  0  0  0  0  0  0  0  0  0  0
    7.1794  -13.7169   25.8560 C   0  0  0  0  0  0  0  0  0  0  0  0
    8.1283  -12.8950   26.4655 C   0  0  0  0  0  0  0  0  0  0  0  0
    7.8826  -11.5947   26.7877 C   0  0  0  0  0  0  0  0  0  0  0  0
    6.6567  -11.0546   26.5087 C   0  0  0  0  0  0  0  0  0  0  0  0
    5.6951  -11.8465   25.9043 C   0  0  0  0  0  0  0  0  0  0  0  0
    5.9571  -13.1741   25.5792 C   0  0  0  0  0  0  0  0  0  0  0  0
    9.2548  -16.4589   24.4867 C   0  0  0  0  0  0  0  0  0  0  0  0
    8.6556  -17.5796   24.4206 O   0  0  0  0  0  0  0  0  0  0  0  0
   15.3194  -13.7678   20.9031 N   0  0  0  0  0  0  0  0  0  0  0  0
   14.9120  -14.9947   20.3112 C   0  0  0  0  0  0  0  0  0  0  0  0
   15.5461  -15.4242   19.2966 N   0  0  0  0  0  0  0  0  0  0  0  0
   13.8262  -15.7515   20.8133 N   0  0  0  0  0  0  0  0  0  0  0  0
   13.5668  -15.7254   22.2347 C   0  0  0  0  0  0  0  0  0  0  0  0
   12.3923  -16.6529   22.5674 C   0  0  0  0  0  0  0  0  0  0  0  0
   12.6938  -17.4718   23.7873 C   0  0  0  0  0  0  0  0  0  0  0  0
   11.4371  -17.7392   24.5524 C   0  0  2  0  0  0  0  0  0  0  0  0
   10.6490  -16.5120   24.6935 N   0  0  0  0  0  0  0  0  0  0  0  0
   11.7189  -18.2654   25.8903 C   0  0  0  0  0  0  0  0  0  0  0  0
   12.3200  -19.3236   26.1651 O   0  0  0  0  0  0  0  0  0  0  0  0
   11.2785  -17.5219   27.0004 O   0  0  0  0  0  0  0  0  0  0  0  0
  2  1  1  1
  2  3  1  0
  3  4  1  0
  4  8  1  0
  5  4  2  0
  6  2  1  0
  6  7  2  0
  9  6  1  0
 10  9  1  0
 10 11  1  1
 11 12  1  0
 12 13  2  0
 12 17  1  0
 13 14  1  0
 14 15  2  0
 16 15  1  0
 17 16  2  0
 18 10  1  0
 19 18  2  0
 20 21  1  0
 21 22  2  0
 21 23  1  0
 24 23  1  0
 24 25  1  0
 25 26  1  0
 27 26  1  1
 27 29  1  0
 27 28  1  0
 28 18  1  0
 29 31  1  0
 30 29  2  0
M  END
$$$$
