DFR.pdb
     RDKit          3D

 31 31  0  0  1  0  0  0  0  0999 V2000
    8.7906  -15.8987   18.8226 N   0  0  0  0  0  0  0  0  0  0  0  0
    8.3460  -16.6362   19.9878 C   0  0  1  0  0  0  0  0  0  0  0  0
    9.1541  -17.9294   20.0258 C   0  0  0  0  0  0  0  0  0  0  0  0
    8.8930  -18.7430   18.8152 C   0  0  0  0  0  0  0  0  0  0  0  0
    7.7466  -19.0661   18.4347 O   0  0  0  0  0  0  0  0  0  0  0  0
    8.5703  -15.8171   21.1852 C   0  0  0  0  0  0  0  0  0  0  0  0
    9.7613  -15.5290   21.5389 O   0  0  0  0  0  0  0  0  0  0  0  0
    9.9738  -19.1610   18.0773 O   0  0  0  0  0  0  0  0  0  0  0  0
    7.5496  -15.3014   22.0095 N   0  0  0  0  0  0  0  0  0  0  0  0
    7.8274  -14.5646   23.1869 C   0  0  1  0  0  0  0  0  0  0  0  0
    6.6667  -13.7608   23.7086 C   0  0  0  0  0  0  0  0  0  0  0  0
    6.9408  -13.0993   24.9923 C   0  0  0  0  0  0  0  0  0  0  0  0
    6.2499  -13.5842   26.1038 C   0  0  0  0  0  0  0  0  0  0  0  0
    6.4066  -13.0685   27.3546 C   0  0  0  0  0  0  0  0  0  0  0  0
    7.2753  -12.0291   27.5477 C   0  0  0  0  0  0  0  0  0  0  0  0
    7.9745  -11.5272   26.4632 C   0  0  0  0  0  0  0  0  0  0  0  0
    7.8068  -12.0618   25.1892 C   0  0  0  0  0  0  0  0  0  0  0  0
    8.3382  -15.3833   24.3040 C   0  0  0  0  0  0  0  0  0  0  0  0
    7.6854  -16.4187   24.6525 O   0  0  0  0  0  0  0  0  0  0  0  0
   16.1417  -18.3612   25.2392 N   0  0  0  0  0  0  0  0  0  0  0  0
   15.7462  -17.1770   24.5588 C   0  0  0  0  0  0  0  0  0  0  0  0
   16.5960  -16.2429   24.4129 N   0  0  0  0  0  0  0  0  0  0  0  0
   14.4405  -17.0045   24.0401 N   0  0  0  0  0  0  0  0  0  0  0  0
   13.4136  -17.9426   24.4324 C   0  0  0  0  0  0  0  0  0  0  0  0
   12.5196  -17.3168   25.5093 C   0  0  0  0  0  0  0  0  0  0  0  0
   11.6780  -16.2205   24.9267 C   0  0  0  0  0  0  0  0  0  0  0  0
   10.3546  -16.1623   25.6205 C   0  0  2  0  0  0  0  0  0  0  0  0
    9.5128  -15.1145   25.0370 N   0  0  0  0  0  0  0  0  0  0  0  0
   10.5049  -15.8921   27.0525 C   0  0  0  0  0  0  0  0  0  0  0  0
   10.2633  -14.8177   27.6391 O   0  0  0  0  0  0  0  0  0  0  0  0
   10.9674  -16.9334   27.8777 O   0  0  0  0  0  0  0  0  0  0  0  0
  2  1  1  6
  2  3  1  0
  3  4  1  0
  4  8  1  0
  5  4  2  0
  6  2  1  0
  6  7  2  0
  9  6  1  0
 10  9  1  0
 10 11  1  1
 11 12  1  0
 12 13  2  0
 12 17  1  0
 13 14  1  0
 14 15  2  0
 16 15  1  0
 17 16  2  0
 18 10  1  0
 19 18  2  0
 20 21  1  0
 21 22  2  0
 21 23  1  0
 24 23  1  0
 24 25  1  0
 25 26  1  0
 27 26  1  6
 27 29  1  0
 27 28  1  0
 28 18  1  0
 29 31  1  0
 30 29  2  0
M  END
$$$$
