DFR.pdb
     RDKit          3D

 31 31  0  0  1  0  0  0  0  0999 V2000
    9.9527  -16.5741   19.0136 N   0  0  0  0  0  0  0  0  0  0  0  0
    8.9573  -17.0567   19.9494 C   0  0  1  0  0  0  0  0  0  0  0  0
    9.2612  -18.5312   20.1946 C   0  0  0  0  0  0  0  0  0  0  0  0
    8.9704  -19.3320   18.9823 C   0  0  0  0  0  0  0  0  0  0  0  0
    7.9247  -19.2087   18.3080 O   0  0  0  0  0  0  0  0  0  0  0  0
    9.0425  -16.2689   21.1852 C   0  0  0  0  0  0  0  0  0  0  0  0
   10.1785  -16.0703   21.7300 O   0  0  0  0  0  0  0  0  0  0  0  0
    9.9046  -20.2575   18.5850 O   0  0  0  0  0  0  0  0  0  0  0  0
    7.9408  -15.6910   21.8481 N   0  0  0  0  0  0  0  0  0  0  0  0
    8.0783  -14.9772   23.0639 C   0  0  1  0  0  0  0  0  0  0  0  0
    6.9091  -14.0922   23.4036 C   0  0  0  0  0  0  0  0  0  0  0  0
    7.0199  -13.4545   24.7233 C   0  0  0  0  0  0  0  0  0  0  0  0
    7.9404  -12.4117   24.8368 C   0  0  0  0  0  0  0  0  0  0  0  0
    8.1462  -11.7302   25.9979 C   0  0  0  0  0  0  0  0  0  0  0  0
    7.4275  -12.0699   27.1116 C   0  0  0  0  0  0  0  0  0  0  0  0
    6.5071  -13.1009   27.0289 C   0  0  0  0  0  0  0  0  0  0  0  0
    6.3047  -13.7907   25.8372 C   0  0  0  0  0  0  0  0  0  0  0  0
    8.3442  -15.8317   24.2378 C   0  0  0  0  0  0  0  0  0  0  0  0
    7.4235  -16.6064   24.6523 O   0  0  0  0  0  0  0  0  0  0  0  0
   14.2887  -19.9484   26.0563 N   0  0  0  0  0  0  0  0  0  0  0  0
   13.6348  -20.0764   24.8002 C   0  0  0  0  0  0  0  0  0  0  0  0
   14.3435  -20.1855   23.7505 N   0  0  0  0  0  0  0  0  0  0  0  0
   12.2244  -20.0861   24.6806 N   0  0  0  0  0  0  0  0  0  0  0  0
   11.4301  -20.0037   25.8850 C   0  0  0  0  0  0  0  0  0  0  0  0
   11.5865  -18.6164   26.5188 C   0  0  0  0  0  0  0  0  0  0  0  0
   11.2247  -17.5421   25.5366 C   0  0  0  0  0  0  0  0  0  0  0  0
    9.9041  -16.9392   25.8950 C   0  0  2  0  0  0  0  0  0  0  0  0
    9.5561  -15.8674   24.9584 N   0  0  0  0  0  0  0  0  0  0  0  0
    9.9115  -16.3852   27.2512 C   0  0  0  0  0  0  0  0  0  0  0  0
    9.5608  -16.9675   28.2975 O   0  0  0  0  0  0  0  0  0  0  0  0
   10.3558  -15.0616   27.4232 O   0  0  0  0  0  0  0  0  0  0  0  0
  2  1  1  6
  2  3  1  0
  3  4  1  0
  4  8  1  0
  5  4  2  0
  6  2  1  0
  6  7  2  0
  9  6  1  0
 10  9  1  0
 10 11  1  1
 11 12  1  0
 12 13  2  0
 12 17  1  0
 13 14  1  0
 14 15  2  0
 16 15  1  0
 17 16  2  0
 18 10  1  0
 19 18  2  0
 20 21  1  0
 21 22  2  0
 21 23  1  0
 24 23  1  0
 24 25  1  0
 25 26  1  0
 27 26  1  6
 27 29  1  0
 27 28  1  0
 28 18  1  0
 29 31  1  0
 30 29  2  0
M  END
$$$$
