DFR.pdb
     RDKit          3D

 31 31  0  0  1  0  0  0  0  0999 V2000
    4.3291  -19.9435   22.4153 N   0  0  0  0  0  0  0  0  0  0  0  0
    5.5147  -19.9035   23.2473 C   0  0  1  0  0  0  0  0  0  0  0  0
    6.6010  -20.6742   22.5041 C   0  0  0  0  0  0  0  0  0  0  0  0
    6.3175  -22.1284   22.5278 C   0  0  0  0  0  0  0  0  0  0  0  0
    6.2806  -22.8413   21.5012 O   0  0  0  0  0  0  0  0  0  0  0  0
    5.8943  -18.5030   23.4701 C   0  0  0  0  0  0  0  0  0  0  0  0
    5.8783  -17.6819   22.4943 O   0  0  0  0  0  0  0  0  0  0  0  0
    6.0834  -22.7171   23.7467 O   0  0  0  0  0  0  0  0  0  0  0  0
    6.2893  -17.9646   24.7115 N   0  0  0  0  0  0  0  0  0  0  0  0
    6.7447  -16.6302   24.8474 C   0  0  1  0  0  0  0  0  0  0  0  0
    6.7291  -16.1060   26.2582 C   0  0  0  0  0  0  0  0  0  0  0  0
    7.1110  -14.6904   26.3625 C   0  0  0  0  0  0  0  0  0  0  0  0
    6.0947  -13.7541   26.1674 C   0  0  0  0  0  0  0  0  0  0  0  0
    6.3041  -12.4102   26.2365 C   0  0  0  0  0  0  0  0  0  0  0  0
    7.5602  -11.9401   26.5081 C   0  0  0  0  0  0  0  0  0  0  0  0
    8.5885  -12.8458   26.7060 C   0  0  0  0  0  0  0  0  0  0  0  0
    8.3632  -14.2172   26.6332 C   0  0  0  0  0  0  0  0  0  0  0  0
    8.0961  -16.3959   24.3016 C   0  0  0  0  0  0  0  0  0  0  0  0
    9.0215  -17.2231   24.5822 O   0  0  0  0  0  0  0  0  0  0  0  0
    9.6608  -14.2145   17.5469 N   0  0  0  0  0  0  0  0  0  0  0  0
    8.3979  -13.5743   17.6764 C   0  0  0  0  0  0  0  0  0  0  0  0
    7.5904  -13.6112   16.6953 N   0  0  0  0  0  0  0  0  0  0  0  0
    8.0114  -12.8990   18.8588 N   0  0  0  0  0  0  0  0  0  0  0  0
    8.9632  -12.8067   19.9423 C   0  0  0  0  0  0  0  0  0  0  0  0
    8.9488  -14.1030   20.7607 C   0  0  0  0  0  0  0  0  0  0  0  0
    9.8277  -13.9756   21.9694 C   0  0  0  0  0  0  0  0  0  0  0  0
    9.7549  -15.2212   22.7935 C   0  0  2  0  0  0  0  0  0  0  0  0
    8.4622  -15.3115   23.4774 N   0  0  0  0  0  0  0  0  0  0  0  0
   10.8168  -15.2666   23.8018 C   0  0  0  0  0  0  0  0  0  0  0  0
   10.6752  -15.1913   25.0392 O   0  0  0  0  0  0  0  0  0  0  0  0
   12.1443  -15.4100   23.3591 O   0  0  0  0  0  0  0  0  0  0  0  0
  2  1  1  6
  2  3  1  0
  3  4  1  0
  4  8  1  0
  5  4  2  0
  6  2  1  0
  6  7  2  0
  9  6  1  0
 10  9  1  0
 10 11  1  1
 11 12  1  0
 12 13  2  0
 12 17  1  0
 13 14  1  0
 14 15  2  0
 16 15  1  0
 17 16  2  0
 18 10  1  0
 19 18  2  0
 20 21  1  0
 21 22  2  0
 21 23  1  0
 24 23  1  0
 24 25  1  0
 25 26  1  0
 27 26  1  1
 27 29  1  0
 27 28  1  0
 28 18  1  0
 29 31  1  0
 30 29  2  0
M  END
$$$$
