DFR.pdb
     RDKit          3D

 31 31  0  0  1  0  0  0  0  0999 V2000
   10.6854  -16.5014   20.0770 N   0  0  0  0  0  0  0  0  0  0  0  0
    9.9367  -17.1142   21.1556 C   0  0  1  0  0  0  0  0  0  0  0  0
   10.7113  -18.3583   21.5785 C   0  0  0  0  0  0  0  0  0  0  0  0
   10.6020  -19.4163   20.5469 C   0  0  0  0  0  0  0  0  0  0  0  0
   10.1833  -19.2089   19.3870 O   0  0  0  0  0  0  0  0  0  0  0  0
    9.8090  -16.1505   22.2556 C   0  0  0  0  0  0  0  0  0  0  0  0
   10.8578  -15.6516   22.7825 O   0  0  0  0  0  0  0  0  0  0  0  0
   10.9825  -20.6906   20.8913 O   0  0  0  0  0  0  0  0  0  0  0  0
    8.5861  -15.7108   22.8016 N   0  0  0  0  0  0  0  0  0  0  0  0
    8.5248  -14.8381   23.9157 C   0  0  1  0  0  0  0  0  0  0  0  0
    7.2295  -14.0825   24.0461 C   0  0  0  0  0  0  0  0  0  0  0  0
    7.1844  -13.1927   25.2151 C   0  0  0  0  0  0  0  0  0  0  0  0
    8.1127  -12.1510   25.2423 C   0  0  0  0  0  0  0  0  0  0  0  0
    8.1840  -11.2504   26.2615 C   0  0  0  0  0  0  0  0  0  0  0  0
    7.3149  -11.3572   27.3130 C   0  0  0  0  0  0  0  0  0  0  0  0
    6.3829  -12.3811   27.3134 C   0  0  0  0  0  0  0  0  0  0  0  0
    6.3189  -13.2958   26.2665 C   0  0  0  0  0  0  0  0  0  0  0  0
    8.7879  -15.4950   25.2111 C   0  0  0  0  0  0  0  0  0  0  0  0
    7.9732  -16.3807   25.6251 O   0  0  0  0  0  0  0  0  0  0  0  0
   15.9100  -15.3131   24.1916 N   0  0  0  0  0  0  0  0  0  0  0  0
   15.0569  -16.2470   23.5422 C   0  0  0  0  0  0  0  0  0  0  0  0
   15.3813  -16.6721   22.3888 N   0  0  0  0  0  0  0  0  0  0  0  0
   13.8613  -16.7175   24.1361 N   0  0  0  0  0  0  0  0  0  0  0  0
   13.4717  -16.1802   25.4198 C   0  0  0  0  0  0  0  0  0  0  0  0
   12.2003  -16.8802   25.9138 C   0  0  0  0  0  0  0  0  0  0  0  0
   11.7413  -16.2885   27.2134 C   0  0  0  0  0  0  0  0  0  0  0  0
   10.2623  -16.0696   27.1865 C   0  0  2  0  0  0  0  0  0  0  0  0
    9.8876  -15.2224   26.0512 N   0  0  0  0  0  0  0  0  0  0  0  0
    9.7863  -15.4329   28.4170 C   0  0  0  0  0  0  0  0  0  0  0  0
    9.4722  -16.0049   29.4805 O   0  0  0  0  0  0  0  0  0  0  0  0
    9.6605  -14.0318   28.4315 O   0  0  0  0  0  0  0  0  0  0  0  0
  2  1  1  6
  2  3  1  0
  3  4  1  0
  4  8  1  0
  5  4  2  0
  6  2  1  0
  6  7  2  0
  9  6  1  0
 10  9  1  0
 10 11  1  1
 11 12  1  0
 12 13  2  0
 12 17  1  0
 13 14  1  0
 14 15  2  0
 16 15  1  0
 17 16  2  0
 18 10  1  0
 19 18  2  0
 20 21  1  0
 21 22  2  0
 21 23  1  0
 24 23  1  0
 24 25  1  0
 25 26  1  0
 27 26  1  1
 27 29  1  0
 27 28  1  0
 28 18  1  0
 29 31  1  0
 30 29  2  0
M  END
$$$$
