FRS.pdb
     RDKit          3D

 29 29  0  0  1  0  0  0  0  0999 V2000
    6.0312  -17.9457   26.1297 N   0  0  0  0  0  0  0  0  0  0  0  0
    6.3386  -16.5814   25.8394 C   0  0  1  0  0  0  0  0  0  0  0  0
    7.2355  -16.0648   26.9727 C   0  0  0  0  0  0  0  0  0  0  0  0
    7.3770  -14.6036   26.9403 C   0  0  0  0  0  0  0  0  0  0  0  0
    8.6244  -14.0350   26.8562 C   0  0  0  0  0  0  0  0  0  0  0  0
    8.7652  -12.6487   26.8253 C   0  0  0  0  0  0  0  0  0  0  0  0
    7.6506  -11.8142   26.8784 C   0  0  0  0  0  0  0  0  0  0  0  0
    6.3910  -12.3946   26.9633 C   0  0  0  0  0  0  0  0  0  0  0  0
    6.2793  -13.7793   26.9926 C   0  0  0  0  0  0  0  0  0  0  0  0
    7.1346  -16.4184   24.5946 C   0  0  0  0  0  0  0  0  0  0  0  0
    7.9997  -17.3333   24.3770 O   0  0  0  0  0  0  0  0  0  0  0  0
    8.7944  -15.3228   16.4270 N   0  0  0  0  0  0  0  0  0  0  0  0
    8.0949  -14.2649   17.0621 C   0  0  0  0  0  0  0  0  0  0  0  0
    8.0888  -13.0678   16.5634 N   0  0  0  0  0  0  0  0  0  0  0  0
    7.3677  -14.4706   18.2806 N   0  0  0  0  0  0  0  0  0  0  0  0
    8.0163  -15.0593   19.4326 C   0  0  0  0  0  0  0  0  0  0  0  0
    8.3893  -13.9988   20.4575 C   0  0  0  0  0  0  0  0  0  0  0  0
    7.4635  -14.1232   21.6227 C   0  0  0  0  0  0  0  0  0  0  0  0
    7.8540  -15.2766   22.5388 C   0  0  2  0  0  0  0  0  0  0  0  0
    6.9932  -15.3581   23.6830 N   0  0  0  0  0  0  0  0  0  0  0  0
    9.2976  -15.1925   22.8961 C   0  0  0  0  0  0  0  0  0  0  0  0
    9.6725  -14.2755   23.6430 O   0  0  0  0  0  0  0  0  0  0  0  0
    7.5353  -12.3346   17.0534 O   0  0  0  0  0  0  0  0  0  0  0  0
   11.9416  -18.4356   22.6339 C   0  0  0  0  0  0  0  0  0  0  0  0
   12.2510  -17.2776   23.3200 C   0  0  1  0  0  0  0  0  0  0  0  0
   11.6676  -16.0344   22.7220 N   0  0  0  0  0  0  0  0  0  0  0  0
   10.2702  -16.1092   22.4253 C   0  0  0  0  0  0  0  0  0  0  0  0
   12.4898  -15.6022   21.5820 O   0  0  0  0  0  0  0  0  0  0  0  0
   12.0251  -15.3889   20.4297 O   0  0  0  0  0  0  0  0  0  0  0  0
  2  1  1  1
  3  2  1  0
  3  4  1  0
  4  9  2  0
  5  4  1  0
  5  6  2  0
  6  7  1  0
  7  8  2  0
  9  8  1  0
 10 20  1  0
 10  2  1  0
 11 10  2  0
 13 12  1  0
 14 13  2  0
 15 13  1  0
 16 15  1  0
 17 16  1  0
 18 17  1  0
 19 18  1  1
 19 20  1  0
 21 19  1  0
 21 26  1  0
 22 21  2  0
 24 23  1  0
 25 24  1  1
 25 26  1  0
 25 27  1  0
 27 28  2  0
 27 29  1  0
M  END
$$$$
