FRS.pdb
     RDKit          3D

 29 29  0  0  1  0  0  0  0  0999 V2000
    6.0334  -16.7912   25.0800 N   0  0  0  0  0  0  0  0  0  0  0  0
    7.0751  -15.8799   24.7274 C   0  0  1  0  0  0  0  0  0  0  0  0
    7.5722  -15.2304   26.0262 C   0  0  0  0  0  0  0  0  0  0  0  0
    7.1296  -13.8357   26.1489 C   0  0  0  0  0  0  0  0  0  0  0  0
    7.8660  -12.8274   25.5768 C   0  0  0  0  0  0  0  0  0  0  0  0
    7.4511  -11.5017   25.6900 C   0  0  0  0  0  0  0  0  0  0  0  0
    6.2873  -11.1720   26.3816 C   0  0  0  0  0  0  0  0  0  0  0  0
    5.5459  -12.1958   26.9584 C   0  0  0  0  0  0  0  0  0  0  0  0
    5.9824  -13.5088   26.8304 C   0  0  0  0  0  0  0  0  0  0  0  0
    8.2618  -16.5548   24.1390 C   0  0  0  0  0  0  0  0  0  0  0  0
    8.6593  -17.5982   24.7605 O   0  0  0  0  0  0  0  0  0  0  0  0
    6.5377  -14.4375   20.3044 N   0  0  0  0  0  0  0  0  0  0  0  0
    7.4304  -13.6502   19.5329 C   0  0  0  0  0  0  0  0  0  0  0  0
    7.2712  -12.3682   19.4205 N   0  0  0  0  0  0  0  0  0  0  0  0
    8.5435  -14.2350   18.8438 N   0  0  0  0  0  0  0  0  0  0  0  0
    9.2125  -15.3991   19.3838 C   0  0  0  0  0  0  0  0  0  0  0  0
    9.8179  -15.1041   20.7479 C   0  0  0  0  0  0  0  0  0  0  0  0
   10.5931  -16.3021   21.1884 C   0  0  0  0  0  0  0  0  0  0  0  0
   10.0839  -16.8531   22.5148 C   0  0  2  0  0  0  0  0  0  0  0  0
    8.9409  -16.1260   22.9857 N   0  0  0  0  0  0  0  0  0  0  0  0
   11.1892  -16.9173   23.5111 C   0  0  0  0  0  0  0  0  0  0  0  0
   11.8709  -15.8996   23.7088 O   0  0  0  0  0  0  0  0  0  0  0  0
    7.9432  -11.8403   18.8257 O   0  0  0  0  0  0  0  0  0  0  0  0
   11.9278  -20.4207   25.8408 C   0  0  0  0  0  0  0  0  0  0  0  0
   12.3882  -19.1914   26.2700 C   0  0  1  0  0  0  0  0  0  0  0  0
   12.5926  -18.1939   25.1715 N   0  0  0  0  0  0  0  0  0  0  0  0
   11.5049  -18.0853   24.2487 C   0  0  0  0  0  0  0  0  0  0  0  0
   13.8922  -18.4306   24.5253 O   0  0  0  0  0  0  0  0  0  0  0  0
   14.9827  -18.4878   25.1553 O   0  0  0  0  0  0  0  0  0  0  0  0
  2  1  1  1
  3  2  1  0
  3  4  1  0
  4  9  2  0
  5  4  1  0
  5  6  2  0
  6  7  1  0
  7  8  2  0
  9  8  1  0
 10 20  1  0
 10  2  1  0
 11 10  2  0
 13 12  1  0
 14 13  2  0
 15 13  1  0
 16 15  1  0
 17 16  1  0
 18 17  1  0
 19 18  1  6
 19 20  1  0
 21 19  1  0
 21 26  1  0
 22 21  2  0
 24 23  1  0
 25 24  1  1
 25 26  1  0
 25 27  1  0
 27 28  2  0
 27 29  1  0
M  END
$$$$
