FRS.pdb
     RDKit          3D

 29 29  0  0  1  0  0  0  0  0999 V2000
    6.9648  -16.6172   22.2483 N   0  0  0  0  0  0  0  0  0  0  0  0
    8.1418  -16.4348   21.4599 C   0  0  1  0  0  0  0  0  0  0  0  0
    8.7925  -15.1193   21.9093 C   0  0  0  0  0  0  0  0  0  0  0  0
    8.1852  -13.9532   21.2555 C   0  0  0  0  0  0  0  0  0  0  0  0
    8.4415  -13.6962   19.9308 C   0  0  0  0  0  0  0  0  0  0  0  0
    7.8682  -12.5907   19.3048 C   0  0  0  0  0  0  0  0  0  0  0  0
    7.0276  -11.7274   20.0045 C   0  0  0  0  0  0  0  0  0  0  0  0
    6.7715  -11.9920   21.3442 C   0  0  0  0  0  0  0  0  0  0  0  0
    7.3562  -13.1009   21.9437 C   0  0  0  0  0  0  0  0  0  0  0  0
    9.1656  -17.4869   21.6939 C   0  0  0  0  0  0  0  0  0  0  0  0
    9.2027  -17.9567   22.8817 O   0  0  0  0  0  0  0  0  0  0  0  0
   13.0701  -23.3549   18.3913 N   0  0  0  0  0  0  0  0  0  0  0  0
   12.5892  -22.2740   17.6087 C   0  0  0  0  0  0  0  0  0  0  0  0
   11.8265  -22.4759   16.5796 N   0  0  0  0  0  0  0  0  0  0  0  0
   12.9256  -20.9150   17.9183 N   0  0  0  0  0  0  0  0  0  0  0  0
   13.8099  -20.6105   19.0227 C   0  0  0  0  0  0  0  0  0  0  0  0
   13.0248  -20.2510   20.2751 C   0  0  0  0  0  0  0  0  0  0  0  0
   11.9287  -19.3123   19.8909 C   0  0  0  0  0  0  0  0  0  0  0  0
   11.0992  -18.8830   21.0950 C   0  0  2  0  0  0  0  0  0  0  0  0
   10.0565  -17.9721   20.7213 N   0  0  0  0  0  0  0  0  0  0  0  0
   11.9807  -18.3547   22.1732 C   0  0  0  0  0  0  0  0  0  0  0  0
   12.4047  -17.1926   22.0781 O   0  0  0  0  0  0  0  0  0  0  0  0
   11.5184  -21.6489   16.0271 O   0  0  0  0  0  0  0  0  0  0  0  0
   13.2293  -18.4077   26.8273 C   0  0  0  0  0  0  0  0  0  0  0  0
   12.4689  -18.8373   25.7573 C   0  0  1  0  0  0  0  0  0  0  0  0
   13.0988  -18.5967   24.4199 N   0  0  0  0  0  0  0  0  0  0  0  0
   12.3625  -19.1134   23.3075 C   0  0  0  0  0  0  0  0  0  0  0  0
   14.5032  -19.0317   24.4502 O   0  0  0  0  0  0  0  0  0  0  0  0
   14.9937  -19.8582   23.6343 O   0  0  0  0  0  0  0  0  0  0  0  0
  2  1  1  1
  3  2  1  0
  3  4  1  0
  4  9  2  0
  5  4  1  0
  5  6  2  0
  6  7  1  0
  7  8  2  0
  9  8  1  0
 10 20  1  0
 10  2  1  0
 11 10  2  0
 13 12  1  0
 14 13  2  0
 15 13  1  0
 16 15  1  0
 17 16  1  0
 18 17  1  0
 19 18  1  6
 19 20  1  0
 21 19  1  0
 21 26  1  0
 22 21  2  0
 24 23  1  0
 25 24  1  6
 25 26  1  0
 25 27  1  0
 27 28  2  0
 27 29  1  0
M  END
$$$$
