FRS.pdb
     RDKit          3D

 29 29  0  0  1  0  0  0  0  0999 V2000
    6.0879  -17.6389   25.6190 N   0  0  0  0  0  0  0  0  0  0  0  0
    6.4666  -16.3286   25.1949 C   0  0  1  0  0  0  0  0  0  0  0  0
    7.4860  -15.7969   26.2117 C   0  0  0  0  0  0  0  0  0  0  0  0
    7.2335  -14.3934   26.5620 C   0  0  0  0  0  0  0  0  0  0  0  0
    8.1381  -13.7028   27.3309 C   0  0  0  0  0  0  0  0  0  0  0  0
    7.9040  -12.3706   27.6668 C   0  0  0  0  0  0  0  0  0  0  0  0
    6.7542  -11.7139   27.2327 C   0  0  0  0  0  0  0  0  0  0  0  0
    5.8424  -12.4171   26.4551 C   0  0  0  0  0  0  0  0  0  0  0  0
    6.1006  -13.7444   26.1349 C   0  0  0  0  0  0  0  0  0  0  0  0
    7.1695  -16.3233   23.8850 C   0  0  0  0  0  0  0  0  0  0  0  0
    7.8394  -17.3791   23.6216 O   0  0  0  0  0  0  0  0  0  0  0  0
    8.1480  -15.7371   17.1510 N   0  0  0  0  0  0  0  0  0  0  0  0
    8.2756  -14.4714   16.5235 C   0  0  0  0  0  0  0  0  0  0  0  0
    8.2601  -14.3565   15.2319 N   0  0  0  0  0  0  0  0  0  0  0  0
    8.4290  -13.2672   17.2865 N   0  0  0  0  0  0  0  0  0  0  0  0
    7.8509  -13.1568   18.6087 C   0  0  0  0  0  0  0  0  0  0  0  0
    8.2772  -14.3168   19.4958 C   0  0  0  0  0  0  0  0  0  0  0  0
    7.5936  -14.1763   20.8161 C   0  0  0  0  0  0  0  0  0  0  0  0
    7.8482  -15.3771   21.7191 C   0  0  2  0  0  0  0  0  0  0  0  0
    7.1383  -15.2655   22.9602 N   0  0  0  0  0  0  0  0  0  0  0  0
    9.3109  -15.5938   21.8978 C   0  0  0  0  0  0  0  0  0  0  0  0
    9.9746  -14.7207   22.4781 O   0  0  0  0  0  0  0  0  0  0  0  0
    8.3920  -13.4087   14.8218 O   0  0  0  0  0  0  0  0  0  0  0  0
   11.1965  -19.3134   20.9691 C   0  0  0  0  0  0  0  0  0  0  0  0
   11.7683  -18.4101   21.8436 C   0  0  1  0  0  0  0  0  0  0  0  0
   11.3915  -16.9834   21.5869 N   0  0  0  0  0  0  0  0  0  0  0  0
    9.9879  -16.7504   21.4375 C   0  0  0  0  0  0  0  0  0  0  0  0
   12.1985  -16.4513   20.4787 O   0  0  0  0  0  0  0  0  0  0  0  0
   11.7019  -15.9419   19.4379 O   0  0  0  0  0  0  0  0  0  0  0  0
  2  1  1  1
  3  2  1  0
  3  4  1  0
  4  9  2  0
  5  4  1  0
  5  6  2  0
  6  7  1  0
  7  8  2  0
  9  8  1  0
 10 20  1  0
 10  2  1  0
 11 10  2  0
 13 12  1  0
 14 13  2  0
 15 13  1  0
 16 15  1  0
 17 16  1  0
 18 17  1  0
 19 18  1  6
 19 20  1  0
 21 19  1  0
 21 26  1  0
 22 21  2  0
 24 23  1  0
 25 24  1  1
 25 26  1  0
 25 27  1  0
 27 28  2  0
 27 29  1  0
M  END
$$$$
