FRS.pdb
     RDKit          3D

 29 29  0  0  1  0  0  0  0  0999 V2000
    6.5673  -18.1693   27.2615 N   0  0  0  0  0  0  0  0  0  0  0  0
    6.7168  -16.9199   26.5856 C   0  0  1  0  0  0  0  0  0  0  0  0
    7.5009  -15.9872   27.5190 C   0  0  0  0  0  0  0  0  0  0  0  0
    7.4452  -14.5890   27.0740 C   0  0  0  0  0  0  0  0  0  0  0  0
    6.2807  -13.8722   27.2022 C   0  0  0  0  0  0  0  0  0  0  0  0
    6.2217  -12.5447   26.7815 C   0  0  0  0  0  0  0  0  0  0  0  0
    7.3357  -11.9194   26.2252 C   0  0  0  0  0  0  0  0  0  0  0  0
    8.5113  -12.6491   26.0980 C   0  0  0  0  0  0  0  0  0  0  0  0
    8.5426  -13.9709   26.5254 C   0  0  0  0  0  0  0  0  0  0  0  0
    7.5331  -17.0241   25.3476 C   0  0  0  0  0  0  0  0  0  0  0  0
    8.5533  -17.7890   25.4302 O   0  0  0  0  0  0  0  0  0  0  0  0
    7.3204  -12.0920   18.5220 N   0  0  0  0  0  0  0  0  0  0  0  0
    8.5507  -12.7935   18.6020 C   0  0  0  0  0  0  0  0  0  0  0  0
    9.6844  -12.1642   18.6106 N   0  0  0  0  0  0  0  0  0  0  0  0
    8.5954  -14.2248   18.6744 N   0  0  0  0  0  0  0  0  0  0  0  0
    7.7047  -14.9437   19.5601 C   0  0  0  0  0  0  0  0  0  0  0  0
    8.3798  -15.2554   20.8873 C   0  0  0  0  0  0  0  0  0  0  0  0
    7.4341  -16.0568   21.7201 C   0  0  0  0  0  0  0  0  0  0  0  0
    8.0918  -16.5659   22.9971 C   0  0  2  0  0  0  0  0  0  0  0  0
    7.2553  -16.3557   24.1429 N   0  0  0  0  0  0  0  0  0  0  0  0
    9.4535  -15.9821   23.1502 C   0  0  0  0  0  0  0  0  0  0  0  0
    9.5605  -14.7554   23.3028 O   0  0  0  0  0  0  0  0  0  0  0  0
   10.5589  -12.7284   18.6413 O   0  0  0  0  0  0  0  0  0  0  0  0
   12.7761  -18.2267   24.4291 C   0  0  0  0  0  0  0  0  0  0  0  0
   12.7095  -16.8478   24.4703 C   0  0  1  0  0  0  0  0  0  0  0  0
   11.9554  -16.2346   23.3307 N   0  0  0  0  0  0  0  0  0  0  0  0
   10.6391  -16.7578   23.1306 C   0  0  0  0  0  0  0  0  0  0  0  0
   12.7886  -16.2559   22.1191 O   0  0  0  0  0  0  0  0  0  0  0  0
   12.4216  -16.7762   21.0310 O   0  0  0  0  0  0  0  0  0  0  0  0
  2  1  1  1
  3  2  1  0
  3  4  1  0
  4  9  2  0
  5  4  1  0
  5  6  2  0
  6  7  1  0
  7  8  2  0
  9  8  1  0
 10 20  1  0
 10  2  1  0
 11 10  2  0
 13 12  1  0
 14 13  2  0
 15 13  1  0
 16 15  1  0
 17 16  1  0
 18 17  1  0
 19 18  1  6
 19 20  1  0
 21 19  1  0
 21 26  1  0
 22 21  2  0
 24 23  1  0
 25 24  1  1
 25 26  1  0
 25 27  1  0
 27 28  2  0
 27 29  1  0
M  END
$$$$
