FRS.pdb
     RDKit          3D

 29 29  0  0  1  0  0  0  0  0999 V2000
    6.5831  -16.6994   26.0580 N   0  0  0  0  0  0  0  0  0  0  0  0
    7.0990  -15.8261   25.0523 C   0  0  1  0  0  0  0  0  0  0  0  0
    8.0319  -14.8271   25.7505 C   0  0  0  0  0  0  0  0  0  0  0  0
    7.3128  -13.6341   26.2148 C   0  0  0  0  0  0  0  0  0  0  0  0
    6.4209  -13.0015   25.3837 C   0  0  0  0  0  0  0  0  0  0  0  0
    5.7354  -11.8686   25.8186 C   0  0  0  0  0  0  0  0  0  0  0  0
    5.9385  -11.3559   27.0983 C   0  0  0  0  0  0  0  0  0  0  0  0
    6.8418  -11.9997   27.9351 C   0  0  0  0  0  0  0  0  0  0  0  0
    7.5118  -13.1272   27.4760 C   0  0  0  0  0  0  0  0  0  0  0  0
    7.9440  -16.5290   24.0514 C   0  0  0  0  0  0  0  0  0  0  0  0
    8.3812  -17.6735   24.4147 O   0  0  0  0  0  0  0  0  0  0  0  0
   10.0540  -13.6401   18.8391 N   0  0  0  0  0  0  0  0  0  0  0  0
    8.7203  -13.1885   18.6679 C   0  0  0  0  0  0  0  0  0  0  0  0
    8.4242  -11.9275   18.7294 N   0  0  0  0  0  0  0  0  0  0  0  0
    7.6437  -14.1030   18.4224 N   0  0  0  0  0  0  0  0  0  0  0  0
    7.8306  -15.5256   18.6120 C   0  0  0  0  0  0  0  0  0  0  0  0
    7.7983  -15.8944   20.0875 C   0  0  0  0  0  0  0  0  0  0  0  0
    9.1880  -16.2282   20.5203 C   0  0  0  0  0  0  0  0  0  0  0  0
    9.2336  -16.7097   21.9654 C   0  0  2  0  0  0  0  0  0  0  0  0
    8.2737  -16.0248   22.7817 N   0  0  0  0  0  0  0  0  0  0  0  0
   10.6219  -16.6270   22.4986 C   0  0  0  0  0  0  0  0  0  0  0  0
   11.3624  -15.7192   22.0899 O   0  0  0  0  0  0  0  0  0  0  0  0
    7.4305  -11.6493   18.5907 O   0  0  0  0  0  0  0  0  0  0  0  0
   11.8429  -18.3236   26.1199 C   0  0  0  0  0  0  0  0  0  0  0  0
   12.7557  -18.4369   25.0896 C   0  0  2  0  0  0  0  0  0  0  0  0
   12.4920  -17.5239   23.9319 N   0  0  0  0  0  0  0  0  0  0  0  0
   11.1442  -17.5351   23.4527 C   0  0  0  0  0  0  0  0  0  0  0  0
   13.4932  -17.7582   22.8805 O   0  0  0  0  0  0  0  0  0  0  0  0
   13.1978  -17.9871   21.6765 O   0  0  0  0  0  0  0  0  0  0  0  0
  2  1  1  1
  3  2  1  0
  3  4  1  0
  4  9  2  0
  5  4  1  0
  5  6  2  0
  6  7  1  0
  7  8  2  0
  9  8  1  0
 10 20  1  0
 10  2  1  0
 11 10  2  0
 13 12  1  0
 14 13  2  0
 15 13  1  0
 16 15  1  0
 17 16  1  0
 18 17  1  0
 19 18  1  6
 19 20  1  0
 21 19  1  0
 21 26  1  0
 22 21  2  0
 24 23  1  0
 25 24  1  1
 25 26  1  0
 25 27  1  0
 27 28  2  0
 27 29  1  0
M  END
$$$$
