FRS.pdb
     RDKit          3D

 29 29  0  0  1  0  0  0  0  0999 V2000
    6.9447  -18.0587   27.1760 N   0  0  0  0  0  0  0  0  0  0  0  0
    6.8500  -16.7688   26.5699 C   0  0  1  0  0  0  0  0  0  0  0  0
    7.5475  -15.7725   27.5062 C   0  0  0  0  0  0  0  0  0  0  0  0
    7.3096  -14.3803   27.1046 C   0  0  0  0  0  0  0  0  0  0  0  0
    8.3347  -13.6302   26.5824 C   0  0  0  0  0  0  0  0  0  0  0  0
    8.1151  -12.3081   26.1996 C   0  0  0  0  0  0  0  0  0  0  0  0
    6.8585  -11.7219   26.3373 C   0  0  0  0  0  0  0  0  0  0  0  0
    5.8250  -12.4852   26.8661 C   0  0  0  0  0  0  0  0  0  0  0  0
    6.0714  -13.8007   27.2397 C   0  0  0  0  0  0  0  0  0  0  0  0
    7.5794  -16.6800   25.2777 C   0  0  0  0  0  0  0  0  0  0  0  0
    8.6360  -17.3943   25.1980 O   0  0  0  0  0  0  0  0  0  0  0  0
    9.6007  -14.2503   18.2692 N   0  0  0  0  0  0  0  0  0  0  0  0
    8.4671  -13.4083   18.1347 C   0  0  0  0  0  0  0  0  0  0  0  0
    8.5069  -12.3386   17.4027 N   0  0  0  0  0  0  0  0  0  0  0  0
    7.2317  -13.7002   18.8013 N   0  0  0  0  0  0  0  0  0  0  0  0
    7.0280  -14.9815   19.4426 C   0  0  0  0  0  0  0  0  0  0  0  0
    8.0189  -15.1944   20.5771 C   0  0  0  0  0  0  0  0  0  0  0  0
    7.2813  -15.0947   21.8718 C   0  0  0  0  0  0  0  0  0  0  0  0
    7.9495  -15.9111   22.9714 C   0  0  2  0  0  0  0  0  0  0  0  0
    7.1867  -15.8874   24.1856 N   0  0  0  0  0  0  0  0  0  0  0  0
    9.3619  -15.4765   23.1578 C   0  0  0  0  0  0  0  0  0  0  0  0
    9.5813  -14.3998   23.7341 O   0  0  0  0  0  0  0  0  0  0  0  0
    7.6408  -11.7665   17.3218 O   0  0  0  0  0  0  0  0  0  0  0  0
   12.5126  -17.9810   23.8379 C   0  0  0  0  0  0  0  0  0  0  0  0
   12.5557  -16.6079   23.9797 C   0  0  1  0  0  0  0  0  0  0  0  0
   11.8410  -15.8557   22.8995 N   0  0  0  0  0  0  0  0  0  0  0  0
   10.4739  -16.2317   22.7094 C   0  0  0  0  0  0  0  0  0  0  0  0
   12.6385  -15.8885   21.6644 O   0  0  0  0  0  0  0  0  0  0  0  0
   13.8324  -15.4894   21.5959 O   0  0  0  0  0  0  0  0  0  0  0  0
  2  1  1  1
  3  2  1  0
  3  4  1  0
  4  9  2  0
  5  4  1  0
  5  6  2  0
  6  7  1  0
  7  8  2  0
  9  8  1  0
 10 20  1  0
 10  2  1  0
 11 10  2  0
 13 12  1  0
 14 13  2  0
 15 13  1  0
 16 15  1  0
 17 16  1  0
 18 17  1  0
 19 18  1  6
 19 20  1  0
 21 19  1  0
 21 26  1  0
 22 21  2  0
 24 23  1  0
 25 24  1  1
 25 26  1  0
 25 27  1  0
 27 28  2  0
 27 29  1  0
M  END
$$$$
