FRS.pdb
     RDKit          3D

 29 29  0  0  1  0  0  0  0  0999 V2000
    6.1327  -18.3141   26.0263 N   0  0  0  0  0  0  0  0  0  0  0  0
    6.6558  -17.0576   25.5932 C   0  0  1  0  0  0  0  0  0  0  0  0
    7.0566  -16.2728   26.8499 C   0  0  0  0  0  0  0  0  0  0  0  0
    7.1912  -14.8354   26.5818 C   0  0  0  0  0  0  0  0  0  0  0  0
    6.0707  -14.0518   26.4525 C   0  0  0  0  0  0  0  0  0  0  0  0
    6.1920  -12.6869   26.1978 C   0  0  0  0  0  0  0  0  0  0  0  0
    7.4450  -12.0908   26.0696 C   0  0  0  0  0  0  0  0  0  0  0  0
    8.5753  -12.8880   26.2015 C   0  0  0  0  0  0  0  0  0  0  0  0
    8.4257  -14.2460   26.4551 C   0  0  0  0  0  0  0  0  0  0  0  0
    7.9010  -17.1924   24.7927 C   0  0  0  0  0  0  0  0  0  0  0  0
    8.6815  -18.1376   25.1538 O   0  0  0  0  0  0  0  0  0  0  0  0
    7.7743  -11.7237   18.9874 N   0  0  0  0  0  0  0  0  0  0  0  0
    7.6537  -13.1171   19.2239 C   0  0  0  0  0  0  0  0  0  0  0  0
    6.6127  -13.6107   19.8190 N   0  0  0  0  0  0  0  0  0  0  0  0
    8.6750  -14.0385   18.8189 N   0  0  0  0  0  0  0  0  0  0  0  0
    8.7578  -15.3532   19.4183 C   0  0  0  0  0  0  0  0  0  0  0  0
    9.0323  -15.2622   20.9118 C   0  0  0  0  0  0  0  0  0  0  0  0
    9.1634  -16.6483   21.4521 C   0  0  0  0  0  0  0  0  0  0  0  0
    9.4379  -16.6510   22.9510 C   0  0  2  0  0  0  0  0  0  0  0  0
    8.2514  -16.3721   23.7066 N   0  0  0  0  0  0  0  0  0  0  0  0
   10.5680  -15.7364   23.2753 C   0  0  0  0  0  0  0  0  0  0  0  0
   11.0034  -14.9906   22.3845 O   0  0  0  0  0  0  0  0  0  0  0  0
    6.5711  -14.6413   19.9613 O   0  0  0  0  0  0  0  0  0  0  0  0
   13.6133  -18.2091   25.6791 C   0  0  0  0  0  0  0  0  0  0  0  0
   12.3795  -17.6441   25.4223 C   0  0  1  0  0  0  0  0  0  0  0  0
   12.4431  -16.2491   24.8806 N   0  0  0  0  0  0  0  0  0  0  0  0
   11.1751  -15.6731   24.5541 C   0  0  0  0  0  0  0  0  0  0  0  0
   13.4177  -16.1905   23.7810 O   0  0  0  0  0  0  0  0  0  0  0  0
   14.3079  -15.3028   23.6863 O   0  0  0  0  0  0  0  0  0  0  0  0
  2  1  1  1
  3  2  1  0
  3  4  1  0
  4  9  2  0
  5  4  1  0
  5  6  2  0
  6  7  1  0
  7  8  2  0
  9  8  1  0
 10 20  1  0
 10  2  1  0
 11 10  2  0
 13 12  1  0
 14 13  2  0
 15 13  1  0
 16 15  1  0
 17 16  1  0
 18 17  1  0
 19 18  1  6
 19 20  1  0
 21 19  1  0
 21 26  1  0
 22 21  2  0
 24 23  1  0
 25 24  1  1
 25 26  1  0
 25 27  1  0
 27 28  2  0
 27 29  1  0
M  END
$$$$
