FRS.pdb
     RDKit          3D

 29 29  0  0  1  0  0  0  0  0999 V2000
    6.6749  -17.5157   26.6109 N   0  0  0  0  0  0  0  0  0  0  0  0
    6.8724  -16.4166   25.7203 C   0  0  1  0  0  0  0  0  0  0  0  0
    7.9455  -15.5126   26.3424 C   0  0  0  0  0  0  0  0  0  0  0  0
    7.4742  -14.1317   26.5072 C   0  0  0  0  0  0  0  0  0  0  0  0
    8.2618  -13.2080   27.1497 C   0  0  0  0  0  0  0  0  0  0  0  0
    7.8199  -11.8958   27.3093 C   0  0  0  0  0  0  0  0  0  0  0  0
    6.5770  -11.4946   26.8236 C   0  0  0  0  0  0  0  0  0  0  0  0
    5.7843  -12.4329   26.1743 C   0  0  0  0  0  0  0  0  0  0  0  0
    6.2492  -13.7343   26.0290 C   0  0  0  0  0  0  0  0  0  0  0  0
    7.4155  -16.8302   24.3998 C   0  0  0  0  0  0  0  0  0  0  0  0
    8.1688  -17.8622   24.4193 O   0  0  0  0  0  0  0  0  0  0  0  0
    8.1548  -13.3984   17.0666 N   0  0  0  0  0  0  0  0  0  0  0  0
    8.3231  -12.9973   18.4167 C   0  0  0  0  0  0  0  0  0  0  0  0
    8.1939  -11.7565   18.7708 N   0  0  0  0  0  0  0  0  0  0  0  0
    8.6445  -13.9422   19.4461 N   0  0  0  0  0  0  0  0  0  0  0  0
    9.0441  -15.2910   19.1063 C   0  0  0  0  0  0  0  0  0  0  0  0
    7.9785  -16.2998   19.5077 C   0  0  0  0  0  0  0  0  0  0  0  0
    7.3313  -15.8255   20.7672 C   0  0  0  0  0  0  0  0  0  0  0  0
    7.8149  -16.6053   21.9838 C   0  0  2  0  0  0  0  0  0  0  0  0
    7.1563  -16.1760   23.1833 N   0  0  0  0  0  0  0  0  0  0  0  0
    9.3004  -16.5526   22.0797 C   0  0  0  0  0  0  0  0  0  0  0  0
    9.8420  -15.4632   22.3231 O   0  0  0  0  0  0  0  0  0  0  0  0
    8.5053  -11.4836   19.7261 O   0  0  0  0  0  0  0  0  0  0  0  0
   11.7170  -20.0506   21.6279 C   0  0  0  0  0  0  0  0  0  0  0  0
   12.2209  -18.9448   22.2842 C   0  0  1  0  0  0  0  0  0  0  0  0
   11.5619  -17.6535   21.9077 N   0  0  0  0  0  0  0  0  0  0  0  0
   10.1318  -17.6869   21.9065 C   0  0  0  0  0  0  0  0  0  0  0  0
   12.1407  -17.1514   20.6526 O   0  0  0  0  0  0  0  0  0  0  0  0
   11.4575  -16.8946   19.6247 O   0  0  0  0  0  0  0  0  0  0  0  0
  2  1  1  1
  3  2  1  0
  3  4  1  0
  4  9  2  0
  5  4  1  0
  5  6  2  0
  6  7  1  0
  7  8  2  0
  9  8  1  0
 10 20  1  0
 10  2  1  0
 11 10  2  0
 13 12  1  0
 14 13  2  0
 15 13  1  0
 16 15  1  0
 17 16  1  0
 18 17  1  0
 19 18  1  6
 19 20  1  0
 21 19  1  0
 21 26  1  0
 22 21  2  0
 24 23  1  0
 25 24  1  1
 25 26  1  0
 25 27  1  0
 27 28  2  0
 27 29  1  0
M  END
$$$$
