FRS.pdb
     RDKit          3D

 29 29  0  0  1  0  0  0  0  0999 V2000
    5.6045  -16.0543   25.2711 N   0  0  0  0  0  0  0  0  0  0  0  0
    6.9259  -15.6439   24.9169 C   0  0  1  0  0  0  0  0  0  0  0  0
    7.5222  -14.9252   26.1350 C   0  0  0  0  0  0  0  0  0  0  0  0
    6.8897  -13.6208   26.3688 C   0  0  0  0  0  0  0  0  0  0  0  0
    5.7014  -13.5453   27.0534 C   0  0  0  0  0  0  0  0  0  0  0  0
    5.0961  -12.3101   27.2783 C   0  0  0  0  0  0  0  0  0  0  0  0
    5.6795  -11.1320   26.8166 C   0  0  0  0  0  0  0  0  0  0  0  0
    6.8817  -11.2140   26.1248 C   0  0  0  0  0  0  0  0  0  0  0  0
    7.4634  -12.4583   25.9144 C   0  0  0  0  0  0  0  0  0  0  0  0
    7.8351  -16.7879   24.6440 C   0  0  0  0  0  0  0  0  0  0  0  0
    7.4198  -17.9244   25.0548 O   0  0  0  0  0  0  0  0  0  0  0  0
   10.2842  -13.9655   18.8755 N   0  0  0  0  0  0  0  0  0  0  0  0
    9.0579  -13.6336   18.2444 C   0  0  0  0  0  0  0  0  0  0  0  0
    8.9420  -13.6435   16.9529 N   0  0  0  0  0  0  0  0  0  0  0  0
    7.8968  -13.2716   19.0037 N   0  0  0  0  0  0  0  0  0  0  0  0
    7.8021  -13.6103   20.4075 C   0  0  0  0  0  0  0  0  0  0  0  0
    8.5176  -14.9186   20.7089 C   0  0  0  0  0  0  0  0  0  0  0  0
    8.3926  -15.1981   22.1705 C   0  0  0  0  0  0  0  0  0  0  0  0
    9.1179  -16.4777   22.5690 C   0  0  2  0  0  0  0  0  0  0  0  0
    9.0735  -16.6915   23.9864 N   0  0  0  0  0  0  0  0  0  0  0  0
   10.5017  -16.4855   22.0180 C   0  0  0  0  0  0  0  0  0  0  0  0
   11.0950  -15.4038   21.8864 O   0  0  0  0  0  0  0  0  0  0  0  0
    8.0058  -13.4454   16.5425 O   0  0  0  0  0  0  0  0  0  0  0  0
   14.2140  -19.0943   20.0889 C   0  0  0  0  0  0  0  0  0  0  0  0
   12.9004  -19.0357   20.5115 C   0  0  2  0  0  0  0  0  0  0  0  0
   12.4918  -17.7056   21.0658 N   0  0  0  0  0  0  0  0  0  0  0  0
   11.1796  -17.6691   21.6342 C   0  0  0  0  0  0  0  0  0  0  0  0
   12.7281  -16.6584   20.0608 O   0  0  0  0  0  0  0  0  0  0  0  0
   11.8989  -16.3586   19.1597 O   0  0  0  0  0  0  0  0  0  0  0  0
  2  1  1  1
  3  2  1  0
  3  4  1  0
  4  9  2  0
  5  4  1  0
  5  6  2  0
  6  7  1  0
  7  8  2  0
  9  8  1  0
 10 20  1  0
 10  2  1  0
 11 10  2  0
 13 12  1  0
 14 13  2  0
 15 13  1  0
 16 15  1  0
 17 16  1  0
 18 17  1  0
 19 18  1  1
 19 20  1  0
 21 19  1  0
 21 26  1  0
 22 21  2  0
 24 23  1  0
 25 24  1  1
 25 26  1  0
 25 27  1  0
 27 28  2  0
 27 29  1  0
M  END
$$$$
