FRS.pdb
     RDKit          3D

 29 29  0  0  1  0  0  0  0  0999 V2000
    5.7088  -18.0111   25.1270 N   0  0  0  0  0  0  0  0  0  0  0  0
    6.0671  -16.6390   24.9568 C   0  0  1  0  0  0  0  0  0  0  0  0
    6.5217  -16.1131   26.3252 C   0  0  0  0  0  0  0  0  0  0  0  0
    6.6877  -14.6541   26.3270 C   0  0  0  0  0  0  0  0  0  0  0  0
    5.5967  -13.8374   26.1565 C   0  0  0  0  0  0  0  0  0  0  0  0
    5.7479  -12.4518   26.1571 C   0  0  0  0  0  0  0  0  0  0  0  0
    7.0014  -11.8682   26.3297 C   0  0  0  0  0  0  0  0  0  0  0  0
    8.1017  -12.6990   26.5019 C   0  0  0  0  0  0  0  0  0  0  0  0
    7.9227  -14.0770   26.4970 C   0  0  0  0  0  0  0  0  0  0  0  0
    7.2304  -16.4513   24.0505 C   0  0  0  0  0  0  0  0  0  0  0  0
    8.1285  -17.3575   24.1216 O   0  0  0  0  0  0  0  0  0  0  0  0
    7.3891  -15.0148   17.3615 N   0  0  0  0  0  0  0  0  0  0  0  0
    8.3614  -13.9897   17.4871 C   0  0  0  0  0  0  0  0  0  0  0  0
    9.3480  -13.8925   16.6511 N   0  0  0  0  0  0  0  0  0  0  0  0
    8.2983  -13.0201   18.5414 N   0  0  0  0  0  0  0  0  0  0  0  0
    7.2015  -13.0320   19.4856 C   0  0  0  0  0  0  0  0  0  0  0  0
    7.2330  -14.2820   20.3520 C   0  0  0  0  0  0  0  0  0  0  0  0
    8.4028  -14.1860   21.2754 C   0  0  0  0  0  0  0  0  0  0  0  0
    8.4777  -15.3760   22.2243 C   0  0  2  0  0  0  0  0  0  0  0  0
    7.3891  -15.3774   23.1580 N   0  0  0  0  0  0  0  0  0  0  0  0
    9.8133  -15.4354   22.8810 C   0  0  0  0  0  0  0  0  0  0  0  0
   10.1839  -14.4674   23.5630 O   0  0  0  0  0  0  0  0  0  0  0  0
   10.0150  -13.1017   16.7687 O   0  0  0  0  0  0  0  0  0  0  0  0
   12.0282  -19.0409   23.2985 C   0  0  0  0  0  0  0  0  0  0  0  0
   12.2743  -17.9186   24.0649 C   0  0  1  0  0  0  0  0  0  0  0  0
   11.9821  -16.6240   23.3706 N   0  0  0  0  0  0  0  0  0  0  0  0
   10.6874  -16.5448   22.7672 C   0  0  0  0  0  0  0  0  0  0  0  0
   13.0820  -16.2981   22.4506 O   0  0  0  0  0  0  0  0  0  0  0  0
   12.9155  -16.0564   21.2245 O   0  0  0  0  0  0  0  0  0  0  0  0
  2  1  1  1
  3  2  1  0
  3  4  1  0
  4  9  2  0
  5  4  1  0
  5  6  2  0
  6  7  1  0
  7  8  2  0
  9  8  1  0
 10 20  1  0
 10  2  1  0
 11 10  2  0
 13 12  1  0
 14 13  2  0
 15 13  1  0
 16 15  1  0
 17 16  1  0
 18 17  1  0
 19 18  1  1
 19 20  1  0
 21 19  1  0
 21 26  1  0
 22 21  2  0
 24 23  1  0
 25 24  1  1
 25 26  1  0
 25 27  1  0
 27 28  2  0
 27 29  1  0
M  END
$$$$
