FRS.pdb
     RDKit          3D

 29 29  0  0  1  0  0  0  0  0999 V2000
    6.0262  -17.1724   26.0923 N   0  0  0  0  0  0  0  0  0  0  0  0
    6.7276  -16.2031   25.3121 C   0  0  1  0  0  0  0  0  0  0  0  0
    7.4928  -15.2989   26.2882 C   0  0  0  0  0  0  0  0  0  0  0  0
    7.0624  -13.8982   26.1940 C   0  0  0  0  0  0  0  0  0  0  0  0
    6.0896  -13.4192   27.0369 C   0  0  0  0  0  0  0  0  0  0  0  0
    5.6769  -12.0906   26.9521 C   0  0  0  0  0  0  0  0  0  0  0  0
    6.2385  -11.2244   26.0163 C   0  0  0  0  0  0  0  0  0  0  0  0
    7.2223  -11.7141   25.1660 C   0  0  0  0  0  0  0  0  0  0  0  0
    7.6150  -13.0428   25.2719 C   0  0  0  0  0  0  0  0  0  0  0  0
    7.7625  -16.8057   24.4314 C   0  0  0  0  0  0  0  0  0  0  0  0
    8.3327  -17.8505   24.8964 O   0  0  0  0  0  0  0  0  0  0  0  0
    8.4408  -13.3622   17.3203 N   0  0  0  0  0  0  0  0  0  0  0  0
    7.9801  -12.9245   18.5885 C   0  0  0  0  0  0  0  0  0  0  0  0
    8.2854  -11.7503   19.0464 N   0  0  0  0  0  0  0  0  0  0  0  0
    7.1610  -13.7586   19.4186 N   0  0  0  0  0  0  0  0  0  0  0  0
    7.5288  -15.1364   19.6657 C   0  0  0  0  0  0  0  0  0  0  0  0
    8.6589  -15.2324   20.6795 C   0  0  0  0  0  0  0  0  0  0  0  0
    8.9729  -16.6757   20.8999 C   0  0  0  0  0  0  0  0  0  0  0  0
    9.1044  -17.0095   22.3809 C   0  0  2  0  0  0  0  0  0  0  0  0
    8.1317  -16.3102   23.1692 N   0  0  0  0  0  0  0  0  0  0  0  0
   10.5029  -16.7873   22.8428 C   0  0  0  0  0  0  0  0  0  0  0  0
   10.8965  -15.6222   23.0071 O   0  0  0  0  0  0  0  0  0  0  0  0
    8.0060  -11.5157   20.0215 O   0  0  0  0  0  0  0  0  0  0  0  0
   12.7520  -20.0470   23.9143 C   0  0  0  0  0  0  0  0  0  0  0  0
   13.3841  -18.8511   24.1930 C   0  0  1  0  0  0  0  0  0  0  0  0
   12.7672  -17.6600   23.5267 N   0  0  0  0  0  0  0  0  0  0  0  0
   11.4121  -17.8419   23.1058 C   0  0  0  0  0  0  0  0  0  0  0  0
   13.6558  -17.1760   22.4596 O   0  0  0  0  0  0  0  0  0  0  0  0
   13.2644  -16.9264   21.2875 O   0  0  0  0  0  0  0  0  0  0  0  0
  2  1  1  1
  3  2  1  0
  3  4  1  0
  4  9  2  0
  5  4  1  0
  5  6  2  0
  6  7  1  0
  7  8  2  0
  9  8  1  0
 10 20  1  0
 10  2  1  0
 11 10  2  0
 13 12  1  0
 14 13  2  0
 15 13  1  0
 16 15  1  0
 17 16  1  0
 18 17  1  0
 19 18  1  6
 19 20  1  0
 21 19  1  0
 21 26  1  0
 22 21  2  0
 24 23  1  0
 25 24  1  1
 25 26  1  0
 25 27  1  0
 27 28  2  0
 27 29  1  0
M  END
$$$$
