KTM.pdb
     RDKit          3D

 25 24  0  0  1  0  0  0  0  0999 V2000
    9.6068  -15.2397   18.5250 N   0  0  0  0  0  0  0  0  0  0  0  0
    8.8518  -14.3100   19.2608 C   0  0  1  0  0  0  0  0  0  0  0  0
    7.7343  -13.6733   18.5538 C   0  0  0  0  0  0  0  0  0  0  0  0
    7.9134  -13.2034   17.1989 C   0  0  0  0  0  0  0  0  0  0  0  0
    7.5759  -13.9898   16.0304 C   0  0  0  0  0  0  0  0  0  0  0  0
    7.6972  -13.5459   14.6443 C   0  0  0  0  0  0  0  0  0  0  0  0
    7.1139  -14.4209   13.6530 N   0  0  0  0  0  0  0  0  0  0  0  0
    8.3893  -15.0096   20.5176 C   0  0  0  0  0  0  0  0  0  0  0  0
    7.1953  -14.9368   20.9046 O   0  0  0  0  0  0  0  0  0  0  0  0
    8.8744  -18.6629   21.0935 C   0  0  0  0  0  0  0  0  0  0  0  0
    9.4991  -17.9756   22.2971 C   0  0  1  0  0  0  0  0  0  0  0  0
   10.8690  -17.8782   22.0919 O   0  0  0  0  0  0  0  0  0  0  0  0
    8.9211  -16.5709   22.4148 C   0  0  2  0  0  0  0  0  0  0  0  0
    9.3042  -15.7620   21.2807 N   0  0  0  0  0  0  0  0  0  0  0  0
    9.4039  -15.9253   23.6614 C   0  0  0  0  0  0  0  0  0  0  0  0
   10.5385  -15.3718   23.6960 O   0  0  0  0  0  0  0  0  0  0  0  0
    6.4473  -10.5776   25.9096 C   0  0  0  0  0  0  0  0  0  0  0  0
    6.6056  -12.1707   26.7693 S   0  0  0  0  0  0  0  0  0  0  0  0
    7.9240  -13.1791   26.0321 C   0  0  0  0  0  0  0  0  0  0  0  0
    8.0871  -14.4676   26.7708 C   0  0  0  0  0  0  0  0  0  0  0  0
    9.1276  -15.3283   26.0917 C   0  0  2  0  0  0  0  0  0  0  0  0
    8.6393  -15.8941   24.8531 N   0  0  0  0  0  0  0  0  0  0  0  0
    9.4981  -16.4571   26.9871 C   0  0  0  0  0  0  0  0  0  0  0  0
    9.0352  -17.6083   26.7736 O   0  0  0  0  0  0  0  0  0  0  0  0
   10.3556  -16.2819   28.0742 O   0  0  0  0  0  0  0  0  0  0  0  0
  2  1  1  6
  3  2  1  0
  4  3  1  0
  5  6  1  0
  5  4  1  0
  7  6  1  0
  8  2  1  0
  8  9  2  0
 11 10  1  6
 11 13  1  0
 12 11  1  0
 13 14  1  6
 14  8  1  0
 15 13  1  0
 16 15  2  0
 18 19  1  0
 18 17  1  0
 19 20  1  0
 21 20  1  1
 21 23  1  0
 21 22  1  0
 22 15  1  0
 23 25  1  0
 24 23  2  0
M  END
$$$$
