KTM.pdb
     RDKit          3D

 25 24  0  0  1  0  0  0  0  0999 V2000
    5.9008  -16.0266   19.2706 N   0  0  0  0  0  0  0  0  0  0  0  0
    7.2346  -15.7034   19.5741 C   0  0  1  0  0  0  0  0  0  0  0  0
    7.6210  -14.2987   19.3961 C   0  0  0  0  0  0  0  0  0  0  0  0
    7.4774  -13.6708   18.1024 C   0  0  0  0  0  0  0  0  0  0  0  0
    8.4132  -13.8629   17.0138 C   0  0  0  0  0  0  0  0  0  0  0  0
    8.3170  -13.2474   15.6928 C   0  0  0  0  0  0  0  0  0  0  0  0
    9.3038  -13.6769   14.7283 N   0  0  0  0  0  0  0  0  0  0  0  0
    7.4962  -16.1783   20.9844 C   0  0  0  0  0  0  0  0  0  0  0  0
    6.5932  -16.1583   21.8591 O   0  0  0  0  0  0  0  0  0  0  0  0
   10.5535  -18.7090   23.9432 C   0  0  0  0  0  0  0  0  0  0  0  0
   10.2982  -18.1206   22.5647 C   0  0  1  0  0  0  0  0  0  0  0  0
   10.0141  -19.1566   21.6849 O   0  0  0  0  0  0  0  0  0  0  0  0
    9.0880  -17.1983   22.6414 C   0  0  2  0  0  0  0  0  0  0  0  0
    8.7733  -16.6558   21.3399 N   0  0  0  0  0  0  0  0  0  0  0  0
    9.3574  -16.0834   23.5839 C   0  0  0  0  0  0  0  0  0  0  0  0
   10.2404  -15.2208   23.3171 O   0  0  0  0  0  0  0  0  0  0  0  0
    6.3490  -10.8257   28.5082 C   0  0  0  0  0  0  0  0  0  0  0  0
    6.1108  -12.1960   27.3386 S   0  0  0  0  0  0  0  0  0  0  0  0
    7.6906  -13.0060   26.9558 C   0  0  0  0  0  0  0  0  0  0  0  0
    7.5081  -14.0718   25.9247 C   0  0  0  0  0  0  0  0  0  0  0  0
    8.8198  -14.7778   25.6685 C   0  0  2  0  0  0  0  0  0  0  0  0
    8.6577  -15.9272   24.8052 N   0  0  0  0  0  0  0  0  0  0  0  0
    9.3835  -15.2594   26.9582 C   0  0  0  0  0  0  0  0  0  0  0  0
    9.1920  -16.4487   27.3242 O   0  0  0  0  0  0  0  0  0  0  0  0
   10.1303  -14.4248   27.7911 O   0  0  0  0  0  0  0  0  0  0  0  0
  2  1  1  1
  3  2  1  0
  4  3  1  0
  5  6  1  0
  5  4  1  0
  7  6  1  0
  8  2  1  0
  8  9  2  0
 11 10  1  1
 11 13  1  0
 12 11  1  0
 13 14  1  6
 14  8  1  0
 15 13  1  0
 16 15  2  0
 18 19  1  0
 18 17  1  0
 19 20  1  0
 21 20  1  1
 21 23  1  0
 21 22  1  0
 22 15  1  0
 23 25  1  0
 24 23  2  0
M  END
$$$$
