KTM.pdb
     RDKit          3D

 25 24  0  0  1  0  0  0  0  0999 V2000
    9.4104  -17.5142   17.9242 N   0  0  0  0  0  0  0  0  0  0  0  0
    9.3873  -16.2838   18.6033 C   0  0  1  0  0  0  0  0  0  0  0  0
    8.8197  -15.1459   17.8704 C   0  0  0  0  0  0  0  0  0  0  0  0
    8.7595  -15.1770   16.4268 C   0  0  0  0  0  0  0  0  0  0  0  0
    8.3858  -14.0345   15.6189 C   0  0  0  0  0  0  0  0  0  0  0  0
    8.2189  -14.0387   14.1680 C   0  0  0  0  0  0  0  0  0  0  0  0
    7.7623  -12.7971   13.5864 N   0  0  0  0  0  0  0  0  0  0  0  0
    8.6723  -16.5141   19.9143 C   0  0  0  0  0  0  0  0  0  0  0  0
    7.4198  -16.4427   19.9972 O   0  0  0  0  0  0  0  0  0  0  0  0
    8.6748  -19.5291   21.8533 C   0  0  0  0  0  0  0  0  0  0  0  0
    9.2057  -18.4974   22.8359 C   0  0  1  0  0  0  0  0  0  0  0  0
   10.5916  -18.5789   22.8604 O   0  0  0  0  0  0  0  0  0  0  0  0
    8.8058  -17.1088   22.3532 C   0  0  2  0  0  0  0  0  0  0  0  0
    9.4121  -16.8158   21.0750 N   0  0  0  0  0  0  0  0  0  0  0  0
    9.2297  -16.0855   23.3416 C   0  0  0  0  0  0  0  0  0  0  0  0
   10.3749  -15.5587   23.2644 O   0  0  0  0  0  0  0  0  0  0  0  0
    5.3511  -11.9693   26.5803 C   0  0  0  0  0  0  0  0  0  0  0  0
    6.9885  -11.5544   27.2505 S   0  0  0  0  0  0  0  0  0  0  0  0
    8.1776  -12.8903   26.9350 C   0  0  0  0  0  0  0  0  0  0  0  0
    7.7495  -13.7222   25.7700 C   0  0  0  0  0  0  0  0  0  0  0  0
    8.8289  -14.7203   25.4189 C   0  0  2  0  0  0  0  0  0  0  0  0
    8.3956  -15.6524   24.4010 N   0  0  0  0  0  0  0  0  0  0  0  0
    9.1871  -15.5088   26.6284 C   0  0  0  0  0  0  0  0  0  0  0  0
    8.7021  -16.6585   26.7971 O   0  0  0  0  0  0  0  0  0  0  0  0
   10.0569  -15.0106   27.5996 O   0  0  0  0  0  0  0  0  0  0  0  0
  2  1  1  6
  3  2  1  0
  4  3  1  0
  5  6  1  0
  5  4  1  0
  7  6  1  0
  8  2  1  0
  8  9  2  0
 11 10  1  6
 11 13  1  0
 12 11  1  0
 13 14  1  6
 14  8  1  0
 15 13  1  0
 16 15  2  0
 18 19  1  0
 18 17  1  0
 19 20  1  0
 21 20  1  1
 21 23  1  0
 21 22  1  0
 22 15  1  0
 23 25  1  0
 24 23  2  0
M  END
$$$$
