KTM.pdb
     RDKit          3D

 25 24  0  0  1  0  0  0  0  0999 V2000
    5.2224  -18.5966   23.1313 N   0  0  0  0  0  0  0  0  0  0  0  0
    5.2635  -18.7306   21.7328 C   0  0  1  0  0  0  0  0  0  0  0  0
    4.0364  -18.3791   21.0084 C   0  0  0  0  0  0  0  0  0  0  0  0
    2.9323  -19.3108   20.9679 C   0  0  0  0  0  0  0  0  0  0  0  0
    1.9028  -19.3728   21.9847 C   0  0  0  0  0  0  0  0  0  0  0  0
    0.7834  -20.3107   22.0036 C   0  0  0  0  0  0  0  0  0  0  0  0
   -0.5291  -19.7172   22.1198 N   0  0  0  0  0  0  0  0  0  0  0  0
    6.4472  -17.9282   21.2448 C   0  0  0  0  0  0  0  0  0  0  0  0
    6.8525  -18.0169   20.0579 O   0  0  0  0  0  0  0  0  0  0  0  0
    7.4290  -16.0541   19.3469 C   0  0  0  0  0  0  0  0  0  0  0  0
    7.6585  -15.2277   20.6023 C   0  0  1  0  0  0  0  0  0  0  0  0
    6.4484  -14.6722   20.9961 O   0  0  0  0  0  0  0  0  0  0  0  0
    8.1585  -16.1464   21.7100 C   0  0  2  0  0  0  0  0  0  0  0  0
    7.1194  -17.0594   22.1272 N   0  0  0  0  0  0  0  0  0  0  0  0
    8.6004  -15.3421   22.8769 C   0  0  0  0  0  0  0  0  0  0  0  0
    8.4053  -14.0947   22.9034 O   0  0  0  0  0  0  0  0  0  0  0  0
    6.6308  -11.0004   26.7431 C   0  0  0  0  0  0  0  0  0  0  0  0
    6.7929  -12.8003   26.9342 S   0  0  0  0  0  0  0  0  0  0  0  0
    7.4685  -13.5558   25.4271 C   0  0  0  0  0  0  0  0  0  0  0  0
    7.5939  -15.0366   25.5822 C   0  0  0  0  0  0  0  0  0  0  0  0
    9.0259  -15.4639   25.3555 C   0  0  2  0  0  0  0  0  0  0  0  0
    9.2496  -15.9129   23.9986 N   0  0  0  0  0  0  0  0  0  0  0  0
    9.3553  -16.5948   26.2640 C   0  0  0  0  0  0  0  0  0  0  0  0
    9.5940  -16.3761   27.4808 O   0  0  0  0  0  0  0  0  0  0  0  0
    9.4100  -17.9125   25.8073 O   0  0  0  0  0  0  0  0  0  0  0  0
  2  1  1  1
  3  2  1  0
  4  3  1  0
  5  6  1  0
  5  4  1  0
  7  6  1  0
  8  2  1  0
  8  9  2  0
 11 10  1  6
 11 13  1  0
 12 11  1  0
 13 14  1  1
 14  8  1  0
 15 13  1  0
 16 15  2  0
 18 19  1  0
 18 17  1  0
 19 20  1  0
 21 20  1  6
 21 23  1  0
 21 22  1  0
 22 15  1  0
 23 25  1  0
 24 23  2  0
M  END
$$$$
