KTM.pdb
     RDKit          3D

 25 24  0  0  1  0  0  0  0  0999 V2000
    9.8578  -18.6820   19.9342 N   0  0  0  0  0  0  0  0  0  0  0  0
   10.9288  -17.7735   19.8780 C   0  0  1  0  0  0  0  0  0  0  0  0
   11.4540  -17.4675   18.5421 C   0  0  0  0  0  0  0  0  0  0  0  0
   12.1197  -18.4971   17.7770 C   0  0  0  0  0  0  0  0  0  0  0  0
   13.3048  -19.1919   18.2356 C   0  0  0  0  0  0  0  0  0  0  0  0
   14.0039  -20.2488   17.5095 C   0  0  0  0  0  0  0  0  0  0  0  0
   15.1014  -20.8721   18.2134 N   0  0  0  0  0  0  0  0  0  0  0  0
   10.4884  -16.5231   20.6029 C   0  0  0  0  0  0  0  0  0  0  0  0
   11.1635  -15.4638   20.5484 O   0  0  0  0  0  0  0  0  0  0  0  0
    7.3401  -14.5303   20.4069 C   0  0  0  0  0  0  0  0  0  0  0  0
    7.4078  -15.0574   21.8313 C   0  0  1  0  0  0  0  0  0  0  0  0
    6.6376  -16.2097   21.9159 O   0  0  0  0  0  0  0  0  0  0  0  0
    8.8539  -15.4108   22.1556 C   0  0  2  0  0  0  0  0  0  0  0  0
    9.2992  -16.5306   21.3588 N   0  0  0  0  0  0  0  0  0  0  0  0
    8.9833  -15.7522   23.5945 C   0  0  0  0  0  0  0  0  0  0  0  0
    8.8445  -16.9459   23.9827 O   0  0  0  0  0  0  0  0  0  0  0  0
    6.0899  -10.4892   26.8982 C   0  0  0  0  0  0  0  0  0  0  0  0
    6.2816  -12.2670   27.2220 S   0  0  0  0  0  0  0  0  0  0  0  0
    7.2399  -13.0683   25.9036 C   0  0  0  0  0  0  0  0  0  0  0  0
    7.4138  -14.5262   26.1806 C   0  0  0  0  0  0  0  0  0  0  0  0
    8.8559  -14.9273   25.9699 C   0  0  2  0  0  0  0  0  0  0  0  0
    9.2627  -14.7836   24.5892 N   0  0  0  0  0  0  0  0  0  0  0  0
    9.0328  -16.3559   26.3451 C   0  0  0  0  0  0  0  0  0  0  0  0
    8.6384  -17.2646   25.5679 O   0  0  0  0  0  0  0  0  0  0  0  0
    9.6310  -16.7309   27.5490 O   0  0  0  0  0  0  0  0  0  0  0  0
  2  1  1  6
  3  2  1  0
  4  3  1  0
  5  6  1  0
  5  4  1  0
  7  6  1  0
  8  2  1  0
  8  9  2  0
 11 10  1  6
 11 13  1  0
 12 11  1  0
 13 14  1  6
 14  8  1  0
 15 13  1  0
 16 15  2  0
 18 19  1  0
 18 17  1  0
 19 20  1  0
 21 20  1  6
 21 23  1  0
 21 22  1  0
 22 15  1  0
 23 25  1  0
 24 23  2  0
M  END
$$$$
