KTM.pdb
     RDKit          3D

 25 24  0  0  1  0  0  0  0  0999 V2000
    6.3442  -18.6330   18.7365 N   0  0  0  0  0  0  0  0  0  0  0  0
    5.8325  -18.1306   19.9454 C   0  0  1  0  0  0  0  0  0  0  0  0
    4.5616  -18.7046   20.4033 C   0  0  0  0  0  0  0  0  0  0  0  0
    4.2169  -20.0633   20.0515 C   0  0  0  0  0  0  0  0  0  0  0  0
    3.8440  -21.0694   21.0243 C   0  0  0  0  0  0  0  0  0  0  0  0
    2.9280  -22.1818   20.7868 C   0  0  0  0  0  0  0  0  0  0  0  0
    2.7237  -23.0747   21.9046 N   0  0  0  0  0  0  0  0  0  0  0  0
    6.9187  -18.2832   20.9845 C   0  0  0  0  0  0  0  0  0  0  0  0
    7.1267  -19.3837   21.5560 O   0  0  0  0  0  0  0  0  0  0  0  0
   10.2993  -18.3609   20.6634 C   0  0  0  0  0  0  0  0  0  0  0  0
   10.1520  -17.1621   21.5868 C   0  0  1  0  0  0  0  0  0  0  0  0
   10.1866  -16.0042   20.8211 O   0  0  0  0  0  0  0  0  0  0  0  0
    8.8015  -17.2451   22.2872 C   0  0  2  0  0  0  0  0  0  0  0  0
    7.7221  -17.1782   21.3293 N   0  0  0  0  0  0  0  0  0  0  0  0
    8.6632  -16.1310   23.2585 C   0  0  0  0  0  0  0  0  0  0  0  0
    8.2404  -15.0027   22.8803 O   0  0  0  0  0  0  0  0  0  0  0  0
    6.7535  -10.9721   26.2175 C   0  0  0  0  0  0  0  0  0  0  0  0
    6.1684  -12.5796   26.8305 S   0  0  0  0  0  0  0  0  0  0  0  0
    7.5474  -13.7476   27.0110 C   0  0  0  0  0  0  0  0  0  0  0  0
    7.5389  -14.7581   25.9104 C   0  0  0  0  0  0  0  0  0  0  0  0
    8.9536  -15.1620   25.5642 C   0  0  2  0  0  0  0  0  0  0  0  0
    8.9894  -16.2660   24.6300 N   0  0  0  0  0  0  0  0  0  0  0  0
    9.6620  -15.5940   26.7990 C   0  0  0  0  0  0  0  0  0  0  0  0
    9.9751  -16.8035   26.9549 O   0  0  0  0  0  0  0  0  0  0  0  0
    9.9975  -14.6901   27.8080 O   0  0  0  0  0  0  0  0  0  0  0  0
  2  1  1  6
  3  2  1  0
  4  3  1  0
  5  6  1  0
  5  4  1  0
  7  6  1  0
  8  2  1  0
  8  9  2  0
 11 10  1  6
 11 13  1  0
 12 11  1  0
 13 14  1  6
 14  8  1  0
 15 13  1  0
 16 15  2  0
 18 19  1  0
 18 17  1  0
 19 20  1  0
 21 20  1  1
 21 23  1  0
 21 22  1  0
 22 15  1  0
 23 25  1  0
 24 23  2  0
M  END
$$$$
