KTM.pdb
     RDKit          3D

 25 24  0  0  1  0  0  0  0  0999 V2000
    7.1269  -16.5738   17.5579 N   0  0  0  0  0  0  0  0  0  0  0  0
    7.8903  -15.8021   18.4508 C   0  0  1  0  0  0  0  0  0  0  0  0
    7.8739  -14.3504   18.2354 C   0  0  0  0  0  0  0  0  0  0  0  0
    8.7432  -13.4972   19.0132 C   0  0  0  0  0  0  0  0  0  0  0  0
   10.1865  -13.6180   19.0154 C   0  0  0  0  0  0  0  0  0  0  0  0
   11.1056  -12.8031   19.8054 C   0  0  0  0  0  0  0  0  0  0  0  0
   12.4943  -13.2000   19.7572 N   0  0  0  0  0  0  0  0  0  0  0  0
    7.4388  -16.1629   19.8468 C   0  0  0  0  0  0  0  0  0  0  0  0
    6.2226  -16.1471   20.1651 O   0  0  0  0  0  0  0  0  0  0  0  0
    8.1661  -19.3408   21.4384 C   0  0  0  0  0  0  0  0  0  0  0  0
    8.6739  -18.3256   22.4499 C   0  0  1  0  0  0  0  0  0  0  0  0
   10.0510  -18.2118   22.3123 O   0  0  0  0  0  0  0  0  0  0  0  0
    8.0390  -16.9737   22.1495 C   0  0  2  0  0  0  0  0  0  0  0  0
    8.3895  -16.5262   20.8213 N   0  0  0  0  0  0  0  0  0  0  0  0
    8.4940  -15.9668   23.1409 C   0  0  0  0  0  0  0  0  0  0  0  0
    9.5667  -15.3268   22.9549 O   0  0  0  0  0  0  0  0  0  0  0  0
    5.6273  -10.8906   26.9107 C   0  0  0  0  0  0  0  0  0  0  0  0
    6.2165  -12.2811   27.9214 S   0  0  0  0  0  0  0  0  0  0  0  0
    7.5820  -13.1505   27.0980 C   0  0  0  0  0  0  0  0  0  0  0  0
    7.0733  -14.0193   25.9939 C   0  0  0  0  0  0  0  0  0  0  0  0
    8.2247  -14.7238   25.3138 C   0  0  2  0  0  0  0  0  0  0  0  0
    7.7698  -15.6737   24.3221 N   0  0  0  0  0  0  0  0  0  0  0  0
    9.0146  -15.4740   26.3269 C   0  0  0  0  0  0  0  0  0  0  0  0
    8.8897  -16.7231   26.4239 O   0  0  0  0  0  0  0  0  0  0  0  0
    9.9046  -14.8309   27.1883 O   0  0  0  0  0  0  0  0  0  0  0  0
  2  1  1  6
  3  2  1  0
  4  3  1  0
  5  6  1  0
  5  4  1  0
  7  6  1  0
  8  2  1  0
  8  9  2  0
 11 10  1  6
 11 13  1  0
 12 11  1  0
 13 14  1  6
 14  8  1  0
 15 13  1  0
 16 15  2  0
 18 19  1  0
 18 17  1  0
 19 20  1  0
 21 20  1  1
 21 23  1  0
 21 22  1  0
 22 15  1  0
 23 25  1  0
 24 23  2  0
M  END
$$$$
