KTM.pdb
     RDKit          3D

 25 24  0  0  1  0  0  0  0  0999 V2000
   10.0244  -18.2818   18.5817 N   0  0  0  0  0  0  0  0  0  0  0  0
   10.8445  -18.0606   19.7016 C   0  0  1  0  0  0  0  0  0  0  0  0
   12.2925  -18.0829   19.4630 C   0  0  0  0  0  0  0  0  0  0  0  0
   12.7984  -18.1736   18.1123 C   0  0  0  0  0  0  0  0  0  0  0  0
   13.7553  -19.1729   17.6840 C   0  0  0  0  0  0  0  0  0  0  0  0
   14.3148  -19.2917   16.3401 C   0  0  0  0  0  0  0  0  0  0  0  0
   15.2424  -20.3820   16.1420 N   0  0  0  0  0  0  0  0  0  0  0  0
   10.4029  -16.7567   20.3242 C   0  0  0  0  0  0  0  0  0  0  0  0
   10.9012  -15.6593   19.9659 O   0  0  0  0  0  0  0  0  0  0  0  0
    7.3143  -15.0079   20.1180 C   0  0  0  0  0  0  0  0  0  0  0  0
    7.4282  -15.3568   21.5935 C   0  0  1  0  0  0  0  0  0  0  0  0
    6.7539  -16.5490   21.8217 O   0  0  0  0  0  0  0  0  0  0  0  0
    8.8990  -15.5527   21.9392 C   0  0  2  0  0  0  0  0  0  0  0  0
    9.4137  -16.7561   21.3276 N   0  0  0  0  0  0  0  0  0  0  0  0
    9.0676  -15.6417   23.4114 C   0  0  0  0  0  0  0  0  0  0  0  0
    9.1186  -16.7674   23.9816 O   0  0  0  0  0  0  0  0  0  0  0  0
    7.0696  -10.8008   26.3497 C   0  0  0  0  0  0  0  0  0  0  0  0
    6.0683  -12.0194   27.2522 S   0  0  0  0  0  0  0  0  0  0  0  0
    6.5574  -13.7133   26.8166 C   0  0  0  0  0  0  0  0  0  0  0  0
    7.1841  -13.7562   25.4609 C   0  0  0  0  0  0  0  0  0  0  0  0
    8.5497  -14.3993   25.5393 C   0  0  2  0  0  0  0  0  0  0  0  0
    9.1780  -14.4984   24.2400 N   0  0  0  0  0  0  0  0  0  0  0  0
    8.4178  -15.7780   26.0820 C   0  0  0  0  0  0  0  0  0  0  0  0
    7.8576  -16.6736   25.3969 O   0  0  0  0  0  0  0  0  0  0  0  0
    8.9017  -16.1198   27.3457 O   0  0  0  0  0  0  0  0  0  0  0  0
  2  1  1  6
  3  2  1  0
  4  3  1  0
  5  6  1  0
  5  4  1  0
  7  6  1  0
  8  2  1  0
  8  9  2  0
 11 10  1  6
 11 13  1  0
 12 11  1  0
 13 14  1  6
 14  8  1  0
 15 13  1  0
 16 15  2  0
 18 19  1  0
 18 17  1  0
 19 20  1  0
 21 20  1  6
 21 23  1  0
 21 22  1  0
 22 15  1  0
 23 25  1  0
 24 23  2  0
M  END
$$$$
