KTM.pdb
     RDKit          3D

 25 24  0  0  1  0  0  0  0  0999 V2000
    3.7448  -21.0522   22.3316 N   0  0  0  0  0  0  0  0  0  0  0  0
    4.3217  -20.9093   23.6053 C   0  0  1  0  0  0  0  0  0  0  0  0
    4.2957  -22.0957   24.4689 C   0  0  0  0  0  0  0  0  0  0  0  0
    3.5984  -23.2856   24.0371 C   0  0  0  0  0  0  0  0  0  0  0  0
    3.7201  -23.8430   22.7059 C   0  0  0  0  0  0  0  0  0  0  0  0
    3.1123  -25.0898   22.2486 C   0  0  0  0  0  0  0  0  0  0  0  0
    3.3346  -25.4226   20.8600 N   0  0  0  0  0  0  0  0  0  0  0  0
    5.7296  -20.4007   23.4001 C   0  0  0  0  0  0  0  0  0  0  0  0
    6.7283  -21.0925   23.7242 O   0  0  0  0  0  0  0  0  0  0  0  0
    7.4719  -19.9901   20.5422 C   0  0  0  0  0  0  0  0  0  0  0  0
    7.5344  -18.5653   21.0691 C   0  0  1  0  0  0  0  0  0  0  0  0
    6.5504  -17.8149   20.4392 O   0  0  0  0  0  0  0  0  0  0  0  0
    7.2528  -18.5830   22.5662 C   0  0  2  0  0  0  0  0  0  0  0  0
    5.9419  -19.1275   22.8351 N   0  0  0  0  0  0  0  0  0  0  0  0
    7.3322  -17.2058   23.1147 C   0  0  0  0  0  0  0  0  0  0  0  0
    6.3567  -16.4128   22.9938 O   0  0  0  0  0  0  0  0  0  0  0  0
    6.4961  -11.0950   26.8607 C   0  0  0  0  0  0  0  0  0  0  0  0
    6.4474  -12.8998   26.6544 S   0  0  0  0  0  0  0  0  0  0  0  0
    7.7521  -13.4601   25.5221 C   0  0  0  0  0  0  0  0  0  0  0  0
    7.5521  -14.8917   25.1437 C   0  0  0  0  0  0  0  0  0  0  0  0
    8.6312  -15.3308   24.1808 C   0  0  2  0  0  0  0  0  0  0  0  0
    8.4773  -16.7145   23.7878 N   0  0  0  0  0  0  0  0  0  0  0  0
    9.9620  -15.1928   24.8312 C   0  0  0  0  0  0  0  0  0  0  0  0
   10.5840  -16.2176   25.2163 O   0  0  0  0  0  0  0  0  0  0  0  0
   10.5556  -13.9459   25.0330 O   0  0  0  0  0  0  0  0  0  0  0  0
  2  1  1  6
  3  2  1  0
  4  3  1  0
  5  6  1  0
  5  4  1  0
  7  6  1  0
  8  2  1  0
  8  9  2  0
 11 10  1  6
 11 13  1  0
 12 11  1  0
 13 14  1  6
 14  8  1  0
 15 13  1  0
 16 15  2  0
 18 19  1  0
 18 17  1  0
 19 20  1  0
 21 20  1  1
 21 23  1  0
 21 22  1  0
 22 15  1  0
 23 25  1  0
 24 23  2  0
M  END
$$$$
