KTM.pdb
     RDKit          3D

 25 24  0  0  1  0  0  0  0  0999 V2000
    8.1196  -17.3698   18.5575 N   0  0  0  0  0  0  0  0  0  0  0  0
    8.2742  -16.3745   19.5378 C   0  0  1  0  0  0  0  0  0  0  0  0
    7.2631  -15.3107   19.5512 C   0  0  0  0  0  0  0  0  0  0  0  0
    7.3081  -14.2620   18.5579 C   0  0  0  0  0  0  0  0  0  0  0  0
    8.2118  -13.1326   18.6303 C   0  0  0  0  0  0  0  0  0  0  0  0
    8.2483  -12.0128   17.6933 C   0  0  0  0  0  0  0  0  0  0  0  0
    9.2208  -10.9842   17.9840 N   0  0  0  0  0  0  0  0  0  0  0  0
    8.3614  -17.0766   20.8729 C   0  0  0  0  0  0  0  0  0  0  0  0
    7.4452  -17.8402   21.2710 O   0  0  0  0  0  0  0  0  0  0  0  0
   10.7469  -19.4096   22.2536 C   0  0  0  0  0  0  0  0  0  0  0  0
   10.8218  -18.2428   23.2254 C   0  0  1  0  0  0  0  0  0  0  0  0
   11.9414  -17.4806   22.9193 O   0  0  0  0  0  0  0  0  0  0  0  0
    9.5793  -17.3785   23.0512 C   0  0  2  0  0  0  0  0  0  0  0  0
    9.4864  -16.8806   21.6983 N   0  0  0  0  0  0  0  0  0  0  0  0
    9.6218  -16.2315   23.9927 C   0  0  0  0  0  0  0  0  0  0  0  0
   10.2305  -15.1703   23.6795 O   0  0  0  0  0  0  0  0  0  0  0  0
    5.7348  -11.8823   26.1404 C   0  0  0  0  0  0  0  0  0  0  0  0
    7.4179  -11.9652   26.8206 S   0  0  0  0  0  0  0  0  0  0  0  0
    7.7335  -13.5851   27.5789 C   0  0  0  0  0  0  0  0  0  0  0  0
    7.6483  -14.6764   26.5619 C   0  0  0  0  0  0  0  0  0  0  0  0
    9.0347  -15.1493   26.1890 C   0  0  2  0  0  0  0  0  0  0  0  0
    8.9981  -16.2609   25.2639 N   0  0  0  0  0  0  0  0  0  0  0  0
    9.7487  -15.6046   27.4120 C   0  0  0  0  0  0  0  0  0  0  0  0
    9.9148  -14.8119   28.3761 O   0  0  0  0  0  0  0  0  0  0  0  0
   10.2495  -16.9019   27.5306 O   0  0  0  0  0  0  0  0  0  0  0  0
  2  1  1  6
  3  2  1  0
  4  3  1  0
  5  6  1  0
  5  4  1  0
  7  6  1  0
  8  2  1  0
  8  9  2  0
 11 10  1  6
 11 13  1  0
 12 11  1  0
 13 14  1  6
 14  8  1  0
 15 13  1  0
 16 15  2  0
 18 19  1  0
 18 17  1  0
 19 20  1  0
 21 20  1  1
 21 23  1  0
 21 22  1  0
 22 15  1  0
 23 25  1  0
 24 23  2  0
M  END
$$$$
