KTM.pdb
     RDKit          3D

 25 24  0  0  1  0  0  0  0  0999 V2000
    4.0558  -19.3649   20.8226 N   0  0  0  0  0  0  0  0  0  0  0  0
    3.9068  -18.6222   22.0066 C   0  0  1  0  0  0  0  0  0  0  0  0
    2.9329  -19.1338   22.9782 C   0  0  0  0  0  0  0  0  0  0  0  0
    1.8342  -19.9589   22.5302 C   0  0  0  0  0  0  0  0  0  0  0  0
    0.6899  -19.4411   21.8088 C   0  0  0  0  0  0  0  0  0  0  0  0
   -0.4638  -20.2233   21.3728 C   0  0  0  0  0  0  0  0  0  0  0  0
   -1.2573  -20.8108   22.4280 N   0  0  0  0  0  0  0  0  0  0  0  0
    5.2814  -18.4810   22.6178 C   0  0  0  0  0  0  0  0  0  0  0  0
    5.5750  -19.0433   23.7034 O   0  0  0  0  0  0  0  0  0  0  0  0
    8.5631  -18.7157   20.5090 C   0  0  0  0  0  0  0  0  0  0  0  0
    8.6027  -17.4298   21.3192 C   0  0  1  0  0  0  0  0  0  0  0  0
    8.2189  -16.3764   20.5000 O   0  0  0  0  0  0  0  0  0  0  0  0
    7.6089  -17.5430   22.4683 C   0  0  2  0  0  0  0  0  0  0  0  0
    6.2633  -17.7067   21.9685 N   0  0  0  0  0  0  0  0  0  0  0  0
    7.6711  -16.3258   23.3160 C   0  0  0  0  0  0  0  0  0  0  0  0
    7.0501  -15.2795   22.9776 O   0  0  0  0  0  0  0  0  0  0  0  0
    5.6923  -11.1377   25.8349 C   0  0  0  0  0  0  0  0  0  0  0  0
    6.1669  -12.3646   27.0885 S   0  0  0  0  0  0  0  0  0  0  0  0
    7.6900  -13.2292   26.6081 C   0  0  0  0  0  0  0  0  0  0  0  0
    7.3805  -14.4451   25.7967 C   0  0  0  0  0  0  0  0  0  0  0  0
    8.6553  -15.0400   25.2440 C   0  0  2  0  0  0  0  0  0  0  0  0
    8.4117  -16.2695   24.5218 N   0  0  0  0  0  0  0  0  0  0  0  0
    9.5830  -15.3521   26.3642 C   0  0  0  0  0  0  0  0  0  0  0  0
    9.9184  -14.4486   27.1744 O   0  0  0  0  0  0  0  0  0  0  0  0
   10.1036  -16.6333   26.5521 O   0  0  0  0  0  0  0  0  0  0  0  0
  2  1  1  6
  3  2  1  0
  4  3  1  0
  5  6  1  0
  5  4  1  0
  7  6  1  0
  8  2  1  0
  8  9  2  0
 11 10  1  6
 11 13  1  0
 12 11  1  0
 13 14  1  6
 14  8  1  0
 15 13  1  0
 16 15  2  0
 18 19  1  0
 18 17  1  0
 19 20  1  0
 21 20  1  1
 21 23  1  0
 21 22  1  0
 22 15  1  0
 23 25  1  0
 24 23  2  0
M  END
$$$$
