KTM.pdb
     RDKit          3D

 25 24  0  0  1  0  0  0  0  0999 V2000
    3.3246  -20.1023   21.0551 N   0  0  0  0  0  0  0  0  0  0  0  0
    3.3995  -18.8791   21.7434 C   0  0  1  0  0  0  0  0  0  0  0  0
    2.2947  -18.5799   22.6621 C   0  0  0  0  0  0  0  0  0  0  0  0
    1.0016  -19.1915   22.4565 C   0  0  0  0  0  0  0  0  0  0  0  0
    0.6551  -20.5095   22.9469 C   0  0  0  0  0  0  0  0  0  0  0  0
   -0.6525  -21.1471   22.8171 C   0  0  0  0  0  0  0  0  0  0  0  0
   -1.2232  -21.1412   21.4895 N   0  0  0  0  0  0  0  0  0  0  0  0
    4.7348  -18.8485   22.4497 C   0  0  0  0  0  0  0  0  0  0  0  0
    4.9898  -19.6316   23.3998 O   0  0  0  0  0  0  0  0  0  0  0  0
    7.8833  -19.2838   20.7139 C   0  0  0  0  0  0  0  0  0  0  0  0
    8.1010  -17.9925   21.4865 C   0  0  1  0  0  0  0  0  0  0  0  0
    7.9249  -16.9214   20.6205 O   0  0  0  0  0  0  0  0  0  0  0  0
    7.0592  -17.9021   22.5945 C   0  0  2  0  0  0  0  0  0  0  0  0
    5.7231  -17.9291   22.0457 N   0  0  0  0  0  0  0  0  0  0  0  0
    7.2457  -16.6478   23.3664 C   0  0  0  0  0  0  0  0  0  0  0  0
    6.5449  -15.6293   23.1090 O   0  0  0  0  0  0  0  0  0  0  0  0
    6.7910  -10.8040   27.3619 C   0  0  0  0  0  0  0  0  0  0  0  0
    6.4464  -12.2482   26.3141 S   0  0  0  0  0  0  0  0  0  0  0  0
    7.5710  -13.6193   26.7066 C   0  0  0  0  0  0  0  0  0  0  0  0
    7.2345  -14.8328   25.9024 C   0  0  0  0  0  0  0  0  0  0  0  0
    8.4417  -15.2851   25.1133 C   0  0  2  0  0  0  0  0  0  0  0  0
    8.1962  -16.5246   24.4091 N   0  0  0  0  0  0  0  0  0  0  0  0
    9.5829  -15.5123   26.0402 C   0  0  0  0  0  0  0  0  0  0  0  0
   10.0138  -16.6793   26.2343 O   0  0  0  0  0  0  0  0  0  0  0  0
   10.2035  -14.4592   26.7138 O   0  0  0  0  0  0  0  0  0  0  0  0
  2  1  1  1
  3  2  1  0
  4  3  1  0
  5  6  1  0
  5  4  1  0
  7  6  1  0
  8  2  1  0
  8  9  2  0
 11 10  1  6
 11 13  1  0
 12 11  1  0
 13 14  1  6
 14  8  1  0
 15 13  1  0
 16 15  2  0
 18 19  1  0
 18 17  1  0
 19 20  1  0
 21 20  1  1
 21 23  1  0
 21 22  1  0
 22 15  1  0
 23 25  1  0
 24 23  2  0
M  END
$$$$
