KTM.pdb
     RDKit          3D

 25 24  0  0  1  0  0  0  0  0999 V2000
    9.3388  -14.9309   18.6377 N   0  0  0  0  0  0  0  0  0  0  0  0
    8.3223  -14.2620   19.3412 C   0  0  1  0  0  0  0  0  0  0  0  0
    7.0782  -14.0093   18.6046 C   0  0  0  0  0  0  0  0  0  0  0  0
    7.0800  -14.0301   17.1596 C   0  0  0  0  0  0  0  0  0  0  0  0
    7.9945  -13.2501   16.3515 C   0  0  0  0  0  0  0  0  0  0  0  0
    7.9395  -13.1144   14.8983 C   0  0  0  0  0  0  0  0  0  0  0  0
    7.3890  -14.2437   14.1842 N   0  0  0  0  0  0  0  0  0  0  0  0
    8.0699  -15.0457   20.6081 C   0  0  0  0  0  0  0  0  0  0  0  0
    7.0291  -14.8674   21.2906 O   0  0  0  0  0  0  0  0  0  0  0  0
    9.1606  -18.9111   20.9329 C   0  0  0  0  0  0  0  0  0  0  0  0
    9.6552  -18.0973   22.1180 C   0  0  1  0  0  0  0  0  0  0  0  0
   10.9818  -17.7516   21.8972 O   0  0  0  0  0  0  0  0  0  0  0  0
    8.8275  -16.8221   22.2174 C   0  0  2  0  0  0  0  0  0  0  0  0
    9.0115  -15.9986   21.0448 N   0  0  0  0  0  0  0  0  0  0  0  0
    9.2232  -16.0518   23.4231 C   0  0  0  0  0  0  0  0  0  0  0  0
   10.1401  -15.1859   23.3554 O   0  0  0  0  0  0  0  0  0  0  0  0
    6.8882  -10.5527   26.7871 C   0  0  0  0  0  0  0  0  0  0  0  0
    6.6192  -12.3426   26.9483 S   0  0  0  0  0  0  0  0  0  0  0  0
    8.0171  -13.2748   26.2589 C   0  0  0  0  0  0  0  0  0  0  0  0
    7.8353  -14.7429   26.4688 C   0  0  0  0  0  0  0  0  0  0  0  0
    8.9971  -15.5018   25.8697 C   0  0  2  0  0  0  0  0  0  0  0  0
    8.6111  -16.2391   24.6864 N   0  0  0  0  0  0  0  0  0  0  0  0
    9.5135  -16.4821   26.8624 C   0  0  0  0  0  0  0  0  0  0  0  0
    9.1832  -17.6943   26.7809 O   0  0  0  0  0  0  0  0  0  0  0  0
   10.3660  -16.0987   27.8988 O   0  0  0  0  0  0  0  0  0  0  0  0
  2  1  1  6
  3  2  1  0
  4  3  1  0
  5  6  1  0
  5  4  1  0
  7  6  1  0
  8  2  1  0
  8  9  2  0
 11 10  1  6
 11 13  1  0
 12 11  1  0
 13 14  1  6
 14  8  1  0
 15 13  1  0
 16 15  2  0
 18 19  1  0
 18 17  1  0
 19 20  1  0
 21 20  1  1
 21 23  1  0
 21 22  1  0
 22 15  1  0
 23 25  1  0
 24 23  2  0
M  END
$$$$
