DQC.pdb
     RDKit          3D

 24 23  0  0  1  0  0  0  0  0999 V2000
   17.1973  -11.8969  -14.3089 N   0  0  0  0  0  0  0  0  0  0  0  0
   16.4953  -10.6172  -14.3474 C   0  0  1  0  0  0  0  0  0  0  0  0
   15.0452  -10.9145  -14.0400 C   0  0  0  0  0  0  0  0  0  0  0  0
   14.3140  -11.3690  -15.2525 C   0  0  0  0  0  0  0  0  0  0  0  0
   14.8612  -11.4168  -16.3858 O   0  0  0  0  0  0  0  0  0  0  0  0
   17.0540   -9.7756  -13.2601 C   0  0  0  0  0  0  0  0  0  0  0  0
   17.3133  -10.3292  -12.1513 O   0  0  0  0  0  0  0  0  0  0  0  0
   12.9893  -11.7613  -15.1806 O   0  0  0  0  0  0  0  0  0  0  0  0
   21.7470   -5.8416  -13.4599 N   0  0  0  0  0  0  0  0  0  0  0  0
   21.5714   -7.2747  -13.4948 C   0  0  0  0  0  0  0  0  0  0  0  0
   22.5463   -7.9168  -13.8793 O   0  0  0  0  0  0  0  0  0  0  0  0
   20.3070   -7.8911  -13.0958 C   0  0  0  0  0  0  0  0  0  0  0  0
   19.1998   -6.9955  -12.7078 C   0  0  0  0  0  0  0  0  0  0  0  0
   17.8985   -7.5947  -12.3304 C   0  0  2  0  0  0  0  0  0  0  0  0
   17.3168   -8.3911  -13.3813 N   0  0  0  0  0  0  0  0  0  0  0  0
   16.8927   -6.7388  -11.6868 C   0  0  0  0  0  0  0  0  0  0  0  0
   16.0482   -6.0660  -12.3630 O   0  0  0  0  0  0  0  0  0  0  0  0
   16.7954   -6.6160  -10.2613 N   0  0  0  0  0  0  0  0  0  0  0  0
   15.9986   -5.7137   -9.5201 C   0  0  1  0  0  0  0  0  0  0  0  0
   15.6183   -6.1386   -8.1347 C   0  0  0  0  0  0  0  0  0  0  0  0
   14.9695   -7.8520   -8.2379 S   0  0  0  0  0  0  0  0  0  0  0  0
   16.4249   -4.2796   -9.5793 C   0  0  0  0  0  0  0  0  0  0  0  0
   15.6263   -3.3148   -9.0440 O   0  0  0  0  0  0  0  0  0  0  0  0
   17.5023   -3.9832  -10.1158 O   0  0  0  0  0  0  0  0  0  0  0  0
  2  1  1  1
  2  3  1  0
  4  3  1  0
  4  8  1  0
  5  4  2  0
  6  2  1  0
  7  6  2  0
  9 10  1  0
 10 12  1  0
 11 10  2  0
 12 13  1  0
 14 13  1  6
 14 15  1  0
 15  6  1  0
 16 14  1  0
 16 18  1  0
 17 16  2  0
 19 18  1  0
 19 22  1  0
 19 20  1  1
 20 21  1  0
 22 23  1  0
 24 22  2  0
M  END
$$$$
