DQC.pdb
     RDKit          3D

 24 23  0  0  1  0  0  0  0  0999 V2000
   28.9195  -21.8431  -17.3584 N   0  0  0  0  0  0  0  0  0  0  0  0
   27.6996  -22.5308  -16.9451 C   0  0  1  0  0  0  0  0  0  0  0  0
   28.1379  -23.7523  -16.1695 C   0  0  0  0  0  0  0  0  0  0  0  0
   28.6650  -24.8097  -17.0722 C   0  0  0  0  0  0  0  0  0  0  0  0
   28.6477  -24.6900  -18.3258 O   0  0  0  0  0  0  0  0  0  0  0  0
   26.9680  -21.6185  -16.0311 C   0  0  0  0  0  0  0  0  0  0  0  0
   27.6281  -21.0219  -15.1303 O   0  0  0  0  0  0  0  0  0  0  0  0
   29.2010  -25.9792  -16.5632 O   0  0  0  0  0  0  0  0  0  0  0  0
   21.9210  -17.9845  -17.2750 N   0  0  0  0  0  0  0  0  0  0  0  0
   22.0478  -17.9109  -15.8382 C   0  0  0  0  0  0  0  0  0  0  0  0
   21.2890  -17.1207  -15.2811 O   0  0  0  0  0  0  0  0  0  0  0  0
   23.0235  -18.7316  -15.1225 C   0  0  0  0  0  0  0  0  0  0  0  0
   23.8980  -19.6113  -15.9225 C   0  0  0  0  0  0  0  0  0  0  0  0
   24.8834  -20.4653  -15.2195 C   0  0  2  0  0  0  0  0  0  0  0  0
   25.5771  -21.3708  -16.1003 N   0  0  0  0  0  0  0  0  0  0  0  0
   24.4719  -21.1347  -13.9781 C   0  0  0  0  0  0  0  0  0  0  0  0
   23.7461  -22.1818  -13.9859 O   0  0  0  0  0  0  0  0  0  0  0  0
   24.8685  -20.6559  -12.6858 N   0  0  0  0  0  0  0  0  0  0  0  0
   24.3658  -21.0464  -11.4235 C   0  0  1  0  0  0  0  0  0  0  0  0
   25.2749  -20.8458  -10.2497 C   0  0  0  0  0  0  0  0  0  0  0  0
   26.8065  -21.8065  -10.5629 S   0  0  0  0  0  0  0  0  0  0  0  0
   22.9584  -20.6263  -11.1327 C   0  0  0  0  0  0  0  0  0  0  0  0
   22.2912  -19.8389  -12.0215 O   0  0  0  0  0  0  0  0  0  0  0  0
   22.4127  -20.9994  -10.0842 O   0  0  0  0  0  0  0  0  0  0  0  0
  2  1  1  1
  2  3  1  0
  4  3  1  0
  4  8  1  0
  5  4  2  0
  6  2  1  0
  7  6  2  0
  9 10  1  0
 10 12  1  0
 11 10  2  0
 12 13  1  0
 14 13  1  6
 14 15  1  0
 15  6  1  0
 16 14  1  0
 16 18  1  0
 17 16  2  0
 19 18  1  0
 19 22  1  0
 19 20  1  1
 20 21  1  0
 22 23  1  0
 24 22  2  0
M  END
$$$$
