DQC.pdb
     RDKit          3D

 24 23  0  0  1  0  0  0  0  0999 V2000
   23.9163   -7.5856  -20.4319 N   0  0  0  0  0  0  0  0  0  0  0  0
   23.9550   -6.5660  -19.3876 C   0  0  1  0  0  0  0  0  0  0  0  0
   24.0949   -5.2358  -20.0923 C   0  0  0  0  0  0  0  0  0  0  0  0
   25.4766   -5.0333  -20.6033 C   0  0  0  0  0  0  0  0  0  0  0  0
   26.3871   -5.8856  -20.4278 O   0  0  0  0  0  0  0  0  0  0  0  0
   22.6470   -6.6032  -18.6871 C   0  0  0  0  0  0  0  0  0  0  0  0
   21.6207   -6.9196  -19.3577 O   0  0  0  0  0  0  0  0  0  0  0  0
   25.8184   -3.8875  -21.2991 O   0  0  0  0  0  0  0  0  0  0  0  0
   21.1660   -9.4183  -13.4707 N   0  0  0  0  0  0  0  0  0  0  0  0
   19.9518   -8.7076  -13.7971 C   0  0  0  0  0  0  0  0  0  0  0  0
   18.9630   -9.0215  -13.1382 O   0  0  0  0  0  0  0  0  0  0  0  0
   19.9305   -7.6902  -14.8471 C   0  0  0  0  0  0  0  0  0  0  0  0
   21.1523   -7.5142  -15.6562 C   0  0  0  0  0  0  0  0  0  0  0  0
   21.2040   -6.4032  -16.6349 C   0  0  2  0  0  0  0  0  0  0  0  0
   22.4709   -6.3075  -17.3152 N   0  0  0  0  0  0  0  0  0  0  0  0
   20.7164   -5.0807  -16.2208 C   0  0  0  0  0  0  0  0  0  0  0  0
   21.4908   -4.2055  -15.7132 O   0  0  0  0  0  0  0  0  0  0  0  0
   19.3439   -4.6926  -16.3704 N   0  0  0  0  0  0  0  0  0  0  0  0
   18.7547   -3.4467  -16.0553 C   0  0  1  0  0  0  0  0  0  0  0  0
   19.5128   -2.2233  -16.4714 C   0  0  0  0  0  0  0  0  0  0  0  0
   18.7704   -0.7878  -15.6025 S   0  0  0  0  0  0  0  0  0  0  0  0
   17.2899   -3.3354  -16.3450 C   0  0  0  0  0  0  0  0  0  0  0  0
   16.6574   -4.3340  -17.0218 O   0  0  0  0  0  0  0  0  0  0  0  0
   16.6655   -2.3342  -15.9656 O   0  0  0  0  0  0  0  0  0  0  0  0
  2  1  1  6
  2  3  1  0
  4  3  1  0
  4  8  1  0
  5  4  2  0
  6  2  1  0
  7  6  2  0
  9 10  1  0
 10 12  1  0
 11 10  2  0
 12 13  1  0
 14 13  1  1
 14 15  1  0
 15  6  1  0
 16 14  1  0
 16 18  1  0
 17 16  2  0
 19 18  1  0
 19 22  1  0
 19 20  1  6
 20 21  1  0
 22 23  1  0
 24 22  2  0
M  END
$$$$
