DQC.pdb
     RDKit          3D

 24 23  0  0  1  0  0  0  0  0999 V2000
   16.5884  -27.4412   -5.6423 N   0  0  0  0  0  0  0  0  0  0  0  0
   16.6277  -25.9841   -5.5573 C   0  0  1  0  0  0  0  0  0  0  0  0
   18.0217  -25.6189   -5.1000 C   0  0  0  0  0  0  0  0  0  0  0  0
   18.2187  -25.9240   -3.6580 C   0  0  0  0  0  0  0  0  0  0  0  0
   17.2531  -26.0139   -2.8545 O   0  0  0  0  0  0  0  0  0  0  0  0
   16.4187  -25.4572   -6.9289 C   0  0  0  0  0  0  0  0  0  0  0  0
   16.9419  -26.0864   -7.8952 O   0  0  0  0  0  0  0  0  0  0  0  0
   19.4853  -26.1229   -3.1382 O   0  0  0  0  0  0  0  0  0  0  0  0
   11.2621  -22.4120   -9.0381 N   0  0  0  0  0  0  0  0  0  0  0  0
   12.1734  -22.3689  -10.1577 C   0  0  0  0  0  0  0  0  0  0  0  0
   11.6957  -21.9545  -11.2115 O   0  0  0  0  0  0  0  0  0  0  0  0
   13.5642  -22.7978  -10.0172 C   0  0  0  0  0  0  0  0  0  0  0  0
   13.9851  -23.3429   -8.7117 C   0  0  0  0  0  0  0  0  0  0  0  0
   15.3629  -23.8687   -8.5708 C   0  0  2  0  0  0  0  0  0  0  0  0
   15.6711  -24.2946   -7.2289 N   0  0  0  0  0  0  0  0  0  0  0  0
   16.4699  -23.1011   -9.1573 C   0  0  0  0  0  0  0  0  0  0  0  0
   16.9692  -22.0851   -8.5730 O   0  0  0  0  0  0  0  0  0  0  0  0
   17.0596  -23.4537  -10.4161 N   0  0  0  0  0  0  0  0  0  0  0  0
   18.0369  -22.7401  -11.1471 C   0  0  1  0  0  0  0  0  0  0  0  0
   18.7968  -23.5135  -12.1809 C   0  0  0  0  0  0  0  0  0  0  0  0
   20.0966  -22.4087  -12.8567 S   0  0  0  0  0  0  0  0  0  0  0  0
   17.6141  -21.3914  -11.6412 C   0  0  0  0  0  0  0  0  0  0  0  0
   18.4465  -20.3243  -11.4876 O   0  0  0  0  0  0  0  0  0  0  0  0
   16.5089  -21.2581  -12.1862 O   0  0  0  0  0  0  0  0  0  0  0  0
  2  1  1  6
  2  3  1  0
  4  3  1  0
  4  8  1  0
  5  4  2  0
  6  2  1  0
  7  6  2  0
  9 10  1  0
 10 12  1  0
 11 10  2  0
 12 13  1  0
 14 13  1  1
 14 15  1  0
 15  6  1  0
 16 14  1  0
 16 18  1  0
 17 16  2  0
 19 18  1  0
 19 22  1  0
 19 20  1  6
 20 21  1  0
 22 23  1  0
 24 22  2  0
M  END
$$$$
