DQC.pdb
     RDKit          3D

 24 23  0  0  1  0  0  0  0  0999 V2000
   20.3255  -12.7817  -16.0518 N   0  0  0  0  0  0  0  0  0  0  0  0
   19.7450  -11.6871  -16.8243 C   0  0  1  0  0  0  0  0  0  0  0  0
   18.4485  -11.3194  -16.1391 C   0  0  0  0  0  0  0  0  0  0  0  0
   17.4488  -12.4154  -16.2419 C   0  0  0  0  0  0  0  0  0  0  0  0
   17.2432  -13.0355  -17.3186 O   0  0  0  0  0  0  0  0  0  0  0  0
   20.6800  -10.5382  -16.7313 C   0  0  0  0  0  0  0  0  0  0  0  0
   21.1443  -10.2384  -15.5921 O   0  0  0  0  0  0  0  0  0  0  0  0
   16.6978  -12.8001  -15.1456 O   0  0  0  0  0  0  0  0  0  0  0  0
   24.1014   -7.8070  -21.4857 N   0  0  0  0  0  0  0  0  0  0  0  0
   24.3884   -7.0185  -20.3102 C   0  0  0  0  0  0  0  0  0  0  0  0
   25.2469   -6.1507  -20.4533 O   0  0  0  0  0  0  0  0  0  0  0  0
   23.6902   -7.2608  -19.0486 C   0  0  0  0  0  0  0  0  0  0  0  0
   22.6751   -8.3320  -19.0213 C   0  0  0  0  0  0  0  0  0  0  0  0
   22.0179   -8.6572  -17.7341 C   0  0  2  0  0  0  0  0  0  0  0  0
   21.0880   -9.7535  -17.8351 N   0  0  0  0  0  0  0  0  0  0  0  0
   21.4655   -7.5577  -16.9313 C   0  0  0  0  0  0  0  0  0  0  0  0
   20.2168   -7.3067  -16.9012 O   0  0  0  0  0  0  0  0  0  0  0  0
   22.2958   -6.7079  -16.1281 N   0  0  0  0  0  0  0  0  0  0  0  0
   21.8917   -5.6627  -15.2662 C   0  0  1  0  0  0  0  0  0  0  0  0
   20.9603   -6.0349  -14.1534 C   0  0  0  0  0  0  0  0  0  0  0  0
   20.6935   -4.5368  -13.1280 S   0  0  0  0  0  0  0  0  0  0  0  0
   22.9833   -4.7438  -14.8124 C   0  0  0  0  0  0  0  0  0  0  0  0
   22.6716   -3.6216  -14.1063 O   0  0  0  0  0  0  0  0  0  0  0  0
   24.1623   -5.0133  -15.0840 O   0  0  0  0  0  0  0  0  0  0  0  0
  2  1  1  1
  2  3  1  0
  4  3  1  0
  4  8  1  0
  5  4  2  0
  6  2  1  0
  7  6  2  0
  9 10  1  0
 10 12  1  0
 11 10  2  0
 12 13  1  0
 14 13  1  6
 14 15  1  0
 15  6  1  0
 16 14  1  0
 16 18  1  0
 17 16  2  0
 19 18  1  0
 19 22  1  0
 19 20  1  1
 20 21  1  0
 22 23  1  0
 24 22  2  0
M  END
$$$$
