DQC.pdb
     RDKit          3D

 24 23  0  0  1  0  0  0  0  0999 V2000
   19.3619  -13.1399  -17.6071 N   0  0  0  0  0  0  0  0  0  0  0  0
   20.2842  -12.4791  -16.6881 C   0  0  1  0  0  0  0  0  0  0  0  0
   21.6765  -12.7428  -17.2149 C   0  0  0  0  0  0  0  0  0  0  0  0
   22.1087  -14.1379  -16.9359 C   0  0  0  0  0  0  0  0  0  0  0  0
   21.5521  -15.1316  -17.4735 O   0  0  0  0  0  0  0  0  0  0  0  0
   20.0107  -11.0222  -16.7618 C   0  0  0  0  0  0  0  0  0  0  0  0
   19.4779  -10.5684  -17.8169 O   0  0  0  0  0  0  0  0  0  0  0  0
   23.1509  -14.4005  -16.0648 O   0  0  0  0  0  0  0  0  0  0  0  0
   17.3393   -7.2419  -18.0263 N   0  0  0  0  0  0  0  0  0  0  0  0
   17.4491   -6.4797  -16.8044 C   0  0  0  0  0  0  0  0  0  0  0  0
   17.0321   -5.3252  -16.8631 O   0  0  0  0  0  0  0  0  0  0  0  0
   18.0241   -7.0682  -15.5957 C   0  0  0  0  0  0  0  0  0  0  0  0
   18.5058   -8.4612  -15.6734 C   0  0  0  0  0  0  0  0  0  0  0  0
   19.9631   -8.7056  -15.7794 C   0  0  2  0  0  0  0  0  0  0  0  0
   20.3072  -10.1041  -15.7274 N   0  0  0  0  0  0  0  0  0  0  0  0
   20.8714   -7.8988  -14.9532 C   0  0  0  0  0  0  0  0  0  0  0  0
   20.9625   -8.0645  -13.6933 O   0  0  0  0  0  0  0  0  0  0  0  0
   21.7147   -6.8840  -15.5151 N   0  0  0  0  0  0  0  0  0  0  0  0
   22.6066   -6.0225  -14.8361 C   0  0  1  0  0  0  0  0  0  0  0  0
   23.5364   -5.2145  -15.6888 C   0  0  0  0  0  0  0  0  0  0  0  0
   24.2514   -6.3389  -16.9503 S   0  0  0  0  0  0  0  0  0  0  0  0
   22.0046   -5.2163  -13.7273 C   0  0  0  0  0  0  0  0  0  0  0  0
   22.6041   -5.1959  -12.5045 O   0  0  0  0  0  0  0  0  0  0  0  0
   20.9646   -4.5739  -13.9328 O   0  0  0  0  0  0  0  0  0  0  0  0
  2  1  1  6
  2  3  1  0
  4  3  1  0
  4  8  1  0
  5  4  2  0
  6  2  1  0
  7  6  2  0
  9 10  1  0
 10 12  1  0
 11 10  2  0
 12 13  1  0
 14 13  1  1
 14 15  1  0
 15  6  1  0
 16 14  1  0
 16 18  1  0
 17 16  2  0
 19 18  1  0
 19 22  1  0
 19 20  1  6
 20 21  1  0
 22 23  1  0
 24 22  2  0
M  END
$$$$
