DQC.pdb
     RDKit          3D

 24 23  0  0  1  0  0  0  0  0999 V2000
   19.3602  -11.9576  -15.5375 N   0  0  0  0  0  0  0  0  0  0  0  0
   18.6957  -11.0047  -16.4220 C   0  0  1  0  0  0  0  0  0  0  0  0
   17.3749  -11.6294  -16.8104 C   0  0  0  0  0  0  0  0  0  0  0  0
   17.5710  -12.8227  -17.6756 C   0  0  0  0  0  0  0  0  0  0  0  0
   18.2773  -12.7857  -18.7176 O   0  0  0  0  0  0  0  0  0  0  0  0
   18.4321   -9.7780  -15.6293 C   0  0  0  0  0  0  0  0  0  0  0  0
   17.6256   -9.8587  -14.6566 O   0  0  0  0  0  0  0  0  0  0  0  0
   16.9777  -14.0334  -17.3651 O   0  0  0  0  0  0  0  0  0  0  0  0
   22.0821   -6.8793  -12.1129 N   0  0  0  0  0  0  0  0  0  0  0  0
   22.0865   -6.0956  -13.3261 C   0  0  0  0  0  0  0  0  0  0  0  0
   23.0178   -5.3015  -13.4381 O   0  0  0  0  0  0  0  0  0  0  0  0
   21.0393   -6.2565  -14.3336 C   0  0  0  0  0  0  0  0  0  0  0  0
   19.9567   -7.2189  -14.0499 C   0  0  0  0  0  0  0  0  0  0  0  0
   18.8621   -7.3701  -15.0366 C   0  0  2  0  0  0  0  0  0  0  0  0
   19.0246   -8.5203  -15.8897 N   0  0  0  0  0  0  0  0  0  0  0  0
   18.4406   -6.1895  -15.8028 C   0  0  0  0  0  0  0  0  0  0  0  0
   18.9128   -5.9318  -16.9577 O   0  0  0  0  0  0  0  0  0  0  0  0
   17.4679   -5.2625  -15.3017 N   0  0  0  0  0  0  0  0  0  0  0  0
   17.0051   -4.0747  -15.9129 C   0  0  1  0  0  0  0  0  0  0  0  0
   15.5652   -4.0513  -16.3258 C   0  0  0  0  0  0  0  0  0  0  0  0
   15.3128   -5.4063  -17.5372 S   0  0  0  0  0  0  0  0  0  0  0  0
   17.4280   -2.8014  -15.2482 C   0  0  0  0  0  0  0  0  0  0  0  0
   17.1866   -1.6081  -15.8588 O   0  0  0  0  0  0  0  0  0  0  0  0
   17.9947   -2.8451  -14.1467 O   0  0  0  0  0  0  0  0  0  0  0  0
  2  1  1  1
  2  3  1  0
  4  3  1  0
  4  8  1  0
  5  4  2  0
  6  2  1  0
  7  6  2  0
  9 10  1  0
 10 12  1  0
 11 10  2  0
 12 13  1  0
 14 13  1  6
 14 15  1  0
 15  6  1  0
 16 14  1  0
 16 18  1  0
 17 16  2  0
 19 18  1  0
 19 22  1  0
 19 20  1  1
 20 21  1  0
 22 23  1  0
 24 22  2  0
M  END
$$$$
