DQC.pdb
     RDKit          3D

 24 23  0  0  1  0  0  0  0  0999 V2000
   26.7395  -21.5221  -17.4918 N   0  0  0  0  0  0  0  0  0  0  0  0
   26.6421  -20.4144  -16.5456 C   0  0  1  0  0  0  0  0  0  0  0  0
   26.3430  -19.1779  -17.3625 C   0  0  0  0  0  0  0  0  0  0  0  0
   27.5288  -18.7449  -18.1484 C   0  0  0  0  0  0  0  0  0  0  0  0
   27.4201  -18.0905  -19.2189 O   0  0  0  0  0  0  0  0  0  0  0  0
   25.4865  -20.6943  -15.6573 C   0  0  0  0  0  0  0  0  0  0  0  0
   24.4470  -21.2005  -16.1734 O   0  0  0  0  0  0  0  0  0  0  0  0
   28.8116  -19.0481  -17.7283 O   0  0  0  0  0  0  0  0  0  0  0  0
   25.2847  -20.9672   -9.1748 N   0  0  0  0  0  0  0  0  0  0  0  0
   23.9224  -21.1485   -9.6189 C   0  0  0  0  0  0  0  0  0  0  0  0
   23.1123  -21.4261   -8.7373 O   0  0  0  0  0  0  0  0  0  0  0  0
   23.5619  -21.0071  -11.0288 C   0  0  0  0  0  0  0  0  0  0  0  0
   24.6527  -20.7735  -11.9954 C   0  0  0  0  0  0  0  0  0  0  0  0
   24.3142  -20.6362  -13.4311 C   0  0  2  0  0  0  0  0  0  0  0  0
   25.4699  -20.4321  -14.2675 N   0  0  0  0  0  0  0  0  0  0  0  0
   23.2134  -19.7397  -13.8094 C   0  0  0  0  0  0  0  0  0  0  0  0
   23.3505  -18.4732  -13.8238 O   0  0  0  0  0  0  0  0  0  0  0  0
   21.9235  -20.2355  -14.1929 N   0  0  0  0  0  0  0  0  0  0  0  0
   20.7777  -19.4887  -14.5508 C   0  0  1  0  0  0  0  0  0  0  0  0
   20.4707  -19.3936  -16.0140 C   0  0  0  0  0  0  0  0  0  0  0  0
   21.9599  -18.7242  -16.8515 S   0  0  0  0  0  0  0  0  0  0  0  0
   19.5548  -19.7516  -13.7279 C   0  0  0  0  0  0  0  0  0  0  0  0
   18.5708  -18.8122  -13.6610 O   0  0  0  0  0  0  0  0  0  0  0  0
   19.4489  -20.8233  -13.1142 O   0  0  0  0  0  0  0  0  0  0  0  0
  2  1  1  6
  2  3  1  0
  4  3  1  0
  4  8  1  0
  5  4  2  0
  6  2  1  0
  7  6  2  0
  9 10  1  0
 10 12  1  0
 11 10  2  0
 12 13  1  0
 14 13  1  1
 14 15  1  0
 15  6  1  0
 16 14  1  0
 16 18  1  0
 17 16  2  0
 19 18  1  0
 19 22  1  0
 19 20  1  6
 20 21  1  0
 22 23  1  0
 24 22  2  0
M  END
$$$$
