DQC.pdb
     RDKit          3D

 24 23  0  0  1  0  0  0  0  0999 V2000
   19.7623  -12.3659  -16.3612 N   0  0  0  0  0  0  0  0  0  0  0  0
   19.2859  -11.7067  -17.5737 C   0  0  1  0  0  0  0  0  0  0  0  0
   18.0422  -12.4500  -18.0052 C   0  0  0  0  0  0  0  0  0  0  0  0
   18.3620  -13.8306  -18.4552 C   0  0  0  0  0  0  0  0  0  0  0  0
   18.3076  -14.8185  -17.6759 O   0  0  0  0  0  0  0  0  0  0  0  0
   18.9118  -10.3192  -17.2026 C   0  0  0  0  0  0  0  0  0  0  0  0
   18.4790   -9.5545  -18.1143 O   0  0  0  0  0  0  0  0  0  0  0  0
   18.7360  -14.0855  -19.7626 O   0  0  0  0  0  0  0  0  0  0  0  0
   14.3688   -7.9628  -14.7557 N   0  0  0  0  0  0  0  0  0  0  0  0
   15.0098   -9.2325  -14.5049 C   0  0  0  0  0  0  0  0  0  0  0  0
   14.2831  -10.1080  -14.0402 O   0  0  0  0  0  0  0  0  0  0  0  0
   16.4294   -9.4323  -14.7923 C   0  0  0  0  0  0  0  0  0  0  0  0
   17.1989   -8.2736  -15.2861 C   0  0  0  0  0  0  0  0  0  0  0  0
   18.6472   -8.4407  -15.5488 C   0  0  2  0  0  0  0  0  0  0  0  0
   19.0071   -9.7930  -15.8931 N   0  0  0  0  0  0  0  0  0  0  0  0
   19.6041   -7.8563  -14.5994 C   0  0  0  0  0  0  0  0  0  0  0  0
   20.1469   -8.5485  -13.6777 O   0  0  0  0  0  0  0  0  0  0  0  0
   19.9906   -6.4765  -14.6580 N   0  0  0  0  0  0  0  0  0  0  0  0
   21.1369   -5.8714  -14.0938 C   0  0  1  0  0  0  0  0  0  0  0  0
   22.4418   -6.5735  -14.3143 C   0  0  0  0  0  0  0  0  0  0  0  0
   22.5452   -7.9470  -13.1020 S   0  0  0  0  0  0  0  0  0  0  0  0
   21.2461   -4.3910  -14.2898 C   0  0  0  0  0  0  0  0  0  0  0  0
   21.8392   -3.6248  -13.3325 O   0  0  0  0  0  0  0  0  0  0  0  0
   20.7951   -3.8756  -15.3229 O   0  0  0  0  0  0  0  0  0  0  0  0
  2  1  1  1
  2  3  1  0
  4  3  1  0
  4  8  1  0
  5  4  2  0
  6  2  1  0
  7  6  2  0
  9 10  1  0
 10 12  1  0
 11 10  2  0
 12 13  1  0
 14 13  1  1
 14 15  1  0
 15  6  1  0
 16 14  1  0
 16 18  1  0
 17 16  2  0
 19 18  1  0
 19 22  1  0
 19 20  1  6
 20 21  1  0
 22 23  1  0
 24 22  2  0
M  END
$$$$
