DQC.pdb
     RDKit          3D

 24 23  0  0  1  0  0  0  0  0999 V2000
   17.3221  -11.1904  -13.3590 N   0  0  0  0  0  0  0  0  0  0  0  0
   17.6939  -10.3201  -14.4709 C   0  0  1  0  0  0  0  0  0  0  0  0
   16.5503  -10.3739  -15.4583 C   0  0  0  0  0  0  0  0  0  0  0  0
   16.5046  -11.6802  -16.1672 C   0  0  0  0  0  0  0  0  0  0  0  0
   16.5948  -12.7776  -15.5557 O   0  0  0  0  0  0  0  0  0  0  0  0
   17.8001   -8.9406  -13.9338 C   0  0  0  0  0  0  0  0  0  0  0  0
   17.9399   -7.9894  -14.7576 O   0  0  0  0  0  0  0  0  0  0  0  0
   16.3594  -11.7405  -17.5417 O   0  0  0  0  0  0  0  0  0  0  0  0
   15.7260   -7.2543   -8.2200 N   0  0  0  0  0  0  0  0  0  0  0  0
   14.9824   -7.4839   -9.4366 C   0  0  0  0  0  0  0  0  0  0  0  0
   13.7925   -7.7520   -9.2854 O   0  0  0  0  0  0  0  0  0  0  0  0
   15.6290   -7.3984  -10.7452 C   0  0  0  0  0  0  0  0  0  0  0  0
   17.0733   -7.0958  -10.7780 C   0  0  0  0  0  0  0  0  0  0  0  0
   17.8079   -7.2685  -12.0528 C   0  0  2  0  0  0  0  0  0  0  0  0
   17.7553   -8.6174  -12.5575 N   0  0  0  0  0  0  0  0  0  0  0  0
   19.1608   -6.7066  -12.1642 C   0  0  0  0  0  0  0  0  0  0  0  0
   20.1926   -7.3555  -11.7934 O   0  0  0  0  0  0  0  0  0  0  0  0
   19.4019   -5.4000  -12.7039 N   0  0  0  0  0  0  0  0  0  0  0  0
   20.6362   -4.8423  -13.1090 C   0  0  1  0  0  0  0  0  0  0  0  0
   21.5574   -5.7410  -13.8758 C   0  0  0  0  0  0  0  0  0  0  0  0
   23.1311   -4.8333  -14.1341 S   0  0  0  0  0  0  0  0  0  0  0  0
   20.5593   -3.4681  -13.6987 C   0  0  0  0  0  0  0  0  0  0  0  0
   21.4189   -2.5012  -13.2727 O   0  0  0  0  0  0  0  0  0  0  0  0
   19.7129   -3.2227  -14.5703 O   0  0  0  0  0  0  0  0  0  0  0  0
  2  1  1  1
  2  3  1  0
  4  3  1  0
  4  8  1  0
  5  4  2  0
  6  2  1  0
  7  6  2  0
  9 10  1  0
 10 12  1  0
 11 10  2  0
 12 13  1  0
 14 13  1  1
 14 15  1  0
 15  6  1  0
 16 14  1  0
 16 18  1  0
 17 16  2  0
 19 18  1  0
 19 22  1  0
 19 20  1  6
 20 21  1  0
 22 23  1  0
 24 22  2  0
M  END
$$$$
