DQC.pdb
     RDKit          3D

 24 23  0  0  1  0  0  0  0  0999 V2000
   16.7388  -11.8120  -15.6917 N   0  0  0  0  0  0  0  0  0  0  0  0
   17.4169  -11.1191  -14.5999 C   0  0  1  0  0  0  0  0  0  0  0  0
   18.7146  -10.5910  -15.1679 C   0  0  0  0  0  0  0  0  0  0  0  0
   19.6650  -11.6939  -15.4703 C   0  0  0  0  0  0  0  0  0  0  0  0
   19.9302  -12.5976  -14.6341 O   0  0  0  0  0  0  0  0  0  0  0  0
   16.5615   -9.9711  -14.2084 C   0  0  0  0  0  0  0  0  0  0  0  0
   15.8782   -9.4023  -15.1098 O   0  0  0  0  0  0  0  0  0  0  0  0
   20.3016  -11.7700  -16.6962 O   0  0  0  0  0  0  0  0  0  0  0  0
   13.1405   -9.3548   -8.9875 N   0  0  0  0  0  0  0  0  0  0  0  0
   12.8412   -9.9787  -10.2552 C   0  0  0  0  0  0  0  0  0  0  0  0
   11.9022  -10.7716  -10.2447 O   0  0  0  0  0  0  0  0  0  0  0  0
   13.6216   -9.6699  -11.4525 C   0  0  0  0  0  0  0  0  0  0  0  0
   14.7530   -8.7327  -11.3108 C   0  0  0  0  0  0  0  0  0  0  0  0
   15.5622   -8.4074  -12.5083 C   0  0  2  0  0  0  0  0  0  0  0  0
   16.4591   -9.4690  -12.8900 N   0  0  0  0  0  0  0  0  0  0  0  0
   16.2236   -7.0972  -12.5731 C   0  0  0  0  0  0  0  0  0  0  0  0
   17.2787   -6.8413  -11.9063 O   0  0  0  0  0  0  0  0  0  0  0  0
   15.7277   -6.0323  -13.3956 N   0  0  0  0  0  0  0  0  0  0  0  0
   16.2744   -4.7396  -13.5653 C   0  0  1  0  0  0  0  0  0  0  0  0
   17.1202   -4.5250  -14.7830 C   0  0  0  0  0  0  0  0  0  0  0  0
   18.5452   -5.6764  -14.6794 S   0  0  0  0  0  0  0  0  0  0  0  0
   15.3302   -3.6038  -13.3199 C   0  0  0  0  0  0  0  0  0  0  0  0
   15.8173   -2.3405  -13.1715 O   0  0  0  0  0  0  0  0  0  0  0  0
   14.1122   -3.8239  -13.2539 O   0  0  0  0  0  0  0  0  0  0  0  0
  2  1  1  6
  2  3  1  0
  4  3  1  0
  4  8  1  0
  5  4  2  0
  6  2  1  0
  7  6  2  0
  9 10  1  0
 10 12  1  0
 11 10  2  0
 12 13  1  0
 14 13  1  1
 14 15  1  0
 15  6  1  0
 16 14  1  0
 16 18  1  0
 17 16  2  0
 19 18  1  0
 19 22  1  0
 19 20  1  6
 20 21  1  0
 22 23  1  0
 24 22  2  0
M  END
$$$$
