DQC.pdb
     RDKit          3D

 24 23  0  0  1  0  0  0  0  0999 V2000
   14.0408   -9.0899   -9.1770 N   0  0  0  0  0  0  0  0  0  0  0  0
   14.5096   -7.7548   -9.5369 C   0  0  1  0  0  0  0  0  0  0  0  0
   15.0907   -7.1508   -8.2787 C   0  0  0  0  0  0  0  0  0  0  0  0
   14.0230   -6.6629   -7.3660 C   0  0  0  0  0  0  0  0  0  0  0  0
   13.4813   -5.5353   -7.5116 O   0  0  0  0  0  0  0  0  0  0  0  0
   15.5955   -7.9235  -10.5346 C   0  0  0  0  0  0  0  0  0  0  0  0
   16.2811   -8.9872  -10.4951 O   0  0  0  0  0  0  0  0  0  0  0  0
   13.5789   -7.4383   -6.3098 O   0  0  0  0  0  0  0  0  0  0  0  0
   16.9135   -5.9903  -16.4058 N   0  0  0  0  0  0  0  0  0  0  0  0
   15.7122   -5.6204  -15.6944 C   0  0  0  0  0  0  0  0  0  0  0  0
   15.0061   -4.7824  -16.2509 O   0  0  0  0  0  0  0  0  0  0  0  0
   15.3858   -6.2177  -14.4004 C   0  0  0  0  0  0  0  0  0  0  0  0
   16.2375   -7.3239  -13.9214 C   0  0  0  0  0  0  0  0  0  0  0  0
   16.8677   -7.2099  -12.5855 C   0  0  2  0  0  0  0  0  0  0  0  0
   15.9160   -6.9710  -11.5299 N   0  0  0  0  0  0  0  0  0  0  0  0
   18.0546   -6.3563  -12.4406 C   0  0  0  0  0  0  0  0  0  0  0  0
   17.9875   -5.1889  -11.9349 O   0  0  0  0  0  0  0  0  0  0  0  0
   19.3592   -6.7882  -12.8508 N   0  0  0  0  0  0  0  0  0  0  0  0
   20.5573   -6.0379  -12.8653 C   0  0  1  0  0  0  0  0  0  0  0  0
   21.7486   -6.6661  -12.2091 C   0  0  0  0  0  0  0  0  0  0  0  0
   23.1326   -5.4650  -12.3039 S   0  0  0  0  0  0  0  0  0  0  0  0
   20.8998   -5.3968  -14.1743 C   0  0  0  0  0  0  0  0  0  0  0  0
   20.3593   -5.8825  -15.3263 O   0  0  0  0  0  0  0  0  0  0  0  0
   21.6732   -4.4285  -14.1976 O   0  0  0  0  0  0  0  0  0  0  0  0
  2  1  1  1
  2  3  1  0
  4  3  1  0
  4  8  1  0
  5  4  2  0
  6  2  1  0
  7  6  2  0
  9 10  1  0
 10 12  1  0
 11 10  2  0
 12 13  1  0
 14 13  1  6
 14 15  1  0
 15  6  1  0
 16 14  1  0
 16 18  1  0
 17 16  2  0
 19 18  1  0
 19 22  1  0
 19 20  1  6
 20 21  1  0
 22 23  1  0
 24 22  2  0
M  END
$$$$
