DQC.pdb
     RDKit          3D

 24 23  0  0  1  0  0  0  0  0999 V2000
   26.8152  -33.6181  -15.3210 N   0  0  0  0  0  0  0  0  0  0  0  0
   25.5759  -32.8989  -15.0404 C   0  0  1  0  0  0  0  0  0  0  0  0
   24.6240  -33.2292  -16.1675 C   0  0  0  0  0  0  0  0  0  0  0  0
   24.6095  -34.6876  -16.4577 C   0  0  0  0  0  0  0  0  0  0  0  0
   25.0465  -35.5379  -15.6379 O   0  0  0  0  0  0  0  0  0  0  0  0
   25.0276  -33.4438  -13.7734 C   0  0  0  0  0  0  0  0  0  0  0  0
   23.8350  -33.1509  -13.4654 O   0  0  0  0  0  0  0  0  0  0  0  0
   24.1096  -35.1713  -17.6535 O   0  0  0  0  0  0  0  0  0  0  0  0
   25.3152  -39.1606  -11.4636 N   0  0  0  0  0  0  0  0  0  0  0  0
   24.7646  -38.4082  -10.3606 C   0  0  0  0  0  0  0  0  0  0  0  0
   24.3420  -39.0799   -9.4221 O   0  0  0  0  0  0  0  0  0  0  0  0
   24.7240  -36.9469  -10.3880 C   0  0  0  0  0  0  0  0  0  0  0  0
   25.3473  -36.2651  -11.5392 C   0  0  0  0  0  0  0  0  0  0  0  0
   25.2060  -34.7952  -11.6578 C   0  0  2  0  0  0  0  0  0  0  0  0
   25.7521  -34.2717  -12.8844 N   0  0  0  0  0  0  0  0  0  0  0  0
   25.5755  -33.9601  -10.5069 C   0  0  0  0  0  0  0  0  0  0  0  0
   26.7660  -33.5409  -10.3331 O   0  0  0  0  0  0  0  0  0  0  0  0
   24.6187  -33.5601   -9.5164 N   0  0  0  0  0  0  0  0  0  0  0  0
   24.8538  -32.8377   -8.3241 C   0  0  1  0  0  0  0  0  0  0  0  0
   23.6767  -32.1278   -7.7282 C   0  0  0  0  0  0  0  0  0  0  0  0
   22.7541  -31.3334   -9.1010 S   0  0  0  0  0  0  0  0  0  0  0  0
   25.6732  -33.5480   -7.2917 C   0  0  0  0  0  0  0  0  0  0  0  0
   26.1954  -32.8492   -6.2457 O   0  0  0  0  0  0  0  0  0  0  0  0
   25.8692  -34.7673   -7.3987 O   0  0  0  0  0  0  0  0  0  0  0  0
  2  1  1  6
  2  3  1  0
  4  3  1  0
  4  8  1  0
  5  4  2  0
  6  2  1  0
  7  6  2  0
  9 10  1  0
 10 12  1  0
 11 10  2  0
 12 13  1  0
 14 13  1  1
 14 15  1  0
 15  6  1  0
 16 14  1  0
 16 18  1  0
 17 16  2  0
 19 18  1  0
 19 22  1  0
 19 20  1  1
 20 21  1  0
 22 23  1  0
 24 22  2  0
M  END
$$$$
