MVV.pdb
     RDKit          3D

 23 22  0  0  1  0  0  0  0  0999 V2000
    7.4021  -11.6390   19.9267 C   0  0  0  0  0  0  0  0  0  0  0  0
    8.0699  -12.4982   18.4783 S   0  0  0  0  0  0  0  0  0  0  0  0
    8.1201  -14.2878   18.7196 C   0  0  0  0  0  0  0  0  0  0  0  0
    7.9502  -14.6909   20.1564 C   0  0  0  0  0  0  0  0  0  0  0  0
    7.9733  -16.1968   20.3394 C   0  0  2  0  0  0  0  0  0  0  0  0
    7.0309  -16.7700   19.4507 N   0  0  0  0  0  0  0  0  0  0  0  0
    7.9428  -16.6272   21.7261 C   0  0  0  0  0  0  0  0  0  0  0  0
    6.7919  -16.8202   22.2449 O   0  0  0  0  0  0  0  0  0  0  0  0
   10.3099  -18.4682   25.6403 C   0  0  0  0  0  0  0  0  0  0  0  0
   10.2028  -18.1710   24.1794 C   0  0  1  0  0  0  0  0  0  0  0  0
    9.8619  -19.4633   23.4697 C   0  0  0  0  0  0  0  0  0  0  0  0
    9.0658  -17.1994   23.9368 C   0  0  2  0  0  0  0  0  0  0  0  0
    9.0732  -16.8349   22.5044 N   0  0  0  0  0  0  0  0  0  0  0  0
    9.3165  -15.9855   24.7420 C   0  0  0  0  0  0  0  0  0  0  0  0
   10.3901  -15.3052   24.5039 O   0  0  0  0  0  0  0  0  0  0  0  0
    7.8999  -12.2110   27.5312 C   0  0  0  0  0  0  0  0  0  0  0  0
    7.6236  -13.4842   26.7892 C   0  0  1  0  0  0  0  0  0  0  0  0
    6.8482  -13.2143   25.5429 C   0  0  0  0  0  0  0  0  0  0  0  0
    8.9115  -14.2517   26.5128 C   0  0  2  0  0  0  0  0  0  0  0  0
    8.5021  -15.4602   25.7648 N   0  0  0  0  0  0  0  0  0  0  0  0
    9.5122  -14.5946   27.8162 C   0  0  0  0  0  0  0  0  0  0  0  0
    9.2487  -15.6545   28.4402 O   0  0  0  0  0  0  0  0  0  0  0  0
   10.4098  -13.7161   28.3877 O   0  0  0  0  0  0  0  0  0  0  0  0
  1  2  1  0
  3  2  1  0
  4  3  1  0
  5  6  1  6
  5  4  1  0
  7  5  1  0
  7 13  1  0
  8  7  2  0
 10  9  1  1
 10 12  1  0
 11 10  1  0
 12 13  1  6
 12 14  1  0
 14 20  1  0
 15 14  2  0
 17 19  1  0
 17 16  1  6
 18 17  1  0
 19 21  1  0
 19 20  1  1
 21 22  2  0
 21 23  1  0
M  END
$$$$
