MVV.pdb
     RDKit          3D

 23 22  0  0  1  0  0  0  0  0999 V2000
    6.2157  -20.9122   24.5940 C   0  0  0  0  0  0  0  0  0  0  0  0
    5.5028  -20.7574   22.9356 S   0  0  0  0  0  0  0  0  0  0  0  0
    5.6924  -19.0875   22.2734 C   0  0  0  0  0  0  0  0  0  0  0  0
    6.5800  -18.2188   23.1181 C   0  0  0  0  0  0  0  0  0  0  0  0
    6.7572  -16.8314   22.5303 C   0  0  2  0  0  0  0  0  0  0  0  0
    6.9695  -16.9601   21.1358 N   0  0  0  0  0  0  0  0  0  0  0  0
    7.6684  -15.9820   23.2768 C   0  0  0  0  0  0  0  0  0  0  0  0
    8.8775  -15.9341   22.8685 O   0  0  0  0  0  0  0  0  0  0  0  0
    6.8140  -12.4459   24.8101 C   0  0  0  0  0  0  0  0  0  0  0  0
    7.4264  -13.3150   25.8608 C   0  0  1  0  0  0  0  0  0  0  0  0
    6.3005  -13.9630   26.6369 C   0  0  0  0  0  0  0  0  0  0  0  0
    8.2295  -14.4206   25.2063 C   0  0  2  0  0  0  0  0  0  0  0  0
    7.3056  -15.2349   24.3890 N   0  0  0  0  0  0  0  0  0  0  0  0
    8.8010  -15.2691   26.2732 C   0  0  0  0  0  0  0  0  0  0  0  0
    8.0212  -16.1133   26.8661 O   0  0  0  0  0  0  0  0  0  0  0  0
   12.5147  -16.7707   26.2032 C   0  0  0  0  0  0  0  0  0  0  0  0
   12.1078  -16.3295   27.5772 C   0  0  1  0  0  0  0  0  0  0  0  0
   12.7468  -15.0270   27.9270 C   0  0  0  0  0  0  0  0  0  0  0  0
   10.5901  -16.2830   27.7143 C   0  0  2  0  0  0  0  0  0  0  0  0
   10.1325  -15.2746   26.7339 N   0  0  0  0  0  0  0  0  0  0  0  0
   10.2819  -15.8765   29.0989 C   0  0  0  0  0  0  0  0  0  0  0  0
    9.9123  -14.7155   29.4114 O   0  0  0  0  0  0  0  0  0  0  0  0
   10.4009  -16.8091   30.1089 O   0  0  0  0  0  0  0  0  0  0  0  0
  1  2  1  0
  3  2  1  0
  4  3  1  0
  5  6  1  6
  5  4  1  0
  7  5  1  0
  7 13  1  0
  8  7  2  0
 10  9  1  6
 10 12  1  0
 11 10  1  0
 12 13  1  6
 12 14  1  0
 14 20  1  0
 15 14  2  0
 17 19  1  0
 17 16  1  6
 18 17  1  0
 19 21  1  0
 19 20  1  6
 21 22  2  0
 21 23  1  0
M  END
$$$$
