MVV.pdb
     RDKit          3D

 23 22  0  0  1  0  0  0  0  0999 V2000
    2.6735  -18.7938   20.3518 C   0  0  0  0  0  0  0  0  0  0  0  0
    3.6621  -18.0982   21.7013 S   0  0  0  0  0  0  0  0  0  0  0  0
    5.4174  -18.0222   21.2815 C   0  0  0  0  0  0  0  0  0  0  0  0
    6.2566  -17.4249   22.3745 C   0  0  0  0  0  0  0  0  0  0  0  0
    6.7076  -16.0133   22.0491 C   0  0  2  0  0  0  0  0  0  0  0  0
    7.1614  -15.9867   20.7076 N   0  0  0  0  0  0  0  0  0  0  0  0
    7.5580  -15.4131   23.0619 C   0  0  0  0  0  0  0  0  0  0  0  0
    8.7995  -15.7100   23.0225 O   0  0  0  0  0  0  0  0  0  0  0  0
    5.8944  -13.6595   26.4332 C   0  0  0  0  0  0  0  0  0  0  0  0
    7.0947  -12.9621   25.8791 C   0  0  1  0  0  0  0  0  0  0  0  0
    7.9170  -12.4614   27.0465 C   0  0  0  0  0  0  0  0  0  0  0  0
    7.9471  -13.9470   25.1052 C   0  0  2  0  0  0  0  0  0  0  0  0
    7.1048  -14.5525   24.0523 N   0  0  0  0  0  0  0  0  0  0  0  0
    8.3872  -15.0073   26.0362 C   0  0  0  0  0  0  0  0  0  0  0  0
    7.5138  -15.8758   26.4302 O   0  0  0  0  0  0  0  0  0  0  0  0
   10.8793  -17.5975   25.4667 C   0  0  0  0  0  0  0  0  0  0  0  0
   11.2024  -17.0263   26.8148 C   0  0  1  0  0  0  0  0  0  0  0  0
   12.3772  -16.1094   26.7347 C   0  0  0  0  0  0  0  0  0  0  0  0
    9.9839  -16.3505   27.4335 C   0  0  2  0  0  0  0  0  0  0  0  0
    9.6818  -15.1965   26.5591 N   0  0  0  0  0  0  0  0  0  0  0  0
   10.3583  -15.9203   28.7944 C   0  0  0  0  0  0  0  0  0  0  0  0
   10.5197  -14.7154   29.1175 O   0  0  0  0  0  0  0  0  0  0  0  0
   10.5420  -16.8795   29.7692 O   0  0  0  0  0  0  0  0  0  0  0  0
  1  2  1  0
  3  2  1  0
  4  3  1  0
  5  6  1  6
  5  4  1  0
  7  5  1  0
  7 13  1  0
  8  7  2  0
 10  9  1  1
 10 12  1  0
 11 10  1  0
 12 13  1  6
 12 14  1  0
 14 20  1  0
 15 14  2  0
 17 19  1  0
 17 16  1  6
 18 17  1  0
 19 21  1  0
 19 20  1  6
 21 22  2  0
 21 23  1  0
M  END
$$$$
