MVV.pdb
     RDKit          3D

 23 22  0  0  1  0  0  0  0  0999 V2000
    8.3409  -20.0124   29.1678 C   0  0  0  0  0  0  0  0  0  0  0  0
    6.6482  -19.5940   28.6760 S   0  0  0  0  0  0  0  0  0  0  0  0
    6.5997  -18.7401   27.0849 C   0  0  0  0  0  0  0  0  0  0  0  0
    7.4862  -19.3743   26.0516 C   0  0  0  0  0  0  0  0  0  0  0  0
    6.9333  -19.2238   24.6469 C   0  0  2  0  0  0  0  0  0  0  0  0
    6.6794  -20.5159   24.1252 N   0  0  0  0  0  0  0  0  0  0  0  0
    7.6735  -18.2924   23.8138 C   0  0  0  0  0  0  0  0  0  0  0  0
    8.8299  -18.6645   23.4198 O   0  0  0  0  0  0  0  0  0  0  0  0
    6.5444  -16.4076   20.8647 C   0  0  0  0  0  0  0  0  0  0  0  0
    7.1805  -15.3462   21.7032 C   0  0  1  0  0  0  0  0  0  0  0  0
    6.0730  -14.5635   22.3746 C   0  0  0  0  0  0  0  0  0  0  0  0
    8.0163  -15.9870   22.7925 C   0  0  2  0  0  0  0  0  0  0  0  0
    7.2036  -17.0437   23.4309 N   0  0  0  0  0  0  0  0  0  0  0  0
    8.3339  -14.9522   23.7991 C   0  0  0  0  0  0  0  0  0  0  0  0
    9.0902  -13.9654   23.4434 O   0  0  0  0  0  0  0  0  0  0  0  0
    7.3716  -12.2443   27.7231 C   0  0  0  0  0  0  0  0  0  0  0  0
    7.0680  -13.3467   26.7533 C   0  0  1  0  0  0  0  0  0  0  0  0
    5.9977  -12.9335   25.7987 C   0  0  0  0  0  0  0  0  0  0  0  0
    8.3302  -13.8146   26.0378 C   0  0  2  0  0  0  0  0  0  0  0  0
    7.8966  -14.9052   25.1377 N   0  0  0  0  0  0  0  0  0  0  0  0
    9.2703  -14.2984   27.0672 C   0  0  0  0  0  0  0  0  0  0  0  0
    9.4083  -15.5141   27.3592 O   0  0  0  0  0  0  0  0  0  0  0  0
   10.0420  -13.3799   27.7488 O   0  0  0  0  0  0  0  0  0  0  0  0
  1  2  1  0
  3  2  1  0
  4  3  1  0
  5  6  1  6
  5  4  1  0
  7  5  1  0
  7 13  1  0
  8  7  2  0
 10  9  1  6
 10 12  1  0
 11 10  1  0
 12 13  1  1
 12 14  1  0
 14 20  1  0
 15 14  2  0
 17 19  1  0
 17 16  1  1
 18 17  1  0
 19 21  1  0
 19 20  1  6
 21 22  2  0
 21 23  1  0
M  END
$$$$
