MVV.pdb
     RDKit          3D

 23 22  0  0  1  0  0  0  0  0999 V2000
    8.2063  -20.8916   26.3015 C   0  0  0  0  0  0  0  0  0  0  0  0
    6.7676  -20.0769   27.0423 S   0  0  0  0  0  0  0  0  0  0  0  0
    6.2986  -18.5844   26.1392 C   0  0  0  0  0  0  0  0  0  0  0  0
    6.1253  -18.8203   24.6660 C   0  0  0  0  0  0  0  0  0  0  0  0
    5.9507  -17.5274   23.8917 C   0  0  2  0  0  0  0  0  0  0  0  0
    5.6872  -17.8489   22.5377 N   0  0  0  0  0  0  0  0  0  0  0  0
    6.9711  -16.5301   24.1629 C   0  0  0  0  0  0  0  0  0  0  0  0
    8.0692  -16.6389   23.5202 O   0  0  0  0  0  0  0  0  0  0  0  0
    6.5529  -12.6317   24.5639 C   0  0  0  0  0  0  0  0  0  0  0  0
    7.2088  -13.2040   25.7790 C   0  0  1  0  0  0  0  0  0  0  0  0
    6.1248  -13.4971   26.7933 C   0  0  0  0  0  0  0  0  0  0  0  0
    7.8780  -14.5174   25.4287 C   0  0  2  0  0  0  0  0  0  0  0  0
    6.8224  -15.4862   25.0657 N   0  0  0  0  0  0  0  0  0  0  0  0
    8.5874  -15.0082   26.6290 C   0  0  0  0  0  0  0  0  0  0  0  0
    7.8914  -15.5689   27.5636 O   0  0  0  0  0  0  0  0  0  0  0  0
   11.9666  -16.9470   26.4077 C   0  0  0  0  0  0  0  0  0  0  0  0
   11.9807  -16.0311   27.5947 C   0  0  1  0  0  0  0  0  0  0  0  0
   12.8143  -14.8233   27.3228 C   0  0  0  0  0  0  0  0  0  0  0  0
   10.5647  -15.6693   28.0286 C   0  0  2  0  0  0  0  0  0  0  0  0
    9.9714  -14.9426   26.8853 N   0  0  0  0  0  0  0  0  0  0  0  0
   10.6726  -14.8107   29.2238 C   0  0  0  0  0  0  0  0  0  0  0  0
   10.4211  -13.5783   29.2133 O   0  0  0  0  0  0  0  0  0  0  0  0
   11.0674  -15.3781   30.4181 O   0  0  0  0  0  0  0  0  0  0  0  0
  1  2  1  0
  3  2  1  0
  4  3  1  0
  5  6  1  6
  5  4  1  0
  7  5  1  0
  7 13  1  0
  8  7  2  0
 10  9  1  6
 10 12  1  0
 11 10  1  0
 12 13  1  1
 12 14  1  0
 14 20  1  0
 15 14  2  0
 17 19  1  0
 17 16  1  6
 18 17  1  0
 19 21  1  0
 19 20  1  6
 21 22  2  0
 21 23  1  0
M  END
$$$$
