MVV.pdb
     RDKit          3D

 23 22  0  0  1  0  0  0  0  0999 V2000
    4.7340  -12.7490   26.6605 C   0  0  0  0  0  0  0  0  0  0  0  0
    6.5322  -12.9695   26.6502 S   0  0  0  0  0  0  0  0  0  0  0  0
    6.9982  -14.7132   26.7250 C   0  0  0  0  0  0  0  0  0  0  0  0
    5.8433  -15.6402   26.4752 C   0  0  0  0  0  0  0  0  0  0  0  0
    5.8983  -16.2714   25.0966 C   0  0  2  0  0  0  0  0  0  0  0  0
    4.9908  -17.3585   25.0658 N   0  0  0  0  0  0  0  0  0  0  0  0
    7.2442  -16.5007   24.6016 C   0  0  0  0  0  0  0  0  0  0  0  0
    7.8393  -17.5525   25.0145 O   0  0  0  0  0  0  0  0  0  0  0  0
    8.4909  -14.8659   21.0773 C   0  0  0  0  0  0  0  0  0  0  0  0
    9.5397  -14.8176   22.1412 C   0  0  1  0  0  0  0  0  0  0  0  0
    9.4397  -13.4721   22.8265 C   0  0  0  0  0  0  0  0  0  0  0  0
    9.2635  -15.8847   23.1808 C   0  0  2  0  0  0  0  0  0  0  0  0
    7.9077  -15.6555   23.7228 N   0  0  0  0  0  0  0  0  0  0  0  0
   10.2486  -15.7314   24.2721 C   0  0  0  0  0  0  0  0  0  0  0  0
   11.4885  -15.9964   24.0177 O   0  0  0  0  0  0  0  0  0  0  0  0
   10.2092  -13.0398   27.2120 C   0  0  0  0  0  0  0  0  0  0  0  0
   10.5758  -14.3993   27.7273 C   0  0  1  0  0  0  0  0  0  0  0  0
    9.4356  -15.0092   28.4726 C   0  0  0  0  0  0  0  0  0  0  0  0
   11.0771  -15.2984   26.6028 C   0  0  2  0  0  0  0  0  0  0  0  0
    9.9955  -15.3148   25.5941 N   0  0  0  0  0  0  0  0  0  0  0  0
   11.3089  -16.6382   27.1757 C   0  0  0  0  0  0  0  0  0  0  0  0
   10.5611  -17.6242   26.9502 O   0  0  0  0  0  0  0  0  0  0  0  0
   12.3982  -16.8305   28.0007 O   0  0  0  0  0  0  0  0  0  0  0  0
  1  2  1  0
  3  2  1  0
  4  3  1  0
  5  6  1  1
  5  4  1  0
  7  5  1  0
  7 13  1  0
  8  7  2  0
 10  9  1  6
 10 12  1  0
 11 10  1  0
 12 13  1  1
 12 14  1  0
 14 20  1  0
 15 14  2  0
 17 19  1  0
 17 16  1  6
 18 17  1  0
 19 21  1  0
 19 20  1  6
 21 22  2  0
 21 23  1  0
M  END
$$$$
