MVV.pdb
     RDKit          3D

 23 22  0  0  1  0  0  0  0  0999 V2000
    7.6256  -11.5066   27.0427 C   0  0  0  0  0  0  0  0  0  0  0  0
    5.9252  -12.1196   26.9192 S   0  0  0  0  0  0  0  0  0  0  0  0
    5.8339  -13.9077   27.1593 C   0  0  0  0  0  0  0  0  0  0  0  0
    6.8505  -14.6609   26.3501 C   0  0  0  0  0  0  0  0  0  0  0  0
    6.2083  -15.5676   25.3171 C   0  0  2  0  0  0  0  0  0  0  0  0
    5.5385  -16.6150   25.9958 N   0  0  0  0  0  0  0  0  0  0  0  0
    7.0843  -15.9277   24.2161 C   0  0  0  0  0  0  0  0  0  0  0  0
    7.8323  -16.9490   24.3845 O   0  0  0  0  0  0  0  0  0  0  0  0
    8.3273  -13.1446   21.4821 C   0  0  0  0  0  0  0  0  0  0  0  0
    7.9529  -14.4540   20.8661 C   0  0  1  0  0  0  0  0  0  0  0  0
    8.9502  -14.7483   19.7668 C   0  0  0  0  0  0  0  0  0  0  0  0
    8.0679  -15.5569   21.8986 C   0  0  2  0  0  0  0  0  0  0  0  0
    7.1535  -15.2359   23.0147 N   0  0  0  0  0  0  0  0  0  0  0  0
    9.4564  -15.5717   22.4051 C   0  0  0  0  0  0  0  0  0  0  0  0
    9.8739  -14.5465   23.0737 O   0  0  0  0  0  0  0  0  0  0  0  0
   13.4922  -17.9272   23.8886 C   0  0  0  0  0  0  0  0  0  0  0  0
   12.0519  -17.8202   23.4857 C   0  0  1  0  0  0  0  0  0  0  0  0
   11.1547  -18.0914   24.6472 C   0  0  0  0  0  0  0  0  0  0  0  0
   11.7606  -16.4735   22.8334 C   0  0  2  0  0  0  0  0  0  0  0  0
   10.4080  -16.5989   22.2482 N   0  0  0  0  0  0  0  0  0  0  0  0
   12.7856  -16.2522   21.7953 C   0  0  0  0  0  0  0  0  0  0  0  0
   13.8535  -15.6209   22.0032 O   0  0  0  0  0  0  0  0  0  0  0  0
   12.5725  -16.7598   20.5300 O   0  0  0  0  0  0  0  0  0  0  0  0
  1  2  1  0
  3  2  1  0
  4  3  1  0
  5  6  1  1
  5  4  1  0
  7  5  1  0
  7 13  1  0
  8  7  2  0
 10  9  1  1
 10 12  1  0
 11 10  1  0
 12 13  1  1
 12 14  1  0
 14 20  1  0
 15 14  2  0
 17 19  1  0
 17 16  1  1
 18 17  1  0
 19 21  1  0
 19 20  1  6
 21 22  2  0
 21 23  1  0
M  END
$$$$
