MVV.pdb
     RDKit          3D

 23 22  0  0  1  0  0  0  0  0999 V2000
   14.3619  -19.9607   24.0441 C   0  0  0  0  0  0  0  0  0  0  0  0
   14.8832  -19.6397   22.3389 S   0  0  0  0  0  0  0  0  0  0  0  0
   13.9306  -18.3042   21.5826 C   0  0  0  0  0  0  0  0  0  0  0  0
   12.4865  -18.6597   21.3729 C   0  0  0  0  0  0  0  0  0  0  0  0
   11.6814  -17.4990   20.8194 C   0  0  2  0  0  0  0  0  0  0  0  0
   12.3169  -17.0350   19.6416 N   0  0  0  0  0  0  0  0  0  0  0  0
   11.3001  -16.5124   21.8146 C   0  0  0  0  0  0  0  0  0  0  0  0
   11.9733  -15.4274   21.8386 O   0  0  0  0  0  0  0  0  0  0  0  0
    7.7629  -15.2342   22.1206 C   0  0  0  0  0  0  0  0  0  0  0  0
    8.1950  -15.6774   23.4812 C   0  0  1  0  0  0  0  0  0  0  0  0
    7.7816  -17.1235   23.6480 C   0  0  0  0  0  0  0  0  0  0  0  0
    9.7054  -15.6162   23.5836 C   0  0  2  0  0  0  0  0  0  0  0  0
   10.2657  -16.6807   22.7248 N   0  0  0  0  0  0  0  0  0  0  0  0
   10.0838  -15.8834   24.9873 C   0  0  0  0  0  0  0  0  0  0  0  0
   10.5764  -17.0434   25.2771 O   0  0  0  0  0  0  0  0  0  0  0  0
   10.9474  -13.0420   27.9704 C   0  0  0  0  0  0  0  0  0  0  0  0
   10.1064  -14.2268   28.3406 C   0  0  1  0  0  0  0  0  0  0  0  0
    8.6579  -13.8676   28.3482 C   0  0  0  0  0  0  0  0  0  0  0  0
   10.4012  -15.4167   27.4342 C   0  0  2  0  0  0  0  0  0  0  0  0
    9.9748  -15.0010   26.0803 N   0  0  0  0  0  0  0  0  0  0  0  0
    9.6084  -16.5586   27.9290 C   0  0  0  0  0  0  0  0  0  0  0  0
    8.4933  -16.8851   27.4473 O   0  0  0  0  0  0  0  0  0  0  0  0
   10.1064  -17.3133   28.9713 O   0  0  0  0  0  0  0  0  0  0  0  0
  1  2  1  0
  3  2  1  0
  4  3  1  0
  5  6  1  6
  5  4  1  0
  7  5  1  0
  7 13  1  0
  8  7  2  0
 10  9  1  6
 10 12  1  0
 11 10  1  0
 12 13  1  6
 12 14  1  0
 14 20  1  0
 15 14  2  0
 17 19  1  0
 17 16  1  6
 18 17  1  0
 19 21  1  0
 19 20  1  6
 21 22  2  0
 21 23  1  0
M  END
$$$$
