MVV.pdb
     RDKit          3D

 23 22  0  0  1  0  0  0  0  0999 V2000
    8.6781  -11.8557   19.4720 C   0  0  0  0  0  0  0  0  0  0  0  0
    8.5229  -13.0333   18.1041 S   0  0  0  0  0  0  0  0  0  0  0  0
    8.3893  -14.7362   18.6921 C   0  0  0  0  0  0  0  0  0  0  0  0
    7.3840  -14.8983   19.7961 C   0  0  0  0  0  0  0  0  0  0  0  0
    7.3585  -16.3105   20.3499 C   0  0  2  0  0  0  0  0  0  0  0  0
    6.7381  -17.1541   19.3962 N   0  0  0  0  0  0  0  0  0  0  0  0
    6.9060  -16.4005   21.7270 C   0  0  0  0  0  0  0  0  0  0  0  0
    5.6457  -16.3423   21.9249 O   0  0  0  0  0  0  0  0  0  0  0  0
    7.4483  -17.9892   26.2613 C   0  0  0  0  0  0  0  0  0  0  0  0
    7.7741  -17.9301   24.8037 C   0  0  1  0  0  0  0  0  0  0  0  0
    6.9917  -19.0250   24.1116 C   0  0  0  0  0  0  0  0  0  0  0  0
    7.3157  -16.6047   24.2302 C   0  0  2  0  0  0  0  0  0  0  0  0
    7.7511  -16.5417   22.8191 N   0  0  0  0  0  0  0  0  0  0  0  0
    7.9790  -15.5211   24.9857 C   0  0  0  0  0  0  0  0  0  0  0  0
    9.2524  -15.3584   24.8300 O   0  0  0  0  0  0  0  0  0  0  0  0
    6.5579  -11.8524   25.8972 C   0  0  0  0  0  0  0  0  0  0  0  0
    7.1993  -12.5422   27.0637 C   0  0  1  0  0  0  0  0  0  0  0  0
    6.1653  -13.0933   27.9881 C   0  0  0  0  0  0  0  0  0  0  0  0
    8.1854  -13.6082   26.5995 C   0  0  2  0  0  0  0  0  0  0  0  0
    7.3749  -14.6132   25.8779 N   0  0  0  0  0  0  0  0  0  0  0  0
    8.8190  -14.1807   27.8028 C   0  0  0  0  0  0  0  0  0  0  0  0
    8.4668  -15.2746   28.3143 O   0  0  0  0  0  0  0  0  0  0  0  0
    9.8512  -13.4903   28.4045 O   0  0  0  0  0  0  0  0  0  0  0  0
  1  2  1  0
  3  2  1  0
  4  3  1  0
  5  6  1  6
  5  4  1  0
  7  5  1  0
  7 13  1  0
  8  7  2  0
 10  9  1  1
 10 12  1  0
 11 10  1  0
 12 13  1  6
 12 14  1  0
 14 20  1  0
 15 14  2  0
 17 19  1  0
 17 16  1  6
 18 17  1  0
 19 21  1  0
 19 20  1  1
 21 22  2  0
 21 23  1  0
M  END
$$$$
