MVV.pdb
     RDKit          3D

 23 22  0  0  1  0  0  0  0  0999 V2000
    6.0648  -20.9394   25.9393 C   0  0  0  0  0  0  0  0  0  0  0  0
    5.2455  -21.0264   24.3258 S   0  0  0  0  0  0  0  0  0  0  0  0
    5.4924  -19.5186   23.3620 C   0  0  0  0  0  0  0  0  0  0  0  0
    6.5219  -18.6027   23.9594 C   0  0  0  0  0  0  0  0  0  0  0  0
    6.7073  -17.3353   23.1463 C   0  0  2  0  0  0  0  0  0  0  0  0
    6.9228  -17.6986   21.7943 N   0  0  0  0  0  0  0  0  0  0  0  0
    7.6206  -16.3758   23.7417 C   0  0  0  0  0  0  0  0  0  0  0  0
    8.8576  -16.4990   23.4495 O   0  0  0  0  0  0  0  0  0  0  0  0
    6.7905  -12.5332   24.5004 C   0  0  0  0  0  0  0  0  0  0  0  0
    7.3579  -13.2056   25.7088 C   0  0  1  0  0  0  0  0  0  0  0  0
    6.1995  -13.6794   26.5595 C   0  0  0  0  0  0  0  0  0  0  0  0
    8.1505  -14.4271   25.2900 C   0  0  2  0  0  0  0  0  0  0  0  0
    7.2312  -15.3530   24.5955 N   0  0  0  0  0  0  0  0  0  0  0  0
    8.6629  -15.0853   26.5103 C   0  0  0  0  0  0  0  0  0  0  0  0
    7.8587  -15.8476   27.1769 O   0  0  0  0  0  0  0  0  0  0  0  0
   11.5649  -17.3468   26.6645 C   0  0  0  0  0  0  0  0  0  0  0  0
   11.7038  -16.4226   27.8369 C   0  0  1  0  0  0  0  0  0  0  0  0
   12.7487  -15.3891   27.5767 C   0  0  0  0  0  0  0  0  0  0  0  0
   10.3620  -15.8045   28.2136 C   0  0  2  0  0  0  0  0  0  0  0  0
    9.9606  -14.9848   27.0498 N   0  0  0  0  0  0  0  0  0  0  0  0
   10.5768  -14.9765   29.4159 C   0  0  0  0  0  0  0  0  0  0  0  0
   10.5394  -13.7193   29.4038 O   0  0  0  0  0  0  0  0  0  0  0  0
   10.8309  -15.6025   30.6190 O   0  0  0  0  0  0  0  0  0  0  0  0
  1  2  1  0
  3  2  1  0
  4  3  1  0
  5  6  1  6
  5  4  1  0
  7  5  1  0
  7 13  1  0
  8  7  2  0
 10  9  1  6
 10 12  1  0
 11 10  1  0
 12 13  1  1
 12 14  1  0
 14 20  1  0
 15 14  2  0
 17 19  1  0
 17 16  1  6
 18 17  1  0
 19 21  1  0
 19 20  1  6
 21 22  2  0
 21 23  1  0
M  END
$$$$
