MVV.pdb
     RDKit          3D

 23 22  0  0  1  0  0  0  0  0999 V2000
    5.8861  -12.1601   27.7584 C   0  0  0  0  0  0  0  0  0  0  0  0
    6.2098  -11.6537   26.0493 S   0  0  0  0  0  0  0  0  0  0  0  0
    6.1505  -13.0532   24.9086 C   0  0  0  0  0  0  0  0  0  0  0  0
    6.5098  -14.3573   25.5612 C   0  0  0  0  0  0  0  0  0  0  0  0
    6.4092  -15.5288   24.6024 C   0  0  2  0  0  0  0  0  0  0  0  0
    5.1485  -16.1485   24.7839 N   0  0  0  0  0  0  0  0  0  0  0  0
    7.5845  -16.3818   24.5813 C   0  0  0  0  0  0  0  0  0  0  0  0
    7.5690  -17.4039   25.3467 O   0  0  0  0  0  0  0  0  0  0  0  0
   11.0325  -15.2994   22.3475 C   0  0  0  0  0  0  0  0  0  0  0  0
   10.6809  -16.7413   22.5249 C   0  0  1  0  0  0  0  0  0  0  0  0
   11.9730  -17.5260   22.5935 C   0  0  0  0  0  0  0  0  0  0  0  0
    9.9560  -16.9331   23.8415 C   0  0  2  0  0  0  0  0  0  0  0  0
    8.7026  -16.1513   23.7918 N   0  0  0  0  0  0  0  0  0  0  0  0
   10.8121  -16.3990   24.9215 C   0  0  0  0  0  0  0  0  0  0  0  0
   11.7856  -15.6120   24.5969 O   0  0  0  0  0  0  0  0  0  0  0  0
   10.5361  -13.8551   27.1038 C   0  0  0  0  0  0  0  0  0  0  0  0
   10.9059  -14.9871   28.0148 C   0  0  1  0  0  0  0  0  0  0  0  0
    9.7008  -15.5187   28.7165 C   0  0  0  0  0  0  0  0  0  0  0  0
   11.6625  -16.0757   27.2621 C   0  0  2  0  0  0  0  0  0  0  0  0
   10.6911  -16.6456   26.3035 N   0  0  0  0  0  0  0  0  0  0  0  0
   12.1022  -17.0767   28.2530 C   0  0  0  0  0  0  0  0  0  0  0  0
   11.5348  -18.1883   28.4097 O   0  0  0  0  0  0  0  0  0  0  0  0
   13.1899  -16.7896   29.0522 O   0  0  0  0  0  0  0  0  0  0  0  0
  1  2  1  0
  3  2  1  0
  4  3  1  0
  5  6  1  1
  5  4  1  0
  7  5  1  0
  7 13  1  0
  8  7  2  0
 10  9  1  1
 10 12  1  0
 11 10  1  0
 12 13  1  6
 12 14  1  0
 14 20  1  0
 15 14  2  0
 17 19  1  0
 17 16  1  6
 18 17  1  0
 19 21  1  0
 19 20  1  6
 21 22  2  0
 21 23  1  0
M  END
$$$$
