MVV.pdb
     RDKit          3D

 23 22  0  0  1  0  0  0  0  0999 V2000
    8.5197  -11.9780   19.4817 C   0  0  0  0  0  0  0  0  0  0  0  0
    8.3083  -13.2207   18.1805 S   0  0  0  0  0  0  0  0  0  0  0  0
    8.2211  -14.8945   18.8543 C   0  0  0  0  0  0  0  0  0  0  0  0
    7.2286  -15.0251   19.9740 C   0  0  0  0  0  0  0  0  0  0  0  0
    7.2532  -16.4029   20.6086 C   0  0  2  0  0  0  0  0  0  0  0  0
    6.6607  -17.3212   19.7075 N   0  0  0  0  0  0  0  0  0  0  0  0
    6.8066  -16.4286   21.9903 C   0  0  0  0  0  0  0  0  0  0  0  0
    5.5466  -16.3730   22.1903 O   0  0  0  0  0  0  0  0  0  0  0  0
    6.8151  -18.9428   24.2816 C   0  0  0  0  0  0  0  0  0  0  0  0
    7.5377  -17.8953   25.0657 C   0  0  1  0  0  0  0  0  0  0  0  0
    9.0222  -18.1354   24.8974 C   0  0  0  0  0  0  0  0  0  0  0  0
    7.2262  -16.5254   24.4983 C   0  0  2  0  0  0  0  0  0  0  0  0
    7.6571  -16.5070   23.0846 N   0  0  0  0  0  0  0  0  0  0  0  0
    8.0107  -15.5247   25.2519 C   0  0  0  0  0  0  0  0  0  0  0  0
    9.2432  -15.3317   24.9112 O   0  0  0  0  0  0  0  0  0  0  0  0
    7.1579  -11.8686   26.1763 C   0  0  0  0  0  0  0  0  0  0  0  0
    7.6502  -12.5892   27.3954 C   0  0  1  0  0  0  0  0  0  0  0  0
    6.5144  -12.9469   28.2950 C   0  0  0  0  0  0  0  0  0  0  0  0
    8.4906  -13.8034   27.0162 C   0  0  2  0  0  0  0  0  0  0  0  0
    7.5656  -14.7277   26.3252 N   0  0  0  0  0  0  0  0  0  0  0  0
    9.0139  -14.3885   28.2656 C   0  0  0  0  0  0  0  0  0  0  0  0
    8.5389  -15.4267   28.7935 O   0  0  0  0  0  0  0  0  0  0  0  0
   10.0781  -13.7747   28.8940 O   0  0  0  0  0  0  0  0  0  0  0  0
  1  2  1  0
  3  2  1  0
  4  3  1  0
  5  6  1  6
  5  4  1  0
  7  5  1  0
  7 13  1  0
  8  7  2  0
 10  9  1  6
 10 12  1  0
 11 10  1  0
 12 13  1  6
 12 14  1  0
 14 20  1  0
 15 14  2  0
 17 19  1  0
 17 16  1  6
 18 17  1  0
 19 21  1  0
 19 20  1  1
 21 22  2  0
 21 23  1  0
M  END
$$$$
