MVV.pdb
     RDKit          3D

 23 22  0  0  1  0  0  0  0  0999 V2000
    6.3763  -20.7935   26.4314 C   0  0  0  0  0  0  0  0  0  0  0  0
    6.1360  -21.2186   24.6868 S   0  0  0  0  0  0  0  0  0  0  0  0
    6.2630  -19.7694   23.6159 C   0  0  0  0  0  0  0  0  0  0  0  0
    6.0589  -18.4763   24.3522 C   0  0  0  0  0  0  0  0  0  0  0  0
    6.2528  -17.2665   23.4575 C   0  0  2  0  0  0  0  0  0  0  0  0
    6.4756  -17.7198   22.1342 N   0  0  0  0  0  0  0  0  0  0  0  0
    7.1650  -16.2715   23.9933 C   0  0  0  0  0  0  0  0  0  0  0  0
    8.3725  -16.3139   23.5796 O   0  0  0  0  0  0  0  0  0  0  0  0
    7.8479  -12.4128   27.0679 C   0  0  0  0  0  0  0  0  0  0  0  0
    6.9318  -13.3651   26.3693 C   0  0  1  0  0  0  0  0  0  0  0  0
    6.1291  -12.5751   25.3586 C   0  0  0  0  0  0  0  0  0  0  0  0
    7.7449  -14.3927   25.6086 C   0  0  2  0  0  0  0  0  0  0  0  0
    6.8047  -15.2968   24.9136 N   0  0  0  0  0  0  0  0  0  0  0  0
    8.5294  -15.1759   26.5864 C   0  0  0  0  0  0  0  0  0  0  0  0
    7.8918  -15.9580   27.3951 O   0  0  0  0  0  0  0  0  0  0  0  0
   11.8744  -17.0573   25.8166 C   0  0  0  0  0  0  0  0  0  0  0  0
   11.9641  -16.3721   27.1472 C   0  0  1  0  0  0  0  0  0  0  0  0
   12.7995  -15.1389   27.0535 C   0  0  0  0  0  0  0  0  0  0  0  0
   10.5782  -16.0885   27.7156 C   0  0  2  0  0  0  0  0  0  0  0  0
    9.9292  -15.1786   26.7470 N   0  0  0  0  0  0  0  0  0  0  0  0
   10.7612  -15.4445   29.0306 C   0  0  0  0  0  0  0  0  0  0  0  0
   11.1136  -16.0709   30.0628 O   0  0  0  0  0  0  0  0  0  0  0  0
   10.5382  -14.0875   29.1445 O   0  0  0  0  0  0  0  0  0  0  0  0
  1  2  1  0
  3  2  1  0
  4  3  1  0
  5  6  1  6
  5  4  1  0
  7  5  1  0
  7 13  1  0
  8  7  2  0
 10  9  1  6
 10 12  1  0
 11 10  1  0
 12 13  1  1
 12 14  1  0
 14 20  1  0
 15 14  2  0
 17 19  1  0
 17 16  1  6
 18 17  1  0
 19 21  1  0
 19 20  1  6
 21 22  2  0
 21 23  1  0
M  END
$$$$
