LAK.pdb
     RDKit          3D

 23 22  0  0  1  0  0  0  0  0999 V2000
    8.8204  -12.2710   19.5499 C   0  0  0  0  0  0  0  0  0  0  0  0
    7.6788  -13.1941   19.2544 C   0  0  2  0  0  0  0  0  0  0  0  0
    6.3617  -12.4856   19.0715 C   0  0  0  0  0  0  0  0  0  0  0  0
    7.6177  -14.2405   20.3461 C   0  0  0  0  0  0  0  0  0  0  0  0
    8.9952  -14.8541   20.4708 C   0  0  2  0  0  0  0  0  0  0  0  0
    9.3552  -15.4709   19.2209 N   0  0  0  0  0  0  0  0  0  0  0  0
    9.0379  -15.8422   21.5981 C   0  0  0  0  0  0  0  0  0  0  0  0
    8.7369  -15.5225   22.7693 O   0  0  0  0  0  0  0  0  0  0  0  0
    9.3701  -19.5828   21.8059 C   0  0  0  0  0  0  0  0  0  0  0  0
    9.6694  -18.1745   22.3130 C   0  0  2  0  0  0  0  0  0  0  0  0
    9.4316  -17.1769   21.3221 N   0  0  0  0  0  0  0  0  0  0  0  0
   11.0905  -18.1916   22.7763 C   0  0  0  0  0  0  0  0  0  0  0  0
   11.5328  -19.2026   23.3797 O   0  0  0  0  0  0  0  0  0  0  0  0
   11.9748  -17.1180   22.5697 N   0  0  0  0  0  0  0  0  0  0  0  0
   13.3434  -17.0777   23.0475 C   0  0  1  0  0  0  0  0  0  0  0  0
   14.0645  -16.0538   22.2147 C   0  0  0  0  0  0  0  0  0  0  0  0
   13.9678  -16.2486   20.7522 C   0  0  0  0  0  0  0  0  0  0  0  0
   14.7147  -15.3086   19.8818 C   0  0  0  0  0  0  0  0  0  0  0  0
   14.6716  -15.6139   18.4099 C   0  0  0  0  0  0  0  0  0  0  0  0
   15.4048  -14.6592   17.6122 N   0  0  0  0  0  0  0  0  0  0  0  0
   13.3306  -16.7717   24.4755 C   0  0  0  0  0  0  0  0  0  0  0  0
   14.4106  -16.9598   25.3276 O   0  0  0  0  0  0  0  0  0  0  0  0
   12.2925  -16.3056   25.0071 O   0  0  0  0  0  0  0  0  0  0  0  0
  2  1  1  1
  2  3  1  0
  4  2  1  0
  5  4  1  0
  5  7  1  0
  5  6  1  6
  7  8  2  0
  7 11  1  0
 10  9  1  6
 11 10  1  0
 12 10  1  0
 12 14  1  0
 13 12  2  0
 15 14  1  0
 15 21  1  0
 15 16  1  6
 17 18  1  0
 17 16  1  0
 19 18  1  0
 20 19  1  0
 21 22  1  0
 23 21  2  0
M  END
$$$$
