LAK.pdb
     RDKit          3D

 23 22  0  0  1  0  0  0  0  0999 V2000
    7.3988  -11.6603   26.5534 C   0  0  0  0  0  0  0  0  0  0  0  0
    6.5793  -12.6897   25.8382 C   0  0  2  0  0  0  0  0  0  0  0  0
    5.0977  -12.4192   25.8831 C   0  0  0  0  0  0  0  0  0  0  0  0
    6.9287  -14.0509   26.4000 C   0  0  0  0  0  0  0  0  0  0  0  0
    6.5057  -15.0889   25.3834 C   0  0  2  0  0  0  0  0  0  0  0  0
    5.7110  -16.0963   26.0361 N   0  0  0  0  0  0  0  0  0  0  0  0
    7.7016  -15.6912   24.7083 C   0  0  0  0  0  0  0  0  0  0  0  0
    8.4737  -16.4735   25.3053 O   0  0  0  0  0  0  0  0  0  0  0  0
    9.0623  -15.3355   21.1599 C   0  0  0  0  0  0  0  0  0  0  0  0
    8.9779  -15.9565   22.5519 C   0  0  2  0  0  0  0  0  0  0  0  0
    7.9597  -15.3607   23.3531 N   0  0  0  0  0  0  0  0  0  0  0  0
   10.3375  -15.8119   23.1559 C   0  0  0  0  0  0  0  0  0  0  0  0
   10.8110  -14.6623   23.3468 O   0  0  0  0  0  0  0  0  0  0  0  0
   11.1293  -16.9124   23.5288 N   0  0  0  0  0  0  0  0  0  0  0  0
   12.4490  -16.8115   24.1213 C   0  0  1  0  0  0  0  0  0  0  0  0
   12.6397  -18.0388   24.9694 C   0  0  0  0  0  0  0  0  0  0  0  0
   11.8158  -18.0923   26.1960 C   0  0  0  0  0  0  0  0  0  0  0  0
   11.8293  -19.3512   26.9797 C   0  0  0  0  0  0  0  0  0  0  0  0
   10.9840  -19.3500   28.2235 C   0  0  0  0  0  0  0  0  0  0  0  0
   11.0961  -20.5718   28.9850 N   0  0  0  0  0  0  0  0  0  0  0  0
   13.4328  -16.6775   23.0502 C   0  0  0  0  0  0  0  0  0  0  0  0
   14.6364  -15.9960   23.1716 O   0  0  0  0  0  0  0  0  0  0  0  0
   13.2132  -17.1990   21.9290 O   0  0  0  0  0  0  0  0  0  0  0  0
  2  1  1  1
  2  3  1  0
  4  2  1  0
  5  4  1  0
  5  7  1  0
  5  6  1  1
  7  8  2  0
  7 11  1  0
 10  9  1  6
 11 10  1  0
 12 10  1  0
 12 14  1  0
 13 12  2  0
 15 14  1  0
 15 21  1  0
 15 16  1  6
 17 18  1  0
 17 16  1  0
 19 18  1  0
 20 19  1  0
 21 22  1  0
 23 21  2  0
M  END
$$$$
