LAK.pdb
     RDKit          3D

 23 22  0  0  1  0  0  0  0  0999 V2000
    7.2137  -11.8482   25.2987 C   0  0  0  0  0  0  0  0  0  0  0  0
    6.5558  -12.9494   26.0716 C   0  0  2  0  0  0  0  0  0  0  0  0
    6.3372  -12.6190   27.5253 C   0  0  0  0  0  0  0  0  0  0  0  0
    7.3703  -14.2118   25.8889 C   0  0  0  0  0  0  0  0  0  0  0  0
    7.4381  -14.5032   24.4056 C   0  0  2  0  0  0  0  0  0  0  0  0
    6.1237  -14.8452   23.9283 N   0  0  0  0  0  0  0  0  0  0  0  0
    8.4225  -15.5986   24.1227 C   0  0  0  0  0  0  0  0  0  0  0  0
    8.3698  -16.7024   24.7087 O   0  0  0  0  0  0  0  0  0  0  0  0
   10.9955  -16.0264   21.3786 C   0  0  0  0  0  0  0  0  0  0  0  0
   10.3985  -16.3427   22.7475 C   0  0  2  0  0  0  0  0  0  0  0  0
    9.4407  -15.3706   23.1616 N   0  0  0  0  0  0  0  0  0  0  0  0
   11.5526  -16.4454   23.6919 C   0  0  0  0  0  0  0  0  0  0  0  0
   12.4251  -17.3327   23.5089 O   0  0  0  0  0  0  0  0  0  0  0  0
   11.7173  -15.5875   24.7937 N   0  0  0  0  0  0  0  0  0  0  0  0
   12.7753  -15.7089   25.7780 C   0  0  1  0  0  0  0  0  0  0  0  0
   12.1938  -16.4466   26.9525 C   0  0  0  0  0  0  0  0  0  0  0  0
   13.1635  -16.8256   28.0024 C   0  0  0  0  0  0  0  0  0  0  0  0
   12.6414  -17.5249   29.2014 C   0  0  0  0  0  0  0  0  0  0  0  0
   13.6775  -17.9626   30.1995 C   0  0  0  0  0  0  0  0  0  0  0  0
   13.1049  -18.5285   31.3983 N   0  0  0  0  0  0  0  0  0  0  0  0
   13.9118  -16.3875   25.1608 C   0  0  0  0  0  0  0  0  0  0  0  0
   13.8670  -17.6715   24.6344 O   0  0  0  0  0  0  0  0  0  0  0  0
   15.0216  -15.8049   25.0811 O   0  0  0  0  0  0  0  0  0  0  0  0
  2  1  1  1
  2  3  1  0
  4  2  1  0
  5  4  1  0
  5  7  1  0
  5  6  1  1
  7  8  2  0
  7 11  1  0
 10  9  1  6
 11 10  1  0
 12 10  1  0
 12 14  1  0
 13 12  2  0
 15 14  1  0
 15 21  1  0
 15 16  1  1
 17 18  1  0
 17 16  1  0
 19 18  1  0
 20 19  1  0
 21 22  1  0
 23 21  2  0
M  END
$$$$
