LAK.pdb
     RDKit          3D

 23 22  0  0  1  0  0  0  0  0999 V2000
    5.7924  -12.7297   27.3021 C   0  0  0  0  0  0  0  0  0  0  0  0
    6.5729  -12.7940   26.0256 C   0  0  2  0  0  0  0  0  0  0  0  0
    6.7656  -11.4521   25.3681 C   0  0  0  0  0  0  0  0  0  0  0  0
    5.8999  -13.7895   25.1056 C   0  0  0  0  0  0  0  0  0  0  0  0
    6.5349  -15.1413   25.3494 C   0  0  2  0  0  0  0  0  0  0  0  0
    7.5410  -15.0159   26.3714 N   0  0  0  0  0  0  0  0  0  0  0  0
    7.1128  -15.6946   24.0810 C   0  0  0  0  0  0  0  0  0  0  0  0
    6.5011  -16.5377   23.3885 O   0  0  0  0  0  0  0  0  0  0  0  0
    9.7953  -14.7887   21.6985 C   0  0  0  0  0  0  0  0  0  0  0  0
    9.1513  -15.8334   22.6063 C   0  0  2  0  0  0  0  0  0  0  0  0
    8.3905  -15.2450   23.6593 N   0  0  0  0  0  0  0  0  0  0  0  0
   10.2672  -16.6871   23.1164 C   0  0  0  0  0  0  0  0  0  0  0  0
   11.0960  -17.1728   22.3045 O   0  0  0  0  0  0  0  0  0  0  0  0
   10.4425  -16.9814   24.4802 N   0  0  0  0  0  0  0  0  0  0  0  0
   11.7039  -17.3701   25.0809 C   0  0  1  0  0  0  0  0  0  0  0  0
   12.0583  -16.3012   26.0777 C   0  0  0  0  0  0  0  0  0  0  0  0
   11.0563  -16.0727   27.1408 C   0  0  0  0  0  0  0  0  0  0  0  0
   11.2951  -14.9521   28.0822 C   0  0  0  0  0  0  0  0  0  0  0  0
   10.1644  -14.6447   29.0249 C   0  0  0  0  0  0  0  0  0  0  0  0
   10.4689  -13.5727   29.9432 N   0  0  0  0  0  0  0  0  0  0  0  0
   11.5508  -18.6974   25.6707 C   0  0  0  0  0  0  0  0  0  0  0  0
   10.3544  -19.4003   25.7202 O   0  0  0  0  0  0  0  0  0  0  0  0
   12.5436  -19.2763   26.1773 O   0  0  0  0  0  0  0  0  0  0  0  0
  2  1  1  1
  2  3  1  0
  4  2  1  0
  5  4  1  0
  5  7  1  0
  5  6  1  1
  7  8  2  0
  7 11  1  0
 10  9  1  6
 11 10  1  0
 12 10  1  0
 12 14  1  0
 13 12  2  0
 15 14  1  0
 15 21  1  0
 15 16  1  1
 17 18  1  0
 17 16  1  0
 19 18  1  0
 20 19  1  0
 21 22  1  0
 23 21  2  0
M  END
$$$$
