LAK.pdb
     RDKit          3D

 23 22  0  0  1  0  0  0  0  0999 V2000
    8.4581  -11.6333   19.6380 C   0  0  0  0  0  0  0  0  0  0  0  0
    8.2049  -12.8170   18.7563 C   0  0  2  0  0  0  0  0  0  0  0  0
    6.9275  -12.7166   17.9637 C   0  0  0  0  0  0  0  0  0  0  0  0
    8.2505  -14.0655   19.6104 C   0  0  0  0  0  0  0  0  0  0  0  0
    9.6877  -14.2799   20.0330 C   0  0  2  0  0  0  0  0  0  0  0  0
   10.5402  -14.1967   18.8760 N   0  0  0  0  0  0  0  0  0  0  0  0
    9.8461  -15.5966   20.7330 C   0  0  0  0  0  0  0  0  0  0  0  0
    9.0430  -15.9785   21.6127 O   0  0  0  0  0  0  0  0  0  0  0  0
   11.8834  -18.6374   19.8736 C   0  0  0  0  0  0  0  0  0  0  0  0
   11.1420  -17.7531   20.8728 C   0  0  2  0  0  0  0  0  0  0  0  0
   10.9402  -16.4290   20.3831 N   0  0  0  0  0  0  0  0  0  0  0  0
   11.9481  -17.7797   22.1313 C   0  0  0  0  0  0  0  0  0  0  0  0
   12.1627  -18.8778   22.7059 O   0  0  0  0  0  0  0  0  0  0  0  0
   12.4887  -16.6215   22.7174 N   0  0  0  0  0  0  0  0  0  0  0  0
   13.2504  -16.6044   23.9513 C   0  0  1  0  0  0  0  0  0  0  0  0
   12.6425  -17.6442   24.8519 C   0  0  0  0  0  0  0  0  0  0  0  0
   13.3609  -17.8754   26.1234 C   0  0  0  0  0  0  0  0  0  0  0  0
   12.8318  -18.9205   27.0326 C   0  0  0  0  0  0  0  0  0  0  0  0
   13.5601  -19.0728   28.3394 C   0  0  0  0  0  0  0  0  0  0  0  0
   12.9760  -20.0749   29.1994 N   0  0  0  0  0  0  0  0  0  0  0  0
   14.6556  -16.8476   23.6360 C   0  0  0  0  0  0  0  0  0  0  0  0
   15.6483  -15.8779   23.6792 O   0  0  0  0  0  0  0  0  0  0  0  0
   15.0321  -17.9973   23.2987 O   0  0  0  0  0  0  0  0  0  0  0  0
  2  1  1  1
  2  3  1  0
  4  2  1  0
  5  4  1  0
  5  7  1  0
  5  6  1  6
  7  8  2  0
  7 11  1  0
 10  9  1  6
 11 10  1  0
 12 10  1  0
 12 14  1  0
 13 12  2  0
 15 14  1  0
 15 21  1  0
 15 16  1  1
 17 18  1  0
 17 16  1  0
 19 18  1  0
 20 19  1  0
 21 22  1  0
 23 21  2  0
M  END
$$$$
