LAK.pdb
     RDKit          3D

 23 22  0  0  1  0  0  0  0  0999 V2000
    7.9487  -12.1334   26.1407 C   0  0  0  0  0  0  0  0  0  0  0  0
    6.5070  -12.4949   25.9578 C   0  0  2  0  0  0  0  0  0  0  0  0
    5.5590  -11.5891   26.7000 C   0  0  0  0  0  0  0  0  0  0  0  0
    6.3279  -13.9476   26.3422 C   0  0  0  0  0  0  0  0  0  0  0  0
    7.3096  -14.7620   25.5280 C   0  0  2  0  0  0  0  0  0  0  0  0
    7.0681  -14.5347   24.1272 N   0  0  0  0  0  0  0  0  0  0  0  0
    7.2054  -16.2185   25.8695 C   0  0  0  0  0  0  0  0  0  0  0  0
    7.2818  -16.6281   27.0489 O   0  0  0  0  0  0  0  0  0  0  0  0
    6.1470  -19.2407   23.8613 C   0  0  0  0  0  0  0  0  0  0  0  0
    6.9053  -18.5646   25.0007 C   0  0  2  0  0  0  0  0  0  0  0  0
    7.0145  -17.1542   24.8205 N   0  0  0  0  0  0  0  0  0  0  0  0
    8.2388  -19.2363   25.0702 C   0  0  0  0  0  0  0  0  0  0  0  0
    8.2996  -20.4671   25.3220 O   0  0  0  0  0  0  0  0  0  0  0  0
    9.4505  -18.5528   24.8656 N   0  0  0  0  0  0  0  0  0  0  0  0
   10.7624  -19.1660   24.9425 C   0  0  1  0  0  0  0  0  0  0  0  0
   11.5960  -18.5469   23.8547 C   0  0  0  0  0  0  0  0  0  0  0  0
   11.0863  -18.7424   22.4806 C   0  0  0  0  0  0  0  0  0  0  0  0
   11.9038  -18.2146   21.3616 C   0  0  0  0  0  0  0  0  0  0  0  0
   11.3040  -18.3684   19.9912 C   0  0  0  0  0  0  0  0  0  0  0  0
   12.1022  -17.7605   18.9526 N   0  0  0  0  0  0  0  0  0  0  0  0
   11.2975  -18.9569   26.2853 C   0  0  0  0  0  0  0  0  0  0  0  0
   10.9191  -17.9200   27.1276 O   0  0  0  0  0  0  0  0  0  0  0  0
   12.1594  -19.7456   26.7461 O   0  0  0  0  0  0  0  0  0  0  0  0
  2  1  1  1
  2  3  1  0
  4  2  1  0
  5  4  1  0
  5  7  1  0
  5  6  1  6
  7  8  2  0
  7 11  1  0
 10  9  1  6
 11 10  1  0
 12 10  1  0
 12 14  1  0
 13 12  2  0
 15 14  1  0
 15 21  1  0
 15 16  1  6
 17 18  1  0
 17 16  1  0
 19 18  1  0
 20 19  1  0
 21 22  1  0
 23 21  2  0
M  END
$$$$
