LAK.pdb
     RDKit          3D

 23 22  0  0  1  0  0  0  0  0999 V2000
    9.3915  -12.6379   19.4033 C   0  0  0  0  0  0  0  0  0  0  0  0
    8.1381  -13.4526   19.3143 C   0  0  2  0  0  0  0  0  0  0  0  0
    6.9343  -12.6614   18.8727 C   0  0  0  0  0  0  0  0  0  0  0  0
    7.9167  -14.1330   20.6478 C   0  0  0  0  0  0  0  0  0  0  0  0
    9.1728  -14.9080   20.9815 C   0  0  2  0  0  0  0  0  0  0  0  0
    9.3769  -15.9312   19.9897 N   0  0  0  0  0  0  0  0  0  0  0  0
    9.0867  -15.4941   22.3592 C   0  0  0  0  0  0  0  0  0  0  0  0
    8.2215  -15.1227   23.1827 O   0  0  0  0  0  0  0  0  0  0  0  0
   11.0075  -18.3427   24.0150 C   0  0  0  0  0  0  0  0  0  0  0  0
    9.9982  -17.1982   23.9761 C   0  0  2  0  0  0  0  0  0  0  0  0
   10.0158  -16.4985   22.7337 N   0  0  0  0  0  0  0  0  0  0  0  0
   10.3271  -16.3128   25.1346 C   0  0  0  0  0  0  0  0  0  0  0  0
   11.3422  -15.5721   25.0791 O   0  0  0  0  0  0  0  0  0  0  0  0
    9.5481  -16.2632   26.3042 N   0  0  0  0  0  0  0  0  0  0  0  0
    9.8311  -15.4124   27.4440 C   0  0  1  0  0  0  0  0  0  0  0  0
    8.5509  -14.6994   27.7826 C   0  0  0  0  0  0  0  0  0  0  0  0
    8.2546  -13.5088   26.9575 C   0  0  0  0  0  0  0  0  0  0  0  0
    6.9458  -12.8410   27.1578 C   0  0  0  0  0  0  0  0  0  0  0  0
    6.6915  -11.6389   26.2908 C   0  0  0  0  0  0  0  0  0  0  0  0
    5.4260  -11.0001   26.5661 N   0  0  0  0  0  0  0  0  0  0  0  0
   10.3475  -16.2422   28.5293 C   0  0  0  0  0  0  0  0  0  0  0  0
   11.0257  -15.7516   29.6370 O   0  0  0  0  0  0  0  0  0  0  0  0
   10.1881  -17.4875   28.4960 O   0  0  0  0  0  0  0  0  0  0  0  0
  2  1  1  1
  2  3  1  0
  4  2  1  0
  5  4  1  0
  5  7  1  0
  5  6  1  6
  7  8  2  0
  7 11  1  0
 10  9  1  6
 11 10  1  0
 12 10  1  0
 12 14  1  0
 13 12  2  0
 15 14  1  0
 15 21  1  0
 15 16  1  1
 17 18  1  0
 17 16  1  0
 19 18  1  0
 20 19  1  0
 21 22  1  0
 23 21  2  0
M  END
$$$$
