LAK.pdb
     RDKit          3D

 23 22  0  0  1  0  0  0  0  0999 V2000
    4.8451  -19.5580   23.5734 C   0  0  0  0  0  0  0  0  0  0  0  0
    6.2632  -20.0258   23.6872 C   0  0  2  0  0  0  0  0  0  0  0  0
    6.6464  -20.4569   25.0790 C   0  0  0  0  0  0  0  0  0  0  0  0
    7.1684  -18.9347   23.1576 C   0  0  0  0  0  0  0  0  0  0  0  0
    6.6811  -18.5661   21.7732 C   0  0  2  0  0  0  0  0  0  0  0  0
    6.7266  -19.7307   20.9282 N   0  0  0  0  0  0  0  0  0  0  0  0
    7.4982  -17.4460   21.2017 C   0  0  0  0  0  0  0  0  0  0  0  0
    8.6301  -17.6396   20.7059 O   0  0  0  0  0  0  0  0  0  0  0  0
    6.8284  -13.6998   20.9159 C   0  0  0  0  0  0  0  0  0  0  0  0
    7.7003  -14.9526   20.8992 C   0  0  2  0  0  0  0  0  0  0  0  0
    6.9669  -16.1309   21.2269 N   0  0  0  0  0  0  0  0  0  0  0  0
    8.8208  -14.6935   21.8540 C   0  0  0  0  0  0  0  0  0  0  0  0
    9.6707  -13.8062   21.5850 O   0  0  0  0  0  0  0  0  0  0  0  0
    8.9778  -15.4018   23.0585 N   0  0  0  0  0  0  0  0  0  0  0  0
   10.0792  -15.2153   23.9834 C   0  0  1  0  0  0  0  0  0  0  0  0
    9.4750  -15.0446   25.3500 C   0  0  0  0  0  0  0  0  0  0  0  0
   10.4410  -15.0279   26.4692 C   0  0  0  0  0  0  0  0  0  0  0  0
    9.9052  -14.8322   27.8380 C   0  0  0  0  0  0  0  0  0  0  0  0
   10.9344  -14.7421   28.9308 C   0  0  0  0  0  0  0  0  0  0  0  0
   10.3571  -14.5110   30.2341 N   0  0  0  0  0  0  0  0  0  0  0  0
   10.9781  -16.3614   23.8762 C   0  0  0  0  0  0  0  0  0  0  0  0
   12.3551  -16.2962   24.0412 O   0  0  0  0  0  0  0  0  0  0  0  0
   10.5140  -17.4997   23.6188 O   0  0  0  0  0  0  0  0  0  0  0  0
  2  1  1  1
  2  3  1  0
  4  2  1  0
  5  4  1  0
  5  7  1  0
  5  6  1  6
  7  8  2  0
  7 11  1  0
 10  9  1  1
 11 10  1  0
 12 10  1  0
 12 14  1  0
 13 12  2  0
 15 14  1  0
 15 21  1  0
 15 16  1  1
 17 18  1  0
 17 16  1  0
 19 18  1  0
 20 19  1  0
 21 22  1  0
 23 21  2  0
M  END
$$$$
