LAK.pdb
     RDKit          3D

 23 22  0  0  1  0  0  0  0  0999 V2000
    9.6755  -13.4855   18.3987 C   0  0  0  0  0  0  0  0  0  0  0  0
    8.2079  -13.5188   18.6946 C   0  0  2  0  0  0  0  0  0  0  0  0
    7.5862  -12.1520   18.8181 C   0  0  0  0  0  0  0  0  0  0  0  0
    7.9910  -14.3592   19.9344 C   0  0  0  0  0  0  0  0  0  0  0  0
    8.6157  -15.7147   19.6848 C   0  0  2  0  0  0  0  0  0  0  0  0
    7.7981  -16.4505   18.7561 N   0  0  0  0  0  0  0  0  0  0  0  0
    8.7898  -16.4657   20.9711 C   0  0  0  0  0  0  0  0  0  0  0  0
    7.8212  -16.7370   21.7146 O   0  0  0  0  0  0  0  0  0  0  0  0
   11.8247  -18.0792   22.6093 C   0  0  0  0  0  0  0  0  0  0  0  0
   10.4238  -17.4729   22.6035 C   0  0  2  0  0  0  0  0  0  0  0  0
   10.0931  -16.8779   21.3504 N   0  0  0  0  0  0  0  0  0  0  0  0
   10.3906  -16.4896   23.7288 C   0  0  0  0  0  0  0  0  0  0  0  0
   11.0324  -15.4124   23.6289 O   0  0  0  0  0  0  0  0  0  0  0  0
    9.6672  -16.7088   24.9145 N   0  0  0  0  0  0  0  0  0  0  0  0
    9.5367  -15.7422   25.9876 C   0  0  1  0  0  0  0  0  0  0  0  0
    8.2565  -14.9918   25.7435 C   0  0  0  0  0  0  0  0  0  0  0  0
    8.0306  -13.8260   26.6244 C   0  0  0  0  0  0  0  0  0  0  0  0
    6.7949  -13.0337   26.4143 C   0  0  0  0  0  0  0  0  0  0  0  0
    6.6941  -11.7646   27.2147 C   0  0  0  0  0  0  0  0  0  0  0  0
    5.4748  -11.0327   26.9639 N   0  0  0  0  0  0  0  0  0  0  0  0
    9.5681  -16.4534   27.2629 C   0  0  0  0  0  0  0  0  0  0  0  0
   10.1366  -15.9525   28.4264 O   0  0  0  0  0  0  0  0  0  0  0  0
    9.0573  -17.5971   27.3552 O   0  0  0  0  0  0  0  0  0  0  0  0
  2  1  1  1
  2  3  1  0
  4  2  1  0
  5  4  1  0
  5  7  1  0
  5  6  1  6
  7  8  2  0
  7 11  1  0
 10  9  1  6
 11 10  1  0
 12 10  1  0
 12 14  1  0
 13 12  2  0
 15 14  1  0
 15 21  1  0
 15 16  1  6
 17 18  1  0
 17 16  1  0
 19 18  1  0
 20 19  1  0
 21 22  1  0
 23 21  2  0
M  END
$$$$
