LAK.pdb
     RDKit          3D

 23 22  0  0  1  0  0  0  0  0999 V2000
    9.3653  -13.9137   18.1303 C   0  0  0  0  0  0  0  0  0  0  0  0
    7.9880  -13.7296   18.6888 C   0  0  2  0  0  0  0  0  0  0  0  0
    7.4927  -12.3085   18.6166 C   0  0  0  0  0  0  0  0  0  0  0  0
    7.9714  -14.2692   20.1026 C   0  0  0  0  0  0  0  0  0  0  0  0
    8.3007  -15.7445   20.0344 C   0  0  2  0  0  0  0  0  0  0  0  0
    7.2690  -16.4277   19.2988 N   0  0  0  0  0  0  0  0  0  0  0  0
    8.4599  -16.3187   21.4105 C   0  0  0  0  0  0  0  0  0  0  0  0
    7.5007  -16.3961   22.2096 O   0  0  0  0  0  0  0  0  0  0  0  0
   11.4116  -17.9555   23.1749 C   0  0  0  0  0  0  0  0  0  0  0  0
   10.0558  -17.2562   23.1204 C   0  0  2  0  0  0  0  0  0  0  0  0
    9.7377  -16.7862   21.8122 N   0  0  0  0  0  0  0  0  0  0  0  0
   10.1162  -16.1511   24.1251 C   0  0  0  0  0  0  0  0  0  0  0  0
   10.8221  -15.1373   23.8885 O   0  0  0  0  0  0  0  0  0  0  0  0
    9.4132  -16.1854   25.3424 N   0  0  0  0  0  0  0  0  0  0  0  0
    9.3756  -15.0970   26.3000 C   0  0  1  0  0  0  0  0  0  0  0  0
    8.0309  -14.4388   26.1572 C   0  0  0  0  0  0  0  0  0  0  0  0
    7.8039  -13.2708   27.0350 C   0  0  0  0  0  0  0  0  0  0  0  0
    6.4835  -12.5999   26.9602 C   0  0  0  0  0  0  0  0  0  0  0  0
    6.3519  -11.3355   27.7636 C   0  0  0  0  0  0  0  0  0  0  0  0
    5.0318  -10.7545   27.6921 N   0  0  0  0  0  0  0  0  0  0  0  0
    9.6272  -15.6388   27.6327 C   0  0  0  0  0  0  0  0  0  0  0  0
   10.1188  -14.8993   28.7001 O   0  0  0  0  0  0  0  0  0  0  0  0
    9.3964  -16.8503   27.8704 O   0  0  0  0  0  0  0  0  0  0  0  0
  2  1  1  1
  2  3  1  0
  4  2  1  0
  5  4  1  0
  5  7  1  0
  5  6  1  1
  7  8  2  0
  7 11  1  0
 10  9  1  6
 11 10  1  0
 12 10  1  0
 12 14  1  0
 13 12  2  0
 15 14  1  0
 15 21  1  0
 15 16  1  1
 17 18  1  0
 17 16  1  0
 19 18  1  0
 20 19  1  0
 21 22  1  0
 23 21  2  0
M  END
$$$$
