LAK.pdb
     RDKit          3D

 23 22  0  0  1  0  0  0  0  0999 V2000
    9.0432  -13.5031   19.4945 C   0  0  0  0  0  0  0  0  0  0  0  0
    7.5995  -13.5284   19.8920 C   0  0  2  0  0  0  0  0  0  0  0  0
    6.8106  -12.3539   19.3741 C   0  0  0  0  0  0  0  0  0  0  0  0
    7.5225  -13.6487   21.3986 C   0  0  0  0  0  0  0  0  0  0  0  0
    8.3112  -14.8755   21.8017 C   0  0  2  0  0  0  0  0  0  0  0  0
    7.8230  -16.0153   21.0702 N   0  0  0  0  0  0  0  0  0  0  0  0
    8.2257  -15.1008   23.2819 C   0  0  0  0  0  0  0  0  0  0  0  0
    8.6344  -14.2518   24.1045 O   0  0  0  0  0  0  0  0  0  0  0  0
    6.5281  -17.7440   25.3972 C   0  0  0  0  0  0  0  0  0  0  0  0
    7.6096  -16.7008   25.1285 C   0  0  2  0  0  0  0  0  0  0  0  0
    7.6641  -16.3138   23.7570 N   0  0  0  0  0  0  0  0  0  0  0  0
    8.8938  -17.2997   25.6042 C   0  0  0  0  0  0  0  0  0  0  0  0
    8.9559  -17.7944   26.7589 O   0  0  0  0  0  0  0  0  0  0  0  0
   10.0569  -17.3401   24.8151 N   0  0  0  0  0  0  0  0  0  0  0  0
   11.2961  -17.9809   25.2110 C   0  0  1  0  0  0  0  0  0  0  0  0
   11.3649  -19.2885   24.4712 C   0  0  0  0  0  0  0  0  0  0  0  0
   11.4538  -19.1769   22.9995 C   0  0  0  0  0  0  0  0  0  0  0  0
   11.5415  -20.4341   22.2180 C   0  0  0  0  0  0  0  0  0  0  0  0
   11.5663  -20.2685   20.7235 C   0  0  0  0  0  0  0  0  0  0  0  0
   11.6163  -21.5261   20.0155 N   0  0  0  0  0  0  0  0  0  0  0  0
   12.4046  -17.0776   24.9139 C   0  0  0  0  0  0  0  0  0  0  0  0
   13.7255  -17.3128   25.2715 O   0  0  0  0  0  0  0  0  0  0  0  0
   12.1908  -16.0058   24.2950 O   0  0  0  0  0  0  0  0  0  0  0  0
  2  1  1  1
  2  3  1  0
  4  2  1  0
  5  4  1  0
  5  7  1  0
  5  6  1  6
  7  8  2  0
  7 11  1  0
 10  9  1  6
 11 10  1  0
 12 10  1  0
 12 14  1  0
 13 12  2  0
 15 14  1  0
 15 21  1  0
 15 16  1  6
 17 18  1  0
 17 16  1  0
 19 18  1  0
 20 19  1  0
 21 22  1  0
 23 21  2  0
M  END
$$$$
