LAK.pdb
     RDKit          3D

 23 22  0  0  1  0  0  0  0  0999 V2000
    9.1104  -12.9648   20.8381 C   0  0  0  0  0  0  0  0  0  0  0  0
    7.7977  -13.5046   20.3604 C   0  0  2  0  0  0  0  0  0  0  0  0
    6.9380  -12.4773   19.6707 C   0  0  0  0  0  0  0  0  0  0  0  0
    7.0906  -14.1455   21.5349 C   0  0  0  0  0  0  0  0  0  0  0  0
    8.0517  -15.1276   22.1687 C   0  0  2  0  0  0  0  0  0  0  0  0
    8.5207  -16.0475   21.1656 N   0  0  0  0  0  0  0  0  0  0  0  0
    7.3992  -15.8508   23.3088 C   0  0  0  0  0  0  0  0  0  0  0  0
    6.9365  -15.2429   24.2992 O   0  0  0  0  0  0  0  0  0  0  0  0
    6.0095  -19.2966   23.7236 C   0  0  0  0  0  0  0  0  0  0  0  0
    6.7428  -18.0802   24.2827 C   0  0  2  0  0  0  0  0  0  0  0  0
    7.3069  -17.2655   23.2572 N   0  0  0  0  0  0  0  0  0  0  0  0
    7.7764  -18.6122   25.2224 C   0  0  0  0  0  0  0  0  0  0  0  0
    7.4513  -19.4787   26.0742 O   0  0  0  0  0  0  0  0  0  0  0  0
    9.1168  -18.1877   25.2043 N   0  0  0  0  0  0  0  0  0  0  0  0
   10.1708  -18.7607   26.0190 C   0  0  1  0  0  0  0  0  0  0  0  0
   11.4527  -18.5962   25.2499 C   0  0  0  0  0  0  0  0  0  0  0  0
   11.4583  -19.1942   23.8977 C   0  0  0  0  0  0  0  0  0  0  0  0
   12.5813  -18.8438   22.9948 C   0  0  0  0  0  0  0  0  0  0  0  0
   12.4855  -19.3917   21.5976 C   0  0  0  0  0  0  0  0  0  0  0  0
   13.5381  -18.9173   20.7304 N   0  0  0  0  0  0  0  0  0  0  0  0
   10.1733  -18.0916   27.3173 C   0  0  0  0  0  0  0  0  0  0  0  0
   10.8402  -18.5619   28.4406 O   0  0  0  0  0  0  0  0  0  0  0  0
    9.5422  -17.0165   27.4693 O   0  0  0  0  0  0  0  0  0  0  0  0
  2  1  1  1
  2  3  1  0
  4  2  1  0
  5  4  1  0
  5  7  1  0
  5  6  1  6
  7  8  2  0
  7 11  1  0
 10  9  1  6
 11 10  1  0
 12 10  1  0
 12 14  1  0
 13 12  2  0
 15 14  1  0
 15 21  1  0
 15 16  1  6
 17 18  1  0
 17 16  1  0
 19 18  1  0
 20 19  1  0
 21 22  1  0
 23 21  2  0
M  END
$$$$
