LAK.pdb
     RDKit          3D

 23 22  0  0  1  0  0  0  0  0999 V2000
    8.2040  -14.2275   18.3598 C   0  0  0  0  0  0  0  0  0  0  0  0
    7.5558  -13.4586   19.4694 C   0  0  2  0  0  0  0  0  0  0  0  0
    7.2288  -12.0336   19.1052 C   0  0  0  0  0  0  0  0  0  0  0  0
    8.4438  -13.5464   20.6917 C   0  0  0  0  0  0  0  0  0  0  0  0
    8.6103  -15.0111   21.0334 C   0  0  2  0  0  0  0  0  0  0  0  0
    7.3120  -15.6102   21.2008 N   0  0  0  0  0  0  0  0  0  0  0  0
    9.4503  -15.1785   22.2644 C   0  0  0  0  0  0  0  0  0  0  0  0
   10.6665  -14.8867   22.2795 O   0  0  0  0  0  0  0  0  0  0  0  0
    8.6391  -15.7465   25.8884 C   0  0  0  0  0  0  0  0  0  0  0  0
    9.5310  -15.9405   24.6648 C   0  0  2  0  0  0  0  0  0  0  0  0
    8.8425  -15.6828   23.4428 N   0  0  0  0  0  0  0  0  0  0  0  0
   10.0486  -17.3406   24.7442 C   0  0  0  0  0  0  0  0  0  0  0  0
    9.2803  -18.3006   24.4797 O   0  0  0  0  0  0  0  0  0  0  0  0
   11.3726  -17.6466   25.1054 N   0  0  0  0  0  0  0  0  0  0  0  0
   11.9325  -18.9844   25.1169 C   0  0  1  0  0  0  0  0  0  0  0  0
   13.1200  -18.9666   24.1944 C   0  0  0  0  0  0  0  0  0  0  0  0
   12.7978  -18.9585   22.7513 C   0  0  0  0  0  0  0  0  0  0  0  0
   13.9298  -18.9550   21.7934 C   0  0  0  0  0  0  0  0  0  0  0  0
   13.5491  -18.9020   20.3395 C   0  0  0  0  0  0  0  0  0  0  0  0
   14.6909  -18.8958   19.4555 N   0  0  0  0  0  0  0  0  0  0  0  0
   12.2625  -19.3405   26.4944 C   0  0  0  0  0  0  0  0  0  0  0  0
   12.5798  -20.6241   26.9180 O   0  0  0  0  0  0  0  0  0  0  0  0
   12.2710  -18.4555   27.3855 O   0  0  0  0  0  0  0  0  0  0  0  0
  2  1  1  6
  2  3  1  0
  4  2  1  0
  5  4  1  0
  5  7  1  0
  5  6  1  1
  7  8  2  0
  7 11  1  0
 10  9  1  1
 11 10  1  0
 12 10  1  0
 12 14  1  0
 13 12  2  0
 15 14  1  0
 15 21  1  0
 15 16  1  6
 17 18  1  0
 17 16  1  0
 19 18  1  0
 20 19  1  0
 21 22  1  0
 23 21  2  0
M  END
$$$$
