LAK.pdb
     RDKit          3D

 23 22  0  0  1  0  0  0  0  0999 V2000
    5.8786  -12.4457   24.5378 C   0  0  0  0  0  0  0  0  0  0  0  0
    6.0535  -12.8077   25.9804 C   0  0  2  0  0  0  0  0  0  0  0  0
    6.4276  -11.6390   26.8547 C   0  0  0  0  0  0  0  0  0  0  0  0
    7.0607  -13.9337   26.0701 C   0  0  0  0  0  0  0  0  0  0  0  0
    6.6209  -15.0198   25.1127 C   0  0  2  0  0  0  0  0  0  0  0  0
    5.6329  -15.8470   25.7545 N   0  0  0  0  0  0  0  0  0  0  0  0
    7.7950  -15.8312   24.6523 C   0  0  0  0  0  0  0  0  0  0  0  0
    8.4306  -16.5753   25.4313 O   0  0  0  0  0  0  0  0  0  0  0  0
    9.3675  -16.2694   21.2018 C   0  0  0  0  0  0  0  0  0  0  0  0
    9.2128  -16.5447   22.6952 C   0  0  2  0  0  0  0  0  0  0  0  0
    8.1918  -15.7485   23.2928 N   0  0  0  0  0  0  0  0  0  0  0  0
   10.5559  -16.3026   23.3050 C   0  0  0  0  0  0  0  0  0  0  0  0
   10.9622  -15.1223   23.4590 O   0  0  0  0  0  0  0  0  0  0  0  0
   11.4043  -17.3431   23.7229 N   0  0  0  0  0  0  0  0  0  0  0  0
   12.7256  -17.1485   24.2882 C   0  0  1  0  0  0  0  0  0  0  0  0
   12.9500  -18.2699   25.2648 C   0  0  0  0  0  0  0  0  0  0  0  0
   12.1889  -18.1680   26.5284 C   0  0  0  0  0  0  0  0  0  0  0  0
   12.2432  -19.3208   27.4595 C   0  0  0  0  0  0  0  0  0  0  0  0
   11.2825  -19.2670   28.6152 C   0  0  0  0  0  0  0  0  0  0  0  0
   11.4302  -20.3777   29.5261 N   0  0  0  0  0  0  0  0  0  0  0  0
   13.6985  -17.1125   23.1996 C   0  0  0  0  0  0  0  0  0  0  0  0
   14.9258  -16.4665   23.2657 O   0  0  0  0  0  0  0  0  0  0  0  0
   13.4463  -17.6924   22.1145 O   0  0  0  0  0  0  0  0  0  0  0  0
  2  1  1  6
  2  3  1  0
  4  2  1  0
  5  4  1  0
  5  7  1  0
  5  6  1  1
  7  8  2  0
  7 11  1  0
 10  9  1  6
 11 10  1  0
 12 10  1  0
 12 14  1  0
 13 12  2  0
 15 14  1  0
 15 21  1  0
 15 16  1  1
 17 18  1  0
 17 16  1  0
 19 18  1  0
 20 19  1  0
 21 22  1  0
 23 21  2  0
M  END
$$$$
