KEP.pdb
     RDKit          3D

 26 26  0  0  1  0  0  0  0  0999 V2000
   26.1872  -22.7392  -11.2238 N   0  0  0  0  0  0  0  0  0  0  0  0
   25.3576  -21.5728  -11.2529 C   0  0  1  0  0  0  0  0  0  0  0  0
   26.0669  -20.3131  -10.9119 C   0  0  0  0  0  0  0  0  0  0  0  0
   27.5062  -20.5333  -10.5984 C   0  0  0  0  0  0  0  0  0  0  0  0
   28.4015  -20.8231  -11.7490 C   0  0  0  0  0  0  0  0  0  0  0  0
   29.8685  -20.6919  -11.4032 C   0  0  0  0  0  0  0  0  0  0  0  0
   30.6720  -21.0129  -12.5564 N   0  0  0  0  0  0  0  0  0  0  0  0
   24.6199  -21.5235  -12.5276 C   0  0  0  0  0  0  0  0  0  0  0  0
   25.0612  -22.1636  -13.5131 O   0  0  0  0  0  0  0  0  0  0  0  0
   23.4210  -20.7884  -12.7237 N   0  0  0  0  0  0  0  0  0  0  0  0
   22.7014  -20.8610  -14.0359 C   0  0  1  0  0  0  0  0  0  0  0  0
   21.3055  -21.2279  -13.6034 C   0  0  0  0  0  0  0  0  0  0  0  0
   20.2727  -21.3755  -14.6359 C   0  0  0  0  0  0  0  0  0  0  0  0
   19.0107  -21.8108  -13.9457 C   0  0  0  0  0  0  0  0  0  0  0  0
   18.5659  -22.9766  -13.9967 O   0  0  0  0  0  0  0  0  0  0  0  0
   22.8158  -19.5539  -14.7019 C   0  0  0  0  0  0  0  0  0  0  0  0
   22.4879  -18.5071  -14.0210 O   0  0  0  0  0  0  0  0  0  0  0  0
   18.3154  -20.8653  -13.2208 O   0  0  0  0  0  0  0  0  0  0  0  0
   23.2584  -19.3174  -16.0276 N   0  0  0  0  0  0  0  0  0  0  0  0
   23.7288  -20.4185  -16.8795 C   0  0  0  0  0  0  0  0  0  0  0  0
   23.3481  -19.9059  -18.2522 C   0  0  0  0  0  0  0  0  0  0  0  0
   23.8910  -18.4760  -18.1309 C   0  0  0  0  0  0  0  0  0  0  0  0
   23.2843  -18.0894  -16.7804 C   0  0  1  0  0  0  0  0  0  0  0  0
   21.8589  -17.6961  -17.1042 C   0  0  0  0  0  0  0  0  0  0  0  0
   21.6481  -16.3985  -17.5003 O   0  0  0  0  0  0  0  0  0  0  0  0
   20.9161  -18.4897  -17.0222 O   0  0  0  0  0  0  0  0  0  0  0  0
  2  1  1  6
  3  2  1  0
  3  4  1  0
  4  5  1  0
  5  6  1  0
  6  7  1  0
  8  2  1  0
  8  9  2  0
 10  8  1  0
 11 16  1  0
 11 10  1  0
 11 12  1  1
 13 12  1  0
 13 14  1  0
 14 18  1  0
 15 14  2  0
 16 19  1  0
 17 16  2  0
 19 20  1  0
 19 23  1  0
 20 21  1  0
 21 22  1  0
 23 22  1  0
 24 25  1  0
 23 24  1  6
 26 24  2  0
M  END
$$$$
