KEP.pdb
     RDKit          3D

 26 26  0  0  1  0  0  0  0  0999 V2000
   19.9532  -11.7778  -18.8541 N   0  0  0  0  0  0  0  0  0  0  0  0
   20.9376  -10.9259  -18.2585 C   0  0  1  0  0  0  0  0  0  0  0  0
   22.0398  -10.5363  -19.1748 C   0  0  0  0  0  0  0  0  0  0  0  0
   22.8107  -11.7088  -19.6740 C   0  0  0  0  0  0  0  0  0  0  0  0
   22.4652  -12.2034  -21.0325 C   0  0  0  0  0  0  0  0  0  0  0  0
   23.3217  -13.3708  -21.4712 C   0  0  0  0  0  0  0  0  0  0  0  0
   22.9872  -13.7398  -22.8242 N   0  0  0  0  0  0  0  0  0  0  0  0
   20.2720   -9.7891  -17.5981 C   0  0  0  0  0  0  0  0  0  0  0  0
   19.3725   -9.1669  -18.2142 O   0  0  0  0  0  0  0  0  0  0  0  0
   20.5825   -9.3388  -16.2877 N   0  0  0  0  0  0  0  0  0  0  0  0
   19.8134   -8.2050  -15.6811 C   0  0  1  0  0  0  0  0  0  0  0  0
   19.0943   -8.8900  -14.5480 C   0  0  0  0  0  0  0  0  0  0  0  0
   17.8144   -9.5496  -14.8330 C   0  0  0  0  0  0  0  0  0  0  0  0
   17.2554  -10.0246  -13.5213 C   0  0  0  0  0  0  0  0  0  0  0  0
   17.1881  -11.2290  -13.1981 O   0  0  0  0  0  0  0  0  0  0  0  0
   20.7681   -7.1654  -15.2651 C   0  0  0  0  0  0  0  0  0  0  0  0
   21.8216   -7.5460  -14.6228 O   0  0  0  0  0  0  0  0  0  0  0  0
   16.7954   -9.0721  -12.6358 O   0  0  0  0  0  0  0  0  0  0  0  0
   20.6561   -5.7723  -15.5017 N   0  0  0  0  0  0  0  0  0  0  0  0
   19.5312   -5.2201  -16.2694 C   0  0  0  0  0  0  0  0  0  0  0  0
   19.3932   -3.8514  -15.6371 C   0  0  0  0  0  0  0  0  0  0  0  0
   20.8698   -3.4346  -15.6479 C   0  0  0  0  0  0  0  0  0  0  0  0
   21.4918   -4.6936  -15.0400 C   0  0  1  0  0  0  0  0  0  0  0  0
   21.2880   -4.5346  -13.5486 C   0  0  0  0  0  0  0  0  0  0  0  0
   22.1923   -3.7477  -12.8792 O   0  0  0  0  0  0  0  0  0  0  0  0
   20.3587   -5.0785  -12.9436 O   0  0  0  0  0  0  0  0  0  0  0  0
  2  1  1  6
  3  2  1  0
  3  4  1  0
  4  5  1  0
  5  6  1  0
  6  7  1  0
  8  2  1  0
  8  9  2  0
 10  8  1  0
 11 16  1  0
 11 10  1  0
 11 12  1  1
 13 12  1  0
 13 14  1  0
 14 18  1  0
 15 14  2  0
 16 19  1  0
 17 16  2  0
 19 20  1  0
 19 23  1  0
 20 21  1  0
 21 22  1  0
 23 22  1  0
 24 25  1  0
 23 24  1  1
 26 24  2  0
M  END
$$$$
