KEP.pdb
     RDKit          3D

 26 26  0  0  1  0  0  0  0  0999 V2000
   26.2710  -31.5808  -16.2956 N   0  0  0  0  0  0  0  0  0  0  0  0
   26.2873  -32.7576  -15.4806 C   0  0  1  0  0  0  0  0  0  0  0  0
   27.6491  -33.2470  -15.1455 C   0  0  0  0  0  0  0  0  0  0  0  0
   28.3765  -33.7739  -16.3336 C   0  0  0  0  0  0  0  0  0  0  0  0
   29.1850  -32.7954  -17.1072 C   0  0  0  0  0  0  0  0  0  0  0  0
   30.5812  -32.6143  -16.5534 C   0  0  0  0  0  0  0  0  0  0  0  0
   31.3213  -31.6992  -17.3860 N   0  0  0  0  0  0  0  0  0  0  0  0
   25.4126  -32.5603  -14.3113 C   0  0  0  0  0  0  0  0  0  0  0  0
   25.1987  -31.3940  -13.8992 O   0  0  0  0  0  0  0  0  0  0  0  0
   24.7820  -33.6174  -13.6034 N   0  0  0  0  0  0  0  0  0  0  0  0
   23.9250  -33.3172  -12.4116 C   0  0  1  0  0  0  0  0  0  0  0  0
   22.6593  -34.0639  -12.7446 C   0  0  0  0  0  0  0  0  0  0  0  0
   21.5893  -34.1030  -11.7406 C   0  0  0  0  0  0  0  0  0  0  0  0
   20.5030  -34.9900  -12.2806 C   0  0  0  0  0  0  0  0  0  0  0  0
   20.2734  -36.1383  -11.8467 O   0  0  0  0  0  0  0  0  0  0  0  0
   24.6216  -33.7935  -11.2061 C   0  0  0  0  0  0  0  0  0  0  0  0
   25.1491  -34.9712  -11.2486 O   0  0  0  0  0  0  0  0  0  0  0  0
   19.7249  -34.5004  -13.3091 O   0  0  0  0  0  0  0  0  0  0  0  0
   24.7820  -33.0861   -9.9883 N   0  0  0  0  0  0  0  0  0  0  0  0
   24.2094  -31.7448   -9.8076 C   0  0  0  0  0  0  0  0  0  0  0  0
   23.9404  -31.7429   -8.3178 C   0  0  0  0  0  0  0  0  0  0  0  0
   25.2876  -32.2937   -7.8323 C   0  0  0  0  0  0  0  0  0  0  0  0
   25.4171  -33.5008   -8.7637 C   0  0  1  0  0  0  0  0  0  0  0  0
   24.5616  -34.5702   -8.1189 C   0  0  0  0  0  0  0  0  0  0  0  0
   25.1205  -35.2669   -7.0762 O   0  0  0  0  0  0  0  0  0  0  0  0
   23.4129  -34.8197   -8.4979 O   0  0  0  0  0  0  0  0  0  0  0  0
  2  1  1  1
  3  2  1  0
  3  4  1  0
  4  5  1  0
  5  6  1  0
  6  7  1  0
  8  2  1  0
  8  9  2  0
 10  8  1  0
 11 16  1  0
 11 10  1  0
 11 12  1  6
 13 12  1  0
 13 14  1  0
 14 18  1  0
 15 14  2  0
 16 19  1  0
 17 16  2  0
 19 20  1  0
 19 23  1  0
 20 21  1  0
 21 22  1  0
 23 22  1  0
 24 25  1  0
 23 24  1  1
 26 24  2  0
M  END
$$$$
