KEP.pdb
     RDKit          3D

 26 26  0  0  1  0  0  0  0  0999 V2000
   17.4114  -15.1816  -16.2314 N   0  0  0  0  0  0  0  0  0  0  0  0
   17.2300  -13.7641  -16.3163 C   0  0  1  0  0  0  0  0  0  0  0  0
   16.1492  -13.2356  -15.4452 C   0  0  0  0  0  0  0  0  0  0  0  0
   14.8013  -13.7306  -15.8411 C   0  0  0  0  0  0  0  0  0  0  0  0
   14.0229  -12.8710  -16.7709 C   0  0  0  0  0  0  0  0  0  0  0  0
   12.6259  -13.3923  -17.0271 C   0  0  0  0  0  0  0  0  0  0  0  0
   11.9896  -12.6000  -18.0497 N   0  0  0  0  0  0  0  0  0  0  0  0
   18.5284  -13.0891  -16.1433 C   0  0  0  0  0  0  0  0  0  0  0  0
   19.2332  -13.3694  -15.1431 O   0  0  0  0  0  0  0  0  0  0  0  0
   19.0489  -12.1246  -17.0461 N   0  0  0  0  0  0  0  0  0  0  0  0
   20.3914  -11.5084  -16.7952 C   0  0  1  0  0  0  0  0  0  0  0  0
   20.8233  -11.1298  -18.1882 C   0  0  0  0  0  0  0  0  0  0  0  0
   21.2188  -12.2014  -19.1100 C   0  0  0  0  0  0  0  0  0  0  0  0
   21.5949  -11.5531  -20.4127 C   0  0  0  0  0  0  0  0  0  0  0  0
   20.7662  -11.2612  -21.3002 O   0  0  0  0  0  0  0  0  0  0  0  0
   20.2174  -10.3734  -15.8750 C   0  0  0  0  0  0  0  0  0  0  0  0
   19.1811   -9.6221  -16.0443 O   0  0  0  0  0  0  0  0  0  0  0  0
   22.9276  -11.2702  -20.6289 O   0  0  0  0  0  0  0  0  0  0  0  0
   21.0748  -10.0147  -14.8048 N   0  0  0  0  0  0  0  0  0  0  0  0
   22.1979  -10.8760  -14.4094 C   0  0  0  0  0  0  0  0  0  0  0  0
   23.1786   -9.8499  -13.8829 C   0  0  0  0  0  0  0  0  0  0  0  0
   22.2224   -9.0392  -12.9982 C   0  0  0  0  0  0  0  0  0  0  0  0
   21.0793   -8.8249  -13.9926 C   0  0  1  0  0  0  0  0  0  0  0  0
   21.5349   -7.6625  -14.8487 C   0  0  0  0  0  0  0  0  0  0  0  0
   21.3846   -6.4051  -14.3183 O   0  0  0  0  0  0  0  0  0  0  0  0
   22.0213   -7.8168  -15.9734 O   0  0  0  0  0  0  0  0  0  0  0  0
  2  1  1  1
  3  2  1  0
  3  4  1  0
  4  5  1  0
  5  6  1  0
  6  7  1  0
  8  2  1  0
  8  9  2  0
 10  8  1  0
 11 16  1  0
 11 10  1  0
 11 12  1  6
 13 12  1  0
 13 14  1  0
 14 18  1  0
 15 14  2  0
 16 19  1  0
 17 16  2  0
 19 20  1  0
 19 23  1  0
 20 21  1  0
 21 22  1  0
 23 22  1  0
 24 25  1  0
 23 24  1  6
 26 24  2  0
M  END
$$$$
