KEP.pdb
     RDKit          3D

 26 26  0  0  1  0  0  0  0  0999 V2000
   27.9402  -21.3469  -17.9186 N   0  0  0  0  0  0  0  0  0  0  0  0
   27.4530  -22.1320  -16.8250 C   0  0  1  0  0  0  0  0  0  0  0  0
   28.5188  -22.7813  -16.0196 C   0  0  0  0  0  0  0  0  0  0  0  0
   29.3763  -23.6896  -16.8309 C   0  0  0  0  0  0  0  0  0  0  0  0
   28.6847  -24.7901  -17.5522 C   0  0  0  0  0  0  0  0  0  0  0  0
   29.1247  -26.1636  -17.0952 C   0  0  0  0  0  0  0  0  0  0  0  0
   28.3235  -26.5841  -15.9729 N   0  0  0  0  0  0  0  0  0  0  0  0
   26.4987  -21.3363  -16.0328 C   0  0  0  0  0  0  0  0  0  0  0  0
   26.9284  -20.6354  -15.0842 O   0  0  0  0  0  0  0  0  0  0  0  0
   25.0993  -21.3057  -16.2716 N   0  0  0  0  0  0  0  0  0  0  0  0
   24.2133  -20.4347  -15.4343 C   0  0  1  0  0  0  0  0  0  0  0  0
   23.8340  -19.3506  -16.4096 C   0  0  0  0  0  0  0  0  0  0  0  0
   24.9077  -18.5668  -17.0319 C   0  0  0  0  0  0  0  0  0  0  0  0
   24.2647  -17.6347  -18.0199 C   0  0  0  0  0  0  0  0  0  0  0  0
   23.6066  -18.0257  -19.0067 O   0  0  0  0  0  0  0  0  0  0  0  0
   23.0867  -21.2474  -14.9488 C   0  0  0  0  0  0  0  0  0  0  0  0
   22.5501  -22.0786  -15.7783 O   0  0  0  0  0  0  0  0  0  0  0  0
   24.4155  -16.2787  -17.8167 O   0  0  0  0  0  0  0  0  0  0  0  0
   22.5232  -21.2187  -13.6484 N   0  0  0  0  0  0  0  0  0  0  0  0
   23.1071  -20.3889  -12.5854 C   0  0  0  0  0  0  0  0  0  0  0  0
   21.8785  -20.0661  -11.7619 C   0  0  0  0  0  0  0  0  0  0  0  0
   21.2770  -21.4746  -11.6702 C   0  0  0  0  0  0  0  0  0  0  0  0
   21.3426  -21.8735  -13.1460 C   0  0  1  0  0  0  0  0  0  0  0  0
   20.1291  -21.2180  -13.7698 C   0  0  0  0  0  0  0  0  0  0  0  0
   18.9301  -21.8722  -13.6305 O   0  0  0  0  0  0  0  0  0  0  0  0
   20.1935  -20.1458  -14.3795 O   0  0  0  0  0  0  0  0  0  0  0  0
  2  1  1  6
  3  2  1  0
  3  4  1  0
  4  5  1  0
  5  6  1  0
  6  7  1  0
  8  2  1  0
  8  9  2  0
 10  8  1  0
 11 16  1  0
 11 10  1  0
 11 12  1  6
 13 12  1  0
 13 14  1  0
 14 18  1  0
 15 14  2  0
 16 19  1  0
 17 16  2  0
 19 20  1  0
 19 23  1  0
 20 21  1  0
 21 22  1  0
 23 22  1  0
 24 25  1  0
 23 24  1  6
 26 24  2  0
M  END
$$$$
