KEP.pdb
     RDKit          3D

 26 26  0  0  1  0  0  0  0  0999 V2000
   18.2144  -12.4713  -18.0791 N   0  0  0  0  0  0  0  0  0  0  0  0
   18.8771  -11.5402  -18.9413 C   0  0  1  0  0  0  0  0  0  0  0  0
   18.5498  -11.7046  -20.3807 C   0  0  0  0  0  0  0  0  0  0  0  0
   17.7699  -12.9441  -20.6526 C   0  0  0  0  0  0  0  0  0  0  0  0
   17.3848  -13.1917  -22.0668 C   0  0  0  0  0  0  0  0  0  0  0  0
   16.6304  -14.4896  -22.2545 C   0  0  0  0  0  0  0  0  0  0  0  0
   17.2755  -15.5410  -21.5081 N   0  0  0  0  0  0  0  0  0  0  0  0
   18.6837  -10.1713  -18.4312 C   0  0  0  0  0  0  0  0  0  0  0  0
   17.5619   -9.8439  -17.9728 O   0  0  0  0  0  0  0  0  0  0  0  0
   19.6969   -9.1766  -18.4215 N   0  0  0  0  0  0  0  0  0  0  0  0
   19.4181   -7.8261  -17.8354 C   0  0  1  0  0  0  0  0  0  0  0  0
   20.0567   -7.9412  -16.4755 C   0  0  0  0  0  0  0  0  0  0  0  0
   20.0520   -6.7617  -15.6019 C   0  0  0  0  0  0  0  0  0  0  0  0
   20.7198   -7.1570  -14.3149 C   0  0  0  0  0  0  0  0  0  0  0  0
   20.3042   -8.0759  -13.5783 O   0  0  0  0  0  0  0  0  0  0  0  0
   20.0161   -6.8064  -18.7118 C   0  0  0  0  0  0  0  0  0  0  0  0
   21.2480   -6.9696  -19.0622 O   0  0  0  0  0  0  0  0  0  0  0  0
   21.8500   -6.4620  -13.9371 O   0  0  0  0  0  0  0  0  0  0  0  0
   19.3740   -5.6510  -19.2236 N   0  0  0  0  0  0  0  0  0  0  0  0
   17.9830   -5.3352  -18.8700 C   0  0  0  0  0  0  0  0  0  0  0  0
   18.0016   -3.8231  -18.9431 C   0  0  0  0  0  0  0  0  0  0  0  0
   18.7193   -3.6590  -20.2892 C   0  0  0  0  0  0  0  0  0  0  0  0
   19.9006   -4.6048  -20.0623 C   0  0  1  0  0  0  0  0  0  0  0  0
   20.8866   -3.7916  -19.2512 C   0  0  0  0  0  0  0  0  0  0  0  0
   21.6049   -2.8353  -19.9254 O   0  0  0  0  0  0  0  0  0  0  0  0
   21.0520   -3.9646  -18.0395 O   0  0  0  0  0  0  0  0  0  0  0  0
  2  1  1  1
  3  2  1  0
  3  4  1  0
  4  5  1  0
  5  6  1  0
  6  7  1  0
  8  2  1  0
  8  9  2  0
 10  8  1  0
 11 16  1  0
 11 10  1  0
 11 12  1  1
 13 12  1  0
 13 14  1  0
 14 18  1  0
 15 14  2  0
 16 19  1  0
 17 16  2  0
 19 20  1  0
 19 23  1  0
 20 21  1  0
 21 22  1  0
 23 22  1  0
 24 25  1  0
 23 24  1  1
 26 24  2  0
M  END
$$$$
