KEP.pdb
     RDKit          3D

 26 26  0  0  1  0  0  0  0  0999 V2000
   19.7995  -18.0621  -14.8048 N   0  0  0  0  0  0  0  0  0  0  0  0
   20.6687  -19.1088  -15.2503 C   0  0  1  0  0  0  0  0  0  0  0  0
   20.4994  -19.4730  -16.6803 C   0  0  0  0  0  0  0  0  0  0  0  0
   19.9188  -20.8328  -16.8598 C   0  0  0  0  0  0  0  0  0  0  0  0
   19.0797  -21.3507  -15.7475 C   0  0  0  0  0  0  0  0  0  0  0  0
   18.6062  -22.7693  -15.9763 C   0  0  0  0  0  0  0  0  0  0  0  0
   17.8439  -23.2186  -14.8381 N   0  0  0  0  0  0  0  0  0  0  0  0
   22.0566  -18.7937  -14.8684 C   0  0  0  0  0  0  0  0  0  0  0  0
   22.4442  -17.6004  -14.9073 O   0  0  0  0  0  0  0  0  0  0  0  0
   23.0055  -19.7641  -14.4511 N   0  0  0  0  0  0  0  0  0  0  0  0
   24.4115  -19.3530  -14.1360 C   0  0  1  0  0  0  0  0  0  0  0  0
   24.7465  -20.2579  -12.9788 C   0  0  0  0  0  0  0  0  0  0  0  0
   26.1084  -20.2153  -12.4330 C   0  0  0  0  0  0  0  0  0  0  0  0
   26.1795  -21.2344  -11.3308 C   0  0  0  0  0  0  0  0  0  0  0  0
   25.3475  -21.3022  -10.4020 O   0  0  0  0  0  0  0  0  0  0  0  0
   25.2364  -19.5587  -15.3370 C   0  0  0  0  0  0  0  0  0  0  0  0
   25.0891  -20.6695  -15.9785 O   0  0  0  0  0  0  0  0  0  0  0  0
   27.2223  -22.1372  -11.3562 O   0  0  0  0  0  0  0  0  0  0  0  0
   26.1849  -18.6532  -15.8754 N   0  0  0  0  0  0  0  0  0  0  0  0
   26.5534  -17.4240  -15.1594 C   0  0  0  0  0  0  0  0  0  0  0  0
   27.9836  -17.2382  -15.6197 C   0  0  0  0  0  0  0  0  0  0  0  0
   27.7795  -17.4578  -17.1244 C   0  0  0  0  0  0  0  0  0  0  0  0
   26.9651  -18.7525  -17.0823 C   0  0  1  0  0  0  0  0  0  0  0  0
   27.9976  -19.8437  -16.8966 C   0  0  0  0  0  0  0  0  0  0  0  0
   28.7136  -20.2159  -18.0074 O   0  0  0  0  0  0  0  0  0  0  0  0
   28.2017  -20.3861  -15.8060 O   0  0  0  0  0  0  0  0  0  0  0  0
  2  1  1  6
  3  2  1  0
  3  4  1  0
  4  5  1  0
  5  6  1  0
  6  7  1  0
  8  2  1  0
  8  9  2  0
 10  8  1  0
 11 16  1  0
 11 10  1  0
 11 12  1  1
 13 12  1  0
 13 14  1  0
 14 18  1  0
 15 14  2  0
 16 19  1  0
 17 16  2  0
 19 20  1  0
 19 23  1  0
 20 21  1  0
 21 22  1  0
 23 22  1  0
 24 25  1  0
 23 24  1  1
 26 24  2  0
M  END
$$$$
