KEP.pdb
     RDKit          3D

 26 26  0  0  1  0  0  0  0  0999 V2000
   26.7485  -21.4884  -16.4877 N   0  0  0  0  0  0  0  0  0  0  0  0
   27.0833  -20.1583  -16.0774 C   0  0  1  0  0  0  0  0  0  0  0  0
   27.1816  -19.1837  -17.1939 C   0  0  0  0  0  0  0  0  0  0  0  0
   27.2844  -19.8456  -18.5242 C   0  0  0  0  0  0  0  0  0  0  0  0
   28.5035  -19.5511  -19.3220 C   0  0  0  0  0  0  0  0  0  0  0  0
   28.4480  -20.1278  -20.7196 C   0  0  0  0  0  0  0  0  0  0  0  0
   29.6870  -19.8612  -21.4068 N   0  0  0  0  0  0  0  0  0  0  0  0
   26.1861  -19.7376  -14.9868 C   0  0  0  0  0  0  0  0  0  0  0  0
   26.1692  -18.5308  -14.6418 O   0  0  0  0  0  0  0  0  0  0  0  0
   25.3218  -20.6187  -14.2846 N   0  0  0  0  0  0  0  0  0  0  0  0
   24.4748  -20.1031  -13.1613 C   0  0  1  0  0  0  0  0  0  0  0  0
   23.1059  -20.0820  -13.7906 C   0  0  0  0  0  0  0  0  0  0  0  0
   21.9511  -19.7813  -12.9359 C   0  0  0  0  0  0  0  0  0  0  0  0
   20.7223  -19.8781  -13.7957 C   0  0  0  0  0  0  0  0  0  0  0  0
   20.4857  -20.8442  -14.5509 O   0  0  0  0  0  0  0  0  0  0  0  0
   24.6122  -21.0184  -12.0173 C   0  0  0  0  0  0  0  0  0  0  0  0
   24.2566  -22.2474  -12.1909 O   0  0  0  0  0  0  0  0  0  0  0  0
   19.8152  -18.8403  -13.7400 O   0  0  0  0  0  0  0  0  0  0  0  0
   25.1047  -20.6918  -10.7289 N   0  0  0  0  0  0  0  0  0  0  0  0
   25.6208  -19.3486  -10.4307 C   0  0  0  0  0  0  0  0  0  0  0  0
   25.2897  -19.2313   -8.9581 C   0  0  0  0  0  0  0  0  0  0  0  0
   25.8116  -20.5953   -8.4877 C   0  0  0  0  0  0  0  0  0  0  0  0
   25.1473  -21.4938   -9.5330 C   0  0  1  0  0  0  0  0  0  0  0  0
   23.7317  -21.6781   -9.0294 C   0  0  0  0  0  0  0  0  0  0  0  0
   23.5398  -22.6193   -8.0484 O   0  0  0  0  0  0  0  0  0  0  0  0
   22.7807  -21.0230   -9.4672 O   0  0  0  0  0  0  0  0  0  0  0  0
  2  1  1  6
  3  2  1  0
  3  4  1  0
  4  5  1  0
  5  6  1  0
  6  7  1  0
  8  2  1  0
  8  9  2  0
 10  8  1  0
 11 16  1  0
 11 10  1  0
 11 12  1  6
 13 12  1  0
 13 14  1  0
 14 18  1  0
 15 14  2  0
 16 19  1  0
 17 16  2  0
 19 20  1  0
 19 23  1  0
 20 21  1  0
 21 22  1  0
 23 22  1  0
 24 25  1  0
 23 24  1  1
 26 24  2  0
M  END
$$$$
