KEP.pdb
     RDKit          3D

 26 26  0  0  1  0  0  0  0  0999 V2000
   21.3802  -21.0736  -13.0394 N   0  0  0  0  0  0  0  0  0  0  0  0
   21.4885  -20.2330  -14.1932 C   0  0  1  0  0  0  0  0  0  0  0  0
   20.4269  -19.1992  -14.2947 C   0  0  0  0  0  0  0  0  0  0  0  0
   19.2521  -19.6607  -15.0855 C   0  0  0  0  0  0  0  0  0  0  0  0
   18.8449  -21.0791  -14.9068 C   0  0  0  0  0  0  0  0  0  0  0  0
   17.6018  -21.4396  -15.6903 C   0  0  0  0  0  0  0  0  0  0  0  0
   17.1941  -22.7840  -15.3666 N   0  0  0  0  0  0  0  0  0  0  0  0
   22.8594  -19.7013  -14.2895 C   0  0  0  0  0  0  0  0  0  0  0  0
   23.4033  -19.2268  -13.2624 O   0  0  0  0  0  0  0  0  0  0  0  0
   23.6239  -19.6873  -15.4859 N   0  0  0  0  0  0  0  0  0  0  0  0
   25.0212  -19.1466  -15.4782 C   0  0  1  0  0  0  0  0  0  0  0  0
   25.8092  -20.3179  -16.0047 C   0  0  0  0  0  0  0  0  0  0  0  0
   26.8103  -20.9351  -15.1264 C   0  0  0  0  0  0  0  0  0  0  0  0
   27.4768  -22.0306  -15.9101 C   0  0  0  0  0  0  0  0  0  0  0  0
   28.4878  -21.8506  -16.6208 O   0  0  0  0  0  0  0  0  0  0  0  0
   25.0601  -17.9465  -16.3289 C   0  0  0  0  0  0  0  0  0  0  0  0
   24.3800  -17.9711  -17.4261 O   0  0  0  0  0  0  0  0  0  0  0  0
   26.9354  -23.2970  -15.8331 O   0  0  0  0  0  0  0  0  0  0  0  0
   25.7700  -16.7479  -16.0665 N   0  0  0  0  0  0  0  0  0  0  0  0
   26.5821  -16.5963  -14.8512 C   0  0  0  0  0  0  0  0  0  0  0  0
   27.6570  -15.6477  -15.3374 C   0  0  0  0  0  0  0  0  0  0  0  0
   26.7640  -14.6164  -16.0398 C   0  0  0  0  0  0  0  0  0  0  0  0
   25.8953  -15.5610  -16.8732 C   0  0  1  0  0  0  0  0  0  0  0  0
   26.7455  -15.8907  -18.0814 C   0  0  0  0  0  0  0  0  0  0  0  0
   26.7686  -14.9649  -19.0950 O   0  0  0  0  0  0  0  0  0  0  0  0
   27.3951  -16.9374  -18.1706 O   0  0  0  0  0  0  0  0  0  0  0  0
  2  1  1  1
  3  2  1  0
  3  4  1  0
  4  5  1  0
  5  6  1  0
  6  7  1  0
  8  2  1  0
  8  9  2  0
 10  8  1  0
 11 16  1  0
 11 10  1  0
 11 12  1  6
 13 12  1  0
 13 14  1  0
 14 18  1  0
 15 14  2  0
 16 19  1  0
 17 16  2  0
 19 20  1  0
 19 23  1  0
 20 21  1  0
 21 22  1  0
 23 22  1  0
 24 25  1  0
 23 24  1  6
 26 24  2  0
M  END
$$$$
