KEP.pdb
     RDKit          3D

 26 26  0  0  1  0  0  0  0  0999 V2000
   29.1096  -22.7245  -16.6625 N   0  0  0  0  0  0  0  0  0  0  0  0
   28.1281  -21.6823  -16.6731 C   0  0  1  0  0  0  0  0  0  0  0  0
   27.7698  -21.1977  -18.0307 C   0  0  0  0  0  0  0  0  0  0  0  0
   28.7777  -20.2519  -18.5855 C   0  0  0  0  0  0  0  0  0  0  0  0
   28.7492  -18.8629  -18.0569 C   0  0  0  0  0  0  0  0  0  0  0  0
   29.6937  -17.9338  -18.7874 C   0  0  0  0  0  0  0  0  0  0  0  0
   29.6404  -16.6202  -18.1957 N   0  0  0  0  0  0  0  0  0  0  0  0
   26.9726  -22.0842  -15.8517 C   0  0  0  0  0  0  0  0  0  0  0  0
   26.3245  -23.1107  -16.1711 O   0  0  0  0  0  0  0  0  0  0  0  0
   26.5318  -21.3782  -14.7013 N   0  0  0  0  0  0  0  0  0  0  0  0
   25.3473  -21.8697  -13.9265 C   0  0  1  0  0  0  0  0  0  0  0  0
   25.6750  -21.4037  -12.5315 C   0  0  0  0  0  0  0  0  0  0  0  0
   24.6757  -21.6087  -11.4761 C   0  0  0  0  0  0  0  0  0  0  0  0
   25.2844  -21.1332  -10.1869 C   0  0  0  0  0  0  0  0  0  0  0  0
   24.6291  -20.5773   -9.2807 O   0  0  0  0  0  0  0  0  0  0  0  0
   24.1330  -21.2731  -14.5052 C   0  0  0  0  0  0  0  0  0  0  0  0
   24.1264  -19.9953  -14.6903 O   0  0  0  0  0  0  0  0  0  0  0  0
   26.6383  -21.3259  -10.0056 O   0  0  0  0  0  0  0  0  0  0  0  0
   22.9555  -21.9613  -14.8914 N   0  0  0  0  0  0  0  0  0  0  0  0
   22.8166  -23.4086  -14.6778 C   0  0  0  0  0  0  0  0  0  0  0  0
   21.3199  -23.5310  -14.4860 C   0  0  0  0  0  0  0  0  0  0  0  0
   20.8574  -22.6792  -15.6755 C   0  0  0  0  0  0  0  0  0  0  0  0
   21.7362  -21.4454  -15.4591 C   0  0  1  0  0  0  0  0  0  0  0  0
   21.0130  -20.6471  -14.3956 C   0  0  0  0  0  0  0  0  0  0  0  0
   19.9528  -19.8794  -14.8097 O   0  0  0  0  0  0  0  0  0  0  0  0
   21.3453  -20.6714  -13.2063 O   0  0  0  0  0  0  0  0  0  0  0  0
  2  1  1  6
  3  2  1  0
  3  4  1  0
  4  5  1  0
  5  6  1  0
  6  7  1  0
  8  2  1  0
  8  9  2  0
 10  8  1  0
 11 16  1  0
 11 10  1  0
 11 12  1  1
 13 12  1  0
 13 14  1  0
 14 18  1  0
 15 14  2  0
 16 19  1  0
 17 16  2  0
 19 20  1  0
 19 23  1  0
 20 21  1  0
 21 22  1  0
 23 22  1  0
 24 25  1  0
 23 24  1  1
 26 24  2  0
M  END
$$$$
