KEP.pdb
     RDKit          3D

 26 26  0  0  1  0  0  0  0  0999 V2000
   18.9990  -12.0452  -18.1857 N   0  0  0  0  0  0  0  0  0  0  0  0
   20.1869  -12.0447  -17.3866 C   0  0  1  0  0  0  0  0  0  0  0  0
   21.1242  -13.1565  -17.6891 C   0  0  0  0  0  0  0  0  0  0  0  0
   20.5302  -14.1743  -18.5999 C   0  0  0  0  0  0  0  0  0  0  0  0
   20.6965  -13.9406  -20.0584 C   0  0  0  0  0  0  0  0  0  0  0  0
   20.1914  -15.0906  -20.9019 C   0  0  0  0  0  0  0  0  0  0  0  0
   20.3665  -14.7839  -22.2996 N   0  0  0  0  0  0  0  0  0  0  0  0
   20.8054  -10.7077  -17.4228 C   0  0  0  0  0  0  0  0  0  0  0  0
   21.7442  -10.4913  -18.2275 O   0  0  0  0  0  0  0  0  0  0  0  0
   20.4064   -9.6252  -16.5951 N   0  0  0  0  0  0  0  0  0  0  0  0
   20.9730   -8.2569  -16.8227 C   0  0  1  0  0  0  0  0  0  0  0  0
   20.5550   -7.9814  -18.2439 C   0  0  0  0  0  0  0  0  0  0  0  0
   19.1207   -7.8956  -18.5438 C   0  0  0  0  0  0  0  0  0  0  0  0
   18.9261   -6.7213  -19.4612 C   0  0  0  0  0  0  0  0  0  0  0  0
   19.1373   -5.5389  -19.1192 O   0  0  0  0  0  0  0  0  0  0  0  0
   20.3970   -7.3429  -15.8237 C   0  0  0  0  0  0  0  0  0  0  0  0
   19.1200   -7.3898  -15.6388 O   0  0  0  0  0  0  0  0  0  0  0  0
   18.4913   -6.9741  -20.7457 O   0  0  0  0  0  0  0  0  0  0  0  0
   21.1045   -6.4072  -15.0279 N   0  0  0  0  0  0  0  0  0  0  0  0
   22.5429   -6.1781  -15.2226 C   0  0  0  0  0  0  0  0  0  0  0  0
   22.6637   -4.7267  -14.8092 C   0  0  0  0  0  0  0  0  0  0  0  0
   21.8607   -4.7840  -13.5030 C   0  0  0  0  0  0  0  0  0  0  0  0
   20.6159   -5.5192  -14.0042 C   0  0  1  0  0  0  0  0  0  0  0  0
   19.7798   -4.4430  -14.6629 C   0  0  0  0  0  0  0  0  0  0  0  0
   19.0133   -3.6597  -13.8358 O   0  0  0  0  0  0  0  0  0  0  0  0
   19.7733   -4.2618  -15.8846 O   0  0  0  0  0  0  0  0  0  0  0  0
  2  1  1  6
  3  2  1  0
  3  4  1  0
  4  5  1  0
  5  6  1  0
  6  7  1  0
  8  2  1  0
  8  9  2  0
 10  8  1  0
 11 16  1  0
 11 10  1  0
 11 12  1  6
 13 12  1  0
 13 14  1  0
 14 18  1  0
 15 14  2  0
 16 19  1  0
 17 16  2  0
 19 20  1  0
 19 23  1  0
 20 21  1  0
 21 22  1  0
 23 22  1  0
 24 25  1  0
 23 24  1  6
 26 24  2  0
M  END
$$$$
