KEP.pdb
     RDKit          3D

 26 26  0  0  1  0  0  0  0  0999 V2000
   27.6167  -22.1638  -16.9149 N   0  0  0  0  0  0  0  0  0  0  0  0
   28.2355  -21.0213  -16.3137 C   0  0  1  0  0  0  0  0  0  0  0  0
   29.0776  -20.2257  -17.2433 C   0  0  0  0  0  0  0  0  0  0  0  0
   28.7418  -20.4722  -18.6733 C   0  0  0  0  0  0  0  0  0  0  0  0
   29.5223  -21.5294  -19.3679 C   0  0  0  0  0  0  0  0  0  0  0  0
   29.2962  -21.5436  -20.8638 C   0  0  0  0  0  0  0  0  0  0  0  0
   29.9836  -22.6669  -21.4504 N   0  0  0  0  0  0  0  0  0  0  0  0
   27.2206  -20.2319  -15.5939 C   0  0  0  0  0  0  0  0  0  0  0  0
   27.4831  -19.0467  -15.2744 O   0  0  0  0  0  0  0  0  0  0  0  0
   25.9409  -20.7272  -15.2288 N   0  0  0  0  0  0  0  0  0  0  0  0
   24.9770  -19.8476  -14.4926 C   0  0  1  0  0  0  0  0  0  0  0  0
   24.1830  -19.2449  -15.6225 C   0  0  0  0  0  0  0  0  0  0  0  0
   23.0776  -18.3379  -15.2906 C   0  0  0  0  0  0  0  0  0  0  0  0
   22.2989  -18.1025  -16.5542 C   0  0  0  0  0  0  0  0  0  0  0  0
   22.7760  -17.5390  -17.5613 O   0  0  0  0  0  0  0  0  0  0  0  0
   24.1951  -20.6851  -13.5692 C   0  0  0  0  0  0  0  0  0  0  0  0
   23.2769  -21.4366  -14.0783 O   0  0  0  0  0  0  0  0  0  0  0  0
   20.9897  -18.5355  -16.5927 O   0  0  0  0  0  0  0  0  0  0  0  0
   24.3477  -20.7600  -12.1620 N   0  0  0  0  0  0  0  0  0  0  0  0
   25.3933  -19.9942  -11.4692 C   0  0  0  0  0  0  0  0  0  0  0  0
   24.7367  -19.7569  -10.1259 C   0  0  0  0  0  0  0  0  0  0  0  0
   24.2370  -21.1812   -9.8506 C   0  0  0  0  0  0  0  0  0  0  0  0
   23.5591  -21.4742  -11.1908 C   0  0  1  0  0  0  0  0  0  0  0  0
   22.2063  -20.8033  -11.0856 C   0  0  0  0  0  0  0  0  0  0  0  0
   21.2255  -21.4869  -10.4104 O   0  0  0  0  0  0  0  0  0  0  0  0
   21.9753  -19.6939  -11.5769 O   0  0  0  0  0  0  0  0  0  0  0  0
  2  1  1  6
  3  2  1  0
  3  4  1  0
  4  5  1  0
  5  6  1  0
  6  7  1  0
  8  2  1  0
  8  9  2  0
 10  8  1  0
 11 16  1  0
 11 10  1  0
 11 12  1  6
 13 12  1  0
 13 14  1  0
 14 18  1  0
 15 14  2  0
 16 19  1  0
 17 16  2  0
 19 20  1  0
 19 23  1  0
 20 21  1  0
 21 22  1  0
 23 22  1  0
 24 25  1  0
 23 24  1  1
 26 24  2  0
M  END
$$$$
