KEP.pdb
     RDKit          3D

 26 26  0  0  1  0  0  0  0  0999 V2000
   18.9296  -20.8673  -14.4687 N   0  0  0  0  0  0  0  0  0  0  0  0
   19.7428  -21.8590  -13.8324 C   0  0  1  0  0  0  0  0  0  0  0  0
   19.0838  -23.1816  -13.6823 C   0  0  0  0  0  0  0  0  0  0  0  0
   17.8591  -23.1185  -12.8371 C   0  0  0  0  0  0  0  0  0  0  0  0
   16.5929  -22.7552  -13.5257 C   0  0  0  0  0  0  0  0  0  0  0  0
   15.3970  -22.7515  -12.5989 C   0  0  0  0  0  0  0  0  0  0  0  0
   14.2282  -22.3009  -13.3127 N   0  0  0  0  0  0  0  0  0  0  0  0
   21.0605  -21.9127  -14.4898 C   0  0  0  0  0  0  0  0  0  0  0  0
   21.9532  -22.6519  -14.0077 O   0  0  0  0  0  0  0  0  0  0  0  0
   21.3985  -21.1726  -15.6535 N   0  0  0  0  0  0  0  0  0  0  0  0
   22.7200  -21.3907  -16.3249 C   0  0  1  0  0  0  0  0  0  0  0  0
   22.3761  -21.1468  -17.7715 C   0  0  0  0  0  0  0  0  0  0  0  0
   23.4667  -21.1331  -18.7538 C   0  0  0  0  0  0  0  0  0  0  0  0
   22.8663  -20.7671  -20.0820 C   0  0  0  0  0  0  0  0  0  0  0  0
   22.4222  -21.6082  -20.8913 O   0  0  0  0  0  0  0  0  0  0  0  0
   23.6928  -20.4447  -15.7556 C   0  0  0  0  0  0  0  0  0  0  0  0
   23.3198  -19.2162  -15.6188 O   0  0  0  0  0  0  0  0  0  0  0  0
   22.8076  -19.4295  -20.4144 O   0  0  0  0  0  0  0  0  0  0  0  0
   25.0118  -20.7429  -15.3308 N   0  0  0  0  0  0  0  0  0  0  0  0
   25.5425  -22.1113  -15.4038 C   0  0  0  0  0  0  0  0  0  0  0  0
   27.0165  -21.8394  -15.6171 C   0  0  0  0  0  0  0  0  0  0  0  0
   27.2224  -20.7781  -14.5283 C   0  0  0  0  0  0  0  0  0  0  0  0
   26.0405  -19.8593  -14.8449 C   0  0  1  0  0  0  0  0  0  0  0  0
   26.5227  -19.0057  -15.9983 C   0  0  0  0  0  0  0  0  0  0  0  0
   27.3772  -17.9754  -15.6928 O   0  0  0  0  0  0  0  0  0  0  0  0
   26.1756  -19.2098  -17.1659 O   0  0  0  0  0  0  0  0  0  0  0  0
  2  1  1  6
  3  2  1  0
  3  4  1  0
  4  5  1  0
  5  6  1  0
  6  7  1  0
  8  2  1  0
  8  9  2  0
 10  8  1  0
 11 16  1  0
 11 10  1  0
 11 12  1  6
 13 12  1  0
 13 14  1  0
 14 18  1  0
 15 14  2  0
 16 19  1  0
 17 16  2  0
 19 20  1  0
 19 23  1  0
 20 21  1  0
 21 22  1  0
 23 22  1  0
 24 25  1  0
 23 24  1  6
 26 24  2  0
M  END
$$$$
