WYR.pdb
     RDKit          3D

 38 40  0  0  1  0  0  0  0  0999 V2000
   28.4045  -19.7803   -9.8818 N   0  0  0  0  0  0  0  0  0  0  0  0
   27.2017  -20.5082   -9.5879 C   0  0  1  0  0  0  0  0  0  0  0  0
   26.5019  -19.9447   -8.3978 C   0  0  0  0  0  0  0  0  0  0  0  0
   27.3507  -19.6006   -7.2594 C   0  0  0  0  0  0  0  0  0  0  0  0
   28.1286  -18.4546   -7.0991 C   0  0  0  0  0  0  0  0  0  0  0  0
   28.7346  -18.5646   -5.9154 N   0  0  0  0  0  0  0  0  0  0  0  0
   28.3778  -19.7255   -5.3193 C   0  0  0  0  0  0  0  0  0  0  0  0
   28.7097  -20.3210   -4.1027 C   0  0  0  0  0  0  0  0  0  0  0  0
   28.1919  -21.5435   -3.7210 C   0  0  0  0  0  0  0  0  0  0  0  0
   27.3187  -22.2191   -4.5465 C   0  0  0  0  0  0  0  0  0  0  0  0
   26.9944  -21.6257   -5.7479 C   0  0  0  0  0  0  0  0  0  0  0  0
   27.5025  -20.4018   -6.1474 C   0  0  0  0  0  0  0  0  0  0  0  0
   26.3396  -20.7624  -10.7493 C   0  0  0  0  0  0  0  0  0  0  0  0
   26.0029  -19.7821  -11.4590 O   0  0  0  0  0  0  0  0  0  0  0  0
   23.2701  -24.6976  -17.9920 O   0  0  0  0  0  0  0  0  0  0  0  0
   23.7560  -24.4714  -16.6963 C   0  0  0  0  0  0  0  0  0  0  0  0
   25.0224  -23.9738  -16.5015 C   0  0  0  0  0  0  0  0  0  0  0  0
   25.5315  -23.7399  -15.2445 C   0  0  0  0  0  0  0  0  0  0  0  0
   24.7567  -24.0085  -14.1143 C   0  0  0  0  0  0  0  0  0  0  0  0
   25.2711  -23.7672  -12.7458 C   0  0  0  0  0  0  0  0  0  0  0  0
   25.3517  -22.3008  -12.4813 C   0  0  2  0  0  0  0  0  0  0  0  0
   25.8583  -22.0429  -11.1254 N   0  0  0  0  0  0  0  0  0  0  0  0
   24.0510  -21.5868  -12.5798 C   0  0  0  0  0  0  0  0  0  0  0  0
   23.3066  -21.3650  -11.5995 O   0  0  0  0  0  0  0  0  0  0  0  0
   23.5026  -24.5012  -14.3101 C   0  0  0  0  0  0  0  0  0  0  0  0
   23.0007  -24.7325  -15.5800 C   0  0  0  0  0  0  0  0  0  0  0  0
   21.7209  -15.2372  -18.0198 N   0  0  0  0  0  0  0  0  0  0  0  0
   20.5260  -15.4036  -17.2792 C   0  0  0  0  0  0  0  0  0  0  0  0
   19.5449  -14.5564  -17.3596 N   0  0  0  0  0  0  0  0  0  0  0  0
   20.3996  -16.5321  -16.4213 N   0  0  0  0  0  0  0  0  0  0  0  0
   21.5984  -17.3755  -16.2746 C   0  0  0  0  0  0  0  0  0  0  0  0
   21.2996  -18.4481  -15.2889 C   0  0  0  0  0  0  0  0  0  0  0  0
   22.4734  -19.2817  -14.9739 C   0  0  0  0  0  0  0  0  0  0  0  0
   22.3177  -20.3822  -13.9838 C   0  0  2  0  0  0  0  0  0  0  0  0
   23.5930  -21.1046  -13.8603 N   0  0  0  0  0  0  0  0  0  0  0  0
   21.2082  -21.3055  -14.1714 C   0  0  0  0  0  0  0  0  0  0  0  0
   20.1936  -21.3021  -13.4351 O   0  0  0  0  0  0  0  0  0  0  0  0
   21.2314  -22.2440  -15.1935 O   0  0  0  0  0  0  0  0  0  0  0  0
  2  1  1  6
  2  3  1  0
  3  4  1  0
  4  5  2  0
  4 12  1  0
  5  6  1  0
  6  7  1  0
  7  8  2  0
  9  8  1  0
 10  9  2  0
 11 12  2  0
 11 10  1  0
 12  7  1  0
 13 22  1  0
 13  2  1  0
 14 13  2  0
 16 15  1  0
 17 16  2  0
 18 17  1  0
 19 18  2  0
 19 25  1  0
 21 20  1  1
 20 19  1  0
 21 23  1  0
 21 22  1  0
 23 35  1  0
 24 23  2  0
 25 26  2  0
 26 16  1  0
 27 28  1  0
 28 29  2  0
 30 28  1  0
 31 30  1  0
 32 31  1  0
 34 33  1  6
 33 32  1  0
 34 35  1  0
 36 34  1  0
 37 36  2  0
 38 36  1  0
M  END
$$$$
