WYR.pdb
     RDKit          3D

 38 40  0  0  1  0  0  0  0  0999 V2000
   19.4219  -24.8095  -12.7865 N   0  0  0  0  0  0  0  0  0  0  0  0
   19.1577  -24.3772  -11.4425 C   0  0  1  0  0  0  0  0  0  0  0  0
   18.4139  -23.0850  -11.4230 C   0  0  0  0  0  0  0  0  0  0  0  0
   19.1421  -21.9195  -11.9188 C   0  0  0  0  0  0  0  0  0  0  0  0
   19.3830  -21.5741  -13.2481 C   0  0  0  0  0  0  0  0  0  0  0  0
   20.0849  -20.4395  -13.2287 N   0  0  0  0  0  0  0  0  0  0  0  0
   20.3001  -20.0507  -11.9507 C   0  0  0  0  0  0  0  0  0  0  0  0
   20.9593  -18.9642  -11.3766 C   0  0  0  0  0  0  0  0  0  0  0  0
   21.0351  -18.7943  -10.0077 C   0  0  0  0  0  0  0  0  0  0  0  0
   20.4514  -19.7099   -9.1584 C   0  0  0  0  0  0  0  0  0  0  0  0
   19.8013  -20.7819   -9.7316 C   0  0  0  0  0  0  0  0  0  0  0  0
   19.7146  -20.9689  -11.1003 C   0  0  0  0  0  0  0  0  0  0  0  0
   18.6139  -25.4172  -10.5597 C   0  0  0  0  0  0  0  0  0  0  0  0
   17.5153  -25.9401  -10.8722 O   0  0  0  0  0  0  0  0  0  0  0  0
   19.9017  -30.2581  -13.7678 O   0  0  0  0  0  0  0  0  0  0  0  0
   19.7841  -29.7411  -12.4697 C   0  0  0  0  0  0  0  0  0  0  0  0
   20.7193  -28.8607  -11.9804 C   0  0  0  0  0  0  0  0  0  0  0  0
   20.6354  -28.3340  -10.7118 C   0  0  0  0  0  0  0  0  0  0  0  0
   19.5756  -28.6896   -9.8749 C   0  0  0  0  0  0  0  0  0  0  0  0
   19.4519  -28.1409   -8.5041 C   0  0  0  0  0  0  0  0  0  0  0  0
   18.6248  -26.8990   -8.5233 C   0  0  2  0  0  0  0  0  0  0  0  0
   19.2455  -25.8727   -9.3737 N   0  0  0  0  0  0  0  0  0  0  0  0
   18.4310  -26.2698   -7.1900 C   0  0  0  0  0  0  0  0  0  0  0  0
   19.3472  -25.7098   -6.5486 O   0  0  0  0  0  0  0  0  0  0  0  0
   18.6505  -29.5617  -10.3621 C   0  0  0  0  0  0  0  0  0  0  0  0
   18.7453  -30.0854  -11.6407 C   0  0  0  0  0  0  0  0  0  0  0  0
   11.3270  -22.6606   -6.6336 N   0  0  0  0  0  0  0  0  0  0  0  0
   12.1658  -22.6288   -7.7735 C   0  0  0  0  0  0  0  0  0  0  0  0
   11.7853  -22.0872   -8.8910 N   0  0  0  0  0  0  0  0  0  0  0  0
   13.4626  -23.2093   -7.6902 N   0  0  0  0  0  0  0  0  0  0  0  0
   13.8950  -23.6464   -6.3515 C   0  0  0  0  0  0  0  0  0  0  0  0
   15.1978  -24.3508   -6.4862 C   0  0  0  0  0  0  0  0  0  0  0  0
   15.6801  -24.9144   -5.2127 C   0  0  0  0  0  0  0  0  0  0  0  0
   16.9223  -25.7344   -5.2244 C   0  0  2  0  0  0  0  0  0  0  0  0
   17.1263  -26.2825   -6.5740 N   0  0  0  0  0  0  0  0  0  0  0  0
   17.0545  -26.7717   -4.2118 C   0  0  0  0  0  0  0  0  0  0  0  0
   16.8769  -27.9873   -4.4618 O   0  0  0  0  0  0  0  0  0  0  0  0
   17.3892  -26.4484   -2.9044 O   0  0  0  0  0  0  0  0  0  0  0  0
  2  1  1  6
  2  3  1  0
  3  4  1  0
  4  5  2  0
  4 12  1  0
  5  6  1  0
  6  7  1  0
  7  8  2  0
  9  8  1  0
 10  9  2  0
 11 12  2  0
 11 10  1  0
 12  7  1  0
 13 22  1  0
 13  2  1  0
 14 13  2  0
 16 15  1  0
 17 16  2  0
 18 17  1  0
 19 18  2  0
 19 25  1  0
 21 20  1  1
 20 19  1  0
 21 23  1  0
 21 22  1  0
 23 35  1  0
 24 23  2  0
 25 26  2  0
 26 16  1  0
 27 28  1  0
 28 29  2  0
 30 28  1  0
 31 30  1  0
 32 31  1  0
 34 33  1  6
 33 32  1  0
 34 35  1  0
 36 34  1  0
 37 36  2  0
 38 36  1  0
M  END
$$$$
