WYR.pdb
     RDKit          3D

 38 40  0  0  1  0  0  0  0  0999 V2000
   26.2204  -19.8810  -18.6999 N   0  0  0  0  0  0  0  0  0  0  0  0
   26.2004  -19.1395  -17.4701 C   0  0  1  0  0  0  0  0  0  0  0  0
   25.2070  -18.0286  -17.5208 C   0  0  0  0  0  0  0  0  0  0  0  0
   25.5344  -16.9171  -18.4108 C   0  0  0  0  0  0  0  0  0  0  0  0
   24.8135  -16.4817  -19.5221 C   0  0  0  0  0  0  0  0  0  0  0  0
   25.4820  -15.4451  -20.0312 N   0  0  0  0  0  0  0  0  0  0  0  0
   26.5916  -15.2042  -19.2955 C   0  0  0  0  0  0  0  0  0  0  0  0
   27.6153  -14.2613  -19.3839 C   0  0  0  0  0  0  0  0  0  0  0  0
   28.6600  -14.2286  -18.4807 C   0  0  0  0  0  0  0  0  0  0  0  0
   28.7197  -15.1428  -17.4506 C   0  0  0  0  0  0  0  0  0  0  0  0
   27.7051  -16.0725  -17.3683 C   0  0  0  0  0  0  0  0  0  0  0  0
   26.6504  -16.1208  -18.2633 C   0  0  0  0  0  0  0  0  0  0  0  0
   26.1433  -19.9653  -16.2570 C   0  0  0  0  0  0  0  0  0  0  0  0
   25.5076  -21.0475  -16.3104 O   0  0  0  0  0  0  0  0  0  0  0  0
   24.8593  -21.4291   -7.6840 O   0  0  0  0  0  0  0  0  0  0  0  0
   25.4105  -20.9934   -8.8975 C   0  0  0  0  0  0  0  0  0  0  0  0
   26.2317  -21.8183   -9.6285 C   0  0  0  0  0  0  0  0  0  0  0  0
   26.7898  -21.4237  -10.8229 C   0  0  0  0  0  0  0  0  0  0  0  0
   26.5292  -20.1491  -11.3301 C   0  0  0  0  0  0  0  0  0  0  0  0
   27.1111  -19.6909  -12.6135 C   0  0  0  0  0  0  0  0  0  0  0  0
   26.3014  -20.2081  -13.7554 C   0  0  2  0  0  0  0  0  0  0  0  0
   26.7577  -19.6233  -15.0248 N   0  0  0  0  0  0  0  0  0  0  0  0
   24.8475  -19.9103  -13.6615 C   0  0  0  0  0  0  0  0  0  0  0  0
   24.3471  -18.8020  -13.9542 O   0  0  0  0  0  0  0  0  0  0  0  0
   25.7153  -19.3340  -10.6041 C   0  0  0  0  0  0  0  0  0  0  0  0
   25.1590  -19.7421   -9.4032 C   0  0  0  0  0  0  0  0  0  0  0  0
   23.5746  -24.8254  -16.3232 N   0  0  0  0  0  0  0  0  0  0  0  0
   22.9533  -25.7271  -15.4261 C   0  0  0  0  0  0  0  0  0  0  0  0
   23.4275  -26.9169  -15.2104 N   0  0  0  0  0  0  0  0  0  0  0  0
   21.7742  -25.3161  -14.7433 N   0  0  0  0  0  0  0  0  0  0  0  0
   21.3686  -23.9126  -14.9325 C   0  0  0  0  0  0  0  0  0  0  0  0
   22.1220  -23.0720  -13.9644 C   0  0  0  0  0  0  0  0  0  0  0  0
   21.7894  -21.6399  -14.0671 C   0  0  0  0  0  0  0  0  0  0  0  0
   22.4849  -20.6829  -13.1637 C   0  0  2  0  0  0  0  0  0  0  0  0
   23.9332  -20.9342  -13.2170 N   0  0  0  0  0  0  0  0  0  0  0  0
   22.0184  -20.5946  -11.7877 C   0  0  0  0  0  0  0  0  0  0  0  0
   22.6729  -21.0519  -10.8211 O   0  0  0  0  0  0  0  0  0  0  0  0
   20.8069  -19.9885  -11.4869 O   0  0  0  0  0  0  0  0  0  0  0  0
  2  1  1  6
  2  3  1  0
  3  4  1  0
  4  5  2  0
  4 12  1  0
  5  6  1  0
  6  7  1  0
  7  8  2  0
  9  8  1  0
 10  9  2  0
 11 12  2  0
 11 10  1  0
 12  7  1  0
 13 22  1  0
 13  2  1  0
 14 13  2  0
 16 15  1  0
 17 16  2  0
 18 17  1  0
 19 18  2  0
 19 25  1  0
 21 20  1  1
 20 19  1  0
 21 23  1  0
 21 22  1  0
 23 35  1  0
 24 23  2  0
 25 26  2  0
 26 16  1  0
 27 28  1  0
 28 29  2  0
 30 28  1  0
 31 30  1  0
 32 31  1  0
 34 33  1  1
 33 32  1  0
 34 35  1  0
 36 34  1  0
 37 36  2  0
 38 36  1  0
M  END
$$$$
