WYR.pdb
     RDKit          3D

 38 40  0  0  1  0  0  0  0  0999 V2000
   20.2896  -25.8679  -15.2581 N   0  0  0  0  0  0  0  0  0  0  0  0
   20.2981  -25.6266  -13.8423 C   0  0  1  0  0  0  0  0  0  0  0  0
   19.3917  -24.5002  -13.4771 C   0  0  0  0  0  0  0  0  0  0  0  0
   19.6191  -23.2410  -14.1824 C   0  0  0  0  0  0  0  0  0  0  0  0
   20.6635  -22.3380  -13.9876 C   0  0  0  0  0  0  0  0  0  0  0  0
   20.4680  -21.3343  -14.8448 N   0  0  0  0  0  0  0  0  0  0  0  0
   19.3496  -21.5588  -15.5723 C   0  0  0  0  0  0  0  0  0  0  0  0
   18.7038  -20.8476  -16.5832 C   0  0  0  0  0  0  0  0  0  0  0  0
   17.5459  -21.3098  -17.1782 C   0  0  0  0  0  0  0  0  0  0  0  0
   16.9883  -22.5065  -16.7817 C   0  0  0  0  0  0  0  0  0  0  0  0
   17.6309  -23.2051  -15.7819 C   0  0  0  0  0  0  0  0  0  0  0  0
   18.7916  -22.7585  -15.1742 C   0  0  0  0  0  0  0  0  0  0  0  0
   20.1527  -26.8307  -13.0142 C   0  0  0  0  0  0  0  0  0  0  0  0
   19.0499  -27.4317  -13.0367 O   0  0  0  0  0  0  0  0  0  0  0  0
   21.4691  -34.0570   -8.1876 O   0  0  0  0  0  0  0  0  0  0  0  0
   21.6743  -32.8575   -8.8842 C   0  0  0  0  0  0  0  0  0  0  0  0
   21.4873  -32.7983  -10.2446 C   0  0  0  0  0  0  0  0  0  0  0  0
   21.6797  -31.6385  -10.9600 C   0  0  0  0  0  0  0  0  0  0  0  0
   22.0778  -30.4706  -10.3062 C   0  0  0  0  0  0  0  0  0  0  0  0
   22.2926  -29.2035  -11.0436 C   0  0  0  0  0  0  0  0  0  0  0  0
   20.9802  -28.6147  -11.4411 C   0  0  2  0  0  0  0  0  0  0  0  0
   21.1752  -27.3629  -12.1870 N   0  0  0  0  0  0  0  0  0  0  0  0
   20.0861  -28.2818  -10.3004 C   0  0  0  0  0  0  0  0  0  0  0  0
   20.2938  -27.3339   -9.5113 O   0  0  0  0  0  0  0  0  0  0  0  0
   22.2622  -30.5320   -8.9586 C   0  0  0  0  0  0  0  0  0  0  0  0
   22.0655  -31.7050   -8.2490 C   0  0  0  0  0  0  0  0  0  0  0  0
   12.9880  -25.1263   -8.9974 N   0  0  0  0  0  0  0  0  0  0  0  0
   14.0872  -24.7724   -8.1786 C   0  0  0  0  0  0  0  0  0  0  0  0
   14.2587  -23.5598   -7.7461 N   0  0  0  0  0  0  0  0  0  0  0  0
   15.0308  -25.7762   -7.8216 N   0  0  0  0  0  0  0  0  0  0  0  0
   14.7838  -27.1236   -8.3633 C   0  0  0  0  0  0  0  0  0  0  0  0
   15.9283  -27.9965   -7.9896 C   0  0  0  0  0  0  0  0  0  0  0  0
   16.9584  -28.0742   -9.0407 C   0  0  0  0  0  0  0  0  0  0  0  0
   18.1455  -28.9417   -8.8088 C   0  0  2  0  0  0  0  0  0  0  0  0
   18.9016  -29.0710  -10.0638 N   0  0  0  0  0  0  0  0  0  0  0  0
   17.9201  -30.2427   -8.1962 C   0  0  0  0  0  0  0  0  0  0  0  0
   17.8135  -30.3973   -6.9567 O   0  0  0  0  0  0  0  0  0  0  0  0
   17.8120  -31.3852   -8.9766 O   0  0  0  0  0  0  0  0  0  0  0  0
  2  1  1  6
  2  3  1  0
  3  4  1  0
  4  5  2  0
  4 12  1  0
  5  6  1  0
  6  7  1  0
  7  8  2  0
  9  8  1  0
 10  9  2  0
 11 12  2  0
 11 10  1  0
 12  7  1  0
 13 22  1  0
 13  2  1  0
 14 13  2  0
 16 15  1  0
 17 16  2  0
 18 17  1  0
 19 18  2  0
 19 25  1  0
 21 20  1  1
 20 19  1  0
 21 23  1  0
 21 22  1  0
 23 35  1  0
 24 23  2  0
 25 26  2  0
 26 16  1  0
 27 28  1  0
 28 29  2  0
 30 28  1  0
 31 30  1  0
 32 31  1  0
 34 33  1  6
 33 32  1  0
 34 35  1  0
 36 34  1  0
 37 36  2  0
 38 36  1  0
M  END
$$$$
