WYR.pdb
     RDKit          3D

 38 40  0  0  1  0  0  0  0  0999 V2000
   29.4692  -19.9377  -10.2738 N   0  0  0  0  0  0  0  0  0  0  0  0
   28.3926  -20.8143  -10.6416 C   0  0  1  0  0  0  0  0  0  0  0  0
   27.9997  -21.6991   -9.5074 C   0  0  0  0  0  0  0  0  0  0  0  0
   28.9336  -21.7541   -8.3852 C   0  0  0  0  0  0  0  0  0  0  0  0
   30.1869  -22.3646   -8.3558 C   0  0  0  0  0  0  0  0  0  0  0  0
   30.6809  -22.1682   -7.1319 N   0  0  0  0  0  0  0  0  0  0  0  0
   29.7999  -21.4632   -6.3853 C   0  0  0  0  0  0  0  0  0  0  0  0
   29.8141  -20.9952   -5.0717 C   0  0  0  0  0  0  0  0  0  0  0  0
   28.7599  -20.2792   -4.5385 C   0  0  0  0  0  0  0  0  0  0  0  0
   27.6468  -20.0036   -5.3035 C   0  0  0  0  0  0  0  0  0  0  0  0
   27.6382  -20.4688   -6.6012 C   0  0  0  0  0  0  0  0  0  0  0  0
   28.6847  -21.1874   -7.1530 C   0  0  0  0  0  0  0  0  0  0  0  0
   27.2739  -20.1565  -11.3290 C   0  0  0  0  0  0  0  0  0  0  0  0
   26.5214  -19.4129  -10.6515 O   0  0  0  0  0  0  0  0  0  0  0  0
   25.2990  -14.4970  -17.6322 O   0  0  0  0  0  0  0  0  0  0  0  0
   25.8476  -15.4678  -16.7821 C   0  0  0  0  0  0  0  0  0  0  0  0
   26.0231  -15.2069  -15.4441 C   0  0  0  0  0  0  0  0  0  0  0  0
   26.5584  -16.1358  -14.5813 C   0  0  0  0  0  0  0  0  0  0  0  0
   26.9437  -17.3914  -15.0556 C   0  0  0  0  0  0  0  0  0  0  0  0
   27.5217  -18.4168  -14.1556 C   0  0  0  0  0  0  0  0  0  0  0  0
   26.4301  -19.1928  -13.4974 C   0  0  2  0  0  0  0  0  0  0  0  0
   26.9829  -20.3044  -12.7097 N   0  0  0  0  0  0  0  0  0  0  0  0
   25.4535  -19.7994  -14.4405 C   0  0  0  0  0  0  0  0  0  0  0  0
   25.4963  -20.9940  -14.8086 O   0  0  0  0  0  0  0  0  0  0  0  0
   26.7687  -17.6473  -16.3814 C   0  0  0  0  0  0  0  0  0  0  0  0
   26.2287  -16.7046  -17.2404 C   0  0  0  0  0  0  0  0  0  0  0  0
   19.8843  -23.1654  -11.0423 N   0  0  0  0  0  0  0  0  0  0  0  0
   19.6840  -21.7690  -11.1600 C   0  0  0  0  0  0  0  0  0  0  0  0
   19.0542  -21.0868  -10.2518 N   0  0  0  0  0  0  0  0  0  0  0  0
   20.1872  -21.0960  -12.3086 N   0  0  0  0  0  0  0  0  0  0  0  0
   20.8783  -21.9345  -13.3034 C   0  0  0  0  0  0  0  0  0  0  0  0
   21.2603  -21.0761  -14.4561 C   0  0  0  0  0  0  0  0  0  0  0  0
   22.6010  -20.4819  -14.3100 C   0  0  0  0  0  0  0  0  0  0  0  0
   23.1161  -19.6141  -15.4043 C   0  0  2  0  0  0  0  0  0  0  0  0
   24.3807  -18.9969  -14.9763 N   0  0  0  0  0  0  0  0  0  0  0  0
   22.2093  -18.6202  -15.9597 C   0  0  0  0  0  0  0  0  0  0  0  0
   22.3363  -17.3922  -15.7417 O   0  0  0  0  0  0  0  0  0  0  0  0
   21.1479  -19.0015  -16.7683 O   0  0  0  0  0  0  0  0  0  0  0  0
  2  1  1  1
  2  3  1  0
  3  4  1  0
  4  5  2  0
  4 12  1  0
  5  6  1  0
  6  7  1  0
  7  8  2  0
  9  8  1  0
 10  9  2  0
 11 12  2  0
 11 10  1  0
 12  7  1  0
 13 22  1  0
 13  2  1  0
 14 13  2  0
 16 15  1  0
 17 16  2  0
 18 17  1  0
 19 18  2  0
 19 25  1  0
 21 20  1  6
 20 19  1  0
 21 23  1  0
 21 22  1  0
 23 35  1  0
 24 23  2  0
 25 26  2  0
 26 16  1  0
 27 28  1  0
 28 29  2  0
 30 28  1  0
 31 30  1  0
 32 31  1  0
 34 33  1  1
 33 32  1  0
 34 35  1  0
 36 34  1  0
 37 36  2  0
 38 36  1  0
M  END
$$$$
