WYR.pdb
     RDKit          3D

 38 40  0  0  1  0  0  0  0  0999 V2000
   26.6337  -22.1382  -17.6233 N   0  0  0  0  0  0  0  0  0  0  0  0
   25.2755  -22.5004  -17.3283 C   0  0  1  0  0  0  0  0  0  0  0  0
   25.2093  -23.7535  -16.5228 C   0  0  0  0  0  0  0  0  0  0  0  0
   25.8458  -24.9286  -17.1134 C   0  0  0  0  0  0  0  0  0  0  0  0
   27.1100  -25.4415  -16.8253 C   0  0  0  0  0  0  0  0  0  0  0  0
   27.2743  -26.5153  -17.6002 N   0  0  0  0  0  0  0  0  0  0  0  0
   26.1747  -26.7060  -18.3651 C   0  0  0  0  0  0  0  0  0  0  0  0
   25.8261  -27.6570  -19.3238 C   0  0  0  0  0  0  0  0  0  0  0  0
   24.6079  -27.6275  -19.9745 C   0  0  0  0  0  0  0  0  0  0  0  0
   23.6889  -26.6405  -19.6891 C   0  0  0  0  0  0  0  0  0  0  0  0
   24.0390  -25.7031  -18.7407 C   0  0  0  0  0  0  0  0  0  0  0  0
   25.2542  -25.7164  -18.0782 C   0  0  0  0  0  0  0  0  0  0  0  0
   24.4421  -21.3993  -16.8286 C   0  0  0  0  0  0  0  0  0  0  0  0
   24.8981  -20.6912  -15.8965 O   0  0  0  0  0  0  0  0  0  0  0  0
   18.2634  -15.3060  -15.4252 O   0  0  0  0  0  0  0  0  0  0  0  0
   19.0755  -16.2877  -16.0108 C   0  0  0  0  0  0  0  0  0  0  0  0
   20.4269  -16.0827  -16.1545 C   0  0  0  0  0  0  0  0  0  0  0  0
   21.2534  -17.0239  -16.7245 C   0  0  0  0  0  0  0  0  0  0  0  0
   20.7267  -18.2343  -17.1796 C   0  0  0  0  0  0  0  0  0  0  0  0
   21.5865  -19.2714  -17.7967 C   0  0  0  0  0  0  0  0  0  0  0  0
   22.3544  -19.9936  -16.7403 C   0  0  2  0  0  0  0  0  0  0  0  0
   23.1527  -21.0798  -17.3270 N   0  0  0  0  0  0  0  0  0  0  0  0
   21.5106  -20.6214  -15.6890 C   0  0  0  0  0  0  0  0  0  0  0  0
   20.8623  -21.6773  -15.8602 O   0  0  0  0  0  0  0  0  0  0  0  0
   19.3877  -18.4350  -17.0360 C   0  0  0  0  0  0  0  0  0  0  0  0
   18.5656  -17.4805  -16.4605 C   0  0  0  0  0  0  0  0  0  0  0  0
   25.5579  -22.6073  -10.4303 N   0  0  0  0  0  0  0  0  0  0  0  0
   25.5289  -21.6355  -11.4592 C   0  0  0  0  0  0  0  0  0  0  0  0
   26.3033  -21.7132  -12.4990 N   0  0  0  0  0  0  0  0  0  0  0  0
   24.6250  -20.5419  -11.3476 N   0  0  0  0  0  0  0  0  0  0  0  0
   23.3308  -20.8303  -10.7059 C   0  0  0  0  0  0  0  0  0  0  0  0
   22.4063  -21.3720  -11.7370 C   0  0  0  0  0  0  0  0  0  0  0  0
   21.2747  -20.4722  -12.0232 C   0  0  0  0  0  0  0  0  0  0  0  0
   20.5776  -20.6022  -13.3320 C   0  0  2  0  0  0  0  0  0  0  0  0
   21.4150  -20.0094  -14.3860 N   0  0  0  0  0  0  0  0  0  0  0  0
   19.2075  -20.1182  -13.4168 C   0  0  0  0  0  0  0  0  0  0  0  0
   18.2482  -20.8570  -13.7416 O   0  0  0  0  0  0  0  0  0  0  0  0
   18.9043  -18.7935  -13.1354 O   0  0  0  0  0  0  0  0  0  0  0  0
  2  1  1  1
  2  3  1  0
  3  4  1  0
  4  5  2  0
  4 12  1  0
  5  6  1  0
  6  7  1  0
  7  8  2  0
  9  8  1  0
 10  9  2  0
 11 12  2  0
 11 10  1  0
 12  7  1  0
 13 22  1  0
 13  2  1  0
 14 13  2  0
 16 15  1  0
 17 16  2  0
 18 17  1  0
 19 18  2  0
 19 25  1  0
 21 20  1  6
 20 19  1  0
 21 23  1  0
 21 22  1  0
 23 35  1  0
 24 23  2  0
 25 26  2  0
 26 16  1  0
 27 28  1  0
 28 29  2  0
 30 28  1  0
 31 30  1  0
 32 31  1  0
 34 33  1  1
 33 32  1  0
 34 35  1  0
 36 34  1  0
 37 36  2  0
 38 36  1  0
M  END
$$$$
