WYR.pdb
     RDKit          3D

 38 40  0  0  1  0  0  0  0  0999 V2000
   27.7092  -23.6544  -18.0745 N   0  0  0  0  0  0  0  0  0  0  0  0
   27.9636  -22.4217  -17.3826 C   0  0  1  0  0  0  0  0  0  0  0  0
   28.0061  -21.2674  -18.3256 C   0  0  0  0  0  0  0  0  0  0  0  0
   28.9480  -21.3827  -19.4366 C   0  0  0  0  0  0  0  0  0  0  0  0
   30.2245  -21.9429  -19.4098 C   0  0  0  0  0  0  0  0  0  0  0  0
   30.7198  -21.8289  -20.6435 N   0  0  0  0  0  0  0  0  0  0  0  0
   29.8178  -21.2228  -21.4496 C   0  0  0  0  0  0  0  0  0  0  0  0
   29.8227  -20.8673  -22.7981 C   0  0  0  0  0  0  0  0  0  0  0  0
   28.7442  -20.2427  -23.3941 C   0  0  0  0  0  0  0  0  0  0  0  0
   27.6154  -19.9490  -22.6593 C   0  0  0  0  0  0  0  0  0  0  0  0
   27.6164  -20.3027  -21.3268 C   0  0  0  0  0  0  0  0  0  0  0  0
   28.6868  -20.9290  -20.7123 C   0  0  0  0  0  0  0  0  0  0  0  0
   27.1422  -22.2108  -16.1836 C   0  0  0  0  0  0  0  0  0  0  0  0
   25.9137  -22.4620  -16.2594 O   0  0  0  0  0  0  0  0  0  0  0  0
   24.0200  -20.2763   -8.1858 O   0  0  0  0  0  0  0  0  0  0  0  0
   24.8885  -20.4904   -9.2656 C   0  0  0  0  0  0  0  0  0  0  0  0
   24.9136  -21.7027   -9.9129 C   0  0  0  0  0  0  0  0  0  0  0  0
   25.7529  -21.9476  -10.9756 C   0  0  0  0  0  0  0  0  0  0  0  0
   26.6165  -20.9490  -11.4303 C   0  0  0  0  0  0  0  0  0  0  0  0
   27.5323  -21.1763  -12.5727 C   0  0  0  0  0  0  0  0  0  0  0  0
   26.7477  -21.4982  -13.8006 C   0  0  2  0  0  0  0  0  0  0  0  0
   27.6421  -21.7404  -14.9420 N   0  0  0  0  0  0  0  0  0  0  0  0
   25.8109  -20.4258  -14.2291 C   0  0  0  0  0  0  0  0  0  0  0  0
   26.1730  -19.3863  -14.8230 O   0  0  0  0  0  0  0  0  0  0  0  0
   26.5895  -19.7491  -10.7875 C   0  0  0  0  0  0  0  0  0  0  0  0
   25.7404  -19.5139   -9.7189 C   0  0  0  0  0  0  0  0  0  0  0  0
   24.0721  -16.5675  -20.0931 N   0  0  0  0  0  0  0  0  0  0  0  0
   23.1723  -17.6533  -20.2156 C   0  0  0  0  0  0  0  0  0  0  0  0
   22.7220  -18.0449  -21.3693 N   0  0  0  0  0  0  0  0  0  0  0  0
   22.7492  -18.3329  -19.0389 N   0  0  0  0  0  0  0  0  0  0  0  0
   23.2339  -17.7839  -17.7607 C   0  0  0  0  0  0  0  0  0  0  0  0
   22.6276  -18.5692  -16.6529 C   0  0  0  0  0  0  0  0  0  0  0  0
   23.6134  -19.3830  -15.9195 C   0  0  0  0  0  0  0  0  0  0  0  0
   23.4405  -19.5551  -14.4511 C   0  0  2  0  0  0  0  0  0  0  0  0
   24.3985  -20.5605  -13.9667 N   0  0  0  0  0  0  0  0  0  0  0  0
   22.0986  -19.8292  -13.9582 C   0  0  0  0  0  0  0  0  0  0  0  0
   21.3422  -18.9304  -13.5204 O   0  0  0  0  0  0  0  0  0  0  0  0
   21.5948  -21.1223  -13.9540 O   0  0  0  0  0  0  0  0  0  0  0  0
  2  1  1  6
  2  3  1  0
  3  4  1  0
  4  5  2  0
  4 12  1  0
  5  6  1  0
  6  7  1  0
  7  8  2  0
  9  8  1  0
 10  9  2  0
 11 12  2  0
 11 10  1  0
 12  7  1  0
 13 22  1  0
 13  2  1  0
 14 13  2  0
 16 15  1  0
 17 16  2  0
 18 17  1  0
 19 18  2  0
 19 25  1  0
 21 20  1  1
 20 19  1  0
 21 23  1  0
 21 22  1  0
 23 35  1  0
 24 23  2  0
 25 26  2  0
 26 16  1  0
 27 28  1  0
 28 29  2  0
 30 28  1  0
 31 30  1  0
 32 31  1  0
 34 33  1  6
 33 32  1  0
 34 35  1  0
 36 34  1  0
 37 36  2  0
 38 36  1  0
M  END
$$$$
