WYR.pdb
     RDKit          3D

 38 40  0  0  1  0  0  0  0  0999 V2000
   24.3995  -20.6180  -17.4339 N   0  0  0  0  0  0  0  0  0  0  0  0
   23.7581  -19.6728  -16.5632 C   0  0  1  0  0  0  0  0  0  0  0  0
   22.7756  -18.8305  -17.3039 C   0  0  0  0  0  0  0  0  0  0  0  0
   23.3071  -18.0692  -18.4320 C   0  0  0  0  0  0  0  0  0  0  0  0
   23.5336  -18.5257  -19.7299 C   0  0  0  0  0  0  0  0  0  0  0  0
   24.0253  -17.4944  -20.4192 N   0  0  0  0  0  0  0  0  0  0  0  0
   24.1212  -16.4073  -19.6193 C   0  0  0  0  0  0  0  0  0  0  0  0
   24.5585  -15.0994  -19.8264 C   0  0  0  0  0  0  0  0  0  0  0  0
   24.5520  -14.1571  -18.8163 C   0  0  0  0  0  0  0  0  0  0  0  0
   24.1058  -14.4901  -17.5552 C   0  0  0  0  0  0  0  0  0  0  0  0
   23.6749  -15.7844  -17.3564 C   0  0  0  0  0  0  0  0  0  0  0  0
   23.6736  -16.7421  -18.3557 C   0  0  0  0  0  0  0  0  0  0  0  0
   23.2606  -20.2396  -15.3030 C   0  0  0  0  0  0  0  0  0  0  0  0
   22.6786  -21.3521  -15.3465 O   0  0  0  0  0  0  0  0  0  0  0  0
   20.8264  -21.7402   -6.9783 O   0  0  0  0  0  0  0  0  0  0  0  0
   21.4296  -21.1880   -8.1173 C   0  0  0  0  0  0  0  0  0  0  0  0
   20.7709  -20.2450   -8.8697 C   0  0  0  0  0  0  0  0  0  0  0  0
   21.3323  -19.6824   -9.9931 C   0  0  0  0  0  0  0  0  0  0  0  0
   22.6111  -20.0649  -10.4031 C   0  0  0  0  0  0  0  0  0  0  0  0
   23.2478  -19.4791  -11.6060 C   0  0  0  0  0  0  0  0  0  0  0  0
   22.7895  -20.2005  -12.8294 C   0  0  2  0  0  0  0  0  0  0  0  0
   23.3915  -19.6148  -14.0360 N   0  0  0  0  0  0  0  0  0  0  0  0
   21.3184  -20.1708  -13.0446 C   0  0  0  0  0  0  0  0  0  0  0  0
   20.7060  -19.1835  -13.5077 O   0  0  0  0  0  0  0  0  0  0  0  0
   23.2615  -20.9991   -9.6560 C   0  0  0  0  0  0  0  0  0  0  0  0
   22.6865  -21.5585   -8.5270 C   0  0  0  0  0  0  0  0  0  0  0  0
   14.7388  -24.6013  -16.1838 N   0  0  0  0  0  0  0  0  0  0  0  0
   14.7226  -23.2315  -16.5405 C   0  0  0  0  0  0  0  0  0  0  0  0
   13.6947  -22.6840  -17.1155 N   0  0  0  0  0  0  0  0  0  0  0  0
   15.8677  -22.4339  -16.2612 N   0  0  0  0  0  0  0  0  0  0  0  0
   16.9574  -23.0958  -15.5235 C   0  0  0  0  0  0  0  0  0  0  0  0
   17.2200  -22.3226  -14.2807 C   0  0  0  0  0  0  0  0  0  0  0  0
   18.6558  -22.0941  -14.0391 C   0  0  0  0  0  0  0  0  0  0  0  0
   19.0574  -21.2999  -12.8460 C   0  0  2  0  0  0  0  0  0  0  0  0
   20.5224  -21.3289  -12.7175 N   0  0  0  0  0  0  0  0  0  0  0  0
   18.4138  -21.6147  -11.5790 C   0  0  0  0  0  0  0  0  0  0  0  0
   17.2546  -21.2304  -11.2954 O   0  0  0  0  0  0  0  0  0  0  0  0
   19.0717  -22.3679  -10.6168 O   0  0  0  0  0  0  0  0  0  0  0  0
  2  1  1  6
  2  3  1  0
  3  4  1  0
  4  5  2  0
  4 12  1  0
  5  6  1  0
  6  7  1  0
  7  8  2  0
  9  8  1  0
 10  9  2  0
 11 12  2  0
 11 10  1  0
 12  7  1  0
 13 22  1  0
 13  2  1  0
 14 13  2  0
 16 15  1  0
 17 16  2  0
 18 17  1  0
 19 18  2  0
 19 25  1  0
 21 20  1  1
 20 19  1  0
 21 23  1  0
 21 22  1  0
 23 35  1  0
 24 23  2  0
 25 26  2  0
 26 16  1  0
 27 28  1  0
 28 29  2  0
 30 28  1  0
 31 30  1  0
 32 31  1  0
 34 33  1  6
 33 32  1  0
 34 35  1  0
 36 34  1  0
 37 36  2  0
 38 36  1  0
M  END
$$$$
