WYR.pdb
     RDKit          3D

 38 40  0  0  1  0  0  0  0  0999 V2000
   15.4211  -23.9173   -6.6300 N   0  0  0  0  0  0  0  0  0  0  0  0
   15.7051  -25.2124   -6.0779 C   0  0  1  0  0  0  0  0  0  0  0  0
   16.5528  -26.0225   -6.9991 C   0  0  0  0  0  0  0  0  0  0  0  0
   15.9424  -26.3887   -8.2750 C   0  0  0  0  0  0  0  0  0  0  0  0
   15.8805  -25.6187   -9.4359 C   0  0  0  0  0  0  0  0  0  0  0  0
   15.2322  -26.3480  -10.3460 N   0  0  0  0  0  0  0  0  0  0  0  0
   14.8806  -27.5424   -9.8164 C   0  0  0  0  0  0  0  0  0  0  0  0
   14.2051  -28.6536  -10.3200 C   0  0  0  0  0  0  0  0  0  0  0  0
   13.9710  -29.7777   -9.5519 C   0  0  0  0  0  0  0  0  0  0  0  0
   14.4061  -29.8319   -8.2450 C   0  0  0  0  0  0  0  0  0  0  0  0
   15.0731  -28.7304   -7.7526 C   0  0  0  0  0  0  0  0  0  0  0  0
   15.3172  -27.5957   -8.5066 C   0  0  0  0  0  0  0  0  0  0  0  0
   16.1515  -25.1980   -4.6788 C   0  0  0  0  0  0  0  0  0  0  0  0
   17.2164  -24.5900   -4.4063 O   0  0  0  0  0  0  0  0  0  0  0  0
    9.8564  -27.3991   -1.5391 O   0  0  0  0  0  0  0  0  0  0  0  0
   11.1232  -26.7992   -1.5024 C   0  0  0  0  0  0  0  0  0  0  0  0
   12.0925  -27.2643   -0.6462 C   0  0  0  0  0  0  0  0  0  0  0  0
   13.3459  -26.6997   -0.5836 C   0  0  0  0  0  0  0  0  0  0  0  0
   13.6684  -25.6182   -1.4060 C   0  0  0  0  0  0  0  0  0  0  0  0
   15.0082  -24.9864   -1.3672 C   0  0  0  0  0  0  0  0  0  0  0  0
   15.9581  -25.7491   -2.2291 C   0  0  2  0  0  0  0  0  0  0  0  0
   15.4611  -25.8266   -3.6106 N   0  0  0  0  0  0  0  0  0  0  0  0
   16.1910  -27.1519   -1.7939 C   0  0  0  0  0  0  0  0  0  0  0  0
   15.6385  -28.1418   -2.3222 O   0  0  0  0  0  0  0  0  0  0  0  0
   12.7065  -25.1595   -2.2533 C   0  0  0  0  0  0  0  0  0  0  0  0
   11.4483  -25.7358   -2.3077 C   0  0  0  0  0  0  0  0  0  0  0  0
   20.1888  -32.1709   -3.5133 N   0  0  0  0  0  0  0  0  0  0  0  0
   20.2829  -33.0373   -2.3978 C   0  0  0  0  0  0  0  0  0  0  0  0
   20.1670  -34.3254   -2.5173 N   0  0  0  0  0  0  0  0  0  0  0  0
   20.5097  -32.4778   -1.1090 N   0  0  0  0  0  0  0  0  0  0  0  0
   20.3708  -31.0153   -1.0010 C   0  0  0  0  0  0  0  0  0  0  0  0
   18.9615  -30.7031   -0.6432 C   0  0  0  0  0  0  0  0  0  0  0  0
   18.6661  -29.2597   -0.6794 C   0  0  0  0  0  0  0  0  0  0  0  0
   17.3229  -28.7984   -0.2337 C   0  0  2  0  0  0  0  0  0  0  0  0
   17.1022  -27.4240   -0.7088 N   0  0  0  0  0  0  0  0  0  0  0  0
   17.0032  -28.9218    1.1809 C   0  0  0  0  0  0  0  0  0  0  0  0
   16.3342  -29.8764    1.6423 O   0  0  0  0  0  0  0  0  0  0  0  0
   17.4355  -27.9683    2.0918 O   0  0  0  0  0  0  0  0  0  0  0  0
  2  1  1  6
  2  3  1  0
  3  4  1  0
  4  5  2  0
  4 12  1  0
  5  6  1  0
  6  7  1  0
  7  8  2  0
  9  8  1  0
 10  9  2  0
 11 12  2  0
 11 10  1  0
 12  7  1  0
 13 22  1  0
 13  2  1  0
 14 13  2  0
 16 15  1  0
 17 16  2  0
 18 17  1  0
 19 18  2  0
 19 25  1  0
 21 20  1  1
 20 19  1  0
 21 23  1  0
 21 22  1  0
 23 35  1  0
 24 23  2  0
 25 26  2  0
 26 16  1  0
 27 28  1  0
 28 29  2  0
 30 28  1  0
 31 30  1  0
 32 31  1  0
 34 33  1  1
 33 32  1  0
 34 35  1  0
 36 34  1  0
 37 36  2  0
 38 36  1  0
M  END
$$$$
