WYR.pdb
     RDKit          3D

 38 40  0  0  1  0  0  0  0  0999 V2000
   26.5117  -21.7549  -17.4280 N   0  0  0  0  0  0  0  0  0  0  0  0
   26.1056  -20.8926  -16.3536 C   0  0  1  0  0  0  0  0  0  0  0  0
   24.7388  -20.3427  -16.5842 C   0  0  0  0  0  0  0  0  0  0  0  0
   24.5863  -19.4747  -17.7496 C   0  0  0  0  0  0  0  0  0  0  0  0
   24.7086  -19.8306  -19.0922 C   0  0  0  0  0  0  0  0  0  0  0  0
   24.4916  -18.7231  -19.8041 N   0  0  0  0  0  0  0  0  0  0  0  0
   24.2383  -17.6834  -18.9761 C   0  0  0  0  0  0  0  0  0  0  0  0
   23.9509  -16.3355  -19.1888 C   0  0  0  0  0  0  0  0  0  0  0  0
   23.7246  -15.4617  -18.1431 C   0  0  0  0  0  0  0  0  0  0  0  0
   23.7779  -15.9062  -16.8393 C   0  0  0  0  0  0  0  0  0  0  0  0
   24.0625  -17.2395  -16.6351 C   0  0  0  0  0  0  0  0  0  0  0  0
   24.2918  -18.1300  -17.6697 C   0  0  0  0  0  0  0  0  0  0  0  0
   26.3337  -21.4387  -15.0095 C   0  0  0  0  0  0  0  0  0  0  0  0
   25.9167  -22.5984  -14.7660 O   0  0  0  0  0  0  0  0  0  0  0  0
   25.5872  -20.3747   -6.3011 O   0  0  0  0  0  0  0  0  0  0  0  0
   26.0717  -20.3481   -7.6166 C   0  0  0  0  0  0  0  0  0  0  0  0
   25.9445  -19.2161   -8.3858 C   0  0  0  0  0  0  0  0  0  0  0  0
   26.4080  -19.1548   -9.6800 C   0  0  0  0  0  0  0  0  0  0  0  0
   27.0312  -20.2649  -10.2537 C   0  0  0  0  0  0  0  0  0  0  0  0
   27.5442  -20.2345  -11.6435 C   0  0  0  0  0  0  0  0  0  0  0  0
   26.5648  -20.8830  -12.5640 C   0  0  2  0  0  0  0  0  0  0  0  0
   26.9939  -20.7439  -13.9634 N   0  0  0  0  0  0  0  0  0  0  0  0
   25.1906  -20.3190  -12.4945 C   0  0  0  0  0  0  0  0  0  0  0  0
   24.8142  -19.3281  -13.1585 O   0  0  0  0  0  0  0  0  0  0  0  0
   27.1561  -21.3849   -9.4897 C   0  0  0  0  0  0  0  0  0  0  0  0
   26.6858  -21.4350   -8.1880 C   0  0  0  0  0  0  0  0  0  0  0  0
   22.2797  -24.2406  -16.6386 N   0  0  0  0  0  0  0  0  0  0  0  0
   21.4873  -24.8112  -15.6137 C   0  0  0  0  0  0  0  0  0  0  0  0
   20.9732  -25.9988  -15.7243 N   0  0  0  0  0  0  0  0  0  0  0  0
   21.2474  -24.0590  -14.4297 N   0  0  0  0  0  0  0  0  0  0  0  0
   21.9087  -22.7451  -14.3484 C   0  0  0  0  0  0  0  0  0  0  0  0
   21.6058  -22.1489  -13.0201 C   0  0  0  0  0  0  0  0  0  0  0  0
   22.1446  -20.7858  -12.8662 C   0  0  0  0  0  0  0  0  0  0  0  0
   22.8249  -20.4310  -11.5907 C   0  0  2  0  0  0  0  0  0  0  0  0
   24.2095  -20.9259  -11.6280 N   0  0  0  0  0  0  0  0  0  0  0  0
   22.1667  -20.8082  -10.3484 C   0  0  0  0  0  0  0  0  0  0  0  0
   22.7081  -21.5490   -9.4941 O   0  0  0  0  0  0  0  0  0  0  0  0
   20.8888  -20.3529  -10.0559 O   0  0  0  0  0  0  0  0  0  0  0  0
  2  1  1  6
  2  3  1  0
  3  4  1  0
  4  5  2  0
  4 12  1  0
  5  6  1  0
  6  7  1  0
  7  8  2  0
  9  8  1  0
 10  9  2  0
 11 12  2  0
 11 10  1  0
 12  7  1  0
 13 22  1  0
 13  2  1  0
 14 13  2  0
 16 15  1  0
 17 16  2  0
 18 17  1  0
 19 18  2  0
 19 25  1  0
 21 20  1  1
 20 19  1  0
 21 23  1  0
 21 22  1  0
 23 35  1  0
 24 23  2  0
 25 26  2  0
 26 16  1  0
 27 28  1  0
 28 29  2  0
 30 28  1  0
 31 30  1  0
 32 31  1  0
 34 33  1  6
 33 32  1  0
 34 35  1  0
 36 34  1  0
 37 36  2  0
 38 36  1  0
M  END
$$$$
