WYR.pdb
     RDKit          3D

 38 40  0  0  1  0  0  0  0  0999 V2000
   20.3471  -16.6928  -19.0186 N   0  0  0  0  0  0  0  0  0  0  0  0
   20.2113  -18.1208  -18.9452 C   0  0  1  0  0  0  0  0  0  0  0  0
   21.5341  -18.7843  -18.7620 C   0  0  0  0  0  0  0  0  0  0  0  0
   22.6078  -18.3251  -19.6401 C   0  0  0  0  0  0  0  0  0  0  0  0
   23.7741  -17.6551  -19.2725 C   0  0  0  0  0  0  0  0  0  0  0  0
   24.4587  -17.4317  -20.3958 N   0  0  0  0  0  0  0  0  0  0  0  0
   23.7812  -17.9279  -21.4566 C   0  0  0  0  0  0  0  0  0  0  0  0
   24.0383  -17.9658  -22.8267 C   0  0  0  0  0  0  0  0  0  0  0  0
   23.1611  -18.5495  -23.7200 C   0  0  0  0  0  0  0  0  0  0  0  0
   21.9880  -19.1195  -23.2735 C   0  0  0  0  0  0  0  0  0  0  0  0
   21.7391  -19.0789  -21.9182 C   0  0  0  0  0  0  0  0  0  0  0  0
   22.6057  -18.4990  -21.0080 C   0  0  0  0  0  0  0  0  0  0  0  0
   19.1535  -18.5904  -18.0412 C   0  0  0  0  0  0  0  0  0  0  0  0
   19.1662  -18.1778  -16.8548 O   0  0  0  0  0  0  0  0  0  0  0  0
   14.8134  -20.4726  -23.3669 O   0  0  0  0  0  0  0  0  0  0  0  0
   15.0437  -20.1986  -22.0112 C   0  0  0  0  0  0  0  0  0  0  0  0
   14.9727  -21.2009  -21.0734 C   0  0  0  0  0  0  0  0  0  0  0  0
   15.1927  -20.9679  -19.7351 C   0  0  0  0  0  0  0  0  0  0  0  0
   15.4994  -19.6804  -19.2898 C   0  0  0  0  0  0  0  0  0  0  0  0
   15.7442  -19.3929  -17.8570 C   0  0  0  0  0  0  0  0  0  0  0  0
   17.0870  -19.9051  -17.4551 C   0  0  2  0  0  0  0  0  0  0  0  0
   18.1155  -19.4817  -18.4167 N   0  0  0  0  0  0  0  0  0  0  0  0
   17.1800  -21.3871  -17.3755 C   0  0  0  0  0  0  0  0  0  0  0  0
   17.8406  -22.0838  -18.1771 O   0  0  0  0  0  0  0  0  0  0  0  0
   15.5692  -18.6894  -20.2208 C   0  0  0  0  0  0  0  0  0  0  0  0
   15.3460  -18.9358  -21.5653 C   0  0  0  0  0  0  0  0  0  0  0  0
   19.0916  -25.7465  -19.9128 N   0  0  0  0  0  0  0  0  0  0  0  0
   19.6349  -26.7575  -19.0842 C   0  0  0  0  0  0  0  0  0  0  0  0
   20.7163  -27.4010  -19.4056 N   0  0  0  0  0  0  0  0  0  0  0  0
   18.9740  -27.0770  -17.8649 N   0  0  0  0  0  0  0  0  0  0  0  0
   17.8632  -26.1913  -17.4754 C   0  0  0  0  0  0  0  0  0  0  0  0
   18.2685  -25.4374  -16.2594 C   0  0  0  0  0  0  0  0  0  0  0  0
   17.9673  -23.9976  -16.3494 C   0  0  0  0  0  0  0  0  0  0  0  0
   16.5493  -23.5602  -16.2325 C   0  0  2  0  0  0  0  0  0  0  0  0
   16.4872  -22.0936  -16.3254 N   0  0  0  0  0  0  0  0  0  0  0  0
   15.7860  -24.0461  -15.0924 C   0  0  0  0  0  0  0  0  0  0  0  0
   15.4405  -23.3030  -14.1436 O   0  0  0  0  0  0  0  0  0  0  0  0
   15.4034  -25.3775  -15.0102 O   0  0  0  0  0  0  0  0  0  0  0  0
  2  1  1  1
  2  3  1  0
  3  4  1  0
  4  5  2  0
  4 12  1  0
  5  6  1  0
  6  7  1  0
  7  8  2  0
  9  8  1  0
 10  9  2  0
 11 12  2  0
 11 10  1  0
 12  7  1  0
 13 22  1  0
 13  2  1  0
 14 13  2  0
 16 15  1  0
 17 16  2  0
 18 17  1  0
 19 18  2  0
 19 25  1  0
 21 20  1  6
 20 19  1  0
 21 23  1  0
 21 22  1  0
 23 35  1  0
 24 23  2  0
 25 26  2  0
 26 16  1  0
 27 28  1  0
 28 29  2  0
 30 28  1  0
 31 30  1  0
 32 31  1  0
 34 33  1  1
 33 32  1  0
 34 35  1  0
 36 34  1  0
 37 36  2  0
 38 36  1  0
M  END
$$$$
