WYR.pdb
     RDKit          3D

 38 40  0  0  1  0  0  0  0  0999 V2000
   22.1554  -24.4058  -14.6163 N   0  0  0  0  0  0  0  0  0  0  0  0
   20.8103  -24.7906  -14.2918 C   0  0  1  0  0  0  0  0  0  0  0  0
   20.3335  -25.8962  -15.1715 C   0  0  0  0  0  0  0  0  0  0  0  0
   20.3611  -25.6288  -16.6076 C   0  0  0  0  0  0  0  0  0  0  0  0
   21.4594  -25.7094  -17.4629 C   0  0  0  0  0  0  0  0  0  0  0  0
   21.0234  -25.3779  -18.6797 N   0  0  0  0  0  0  0  0  0  0  0  0
   19.7019  -25.0910  -18.6351 C   0  0  0  0  0  0  0  0  0  0  0  0
   18.7721  -24.6995  -19.5979 C   0  0  0  0  0  0  0  0  0  0  0  0
   17.4475  -24.4656  -19.2835 C   0  0  0  0  0  0  0  0  0  0  0  0
   17.0018  -24.6152  -17.9876 C   0  0  0  0  0  0  0  0  0  0  0  0
   17.9253  -25.0022  -17.0401 C   0  0  0  0  0  0  0  0  0  0  0  0
   19.2562  -25.2414  -17.3359 C   0  0  0  0  0  0  0  0  0  0  0  0
   20.5580  -24.9882  -12.8586 C   0  0  0  0  0  0  0  0  0  0  0  0
   21.3137  -25.7700  -12.2295 O   0  0  0  0  0  0  0  0  0  0  0  0
   16.6649  -25.3362   -4.9532 O   0  0  0  0  0  0  0  0  0  0  0  0
   17.0998  -24.9091   -6.2160 C   0  0  0  0  0  0  0  0  0  0  0  0
   18.4313  -24.6610   -6.4498 C   0  0  0  0  0  0  0  0  0  0  0  0
   18.8931  -24.2407   -7.6761 C   0  0  0  0  0  0  0  0  0  0  0  0
   18.0006  -24.0526   -8.7333 C   0  0  0  0  0  0  0  0  0  0  0  0
   18.4621  -23.6029  -10.0676 C   0  0  0  0  0  0  0  0  0  0  0  0
   19.2596  -24.6807  -10.7226 C   0  0  2  0  0  0  0  0  0  0  0  0
   19.5154  -24.3556  -12.1335 N   0  0  0  0  0  0  0  0  0  0  0  0
   18.6066  -26.0168  -10.7177 C   0  0  0  0  0  0  0  0  0  0  0  0
   17.6673  -26.3315  -11.4812 O   0  0  0  0  0  0  0  0  0  0  0  0
   16.6822  -24.2992   -8.4991 C   0  0  0  0  0  0  0  0  0  0  0  0
   16.2289  -24.7221   -7.2606 C   0  0  0  0  0  0  0  0  0  0  0  0
   22.4646  -33.1225   -8.9286 N   0  0  0  0  0  0  0  0  0  0  0  0
   21.9514  -32.3134   -7.8866 C   0  0  0  0  0  0  0  0  0  0  0  0
   22.4940  -32.2874   -6.7068 N   0  0  0  0  0  0  0  0  0  0  0  0
   20.8067  -31.5071   -8.1414 N   0  0  0  0  0  0  0  0  0  0  0  0
   20.0902  -31.7739   -9.4005 C   0  0  0  0  0  0  0  0  0  0  0  0
   18.9637  -30.8095   -9.5126 C   0  0  0  0  0  0  0  0  0  0  0  0
   19.4114  -29.4061   -9.5562 C   0  0  0  0  0  0  0  0  0  0  0  0
   18.3875  -28.3390   -9.7250 C   0  0  2  0  0  0  0  0  0  0  0  0
   19.0592  -27.0326   -9.7984 N   0  0  0  0  0  0  0  0  0  0  0  0
   17.2835  -28.3084   -8.7769 C   0  0  0  0  0  0  0  0  0  0  0  0
   17.3855  -27.7978   -7.6364 O   0  0  0  0  0  0  0  0  0  0  0  0
   16.0506  -28.8540   -9.1056 O   0  0  0  0  0  0  0  0  0  0  0  0
  2  1  1  1
  2  3  1  0
  3  4  1  0
  4  5  2  0
  4 12  1  0
  5  6  1  0
  6  7  1  0
  7  8  2  0
  9  8  1  0
 10  9  2  0
 11 12  2  0
 11 10  1  0
 12  7  1  0
 13 22  1  0
 13  2  1  0
 14 13  2  0
 16 15  1  0
 17 16  2  0
 18 17  1  0
 19 18  2  0
 19 25  1  0
 21 20  1  6
 20 19  1  0
 21 23  1  0
 21 22  1  0
 23 35  1  0
 24 23  2  0
 25 26  2  0
 26 16  1  0
 27 28  1  0
 28 29  2  0
 30 28  1  0
 31 30  1  0
 32 31  1  0
 34 33  1  1
 33 32  1  0
 34 35  1  0
 36 34  1  0
 37 36  2  0
 38 36  1  0
M  END
$$$$
