WYR.pdb
     RDKit          3D

 38 40  0  0  1  0  0  0  0  0999 V2000
   26.4478  -21.3085  -13.7212 N   0  0  0  0  0  0  0  0  0  0  0  0
   25.5811  -20.5456  -12.8670 C   0  0  1  0  0  0  0  0  0  0  0  0
   24.1815  -20.5354  -13.3814 C   0  0  0  0  0  0  0  0  0  0  0  0
   24.0089  -20.0786  -14.7585 C   0  0  0  0  0  0  0  0  0  0  0  0
   23.4877  -20.8011  -15.8312 C   0  0  0  0  0  0  0  0  0  0  0  0
   23.5221  -19.9920  -16.8917 N   0  0  0  0  0  0  0  0  0  0  0  0
   24.0405  -18.7923  -16.5414 C   0  0  0  0  0  0  0  0  0  0  0  0
   24.2934  -17.6145  -17.2439 C   0  0  0  0  0  0  0  0  0  0  0  0
   24.8412  -16.5023  -16.6346 C   0  0  0  0  0  0  0  0  0  0  0  0
   25.1582  -16.5275  -15.2932 C   0  0  0  0  0  0  0  0  0  0  0  0
   24.9061  -17.6946  -14.6040 C   0  0  0  0  0  0  0  0  0  0  0  0
   24.3577  -18.8187  -15.1969 C   0  0  0  0  0  0  0  0  0  0  0  0
   25.7115  -20.8460  -11.4354 C   0  0  0  0  0  0  0  0  0  0  0  0
   25.5219  -22.0305  -11.0622 O   0  0  0  0  0  0  0  0  0  0  0  0
   28.1450  -21.0041   -3.0122 O   0  0  0  0  0  0  0  0  0  0  0  0
   27.9143  -20.5962   -4.3337 C   0  0  0  0  0  0  0  0  0  0  0  0
   26.9500  -19.6590   -4.6179 C   0  0  0  0  0  0  0  0  0  0  0  0
   26.6968  -19.2357   -5.9026 C   0  0  0  0  0  0  0  0  0  0  0  0
   27.4293  -19.7601   -6.9696 C   0  0  0  0  0  0  0  0  0  0  0  0
   27.1854  -19.3266   -8.3653 C   0  0  0  0  0  0  0  0  0  0  0  0
   26.2614  -20.2824   -9.0432 C   0  0  2  0  0  0  0  0  0  0  0  0
   26.0369  -19.8873  -10.4415 N   0  0  0  0  0  0  0  0  0  0  0  0
   24.9149  -20.3811   -8.4199 C   0  0  0  0  0  0  0  0  0  0  0  0
   24.0771  -19.4525   -8.4302 O   0  0  0  0  0  0  0  0  0  0  0  0
   28.3840  -20.6882   -6.6853 C   0  0  0  0  0  0  0  0  0  0  0  0
   28.6302  -21.1065   -5.3882 C   0  0  0  0  0  0  0  0  0  0  0  0
   20.0866  -24.5510   -4.4986 N   0  0  0  0  0  0  0  0  0  0  0  0
   19.0958  -24.8240   -5.4720 C   0  0  0  0  0  0  0  0  0  0  0  0
   17.8489  -24.9976   -5.1525 N   0  0  0  0  0  0  0  0  0  0  0  0
   19.4801  -24.9117   -6.8395 N   0  0  0  0  0  0  0  0  0  0  0  0
   20.9189  -24.7696   -7.1214 C   0  0  0  0  0  0  0  0  0  0  0  0
   21.3126  -23.3608   -6.8532 C   0  0  0  0  0  0  0  0  0  0  0  0
   22.7372  -23.1007   -7.1268 C   0  0  0  0  0  0  0  0  0  0  0  0
   23.2283  -21.6971   -7.0598 C   0  0  2  0  0  0  0  0  0  0  0  0
   24.5168  -21.6023   -7.7627 N   0  0  0  0  0  0  0  0  0  0  0  0
   23.2992  -21.0699   -5.7482 C   0  0  0  0  0  0  0  0  0  0  0  0
   24.2915  -21.1939   -4.9921 O   0  0  0  0  0  0  0  0  0  0  0  0
   22.2500  -20.2947   -5.2748 O   0  0  0  0  0  0  0  0  0  0  0  0
  2  1  1  6
  2  3  1  0
  3  4  1  0
  4  5  2  0
  4 12  1  0
  5  6  1  0
  6  7  1  0
  7  8  2  0
  9  8  1  0
 10  9  2  0
 11 12  2  0
 11 10  1  0
 12  7  1  0
 13 22  1  0
 13  2  1  0
 14 13  2  0
 16 15  1  0
 17 16  2  0
 18 17  1  0
 19 18  2  0
 19 25  1  0
 21 20  1  1
 20 19  1  0
 21 23  1  0
 21 22  1  0
 23 35  1  0
 24 23  2  0
 25 26  2  0
 26 16  1  0
 27 28  1  0
 28 29  2  0
 30 28  1  0
 31 30  1  0
 32 31  1  0
 34 33  1  1
 33 32  1  0
 34 35  1  0
 36 34  1  0
 37 36  2  0
 38 36  1  0
M  END
$$$$
