EWE.pdb
     RDKit          3D

 33 34  0  0  1  0  0  0  0  0999 V2000
    9.2184  -18.4815   20.8227 N   0  0  0  0  0  0  0  0  0  0  0  0
   10.2507  -17.4869   21.0072 C   0  0  1  0  0  0  0  0  0  0  0  0
   10.2106  -16.4786   19.9171 C   0  0  0  0  0  0  0  0  0  0  0  0
   10.4039  -17.1270   18.5682 C   0  0  0  0  0  0  0  0  0  0  0  0
   10.4399  -16.1155   17.4808 C   0  0  0  0  0  0  0  0  0  0  0  0
   11.3708  -15.2907   17.4506 O   0  0  0  0  0  0  0  0  0  0  0  0
   10.1311  -16.9248   22.3633 C   0  0  0  0  0  0  0  0  0  0  0  0
   10.8843  -15.9647   22.7504 O   0  0  0  0  0  0  0  0  0  0  0  0
    9.4343  -16.1213   16.5335 O   0  0  0  0  0  0  0  0  0  0  0  0
    9.2014  -17.3845   23.3322 N   0  0  0  0  0  0  0  0  0  0  0  0
    9.1742  -16.8660   24.7054 C   0  0  1  0  0  0  0  0  0  0  0  0
    7.7310  -16.5513   24.9691 C   0  0  0  0  0  0  0  0  0  0  0  0
    7.2431  -15.2937   24.3904 C   0  0  0  0  0  0  0  0  0  0  0  0
    6.8171  -15.0823   23.0952 C   0  0  0  0  0  0  0  0  0  0  0  0
    6.5154  -13.7933   22.9877 N   0  0  0  0  0  0  0  0  0  0  0  0
    6.7333  -13.1622   24.1726 C   0  0  0  0  0  0  0  0  0  0  0  0
    6.5583  -11.8477   24.5556 C   0  0  0  0  0  0  0  0  0  0  0  0
    6.8436  -11.5044   25.8345 C   0  0  0  0  0  0  0  0  0  0  0  0
    7.3065  -12.3930   26.7934 C   0  0  0  0  0  0  0  0  0  0  0  0
    7.4703  -13.6958   26.3670 C   0  0  0  0  0  0  0  0  0  0  0  0
    7.1939  -14.0878   25.0852 C   0  0  0  0  0  0  0  0  0  0  0  0
    9.8374  -17.7038   25.6868 C   0  0  0  0  0  0  0  0  0  0  0  0
    9.1924  -18.6912   26.1838 O   0  0  0  0  0  0  0  0  0  0  0  0
   11.1639  -17.5592   26.1883 N   0  0  0  0  0  0  0  0  0  0  0  0
   11.7240  -18.5193   27.1314 C   0  0  1  0  0  0  0  0  0  0  0  0
   13.2052  -18.6446   27.0593 C   0  0  0  0  0  0  0  0  0  0  0  0
   13.7610  -18.5939   25.6599 C   0  0  0  0  0  0  0  0  0  0  0  0
   15.2288  -18.7547   25.7416 C   0  0  0  0  0  0  0  0  0  0  0  0
   15.9894  -18.0707   26.4642 O   0  0  0  0  0  0  0  0  0  0  0  0
   11.2362  -18.2686   28.5166 C   0  0  0  0  0  0  0  0  0  0  0  0
   11.4892  -19.0631   29.5964 O   0  0  0  0  0  0  0  0  0  0  0  0
   15.8925  -19.7421   24.9707 O   0  0  0  0  0  0  0  0  0  0  0  0
   10.5397  -17.2394   28.6972 O   0  0  0  0  0  0  0  0  0  0  0  0
  2  1  1  6
  2  3  1  0
  3  4  1  0
  5  4  1  0
  5  9  1  0
  6  5  2  0
  7  2  1  0
  7  8  2  0
 10  7  1  0
 11 12  1  1
 11 10  1  0
 12 13  1  0
 13 14  2  0
 13 21  1  0
 14 15  1  0
 15 16  1  0
 16 17  2  0
 17 18  1  0
 19 18  2  0
 20 19  1  0
 21 20  2  0
 21 16  1  0
 22 11  1  0
 23 22  2  0
 24 22  1  0
 25 26  1  1
 25 24  1  0
 26 27  1  0
 28 27  1  0
 28 32  1  0
 29 28  2  0
 30 31  1  0
 30 25  1  0
 33 30  2  0
M  END
$$$$
