EWE.pdb
     RDKit          3D

 33 34  0  0  1  0  0  0  0  0999 V2000
    7.5148  -16.0982   20.4924 N   0  0  0  0  0  0  0  0  0  0  0  0
    8.6665  -16.8623   20.9149 C   0  0  1  0  0  0  0  0  0  0  0  0
    9.7391  -16.8081   19.8887 C   0  0  0  0  0  0  0  0  0  0  0  0
    9.2604  -17.3653   18.5705 C   0  0  0  0  0  0  0  0  0  0  0  0
   10.3651  -17.4392   17.5801 C   0  0  0  0  0  0  0  0  0  0  0  0
   11.5250  -17.1757   17.9448 O   0  0  0  0  0  0  0  0  0  0  0  0
    9.0772  -16.4015   22.2522 C   0  0  0  0  0  0  0  0  0  0  0  0
    9.7160  -15.3027   22.4061 O   0  0  0  0  0  0  0  0  0  0  0  0
   10.0693  -17.7988   16.2794 O   0  0  0  0  0  0  0  0  0  0  0  0
    8.8123  -17.1131   23.4513 N   0  0  0  0  0  0  0  0  0  0  0  0
    9.2928  -16.6555   24.7608 C   0  0  1  0  0  0  0  0  0  0  0  0
    8.0565  -16.5299   25.6016 C   0  0  0  0  0  0  0  0  0  0  0  0
    7.1339  -15.4569   25.2115 C   0  0  0  0  0  0  0  0  0  0  0  0
    6.0895  -15.5414   24.3139 C   0  0  0  0  0  0  0  0  0  0  0  0
    5.5545  -14.3293   24.2205 N   0  0  0  0  0  0  0  0  0  0  0  0
    6.2201  -13.4614   25.0289 C   0  0  0  0  0  0  0  0  0  0  0  0
    6.0327  -12.1172   25.2805 C   0  0  0  0  0  0  0  0  0  0  0  0
    6.8527  -11.5063   26.1689 C   0  0  0  0  0  0  0  0  0  0  0  0
    7.8791  -12.1462   26.8474 C   0  0  0  0  0  0  0  0  0  0  0  0
    8.0332  -13.4884   26.5636 C   0  0  0  0  0  0  0  0  0  0  0  0
    7.2279  -14.1468   25.6741 C   0  0  0  0  0  0  0  0  0  0  0  0
   10.3733  -17.4436   25.3233 C   0  0  0  0  0  0  0  0  0  0  0  0
   10.0805  -18.5033   25.9785 O   0  0  0  0  0  0  0  0  0  0  0  0
   11.7708  -17.1754   25.2381 N   0  0  0  0  0  0  0  0  0  0  0  0
   12.7461  -18.0300   25.9042 C   0  0  1  0  0  0  0  0  0  0  0  0
   14.1588  -17.7283   25.5466 C   0  0  0  0  0  0  0  0  0  0  0  0
   14.4044  -16.2926   25.1616 C   0  0  0  0  0  0  0  0  0  0  0  0
   15.3184  -16.2778   23.9990 C   0  0  0  0  0  0  0  0  0  0  0  0
   15.0480  -15.7937   22.8761 O   0  0  0  0  0  0  0  0  0  0  0  0
   12.5220  -18.0656   27.3766 C   0  0  0  0  0  0  0  0  0  0  0  0
   11.6281  -17.2906   28.0560 O   0  0  0  0  0  0  0  0  0  0  0  0
   16.6181  -16.8361   24.0932 O   0  0  0  0  0  0  0  0  0  0  0  0
   13.2129  -18.8794   28.0379 O   0  0  0  0  0  0  0  0  0  0  0  0
  2  1  1  6
  2  3  1  0
  3  4  1  0
  5  4  1  0
  5  9  1  0
  6  5  2  0
  7  2  1  0
  7  8  2  0
 10  7  1  0
 11 12  1  1
 11 10  1  0
 12 13  1  0
 13 14  2  0
 13 21  1  0
 14 15  1  0
 15 16  1  0
 16 17  2  0
 17 18  1  0
 19 18  2  0
 20 19  1  0
 21 20  2  0
 21 16  1  0
 22 11  1  0
 23 22  2  0
 24 22  1  0
 25 26  1  1
 25 24  1  0
 26 27  1  0
 28 27  1  0
 28 32  1  0
 29 28  2  0
 30 31  1  0
 30 25  1  0
 33 30  2  0
M  END
$$$$
