EWE.pdb
     RDKit          3D

 33 34  0  0  1  0  0  0  0  0999 V2000
    6.2270  -15.3180   20.1198 N   0  0  0  0  0  0  0  0  0  0  0  0
    7.5299  -15.9415   20.1701 C   0  0  1  0  0  0  0  0  0  0  0  0
    8.2634  -15.7311   18.8956 C   0  0  0  0  0  0  0  0  0  0  0  0
    7.6588  -16.5459   17.7785 C   0  0  0  0  0  0  0  0  0  0  0  0
    8.5016  -16.4990   16.5561 C   0  0  0  0  0  0  0  0  0  0  0  0
    8.7567  -17.5576   15.9545 O   0  0  0  0  0  0  0  0  0  0  0  0
    8.2392  -15.4626   21.3688 C   0  0  0  0  0  0  0  0  0  0  0  0
    8.7449  -14.2873   21.4130 O   0  0  0  0  0  0  0  0  0  0  0  0
    8.9787  -15.2767   16.1236 O   0  0  0  0  0  0  0  0  0  0  0  0
    8.4220  -16.2376   22.5437 N   0  0  0  0  0  0  0  0  0  0  0  0
    9.3418  -15.8375   23.6156 C   0  0  1  0  0  0  0  0  0  0  0  0
    8.6192  -16.1725   24.8873 C   0  0  0  0  0  0  0  0  0  0  0  0
    7.4179  -15.3743   25.1599 C   0  0  0  0  0  0  0  0  0  0  0  0
    6.1073  -15.8050   25.1323 C   0  0  0  0  0  0  0  0  0  0  0  0
    5.3428  -14.7489   25.3859 N   0  0  0  0  0  0  0  0  0  0  0  0
    6.1167  -13.6469   25.5763 C   0  0  0  0  0  0  0  0  0  0  0  0
    5.7903  -12.3391   25.8735 C   0  0  0  0  0  0  0  0  0  0  0  0
    6.7938  -11.4429   26.0305 C   0  0  0  0  0  0  0  0  0  0  0  0
    8.1400  -11.7536   25.9091 C   0  0  0  0  0  0  0  0  0  0  0  0
    8.4213  -13.0713   25.6082 C   0  0  0  0  0  0  0  0  0  0  0  0
    7.4400  -14.0107   25.4415 C   0  0  0  0  0  0  0  0  0  0  0  0
   10.6900  -16.3580   23.4881 C   0  0  0  0  0  0  0  0  0  0  0  0
   10.8864  -17.3675   22.7264 O   0  0  0  0  0  0  0  0  0  0  0  0
   11.8662  -15.8714   24.1300 N   0  0  0  0  0  0  0  0  0  0  0  0
   12.6295  -16.7107   25.0455 C   0  0  1  0  0  0  0  0  0  0  0  0
   11.8241  -17.2761   26.1619 C   0  0  0  0  0  0  0  0  0  0  0  0
   12.5995  -18.1784   27.0863 C   0  0  0  0  0  0  0  0  0  0  0  0
   11.6641  -18.7126   28.0996 C   0  0  0  0  0  0  0  0  0  0  0  0
   11.1865  -18.0587   29.0549 O   0  0  0  0  0  0  0  0  0  0  0  0
   13.4035  -17.7511   24.3121 C   0  0  0  0  0  0  0  0  0  0  0  0
   12.8619  -18.7402   23.5441 O   0  0  0  0  0  0  0  0  0  0  0  0
   11.2308  -20.0613   28.0445 O   0  0  0  0  0  0  0  0  0  0  0  0
   14.6545  -17.7051   24.4110 O   0  0  0  0  0  0  0  0  0  0  0  0
  2  1  1  6
  2  3  1  0
  3  4  1  0
  5  4  1  0
  5  9  1  0
  6  5  2  0
  7  2  1  0
  7  8  2  0
 10  7  1  0
 11 12  1  1
 11 10  1  0
 12 13  1  0
 13 14  2  0
 13 21  1  0
 14 15  1  0
 15 16  1  0
 16 17  2  0
 17 18  1  0
 19 18  2  0
 20 19  1  0
 21 20  2  0
 21 16  1  0
 22 11  1  0
 23 22  2  0
 24 22  1  0
 25 26  1  1
 25 24  1  0
 26 27  1  0
 28 27  1  0
 28 32  1  0
 29 28  2  0
 30 31  1  0
 30 25  1  0
 33 30  2  0
M  END
$$$$
