EWE.pdb
     RDKit          3D

 33 34  0  0  1  0  0  0  0  0999 V2000
    9.9326  -15.4764   19.9915 N   0  0  0  0  0  0  0  0  0  0  0  0
    9.4315  -16.5749   20.7859 C   0  0  1  0  0  0  0  0  0  0  0  0
    9.9097  -17.8743   20.2478 C   0  0  0  0  0  0  0  0  0  0  0  0
   11.4163  -17.9554   20.2794 C   0  0  0  0  0  0  0  0  0  0  0  0
   11.9037  -19.2214   19.6740 C   0  0  0  0  0  0  0  0  0  0  0  0
   12.1192  -19.2643   18.4495 O   0  0  0  0  0  0  0  0  0  0  0  0
    9.7755  -16.3352   22.1978 C   0  0  0  0  0  0  0  0  0  0  0  0
   10.9026  -15.8248   22.5268 O   0  0  0  0  0  0  0  0  0  0  0  0
   12.1026  -20.3166   20.4922 O   0  0  0  0  0  0  0  0  0  0  0  0
    8.9166  -16.6415   23.2854 N   0  0  0  0  0  0  0  0  0  0  0  0
    9.3445  -16.5212   24.6846 C   0  0  1  0  0  0  0  0  0  0  0  0
    8.0692  -16.4580   25.4726 C   0  0  0  0  0  0  0  0  0  0  0  0
    7.2022  -15.3103   25.1799 C   0  0  0  0  0  0  0  0  0  0  0  0
    6.1999  -15.2429   24.2341 C   0  0  0  0  0  0  0  0  0  0  0  0
    5.7102  -14.0089   24.2698 N   0  0  0  0  0  0  0  0  0  0  0  0
    6.3643  -13.2738   25.2087 C   0  0  0  0  0  0  0  0  0  0  0  0
    6.2093  -11.9647   25.6180 C   0  0  0  0  0  0  0  0  0  0  0  0
    7.0053  -11.5002   26.6108 C   0  0  0  0  0  0  0  0  0  0  0  0
    7.9763  -12.2581   27.2480 C   0  0  0  0  0  0  0  0  0  0  0  0
    8.0997  -13.5600   26.8055 C   0  0  0  0  0  0  0  0  0  0  0  0
    7.3169  -14.0720   25.8064 C   0  0  0  0  0  0  0  0  0  0  0  0
   10.3144  -17.5114   25.1129 C   0  0  0  0  0  0  0  0  0  0  0  0
   10.6355  -18.4452   24.2988 O   0  0  0  0  0  0  0  0  0  0  0  0
   10.9769  -17.5803   26.3733 N   0  0  0  0  0  0  0  0  0  0  0  0
   12.2872  -18.2056   26.5050 C   0  0  1  0  0  0  0  0  0  0  0  0
   13.2971  -17.7044   25.5337 C   0  0  0  0  0  0  0  0  0  0  0  0
   14.6370  -18.3865   25.6300 C   0  0  0  0  0  0  0  0  0  0  0  0
   15.5181  -17.8196   24.5863 C   0  0  0  0  0  0  0  0  0  0  0  0
   16.0870  -16.7058   24.6508 O   0  0  0  0  0  0  0  0  0  0  0  0
   12.7726  -18.1593   27.9127 C   0  0  0  0  0  0  0  0  0  0  0  0
   12.1275  -17.5490   28.9484 O   0  0  0  0  0  0  0  0  0  0  0  0
   15.7849  -18.5402   23.3949 O   0  0  0  0  0  0  0  0  0  0  0  0
   13.8622  -18.7334   28.1582 O   0  0  0  0  0  0  0  0  0  0  0  0
  2  1  1  6
  2  3  1  0
  3  4  1  0
  5  4  1  0
  5  9  1  0
  6  5  2  0
  7  2  1  0
  7  8  2  0
 10  7  1  0
 11 12  1  1
 11 10  1  0
 12 13  1  0
 13 14  2  0
 13 21  1  0
 14 15  1  0
 15 16  1  0
 16 17  2  0
 17 18  1  0
 19 18  2  0
 20 19  1  0
 21 20  2  0
 21 16  1  0
 22 11  1  0
 23 22  2  0
 24 22  1  0
 25 26  1  6
 25 24  1  0
 26 27  1  0
 28 27  1  0
 28 32  1  0
 29 28  2  0
 30 31  1  0
 30 25  1  0
 33 30  2  0
M  END
$$$$
