EWE.pdb
     RDKit          3D

 33 34  0  0  1  0  0  0  0  0999 V2000
    7.0613  -15.6827   20.6966 N   0  0  0  0  0  0  0  0  0  0  0  0
    8.1681  -16.5718   20.9675 C   0  0  1  0  0  0  0  0  0  0  0  0
    9.0552  -16.6840   19.7813 C   0  0  0  0  0  0  0  0  0  0  0  0
    8.4959  -17.6578   18.7732 C   0  0  0  0  0  0  0  0  0  0  0  0
    9.3998  -17.8062   17.6038 C   0  0  0  0  0  0  0  0  0  0  0  0
    9.4383  -16.9032   16.7488 O   0  0  0  0  0  0  0  0  0  0  0  0
    8.8459  -16.1250   22.1965 C   0  0  0  0  0  0  0  0  0  0  0  0
    9.4755  -15.0110   22.2373 O   0  0  0  0  0  0  0  0  0  0  0  0
   10.1723  -18.9469   17.5006 O   0  0  0  0  0  0  0  0  0  0  0  0
    8.8632  -16.8672   23.4061 N   0  0  0  0  0  0  0  0  0  0  0  0
    9.5686  -16.4006   24.6060 C   0  0  1  0  0  0  0  0  0  0  0  0
    8.5506  -16.4796   25.7056 C   0  0  0  0  0  0  0  0  0  0  0  0
    7.4503  -15.5120   25.6181 C   0  0  0  0  0  0  0  0  0  0  0  0
    6.1458  -15.7650   25.2468 C   0  0  0  0  0  0  0  0  0  0  0  0
    5.5045  -14.6019   25.2527 N   0  0  0  0  0  0  0  0  0  0  0  0
    6.3528  -13.6026   25.6155 C   0  0  0  0  0  0  0  0  0  0  0  0
    6.1543  -12.2461   25.7755 C   0  0  0  0  0  0  0  0  0  0  0  0
    7.2001  -11.4833   26.1746 C   0  0  0  0  0  0  0  0  0  0  0  0
    8.4696  -11.9781   26.4333 C   0  0  0  0  0  0  0  0  0  0  0  0
    8.6246  -13.3386   26.2576 C   0  0  0  0  0  0  0  0  0  0  0  0
    7.5963  -14.1479   25.8566 C   0  0  0  0  0  0  0  0  0  0  0  0
   10.8385  -17.0545   24.8598 C   0  0  0  0  0  0  0  0  0  0  0  0
   10.9139  -18.3233   24.7099 O   0  0  0  0  0  0  0  0  0  0  0  0
   12.0568  -16.4406   25.2735 N   0  0  0  0  0  0  0  0  0  0  0  0
   13.2696  -17.2252   25.4701 C   0  0  1  0  0  0  0  0  0  0  0  0
   14.5242  -16.4880   25.1585 C   0  0  0  0  0  0  0  0  0  0  0  0
   15.7833  -17.2585   25.4600 C   0  0  0  0  0  0  0  0  0  0  0  0
   16.9396  -16.3914   25.1468 C   0  0  0  0  0  0  0  0  0  0  0  0
   17.9231  -16.2026   25.8988 O   0  0  0  0  0  0  0  0  0  0  0  0
   13.2954  -17.8574   26.8188 C   0  0  0  0  0  0  0  0  0  0  0  0
   14.0186  -18.9640   27.1561 O   0  0  0  0  0  0  0  0  0  0  0  0
   17.0064  -15.6909   23.9161 O   0  0  0  0  0  0  0  0  0  0  0  0
   12.5953  -17.3204   27.7125 O   0  0  0  0  0  0  0  0  0  0  0  0
  2  1  1  6
  2  3  1  0
  3  4  1  0
  5  4  1  0
  5  9  1  0
  6  5  2  0
  7  2  1  0
  7  8  2  0
 10  7  1  0
 11 12  1  1
 11 10  1  0
 12 13  1  0
 13 14  2  0
 13 21  1  0
 14 15  1  0
 15 16  1  0
 16 17  2  0
 17 18  1  0
 19 18  2  0
 20 19  1  0
 21 20  2  0
 21 16  1  0
 22 11  1  0
 23 22  2  0
 24 22  1  0
 25 26  1  1
 25 24  1  0
 26 27  1  0
 28 27  1  0
 28 32  1  0
 29 28  2  0
 30 31  1  0
 30 25  1  0
 33 30  2  0
M  END
$$$$
