EWE.pdb
     RDKit          3D

 33 34  0  0  1  0  0  0  0  0999 V2000
    9.3936  -15.0469   20.4179 N   0  0  0  0  0  0  0  0  0  0  0  0
    9.9550  -16.2127   21.0619 C   0  0  1  0  0  0  0  0  0  0  0  0
   11.2953  -16.5275   20.5042 C   0  0  0  0  0  0  0  0  0  0  0  0
   11.8273  -17.8239   21.0642 C   0  0  0  0  0  0  0  0  0  0  0  0
   13.0341  -18.2782   20.3266 C   0  0  0  0  0  0  0  0  0  0  0  0
   12.9044  -19.0920   19.3946 O   0  0  0  0  0  0  0  0  0  0  0  0
    9.9338  -16.0057   22.5200 C   0  0  0  0  0  0  0  0  0  0  0  0
   10.6724  -15.1183   23.0732 O   0  0  0  0  0  0  0  0  0  0  0  0
   14.2681  -17.7818   20.7001 O   0  0  0  0  0  0  0  0  0  0  0  0
    9.1205  -16.7498   23.4140 N   0  0  0  0  0  0  0  0  0  0  0  0
    9.1273  -16.5174   24.8635 C   0  0  1  0  0  0  0  0  0  0  0  0
    7.6885  -16.2891   25.2231 C   0  0  0  0  0  0  0  0  0  0  0  0
    7.1007  -15.0437   24.7152 C   0  0  0  0  0  0  0  0  0  0  0  0
    6.5435  -14.8321   23.4708 C   0  0  0  0  0  0  0  0  0  0  0  0
    6.1855  -13.5544   23.4143 N   0  0  0  0  0  0  0  0  0  0  0  0
    6.4939  -12.9307   24.5830 C   0  0  0  0  0  0  0  0  0  0  0  0
    6.3084  -11.6290   25.0028 C   0  0  0  0  0  0  0  0  0  0  0  0
    6.7035  -11.2916   26.2538 C   0  0  0  0  0  0  0  0  0  0  0  0
    7.2898  -12.1741   27.1487 C   0  0  0  0  0  0  0  0  0  0  0  0
    7.4594  -13.4641   26.6869 C   0  0  0  0  0  0  0  0  0  0  0  0
    7.0747  -13.8498   25.4314 C   0  0  0  0  0  0  0  0  0  0  0  0
    9.8303  -17.5221   25.6389 C   0  0  0  0  0  0  0  0  0  0  0  0
    9.1440  -18.3497   26.3332 O   0  0  0  0  0  0  0  0  0  0  0  0
   11.2405  -17.7089   25.7313 N   0  0  0  0  0  0  0  0  0  0  0  0
   11.8113  -18.7433   26.5853 C   0  0  1  0  0  0  0  0  0  0  0  0
   13.2768  -18.9328   26.4088 C   0  0  0  0  0  0  0  0  0  0  0  0
   13.8938  -18.0354   25.3678 C   0  0  0  0  0  0  0  0  0  0  0  0
   15.1757  -18.6377   24.9423 C   0  0  0  0  0  0  0  0  0  0  0  0
   16.2559  -18.0171   24.8143 O   0  0  0  0  0  0  0  0  0  0  0  0
   11.4259  -18.5453   28.0107 C   0  0  0  0  0  0  0  0  0  0  0  0
   11.7163  -19.4028   29.0313 O   0  0  0  0  0  0  0  0  0  0  0  0
   15.2610  -20.0206   24.6419 O   0  0  0  0  0  0  0  0  0  0  0  0
   10.7855  -17.5011   28.2873 O   0  0  0  0  0  0  0  0  0  0  0  0
  2  1  1  6
  2  3  1  0
  3  4  1  0
  5  4  1  0
  5  9  1  0
  6  5  2  0
  7  2  1  0
  7  8  2  0
 10  7  1  0
 11 12  1  1
 11 10  1  0
 12 13  1  0
 13 14  2  0
 13 21  1  0
 14 15  1  0
 15 16  1  0
 16 17  2  0
 17 18  1  0
 19 18  2  0
 20 19  1  0
 21 20  2  0
 21 16  1  0
 22 11  1  0
 23 22  2  0
 24 22  1  0
 25 26  1  1
 25 24  1  0
 26 27  1  0
 28 27  1  0
 28 32  1  0
 29 28  2  0
 30 31  1  0
 30 25  1  0
 33 30  2  0
M  END
$$$$
