EWE.pdb
     RDKit          3D

 33 34  0  0  1  0  0  0  0  0999 V2000
    7.8382  -17.7928   18.7722 N   0  0  0  0  0  0  0  0  0  0  0  0
    9.1183  -17.1270   18.8562 C   0  0  1  0  0  0  0  0  0  0  0  0
    9.3482  -16.2761   17.6605 C   0  0  0  0  0  0  0  0  0  0  0  0
    8.3311  -16.5642   16.5835 C   0  0  0  0  0  0  0  0  0  0  0  0
    8.6318  -15.8112   15.3388 C   0  0  0  0  0  0  0  0  0  0  0  0
    9.6365  -15.0785   15.3012 O   0  0  0  0  0  0  0  0  0  0  0  0
    9.1966  -16.4095   20.1401 C   0  0  0  0  0  0  0  0  0  0  0  0
   10.2426  -15.7468   20.4651 O   0  0  0  0  0  0  0  0  0  0  0  0
    7.7830  -15.9476   14.2574 O   0  0  0  0  0  0  0  0  0  0  0  0
    8.1535  -16.3915   21.1025 N   0  0  0  0  0  0  0  0  0  0  0  0
    8.3282  -15.8175   22.4423 C   0  0  1  0  0  0  0  0  0  0  0  0
    6.9353  -15.5415   22.9270 C   0  0  0  0  0  0  0  0  0  0  0  0
    6.8185  -15.1949   24.3486 C   0  0  0  0  0  0  0  0  0  0  0  0
    6.4168  -16.0217   25.3776 C   0  0  0  0  0  0  0  0  0  0  0  0
    6.4037  -15.2895   26.4856 N   0  0  0  0  0  0  0  0  0  0  0  0
    6.7836  -14.0137   26.2070 C   0  0  0  0  0  0  0  0  0  0  0  0
    6.9346  -12.9059   27.0165 C   0  0  0  0  0  0  0  0  0  0  0  0
    7.3562  -11.7480   26.4540 C   0  0  0  0  0  0  0  0  0  0  0  0
    7.6468  -11.5988   25.1061 C   0  0  0  0  0  0  0  0  0  0  0  0
    7.4791  -12.7302   24.3330 C   0  0  0  0  0  0  0  0  0  0  0  0
    7.0561  -13.9210   24.8584 C   0  0  0  0  0  0  0  0  0  0  0  0
    9.1750  -16.5906   23.3312 C   0  0  0  0  0  0  0  0  0  0  0  0
    9.0947  -17.8674   23.2955 O   0  0  0  0  0  0  0  0  0  0  0  0
   10.1173  -16.0896   24.2764 N   0  0  0  0  0  0  0  0  0  0  0  0
   11.1903  -16.9308   24.7921 C   0  0  1  0  0  0  0  0  0  0  0  0
   12.5558  -16.4404   24.4610 C   0  0  0  0  0  0  0  0  0  0  0  0
   13.6658  -17.2051   25.1340 C   0  0  0  0  0  0  0  0  0  0  0  0
   14.9550  -16.6824   24.6321 C   0  0  0  0  0  0  0  0  0  0  0  0
   15.0810  -15.7749   23.7783 O   0  0  0  0  0  0  0  0  0  0  0  0
   11.0157  -17.2040   26.2462 C   0  0  0  0  0  0  0  0  0  0  0  0
   11.6161  -18.2174   26.9346 O   0  0  0  0  0  0  0  0  0  0  0  0
   16.1830  -17.2020   25.1135 O   0  0  0  0  0  0  0  0  0  0  0  0
   10.2561  -16.4330   26.8830 O   0  0  0  0  0  0  0  0  0  0  0  0
  2  1  1  6
  2  3  1  0
  3  4  1  0
  5  4  1  0
  5  9  1  0
  6  5  2  0
  7  2  1  0
  7  8  2  0
 10  7  1  0
 11 12  1  1
 11 10  1  0
 12 13  1  0
 13 14  2  0
 13 21  1  0
 14 15  1  0
 15 16  1  0
 16 17  2  0
 17 18  1  0
 19 18  2  0
 20 19  1  0
 21 20  2  0
 21 16  1  0
 22 11  1  0
 23 22  2  0
 24 22  1  0
 25 26  1  1
 25 24  1  0
 26 27  1  0
 28 27  1  0
 28 32  1  0
 29 28  2  0
 30 31  1  0
 30 25  1  0
 33 30  2  0
M  END
$$$$
