EWE.pdb
     RDKit          3D

 33 34  0  0  1  0  0  0  0  0999 V2000
    8.4160  -19.4195   20.4748 N   0  0  0  0  0  0  0  0  0  0  0  0
    9.8035  -19.1674   20.7911 C   0  0  1  0  0  0  0  0  0  0  0  0
   10.5930  -18.9430   19.5529 C   0  0  0  0  0  0  0  0  0  0  0  0
    9.7910  -18.1811   18.5264 C   0  0  0  0  0  0  0  0  0  0  0  0
   10.6222  -17.8177   17.3501 C   0  0  0  0  0  0  0  0  0  0  0  0
   10.5271  -16.6737   16.8706 O   0  0  0  0  0  0  0  0  0  0  0  0
    9.8752  -18.0679   21.7684 C   0  0  0  0  0  0  0  0  0  0  0  0
   11.0007  -17.5769   22.1307 O   0  0  0  0  0  0  0  0  0  0  0  0
   11.4779  -18.7651   16.8221 O   0  0  0  0  0  0  0  0  0  0  0  0
    8.7392  -17.4751   22.3786 N   0  0  0  0  0  0  0  0  0  0  0  0
    8.8517  -16.4644   23.4374 C   0  0  1  0  0  0  0  0  0  0  0  0
    7.5969  -15.6492   23.3257 C   0  0  0  0  0  0  0  0  0  0  0  0
    7.6983  -14.2654   23.8047 C   0  0  0  0  0  0  0  0  0  0  0  0
    8.3280  -13.2104   23.1769 C   0  0  0  0  0  0  0  0  0  0  0  0
    8.2250  -12.1584   23.9810 N   0  0  0  0  0  0  0  0  0  0  0  0
    7.5488  -12.4986   25.1110 C   0  0  0  0  0  0  0  0  0  0  0  0
    7.1856  -11.7590   26.2183 C   0  0  0  0  0  0  0  0  0  0  0  0
    6.4825  -12.3710   27.2012 C   0  0  0  0  0  0  0  0  0  0  0  0
    6.1017  -13.7042   27.1704 C   0  0  0  0  0  0  0  0  0  0  0  0
    6.4882  -14.4071   26.0468 C   0  0  0  0  0  0  0  0  0  0  0  0
    7.1984  -13.8299   25.0292 C   0  0  0  0  0  0  0  0  0  0  0  0
    9.1585  -16.9918   24.7537 C   0  0  0  0  0  0  0  0  0  0  0  0
    8.4420  -17.9483   25.2117 O   0  0  0  0  0  0  0  0  0  0  0  0
   10.1929  -16.5615   25.6352 N   0  0  0  0  0  0  0  0  0  0  0  0
   10.4627  -17.2641   26.8836 C   0  0  1  0  0  0  0  0  0  0  0  0
   11.5797  -18.2437   26.7973 C   0  0  0  0  0  0  0  0  0  0  0  0
   12.9431  -17.6149   26.6725 C   0  0  0  0  0  0  0  0  0  0  0  0
   13.7967  -18.5214   25.8745 C   0  0  0  0  0  0  0  0  0  0  0  0
   13.9032  -19.7560   26.0558 O   0  0  0  0  0  0  0  0  0  0  0  0
   10.6199  -16.3133   28.0196 C   0  0  0  0  0  0  0  0  0  0  0  0
   10.7147  -16.6657   29.3342 O   0  0  0  0  0  0  0  0  0  0  0  0
   14.5807  -18.0215   24.8043 O   0  0  0  0  0  0  0  0  0  0  0  0
   10.6720  -15.0911   27.7358 O   0  0  0  0  0  0  0  0  0  0  0  0
  2  1  1  6
  2  3  1  0
  3  4  1  0
  5  4  1  0
  5  9  1  0
  6  5  2  0
  7  2  1  0
  7  8  2  0
 10  7  1  0
 11 12  1  1
 11 10  1  0
 12 13  1  0
 13 14  2  0
 13 21  1  0
 14 15  1  0
 15 16  1  0
 16 17  2  0
 17 18  1  0
 19 18  2  0
 20 19  1  0
 21 20  2  0
 21 16  1  0
 22 11  1  0
 23 22  2  0
 24 22  1  0
 25 26  1  6
 25 24  1  0
 26 27  1  0
 28 27  1  0
 28 32  1  0
 29 28  2  0
 30 31  1  0
 30 25  1  0
 33 30  2  0
M  END
$$$$
