EWE.pdb
     RDKit          3D

 33 34  0  0  1  0  0  0  0  0999 V2000
    9.7680  -16.6222   18.0245 N   0  0  0  0  0  0  0  0  0  0  0  0
    9.1481  -17.3860   19.0835 C   0  0  1  0  0  0  0  0  0  0  0  0
    9.7011  -18.7638   19.1314 C   0  0  0  0  0  0  0  0  0  0  0  0
   10.0002  -19.2792   17.7450 C   0  0  0  0  0  0  0  0  0  0  0  0
   10.4635  -20.6901   17.7795 C   0  0  0  0  0  0  0  0  0  0  0  0
   11.6846  -20.9270   17.8008 O   0  0  0  0  0  0  0  0  0  0  0  0
    9.2704  -16.6349   20.3445 C   0  0  0  0  0  0  0  0  0  0  0  0
   10.3643  -16.0513   20.6637 O   0  0  0  0  0  0  0  0  0  0  0  0
    9.5206  -21.6999   17.7860 O   0  0  0  0  0  0  0  0  0  0  0  0
    8.2207  -16.4975   21.2898 N   0  0  0  0  0  0  0  0  0  0  0  0
    8.4219  -15.8777   22.6052 C   0  0  1  0  0  0  0  0  0  0  0  0
    7.0626  -15.3897   23.0123 C   0  0  0  0  0  0  0  0  0  0  0  0
    6.9399  -14.9552   24.4090 C   0  0  0  0  0  0  0  0  0  0  0  0
    6.5627  -15.7240   25.4908 C   0  0  0  0  0  0  0  0  0  0  0  0
    6.5326  -14.9224   26.5493 N   0  0  0  0  0  0  0  0  0  0  0  0
    6.8777  -13.6576   26.1874 C   0  0  0  0  0  0  0  0  0  0  0  0
    7.0010  -12.4963   26.9231 C   0  0  0  0  0  0  0  0  0  0  0  0
    7.3902  -11.3664   26.2854 C   0  0  0  0  0  0  0  0  0  0  0  0
    7.6736  -11.2969   24.9295 C   0  0  0  0  0  0  0  0  0  0  0  0
    7.5344  -12.4799   24.2317 C   0  0  0  0  0  0  0  0  0  0  0  0
    7.1445  -13.6452   24.8345 C   0  0  0  0  0  0  0  0  0  0  0  0
    9.1208  -16.7065   23.5694 C   0  0  0  0  0  0  0  0  0  0  0  0
    8.7243  -17.9111   23.7416 O   0  0  0  0  0  0  0  0  0  0  0  0
   10.2318  -16.3341   24.3812 N   0  0  0  0  0  0  0  0  0  0  0  0
   10.8696  -17.2931   25.2749 C   0  0  1  0  0  0  0  0  0  0  0  0
   12.2997  -17.5565   24.9586 C   0  0  0  0  0  0  0  0  0  0  0  0
   13.1795  -16.3349   25.0179 C   0  0  0  0  0  0  0  0  0  0  0  0
   14.2648  -16.5008   24.0271 C   0  0  0  0  0  0  0  0  0  0  0  0
   15.4225  -16.0372   24.1422 O   0  0  0  0  0  0  0  0  0  0  0  0
   10.6554  -16.9302   26.7039 C   0  0  0  0  0  0  0  0  0  0  0  0
   11.0819  -17.6608   27.7743 O   0  0  0  0  0  0  0  0  0  0  0  0
   14.0479  -17.2320   22.8320 O   0  0  0  0  0  0  0  0  0  0  0  0
   10.0347  -15.8629   26.9332 O   0  0  0  0  0  0  0  0  0  0  0  0
  2  1  1  6
  2  3  1  0
  3  4  1  0
  5  4  1  0
  5  9  1  0
  6  5  2  0
  7  2  1  0
  7  8  2  0
 10  7  1  0
 11 12  1  1
 11 10  1  0
 12 13  1  0
 13 14  2  0
 13 21  1  0
 14 15  1  0
 15 16  1  0
 16 17  2  0
 17 18  1  0
 19 18  2  0
 20 19  1  0
 21 20  2  0
 21 16  1  0
 22 11  1  0
 23 22  2  0
 24 22  1  0
 25 26  1  6
 25 24  1  0
 26 27  1  0
 28 27  1  0
 28 32  1  0
 29 28  2  0
 30 31  1  0
 30 25  1  0
 33 30  2  0
M  END
$$$$
