EWE.pdb
     RDKit          3D

 33 34  0  0  1  0  0  0  0  0999 V2000
   10.7542  -16.1379   18.4729 N   0  0  0  0  0  0  0  0  0  0  0  0
   10.1550  -16.9811   19.4823 C   0  0  1  0  0  0  0  0  0  0  0  0
   10.9220  -18.2439   19.6360 C   0  0  0  0  0  0  0  0  0  0  0  0
   10.7405  -19.1408   18.4360 C   0  0  0  0  0  0  0  0  0  0  0  0
    9.8878  -20.3133   18.7598 C   0  0  0  0  0  0  0  0  0  0  0  0
    9.2038  -20.8326   17.8596 O   0  0  0  0  0  0  0  0  0  0  0  0
   10.0059  -16.2025   20.7236 C   0  0  0  0  0  0  0  0  0  0  0  0
   10.9598  -15.4716   21.1648 O   0  0  0  0  0  0  0  0  0  0  0  0
    9.8799  -20.7925   20.0555 O   0  0  0  0  0  0  0  0  0  0  0  0
    8.8296  -16.1954   21.5178 N   0  0  0  0  0  0  0  0  0  0  0  0
    8.7904  -15.6055   22.8615 C   0  0  1  0  0  0  0  0  0  0  0  0
    7.3345  -15.3653   23.1337 C   0  0  0  0  0  0  0  0  0  0  0  0
    7.0005  -15.0165   24.5198 C   0  0  0  0  0  0  0  0  0  0  0  0
    6.5990  -15.8760   25.5217 C   0  0  0  0  0  0  0  0  0  0  0  0
    6.3501  -15.1359   26.5961 N   0  0  0  0  0  0  0  0  0  0  0  0
    6.5769  -13.8232   26.3217 C   0  0  0  0  0  0  0  0  0  0  0  0
    6.4720  -12.6925   27.1064 C   0  0  0  0  0  0  0  0  0  0  0  0
    6.7904  -11.4951   26.5590 C   0  0  0  0  0  0  0  0  0  0  0  0
    7.2164  -11.3270   25.2500 C   0  0  0  0  0  0  0  0  0  0  0  0
    7.3039  -12.4829   24.5002 C   0  0  0  0  0  0  0  0  0  0  0  0
    6.9932  -13.7138   25.0117 C   0  0  0  0  0  0  0  0  0  0  0  0
    9.5182  -16.3467   23.8743 C   0  0  0  0  0  0  0  0  0  0  0  0
    9.3765  -17.6178   23.9220 O   0  0  0  0  0  0  0  0  0  0  0  0
   10.4010  -15.8187   24.8612 N   0  0  0  0  0  0  0  0  0  0  0  0
   11.0804  -16.6908   25.8115 C   0  0  1  0  0  0  0  0  0  0  0  0
   12.5607  -16.7143   25.6597 C   0  0  0  0  0  0  0  0  0  0  0  0
   13.0330  -16.7829   24.2307 C   0  0  0  0  0  0  0  0  0  0  0  0
   14.5119  -16.7679   24.2336 C   0  0  0  0  0  0  0  0  0  0  0  0
   15.2298  -16.7219   25.2586 O   0  0  0  0  0  0  0  0  0  0  0  0
   10.6515  -16.4096   27.2102 C   0  0  0  0  0  0  0  0  0  0  0  0
   11.0420  -17.1154   28.3105 O   0  0  0  0  0  0  0  0  0  0  0  0
   15.2382  -16.8089   23.0168 O   0  0  0  0  0  0  0  0  0  0  0  0
    9.8704  -15.4415   27.3822 O   0  0  0  0  0  0  0  0  0  0  0  0
  2  1  1  6
  2  3  1  0
  3  4  1  0
  5  4  1  0
  5  9  1  0
  6  5  2  0
  7  2  1  0
  7  8  2  0
 10  7  1  0
 11 12  1  1
 11 10  1  0
 12 13  1  0
 13 14  2  0
 13 21  1  0
 14 15  1  0
 15 16  1  0
 16 17  2  0
 17 18  1  0
 19 18  2  0
 20 19  1  0
 21 20  2  0
 21 16  1  0
 22 11  1  0
 23 22  2  0
 24 22  1  0
 25 26  1  1
 25 24  1  0
 26 27  1  0
 28 27  1  0
 28 32  1  0
 29 28  2  0
 30 31  1  0
 30 25  1  0
 33 30  2  0
M  END
$$$$
