TKI.pdb
     RDKit          3D

 25 24  0  0  1  0  0  0  0  0999 V2000
   33.4517  -29.2055  -19.0707 C   0  0  0  0  0  0  0  0  0  0  0  0
   33.6264  -27.9537  -19.9003 C   0  0  1  0  0  0  0  0  0  0  0  0
   32.5312  -27.9566  -20.7995 O   0  0  0  0  0  0  0  0  0  0  0  0
   33.5213  -26.7444  -18.9913 C   0  0  2  0  0  0  0  0  0  0  0  0
   34.6065  -26.9346  -18.0039 N   0  0  0  0  0  0  0  0  0  0  0  0
   32.2659  -26.8036  -18.1978 C   0  0  0  0  0  0  0  0  0  0  0  0
   32.2096  -27.3868  -17.0559 O   0  0  0  0  0  0  0  0  0  0  0  0
   31.0353  -26.2345  -18.6130 N   0  0  0  0  0  0  0  0  0  0  0  0
   29.8595  -26.1637  -17.7528 C   0  0  1  0  0  0  0  0  0  0  0  0
   29.3686  -24.7463  -17.7029 C   0  0  0  0  0  0  0  0  0  0  0  0
   28.1887  -24.5536  -16.7923 C   0  0  0  0  0  0  0  0  0  0  0  0
   27.7586  -23.0903  -16.9389 C   0  0  0  0  0  0  0  0  0  0  0  0
   26.5854  -22.7861  -16.0303 C   0  0  0  0  0  0  0  0  0  0  0  0
   26.3013  -21.3694  -15.9721 N   0  0  0  0  0  0  0  0  0  0  0  0
   28.8713  -27.1113  -18.2890 C   0  0  0  0  0  0  0  0  0  0  0  0
   28.4031  -27.0285  -19.4599 O   0  0  0  0  0  0  0  0  0  0  0  0
   26.5423  -32.6767  -17.0567 C   0  0  0  0  0  0  0  0  0  0  0  0
   26.3434  -31.3231  -17.7446 C   0  0  0  0  0  0  0  0  0  0  0  0
   27.3447  -30.3542  -17.1856 C   0  0  2  0  0  0  0  0  0  0  0  0
   26.8842  -29.9845  -15.7805 C   0  0  0  0  0  0  0  0  0  0  0  0
   27.3385  -29.0914  -18.0153 C   0  0  2  0  0  0  0  0  0  0  0  0
   28.3558  -28.2152  -17.5180 N   0  0  0  0  0  0  0  0  0  0  0  0
   25.9776  -28.5124  -17.9299 C   0  0  0  0  0  0  0  0  0  0  0  0
   25.6315  -27.4659  -17.1175 O   0  0  0  0  0  0  0  0  0  0  0  0
   25.0908  -29.0279  -18.6592 O   0  0  0  0  0  0  0  0  0  0  0  0
  2  4  1  0
  2  1  1  1
  3  2  1  0
  4  5  1  1
  6  4  1  0
  7  6  2  0
  8  6  1  0
  9  8  1  0
  9 10  1  6
 10 11  1  0
 11 12  1  0
 12 13  1  0
 13 14  1  0
 15 16  2  0
 15  9  1  0
 18 17  1  0
 19 21  1  0
 19 18  1  0
 19 20  1  1
 21 22  1  1
 22 15  1  0
 23 24  1  0
 23 21  1  0
 25 23  2  0
M  END
$$$$
