TKI.pdb
     RDKit          3D

 25 24  0  0  1  0  0  0  0  0999 V2000
   26.7310  -13.9102  -15.5135 C   0  0  0  0  0  0  0  0  0  0  0  0
   26.0416  -15.2347  -15.2761 C   0  0  1  0  0  0  0  0  0  0  0  0
   24.9979  -15.2792  -16.2337 O   0  0  0  0  0  0  0  0  0  0  0  0
   27.0234  -16.3558  -15.5571 C   0  0  2  0  0  0  0  0  0  0  0  0
   27.2574  -16.2788  -17.0159 N   0  0  0  0  0  0  0  0  0  0  0  0
   26.3741  -17.6754  -15.3418 C   0  0  0  0  0  0  0  0  0  0  0  0
   25.7545  -18.2904  -16.2826 O   0  0  0  0  0  0  0  0  0  0  0  0
   26.3757  -18.3701  -14.1056 N   0  0  0  0  0  0  0  0  0  0  0  0
   25.6343  -19.6067  -13.8854 C   0  0  1  0  0  0  0  0  0  0  0  0
   26.1711  -20.2935  -12.6637 C   0  0  0  0  0  0  0  0  0  0  0  0
   25.4145  -21.5390  -12.2966 C   0  0  0  0  0  0  0  0  0  0  0  0
   25.4512  -22.4508  -13.5275 C   0  0  0  0  0  0  0  0  0  0  0  0
   24.6585  -23.7170  -13.2766 C   0  0  0  0  0  0  0  0  0  0  0  0
   24.6050  -24.5612  -14.4495 N   0  0  0  0  0  0  0  0  0  0  0  0
   24.2120  -19.2482  -13.7833 C   0  0  0  0  0  0  0  0  0  0  0  0
   23.7332  -18.6028  -12.8079 O   0  0  0  0  0  0  0  0  0  0  0  0
   21.2210  -17.8253  -18.0564 C   0  0  0  0  0  0  0  0  0  0  0  0
   21.8412  -17.9793  -16.6647 C   0  0  0  0  0  0  0  0  0  0  0  0
   21.2309  -19.1806  -16.0028 C   0  0  2  0  0  0  0  0  0  0  0  0
   19.7479  -18.8881  -15.8078 C   0  0  0  0  0  0  0  0  0  0  0  0
   21.8439  -19.3650  -14.6340 C   0  0  2  0  0  0  0  0  0  0  0  0
   23.2463  -19.6062  -14.7923 N   0  0  0  0  0  0  0  0  0  0  0  0
   21.1305  -20.4846  -13.9768 C   0  0  0  0  0  0  0  0  0  0  0  0
   20.1805  -20.3313  -13.0027 O   0  0  0  0  0  0  0  0  0  0  0  0
   21.4285  -21.6492  -14.3497 O   0  0  0  0  0  0  0  0  0  0  0  0
  2  4  1  0
  2  1  1  6
  3  2  1  0
  4  5  1  6
  6  4  1  0
  7  6  2  0
  8  6  1  0
  9  8  1  0
  9 10  1  1
 10 11  1  0
 11 12  1  0
 12 13  1  0
 13 14  1  0
 15 16  2  0
 15  9  1  0
 18 17  1  0
 19 21  1  0
 19 18  1  0
 19 20  1  1
 21 22  1  6
 22 15  1  0
 23 24  1  0
 23 21  1  0
 25 23  2  0
M  END
$$$$
