TKI.pdb
     RDKit          3D

 25 24  0  0  1  0  0  0  0  0999 V2000
   16.7240  -27.6778   -3.7667 C   0  0  0  0  0  0  0  0  0  0  0  0
   16.3115  -26.5231   -2.8824 C   0  0  1  0  0  0  0  0  0  0  0  0
   17.4631  -26.2237   -2.1127 O   0  0  0  0  0  0  0  0  0  0  0  0
   15.9738  -25.3315   -3.7574 C   0  0  2  0  0  0  0  0  0  0  0  0
   17.2505  -24.9957   -4.4253 N   0  0  0  0  0  0  0  0  0  0  0  0
   15.6578  -24.1474   -2.9163 C   0  0  0  0  0  0  0  0  0  0  0  0
   16.4141  -23.1109   -2.8890 O   0  0  0  0  0  0  0  0  0  0  0  0
   14.5161  -24.0472   -2.0813 N   0  0  0  0  0  0  0  0  0  0  0  0
   14.1619  -22.8311   -1.3581 C   0  0  1  0  0  0  0  0  0  0  0  0
   12.6857  -22.5927   -1.4856 C   0  0  0  0  0  0  0  0  0  0  0  0
   12.2261  -21.3213   -0.8295 C   0  0  0  0  0  0  0  0  0  0  0  0
   10.7081  -21.2526   -1.0259 C   0  0  0  0  0  0  0  0  0  0  0  0
   10.1422  -20.0074   -0.3749 C   0  0  0  0  0  0  0  0  0  0  0  0
    8.6987  -19.9670   -0.4516 N   0  0  0  0  0  0  0  0  0  0  0  0
   14.6134  -23.0043    0.0304 C   0  0  0  0  0  0  0  0  0  0  0  0
   14.7296  -24.1362    0.5802 O   0  0  0  0  0  0  0  0  0  0  0  0
   18.1208  -22.3318    4.0526 C   0  0  0  0  0  0  0  0  0  0  0  0
   16.9822  -21.3143    3.9356 C   0  0  0  0  0  0  0  0  0  0  0  0
   16.5862  -21.2083    2.4913 C   0  0  2  0  0  0  0  0  0  0  0  0
   16.1970  -19.7578    2.2318 C   0  0  0  0  0  0  0  0  0  0  0  0
   15.3638  -22.0608    2.2422 C   0  0  2  0  0  0  0  0  0  0  0  0
   14.9610  -21.8915    0.8787 N   0  0  0  0  0  0  0  0  0  0  0  0
   14.3263  -21.6411    3.2128 C   0  0  0  0  0  0  0  0  0  0  0  0
   14.2697  -22.0611    4.5149 O   0  0  0  0  0  0  0  0  0  0  0  0
   13.4446  -20.8446    2.7978 O   0  0  0  0  0  0  0  0  0  0  0  0
  2  4  1  0
  2  1  1  6
  3  2  1  0
  4  5  1  6
  6  4  1  0
  7  6  2  0
  8  6  1  0
  9  8  1  0
  9 10  1  1
 10 11  1  0
 11 12  1  0
 12 13  1  0
 13 14  1  0
 15 16  2  0
 15  9  1  0
 18 17  1  0
 19 21  1  0
 19 18  1  0
 19 20  1  1
 21 22  1  6
 22 15  1  0
 23 24  1  0
 23 21  1  0
 25 23  2  0
M  END
$$$$
