TKI.pdb
     RDKit          3D

 25 24  0  0  1  0  0  0  0  0999 V2000
   22.0703  -13.7652  -19.6806 C   0  0  0  0  0  0  0  0  0  0  0  0
   21.4253  -12.4263  -19.4031 C   0  0  1  0  0  0  0  0  0  0  0  0
   20.0317  -12.6821  -19.4213 O   0  0  0  0  0  0  0  0  0  0  0  0
   21.8291  -11.9656  -18.0159 C   0  0  2  0  0  0  0  0  0  0  0  0
   21.2444  -12.9790  -17.1103 N   0  0  0  0  0  0  0  0  0  0  0  0
   21.1348  -10.6973  -17.6716 C   0  0  0  0  0  0  0  0  0  0  0  0
   21.4808   -9.5719  -18.1823 O   0  0  0  0  0  0  0  0  0  0  0  0
   20.0464  -10.6068  -16.7671 N   0  0  0  0  0  0  0  0  0  0  0  0
   19.3180   -9.3679  -16.5180 C   0  0  1  0  0  0  0  0  0  0  0  0
   17.9712   -9.6941  -15.9418 C   0  0  0  0  0  0  0  0  0  0  0  0
   17.1411   -8.4792  -15.6362 C   0  0  0  0  0  0  0  0  0  0  0  0
   15.7996   -8.9904  -15.1007 C   0  0  0  0  0  0  0  0  0  0  0  0
   14.8283   -7.8431  -14.9139 C   0  0  0  0  0  0  0  0  0  0  0  0
   13.4978   -8.3097  -14.5924 N   0  0  0  0  0  0  0  0  0  0  0  0
   20.1538   -8.5429  -15.6333 C   0  0  0  0  0  0  0  0  0  0  0  0
   20.7891   -9.0160  -14.6485 O   0  0  0  0  0  0  0  0  0  0  0  0
   24.7487   -5.1661  -16.0214 C   0  0  0  0  0  0  0  0  0  0  0  0
   23.4295   -5.1998  -15.2444 C   0  0  0  0  0  0  0  0  0  0  0  0
   22.5081   -6.1774  -15.9145 C   0  0  2  0  0  0  0  0  0  0  0  0
   22.0831   -5.5642  -17.2435 C   0  0  0  0  0  0  0  0  0  0  0  0
   21.2648   -6.3525  -15.0739 C   0  0  2  0  0  0  0  0  0  0  0  0
   20.3158   -7.1225  -15.8198 N   0  0  0  0  0  0  0  0  0  0  0  0
   20.7723   -4.9996  -14.7251 C   0  0  0  0  0  0  0  0  0  0  0  0
   19.6624   -4.4149  -15.2737 O   0  0  0  0  0  0  0  0  0  0  0  0
   21.4290   -4.3569  -13.8649 O   0  0  0  0  0  0  0  0  0  0  0  0
  2  4  1  0
  2  1  1  1
  3  2  1  0
  4  5  1  1
  6  4  1  0
  7  6  2  0
  8  6  1  0
  9  8  1  0
  9 10  1  1
 10 11  1  0
 11 12  1  0
 12 13  1  0
 13 14  1  0
 15 16  2  0
 15  9  1  0
 18 17  1  0
 19 21  1  0
 19 18  1  0
 19 20  1  6
 21 22  1  6
 22 15  1  0
 23 24  1  0
 23 21  1  0
 25 23  2  0
M  END
$$$$
