TKI.pdb
     RDKit          3D

 25 24  0  0  1  0  0  0  0  0999 V2000
   23.4857  -11.5270  -14.4601 C   0  0  0  0  0  0  0  0  0  0  0  0
   23.6776  -11.8341  -15.9279 C   0  0  1  0  0  0  0  0  0  0  0  0
   24.5901  -12.9179  -15.9573 O   0  0  0  0  0  0  0  0  0  0  0  0
   22.3522  -12.2830  -16.5123 C   0  0  2  0  0  0  0  0  0  0  0  0
   22.6371  -12.4857  -17.9498 N   0  0  0  0  0  0  0  0  0  0  0  0
   21.3670  -11.1709  -16.4696 C   0  0  0  0  0  0  0  0  0  0  0  0
   21.4961  -10.1193  -17.1940 O   0  0  0  0  0  0  0  0  0  0  0  0
   20.2135  -11.1617  -15.6448 N   0  0  0  0  0  0  0  0  0  0  0  0
   19.2292  -10.0856  -15.6632 C   0  0  1  0  0  0  0  0  0  0  0  0
   17.8901  -10.6342  -15.2654 C   0  0  0  0  0  0  0  0  0  0  0  0
   17.2011  -11.3883  -16.3677 C   0  0  0  0  0  0  0  0  0  0  0  0
   16.5121  -12.5889  -15.7108 C   0  0  0  0  0  0  0  0  0  0  0  0
   15.8289  -13.4481  -16.7546 C   0  0  0  0  0  0  0  0  0  0  0  0
   15.3062  -14.6716  -16.1882 N   0  0  0  0  0  0  0  0  0  0  0  0
   19.7234   -9.0294  -14.7676 C   0  0  0  0  0  0  0  0  0  0  0  0
   20.1889   -9.2652  -13.6166 O   0  0  0  0  0  0  0  0  0  0  0  0
   23.0557   -4.1366  -14.7960 C   0  0  0  0  0  0  0  0  0  0  0  0
   21.8146   -4.7474  -14.1390 C   0  0  0  0  0  0  0  0  0  0  0  0
   21.3999   -5.9515  -14.9341 C   0  0  2  0  0  0  0  0  0  0  0  0
   20.9420   -5.4578  -16.3013 C   0  0  0  0  0  0  0  0  0  0  0  0
   20.2154   -6.6104  -14.2662 C   0  0  2  0  0  0  0  0  0  0  0  0
   19.7160   -7.6347  -15.1329 N   0  0  0  0  0  0  0  0  0  0  0  0
   19.2205   -5.5499  -13.9833 C   0  0  0  0  0  0  0  0  0  0  0  0
   19.2852   -4.6925  -12.9177 O   0  0  0  0  0  0  0  0  0  0  0  0
   18.2567   -5.4423  -14.7855 O   0  0  0  0  0  0  0  0  0  0  0  0
  2  4  1  0
  2  1  1  1
  3  2  1  0
  4  5  1  6
  6  4  1  0
  7  6  2  0
  8  6  1  0
  9  8  1  0
  9 10  1  1
 10 11  1  0
 11 12  1  0
 12 13  1  0
 13 14  1  0
 15 16  2  0
 15  9  1  0
 18 17  1  0
 19 21  1  0
 19 18  1  0
 19 20  1  6
 21 22  1  6
 22 15  1  0
 23 24  1  0
 23 21  1  0
 25 23  2  0
M  END
$$$$
