TKI.pdb
     RDKit          3D

 25 24  0  0  1  0  0  0  0  0999 V2000
   12.3385  -13.9790  -11.9412 C   0  0  0  0  0  0  0  0  0  0  0  0
   13.4648  -13.1034  -11.4407 C   0  0  1  0  0  0  0  0  0  0  0  0
   14.6063  -13.5279  -12.1653 O   0  0  0  0  0  0  0  0  0  0  0  0
   13.1586  -11.6608  -11.7944 C   0  0  2  0  0  0  0  0  0  0  0  0
   13.1995  -11.6310  -13.2730 N   0  0  0  0  0  0  0  0  0  0  0  0
   14.2723  -10.7766  -11.3619 C   0  0  0  0  0  0  0  0  0  0  0  0
   14.5543  -10.5939  -10.1231 O   0  0  0  0  0  0  0  0  0  0  0  0
   15.1146  -10.0649  -12.2533 N   0  0  0  0  0  0  0  0  0  0  0  0
   16.1874   -9.1845  -11.8045 C   0  0  1  0  0  0  0  0  0  0  0  0
   17.1175   -8.9149  -12.9511 C   0  0  0  0  0  0  0  0  0  0  0  0
   18.5433   -8.7009  -12.5273 C   0  0  0  0  0  0  0  0  0  0  0  0
   19.3545   -8.4972  -13.8111 C   0  0  0  0  0  0  0  0  0  0  0  0
   20.7781   -8.0963  -13.4840 C   0  0  0  0  0  0  0  0  0  0  0  0
   21.5661   -7.8824  -14.6776 N   0  0  0  0  0  0  0  0  0  0  0  0
   15.5563   -7.9733  -11.2600 C   0  0  0  0  0  0  0  0  0  0  0  0
   14.6885   -7.3060  -11.8916 O   0  0  0  0  0  0  0  0  0  0  0  0
   12.3362   -6.9561   -7.5482 C   0  0  0  0  0  0  0  0  0  0  0  0
   13.2283   -6.7906   -8.7819 C   0  0  0  0  0  0  0  0  0  0  0  0
   14.5681   -6.2818   -8.3347 C   0  0  2  0  0  0  0  0  0  0  0  0
   14.3545   -4.8897   -7.7522 C   0  0  0  0  0  0  0  0  0  0  0  0
   15.4771   -6.1408   -9.5335 C   0  0  2  0  0  0  0  0  0  0  0  0
   15.8786   -7.4484   -9.9564 N   0  0  0  0  0  0  0  0  0  0  0  0
   16.6155   -5.2843   -9.1273 C   0  0  0  0  0  0  0  0  0  0  0  0
   16.6426   -3.9213   -9.2550 O   0  0  0  0  0  0  0  0  0  0  0  0
   17.6180   -5.8632   -8.6333 O   0  0  0  0  0  0  0  0  0  0  0  0
  2  4  1  0
  2  1  1  6
  3  2  1  0
  4  5  1  6
  6  4  1  0
  7  6  2  0
  8  6  1  0
  9  8  1  0
  9 10  1  6
 10 11  1  0
 11 12  1  0
 12 13  1  0
 13 14  1  0
 15 16  2  0
 15  9  1  0
 18 17  1  0
 19 21  1  0
 19 18  1  0
 19 20  1  6
 21 22  1  1
 22 15  1  0
 23 24  1  0
 23 21  1  0
 25 23  2  0
M  END
$$$$
