TKI.pdb
     RDKit          3D

 25 24  0  0  1  0  0  0  0  0999 V2000
   28.7884  -21.9673  -14.6544 C   0  0  0  0  0  0  0  0  0  0  0  0
   28.4963  -20.9997  -15.7788 C   0  0  1  0  0  0  0  0  0  0  0  0
   29.2563  -21.4757  -16.8760 O   0  0  0  0  0  0  0  0  0  0  0  0
   27.0215  -21.0786  -16.1228 C   0  0  2  0  0  0  0  0  0  0  0  0
   26.8534  -20.1137  -17.2316 N   0  0  0  0  0  0  0  0  0  0  0  0
   26.2026  -20.5307  -15.0100 C   0  0  0  0  0  0  0  0  0  0  0  0
   26.2097  -19.2827  -14.7105 O   0  0  0  0  0  0  0  0  0  0  0  0
   25.3517  -21.3133  -14.1889 N   0  0  0  0  0  0  0  0  0  0  0  0
   24.5374  -20.7489  -13.1185 C   0  0  1  0  0  0  0  0  0  0  0  0
   23.0968  -21.0942  -13.3593 C   0  0  0  0  0  0  0  0  0  0  0  0
   22.4708  -20.3052  -14.4745 C   0  0  0  0  0  0  0  0  0  0  0  0
   21.0054  -20.7460  -14.5521 C   0  0  0  0  0  0  0  0  0  0  0  0
   20.2704  -19.9665  -15.6230 C   0  0  0  0  0  0  0  0  0  0  0  0
   18.8949  -20.3936  -15.7528 N   0  0  0  0  0  0  0  0  0  0  0  0
   25.0649  -21.2718  -11.8495 C   0  0  0  0  0  0  0  0  0  0  0  0
   25.3172  -22.4957  -11.6612 O   0  0  0  0  0  0  0  0  0  0  0  0
   28.0731  -19.4094   -6.8410 C   0  0  0  0  0  0  0  0  0  0  0  0
   27.1714  -20.4640   -7.4889 C   0  0  0  0  0  0  0  0  0  0  0  0
   26.6969  -19.9357   -8.8116 C   0  0  2  0  0  0  0  0  0  0  0  0
   25.8785  -18.6806   -8.5328 C   0  0  0  0  0  0  0  0  0  0  0  0
   25.7771  -20.9471   -9.4553 C   0  0  2  0  0  0  0  0  0  0  0  0
   25.3374  -20.4259  -10.7143 N   0  0  0  0  0  0  0  0  0  0  0  0
   24.6657  -21.1997   -8.5089 C   0  0  0  0  0  0  0  0  0  0  0  0
   24.7559  -22.0085   -7.4076 O   0  0  0  0  0  0  0  0  0  0  0  0
   23.5714  -20.6253   -8.7465 O   0  0  0  0  0  0  0  0  0  0  0  0
  2  4  1  0
  2  1  1  1
  3  2  1  0
  4  5  1  6
  6  4  1  0
  7  6  2  0
  8  6  1  0
  9  8  1  0
  9 10  1  6
 10 11  1  0
 11 12  1  0
 12 13  1  0
 13 14  1  0
 15 16  2  0
 15  9  1  0
 18 17  1  0
 19 21  1  0
 19 18  1  0
 19 20  1  1
 21 22  1  6
 22 15  1  0
 23 24  1  0
 23 21  1  0
 25 23  2  0
M  END
$$$$
