TKI.pdb
     RDKit          3D

 25 24  0  0  1  0  0  0  0  0999 V2000
   18.9387  -16.5935  -15.0562 C   0  0  0  0  0  0  0  0  0  0  0  0
   19.9791  -17.5689  -14.5544 C   0  0  1  0  0  0  0  0  0  0  0  0
   19.6789  -17.7477  -13.1811 O   0  0  0  0  0  0  0  0  0  0  0  0
   19.8028  -18.8896  -15.2787 C   0  0  2  0  0  0  0  0  0  0  0  0
   18.6098  -19.4955  -14.6476 N   0  0  0  0  0  0  0  0  0  0  0  0
   20.9212  -19.8114  -14.9490 C   0  0  0  0  0  0  0  0  0  0  0  0
   20.8948  -20.5703  -13.9142 O   0  0  0  0  0  0  0  0  0  0  0  0
   22.0996  -19.9420  -15.7267 N   0  0  0  0  0  0  0  0  0  0  0  0
   23.1881  -20.8482  -15.3784 C   0  0  1  0  0  0  0  0  0  0  0  0
   23.9402  -21.2184  -16.6233 C   0  0  0  0  0  0  0  0  0  0  0  0
   25.1280  -22.1017  -16.3643 C   0  0  0  0  0  0  0  0  0  0  0  0
   24.5795  -23.5132  -16.1304 C   0  0  0  0  0  0  0  0  0  0  0  0
   25.7116  -24.4944  -15.9061 C   0  0  0  0  0  0  0  0  0  0  0  0
   25.2333  -25.8551  -15.8013 N   0  0  0  0  0  0  0  0  0  0  0  0
   24.0146  -20.1674  -14.3708 C   0  0  0  0  0  0  0  0  0  0  0  0
   24.2582  -18.9278  -14.4038 O   0  0  0  0  0  0  0  0  0  0  0  0
   25.9219  -20.3610   -8.6220 C   0  0  0  0  0  0  0  0  0  0  0  0
   26.2810  -19.9890  -10.0634 C   0  0  0  0  0  0  0  0  0  0  0  0
   25.3333  -20.6976  -10.9873 C   0  0  2  0  0  0  0  0  0  0  0  0
   25.6473  -22.1868  -10.9059 C   0  0  0  0  0  0  0  0  0  0  0  0
   25.5914  -20.2534  -12.4083 C   0  0  2  0  0  0  0  0  0  0  0  0
   24.6153  -20.8631  -13.2600 N   0  0  0  0  0  0  0  0  0  0  0  0
   26.9815  -20.6376  -12.7465 C   0  0  0  0  0  0  0  0  0  0  0  0
   27.3180  -21.5883  -13.6727 O   0  0  0  0  0  0  0  0  0  0  0  0
   27.9044  -20.0412  -12.1326 O   0  0  0  0  0  0  0  0  0  0  0  0
  2  4  1  0
  2  1  1  6
  3  2  1  0
  4  5  1  1
  6  4  1  0
  7  6  2  0
  8  6  1  0
  9  8  1  0
  9 10  1  6
 10 11  1  0
 11 12  1  0
 12 13  1  0
 13 14  1  0
 15 16  2  0
 15  9  1  0
 18 17  1  0
 19 21  1  0
 19 18  1  0
 19 20  1  6
 21 22  1  6
 22 15  1  0
 23 24  1  0
 23 21  1  0
 25 23  2  0
M  END
$$$$
