TKI.pdb
     RDKit          3D

 25 24  0  0  1  0  0  0  0  0999 V2000
   30.7986  -17.6756  -17.7040 C   0  0  0  0  0  0  0  0  0  0  0  0
   30.7338  -16.2705  -18.2580 C   0  0  1  0  0  0  0  0  0  0  0  0
   31.5081  -16.3101  -19.4442 O   0  0  0  0  0  0  0  0  0  0  0  0
   29.2948  -15.9493  -18.6131 C   0  0  2  0  0  0  0  0  0  0  0  0
   29.0419  -16.7243  -19.8477 N   0  0  0  0  0  0  0  0  0  0  0  0
   29.1702  -14.5256  -19.0215 C   0  0  0  0  0  0  0  0  0  0  0  0
   29.5282  -14.1176  -20.1845 O   0  0  0  0  0  0  0  0  0  0  0  0
   28.6547  -13.5013  -18.1874 N   0  0  0  0  0  0  0  0  0  0  0  0
   28.4992  -12.1190  -18.6260 C   0  0  1  0  0  0  0  0  0  0  0  0
   27.0754  -11.6922  -18.4188 C   0  0  0  0  0  0  0  0  0  0  0  0
   26.1739  -12.0367  -19.5707 C   0  0  0  0  0  0  0  0  0  0  0  0
   24.7993  -11.4453  -19.2413 C   0  0  0  0  0  0  0  0  0  0  0  0
   23.8492  -11.6234  -20.4075 C   0  0  0  0  0  0  0  0  0  0  0  0
   22.5665  -11.0039  -20.1578 N   0  0  0  0  0  0  0  0  0  0  0  0
   29.4719  -11.3126  -17.8740 C   0  0  0  0  0  0  0  0  0  0  0  0
   29.5818  -11.3633  -16.6161 O   0  0  0  0  0  0  0  0  0  0  0  0
   34.6624   -9.5509  -16.9111 C   0  0  0  0  0  0  0  0  0  0  0  0
   33.5965   -8.7535  -17.6681 C   0  0  0  0  0  0  0  0  0  0  0  0
   32.6671   -9.7218  -18.3407 C   0  0  2  0  0  0  0  0  0  0  0  0
   32.6117   -9.3479  -19.8172 C   0  0  0  0  0  0  0  0  0  0  0  0
   31.2755   -9.5569  -17.7754 C   0  0  2  0  0  0  0  0  0  0  0  0
   30.3816  -10.3958  -18.5150 N   0  0  0  0  0  0  0  0  0  0  0  0
   30.9305   -8.1188  -17.8611 C   0  0  0  0  0  0  0  0  0  0  0  0
   30.0487   -7.5871  -18.7637 O   0  0  0  0  0  0  0  0  0  0  0  0
   31.4941   -7.3464  -17.0426 O   0  0  0  0  0  0  0  0  0  0  0  0
  2  4  1  0
  2  1  1  6
  3  2  1  0
  4  5  1  6
  6  4  1  0
  7  6  2  0
  8  6  1  0
  9  8  1  0
  9 10  1  1
 10 11  1  0
 11 12  1  0
 12 13  1  0
 13 14  1  0
 15 16  2  0
 15  9  1  0
 18 17  1  0
 19 21  1  0
 19 18  1  0
 19 20  1  6
 21 22  1  6
 22 15  1  0
 23 24  1  0
 23 21  1  0
 25 23  2  0
M  END
$$$$
