TKI.pdb
     RDKit          3D

 25 24  0  0  1  0  0  0  0  0999 V2000
   23.9369  -12.6351  -14.7754 C   0  0  0  0  0  0  0  0  0  0  0  0
   23.0630  -11.4265  -15.0228 C   0  0  1  0  0  0  0  0  0  0  0  0
   23.9647  -10.3894  -15.3688 O   0  0  0  0  0  0  0  0  0  0  0  0
   22.1549  -11.7113  -16.2034 C   0  0  2  0  0  0  0  0  0  0  0  0
   23.0740  -11.7909  -17.3599 N   0  0  0  0  0  0  0  0  0  0  0  0
   21.2883  -10.5364  -16.4822 C   0  0  0  0  0  0  0  0  0  0  0  0
   21.6580   -9.5887  -17.2649 O   0  0  0  0  0  0  0  0  0  0  0  0
   19.9974  -10.3506  -15.9256 N   0  0  0  0  0  0  0  0  0  0  0  0
   19.1855   -9.1646  -16.1741 C   0  0  1  0  0  0  0  0  0  0  0  0
   17.7337   -9.5265  -16.0572 C   0  0  0  0  0  0  0  0  0  0  0  0
   16.8093   -8.3537  -16.2260 C   0  0  0  0  0  0  0  0  0  0  0  0
   15.3829   -8.9050  -16.1308 C   0  0  0  0  0  0  0  0  0  0  0  0
   14.3705   -7.7817  -16.2200 C   0  0  0  0  0  0  0  0  0  0  0  0
   13.0150   -8.2645  -16.0757 N   0  0  0  0  0  0  0  0  0  0  0  0
   19.6155   -8.1353  -15.2162 C   0  0  0  0  0  0  0  0  0  0  0  0
   19.8609   -8.3847  -14.0018 O   0  0  0  0  0  0  0  0  0  0  0  0
   22.1503   -4.6932  -12.5602 C   0  0  0  0  0  0  0  0  0  0  0  0
   21.9070   -4.1686  -13.9781 C   0  0  0  0  0  0  0  0  0  0  0  0
   21.5717   -5.3329  -14.8646 C   0  0  2  0  0  0  0  0  0  0  0  0
   21.6928   -4.8557  -16.3070 C   0  0  0  0  0  0  0  0  0  0  0  0
   20.1343   -5.7394  -14.6371 C   0  0  2  0  0  0  0  0  0  0  0  0
   19.7922   -6.7536  -15.5880 N   0  0  0  0  0  0  0  0  0  0  0  0
   19.3042   -4.5188  -14.7625 C   0  0  0  0  0  0  0  0  0  0  0  0
   19.1328   -3.5939  -13.7675 O   0  0  0  0  0  0  0  0  0  0  0  0
   18.7237   -4.3336  -15.8639 O   0  0  0  0  0  0  0  0  0  0  0  0
  2  4  1  0
  2  1  1  6
  3  2  1  0
  4  5  1  6
  6  4  1  0
  7  6  2  0
  8  6  1  0
  9  8  1  0
  9 10  1  1
 10 11  1  0
 11 12  1  0
 12 13  1  0
 13 14  1  0
 15 16  2  0
 15  9  1  0
 18 17  1  0
 19 21  1  0
 19 18  1  0
 19 20  1  6
 21 22  1  6
 22 15  1  0
 23 24  1  0
 23 21  1  0
 25 23  2  0
M  END
$$$$
