GIK.pdb
     RDKit          3D

 22 21  0  0  1  0  0  0  0  0999 V2000
   30.7118  -21.9281  -11.7216 N   0  0  0  0  0  0  0  0  0  0  0  0
   30.3426  -20.8229  -10.8743 C   0  0  0  0  0  0  0  0  0  0  0  0
   29.0622  -21.1386  -10.1942 C   0  0  0  0  0  0  0  0  0  0  0  0
   28.3685  -22.1347  -10.5812 O   0  0  0  0  0  0  0  0  0  0  0  0
   26.6162  -20.9653   -4.9757 C   0  0  0  0  0  0  0  0  0  0  0  0
   26.1384  -20.2361   -6.2516 C   0  0  0  0  0  0  0  0  0  0  0  0
   27.3033  -19.9435   -7.1280 C   0  0  2  0  0  0  0  0  0  0  0  0
   27.4312  -18.4366   -7.2695 C   0  0  0  0  0  0  0  0  0  0  0  0
   27.2934  -20.6220   -8.4789 C   0  0  2  0  0  0  0  0  0  0  0  0
   28.6057  -20.3490   -9.1258 N   0  0  0  0  0  0  0  0  0  0  0  0
   26.2280  -20.1325   -9.3819 C   0  0  0  0  0  0  0  0  0  0  0  0
   26.2382  -18.9434   -9.8391 O   0  0  0  0  0  0  0  0  0  0  0  0
   25.1727  -20.9760   -9.7668 N   0  0  0  0  0  0  0  0  0  0  0  0
   24.1186  -20.4528  -10.7426 C   0  0  1  0  0  0  0  0  0  0  0  0
   24.3931  -21.2488  -11.9427 C   0  0  0  0  0  0  0  0  0  0  0  0
   23.6848  -21.3365  -13.1809 C   0  0  0  0  0  0  0  0  0  0  0  0
   23.1818  -22.4899  -13.8942 C   0  0  0  0  0  0  0  0  0  0  0  0
   22.4897  -22.3369  -15.1841 C   0  0  0  0  0  0  0  0  0  0  0  0
   22.0166  -23.5821  -15.7459 N   0  0  0  0  0  0  0  0  0  0  0  0
   22.8970  -20.5741   -9.9940 C   0  0  0  0  0  0  0  0  0  0  0  0
   21.7129  -20.0162  -10.4367 O   0  0  0  0  0  0  0  0  0  0  0  0
   22.8425  -21.1853   -8.9087 O   0  0  0  0  0  0  0  0  0  0  0  0
  2  3  1  0
  2  1  1  0
  3 10  1  0
  4  3  2  0
  6  5  1  0
  7  9  1  0
  7  6  1  0
  7  8  1  6
  9 11  1  0
  9 10  1  6
 11 13  1  0
 11 12  2  0
 13 14  1  0
 14 20  1  0
 14 15  1  6
 16 15  1  0
 17 18  1  0
 17 16  1  0
 19 18  1  0
 20 21  1  0
 22 20  2  0
M  END
$$$$
