GIK.pdb
     RDKit          3D

 22 21  0  0  1  0  0  0  0  0999 V2000
   17.7656  -11.1279  -18.1496 N   0  0  0  0  0  0  0  0  0  0  0  0
   18.8813  -10.2354  -18.3346 C   0  0  0  0  0  0  0  0  0  0  0  0
   19.1599   -9.5343  -17.0570 C   0  0  0  0  0  0  0  0  0  0  0  0
   18.2512   -9.4538  -16.1677 O   0  0  0  0  0  0  0  0  0  0  0  0
   23.3620  -10.4387  -14.0540 C   0  0  0  0  0  0  0  0  0  0  0  0
   21.9707  -10.0673  -14.6148 C   0  0  0  0  0  0  0  0  0  0  0  0
   21.9412   -8.6233  -14.9675 C   0  0  2  0  0  0  0  0  0  0  0  0
   22.2847   -7.8186  -13.7260 C   0  0  0  0  0  0  0  0  0  0  0  0
   20.6614   -8.1304  -15.6035 C   0  0  2  0  0  0  0  0  0  0  0  0
   20.4180   -8.9572  -16.8170 N   0  0  0  0  0  0  0  0  0  0  0  0
   20.7132   -6.7113  -16.0202 C   0  0  0  0  0  0  0  0  0  0  0  0
   21.5170   -6.3128  -16.9247 O   0  0  0  0  0  0  0  0  0  0  0  0
   19.8652   -5.7604  -15.4287 N   0  0  0  0  0  0  0  0  0  0  0  0
   19.9282   -4.3084  -15.9028 C   0  0  1  0  0  0  0  0  0  0  0  0
   18.5103   -3.9879  -16.0918 C   0  0  0  0  0  0  0  0  0  0  0  0
   17.6272   -4.2860  -17.1751 C   0  0  0  0  0  0  0  0  0  0  0  0
   16.2221   -3.9896  -17.3488 C   0  0  0  0  0  0  0  0  0  0  0  0
   15.4580   -4.5791  -18.4600 C   0  0  0  0  0  0  0  0  0  0  0  0
   16.0871   -5.7375  -19.0535 N   0  0  0  0  0  0  0  0  0  0  0  0
   20.7393   -3.6756  -14.8981 C   0  0  0  0  0  0  0  0  0  0  0  0
   21.4276   -2.5041  -15.1492 O   0  0  0  0  0  0  0  0  0  0  0  0
   20.8653   -4.1502  -13.7522 O   0  0  0  0  0  0  0  0  0  0  0  0
  2  3  1  0
  2  1  1  0
  3 10  1  0
  4  3  2  0
  6  5  1  0
  7  9  1  0
  7  6  1  0
  7  8  1  1
  9 11  1  0
  9 10  1  6
 11 13  1  0
 11 12  2  0
 13 14  1  0
 14 20  1  0
 14 15  1  1
 16 15  1  0
 17 18  1  0
 17 16  1  0
 19 18  1  0
 20 21  1  0
 22 20  2  0
M  END
$$$$
