GIK.pdb
     RDKit          3D

 22 21  0  0  1  0  0  0  0  0999 V2000
   28.5619  -21.3316  -15.1821 N   0  0  0  0  0  0  0  0  0  0  0  0
   27.9806  -20.3279  -14.3274 C   0  0  0  0  0  0  0  0  0  0  0  0
   26.8511  -20.9262  -13.5738 C   0  0  0  0  0  0  0  0  0  0  0  0
   26.2314  -21.9307  -14.0534 O   0  0  0  0  0  0  0  0  0  0  0  0
   26.8404  -20.4184   -8.1638 C   0  0  0  0  0  0  0  0  0  0  0  0
   26.6551  -21.0783   -9.5488 C   0  0  0  0  0  0  0  0  0  0  0  0
   25.3942  -20.5942  -10.1703 C   0  0  2  0  0  0  0  0  0  0  0  0
   24.2241  -21.1388   -9.3693 C   0  0  0  0  0  0  0  0  0  0  0  0
   25.2347  -20.8903  -11.6441 C   0  0  2  0  0  0  0  0  0  0  0  0
   26.4570  -20.3955  -12.3343 N   0  0  0  0  0  0  0  0  0  0  0  0
   24.0627  -20.2286  -12.2596 C   0  0  0  0  0  0  0  0  0  0  0  0
   23.9602  -18.9594  -12.2987 O   0  0  0  0  0  0  0  0  0  0  0  0
   23.0276  -20.9898  -12.8276 N   0  0  0  0  0  0  0  0  0  0  0  0
   21.8767  -20.2730  -13.5336 C   0  0  1  0  0  0  0  0  0  0  0  0
   22.2617  -20.3935  -14.9430 C   0  0  0  0  0  0  0  0  0  0  0  0
   22.8055  -21.4999  -15.6658 C   0  0  0  0  0  0  0  0  0  0  0  0
   23.1427  -21.6309  -17.0663 C   0  0  0  0  0  0  0  0  0  0  0  0
   23.6866  -22.8913  -17.5971 C   0  0  0  0  0  0  0  0  0  0  0  0
   24.0039  -22.8444  -19.0067 N   0  0  0  0  0  0  0  0  0  0  0  0
   20.7123  -20.9182  -12.9897 C   0  0  0  0  0  0  0  0  0  0  0  0
   20.7891  -22.1399  -12.3489 O   0  0  0  0  0  0  0  0  0  0  0  0
   19.5759  -20.4117  -13.0693 O   0  0  0  0  0  0  0  0  0  0  0  0
  2  3  1  0
  2  1  1  0
  3 10  1  0
  4  3  2  0
  6  5  1  0
  7  9  1  0
  7  6  1  0
  7  8  1  1
  9 11  1  0
  9 10  1  6
 11 13  1  0
 11 12  2  0
 13 14  1  0
 14 20  1  0
 14 15  1  6
 16 15  1  0
 17 18  1  0
 17 16  1  0
 19 18  1  0
 20 21  1  0
 22 20  2  0
M  END
$$$$
