GIK.pdb
     RDKit          3D

 22 21  0  0  1  0  0  0  0  0999 V2000
   31.7472  -15.1009  -19.8975 N   0  0  0  0  0  0  0  0  0  0  0  0
   31.2330  -14.0904  -19.0086 C   0  0  0  0  0  0  0  0  0  0  0  0
   29.7577  -14.0223  -19.1518 C   0  0  0  0  0  0  0  0  0  0  0  0
   29.1744  -14.7276  -20.0380 O   0  0  0  0  0  0  0  0  0  0  0  0
   26.6343  -14.9668  -15.1512 C   0  0  0  0  0  0  0  0  0  0  0  0
   27.2426  -14.8042  -16.5625 C   0  0  0  0  0  0  0  0  0  0  0  0
   26.9278  -13.4509  -17.0915 C   0  0  2  0  0  0  0  0  0  0  0  0
   25.4194  -13.2724  -17.0867 C   0  0  0  0  0  0  0  0  0  0  0  0
   27.5141  -13.1244  -18.4461 C   0  0  2  0  0  0  0  0  0  0  0  0
   28.9957  -13.1865  -18.3186 N   0  0  0  0  0  0  0  0  0  0  0  0
   27.1540  -11.7767  -18.9402 C   0  0  0  0  0  0  0  0  0  0  0  0
   27.5207  -10.7231  -18.3252 O   0  0  0  0  0  0  0  0  0  0  0  0
   26.3977  -11.6234  -20.1140 N   0  0  0  0  0  0  0  0  0  0  0  0
   26.0402  -10.2159  -20.5916 C   0  0  1  0  0  0  0  0  0  0  0  0
   26.6653  -10.1760  -21.9170 C   0  0  0  0  0  0  0  0  0  0  0  0
   26.9068   -9.0763  -22.7971 C   0  0  0  0  0  0  0  0  0  0  0  0
   27.5825   -9.0286  -24.0752 C   0  0  0  0  0  0  0  0  0  0  0  0
   27.8752   -7.7417  -24.7266 C   0  0  0  0  0  0  0  0  0  0  0  0
   28.7611   -7.8493  -25.8640 N   0  0  0  0  0  0  0  0  0  0  0  0
   24.6155  -10.1634  -20.4039 C   0  0  0  0  0  0  0  0  0  0  0  0
   23.9259   -8.9661  -20.3927 O   0  0  0  0  0  0  0  0  0  0  0  0
   23.9302  -11.1919  -20.2401 O   0  0  0  0  0  0  0  0  0  0  0  0
  2  3  1  0
  2  1  1  0
  3 10  1  0
  4  3  2  0
  6  5  1  0
  7  9  1  0
  7  6  1  0
  7  8  1  6
  9 11  1  0
  9 10  1  1
 11 13  1  0
 11 12  2  0
 13 14  1  0
 14 20  1  0
 14 15  1  6
 16 15  1  0
 17 18  1  0
 17 16  1  0
 19 18  1  0
 20 21  1  0
 22 20  2  0
M  END
$$$$
