GIK.pdb
     RDKit          3D

 22 21  0  0  1  0  0  0  0  0999 V2000
   25.1723  -25.2863  -15.2902 N   0  0  0  0  0  0  0  0  0  0  0  0
   24.5138  -24.1544  -15.8912 C   0  0  0  0  0  0  0  0  0  0  0  0
   23.5165  -23.6096  -14.9372 C   0  0  0  0  0  0  0  0  0  0  0  0
   23.4920  -24.0333  -13.7360 O   0  0  0  0  0  0  0  0  0  0  0  0
   23.8851  -19.6923  -15.6058 C   0  0  0  0  0  0  0  0  0  0  0  0
   23.1246  -19.9043  -14.2774 C   0  0  0  0  0  0  0  0  0  0  0  0
   21.7870  -20.4917  -14.5536 C   0  0  2  0  0  0  0  0  0  0  0  0
   20.7566  -19.7549  -13.7154 C   0  0  0  0  0  0  0  0  0  0  0  0
   21.6774  -21.9879  -14.3665 C   0  0  2  0  0  0  0  0  0  0  0  0
   22.5968  -22.6293  -15.3455 N   0  0  0  0  0  0  0  0  0  0  0  0
   20.3160  -22.5180  -14.6029 C   0  0  0  0  0  0  0  0  0  0  0  0
   19.7344  -22.3792  -15.7278 O   0  0  0  0  0  0  0  0  0  0  0  0
   19.6271  -23.1998  -13.5861 N   0  0  0  0  0  0  0  0  0  0  0  0
   18.2337  -23.7582  -13.8751 C   0  0  1  0  0  0  0  0  0  0  0  0
   18.1005  -24.7927  -12.8451 C   0  0  0  0  0  0  0  0  0  0  0  0
   18.8102  -26.0199  -12.6642 C   0  0  0  0  0  0  0  0  0  0  0  0
   19.7379  -26.4234  -11.6304 C   0  0  0  0  0  0  0  0  0  0  0  0
   20.4087  -27.7323  -11.6871 C   0  0  0  0  0  0  0  0  0  0  0  0
   21.3715  -27.9430  -10.6295 N   0  0  0  0  0  0  0  0  0  0  0  0
   17.4119  -22.5784  -13.9005 C   0  0  0  0  0  0  0  0  0  0  0  0
   16.2524  -22.5144  -14.6492 O   0  0  0  0  0  0  0  0  0  0  0  0
   17.7026  -21.5541  -13.2520 O   0  0  0  0  0  0  0  0  0  0  0  0
  2  3  1  0
  2  1  1  0
  3 10  1  0
  4  3  2  0
  6  5  1  0
  7  9  1  0
  7  6  1  0
  7  8  1  1
  9 11  1  0
  9 10  1  6
 11 13  1  0
 11 12  2  0
 13 14  1  0
 14 20  1  0
 14 15  1  1
 16 15  1  0
 17 18  1  0
 17 16  1  0
 19 18  1  0
 20 21  1  0
 22 20  2  0
M  END
$$$$
