GIK.pdb
     RDKit          3D

 22 21  0  0  1  0  0  0  0  0999 V2000
   21.5994  -21.5114  -10.7486 N   0  0  0  0  0  0  0  0  0  0  0  0
   21.2768  -20.4436  -11.6605 C   0  0  0  0  0  0  0  0  0  0  0  0
   22.5188  -19.9841  -12.3297 C   0  0  0  0  0  0  0  0  0  0  0  0
   22.5527  -18.8371  -12.8831 O   0  0  0  0  0  0  0  0  0  0  0  0
   27.9439  -19.5902  -12.3028 C   0  0  0  0  0  0  0  0  0  0  0  0
   27.3971  -20.8506  -13.0103 C   0  0  0  0  0  0  0  0  0  0  0  0
   26.0471  -21.1775  -12.4801 C   0  0  2  0  0  0  0  0  0  0  0  0
   25.7976  -22.6619  -12.6838 C   0  0  0  0  0  0  0  0  0  0  0  0
   24.9088  -20.3496  -13.0316 C   0  0  2  0  0  0  0  0  0  0  0  0
   23.6603  -20.8024  -12.3596 N   0  0  0  0  0  0  0  0  0  0  0  0
   24.7207  -20.4962  -14.4922 C   0  0  0  0  0  0  0  0  0  0  0  0
   24.1268  -21.5085  -14.9878 O   0  0  0  0  0  0  0  0  0  0  0  0
   25.1902  -19.5110  -15.3766 N   0  0  0  0  0  0  0  0  0  0  0  0
   24.9130  -19.6594  -16.8726 C   0  0  1  0  0  0  0  0  0  0  0  0
   24.7505  -18.2642  -17.2921 C   0  0  0  0  0  0  0  0  0  0  0  0
   24.2836  -17.7136  -18.5255 C   0  0  0  0  0  0  0  0  0  0  0  0
   25.0145  -17.1255  -19.6265 C   0  0  0  0  0  0  0  0  0  0  0  0
   24.3055  -16.5084  -20.7591 C   0  0  0  0  0  0  0  0  0  0  0  0
   25.1740  -16.0955  -21.8386 N   0  0  0  0  0  0  0  0  0  0  0  0
   26.0024  -20.4829  -17.3228 C   0  0  0  0  0  0  0  0  0  0  0  0
   25.8527  -21.3877  -18.3564 O   0  0  0  0  0  0  0  0  0  0  0  0
   27.1349  -20.4254  -16.8047 O   0  0  0  0  0  0  0  0  0  0  0  0
  2  3  1  0
  2  1  1  0
  3 10  1  0
  4  3  2  0
  6  5  1  0
  7  9  1  0
  7  6  1  0
  7  8  1  6
  9 11  1  0
  9 10  1  1
 11 13  1  0
 11 12  2  0
 13 14  1  0
 14 20  1  0
 14 15  1  6
 16 15  1  0
 17 18  1  0
 17 16  1  0
 19 18  1  0
 20 21  1  0
 22 20  2  0
M  END
$$$$
