GIK.pdb
     RDKit          3D

 22 21  0  0  1  0  0  0  0  0999 V2000
   25.3669  -15.5653  -16.3977 N   0  0  0  0  0  0  0  0  0  0  0  0
   25.4219  -16.0598  -15.0455 C   0  0  0  0  0  0  0  0  0  0  0  0
   25.2376  -17.5320  -15.0585 C   0  0  0  0  0  0  0  0  0  0  0  0
   24.6700  -18.0902  -16.0532 O   0  0  0  0  0  0  0  0  0  0  0  0
   28.8986  -20.7081  -12.4946 C   0  0  0  0  0  0  0  0  0  0  0  0
   27.9091  -20.0991  -13.5135 C   0  0  0  0  0  0  0  0  0  0  0  0
   26.5140  -20.4153  -13.1085 C   0  0  2  0  0  0  0  0  0  0  0  0
   26.3606  -21.9255  -13.0533 C   0  0  0  0  0  0  0  0  0  0  0  0
   25.4285  -19.7845  -13.9506 C   0  0  2  0  0  0  0  0  0  0  0  0
   25.6833  -18.3185  -13.9833 N   0  0  0  0  0  0  0  0  0  0  0  0
   24.0640  -19.9995  -13.4195 C   0  0  0  0  0  0  0  0  0  0  0  0
   23.6800  -19.4558  -12.3332 O   0  0  0  0  0  0  0  0  0  0  0  0
   23.1472  -20.8102  -14.1091 N   0  0  0  0  0  0  0  0  0  0  0  0
   21.7383  -20.9893  -13.5433 C   0  0  1  0  0  0  0  0  0  0  0  0
   21.0173  -19.8733  -14.1627 C   0  0  0  0  0  0  0  0  0  0  0  0
   19.8085  -19.2182  -13.7731 C   0  0  0  0  0  0  0  0  0  0  0  0
   18.7483  -18.6502  -14.5767 C   0  0  0  0  0  0  0  0  0  0  0  0
   17.5677  -18.0386  -13.9454 C   0  0  0  0  0  0  0  0  0  0  0  0
   16.5660  -17.5914  -14.8871 N   0  0  0  0  0  0  0  0  0  0  0  0
   21.4430  -22.3646  -13.8415 C   0  0  0  0  0  0  0  0  0  0  0  0
   22.2147  -23.1015  -14.7195 O   0  0  0  0  0  0  0  0  0  0  0  0
   20.4773  -22.9619  -13.3269 O   0  0  0  0  0  0  0  0  0  0  0  0
  2  3  1  0
  2  1  1  0
  3 10  1  0
  4  3  2  0
  6  5  1  0
  7  9  1  0
  7  6  1  0
  7  8  1  6
  9 11  1  0
  9 10  1  1
 11 13  1  0
 11 12  2  0
 13 14  1  0
 14 20  1  0
 14 15  1  6
 16 15  1  0
 17 18  1  0
 17 16  1  0
 19 18  1  0
 20 21  1  0
 22 20  2  0
M  END
$$$$
