GIK.pdb
     RDKit          3D

 22 21  0  0  1  0  0  0  0  0999 V2000
   31.4079  -22.2831  -10.9288 N   0  0  0  0  0  0  0  0  0  0  0  0
   30.7871  -21.0284  -10.5880 C   0  0  0  0  0  0  0  0  0  0  0  0
   29.4513  -21.2914   -9.9982 C   0  0  0  0  0  0  0  0  0  0  0  0
   28.8740  -22.4070  -10.2105 O   0  0  0  0  0  0  0  0  0  0  0  0
   28.4168  -19.3100   -5.0593 C   0  0  0  0  0  0  0  0  0  0  0  0
   28.5544  -20.1708   -6.3353 C   0  0  0  0  0  0  0  0  0  0  0  0
   27.4392  -19.8645   -7.2696 C   0  0  2  0  0  0  0  0  0  0  0  0
   26.1260  -20.1165   -6.5491 C   0  0  0  0  0  0  0  0  0  0  0  0
   27.4819  -20.5836   -8.5987 C   0  0  2  0  0  0  0  0  0  0  0  0
   28.8151  -20.3211   -9.2062 N   0  0  0  0  0  0  0  0  0  0  0  0
   26.4469  -20.1289   -9.5538 C   0  0  0  0  0  0  0  0  0  0  0  0
   26.4634  -18.9523  -10.0418 O   0  0  0  0  0  0  0  0  0  0  0  0
   25.4148  -20.9930   -9.9554 N   0  0  0  0  0  0  0  0  0  0  0  0
   24.4643  -20.5517  -11.0684 C   0  0  1  0  0  0  0  0  0  0  0  0
   24.8708  -21.4195  -12.1778 C   0  0  0  0  0  0  0  0  0  0  0  0
   24.6628  -21.2862  -13.5854 C   0  0  0  0  0  0  0  0  0  0  0  0
   23.6125  -21.8082  -14.4320 C   0  0  0  0  0  0  0  0  0  0  0  0
   23.5971  -21.5262  -15.8765 C   0  0  0  0  0  0  0  0  0  0  0  0
   22.4156  -22.0097  -16.5549 N   0  0  0  0  0  0  0  0  0  0  0  0
   23.1719  -20.6440  -10.4448 C   0  0  0  0  0  0  0  0  0  0  0  0
   22.0697  -19.9826  -10.9518 O   0  0  0  0  0  0  0  0  0  0  0  0
   22.9790  -21.3217   -9.4163 O   0  0  0  0  0  0  0  0  0  0  0  0
  2  3  1  0
  2  1  1  0
  3 10  1  0
  4  3  2  0
  6  5  1  0
  7  9  1  0
  7  6  1  0
  7  8  1  1
  9 11  1  0
  9 10  1  6
 11 13  1  0
 11 12  2  0
 13 14  1  0
 14 20  1  0
 14 15  1  6
 16 15  1  0
 17 18  1  0
 17 16  1  0
 19 18  1  0
 20 21  1  0
 22 20  2  0
M  END
$$$$
