GIK.pdb
     RDKit          3D

 22 21  0  0  1  0  0  0  0  0999 V2000
   10.7611  -20.8505   -2.7718 N   0  0  0  0  0  0  0  0  0  0  0  0
   12.0624  -20.6886   -3.3685 C   0  0  0  0  0  0  0  0  0  0  0  0
   11.9093  -20.0675   -4.7072 C   0  0  0  0  0  0  0  0  0  0  0  0
   10.7450  -19.8164   -5.1593 O   0  0  0  0  0  0  0  0  0  0  0  0
   14.4179  -15.6712   -7.7921 C   0  0  0  0  0  0  0  0  0  0  0  0
   13.6580  -16.9981   -8.0162 C   0  0  0  0  0  0  0  0  0  0  0  0
   13.6508  -17.7906   -6.7583 C   0  0  2  0  0  0  0  0  0  0  0  0
   15.0885  -18.0053   -6.3177 C   0  0  0  0  0  0  0  0  0  0  0  0
   12.8929  -19.0975   -6.8119 C   0  0  2  0  0  0  0  0  0  0  0  0
   13.0372  -19.7527   -5.4833 N   0  0  0  0  0  0  0  0  0  0  0  0
   13.3966  -20.0346   -7.8407 C   0  0  0  0  0  0  0  0  0  0  0  0
   14.5099  -20.6383   -7.7023 O   0  0  0  0  0  0  0  0  0  0  0  0
   12.6502  -20.2898   -9.0031 N   0  0  0  0  0  0  0  0  0  0  0  0
   13.1918  -21.2802  -10.0339 C   0  0  1  0  0  0  0  0  0  0  0  0
   12.1869  -22.3465   -9.9890 C   0  0  0  0  0  0  0  0  0  0  0  0
   12.3014  -23.7144   -9.5915 C   0  0  0  0  0  0  0  0  0  0  0  0
   11.2905  -24.7404   -9.4581 C   0  0  0  0  0  0  0  0  0  0  0  0
   11.6167  -26.0496   -8.8702 C   0  0  0  0  0  0  0  0  0  0  0  0
   10.4796  -26.9330   -8.7408 N   0  0  0  0  0  0  0  0  0  0  0  0
   13.3984  -20.4573  -11.1949 C   0  0  0  0  0  0  0  0  0  0  0  0
   14.1228  -20.9028  -12.2840 O   0  0  0  0  0  0  0  0  0  0  0  0
   12.9378  -19.3018  -11.2788 O   0  0  0  0  0  0  0  0  0  0  0  0
  2  3  1  0
  2  1  1  0
  3 10  1  0
  4  3  2  0
  6  5  1  0
  7  9  1  0
  7  6  1  0
  7  8  1  6
  9 11  1  0
  9 10  1  1
 11 13  1  0
 11 12  2  0
 13 14  1  0
 14 20  1  0
 14 15  1  6
 16 15  1  0
 17 18  1  0
 17 16  1  0
 19 18  1  0
 20 21  1  0
 22 20  2  0
M  END
$$$$
