GIK.pdb
     RDKit          3D

 22 21  0  0  1  0  0  0  0  0999 V2000
   20.8314   -6.8480  -15.1029 N   0  0  0  0  0  0  0  0  0  0  0  0
   19.5895   -6.9380  -15.8277 C   0  0  0  0  0  0  0  0  0  0  0  0
   18.6844   -7.8811  -15.1256 C   0  0  0  0  0  0  0  0  0  0  0  0
   19.1596   -8.6955  -14.2689 O   0  0  0  0  0  0  0  0  0  0  0  0
   14.0194   -5.9644  -14.2186 C   0  0  0  0  0  0  0  0  0  0  0  0
   15.0351   -6.9970  -13.6799 C   0  0  0  0  0  0  0  0  0  0  0  0
   15.0544   -8.1908  -14.5659 C   0  0  2  0  0  0  0  0  0  0  0  0
   14.0067   -9.1730  -14.0711 C   0  0  0  0  0  0  0  0  0  0  0  0
   16.3991   -8.8613  -14.7324 C   0  0  2  0  0  0  0  0  0  0  0  0
   17.3059   -7.8855  -15.3963 N   0  0  0  0  0  0  0  0  0  0  0  0
   16.3544  -10.0837  -15.5654 C   0  0  0  0  0  0  0  0  0  0  0  0
   16.0773  -10.0319  -16.8078 O   0  0  0  0  0  0  0  0  0  0  0  0
   16.6254  -11.3425  -15.0039 N   0  0  0  0  0  0  0  0  0  0  0  0
   16.5383  -12.5869  -15.8875 C   0  0  1  0  0  0  0  0  0  0  0  0
   17.9471  -12.9737  -16.0085 C   0  0  0  0  0  0  0  0  0  0  0  0
   18.5839  -13.8965  -16.8946 C   0  0  0  0  0  0  0  0  0  0  0  0
   19.0927  -15.2291  -16.6542 C   0  0  0  0  0  0  0  0  0  0  0  0
   19.7320  -15.9991  -17.7333 C   0  0  0  0  0  0  0  0  0  0  0  0
   20.2650  -17.2735  -17.3068 N   0  0  0  0  0  0  0  0  0  0  0  0
   15.5666  -13.3991  -15.2065 C   0  0  0  0  0  0  0  0  0  0  0  0
   14.9573  -14.4757  -15.8220 O   0  0  0  0  0  0  0  0  0  0  0  0
   15.2225  -13.1742  -14.0295 O   0  0  0  0  0  0  0  0  0  0  0  0
  2  3  1  0
  2  1  1  0
  3 10  1  0
  4  3  2  0
  6  5  1  0
  7  9  1  0
  7  6  1  0
  7  8  1  1
  9 11  1  0
  9 10  1  6
 11 13  1  0
 11 12  2  0
 13 14  1  0
 14 20  1  0
 14 15  1  1
 16 15  1  0
 17 18  1  0
 17 16  1  0
 19 18  1  0
 20 21  1  0
 22 20  2  0
M  END
$$$$
