GIK.pdb
     RDKit          3D

 22 21  0  0  1  0  0  0  0  0999 V2000
   13.2116  -15.1307    5.0401 N   0  0  0  0  0  0  0  0  0  0  0  0
   14.2083  -15.5942    4.1086 C   0  0  0  0  0  0  0  0  0  0  0  0
   15.0198  -16.6558    4.7535 C   0  0  0  0  0  0  0  0  0  0  0  0
   14.8879  -16.8845    5.9998 O   0  0  0  0  0  0  0  0  0  0  0  0
   16.4076  -21.0408    1.8462 C   0  0  0  0  0  0  0  0  0  0  0  0
   15.9825  -20.2497    3.1038 C   0  0  0  0  0  0  0  0  0  0  0  0
   17.1401  -19.4758    3.6247 C   0  0  2  0  0  0  0  0  0  0  0  0
   18.1761  -20.4555    4.1483 C   0  0  0  0  0  0  0  0  0  0  0  0
   16.8119  -18.4214    4.6571 C   0  0  2  0  0  0  0  0  0  0  0  0
   15.9342  -17.4131    4.0026 N   0  0  0  0  0  0  0  0  0  0  0  0
   18.0012  -17.7173    5.1862 C   0  0  0  0  0  0  0  0  0  0  0  0
   18.7243  -16.9803    4.4399 O   0  0  0  0  0  0  0  0  0  0  0  0
   18.3624  -17.8395    6.5382 N   0  0  0  0  0  0  0  0  0  0  0  0
   19.6599  -17.1933    7.0241 C   0  0  1  0  0  0  0  0  0  0  0  0
   19.1603  -16.1234    7.8930 C   0  0  0  0  0  0  0  0  0  0  0  0
   19.6841  -14.8201    8.1560 C   0  0  0  0  0  0  0  0  0  0  0  0
   19.6591  -13.6189    7.3505 C   0  0  0  0  0  0  0  0  0  0  0  0
   20.2825  -12.3750    7.8305 C   0  0  0  0  0  0  0  0  0  0  0  0
   20.1179  -11.2535    6.9332 N   0  0  0  0  0  0  0  0  0  0  0  0
   20.4102  -18.3129    7.5253 C   0  0  0  0  0  0  0  0  0  0  0  0
   21.7879  -18.2798    7.6261 O   0  0  0  0  0  0  0  0  0  0  0  0
   19.8592  -19.3694    7.8921 O   0  0  0  0  0  0  0  0  0  0  0  0
  2  3  1  0
  2  1  1  0
  3 10  1  0
  4  3  2  0
  6  5  1  0
  7  9  1  0
  7  6  1  0
  7  8  1  1
  9 11  1  0
  9 10  1  6
 11 13  1  0
 11 12  2  0
 13 14  1  0
 14 20  1  0
 14 15  1  1
 16 15  1  0
 17 18  1  0
 17 16  1  0
 19 18  1  0
 20 21  1  0
 22 20  2  0
M  END
$$$$
