GIK.pdb
     RDKit          3D

 22 21  0  0  1  0  0  0  0  0999 V2000
   28.8987  -19.4325  -16.9765 N   0  0  0  0  0  0  0  0  0  0  0  0
   28.2084  -18.8148  -15.8730 C   0  0  0  0  0  0  0  0  0  0  0  0
   27.8690  -19.8535  -14.8693 C   0  0  0  0  0  0  0  0  0  0  0  0
   27.3903  -20.9707  -15.2514 O   0  0  0  0  0  0  0  0  0  0  0  0
   30.0931  -22.3466  -11.4970 C   0  0  0  0  0  0  0  0  0  0  0  0
   29.8794  -20.8172  -11.5538 C   0  0  0  0  0  0  0  0  0  0  0  0
   28.4531  -20.4996  -11.2794 C   0  0  2  0  0  0  0  0  0  0  0  0
   27.9644  -21.4089  -10.1652 C   0  0  0  0  0  0  0  0  0  0  0  0
   27.5288  -20.5515  -12.4745 C   0  0  2  0  0  0  0  0  0  0  0  0
   28.0702  -19.6176  -13.4992 N   0  0  0  0  0  0  0  0  0  0  0  0
   26.1401  -20.1406  -12.1699 C   0  0  0  0  0  0  0  0  0  0  0  0
   25.8734  -18.9771  -11.7249 O   0  0  0  0  0  0  0  0  0  0  0  0
   25.0705  -21.0286  -12.3720 N   0  0  0  0  0  0  0  0  0  0  0  0
   23.6391  -20.5259  -12.1840 C   0  0  1  0  0  0  0  0  0  0  0  0
   22.9844  -21.0082  -13.4038 C   0  0  0  0  0  0  0  0  0  0  0  0
   21.6802  -20.7432  -13.9246 C   0  0  0  0  0  0  0  0  0  0  0  0
   21.1255  -20.9934  -15.2369 C   0  0  0  0  0  0  0  0  0  0  0  0
   20.8290  -22.3646  -15.6822 C   0  0  0  0  0  0  0  0  0  0  0  0
   20.1797  -22.4337  -16.9720 N   0  0  0  0  0  0  0  0  0  0  0  0
   23.2954  -21.0119  -10.8751 C   0  0  0  0  0  0  0  0  0  0  0  0
   22.1269  -20.6343  -10.2416 O   0  0  0  0  0  0  0  0  0  0  0  0
   24.0322  -21.7952  -10.2443 O   0  0  0  0  0  0  0  0  0  0  0  0
  2  3  1  0
  2  1  1  0
  3 10  1  0
  4  3  2  0
  6  5  1  0
  7  9  1  0
  7  6  1  0
  7  8  1  1
  9 11  1  0
  9 10  1  6
 11 13  1  0
 11 12  2  0
 13 14  1  0
 14 20  1  0
 14 15  1  6
 16 15  1  0
 17 18  1  0
 17 16  1  0
 19 18  1  0
 20 21  1  0
 22 20  2  0
M  END
$$$$
