GIK.pdb
     RDKit          3D

 22 21  0  0  1  0  0  0  0  0999 V2000
   12.3976  -18.2686    2.2663 N   0  0  0  0  0  0  0  0  0  0  0  0
   13.3321  -17.2042    2.5298 C   0  0  0  0  0  0  0  0  0  0  0  0
   14.6766  -17.7853    2.7665 C   0  0  0  0  0  0  0  0  0  0  0  0
   14.8137  -19.0489    2.8543 O   0  0  0  0  0  0  0  0  0  0  0  0
   19.0669  -14.7294    1.4671 C   0  0  0  0  0  0  0  0  0  0  0  0
   18.1564  -15.9728    1.5809 C   0  0  0  0  0  0  0  0  0  0  0  0
   18.1731  -16.4805    2.9782 C   0  0  2  0  0  0  0  0  0  0  0  0
   19.5673  -17.0003    3.2836 C   0  0  0  0  0  0  0  0  0  0  0  0
   17.1185  -17.5104    3.3136 C   0  0  2  0  0  0  0  0  0  0  0  0
   15.8025  -16.9552    2.8952 N   0  0  0  0  0  0  0  0  0  0  0  0
   17.0407  -17.8332    4.7558 C   0  0  0  0  0  0  0  0  0  0  0  0
   16.4973  -17.0356    5.5873 O   0  0  0  0  0  0  0  0  0  0  0  0
   17.5625  -19.0410    5.2479 N   0  0  0  0  0  0  0  0  0  0  0  0
   17.4542  -19.3457    6.7420 C   0  0  1  0  0  0  0  0  0  0  0  0
   16.1038  -19.9075    6.8411 C   0  0  0  0  0  0  0  0  0  0  0  0
   15.0184  -19.5691    7.7070 C   0  0  0  0  0  0  0  0  0  0  0  0
   13.6802  -20.1119    7.7900 C   0  0  0  0  0  0  0  0  0  0  0  0
   12.7077  -19.5779    8.7571 C   0  0  0  0  0  0  0  0  0  0  0  0
   11.4022  -20.1934    8.6751 N   0  0  0  0  0  0  0  0  0  0  0  0
   18.6376  -20.1207    7.0002 C   0  0  0  0  0  0  0  0  0  0  0  0
   19.1188  -20.3105    8.2815 O   0  0  0  0  0  0  0  0  0  0  0  0
   19.2906  -20.6586    6.0844 O   0  0  0  0  0  0  0  0  0  0  0  0
  2  3  1  0
  2  1  1  0
  3 10  1  0
  4  3  2  0
  6  5  1  0
  7  9  1  0
  7  6  1  0
  7  8  1  6
  9 11  1  0
  9 10  1  1
 11 13  1  0
 11 12  2  0
 13 14  1  0
 14 20  1  0
 14 15  1  6
 16 15  1  0
 17 18  1  0
 17 16  1  0
 19 18  1  0
 20 21  1  0
 22 20  2  0
M  END
$$$$
