GIK.pdb
     RDKit          3D

 22 21  0  0  1  0  0  0  0  0999 V2000
   19.3284  -13.9551  -18.5397 N   0  0  0  0  0  0  0  0  0  0  0  0
   19.6840  -12.5844  -18.8056 C   0  0  0  0  0  0  0  0  0  0  0  0
   20.0967  -11.9347  -17.5371 C   0  0  0  0  0  0  0  0  0  0  0  0
   19.3869  -12.0830  -16.4896 O   0  0  0  0  0  0  0  0  0  0  0  0
   24.7919  -12.4628  -15.3481 C   0  0  0  0  0  0  0  0  0  0  0  0
   23.2931  -12.2306  -15.6446 C   0  0  0  0  0  0  0  0  0  0  0  0
   23.0481  -10.7845  -15.8875 C   0  0  2  0  0  0  0  0  0  0  0  0
   23.5369  -10.0049  -14.6789 C   0  0  0  0  0  0  0  0  0  0  0  0
   21.6266  -10.4115  -16.2420 C   0  0  2  0  0  0  0  0  0  0  0  0
   21.2644  -11.1559  -17.4789 N   0  0  0  0  0  0  0  0  0  0  0  0
   21.4395   -8.9674  -16.5063 C   0  0  0  0  0  0  0  0  0  0  0  0
   22.0952   -8.3682  -17.4194 O   0  0  0  0  0  0  0  0  0  0  0  0
   20.5211   -8.2156  -15.7549 N   0  0  0  0  0  0  0  0  0  0  0  0
   20.3284   -6.7342  -16.0796 C   0  0  1  0  0  0  0  0  0  0  0  0
   18.8724   -6.6406  -16.2222 C   0  0  0  0  0  0  0  0  0  0  0  0
   18.0306   -6.9046  -17.3465 C   0  0  0  0  0  0  0  0  0  0  0  0
   16.9362   -7.8379  -17.5003 C   0  0  0  0  0  0  0  0  0  0  0  0
   16.2878   -8.0321  -18.8073 C   0  0  0  0  0  0  0  0  0  0  0  0
   15.1805   -8.9611  -18.7792 N   0  0  0  0  0  0  0  0  0  0  0  0
   21.0483   -6.0758  -15.0232 C   0  0  0  0  0  0  0  0  0  0  0  0
   21.3754   -4.7350  -15.0904 O   0  0  0  0  0  0  0  0  0  0  0  0
   21.4155   -6.6785  -13.9955 O   0  0  0  0  0  0  0  0  0  0  0  0
  2  3  1  0
  2  1  1  0
  3 10  1  0
  4  3  2  0
  6  5  1  0
  7  9  1  0
  7  6  1  0
  7  8  1  1
  9 11  1  0
  9 10  1  6
 11 13  1  0
 11 12  2  0
 13 14  1  0
 14 20  1  0
 14 15  1  1
 16 15  1  0
 17 18  1  0
 17 16  1  0
 19 18  1  0
 20 21  1  0
 22 20  2  0
M  END
$$$$
