GIK.pdb
     RDKit          3D

 22 21  0  0  1  0  0  0  0  0999 V2000
   25.4687  -25.0996  -15.3858 N   0  0  0  0  0  0  0  0  0  0  0  0
   25.7305  -23.7239  -15.0471 C   0  0  0  0  0  0  0  0  0  0  0  0
   24.6678  -23.2378  -14.1329 C   0  0  0  0  0  0  0  0  0  0  0  0
   23.6424  -23.9611  -13.9127 O   0  0  0  0  0  0  0  0  0  0  0  0
   26.1843  -20.7723   -9.6824 C   0  0  0  0  0  0  0  0  0  0  0  0
   25.4331  -21.6449  -10.7130 C   0  0  0  0  0  0  0  0  0  0  0  0
   24.4126  -20.8238  -11.4165 C   0  0  2  0  0  0  0  0  0  0  0  0
   23.4069  -20.3268  -10.3924 C   0  0  0  0  0  0  0  0  0  0  0  0
   23.7221  -21.4946  -12.5821 C   0  0  2  0  0  0  0  0  0  0  0  0
   24.7805  -21.9856  -13.5062 N   0  0  0  0  0  0  0  0  0  0  0  0
   22.8320  -20.5915  -13.3452 C   0  0  0  0  0  0  0  0  0  0  0  0
   23.2755  -19.5344  -13.9009 O   0  0  0  0  0  0  0  0  0  0  0  0
   21.4648  -20.8829  -13.4831 N   0  0  0  0  0  0  0  0  0  0  0  0
   20.5674  -19.9051  -14.2418 C   0  0  1  0  0  0  0  0  0  0  0  0
   19.9344  -20.7796  -15.2336 C   0  0  0  0  0  0  0  0  0  0  0  0
   19.0481  -20.4722  -16.3116 C   0  0  0  0  0  0  0  0  0  0  0  0
   18.4043  -21.3399  -17.2733 C   0  0  0  0  0  0  0  0  0  0  0  0
   17.5980  -20.7829  -18.3715 C   0  0  0  0  0  0  0  0  0  0  0  0
   17.0396  -21.7830  -19.2535 N   0  0  0  0  0  0  0  0  0  0  0  0
   19.8274  -19.2628  -13.1894 C   0  0  0  0  0  0  0  0  0  0  0  0
   19.8028  -19.7676  -11.9033 O   0  0  0  0  0  0  0  0  0  0  0  0
   19.1698  -18.2212  -13.3818 O   0  0  0  0  0  0  0  0  0  0  0  0
  2  3  1  0
  2  1  1  0
  3 10  1  0
  4  3  2  0
  6  5  1  0
  7  9  1  0
  7  6  1  0
  7  8  1  1
  9 11  1  0
  9 10  1  6
 11 13  1  0
 11 12  2  0
 13 14  1  0
 14 20  1  0
 14 15  1  6
 16 15  1  0
 17 18  1  0
 17 16  1  0
 19 18  1  0
 20 21  1  0
 22 20  2  0
M  END
$$$$
