GIK.pdb
     RDKit          3D

 22 21  0  0  1  0  0  0  0  0999 V2000
   22.2802  -20.8607   -8.5012 N   0  0  0  0  0  0  0  0  0  0  0  0
   23.5587  -21.3747   -8.9219 C   0  0  0  0  0  0  0  0  0  0  0  0
   24.0199  -20.6165  -10.1110 C   0  0  0  0  0  0  0  0  0  0  0  0
   23.4797  -19.4989  -10.3980 O   0  0  0  0  0  0  0  0  0  0  0  0
   29.4811  -19.8297  -12.5310 C   0  0  0  0  0  0  0  0  0  0  0  0
   27.9768  -19.6391  -12.8292 C   0  0  0  0  0  0  0  0  0  0  0  0
   27.1695  -20.4182  -11.8538 C   0  0  2  0  0  0  0  0  0  0  0  0
   27.5914  -21.8750  -11.9362 C   0  0  0  0  0  0  0  0  0  0  0  0
   25.6700  -20.2738  -11.9812 C   0  0  2  0  0  0  0  0  0  0  0  0
   25.0483  -21.1189  -10.9254 N   0  0  0  0  0  0  0  0  0  0  0  0
   25.1398  -20.7147  -13.2906 C   0  0  0  0  0  0  0  0  0  0  0  0
   24.9610  -21.9482  -13.5545 O   0  0  0  0  0  0  0  0  0  0  0  0
   24.8108  -19.7757  -14.2823 N   0  0  0  0  0  0  0  0  0  0  0  0
   24.1621  -20.2584  -15.5796 C   0  0  1  0  0  0  0  0  0  0  0  0
   23.0046  -19.3658  -15.6917 C   0  0  0  0  0  0  0  0  0  0  0  0
   21.7795  -19.5197  -16.4113 C   0  0  0  0  0  0  0  0  0  0  0  0
   20.7311  -20.5073  -16.2783 C   0  0  0  0  0  0  0  0  0  0  0  0
   19.5376  -20.4617  -17.1384 C   0  0  0  0  0  0  0  0  0  0  0  0
   18.5892  -21.5219  -16.8804 N   0  0  0  0  0  0  0  0  0  0  0  0
   25.2538  -20.2340  -16.5152 C   0  0  0  0  0  0  0  0  0  0  0  0
   26.3718  -19.4484  -16.3096 O   0  0  0  0  0  0  0  0  0  0  0  0
   25.2482  -20.9167  -17.5584 O   0  0  0  0  0  0  0  0  0  0  0  0
  2  3  1  0
  2  1  1  0
  3 10  1  0
  4  3  2  0
  6  5  1  0
  7  9  1  0
  7  6  1  0
  7  8  1  6
  9 11  1  0
  9 10  1  1
 11 13  1  0
 11 12  2  0
 13 14  1  0
 14 20  1  0
 14 15  1  6
 16 15  1  0
 17 18  1  0
 17 16  1  0
 19 18  1  0
 20 21  1  0
 22 20  2  0
M  END
$$$$
