MCW.pdb
     RDKit          3D

 29 30  0  0  1  0  0  0  0  0999 V2000
   34.4722  -22.6620  -11.7605 C   0  0  0  0  0  0  0  0  0  0  0  0
   34.5676  -23.6480  -13.2659 S   0  0  0  0  0  0  0  0  0  0  0  0
   32.9187  -23.9869  -13.9297 C   0  0  0  0  0  0  0  0  0  0  0  0
   32.0155  -22.8069  -13.7517 C   0  0  0  0  0  0  0  0  0  0  0  0
   30.6883  -23.0771  -14.4258 C   0  0  2  0  0  0  0  0  0  0  0  0
   30.8269  -23.3275  -15.8312 N   0  0  0  0  0  0  0  0  0  0  0  0
   29.7774  -21.9655  -14.1159 C   0  0  0  0  0  0  0  0  0  0  0  0
   29.6305  -21.6550  -12.9046 O   0  0  0  0  0  0  0  0  0  0  0  0
   29.0522  -21.2173  -15.0784 N   0  0  0  0  0  0  0  0  0  0  0  0
   28.0859  -20.2098  -14.6579 C   0  0  1  0  0  0  0  0  0  0  0  0
   27.8497  -19.3258  -15.8912 C   0  0  0  0  0  0  0  0  0  0  0  0
   29.2160  -18.2165  -16.2288 S   0  0  0  0  0  0  0  0  0  0  0  0
   26.8197  -20.8707  -14.2475 C   0  0  0  0  0  0  0  0  0  0  0  0
   26.6338  -22.0969  -14.5618 O   0  0  0  0  0  0  0  0  0  0  0  0
   25.7752  -20.2659  -13.5262 N   0  0  0  0  0  0  0  0  0  0  0  0
   24.7196  -21.0021  -12.8570 C   0  0  1  0  0  0  0  0  0  0  0  0
   25.4066  -21.7665  -11.7164 C   0  0  0  0  0  0  0  0  0  0  0  0
   25.5594  -20.9346  -10.5231 C   0  0  0  0  0  0  0  0  0  0  0  0
   24.5770  -20.1245   -9.9948 C   0  0  0  0  0  0  0  0  0  0  0  0
   25.0875  -19.5201   -8.9034 N   0  0  0  0  0  0  0  0  0  0  0  0
   26.3631  -19.9301   -8.7342 C   0  0  0  0  0  0  0  0  0  0  0  0
   27.3468  -19.6414   -7.7977 C   0  0  0  0  0  0  0  0  0  0  0  0
   28.6036  -20.2096   -7.8495 C   0  0  0  0  0  0  0  0  0  0  0  0
   28.8993  -21.1043   -8.8757 C   0  0  0  0  0  0  0  0  0  0  0  0
   27.9478  -21.4154   -9.8239 C   0  0  0  0  0  0  0  0  0  0  0  0
   26.6837  -20.8320   -9.7557 C   0  0  0  0  0  0  0  0  0  0  0  0
   23.7134  -20.0731  -12.2914 C   0  0  0  0  0  0  0  0  0  0  0  0
   23.9254  -18.8402  -12.1380 O   0  0  0  0  0  0  0  0  0  0  0  0
   22.4653  -20.5339  -11.8980 O   0  0  0  0  0  0  0  0  0  0  0  0
  2  1  1  0
  3  2  1  0
  4  3  1  0
  4  5  1  0
  5  6  1  6
  7  5  1  0
  7  8  2  0
  9 10  1  0
  9  7  1  0
 10 13  1  0
 11 12  1  0
 10 11  1  6
 13 15  1  0
 14 13  2  0
 15 16  1  0
 16 27  1  0
 16 17  1  1
 18 17  1  0
 19 18  2  0
 20 21  1  0
 20 19  1  0
 21 26  2  0
 22 23  2  0
 22 21  1  0
 23 24  1  0
 24 25  2  0
 26 18  1  0
 26 25  1  0
 27 28  2  0
 27 29  1  0
M  END
$$$$
