MCW.pdb
     RDKit          3D

 29 30  0  0  1  0  0  0  0  0999 V2000
   26.7363  -18.1513  -21.6123 C   0  0  0  0  0  0  0  0  0  0  0  0
   24.9972  -18.4975  -21.9336 S   0  0  0  0  0  0  0  0  0  0  0  0
   23.9264  -17.5222  -20.8489 C   0  0  0  0  0  0  0  0  0  0  0  0
   23.4997  -18.3205  -19.6570 C   0  0  0  0  0  0  0  0  0  0  0  0
   24.3791  -17.9774  -18.4748 C   0  0  2  0  0  0  0  0  0  0  0  0
   25.5705  -17.2782  -18.8609 N   0  0  0  0  0  0  0  0  0  0  0  0
   24.6427  -19.2117  -17.7208 C   0  0  0  0  0  0  0  0  0  0  0  0
   23.6490  -19.8453  -17.2777 O   0  0  0  0  0  0  0  0  0  0  0  0
   25.9313  -19.7417  -17.4553 N   0  0  0  0  0  0  0  0  0  0  0  0
   26.0905  -20.8973  -16.5807 C   0  0  1  0  0  0  0  0  0  0  0  0
   27.3497  -21.6209  -17.0797 C   0  0  0  0  0  0  0  0  0  0  0  0
   27.8762  -22.9415  -15.9886 S   0  0  0  0  0  0  0  0  0  0  0  0
   26.2793  -20.4422  -15.1787 C   0  0  0  0  0  0  0  0  0  0  0  0
   26.6504  -19.2363  -14.9663 O   0  0  0  0  0  0  0  0  0  0  0  0
   26.0842  -21.2268  -14.0284 N   0  0  0  0  0  0  0  0  0  0  0  0
   26.5472  -20.8547  -12.7050 C   0  0  1  0  0  0  0  0  0  0  0  0
   25.6286  -19.7114  -12.2510 C   0  0  0  0  0  0  0  0  0  0  0  0
   25.9528  -19.2622  -10.8973 C   0  0  0  0  0  0  0  0  0  0  0  0
   26.7191  -18.1569  -10.5950 C   0  0  0  0  0  0  0  0  0  0  0  0
   26.7953  -18.0662   -9.2521 N   0  0  0  0  0  0  0  0  0  0  0  0
   26.0972  -19.0850   -8.7058 C   0  0  0  0  0  0  0  0  0  0  0  0
   25.8387  -19.4782   -7.3995 C   0  0  0  0  0  0  0  0  0  0  0  0
   25.0748  -20.5885   -7.1011 C   0  0  0  0  0  0  0  0  0  0  0  0
   24.5430  -21.3434   -8.1444 C   0  0  0  0  0  0  0  0  0  0  0  0
   24.7783  -20.9836   -9.4545 C   0  0  0  0  0  0  0  0  0  0  0  0
   25.5521  -19.8592   -9.7369 C   0  0  0  0  0  0  0  0  0  0  0  0
   26.4161  -21.9940  -11.7669 C   0  0  0  0  0  0  0  0  0  0  0  0
   25.4769  -22.8321  -11.8301 O   0  0  0  0  0  0  0  0  0  0  0  0
   27.3452  -22.1900  -10.7554 O   0  0  0  0  0  0  0  0  0  0  0  0
  2  1  1  0
  3  2  1  0
  4  3  1  0
  4  5  1  0
  5  6  1  6
  7  5  1  0
  7  8  2  0
  9 10  1  0
  9  7  1  0
 10 13  1  0
 11 12  1  0
 10 11  1  6
 13 15  1  0
 14 13  2  0
 15 16  1  0
 16 27  1  0
 16 17  1  1
 18 17  1  0
 19 18  2  0
 20 21  1  0
 20 19  1  0
 21 26  2  0
 22 23  2  0
 22 21  1  0
 23 24  1  0
 24 25  2  0
 26 18  1  0
 26 25  1  0
 27 28  2  0
 27 29  1  0
M  END
$$$$
