MCW.pdb
     RDKit          3D

 29 30  0  0  1  0  0  0  0  0999 V2000
   24.5988  -26.5478  -21.0466 C   0  0  0  0  0  0  0  0  0  0  0  0
   25.7542  -27.8469  -21.5206 S   0  0  0  0  0  0  0  0  0  0  0  0
   27.2916  -27.7307  -20.5734 C   0  0  0  0  0  0  0  0  0  0  0  0
   27.0557  -27.0833  -19.2448 C   0  0  0  0  0  0  0  0  0  0  0  0
   28.3734  -26.9153  -18.5207 C   0  0  2  0  0  0  0  0  0  0  0  0
   28.9155  -28.1643  -18.0697 N   0  0  0  0  0  0  0  0  0  0  0  0
   28.1866  -25.9341  -17.4420 C   0  0  0  0  0  0  0  0  0  0  0  0
   28.0281  -26.3774  -16.2743 O   0  0  0  0  0  0  0  0  0  0  0  0
   28.1715  -24.5267  -17.6181 N   0  0  0  0  0  0  0  0  0  0  0  0
   28.0071  -23.6393  -16.4730 C   0  0  1  0  0  0  0  0  0  0  0  0
   29.0195  -22.5039  -16.6833 C   0  0  0  0  0  0  0  0  0  0  0  0
   28.5558  -21.3899  -18.0083 S   0  0  0  0  0  0  0  0  0  0  0  0
   26.6231  -23.0984  -16.4530 C   0  0  0  0  0  0  0  0  0  0  0  0
   25.6727  -23.8183  -16.9171 O   0  0  0  0  0  0  0  0  0  0  0  0
   26.2421  -21.8381  -15.9597 N   0  0  0  0  0  0  0  0  0  0  0  0
   24.9831  -21.5770  -15.2881 C   0  0  1  0  0  0  0  0  0  0  0  0
   24.9978  -22.4511  -14.0260 C   0  0  0  0  0  0  0  0  0  0  0  0
   24.2171  -21.8518  -12.9441 C   0  0  0  0  0  0  0  0  0  0  0  0
   22.8642  -21.5926  -12.9971 C   0  0  0  0  0  0  0  0  0  0  0  0
   22.5059  -21.0427  -11.8197 N   0  0  0  0  0  0  0  0  0  0  0  0
   23.5983  -20.9508  -11.0309 C   0  0  0  0  0  0  0  0  0  0  0  0
   23.8145  -20.4761   -9.7440 C   0  0  0  0  0  0  0  0  0  0  0  0
   25.0606  -20.4952   -9.1508 C   0  0  0  0  0  0  0  0  0  0  0  0
   26.1415  -21.0078   -9.8649 C   0  0  0  0  0  0  0  0  0  0  0  0
   25.9653  -21.4883  -11.1452 C   0  0  0  0  0  0  0  0  0  0  0  0
   24.6996  -21.4611  -11.7284 C   0  0  0  0  0  0  0  0  0  0  0  0
   24.8856  -20.1509  -14.8985 C   0  0  0  0  0  0  0  0  0  0  0  0
   25.8661  -19.4879  -14.4652 O   0  0  0  0  0  0  0  0  0  0  0  0
   23.6810  -19.4697  -14.9974 O   0  0  0  0  0  0  0  0  0  0  0  0
  2  1  1  0
  3  2  1  0
  4  3  1  0
  4  5  1  0
  5  6  1  1
  7  5  1  0
  7  8  2  0
  9 10  1  0
  9  7  1  0
 10 13  1  0
 11 12  1  0
 10 11  1  6
 13 15  1  0
 14 13  2  0
 15 16  1  0
 16 27  1  0
 16 17  1  1
 18 17  1  0
 19 18  2  0
 20 21  1  0
 20 19  1  0
 21 26  2  0
 22 23  2  0
 22 21  1  0
 23 24  1  0
 24 25  2  0
 26 18  1  0
 26 25  1  0
 27 28  2  0
 27 29  1  0
M  END
$$$$
