MCW.pdb
     RDKit          3D

 29 30  0  0  1  0  0  0  0  0999 V2000
   18.3620  -18.0013  -14.9867 C   0  0  0  0  0  0  0  0  0  0  0  0
   18.8714  -18.4042  -16.6676 S   0  0  0  0  0  0  0  0  0  0  0  0
   20.6104  -18.9013  -16.7212 C   0  0  0  0  0  0  0  0  0  0  0  0
   20.9749  -19.7097  -15.5155 C   0  0  0  0  0  0  0  0  0  0  0  0
   22.4779  -19.7142  -15.3426 C   0  0  2  0  0  0  0  0  0  0  0  0
   23.1596  -20.2713  -16.4749 N   0  0  0  0  0  0  0  0  0  0  0  0
   22.7958  -20.3903  -14.0764 C   0  0  0  0  0  0  0  0  0  0  0  0
   21.9719  -21.2411  -13.6493 O   0  0  0  0  0  0  0  0  0  0  0  0
   23.9600  -20.1561  -13.3007 N   0  0  0  0  0  0  0  0  0  0  0  0
   24.3558  -21.0951  -12.2580 C   0  0  1  0  0  0  0  0  0  0  0  0
   24.8265  -22.3564  -12.9969 C   0  0  0  0  0  0  0  0  0  0  0  0
   26.3847  -22.1260  -13.8515 S   0  0  0  0  0  0  0  0  0  0  0  0
   25.4702  -20.5187  -11.4615 C   0  0  0  0  0  0  0  0  0  0  0  0
   26.3396  -19.7906  -12.0539 O   0  0  0  0  0  0  0  0  0  0  0  0
   25.6700  -20.6977  -10.0813 N   0  0  0  0  0  0  0  0  0  0  0  0
   26.7742  -20.1183   -9.3401 C   0  0  1  0  0  0  0  0  0  0  0  0
   26.3384  -20.1339   -7.8680 C   0  0  0  0  0  0  0  0  0  0  0  0
   27.2756  -19.3992   -7.0188 C   0  0  0  0  0  0  0  0  0  0  0  0
   27.6659  -18.0926   -7.2209 C   0  0  0  0  0  0  0  0  0  0  0  0
   28.5314  -17.7672   -6.2399 N   0  0  0  0  0  0  0  0  0  0  0  0
   28.6933  -18.8351   -5.4292 C   0  0  0  0  0  0  0  0  0  0  0  0
   29.4483  -19.0659   -4.2870 C   0  0  0  0  0  0  0  0  0  0  0  0
   29.4368  -20.2787   -3.6281 C   0  0  0  0  0  0  0  0  0  0  0  0
   28.6411  -21.3096   -4.1234 C   0  0  0  0  0  0  0  0  0  0  0  0
   27.8776  -21.1174   -5.2553 C   0  0  0  0  0  0  0  0  0  0  0  0
   27.9017  -19.8858   -5.9076 C   0  0  0  0  0  0  0  0  0  0  0  0
   27.9975  -20.9386   -9.5004 C   0  0  0  0  0  0  0  0  0  0  0  0
   27.9742  -22.1942   -9.6085 O   0  0  0  0  0  0  0  0  0  0  0  0
   29.2501  -20.3434   -9.5393 O   0  0  0  0  0  0  0  0  0  0  0  0
  2  1  1  0
  3  2  1  0
  4  3  1  0
  4  5  1  0
  5  6  1  6
  7  5  1  0
  7  8  2  0
  9 10  1  0
  9  7  1  0
 10 13  1  0
 11 12  1  0
 10 11  1  6
 13 15  1  0
 14 13  2  0
 15 16  1  0
 16 27  1  0
 16 17  1  1
 18 17  1  0
 19 18  2  0
 20 21  1  0
 20 19  1  0
 21 26  2  0
 22 23  2  0
 22 21  1  0
 23 24  1  0
 24 25  2  0
 26 18  1  0
 26 25  1  0
 27 28  2  0
 27 29  1  0
M  END
$$$$
