MCW.pdb
     RDKit          3D

 29 30  0  0  1  0  0  0  0  0999 V2000
   28.1640  -15.7840  -18.0051 C   0  0  0  0  0  0  0  0  0  0  0  0
   29.8032  -16.5202  -17.8691 S   0  0  0  0  0  0  0  0  0  0  0  0
   29.7758  -17.9819  -16.8028 C   0  0  0  0  0  0  0  0  0  0  0  0
   28.6053  -17.9446  -15.8710 C   0  0  0  0  0  0  0  0  0  0  0  0
   28.6261  -19.1673  -14.9803 C   0  0  2  0  0  0  0  0  0  0  0  0
   28.7789  -20.3851  -15.7225 N   0  0  0  0  0  0  0  0  0  0  0  0
   27.4239  -19.1438  -14.1343 C   0  0  0  0  0  0  0  0  0  0  0  0
   26.9825  -18.0183  -13.7831 O   0  0  0  0  0  0  0  0  0  0  0  0
   26.7249  -20.2932  -13.6846 N   0  0  0  0  0  0  0  0  0  0  0  0
   25.5656  -20.1594  -12.8107 C   0  0  1  0  0  0  0  0  0  0  0  0
   24.4329  -20.9262  -13.5089 C   0  0  0  0  0  0  0  0  0  0  0  0
   24.8886  -22.6039  -13.9442 S   0  0  0  0  0  0  0  0  0  0  0  0
   25.8620  -20.7696  -11.4884 C   0  0  0  0  0  0  0  0  0  0  0  0
   26.3881  -21.9352  -11.4509 O   0  0  0  0  0  0  0  0  0  0  0  0
   25.6159  -20.1762  -10.2377 N   0  0  0  0  0  0  0  0  0  0  0  0
   25.5564  -20.9119   -8.9889 C   0  0  1  0  0  0  0  0  0  0  0  0
   26.0887  -19.9510   -7.9162 C   0  0  0  0  0  0  0  0  0  0  0  0
   27.4761  -20.2501   -7.5628 C   0  0  0  0  0  0  0  0  0  0  0  0
   28.3509  -20.9743   -8.3442 C   0  0  0  0  0  0  0  0  0  0  0  0
   29.5278  -21.0384   -7.6899 N   0  0  0  0  0  0  0  0  0  0  0  0
   29.4131  -20.3738   -6.5199 C   0  0  0  0  0  0  0  0  0  0  0  0
   30.2874  -20.1210   -5.4712 C   0  0  0  0  0  0  0  0  0  0  0  0
   29.9135  -19.3955   -4.3581 C   0  0  0  0  0  0  0  0  0  0  0  0
   28.6144  -18.8979   -4.2805 C   0  0  0  0  0  0  0  0  0  0  0  0
   27.7182  -19.1287   -5.3027 C   0  0  0  0  0  0  0  0  0  0  0  0
   28.1135  -19.8635   -6.4192 C   0  0  0  0  0  0  0  0  0  0  0  0
   24.1583  -21.2828   -8.6680 C   0  0  0  0  0  0  0  0  0  0  0  0
   23.1673  -20.8599   -9.3221 O   0  0  0  0  0  0  0  0  0  0  0  0
   23.8756  -22.1321   -7.6080 O   0  0  0  0  0  0  0  0  0  0  0  0
  2  1  1  0
  3  2  1  0
  4  3  1  0
  4  5  1  0
  5  6  1  6
  7  5  1  0
  7  8  2  0
  9 10  1  0
  9  7  1  0
 10 13  1  0
 11 12  1  0
 10 11  1  6
 13 15  1  0
 14 13  2  0
 15 16  1  0
 16 27  1  0
 16 17  1  1
 18 17  1  0
 19 18  2  0
 20 21  1  0
 20 19  1  0
 21 26  2  0
 22 23  2  0
 22 21  1  0
 23 24  1  0
 24 25  2  0
 26 18  1  0
 26 25  1  0
 27 28  2  0
 27 29  1  0
M  END
$$$$
