MCW.pdb
     RDKit          3D

 29 30  0  0  1  0  0  0  0  0999 V2000
   29.0327  -14.9016  -15.7502 C   0  0  0  0  0  0  0  0  0  0  0  0
   30.1690  -16.0659  -16.5253 S   0  0  0  0  0  0  0  0  0  0  0  0
   29.4894  -17.7430  -16.5199 C   0  0  0  0  0  0  0  0  0  0  0  0
   28.5098  -17.9215  -15.4026 C   0  0  0  0  0  0  0  0  0  0  0  0
   27.9670  -19.3334  -15.4239 C   0  0  2  0  0  0  0  0  0  0  0  0
   27.5541  -19.7436  -16.7348 N   0  0  0  0  0  0  0  0  0  0  0  0
   26.9016  -19.4347  -14.4158 C   0  0  0  0  0  0  0  0  0  0  0  0
   26.0531  -18.5056  -14.3717 O   0  0  0  0  0  0  0  0  0  0  0  0
   26.7584  -20.4997  -13.4898 N   0  0  0  0  0  0  0  0  0  0  0  0
   25.5587  -20.6101  -12.6687 C   0  0  1  0  0  0  0  0  0  0  0  0
   24.7759  -21.8007  -13.2415 C   0  0  0  0  0  0  0  0  0  0  0  0
   24.1912  -21.5151  -14.9113 S   0  0  0  0  0  0  0  0  0  0  0  0
   25.9405  -20.8757  -11.2573 C   0  0  0  0  0  0  0  0  0  0  0  0
   27.1587  -21.1623  -10.9912 O   0  0  0  0  0  0  0  0  0  0  0  0
   25.0717  -20.8414  -10.1523 N   0  0  0  0  0  0  0  0  0  0  0  0
   25.4665  -21.1856   -8.7995 C   0  0  1  0  0  0  0  0  0  0  0  0
   26.5667  -20.1837   -8.4215 C   0  0  0  0  0  0  0  0  0  0  0  0
   26.9351  -20.2921   -7.0102 C   0  0  0  0  0  0  0  0  0  0  0  0
   26.3199  -21.1197   -6.0954 C   0  0  0  0  0  0  0  0  0  0  0  0
   26.9319  -20.9438   -4.9072 N   0  0  0  0  0  0  0  0  0  0  0  0
   27.9138  -20.0282   -5.0538 C   0  0  0  0  0  0  0  0  0  0  0  0
   28.8436  -19.4722   -4.1852 C   0  0  0  0  0  0  0  0  0  0  0  0
   29.7644  -18.5295   -4.5958 C   0  0  0  0  0  0  0  0  0  0  0  0
   29.7639  -18.1190   -5.9272 C   0  0  0  0  0  0  0  0  0  0  0  0
   28.8555  -18.6490   -6.8189 C   0  0  0  0  0  0  0  0  0  0  0  0
   27.9329  -19.6002   -6.3865 C   0  0  0  0  0  0  0  0  0  0  0  0
   24.3235  -21.0366   -7.8686 C   0  0  0  0  0  0  0  0  0  0  0  0
   23.3415  -20.2813   -8.1009 O   0  0  0  0  0  0  0  0  0  0  0  0
   24.2863  -21.7401   -6.6734 O   0  0  0  0  0  0  0  0  0  0  0  0
  2  1  1  0
  3  2  1  0
  4  3  1  0
  4  5  1  0
  5  6  1  6
  7  5  1  0
  7  8  2  0
  9 10  1  0
  9  7  1  0
 10 13  1  0
 11 12  1  0
 10 11  1  6
 13 15  1  0
 14 13  2  0
 15 16  1  0
 16 27  1  0
 16 17  1  1
 18 17  1  0
 19 18  2  0
 20 21  1  0
 20 19  1  0
 21 26  2  0
 22 23  2  0
 22 21  1  0
 23 24  1  0
 24 25  2  0
 26 18  1  0
 26 25  1  0
 27 28  2  0
 27 29  1  0
M  END
$$$$
