MCW.pdb
     RDKit          3D

 29 30  0  0  1  0  0  0  0  0999 V2000
   19.7719  -13.8280  -19.0481 C   0  0  0  0  0  0  0  0  0  0  0  0
   20.7807  -14.8458  -20.1407 S   0  0  0  0  0  0  0  0  0  0  0  0
   21.8365  -13.8226  -21.1955 C   0  0  0  0  0  0  0  0  0  0  0  0
   22.3688  -12.6448  -20.4409 C   0  0  0  0  0  0  0  0  0  0  0  0
   23.2159  -11.7931  -21.3606 C   0  0  2  0  0  0  0  0  0  0  0  0
   24.5541  -12.2919  -21.4937 N   0  0  0  0  0  0  0  0  0  0  0  0
   23.1533  -10.4016  -20.8904 C   0  0  0  0  0  0  0  0  0  0  0  0
   24.0779  -10.0013  -20.1355 O   0  0  0  0  0  0  0  0  0  0  0  0
   22.1303   -9.4771  -21.2232 N   0  0  0  0  0  0  0  0  0  0  0  0
   22.1510   -8.1237  -20.6816 C   0  0  1  0  0  0  0  0  0  0  0  0
   21.3738   -7.2648  -21.6898 C   0  0  0  0  0  0  0  0  0  0  0  0
   21.0847   -5.5942  -21.1092 S   0  0  0  0  0  0  0  0  0  0  0  0
   21.4748   -8.1033  -19.3584 C   0  0  0  0  0  0  0  0  0  0  0  0
   20.8639   -9.1551  -18.9616 O   0  0  0  0  0  0  0  0  0  0  0  0
   21.4392   -7.0122  -18.4723 N   0  0  0  0  0  0  0  0  0  0  0  0
   20.7228   -7.0152  -17.2109 C   0  0  1  0  0  0  0  0  0  0  0  0
   21.4742   -8.0058  -16.3101 C   0  0  0  0  0  0  0  0  0  0  0  0
   20.8787   -8.0829  -14.9765 C   0  0  0  0  0  0  0  0  0  0  0  0
   21.1965   -7.2549  -13.9212 C   0  0  0  0  0  0  0  0  0  0  0  0
   20.4462   -7.6297  -12.8659 N   0  0  0  0  0  0  0  0  0  0  0  0
   19.6672   -8.6703  -13.2323 C   0  0  0  0  0  0  0  0  0  0  0  0
   18.7210   -9.4399  -12.5686 C   0  0  0  0  0  0  0  0  0  0  0  0
   18.0469  -10.4740  -13.1862 C   0  0  0  0  0  0  0  0  0  0  0  0
   18.3227  -10.7584  -14.5219 C   0  0  0  0  0  0  0  0  0  0  0  0
   19.2560  -10.0156  -15.2136 C   0  0  0  0  0  0  0  0  0  0  0  0
   19.9271   -8.9750  -14.5736 C   0  0  0  0  0  0  0  0  0  0  0  0
   20.7497   -5.6691  -16.5925 C   0  0  0  0  0  0  0  0  0  0  0  0
   20.0210   -5.3462  -15.6160 O   0  0  0  0  0  0  0  0  0  0  0  0
   21.5995   -4.6842  -17.0749 O   0  0  0  0  0  0  0  0  0  0  0  0
  2  1  1  0
  3  2  1  0
  4  3  1  0
  4  5  1  0
  5  6  1  1
  7  5  1  0
  7  8  2  0
  9 10  1  0
  9  7  1  0
 10 13  1  0
 11 12  1  0
 10 11  1  6
 13 15  1  0
 14 13  2  0
 15 16  1  0
 16 27  1  0
 16 17  1  1
 18 17  1  0
 19 18  2  0
 20 21  1  0
 20 19  1  0
 21 26  2  0
 22 23  2  0
 22 21  1  0
 23 24  1  0
 24 25  2  0
 26 18  1  0
 26 25  1  0
 27 28  2  0
 27 29  1  0
M  END
$$$$
