MCW.pdb
     RDKit          3D

 29 30  0  0  1  0  0  0  0  0999 V2000
   31.3549  -24.5430  -17.1353 C   0  0  0  0  0  0  0  0  0  0  0  0
   31.1708  -23.9796  -18.8370 S   0  0  0  0  0  0  0  0  0  0  0  0
   30.0596  -22.5549  -18.9363 C   0  0  0  0  0  0  0  0  0  0  0  0
   30.0306  -21.8057  -17.6410 C   0  0  0  0  0  0  0  0  0  0  0  0
   28.7927  -22.1891  -16.8602 C   0  0  2  0  0  0  0  0  0  0  0  0
   27.5944  -22.0764  -17.6402 N   0  0  0  0  0  0  0  0  0  0  0  0
   28.7628  -21.3965  -15.6223 C   0  0  0  0  0  0  0  0  0  0  0  0
   29.8082  -21.3743  -14.9212 O   0  0  0  0  0  0  0  0  0  0  0  0
   27.6452  -20.6559  -15.1592 N   0  0  0  0  0  0  0  0  0  0  0  0
   27.7193  -19.9082  -13.9097 C   0  0  1  0  0  0  0  0  0  0  0  0
   27.0721  -18.5473  -14.2053 C   0  0  0  0  0  0  0  0  0  0  0  0
   26.5252  -17.6967  -12.7258 S   0  0  0  0  0  0  0  0  0  0  0  0
   26.9571  -20.6224  -12.8526 C   0  0  0  0  0  0  0  0  0  0  0  0
   25.8086  -21.1070  -13.1409 O   0  0  0  0  0  0  0  0  0  0  0  0
   27.3847  -20.8257  -11.5287 N   0  0  0  0  0  0  0  0  0  0  0  0
   26.5982  -21.5077  -10.5184 C   0  0  1  0  0  0  0  0  0  0  0  0
   27.5529  -21.7428   -9.3392 C   0  0  0  0  0  0  0  0  0  0  0  0
   27.4361  -20.6899   -8.3307 C   0  0  0  0  0  0  0  0  0  0  0  0
   26.5114  -19.6680   -8.3603 C   0  0  0  0  0  0  0  0  0  0  0  0
   26.7127  -18.9016   -7.2697 N   0  0  0  0  0  0  0  0  0  0  0  0
   27.7387  -19.4164   -6.5582 C   0  0  0  0  0  0  0  0  0  0  0  0
   28.3651  -19.0479   -5.3751 C   0  0  0  0  0  0  0  0  0  0  0  0
   29.4206  -19.7629   -4.8460 C   0  0  0  0  0  0  0  0  0  0  0  0
   29.8762  -20.8940   -5.5197 C   0  0  0  0  0  0  0  0  0  0  0  0
   29.2789  -21.2907   -6.6975 C   0  0  0  0  0  0  0  0  0  0  0  0
   28.2141  -20.5565   -7.2169 C   0  0  0  0  0  0  0  0  0  0  0  0
   25.4682  -20.6580  -10.0754 C   0  0  0  0  0  0  0  0  0  0  0  0
   25.4409  -19.4089  -10.2412 O   0  0  0  0  0  0  0  0  0  0  0  0
   24.3661  -21.2166   -9.4444 O   0  0  0  0  0  0  0  0  0  0  0  0
  2  1  1  0
  3  2  1  0
  4  3  1  0
  4  5  1  0
  5  6  1  6
  7  5  1  0
  7  8  2  0
  9 10  1  0
  9  7  1  0
 10 13  1  0
 11 12  1  0
 10 11  1  6
 13 15  1  0
 14 13  2  0
 15 16  1  0
 16 27  1  0
 16 17  1  1
 18 17  1  0
 19 18  2  0
 20 21  1  0
 20 19  1  0
 21 26  2  0
 22 23  2  0
 22 21  1  0
 23 24  1  0
 24 25  2  0
 26 18  1  0
 26 25  1  0
 27 28  2  0
 27 29  1  0
M  END
$$$$
