MCW.pdb
     RDKit          3D

 29 30  0  0  1  0  0  0  0  0999 V2000
   30.0889  -18.6937  -14.2447 C   0  0  0  0  0  0  0  0  0  0  0  0
   29.9497  -18.6950  -16.0413 S   0  0  0  0  0  0  0  0  0  0  0  0
   28.2675  -19.1072  -16.5654 C   0  0  0  0  0  0  0  0  0  0  0  0
   27.2860  -18.8586  -15.4633 C   0  0  0  0  0  0  0  0  0  0  0  0
   25.8934  -19.2179  -15.9329 C   0  0  2  0  0  0  0  0  0  0  0  0
   25.4571  -18.4048  -17.0309 N   0  0  0  0  0  0  0  0  0  0  0  0
   24.9888  -19.1730  -14.7748 C   0  0  0  0  0  0  0  0  0  0  0  0
   24.7118  -18.0415  -14.2974 O   0  0  0  0  0  0  0  0  0  0  0  0
   24.4053  -20.3080  -14.1557 N   0  0  0  0  0  0  0  0  0  0  0  0
   23.5045  -20.1504  -13.0202 C   0  0  1  0  0  0  0  0  0  0  0  0
   22.1941  -20.8345  -13.4361 C   0  0  0  0  0  0  0  0  0  0  0  0
   21.4747  -20.1266  -14.9170 S   0  0  0  0  0  0  0  0  0  0  0  0
   24.0805  -20.8229  -11.8267 C   0  0  0  0  0  0  0  0  0  0  0  0
   24.4945  -22.0284  -11.9377 O   0  0  0  0  0  0  0  0  0  0  0  0
   24.2212  -20.2498  -10.5505 N   0  0  0  0  0  0  0  0  0  0  0  0
   24.6071  -20.9932   -9.3661 C   0  0  1  0  0  0  0  0  0  0  0  0
   25.3514  -19.9909   -8.4723 C   0  0  0  0  0  0  0  0  0  0  0  0
   26.7883  -20.2619   -8.4363 C   0  0  0  0  0  0  0  0  0  0  0  0
   27.4821  -20.9701   -9.3940 C   0  0  0  0  0  0  0  0  0  0  0  0
   28.7758  -21.0098   -9.0173 N   0  0  0  0  0  0  0  0  0  0  0  0
   28.9105  -20.3453   -7.8493 C   0  0  0  0  0  0  0  0  0  0  0  0
   29.9904  -20.0733   -7.0200 C   0  0  0  0  0  0  0  0  0  0  0  0
   29.8585  -19.3532   -5.8499 C   0  0  0  0  0  0  0  0  0  0  0  0
   28.5995  -18.8812   -5.4848 C   0  0  0  0  0  0  0  0  0  0  0  0
   27.5036  -19.1316   -6.2833 C   0  0  0  0  0  0  0  0  0  0  0  0
   27.6557  -19.8606   -7.4615 C   0  0  0  0  0  0  0  0  0  0  0  0
   23.4098  -21.4952   -8.6522 C   0  0  0  0  0  0  0  0  0  0  0  0
   23.4699  -22.0893   -7.5422 O   0  0  0  0  0  0  0  0  0  0  0  0
   22.1418  -21.3275   -9.1897 O   0  0  0  0  0  0  0  0  0  0  0  0
  2  1  1  0
  3  2  1  0
  4  3  1  0
  4  5  1  0
  5  6  1  6
  7  5  1  0
  7  8  2  0
  9 10  1  0
  9  7  1  0
 10 13  1  0
 11 12  1  0
 10 11  1  6
 13 15  1  0
 14 13  2  0
 15 16  1  0
 16 27  1  0
 16 17  1  1
 18 17  1  0
 19 18  2  0
 20 21  1  0
 20 19  1  0
 21 26  2  0
 22 23  2  0
 22 21  1  0
 23 24  1  0
 24 25  2  0
 26 18  1  0
 26 25  1  0
 27 28  2  0
 27 29  1  0
M  END
$$$$
