MCW.pdb
     RDKit          3D

 29 30  0  0  1  0  0  0  0  0999 V2000
   27.7943  -13.4106  -15.8541 C   0  0  0  0  0  0  0  0  0  0  0  0
   26.5611  -14.7154  -16.0093 S   0  0  0  0  0  0  0  0  0  0  0  0
   27.3324  -16.3516  -15.9599 C   0  0  0  0  0  0  0  0  0  0  0  0
   26.2974  -17.4326  -15.9479 C   0  0  0  0  0  0  0  0  0  0  0  0
   26.9692  -18.7804  -16.0930 C   0  0  2  0  0  0  0  0  0  0  0  0
   27.6128  -18.9393  -17.3649 N   0  0  0  0  0  0  0  0  0  0  0  0
   25.9764  -19.8255  -15.8042 C   0  0  0  0  0  0  0  0  0  0  0  0
   25.4000  -20.3662  -16.7842 O   0  0  0  0  0  0  0  0  0  0  0  0
   25.6195  -20.2698  -14.5052 N   0  0  0  0  0  0  0  0  0  0  0  0
   24.6614  -21.3550  -14.3315 C   0  0  1  0  0  0  0  0  0  0  0  0
   25.3959  -22.4253  -13.5109 C   0  0  0  0  0  0  0  0  0  0  0  0
   26.8023  -23.1251  -14.3734 S   0  0  0  0  0  0  0  0  0  0  0  0
   23.4738  -20.8604  -13.5876 C   0  0  0  0  0  0  0  0  0  0  0  0
   23.6496  -20.0482  -12.6148 O   0  0  0  0  0  0  0  0  0  0  0  0
   22.1370  -21.2049  -13.8543 N   0  0  0  0  0  0  0  0  0  0  0  0
   20.9985  -20.6331  -13.1605 C   0  0  1  0  0  0  0  0  0  0  0  0
   21.0884  -19.1185  -13.3951 C   0  0  0  0  0  0  0  0  0  0  0  0
   21.0071  -18.7859  -14.8171 C   0  0  0  0  0  0  0  0  0  0  0  0
   19.9251  -19.0512  -15.6290 C   0  0  0  0  0  0  0  0  0  0  0  0
   20.2200  -18.6009  -16.8649 N   0  0  0  0  0  0  0  0  0  0  0  0
   21.4578  -18.0608  -16.8484 C   0  0  0  0  0  0  0  0  0  0  0  0
   22.2544  -17.4598  -17.8139 C   0  0  0  0  0  0  0  0  0  0  0  0
   23.5167  -16.9775  -17.5324 C   0  0  0  0  0  0  0  0  0  0  0  0
   24.0121  -17.0960  -16.2356 C   0  0  0  0  0  0  0  0  0  0  0  0
   23.2497  -17.6869  -15.2504 C   0  0  0  0  0  0  0  0  0  0  0  0
   21.9771  -18.1683  -15.5529 C   0  0  0  0  0  0  0  0  0  0  0  0
   19.7299  -21.1453  -13.7295 C   0  0  0  0  0  0  0  0  0  0  0  0
   19.6777  -21.8339  -14.7838 O   0  0  0  0  0  0  0  0  0  0  0  0
   18.5173  -20.8814  -13.1092 O   0  0  0  0  0  0  0  0  0  0  0  0
  2  1  1  0
  3  2  1  0
  4  3  1  0
  4  5  1  0
  5  6  1  6
  7  5  1  0
  7  8  2  0
  9 10  1  0
  9  7  1  0
 10 13  1  0
 11 12  1  0
 10 11  1  1
 13 15  1  0
 14 13  2  0
 15 16  1  0
 16 27  1  0
 16 17  1  6
 18 17  1  0
 19 18  2  0
 20 21  1  0
 20 19  1  0
 21 26  2  0
 22 23  2  0
 22 21  1  0
 23 24  1  0
 24 25  2  0
 26 18  1  0
 26 25  1  0
 27 28  2  0
 27 29  1  0
M  END
$$$$
