MCW.pdb
     RDKit          3D

 29 30  0  0  1  0  0  0  0  0999 V2000
   23.4184  -19.0435  -16.4094 C   0  0  0  0  0  0  0  0  0  0  0  0
   22.4980  -20.4742  -17.0036 S   0  0  0  0  0  0  0  0  0  0  0  0
   21.9932  -21.5412  -15.6321 C   0  0  0  0  0  0  0  0  0  0  0  0
   21.2020  -22.7117  -16.1259 C   0  0  0  0  0  0  0  0  0  0  0  0
   22.1432  -23.8046  -16.5825 C   0  0  2  0  0  0  0  0  0  0  0  0
   22.5034  -23.6772  -17.9650 N   0  0  0  0  0  0  0  0  0  0  0  0
   21.5389  -25.1034  -16.2519 C   0  0  0  0  0  0  0  0  0  0  0  0
   20.4933  -25.4323  -16.8712 O   0  0  0  0  0  0  0  0  0  0  0  0
   22.0452  -26.0128  -15.2882 N   0  0  0  0  0  0  0  0  0  0  0  0
   21.3493  -27.2644  -15.0144 C   0  0  1  0  0  0  0  0  0  0  0  0
   22.0894  -28.3341  -15.8308 C   0  0  0  0  0  0  0  0  0  0  0  0
   22.5103  -27.7853  -17.4841 S   0  0  0  0  0  0  0  0  0  0  0  0
   21.4307  -27.5758  -13.5636 C   0  0  0  0  0  0  0  0  0  0  0  0
   22.3897  -27.0776  -12.8786 O   0  0  0  0  0  0  0  0  0  0  0  0
   20.5325  -28.3861  -12.8470 N   0  0  0  0  0  0  0  0  0  0  0  0
   20.6545  -28.6759  -11.4309 C   0  0  1  0  0  0  0  0  0  0  0  0
   20.4653  -27.3309  -10.7150 C   0  0  0  0  0  0  0  0  0  0  0  0
   19.1709  -26.7277  -11.0309 C   0  0  0  0  0  0  0  0  0  0  0  0
   18.9817  -25.6771  -11.9032 C   0  0  0  0  0  0  0  0  0  0  0  0
   17.6623  -25.4024  -11.9337 N   0  0  0  0  0  0  0  0  0  0  0  0
   17.0205  -26.2529  -11.1039 C   0  0  0  0  0  0  0  0  0  0  0  0
   15.6889  -26.4247  -10.7496 C   0  0  0  0  0  0  0  0  0  0  0  0
   15.2833  -27.3942   -9.8548 C   0  0  0  0  0  0  0  0  0  0  0  0
   16.2402  -28.2313   -9.2851 C   0  0  0  0  0  0  0  0  0  0  0  0
   17.5721  -28.0906   -9.6129 C   0  0  0  0  0  0  0  0  0  0  0  0
   17.9635  -27.1060  -10.5186 C   0  0  0  0  0  0  0  0  0  0  0  0
   19.5957  -29.6176  -10.9980 C   0  0  0  0  0  0  0  0  0  0  0  0
   18.6326  -29.9563  -11.7370 O   0  0  0  0  0  0  0  0  0  0  0  0
   19.6220  -30.1794   -9.7296 O   0  0  0  0  0  0  0  0  0  0  0  0
  2  1  1  0
  3  2  1  0
  4  3  1  0
  4  5  1  0
  5  6  1  6
  7  5  1  0
  7  8  2  0
  9 10  1  0
  9  7  1  0
 10 13  1  0
 11 12  1  0
 10 11  1  6
 13 15  1  0
 14 13  2  0
 15 16  1  0
 16 27  1  0
 16 17  1  1
 18 17  1  0
 19 18  2  0
 20 21  1  0
 20 19  1  0
 21 26  2  0
 22 23  2  0
 22 21  1  0
 23 24  1  0
 24 25  2  0
 26 18  1  0
 26 25  1  0
 27 28  2  0
 27 29  1  0
M  END
$$$$
