MCW.pdb
     RDKit          3D

 29 30  0  0  1  0  0  0  0  0999 V2000
   23.6312  -15.9332  -19.6269 C   0  0  0  0  0  0  0  0  0  0  0  0
   23.2494  -16.9596  -18.1957 S   0  0  0  0  0  0  0  0  0  0  0  0
   24.0455  -16.3192  -16.7022 C   0  0  0  0  0  0  0  0  0  0  0  0
   23.6868  -17.1450  -15.5067 C   0  0  0  0  0  0  0  0  0  0  0  0
   24.8708  -17.9961  -15.1037 C   0  0  2  0  0  0  0  0  0  0  0  0
   25.4869  -18.6460  -16.2241 N   0  0  0  0  0  0  0  0  0  0  0  0
   24.4347  -18.9277  -14.0533 C   0  0  0  0  0  0  0  0  0  0  0  0
   23.2275  -19.2852  -14.0583 O   0  0  0  0  0  0  0  0  0  0  0  0
   25.2712  -19.4532  -13.0355 N   0  0  0  0  0  0  0  0  0  0  0  0
   24.8196  -20.5645  -12.2068 C   0  0  1  0  0  0  0  0  0  0  0  0
   24.7765  -21.7832  -13.1402 C   0  0  0  0  0  0  0  0  0  0  0  0
   26.4056  -22.3495  -13.6269 S   0  0  0  0  0  0  0  0  0  0  0  0
   25.7896  -20.7939  -11.1045 C   0  0  0  0  0  0  0  0  0  0  0  0
   27.0111  -21.0363  -11.3982 O   0  0  0  0  0  0  0  0  0  0  0  0
   25.4909  -20.7695   -9.7308 N   0  0  0  0  0  0  0  0  0  0  0  0
   26.4428  -21.1026   -8.6881 C   0  0  1  0  0  0  0  0  0  0  0  0
   27.3965  -19.9027   -8.5991 C   0  0  0  0  0  0  0  0  0  0  0  0
   28.4837  -20.1452   -7.6513 C   0  0  0  0  0  0  0  0  0  0  0  0
   29.5813  -20.9423   -7.8967 C   0  0  0  0  0  0  0  0  0  0  0  0
   30.3582  -20.9202   -6.7952 N   0  0  0  0  0  0  0  0  0  0  0  0
   29.7762  -20.1306   -5.8669 C   0  0  0  0  0  0  0  0  0  0  0  0
   30.1225  -19.7529   -4.5763 C   0  0  0  0  0  0  0  0  0  0  0  0
   29.3336  -18.9120   -3.8175 C   0  0  0  0  0  0  0  0  0  0  0  0
   28.1480  -18.4232   -4.3620 C   0  0  0  0  0  0  0  0  0  0  0  0
   27.7714  -18.7763   -5.6405 C   0  0  0  0  0  0  0  0  0  0  0  0
   28.5806  -19.6266   -6.3923 C   0  0  0  0  0  0  0  0  0  0  0  0
   25.7526  -21.2806   -7.3892 C   0  0  0  0  0  0  0  0  0  0  0  0
   26.3097  -21.7868   -6.3782 O   0  0  0  0  0  0  0  0  0  0  0  0
   24.4318  -20.8873   -7.2285 O   0  0  0  0  0  0  0  0  0  0  0  0
  2  1  1  0
  3  2  1  0
  4  3  1  0
  4  5  1  0
  5  6  1  6
  7  5  1  0
  7  8  2  0
  9 10  1  0
  9  7  1  0
 10 13  1  0
 11 12  1  0
 10 11  1  6
 13 15  1  0
 14 13  2  0
 15 16  1  0
 16 27  1  0
 16 17  1  1
 18 17  1  0
 19 18  2  0
 20 21  1  0
 20 19  1  0
 21 26  2  0
 22 23  2  0
 22 21  1  0
 23 24  1  0
 24 25  2  0
 26 18  1  0
 26 25  1  0
 27 28  2  0
 27 29  1  0
M  END
$$$$
