MCW.pdb
     RDKit          3D

 29 30  0  0  1  0  0  0  0  0999 V2000
   18.7304  -23.0888  -10.2636 C   0  0  0  0  0  0  0  0  0  0  0  0
   18.0054  -22.0246  -11.5242 S   0  0  0  0  0  0  0  0  0  0  0  0
   18.2760  -22.6984  -13.1816 C   0  0  0  0  0  0  0  0  0  0  0  0
   19.6697  -23.2242  -13.3262 C   0  0  0  0  0  0  0  0  0  0  0  0
   20.5499  -22.1647  -13.9519 C   0  0  2  0  0  0  0  0  0  0  0  0
   20.2380  -21.9369  -15.3333 N   0  0  0  0  0  0  0  0  0  0  0  0
   21.9540  -22.5345  -13.7216 C   0  0  0  0  0  0  0  0  0  0  0  0
   22.2674  -23.7451  -13.8675 O   0  0  0  0  0  0  0  0  0  0  0  0
   22.9810  -21.6305  -13.3475 N   0  0  0  0  0  0  0  0  0  0  0  0
   24.3260  -22.1154  -13.0622 C   0  0  1  0  0  0  0  0  0  0  0  0
   25.0829  -22.0388  -14.3962 C   0  0  0  0  0  0  0  0  0  0  0  0
   25.2872  -20.3601  -14.9892 S   0  0  0  0  0  0  0  0  0  0  0  0
   24.9716  -21.2367  -12.0525 C   0  0  0  0  0  0  0  0  0  0  0  0
   24.6914  -19.9883  -12.0518 O   0  0  0  0  0  0  0  0  0  0  0  0
   25.8856  -21.6522  -11.0681 N   0  0  0  0  0  0  0  0  0  0  0  0
   26.6062  -20.7443  -10.1959 C   0  0  1  0  0  0  0  0  0  0  0  0
   26.4589  -21.3240   -8.7819 C   0  0  0  0  0  0  0  0  0  0  0  0
   26.8673  -20.3626   -7.7581 C   0  0  0  0  0  0  0  0  0  0  0  0
   26.4437  -19.0524   -7.6922 C   0  0  0  0  0  0  0  0  0  0  0  0
   27.0304  -18.4857   -6.6189 N   0  0  0  0  0  0  0  0  0  0  0  0
   27.8098  -19.4061   -6.0112 C   0  0  0  0  0  0  0  0  0  0  0  0
   28.6271  -19.3797   -4.8889 C   0  0  0  0  0  0  0  0  0  0  0  0
   29.3363  -20.4862   -4.4672 C   0  0  0  0  0  0  0  0  0  0  0  0
   29.2311  -21.6725   -5.1902 C   0  0  0  0  0  0  0  0  0  0  0  0
   28.4292  -21.7366   -6.3100 C   0  0  0  0  0  0  0  0  0  0  0  0
   27.7201  -20.6092   -6.7211 C   0  0  0  0  0  0  0  0  0  0  0  0
   28.0411  -20.6979  -10.5622 C   0  0  0  0  0  0  0  0  0  0  0  0
   28.5831  -21.5402  -11.3274 O   0  0  0  0  0  0  0  0  0  0  0  0
   28.8676  -19.7002  -10.0657 O   0  0  0  0  0  0  0  0  0  0  0  0
  2  1  1  0
  3  2  1  0
  4  3  1  0
  4  5  1  0
  5  6  1  6
  7  5  1  0
  7  8  2  0
  9 10  1  0
  9  7  1  0
 10 13  1  0
 11 12  1  0
 10 11  1  6
 13 15  1  0
 14 13  2  0
 15 16  1  0
 16 27  1  0
 16 17  1  1
 18 17  1  0
 19 18  2  0
 20 21  1  0
 20 19  1  0
 21 26  2  0
 22 23  2  0
 22 21  1  0
 23 24  1  0
 24 25  2  0
 26 18  1  0
 26 25  1  0
 27 28  2  0
 27 29  1  0
M  END
$$$$
