MCW.pdb
     RDKit          3D

 29 30  0  0  1  0  0  0  0  0999 V2000
   19.4732  -22.2141    0.8190 C   0  0  0  0  0  0  0  0  0  0  0  0
   18.9456  -20.4983    0.9768 S   0  0  0  0  0  0  0  0  0  0  0  0
   17.2089  -20.3925    1.4740 C   0  0  0  0  0  0  0  0  0  0  0  0
   16.9555  -21.1934    2.7127 C   0  0  0  0  0  0  0  0  0  0  0  0
   15.4986  -21.0771    3.1034 C   0  0  2  0  0  0  0  0  0  0  0  0
   14.7079  -20.4377    2.0919 N   0  0  0  0  0  0  0  0  0  0  0  0
   15.4225  -20.4135    4.4131 C   0  0  0  0  0  0  0  0  0  0  0  0
   14.7062  -19.3820    4.5010 O   0  0  0  0  0  0  0  0  0  0  0  0
   16.0952  -20.8480    5.5839 N   0  0  0  0  0  0  0  0  0  0  0  0
   15.8570  -20.1884    6.8621 C   0  0  1  0  0  0  0  0  0  0  0  0
   16.0944  -21.2647    7.9314 C   0  0  0  0  0  0  0  0  0  0  0  0
   14.9986  -22.6726    7.7620 S   0  0  0  0  0  0  0  0  0  0  0  0
   16.8194  -19.0693    7.0352 C   0  0  0  0  0  0  0  0  0  0  0  0
   18.0031  -19.1955    6.5663 O   0  0  0  0  0  0  0  0  0  0  0  0
   16.5511  -17.8493    7.6806 N   0  0  0  0  0  0  0  0  0  0  0  0
   17.4962  -16.7522    7.7660 C   0  0  1  0  0  0  0  0  0  0  0  0
   17.3396  -15.9676    6.4556 C   0  0  0  0  0  0  0  0  0  0  0  0
   18.2246  -14.8038    6.4132 C   0  0  0  0  0  0  0  0  0  0  0  0
   19.0217  -14.3802    7.4550 C   0  0  0  0  0  0  0  0  0  0  0  0
   19.6881  -13.2838    7.0414 N   0  0  0  0  0  0  0  0  0  0  0  0
   19.3295  -13.0097    5.7685 C   0  0  0  0  0  0  0  0  0  0  0  0
   19.6907  -12.0216    4.8623 C   0  0  0  0  0  0  0  0  0  0  0  0
   19.1645  -11.9623    3.5876 C   0  0  0  0  0  0  0  0  0  0  0  0
   18.2386  -12.9256    3.1929 C   0  0  0  0  0  0  0  0  0  0  0  0
   17.8558  -13.9222    4.0656 C   0  0  0  0  0  0  0  0  0  0  0  0
   18.3976  -13.9664    5.3490 C   0  0  0  0  0  0  0  0  0  0  0  0
   17.1693  -15.8698    8.9105 C   0  0  0  0  0  0  0  0  0  0  0  0
   15.9888  -15.5579    9.2229 O   0  0  0  0  0  0  0  0  0  0  0  0
   18.1745  -15.3379    9.7052 O   0  0  0  0  0  0  0  0  0  0  0  0
  2  1  1  0
  3  2  1  0
  4  3  1  0
  4  5  1  0
  5  6  1  6
  7  5  1  0
  7  8  2  0
  9 10  1  0
  9  7  1  0
 10 13  1  0
 11 12  1  0
 10 11  1  1
 13 15  1  0
 14 13  2  0
 15 16  1  0
 16 27  1  0
 16 17  1  6
 18 17  1  0
 19 18  2  0
 20 21  1  0
 20 19  1  0
 21 26  2  0
 22 23  2  0
 22 21  1  0
 23 24  1  0
 24 25  2  0
 26 18  1  0
 26 25  1  0
 27 28  2  0
 27 29  1  0
M  END
$$$$
