MCW.pdb
     RDKit          3D

 29 30  0  0  1  0  0  0  0  0999 V2000
   23.7026  -26.5823  -16.3064 C   0  0  0  0  0  0  0  0  0  0  0  0
   24.5519  -25.7315  -17.6489 S   0  0  0  0  0  0  0  0  0  0  0  0
   24.5636  -23.9416  -17.3832 C   0  0  0  0  0  0  0  0  0  0  0  0
   25.3054  -23.5897  -16.1318 C   0  0  0  0  0  0  0  0  0  0  0  0
   26.6302  -22.9524  -16.4891 C   0  0  2  0  0  0  0  0  0  0  0  0
   27.5853  -23.9059  -16.9747 N   0  0  0  0  0  0  0  0  0  0  0  0
   27.1045  -22.1883  -15.3260 C   0  0  0  0  0  0  0  0  0  0  0  0
   27.7130  -22.8213  -14.4239 O   0  0  0  0  0  0  0  0  0  0  0  0
   26.9278  -20.7927  -15.1444 N   0  0  0  0  0  0  0  0  0  0  0  0
   27.3579  -20.1467  -13.9101 C   0  0  1  0  0  0  0  0  0  0  0  0
   27.2673  -18.6380  -14.1818 C   0  0  0  0  0  0  0  0  0  0  0  0
   27.1060  -17.6662  -12.6847 S   0  0  0  0  0  0  0  0  0  0  0  0
   26.4442  -20.5264  -12.8013 C   0  0  0  0  0  0  0  0  0  0  0  0
   25.1848  -20.5603  -13.0240 O   0  0  0  0  0  0  0  0  0  0  0  0
   26.8368  -20.8630  -11.4939 N   0  0  0  0  0  0  0  0  0  0  0  0
   25.9103  -21.2129  -10.4339 C   0  0  1  0  0  0  0  0  0  0  0  0
   26.7816  -21.6870   -9.2620 C   0  0  0  0  0  0  0  0  0  0  0  0
   27.0593  -20.6021   -8.3212 C   0  0  0  0  0  0  0  0  0  0  0  0
   26.5383  -19.3289   -8.4089 C   0  0  0  0  0  0  0  0  0  0  0  0
   27.0195  -18.6169   -7.3702 N   0  0  0  0  0  0  0  0  0  0  0  0
   27.8276  -19.4104   -6.6346 C   0  0  0  0  0  0  0  0  0  0  0  0
   28.5749  -19.2119   -5.4812 C   0  0  0  0  0  0  0  0  0  0  0  0
   29.3374  -20.2136   -4.9152 C   0  0  0  0  0  0  0  0  0  0  0  0
   29.3606  -21.4688   -5.5194 C   0  0  0  0  0  0  0  0  0  0  0  0
   28.6312  -21.7034   -6.6657 C   0  0  0  0  0  0  0  0  0  0  0  0
   27.8668  -20.6799   -7.2233 C   0  0  0  0  0  0  0  0  0  0  0  0
   25.1245  -20.0284  -10.0158 C   0  0  0  0  0  0  0  0  0  0  0  0
   23.9870  -20.1122   -9.4795 O   0  0  0  0  0  0  0  0  0  0  0  0
   25.6213  -18.7464  -10.2019 O   0  0  0  0  0  0  0  0  0  0  0  0
  2  1  1  0
  3  2  1  0
  4  3  1  0
  4  5  1  0
  5  6  1  1
  7  5  1  0
  7  8  2  0
  9 10  1  0
  9  7  1  0
 10 13  1  0
 11 12  1  0
 10 11  1  6
 13 15  1  0
 14 13  2  0
 15 16  1  0
 16 27  1  0
 16 17  1  1
 18 17  1  0
 19 18  2  0
 20 21  1  0
 20 19  1  0
 21 26  2  0
 22 23  2  0
 22 21  1  0
 23 24  1  0
 24 25  2  0
 26 18  1  0
 26 25  1  0
 27 28  2  0
 27 29  1  0
M  END
$$$$
