RQL.pdb
     RDKit          3D

 29 28  0  0  1  0  0  0  0  0999 V2000
    9.2230  -12.8935   18.2397 N   0  0  0  0  0  0  0  0  0  0  0  0
    8.4546  -12.2510   19.2726 C   0  0  0  0  0  0  0  0  0  0  0  0
    8.8335  -11.1128   19.7591 N   0  0  0  0  0  0  0  0  0  0  0  0
    7.2733  -12.8292   19.7889 N   0  0  0  0  0  0  0  0  0  0  0  0
    6.9966  -14.2419   19.5471 C   0  0  0  0  0  0  0  0  0  0  0  0
    8.0536  -15.1000   20.2028 C   0  0  0  0  0  0  0  0  0  0  0  0
    7.7487  -16.5426   19.9500 C   0  0  0  0  0  0  0  0  0  0  0  0
    8.6848  -17.4263   20.6884 C   0  0  2  0  0  0  0  0  0  0  0  0
    8.5338  -18.8338   20.2492 N   0  0  0  0  0  0  0  0  0  0  0  0
    8.5410  -17.3695   22.1593 C   0  0  0  0  0  0  0  0  0  0  0  0
    7.4991  -17.6387   22.8022 O   0  0  0  0  0  0  0  0  0  0  0  0
    8.3356  -10.6572   20.5513 N   0  0  0  0  0  0  0  0  0  0  0  0
   12.6923  -19.9020   25.7527 C   0  0  0  0  0  0  0  0  0  0  0  0
   11.6737  -20.4860   24.9478 O   0  0  0  0  0  0  0  0  0  0  0  0
   11.6712  -21.6689   24.5671 C   0  0  0  0  0  0  0  0  0  0  0  0
   10.5271  -19.6001   24.5365 C   0  0  0  0  0  0  0  0  0  0  0  0
   10.8688  -18.1564   24.7412 C   0  0  2  0  0  0  0  0  0  0  0  0
    9.7322  -17.2856   24.3250 N   0  0  0  0  0  0  0  0  0  0  0  0
    9.6688  -16.9782   22.9339 C   0  0  0  0  0  0  0  0  0  0  0  0
    9.9023  -15.9743   25.0552 O   0  0  0  0  0  0  0  0  0  0  0  0
   10.8222  -15.1590   24.7244 C   0  0  0  0  0  0  0  0  0  0  0  0
    8.3800  -12.2746   25.1394 C   0  0  2  0  0  0  0  0  0  0  0  0
    7.4255  -13.2577   25.8111 C   0  0  0  0  0  0  0  0  0  0  0  0
    6.1330  -12.5367   26.0303 C   0  0  0  0  0  0  0  0  0  0  0  0
    8.0829  -13.6846   27.0912 C   0  0  2  0  0  0  0  0  0  0  0  0
    9.3891  -14.4219   26.8917 N   0  0  0  0  0  0  0  0  0  0  0  0
    9.0646  -15.6024   26.1163 C   0  0  0  0  0  0  0  0  0  0  0  0
    9.9990  -14.8541   28.1598 O   0  0  0  0  0  0  0  0  0  0  0  0
   10.6582  -13.9548   28.9758 O   0  0  0  0  0  0  0  0  0  0  0  0
  1  2  1  0
  2  3  2  0
  4  5  1  0
  4  2  1  0
  6  5  1  0
  7  6  1  0
  8 10  1  0
  8  7  1  0
  8  9  1  6
 10 11  2  0
 13 12  1  0
 13 14  2  0
 15 13  1  0
 16 15  1  0
 17 16  1  6
 17 19  1  0
 18 17  1  0
 18 10  1  0
 19 20  2  0
 19 26  1  0
 22 21  1  6
 22 24  1  0
 23 22  1  0
 25 24  1  6
 25 27  1  0
 26 25  1  0
 27 29  2  0
 27 28  1  0
M  END
$$$$
