RQL.pdb
     RDKit          3D

 29 28  0  0  1  0  0  0  0  0999 V2000
    8.1868  -12.6052   14.5876 N   0  0  0  0  0  0  0  0  0  0  0  0
    8.2724  -14.0413   14.6095 C   0  0  0  0  0  0  0  0  0  0  0  0
    7.8253  -14.7395   13.6154 N   0  0  0  0  0  0  0  0  0  0  0  0
    8.8398  -14.7356   15.7015 N   0  0  0  0  0  0  0  0  0  0  0  0
    8.6825  -14.2065   17.0528 C   0  0  0  0  0  0  0  0  0  0  0  0
    7.2553  -14.3806   17.5182 C   0  0  0  0  0  0  0  0  0  0  0  0
    7.1417  -13.9439   18.9444 C   0  0  0  0  0  0  0  0  0  0  0  0
    8.3331  -14.3551   19.7280 C   0  0  2  0  0  0  0  0  0  0  0  0
    9.2291  -15.2079   18.9115 N   0  0  0  0  0  0  0  0  0  0  0  0
    8.0170  -15.0657   20.9860 C   0  0  0  0  0  0  0  0  0  0  0  0
    7.1577  -14.7132   21.8279 O   0  0  0  0  0  0  0  0  0  0  0  0
    7.9000  -15.7772   13.5910 N   0  0  0  0  0  0  0  0  0  0  0  0
    8.4033  -20.8484   22.4195 C   0  0  0  0  0  0  0  0  0  0  0  0
    8.4069  -20.3497   23.7528 O   0  0  0  0  0  0  0  0  0  0  0  0
    8.0969  -21.0180   24.7536 C   0  0  0  0  0  0  0  0  0  0  0  0
    8.8158  -18.9136   23.9508 C   0  0  0  0  0  0  0  0  0  0  0  0
    9.1677  -18.2744   22.6429 C   0  0  2  0  0  0  0  0  0  0  0  0
    8.5191  -16.9372   22.5229 N   0  0  0  0  0  0  0  0  0  0  0  0
    8.7369  -16.2552   21.2895 C   0  0  0  0  0  0  0  0  0  0  0  0
    9.1090  -16.0714   23.6112 O   0  0  0  0  0  0  0  0  0  0  0  0
    9.8475  -15.0755   23.3228 C   0  0  0  0  0  0  0  0  0  0  0  0
    6.2331  -12.6355   26.4675 C   0  0  1  0  0  0  0  0  0  0  0  0
    7.5897  -13.2841   26.7277 C   0  0  0  0  0  0  0  0  0  0  0  0
    8.6270  -12.2197   26.5563 C   0  0  0  0  0  0  0  0  0  0  0  0
    7.7265  -14.4014   25.7346 C   0  0  2  0  0  0  0  0  0  0  0  0
    8.9764  -15.2340   25.9192 N   0  0  0  0  0  0  0  0  0  0  0  0
    8.8716  -16.3239   24.9697 C   0  0  0  0  0  0  0  0  0  0  0  0
    9.0852  -15.8066   27.2710 O   0  0  0  0  0  0  0  0  0  0  0  0
    9.9812  -15.2959   28.1904 O   0  0  0  0  0  0  0  0  0  0  0  0
  1  2  1  0
  2  3  2  0
  4  5  1  0
  4  2  1  0
  6  5  1  0
  7  6  1  0
  8 10  1  0
  8  7  1  0
  8  9  1  6
 10 11  2  0
 13 12  1  0
 13 14  2  0
 15 13  1  0
 16 15  1  0
 17 16  1  6
 17 19  1  0
 18 17  1  0
 18 10  1  0
 19 20  2  0
 19 26  1  0
 22 21  1  1
 22 24  1  0
 23 22  1  0
 25 24  1  6
 25 27  1  0
 26 25  1  0
 27 29  2  0
 27 28  1  0
M  END
$$$$
