RQL.pdb
     RDKit          3D

 29 28  0  0  1  0  0  0  0  0999 V2000
    7.6831  -12.8141   17.7978 N   0  0  0  0  0  0  0  0  0  0  0  0
    8.3698  -13.0965   19.0302 C   0  0  0  0  0  0  0  0  0  0  0  0
    9.0158  -12.1611   19.6494 N   0  0  0  0  0  0  0  0  0  0  0  0
    8.3659  -14.3875   19.6043 N   0  0  0  0  0  0  0  0  0  0  0  0
    7.6682  -15.4760   18.9268 C   0  0  0  0  0  0  0  0  0  0  0  0
    6.8495  -16.2684   19.9194 C   0  0  0  0  0  0  0  0  0  0  0  0
    7.5919  -17.5118   20.2945 C   0  0  0  0  0  0  0  0  0  0  0  0
    6.7384  -18.4259   21.0937 C   0  0  2  0  0  0  0  0  0  0  0  0
    5.4337  -18.6435   20.4251 N   0  0  0  0  0  0  0  0  0  0  0  0
    6.4924  -17.9708   22.4793 C   0  0  0  0  0  0  0  0  0  0  0  0
    5.5809  -17.1898   22.8405 O   0  0  0  0  0  0  0  0  0  0  0  0
    9.5115  -12.3336   20.5480 N   0  0  0  0  0  0  0  0  0  0  0  0
    5.9710  -20.6593   27.8979 C   0  0  0  0  0  0  0  0  0  0  0  0
    7.2361  -20.9497   27.3135 O   0  0  0  0  0  0  0  0  0  0  0  0
    8.0128  -21.8299   27.7213 C   0  0  0  0  0  0  0  0  0  0  0  0
    7.6499  -20.1278   26.1209 C   0  0  0  0  0  0  0  0  0  0  0  0
    6.5721  -19.1599   25.7408 C   0  0  1  0  0  0  0  0  0  0  0  0
    7.1207  -18.0821   24.8686 N   0  0  0  0  0  0  0  0  0  0  0  0
    7.3511  -18.4469   23.5093 C   0  0  0  0  0  0  0  0  0  0  0  0
    8.4600  -17.6951   25.4504 O   0  0  0  0  0  0  0  0  0  0  0  0
    9.5316  -17.8564   24.7825 C   0  0  0  0  0  0  0  0  0  0  0  0
   10.8048  -14.0648   28.0252 C   0  0  1  0  0  0  0  0  0  0  0  0
    9.5053  -13.5834   27.3865 C   0  0  0  0  0  0  0  0  0  0  0  0
    8.8398  -12.6757   28.3723 C   0  0  0  0  0  0  0  0  0  0  0  0
    8.6978  -14.8117   27.0827 C   0  0  1  0  0  0  0  0  0  0  0  0
    9.5251  -16.0726   26.9601 N   0  0  0  0  0  0  0  0  0  0  0  0
    8.5798  -17.1479   26.7358 C   0  0  0  0  0  0  0  0  0  0  0  0
   10.2884  -16.3746   28.1820 O   0  0  0  0  0  0  0  0  0  0  0  0
    9.6496  -16.7772   29.3392 O   0  0  0  0  0  0  0  0  0  0  0  0
  1  2  1  0
  2  3  2  0
  4  5  1  0
  4  2  1  0
  6  5  1  0
  7  6  1  0
  8 10  1  0
  8  7  1  0
  8  9  1  6
 10 11  2  0
 13 12  1  0
 13 14  2  0
 15 13  1  0
 16 15  1  0
 17 16  1  6
 17 19  1  0
 18 17  1  0
 18 10  1  0
 19 20  2  0
 19 26  1  0
 22 21  1  6
 22 24  1  0
 23 22  1  0
 25 24  1  6
 25 27  1  0
 26 25  1  0
 27 29  2  0
 27 28  1  0
M  END
$$$$
