RQL.pdb
     RDKit          3D

 29 28  0  0  1  0  0  0  0  0999 V2000
    9.9815  -13.2084   20.0394 N   0  0  0  0  0  0  0  0  0  0  0  0
    8.9761  -12.4099   19.3900 C   0  0  0  0  0  0  0  0  0  0  0  0
    9.0715  -11.1191   19.3779 N   0  0  0  0  0  0  0  0  0  0  0  0
    7.8612  -12.9955   18.7494 N   0  0  0  0  0  0  0  0  0  0  0  0
    7.5374  -14.3961   19.0026 C   0  0  0  0  0  0  0  0  0  0  0  0
    6.4721  -14.5005   20.0694 C   0  0  0  0  0  0  0  0  0  0  0  0
    7.0966  -14.9517   21.3517 C   0  0  0  0  0  0  0  0  0  0  0  0
    7.7650  -16.2668   21.1895 C   0  0  2  0  0  0  0  0  0  0  0  0
    6.8195  -17.2725   20.6498 N   0  0  0  0  0  0  0  0  0  0  0  0
    8.3675  -16.7991   22.4310 C   0  0  0  0  0  0  0  0  0  0  0  0
    7.8003  -17.5598   23.2502 O   0  0  0  0  0  0  0  0  0  0  0  0
    8.3417  -10.5150   18.9474 N   0  0  0  0  0  0  0  0  0  0  0  0
   14.3404  -18.0398   23.3568 C   0  0  0  0  0  0  0  0  0  0  0  0
   13.4038  -18.6773   22.4950 O   0  0  0  0  0  0  0  0  0  0  0  0
   13.7059  -19.5049   21.6186 C   0  0  0  0  0  0  0  0  0  0  0  0
   11.9517  -18.3158   22.6667 C   0  0  0  0  0  0  0  0  0  0  0  0
   11.7794  -17.3054   23.7587 C   0  0  2  0  0  0  0  0  0  0  0  0
   10.3414  -16.9428   23.9138 N   0  0  0  0  0  0  0  0  0  0  0  0
    9.7056  -16.4304   22.7447 C   0  0  0  0  0  0  0  0  0  0  0  0
   10.2807  -15.8527   24.9578 O   0  0  0  0  0  0  0  0  0  0  0  0
   10.2901  -14.6256   24.6196 C   0  0  0  0  0  0  0  0  0  0  0  0
    9.3364  -12.3788   26.6569 C   0  0  2  0  0  0  0  0  0  0  0  0
    8.4536  -13.4205   25.9756 C   0  0  0  0  0  0  0  0  0  0  0  0
    7.0916  -12.8180   25.8326 C   0  0  0  0  0  0  0  0  0  0  0  0
    8.4677  -14.6351   26.8573 C   0  0  2  0  0  0  0  0  0  0  0  0
    9.8562  -15.0860   27.2552 N   0  0  0  0  0  0  0  0  0  0  0  0
   10.2121  -16.1415   26.3281 C   0  0  0  0  0  0  0  0  0  0  0  0
    9.9084  -15.6325   28.6211 O   0  0  0  0  0  0  0  0  0  0  0  0
   10.2795  -14.8408   29.6909 O   0  0  0  0  0  0  0  0  0  0  0  0
  1  2  1  0
  2  3  2  0
  4  5  1  0
  4  2  1  0
  6  5  1  0
  7  6  1  0
  8 10  1  0
  8  7  1  0
  8  9  1  1
 10 11  2  0
 13 12  1  0
 13 14  2  0
 15 13  1  0
 16 15  1  0
 17 16  1  6
 17 19  1  0
 18 17  1  0
 18 10  1  0
 19 20  2  0
 19 26  1  0
 22 21  1  6
 22 24  1  0
 23 22  1  0
 25 24  1  6
 25 27  1  0
 26 25  1  0
 27 29  2  0
 27 28  1  0
M  END
$$$$
