RQL.pdb
     RDKit          3D

 29 28  0  0  1  0  0  0  0  0999 V2000
    8.9651  -15.8073   16.0756 N   0  0  0  0  0  0  0  0  0  0  0  0
    8.3961  -14.7462   15.2878 C   0  0  0  0  0  0  0  0  0  0  0  0
    8.6776  -14.6416   14.0287 N   0  0  0  0  0  0  0  0  0  0  0  0
    7.5202  -13.7907   15.8500 N   0  0  0  0  0  0  0  0  0  0  0  0
    7.0602  -13.9552   17.2255 C   0  0  0  0  0  0  0  0  0  0  0  0
    8.1677  -13.6030   18.1915 C   0  0  0  0  0  0  0  0  0  0  0  0
    7.6767  -13.7760   19.5939 C   0  0  0  0  0  0  0  0  0  0  0  0
    8.6904  -14.4569   20.4372 C   0  0  2  0  0  0  0  0  0  0  0  0
    9.2980  -15.5963   19.7097 N   0  0  0  0  0  0  0  0  0  0  0  0
    8.1734  -14.9430   21.7349 C   0  0  0  0  0  0  0  0  0  0  0  0
    7.4392  -14.2951   22.5175 O   0  0  0  0  0  0  0  0  0  0  0  0
    8.3124  -13.8623   13.4436 N   0  0  0  0  0  0  0  0  0  0  0  0
    6.2473  -19.7967   23.4131 C   0  0  0  0  0  0  0  0  0  0  0  0
    6.5756  -19.4724   24.7598 O   0  0  0  0  0  0  0  0  0  0  0  0
    5.9230  -19.8424   25.7505 C   0  0  0  0  0  0  0  0  0  0  0  0
    7.7987  -18.6229   24.9860 C   0  0  0  0  0  0  0  0  0  0  0  0
    8.3959  -18.1906   23.6824 C   0  0  2  0  0  0  0  0  0  0  0  0
    8.0787  -16.7591   23.4109 N   0  0  0  0  0  0  0  0  0  0  0  0
    8.5259  -16.2566   22.1534 C   0  0  0  0  0  0  0  0  0  0  0  0
    8.7787  -15.9513   24.4783 O   0  0  0  0  0  0  0  0  0  0  0  0
   10.0453  -15.8246   24.4738 C   0  0  0  0  0  0  0  0  0  0  0  0
    8.2453  -11.8682   25.1219 C   0  0  2  0  0  0  0  0  0  0  0  0
    7.1607  -12.6986   25.8022 C   0  0  0  0  0  0  0  0  0  0  0  0
    6.1074  -11.7463   26.2735 C   0  0  0  0  0  0  0  0  0  0  0  0
    7.8290  -13.4364   26.9256 C   0  0  2  0  0  0  0  0  0  0  0  0
    8.7984  -14.5032   26.4654 N   0  0  0  0  0  0  0  0  0  0  0  0
    8.0725  -15.3136   25.5081 C   0  0  0  0  0  0  0  0  0  0  0  0
    9.2493  -15.3751   27.5624 O   0  0  0  0  0  0  0  0  0  0  0  0
    8.9394  -16.7215   27.5750 O   0  0  0  0  0  0  0  0  0  0  0  0
  1  2  1  0
  2  3  2  0
  4  5  1  0
  4  2  1  0
  6  5  1  0
  7  6  1  0
  8 10  1  0
  8  7  1  0
  8  9  1  6
 10 11  2  0
 13 12  1  0
 13 14  2  0
 15 13  1  0
 16 15  1  0
 17 16  1  6
 17 19  1  0
 18 17  1  0
 18 10  1  0
 19 20  2  0
 19 26  1  0
 22 21  1  6
 22 24  1  0
 23 22  1  0
 25 24  1  6
 25 27  1  0
 26 25  1  0
 27 29  2  0
 27 28  1  0
M  END
$$$$
