RQL.pdb
     RDKit          3D

 29 28  0  0  1  0  0  0  0  0999 V2000
    8.7513  -13.6487   14.8089 N   0  0  0  0  0  0  0  0  0  0  0  0
    8.2688  -14.7944   15.5334 C   0  0  0  0  0  0  0  0  0  0  0  0
    8.4168  -15.9857   15.0492 N   0  0  0  0  0  0  0  0  0  0  0  0
    7.6237  -14.6654   16.7838 N   0  0  0  0  0  0  0  0  0  0  0  0
    7.6295  -13.3765   17.4688 C   0  0  0  0  0  0  0  0  0  0  0  0
    8.1172  -13.5430   18.8893 C   0  0  0  0  0  0  0  0  0  0  0  0
    7.5986  -14.8318   19.4442 C   0  0  0  0  0  0  0  0  0  0  0  0
    8.5368  -15.4025   20.4425 C   0  0  2  0  0  0  0  0  0  0  0  0
    9.0103  -16.7396   20.0128 N   0  0  0  0  0  0  0  0  0  0  0  0
    7.9783  -15.5122   21.8076 C   0  0  0  0  0  0  0  0  0  0  0  0
    7.5667  -14.5570   22.5073 O   0  0  0  0  0  0  0  0  0  0  0  0
    8.1057  -16.8344   15.5648 N   0  0  0  0  0  0  0  0  0  0  0  0
    7.1610  -20.8386   25.2746 C   0  0  0  0  0  0  0  0  0  0  0  0
    6.5223  -19.8320   26.0526 O   0  0  0  0  0  0  0  0  0  0  0  0
    5.9172  -20.0451   27.1169 C   0  0  0  0  0  0  0  0  0  0  0  0
    6.5917  -18.4171   25.5406 C   0  0  0  0  0  0  0  0  0  0  0  0
    7.2917  -18.3626   24.2178 C   0  0  2  0  0  0  0  0  0  0  0  0
    7.3034  -16.9684   23.6892 N   0  0  0  0  0  0  0  0  0  0  0  0
    7.8898  -16.8032   22.3997 C   0  0  0  0  0  0  0  0  0  0  0  0
    8.1279  -16.1477   24.6528 O   0  0  0  0  0  0  0  0  0  0  0  0
    9.3977  -16.2371   24.6636 C   0  0  0  0  0  0  0  0  0  0  0  0
    8.0247  -11.9529   24.8847 C   0  0  1  0  0  0  0  0  0  0  0  0
    6.8980  -12.5557   25.7189 C   0  0  0  0  0  0  0  0  0  0  0  0
    6.0292  -11.4239   26.1689 C   0  0  0  0  0  0  0  0  0  0  0  0
    7.5515  -13.2821   26.8583 C   0  0  2  0  0  0  0  0  0  0  0  0
    8.3885  -14.4671   26.4286 N   0  0  0  0  0  0  0  0  0  0  0  0
    7.5379  -15.2624   25.5660 C   0  0  0  0  0  0  0  0  0  0  0  0
    8.8128  -15.3059   27.5614 O   0  0  0  0  0  0  0  0  0  0  0  0
    9.8382  -14.9077   28.3974 O   0  0  0  0  0  0  0  0  0  0  0  0
  1  2  1  0
  2  3  2  0
  4  5  1  0
  4  2  1  0
  6  5  1  0
  7  6  1  0
  8 10  1  0
  8  7  1  0
  8  9  1  6
 10 11  2  0
 13 12  1  0
 13 14  2  0
 15 13  1  0
 16 15  1  0
 17 16  1  6
 17 19  1  0
 18 17  1  0
 18 10  1  0
 19 20  2  0
 19 26  1  0
 22 21  1  6
 22 24  1  0
 23 22  1  0
 25 24  1  6
 25 27  1  0
 26 25  1  0
 27 29  2  0
 27 28  1  0
M  END
$$$$
