RQL.pdb
     RDKit          3D

 29 28  0  0  1  0  0  0  0  0999 V2000
    9.9528  -14.1961   19.5183 N   0  0  0  0  0  0  0  0  0  0  0  0
    9.2850  -12.9238   19.5914 C   0  0  0  0  0  0  0  0  0  0  0  0
    9.9697  -11.8266   19.6451 N   0  0  0  0  0  0  0  0  0  0  0  0
    7.8757  -12.8239   19.6073 N   0  0  0  0  0  0  0  0  0  0  0  0
    7.0668  -13.9718   19.2092 C   0  0  0  0  0  0  0  0  0  0  0  0
    6.6260  -14.7475   20.4289 C   0  0  0  0  0  0  0  0  0  0  0  0
    6.1546  -16.1042   20.0105 C   0  0  0  0  0  0  0  0  0  0  0  0
    7.2536  -17.0990   20.0798 C   0  0  2  0  0  0  0  0  0  0  0  0
    6.8087  -18.4097   19.5498 N   0  0  0  0  0  0  0  0  0  0  0  0
    7.8078  -17.2984   21.4365 C   0  0  0  0  0  0  0  0  0  0  0  0
    7.1831  -17.7611   22.4199 O   0  0  0  0  0  0  0  0  0  0  0  0
    9.5148  -10.8953   19.7387 N   0  0  0  0  0  0  0  0  0  0  0  0
   13.8613  -17.7834   23.2812 C   0  0  0  0  0  0  0  0  0  0  0  0
   13.0663  -18.0506   24.4315 O   0  0  0  0  0  0  0  0  0  0  0  0
   13.4637  -18.6736   25.4306 C   0  0  0  0  0  0  0  0  0  0  0  0
   11.6498  -17.5384   24.4249 C   0  0  0  0  0  0  0  0  0  0  0  0
   11.2073  -17.2124   23.0318 C   0  0  2  0  0  0  0  0  0  0  0  0
    9.7260  -17.0509   22.9778 N   0  0  0  0  0  0  0  0  0  0  0  0
    9.1653  -16.9417   21.6711 C   0  0  0  0  0  0  0  0  0  0  0  0
    9.4048  -15.7638   23.7003 O   0  0  0  0  0  0  0  0  0  0  0  0
    9.7943  -14.6432   23.2390 C   0  0  0  0  0  0  0  0  0  0  0  0
    5.4856  -12.4181   26.1334 C   0  0  1  0  0  0  0  0  0  0  0  0
    6.9695  -12.7312   26.3031 C   0  0  0  0  0  0  0  0  0  0  0  0
    7.7293  -11.5287   25.8393 C   0  0  0  0  0  0  0  0  0  0  0  0
    7.2455  -13.9536   25.4768 C   0  0  2  0  0  0  0  0  0  0  0  0
    8.6295  -14.5300   25.6808 N   0  0  0  0  0  0  0  0  0  0  0  0
    8.6726  -15.7475   24.8958 C   0  0  0  0  0  0  0  0  0  0  0  0
    8.9017  -14.8752   27.0857 O   0  0  0  0  0  0  0  0  0  0  0  0
    8.9384  -16.1925   27.5009 O   0  0  0  0  0  0  0  0  0  0  0  0
  1  2  1  0
  2  3  2  0
  4  5  1  0
  4  2  1  0
  6  5  1  0
  7  6  1  0
  8 10  1  0
  8  7  1  0
  8  9  1  1
 10 11  2  0
 13 12  1  0
 13 14  2  0
 15 13  1  0
 16 15  1  0
 17 16  1  6
 17 19  1  0
 18 17  1  0
 18 10  1  0
 19 20  2  0
 19 26  1  0
 22 21  1  1
 22 24  1  0
 23 22  1  0
 25 24  1  6
 25 27  1  0
 26 25  1  0
 27 29  2  0
 27 28  1  0
M  END
$$$$
