RQL.pdb
     RDKit          3D

 29 28  0  0  1  0  0  0  0  0999 V2000
    8.6979  -11.6742   19.2077 N   0  0  0  0  0  0  0  0  0  0  0  0
    8.8150  -12.9410   18.5356 C   0  0  0  0  0  0  0  0  0  0  0  0
    9.7187  -13.1190   17.6260 N   0  0  0  0  0  0  0  0  0  0  0  0
    7.9602  -14.0246   18.8379 N   0  0  0  0  0  0  0  0  0  0  0  0
    6.9322  -13.8682   19.8623 C   0  0  0  0  0  0  0  0  0  0  0  0
    6.7346  -15.1689   20.6058 C   0  0  0  0  0  0  0  0  0  0  0  0
    7.9879  -15.9817   20.5253 C   0  0  0  0  0  0  0  0  0  0  0  0
    7.8217  -17.2923   21.2017 C   0  0  2  0  0  0  0  0  0  0  0  0
    6.5789  -17.9617   20.7500 N   0  0  0  0  0  0  0  0  0  0  0  0
    7.8108  -17.2164   22.6787 C   0  0  0  0  0  0  0  0  0  0  0  0
    6.7874  -17.1396   23.3985 O   0  0  0  0  0  0  0  0  0  0  0  0
    9.7687  -13.9907   17.0599 N   0  0  0  0  0  0  0  0  0  0  0  0
   11.8039  -20.1531   26.3641 C   0  0  0  0  0  0  0  0  0  0  0  0
   11.0414  -19.4254   27.3209 O   0  0  0  0  0  0  0  0  0  0  0  0
   11.1480  -19.5582   28.5520 C   0  0  0  0  0  0  0  0  0  0  0  0
   10.0412  -18.4305   26.7932 C   0  0  0  0  0  0  0  0  0  0  0  0
   10.0927  -18.3650   25.2979 C   0  0  2  0  0  0  0  0  0  0  0  0
    9.1000  -17.3786   24.7830 N   0  0  0  0  0  0  0  0  0  0  0  0
    9.0572  -17.2302   23.3652 C   0  0  0  0  0  0  0  0  0  0  0  0
    9.4910  -16.0349   25.3516 O   0  0  0  0  0  0  0  0  0  0  0  0
   10.5665  -15.4607   24.9856 C   0  0  0  0  0  0  0  0  0  0  0  0
    8.1726  -12.0784   25.0754 C   0  0  2  0  0  0  0  0  0  0  0  0
    7.2336  -12.9292   25.9258 C   0  0  0  0  0  0  0  0  0  0  0  0
    6.0175  -12.1023   26.2008 C   0  0  0  0  0  0  0  0  0  0  0  0
    7.9920  -13.2884   27.1704 C   0  0  2  0  0  0  0  0  0  0  0  0
    9.2011  -14.1627   26.9190 N   0  0  0  0  0  0  0  0  0  0  0  0
    8.6960  -15.3696   26.2957 C   0  0  0  0  0  0  0  0  0  0  0  0
    9.8997  -14.5394   28.1588 O   0  0  0  0  0  0  0  0  0  0  0  0
   10.7001  -13.6337   28.8282 O   0  0  0  0  0  0  0  0  0  0  0  0
  1  2  1  0
  2  3  2  0
  4  5  1  0
  4  2  1  0
  6  5  1  0
  7  6  1  0
  8 10  1  0
  8  7  1  0
  8  9  1  6
 10 11  2  0
 13 12  1  0
 13 14  2  0
 15 13  1  0
 16 15  1  0
 17 16  1  6
 17 19  1  0
 18 17  1  0
 18 10  1  0
 19 20  2  0
 19 26  1  0
 22 21  1  6
 22 24  1  0
 23 22  1  0
 25 24  1  6
 25 27  1  0
 26 25  1  0
 27 29  2  0
 27 28  1  0
M  END
$$$$
