RQL.pdb
     RDKit          3D

 29 28  0  0  1  0  0  0  0  0999 V2000
    9.3623  -14.1161   14.7586 N   0  0  0  0  0  0  0  0  0  0  0  0
    8.1143  -14.8009   14.9680 C   0  0  0  0  0  0  0  0  0  0  0  0
    7.8629  -15.9089   14.3478 N   0  0  0  0  0  0  0  0  0  0  0  0
    7.1286  -14.2975   15.8462 N   0  0  0  0  0  0  0  0  0  0  0  0
    7.4461  -13.1693   16.7162 C   0  0  0  0  0  0  0  0  0  0  0  0
    8.5547  -13.5439   17.6724 C   0  0  0  0  0  0  0  0  0  0  0  0
    7.9633  -14.1554   18.9029 C   0  0  0  0  0  0  0  0  0  0  0  0
    8.9256  -14.1259   20.0324 C   0  0  2  0  0  0  0  0  0  0  0  0
   10.2331  -14.6907   19.6222 N   0  0  0  0  0  0  0  0  0  0  0  0
    8.4610  -14.8346   21.2446 C   0  0  0  0  0  0  0  0  0  0  0  0
    7.3826  -14.6214   21.8471 O   0  0  0  0  0  0  0  0  0  0  0  0
    6.9714  -16.4283   14.4836 N   0  0  0  0  0  0  0  0  0  0  0  0
   10.8062  -20.4131   22.4906 C   0  0  0  0  0  0  0  0  0  0  0  0
   11.5654  -19.2688   22.8656 O   0  0  0  0  0  0  0  0  0  0  0  0
   12.7149  -19.3118   23.3359 C   0  0  0  0  0  0  0  0  0  0  0  0
   10.9210  -17.9208   22.6746 C   0  0  0  0  0  0  0  0  0  0  0  0
    9.4744  -17.9621   23.0599 C   0  0  1  0  0  0  0  0  0  0  0  0
    8.8564  -16.6126   22.9175 N   0  0  0  0  0  0  0  0  0  0  0  0
    9.2924  -15.8507   21.7936 C   0  0  0  0  0  0  0  0  0  0  0  0
    9.2389  -15.8296   24.1514 O   0  0  0  0  0  0  0  0  0  0  0  0
   10.3946  -15.3070   24.2590 C   0  0  0  0  0  0  0  0  0  0  0  0
    8.3779  -11.9425   25.8269 C   0  0  2  0  0  0  0  0  0  0  0  0
    7.2259  -12.9422   25.7788 C   0  0  0  0  0  0  0  0  0  0  0  0
    5.9804  -12.1967   26.1413 C   0  0  0  0  0  0  0  0  0  0  0  0
    7.5633  -14.0303   26.7562 C   0  0  2  0  0  0  0  0  0  0  0  0
    8.7670  -14.8569   26.3598 N   0  0  0  0  0  0  0  0  0  0  0  0
    8.3485  -15.6465   25.2189 C   0  0  0  0  0  0  0  0  0  0  0  0
    9.2028  -15.7759   27.4240 O   0  0  0  0  0  0  0  0  0  0  0  0
    9.9970  -15.3344   28.4648 O   0  0  0  0  0  0  0  0  0  0  0  0
  1  2  1  0
  2  3  2  0
  4  5  1  0
  4  2  1  0
  6  5  1  0
  7  6  1  0
  8 10  1  0
  8  7  1  0
  8  9  1  6
 10 11  2  0
 13 12  1  0
 13 14  2  0
 15 13  1  0
 16 15  1  0
 17 16  1  6
 17 19  1  0
 18 17  1  0
 18 10  1  0
 19 20  2  0
 19 26  1  0
 22 21  1  6
 22 24  1  0
 23 22  1  0
 25 24  1  6
 25 27  1  0
 26 25  1  0
 27 29  2  0
 27 28  1  0
M  END
$$$$
