RQL.pdb
     RDKit          3D

 29 28  0  0  1  0  0  0  0  0999 V2000
    7.8217  -13.3506   16.4397 N   0  0  0  0  0  0  0  0  0  0  0  0
    8.3959  -13.1231   17.7392 C   0  0  0  0  0  0  0  0  0  0  0  0
    8.7665  -11.9343   18.0927 N   0  0  0  0  0  0  0  0  0  0  0  0
    8.5749  -14.1737   18.6669 N   0  0  0  0  0  0  0  0  0  0  0  0
    7.6207  -15.2778   18.6992 C   0  0  0  0  0  0  0  0  0  0  0  0
    6.6158  -15.0663   19.8078 C   0  0  0  0  0  0  0  0  0  0  0  0
    6.9535  -15.9581   20.9605 C   0  0  0  0  0  0  0  0  0  0  0  0
    8.1791  -15.4939   21.6569 C   0  0  2  0  0  0  0  0  0  0  0  0
    9.3882  -15.8208   20.8643 N   0  0  0  0  0  0  0  0  0  0  0  0
    8.3446  -16.0377   23.0223 C   0  0  0  0  0  0  0  0  0  0  0  0
    7.4927  -15.9789   23.9401 O   0  0  0  0  0  0  0  0  0  0  0  0
    9.2407  -11.7504   19.0006 N   0  0  0  0  0  0  0  0  0  0  0  0
   12.7393  -20.2120   24.9559 C   0  0  0  0  0  0  0  0  0  0  0  0
   11.9278  -20.0312   26.1114 O   0  0  0  0  0  0  0  0  0  0  0  0
   12.0613  -20.6680   27.1702 C   0  0  0  0  0  0  0  0  0  0  0  0
   10.8370  -18.9954   26.0328 C   0  0  0  0  0  0  0  0  0  0  0  0
   10.8326  -18.3266   24.6928 C   0  0  2  0  0  0  0  0  0  0  0  0
    9.7374  -17.3176   24.6154 N   0  0  0  0  0  0  0  0  0  0  0  0
    9.5678  -16.6884   23.3469 C   0  0  0  0  0  0  0  0  0  0  0  0
   10.0839  -16.2270   25.6015 O   0  0  0  0  0  0  0  0  0  0  0  0
   11.1106  -15.4947   25.4286 C   0  0  0  0  0  0  0  0  0  0  0  0
    8.7591  -12.3127   26.3970 C   0  0  2  0  0  0  0  0  0  0  0  0
    7.8758  -13.5015   26.7649 C   0  0  0  0  0  0  0  0  0  0  0  0
    6.5017  -12.9671   27.0195 C   0  0  0  0  0  0  0  0  0  0  0  0
    8.4933  -14.1332   27.9785 C   0  0  2  0  0  0  0  0  0  0  0  0
    9.7240  -14.9605   27.6781 N   0  0  0  0  0  0  0  0  0  0  0  0
    9.2994  -15.9769   26.7363 C   0  0  0  0  0  0  0  0  0  0  0  0
   10.2646  -15.6320   28.8714 O   0  0  0  0  0  0  0  0  0  0  0  0
   10.0714  -16.9847   29.0760 O   0  0  0  0  0  0  0  0  0  0  0  0
  1  2  1  0
  2  3  2  0
  4  5  1  0
  4  2  1  0
  6  5  1  0
  7  6  1  0
  8 10  1  0
  8  7  1  0
  8  9  1  6
 10 11  2  0
 13 12  1  0
 13 14  2  0
 15 13  1  0
 16 15  1  0
 17 16  1  6
 17 19  1  0
 18 17  1  0
 18 10  1  0
 19 20  2  0
 19 26  1  0
 22 21  1  6
 22 24  1  0
 23 22  1  0
 25 24  1  6
 25 27  1  0
 26 25  1  0
 27 29  2  0
 27 28  1  0
M  END
$$$$
