RQL.pdb
     RDKit          3D

 29 28  0  0  1  0  0  0  0  0999 V2000
    9.2067  -12.7972   17.7470 N   0  0  0  0  0  0  0  0  0  0  0  0
    8.2180  -13.4003   16.8934 C   0  0  0  0  0  0  0  0  0  0  0  0
    8.3614  -13.3780   15.6071 N   0  0  0  0  0  0  0  0  0  0  0  0
    7.0681  -14.0316   17.4185 N   0  0  0  0  0  0  0  0  0  0  0  0
    6.8280  -14.0109   18.8581 C   0  0  0  0  0  0  0  0  0  0  0  0
    7.7183  -15.0171   19.5498 C   0  0  0  0  0  0  0  0  0  0  0  0
    6.9082  -16.2145   19.9346 C   0  0  0  0  0  0  0  0  0  0  0  0
    7.0351  -16.5049   21.3844 C   0  0  2  0  0  0  0  0  0  0  0  0
    6.3425  -15.4706   22.1890 N   0  0  0  0  0  0  0  0  0  0  0  0
    8.4306  -16.6219   21.8605 C   0  0  0  0  0  0  0  0  0  0  0  0
    9.2300  -17.5397   21.5607 O   0  0  0  0  0  0  0  0  0  0  0  0
    7.6973  -13.8618   14.9685 N   0  0  0  0  0  0  0  0  0  0  0  0
   13.7283  -14.7579   22.0133 C   0  0  0  0  0  0  0  0  0  0  0  0
   12.7821  -14.6308   20.9573 O   0  0  0  0  0  0  0  0  0  0  0  0
   13.0771  -14.5929   19.7507 C   0  0  0  0  0  0  0  0  0  0  0  0
   11.3287  -14.5367   21.3413 C   0  0  0  0  0  0  0  0  0  0  0  0
   11.1672  -14.5732   22.8297 C   0  0  2  0  0  0  0  0  0  0  0  0
   10.2676  -15.6927   23.2309 N   0  0  0  0  0  0  0  0  0  0  0  0
    8.9324  -15.6181   22.7355 C   0  0  0  0  0  0  0  0  0  0  0  0
   10.1772  -15.6555   24.7384 O   0  0  0  0  0  0  0  0  0  0  0  0
   11.2270  -15.7160   25.4556 C   0  0  0  0  0  0  0  0  0  0  0  0
    8.7026  -12.3921   26.9554 C   0  0  2  0  0  0  0  0  0  0  0  0
    7.6603  -13.3573   26.3980 C   0  0  0  0  0  0  0  0  0  0  0  0
    6.3293  -12.6841   26.5152 C   0  0  0  0  0  0  0  0  0  0  0  0
    7.7574  -14.6110   27.2177 C   0  0  2  0  0  0  0  0  0  0  0  0
    8.9331  -15.4907   26.8529 N   0  0  0  0  0  0  0  0  0  0  0  0
    8.9480  -15.5540   25.4051 C   0  0  0  0  0  0  0  0  0  0  0  0
    8.8031  -16.8610   27.3748 O   0  0  0  0  0  0  0  0  0  0  0  0
    8.5827  -17.9284   26.5255 O   0  0  0  0  0  0  0  0  0  0  0  0
  1  2  1  0
  2  3  2  0
  4  5  1  0
  4  2  1  0
  6  5  1  0
  7  6  1  0
  8 10  1  0
  8  7  1  0
  8  9  1  1
 10 11  2  0
 13 12  1  0
 13 14  2  0
 15 13  1  0
 16 15  1  0
 17 16  1  6
 17 19  1  0
 18 17  1  0
 18 10  1  0
 19 20  2  0
 19 26  1  0
 22 21  1  6
 22 24  1  0
 23 22  1  0
 25 24  1  6
 25 27  1  0
 26 25  1  0
 27 29  2  0
 27 28  1  0
M  END
$$$$
