RQL.pdb
     RDKit          3D

 29 28  0  0  1  0  0  0  0  0999 V2000
    7.6614  -15.0835   16.2248 N   0  0  0  0  0  0  0  0  0  0  0  0
    8.3307  -13.8329   15.9840 C   0  0  0  0  0  0  0  0  0  0  0  0
    8.9410  -13.6218   14.8621 N   0  0  0  0  0  0  0  0  0  0  0  0
    8.3475  -12.8010   16.9490 N   0  0  0  0  0  0  0  0  0  0  0  0
    7.9881  -13.1007   18.3316 C   0  0  0  0  0  0  0  0  0  0  0  0
    7.7629  -14.5852   18.5019 C   0  0  0  0  0  0  0  0  0  0  0  0
    7.4303  -14.8760   19.9311 C   0  0  0  0  0  0  0  0  0  0  0  0
    8.6598  -15.0148   20.7506 C   0  0  2  0  0  0  0  0  0  0  0  0
    9.6610  -15.8579   20.0553 N   0  0  0  0  0  0  0  0  0  0  0  0
    8.4293  -15.5681   22.1027 C   0  0  0  0  0  0  0  0  0  0  0  0
    7.4554  -15.3002   22.8452 O   0  0  0  0  0  0  0  0  0  0  0  0
    9.4598  -12.7398   14.6726 N   0  0  0  0  0  0  0  0  0  0  0  0
   10.4824  -20.7414   24.6887 C   0  0  0  0  0  0  0  0  0  0  0  0
   10.1350  -20.0261   25.8694 O   0  0  0  0  0  0  0  0  0  0  0  0
   10.0128  -20.5425   26.9931 C   0  0  0  0  0  0  0  0  0  0  0  0
    9.9022  -18.5441   25.7345 C   0  0  0  0  0  0  0  0  0  0  0  0
   10.1700  -18.0878   24.3335 C   0  0  2  0  0  0  0  0  0  0  0  0
    9.2628  -16.9624   23.9675 N   0  0  0  0  0  0  0  0  0  0  0  0
    9.3810  -16.4862   22.6284 C   0  0  0  0  0  0  0  0  0  0  0  0
    9.6181  -15.8082   24.8749 O   0  0  0  0  0  0  0  0  0  0  0  0
   10.7480  -15.2296   24.7810 C   0  0  0  0  0  0  0  0  0  0  0  0
    7.9703  -11.9607   25.2613 C   0  0  1  0  0  0  0  0  0  0  0  0
    7.0855  -12.9923   25.9553 C   0  0  0  0  0  0  0  0  0  0  0  0
    5.8344  -12.2878   26.3760 C   0  0  0  0  0  0  0  0  0  0  0  0
    7.8772  -13.5235   27.1146 C   0  0  2  0  0  0  0  0  0  0  0  0
    9.1461  -14.2420   26.7107 N   0  0  0  0  0  0  0  0  0  0  0  0
    8.7295  -15.3296   25.8482 C   0  0  0  0  0  0  0  0  0  0  0  0
    9.8682  -14.8129   27.8595 O   0  0  0  0  0  0  0  0  0  0  0  0
   10.7821  -14.0599   28.5714 O   0  0  0  0  0  0  0  0  0  0  0  0
  1  2  1  0
  2  3  2  0
  4  5  1  0
  4  2  1  0
  6  5  1  0
  7  6  1  0
  8 10  1  0
  8  7  1  0
  8  9  1  6
 10 11  2  0
 13 12  1  0
 13 14  2  0
 15 13  1  0
 16 15  1  0
 17 16  1  6
 17 19  1  0
 18 17  1  0
 18 10  1  0
 19 20  2  0
 19 26  1  0
 22 21  1  6
 22 24  1  0
 23 22  1  0
 25 24  1  6
 25 27  1  0
 26 25  1  0
 27 29  2  0
 27 28  1  0
M  END
$$$$
