PDM.pdb
     RDKit          3D

 24 24  0  0  1  0  0  0  0  0999 V2000
   27.4166  -22.4692  -16.0716 N   0  0  0  0  0  0  0  0  0  0  0  0
   27.4430  -22.5864  -17.4979 C   0  0  0  0  0  0  0  0  0  0  0  0
   28.3599  -21.4541  -17.9750 C   0  0  0  0  0  0  0  0  0  0  0  0
   27.9615  -20.3530  -16.9802 C   0  0  0  0  0  0  0  0  0  0  0  0
   27.9007  -21.1748  -15.7055 C   0  0  1  0  0  0  0  0  0  0  0  0
   27.0585  -20.5421  -14.6557 C   0  0  0  0  0  0  0  0  0  0  0  0
   27.3133  -19.3730  -14.2750 O   0  0  0  0  0  0  0  0  0  0  0  0
   25.9535  -21.2300  -14.0574 N   0  0  0  0  0  0  0  0  0  0  0  0
   25.0788  -20.6413  -13.0881 C   0  0  1  0  0  0  0  0  0  0  0  0
   23.6398  -20.6816  -13.5076 C   0  0  0  0  0  0  0  0  0  0  0  0
   22.7364  -20.0789  -12.4987 C   0  0  0  0  0  0  0  0  0  0  0  0
   22.7014  -18.8347  -12.3377 O   0  0  0  0  0  0  0  0  0  0  0  0
   25.3122  -21.1317  -11.7136 C   0  0  0  0  0  0  0  0  0  0  0  0
   25.0554  -22.3335  -11.4567 O   0  0  0  0  0  0  0  0  0  0  0  0
   21.8959  -20.8280  -11.6902 O   0  0  0  0  0  0  0  0  0  0  0  0
   27.8991  -17.9743   -5.6224 C   0  0  0  0  0  0  0  0  0  0  0  0
   28.5709  -19.4698   -6.3785 S   0  0  0  0  0  0  0  0  0  0  0  0
   27.2381  -20.4388   -7.1655 C   0  0  0  0  0  0  0  0  0  0  0  0
   26.9985  -19.9720   -8.5704 C   0  0  0  0  0  0  0  0  0  0  0  0
   25.9690  -20.7663   -9.2810 C   0  0  2  0  0  0  0  0  0  0  0  0
   25.8075  -20.3281  -10.6667 N   0  0  0  0  0  0  0  0  0  0  0  0
   24.6992  -20.8868   -8.5882 C   0  0  0  0  0  0  0  0  0  0  0  0
   23.7178  -20.2141   -9.0225 O   0  0  0  0  0  0  0  0  0  0  0  0
   24.4752  -21.6781   -7.4955 O   0  0  0  0  0  0  0  0  0  0  0  0
  1  5  1  0
  1  2  1  0
  2  3  1  0
  4  5  1  0
  4  3  1  0
  6  7  2  0
  5  6  1  1
  8  6  1  0
  9 13  1  0
  9  8  1  0
  9 10  1  6
 11 10  1  0
 11 12  2  0
 13 21  1  0
 14 13  2  0
 15 11  1  0
 17 16  1  0
 18 17  1  0
 20 19  1  1
 19 18  1  0
 20 22  1  0
 21 20  1  0
 22 23  2  0
 22 24  1  0
M  END
$$$$
