PDM.pdb
     RDKit          3D

 24 24  0  0  1  0  0  0  0  0999 V2000
   27.0821  -20.9675  -15.7061 N   0  0  0  0  0  0  0  0  0  0  0  0
   27.1403  -20.4362  -17.0338 C   0  0  0  0  0  0  0  0  0  0  0  0
   28.2598  -19.3895  -16.9968 C   0  0  0  0  0  0  0  0  0  0  0  0
   28.0257  -18.7999  -15.5973 C   0  0  0  0  0  0  0  0  0  0  0  0
   27.7734  -20.0808  -14.8230 C   0  0  1  0  0  0  0  0  0  0  0  0
   27.0180  -19.8492  -13.5632 C   0  0  0  0  0  0  0  0  0  0  0  0
   27.4060  -18.9666  -12.7588 O   0  0  0  0  0  0  0  0  0  0  0  0
   25.8489  -20.6083  -13.2329 N   0  0  0  0  0  0  0  0  0  0  0  0
   25.0189  -20.3397  -12.0970 C   0  0  1  0  0  0  0  0  0  0  0  0
   23.5637  -20.5684  -12.3769 C   0  0  0  0  0  0  0  0  0  0  0  0
   23.0191  -19.6139  -13.3717 C   0  0  0  0  0  0  0  0  0  0  0  0
   23.2146  -18.3807  -13.2443 O   0  0  0  0  0  0  0  0  0  0  0  0
   25.4955  -20.9867  -10.8567 C   0  0  0  0  0  0  0  0  0  0  0  0
   25.4922  -22.2408  -10.7981 O   0  0  0  0  0  0  0  0  0  0  0  0
   22.2794  -20.0090  -14.4753 O   0  0  0  0  0  0  0  0  0  0  0  0
   27.8729  -17.9165   -5.2044 C   0  0  0  0  0  0  0  0  0  0  0  0
   28.5688  -19.5786   -5.3169 S   0  0  0  0  0  0  0  0  0  0  0  0
   27.4632  -20.6677   -6.2792 C   0  0  0  0  0  0  0  0  0  0  0  0
   27.1658  -20.0718   -7.6228 C   0  0  0  0  0  0  0  0  0  0  0  0
   26.1965  -20.8678   -8.4119 C   0  0  2  0  0  0  0  0  0  0  0  0
   25.9557  -20.2782   -9.7282 N   0  0  0  0  0  0  0  0  0  0  0  0
   24.9636  -21.1965   -7.7200 C   0  0  0  0  0  0  0  0  0  0  0  0
   23.9189  -20.5481   -8.0243 O   0  0  0  0  0  0  0  0  0  0  0  0
   24.8382  -22.1612   -6.7587 O   0  0  0  0  0  0  0  0  0  0  0  0
  1  5  1  0
  1  2  1  0
  2  3  1  0
  4  5  1  0
  4  3  1  0
  6  7  2  0
  5  6  1  1
  8  6  1  0
  9 13  1  0
  9  8  1  0
  9 10  1  6
 11 10  1  0
 11 12  2  0
 13 21  1  0
 14 13  2  0
 15 11  1  0
 17 16  1  0
 18 17  1  0
 20 19  1  1
 19 18  1  0
 20 22  1  0
 21 20  1  0
 22 23  2  0
 22 24  1  0
M  END
$$$$
