PDM.pdb
     RDKit          3D

 24 24  0  0  1  0  0  0  0  0999 V2000
   25.8567  -21.4251  -14.7889 N   0  0  0  0  0  0  0  0  0  0  0  0
   25.4626  -21.2588  -16.1548 C   0  0  0  0  0  0  0  0  0  0  0  0
   26.2098  -20.0101  -16.6371 C   0  0  0  0  0  0  0  0  0  0  0  0
   26.1310  -19.1470  -15.3683 C   0  0  0  0  0  0  0  0  0  0  0  0
   26.4390  -20.2049  -14.3243 C   0  0  1  0  0  0  0  0  0  0  0  0
   25.9477  -19.8338  -12.9706 C   0  0  0  0  0  0  0  0  0  0  0  0
   26.2590  -18.7209  -12.4795 O   0  0  0  0  0  0  0  0  0  0  0  0
   25.1216  -20.7140  -12.1992 N   0  0  0  0  0  0  0  0  0  0  0  0
   24.6299  -20.4026  -10.8906 C   0  0  1  0  0  0  0  0  0  0  0  0
   23.2724  -20.9833  -10.6296 C   0  0  0  0  0  0  0  0  0  0  0  0
   22.3453  -20.7976  -11.7713 C   0  0  0  0  0  0  0  0  0  0  0  0
   21.9756  -19.6473  -12.1108 O   0  0  0  0  0  0  0  0  0  0  0  0
   25.6092  -20.6720   -9.8170 C   0  0  0  0  0  0  0  0  0  0  0  0
   25.6177  -21.8109   -9.2886 O   0  0  0  0  0  0  0  0  0  0  0  0
   21.8403  -21.8514  -12.5167 O   0  0  0  0  0  0  0  0  0  0  0  0
   28.1961  -17.7912   -5.2088 C   0  0  0  0  0  0  0  0  0  0  0  0
   28.3670  -19.5124   -4.6913 S   0  0  0  0  0  0  0  0  0  0  0  0
   28.3454  -20.6188   -6.1440 C   0  0  0  0  0  0  0  0  0  0  0  0
   27.2205  -20.2614   -7.0690 C   0  0  0  0  0  0  0  0  0  0  0  0
   27.6649  -20.0230   -8.4624 C   0  0  2  0  0  0  0  0  0  0  0  0
   26.5394  -19.7231   -9.3463 N   0  0  0  0  0  0  0  0  0  0  0  0
   28.5416  -21.0417   -9.0106 C   0  0  0  0  0  0  0  0  0  0  0  0
   28.0114  -22.0266   -9.6048 O   0  0  0  0  0  0  0  0  0  0  0  0
   29.9072  -21.0214   -8.9384 O   0  0  0  0  0  0  0  0  0  0  0  0
  1  5  1  0
  1  2  1  0
  2  3  1  0
  4  5  1  0
  4  3  1  0
  6  7  2  0
  5  6  1  1
  8  6  1  0
  9 13  1  0
  9  8  1  0
  9 10  1  1
 11 10  1  0
 11 12  2  0
 13 21  1  0
 14 13  2  0
 15 11  1  0
 17 16  1  0
 18 17  1  0
 20 19  1  1
 19 18  1  0
 20 22  1  0
 21 20  1  0
 22 23  2  0
 22 24  1  0
M  END
$$$$
