PDM.pdb
     RDKit          3D

 24 24  0  0  1  0  0  0  0  0999 V2000
   14.8456  -10.8342   -9.9639 N   0  0  0  0  0  0  0  0  0  0  0  0
   13.6625  -11.3638   -9.3570 C   0  0  0  0  0  0  0  0  0  0  0  0
   12.6024  -11.3447  -10.4643 C   0  0  0  0  0  0  0  0  0  0  0  0
   12.9715  -10.0266  -11.1624 C   0  0  0  0  0  0  0  0  0  0  0  0
   14.4834  -10.1613  -11.1722 C   0  0  1  0  0  0  0  0  0  0  0  0
   15.1742   -8.8513  -11.3082 C   0  0  0  0  0  0  0  0  0  0  0  0
   15.0346   -8.1811  -12.3607 O   0  0  0  0  0  0  0  0  0  0  0  0
   16.0033   -8.3228  -10.2664 N   0  0  0  0  0  0  0  0  0  0  0  0
   16.5441   -6.9966  -10.2740 C   0  0  1  0  0  0  0  0  0  0  0  0
   16.0626   -6.1691   -9.1199 C   0  0  0  0  0  0  0  0  0  0  0  0
   16.5584   -4.7733   -9.1752 C   0  0  0  0  0  0  0  0  0  0  0  0
   16.5243   -4.1275  -10.2509 O   0  0  0  0  0  0  0  0  0  0  0  0
   18.0097   -6.9622  -10.4607 C   0  0  0  0  0  0  0  0  0  0  0  0
   18.7133   -7.7771   -9.8147 O   0  0  0  0  0  0  0  0  0  0  0  0
   17.0775   -4.1091   -8.0749 O   0  0  0  0  0  0  0  0  0  0  0  0
   23.5162   -9.5139  -13.6022 C   0  0  0  0  0  0  0  0  0  0  0  0
   21.9613   -9.2370  -12.7276 S   0  0  0  0  0  0  0  0  0  0  0  0
   20.9251   -8.0384  -13.6356 C   0  0  0  0  0  0  0  0  0  0  0  0
   19.7123   -7.6688  -12.8347 C   0  0  0  0  0  0  0  0  0  0  0  0
   19.8613   -6.3848  -12.1101 C   0  0  2  0  0  0  0  0  0  0  0  0
   18.6705   -6.0650  -11.3240 N   0  0  0  0  0  0  0  0  0  0  0  0
   20.3021   -5.2671  -12.9246 C   0  0  0  0  0  0  0  0  0  0  0  0
   19.4229   -4.5998  -13.5458 O   0  0  0  0  0  0  0  0  0  0  0  0
   21.6028   -4.8718  -13.0739 O   0  0  0  0  0  0  0  0  0  0  0  0
  1  5  1  0
  1  2  1  0
  2  3  1  0
  4  5  1  0
  4  3  1  0
  6  7  2  0
  5  6  1  1
  8  6  1  0
  9 13  1  0
  9  8  1  0
  9 10  1  1
 11 10  1  0
 11 12  2  0
 13 21  1  0
 14 13  2  0
 15 11  1  0
 17 16  1  0
 18 17  1  0
 20 19  1  6
 19 18  1  0
 20 22  1  0
 21 20  1  0
 22 23  2  0
 22 24  1  0
M  END
$$$$
