PDM.pdb
     RDKit          3D

 24 24  0  0  1  0  0  0  0  0999 V2000
   26.5611  -22.0663  -15.0255 N   0  0  0  0  0  0  0  0  0  0  0  0
   27.6529  -22.3016  -15.9206 C   0  0  0  0  0  0  0  0  0  0  0  0
   27.9730  -20.9314  -16.5293 C   0  0  0  0  0  0  0  0  0  0  0  0
   26.5516  -20.3652  -16.6707 C   0  0  0  0  0  0  0  0  0  0  0  0
   25.9727  -20.8012  -15.3369 C   0  0  1  0  0  0  0  0  0  0  0  0
   24.4871  -20.8669  -15.3514 C   0  0  0  0  0  0  0  0  0  0  0  0
   23.8214  -19.8333  -15.6069 O   0  0  0  0  0  0  0  0  0  0  0  0
   23.7820  -22.0840  -15.0803 N   0  0  0  0  0  0  0  0  0  0  0  0
   22.3662  -22.2360  -15.2337 C   0  0  1  0  0  0  0  0  0  0  0  0
   21.9672  -23.6451  -15.5551 C   0  0  0  0  0  0  0  0  0  0  0  0
   22.3516  -24.0455  -16.9296 C   0  0  0  0  0  0  0  0  0  0  0  0
   22.8002  -25.1957  -17.1559 O   0  0  0  0  0  0  0  0  0  0  0  0
   21.5890  -21.6342  -14.1301 C   0  0  0  0  0  0  0  0  0  0  0  0
   21.8041  -22.0356  -12.9601 O   0  0  0  0  0  0  0  0  0  0  0  0
   22.2447  -23.2005  -18.0231 O   0  0  0  0  0  0  0  0  0  0  0  0
   18.3553  -15.8638  -14.4205 C   0  0  0  0  0  0  0  0  0  0  0  0
   18.6751  -16.1290  -12.6635 S   0  0  0  0  0  0  0  0  0  0  0  0
   18.9016  -17.9080  -12.3193 C   0  0  0  0  0  0  0  0  0  0  0  0
   19.7231  -18.5579  -13.3925 C   0  0  0  0  0  0  0  0  0  0  0  0
   19.8266  -20.0279  -13.2376 C   0  0  2  0  0  0  0  0  0  0  0  0
   20.6147  -20.6317  -14.3113 N   0  0  0  0  0  0  0  0  0  0  0  0
   18.5651  -20.7139  -13.0257 C   0  0  0  0  0  0  0  0  0  0  0  0
   17.9533  -21.1623  -14.0401 O   0  0  0  0  0  0  0  0  0  0  0  0
   17.9802  -20.9189  -11.8065 O   0  0  0  0  0  0  0  0  0  0  0  0
  1  5  1  0
  1  2  1  0
  2  3  1  0
  4  5  1  0
  4  3  1  0
  6  7  2  0
  5  6  1  6
  8  6  1  0
  9 13  1  0
  9  8  1  0
  9 10  1  1
 11 10  1  0
 11 12  2  0
 13 21  1  0
 14 13  2  0
 15 11  1  0
 17 16  1  0
 18 17  1  0
 20 19  1  6
 19 18  1  0
 20 22  1  0
 21 20  1  0
 22 23  2  0
 22 24  1  0
M  END
$$$$
