PDM.pdb
     RDKit          3D

 24 24  0  0  1  0  0  0  0  0999 V2000
   18.9355  -12.7424  -17.9184 N   0  0  0  0  0  0  0  0  0  0  0  0
   18.0495  -13.6040  -18.6403 C   0  0  0  0  0  0  0  0  0  0  0  0
   18.5781  -13.6057  -20.0794 C   0  0  0  0  0  0  0  0  0  0  0  0
   19.0109  -12.1367  -20.2048 C   0  0  0  0  0  0  0  0  0  0  0  0
   19.6759  -11.9534  -18.8527 C   0  0  1  0  0  0  0  0  0  0  0  0
   19.7509  -10.5266  -18.4401 C   0  0  0  0  0  0  0  0  0  0  0  0
   20.8628   -9.9438  -18.4163 O   0  0  0  0  0  0  0  0  0  0  0  0
   18.5833   -9.7866  -18.0643 N   0  0  0  0  0  0  0  0  0  0  0  0
   18.6001   -8.4006  -17.7036 C   0  0  1  0  0  0  0  0  0  0  0  0
   17.2704   -7.7360  -17.8991 C   0  0  0  0  0  0  0  0  0  0  0  0
   16.7407   -7.9167  -19.2718 C   0  0  0  0  0  0  0  0  0  0  0  0
   17.3869   -7.4998  -20.2637 O   0  0  0  0  0  0  0  0  0  0  0  0
   19.2034   -8.1470  -16.3785 C   0  0  0  0  0  0  0  0  0  0  0  0
   18.8529   -8.8709  -15.4144 O   0  0  0  0  0  0  0  0  0  0  0  0
   15.5321   -8.5392  -19.5420 O   0  0  0  0  0  0  0  0  0  0  0  0
   22.4789   -8.9247  -10.4675 C   0  0  0  0  0  0  0  0  0  0  0  0
   21.6174   -9.0425  -12.0498 S   0  0  0  0  0  0  0  0  0  0  0  0
   22.5124   -8.1009  -13.3332 C   0  0  0  0  0  0  0  0  0  0  0  0
   21.7883   -8.1674  -14.6448 C   0  0  0  0  0  0  0  0  0  0  0  0
   20.9172   -6.9940  -14.8899 C   0  0  2  0  0  0  0  0  0  0  0  0
   20.1532   -7.1358  -16.1286 N   0  0  0  0  0  0  0  0  0  0  0  0
   21.5797   -5.7061  -14.7939 C   0  0  0  0  0  0  0  0  0  0  0  0
   21.8876   -5.1132  -15.8700 O   0  0  0  0  0  0  0  0  0  0  0  0
   21.8985   -5.0746  -13.6234 O   0  0  0  0  0  0  0  0  0  0  0  0
  1  5  1  0
  1  2  1  0
  2  3  1  0
  4  5  1  0
  4  3  1  0
  6  7  2  0
  5  6  1  1
  8  6  1  0
  9 13  1  0
  9  8  1  0
  9 10  1  1
 11 10  1  0
 11 12  2  0
 13 21  1  0
 14 13  2  0
 15 11  1  0
 17 16  1  0
 18 17  1  0
 20 19  1  6
 19 18  1  0
 20 22  1  0
 21 20  1  0
 22 23  2  0
 22 24  1  0
M  END
$$$$
