PDM.pdb
     RDKit          3D

 24 24  0  0  1  0  0  0  0  0999 V2000
   27.4875  -20.6090  -15.6613 N   0  0  0  0  0  0  0  0  0  0  0  0
   27.4694  -20.0575  -16.9819 C   0  0  0  0  0  0  0  0  0  0  0  0
   28.3927  -18.8353  -16.9172 C   0  0  0  0  0  0  0  0  0  0  0  0
   28.0446  -18.3137  -15.5144 C   0  0  0  0  0  0  0  0  0  0  0  0
   28.0063  -19.6294  -14.7585 C   0  0  1  0  0  0  0  0  0  0  0  0
   27.2075  -19.5477  -13.5067 C   0  0  0  0  0  0  0  0  0  0  0  0
   27.4213  -18.6163  -12.6924 O   0  0  0  0  0  0  0  0  0  0  0  0
   26.1906  -20.5075  -13.1955 N   0  0  0  0  0  0  0  0  0  0  0  0
   25.2548  -20.3572  -12.1218 C   0  0  1  0  0  0  0  0  0  0  0  0
   23.8934  -20.8851  -12.4630 C   0  0  0  0  0  0  0  0  0  0  0  0
   23.3250  -20.2503  -13.6759 C   0  0  0  0  0  0  0  0  0  0  0  0
   22.8968  -19.0711  -13.6364 O   0  0  0  0  0  0  0  0  0  0  0  0
   25.7710  -20.8370  -10.8228 C   0  0  0  0  0  0  0  0  0  0  0  0
   26.1946  -22.0165  -10.7474 O   0  0  0  0  0  0  0  0  0  0  0  0
   23.2312  -20.8984  -14.8975 O   0  0  0  0  0  0  0  0  0  0  0  0
   29.4569  -19.8639   -4.0890 C   0  0  0  0  0  0  0  0  0  0  0  0
   28.4569  -19.0444   -5.3492 S   0  0  0  0  0  0  0  0  0  0  0  0
   27.6177  -20.2808   -6.3989 C   0  0  0  0  0  0  0  0  0  0  0  0
   26.8229  -19.6105   -7.4796 C   0  0  0  0  0  0  0  0  0  0  0  0
   26.0444  -20.5624   -8.3064 C   0  0  2  0  0  0  0  0  0  0  0  0
   25.8167  -20.0474   -9.6559 N   0  0  0  0  0  0  0  0  0  0  0  0
   24.8263  -21.0571   -7.6912 C   0  0  0  0  0  0  0  0  0  0  0  0
   23.7186  -20.6623   -8.1618 O   0  0  0  0  0  0  0  0  0  0  0  0
   24.7788  -21.9257   -6.6359 O   0  0  0  0  0  0  0  0  0  0  0  0
  1  5  1  0
  1  2  1  0
  2  3  1  0
  4  5  1  0
  4  3  1  0
  6  7  2  0
  5  6  1  1
  8  6  1  0
  9 13  1  0
  9  8  1  0
  9 10  1  6
 11 10  1  0
 11 12  2  0
 13 21  1  0
 14 13  2  0
 15 11  1  0
 17 16  1  0
 18 17  1  0
 20 19  1  1
 19 18  1  0
 20 22  1  0
 21 20  1  0
 22 23  2  0
 22 24  1  0
M  END
$$$$
