PDM.pdb
     RDKit          3D

 24 24  0  0  1  0  0  0  0  0999 V2000
   21.7766  -12.6765  -16.9305 N   0  0  0  0  0  0  0  0  0  0  0  0
   21.3859  -13.9181  -17.5257 C   0  0  0  0  0  0  0  0  0  0  0  0
   21.5641  -13.7117  -19.0343 C   0  0  0  0  0  0  0  0  0  0  0  0
   21.1023  -12.2515  -19.1588 C   0  0  0  0  0  0  0  0  0  0  0  0
   21.7911  -11.6645  -17.9401 C   0  0  1  0  0  0  0  0  0  0  0  0
   21.1542  -10.4040  -17.4739 C   0  0  0  0  0  0  0  0  0  0  0  0
   21.0998   -9.4133  -18.2434 O   0  0  0  0  0  0  0  0  0  0  0  0
   20.5944  -10.2812  -16.1611 N   0  0  0  0  0  0  0  0  0  0  0  0
   19.9229   -9.1081  -15.6877 C   0  0  1  0  0  0  0  0  0  0  0  0
   18.7795   -9.4262  -14.7715 C   0  0  0  0  0  0  0  0  0  0  0  0
   17.7119  -10.2045  -15.4436 C   0  0  0  0  0  0  0  0  0  0  0  0
   17.3163  -11.2929  -14.9595 O   0  0  0  0  0  0  0  0  0  0  0  0
   20.8427   -8.0800  -15.1572 C   0  0  0  0  0  0  0  0  0  0  0  0
   21.5889   -8.3858  -14.1949 O   0  0  0  0  0  0  0  0  0  0  0  0
   17.0987   -9.7938  -16.6168 O   0  0  0  0  0  0  0  0  0  0  0  0
   22.1027   -0.6922  -16.0115 C   0  0  0  0  0  0  0  0  0  0  0  0
   22.9416   -2.1198  -16.7312 S   0  0  0  0  0  0  0  0  0  0  0  0
   22.8915   -3.5352  -15.5785 C   0  0  0  0  0  0  0  0  0  0  0  0
   21.9123   -4.5697  -16.0475 C   0  0  0  0  0  0  0  0  0  0  0  0
   21.7817   -5.7138  -15.1149 C   0  0  2  0  0  0  0  0  0  0  0  0
   20.9337   -6.7692  -15.6675 N   0  0  0  0  0  0  0  0  0  0  0  0
   21.4096   -5.3605  -13.7571 C   0  0  0  0  0  0  0  0  0  0  0  0
   22.3323   -5.0371  -12.9518 O   0  0  0  0  0  0  0  0  0  0  0  0
   20.1302   -5.3463  -13.2742 O   0  0  0  0  0  0  0  0  0  0  0  0
  1  5  1  0
  1  2  1  0
  2  3  1  0
  4  5  1  0
  4  3  1  0
  6  7  2  0
  5  6  1  1
  8  6  1  0
  9 13  1  0
  9  8  1  0
  9 10  1  1
 11 10  1  0
 11 12  2  0
 13 21  1  0
 14 13  2  0
 15 11  1  0
 17 16  1  0
 18 17  1  0
 20 19  1  6
 19 18  1  0
 20 22  1  0
 21 20  1  0
 22 23  2  0
 22 24  1  0
M  END
$$$$
