PDM.pdb
     RDKit          3D

 24 24  0  0  1  0  0  0  0  0999 V2000
   16.8298  -11.4518  -16.4064 N   0  0  0  0  0  0  0  0  0  0  0  0
   15.8248  -12.0733  -17.2139 C   0  0  0  0  0  0  0  0  0  0  0  0
   16.5600  -12.5462  -18.4733 C   0  0  0  0  0  0  0  0  0  0  0  0
   17.5405  -11.3784  -18.6625 C   0  0  0  0  0  0  0  0  0  0  0  0
   17.9713  -11.1750  -17.2213 C   0  0  1  0  0  0  0  0  0  0  0  0
   18.5155   -9.8134  -16.9730 C   0  0  0  0  0  0  0  0  0  0  0  0
   19.6238   -9.4874  -17.4649 O   0  0  0  0  0  0  0  0  0  0  0  0
   17.8092   -8.8503  -16.1821 N   0  0  0  0  0  0  0  0  0  0  0  0
   18.2869   -7.5245  -15.9266 C   0  0  1  0  0  0  0  0  0  0  0  0
   17.2111   -6.6088  -15.4243 C   0  0  0  0  0  0  0  0  0  0  0  0
   16.0578   -6.5240  -16.3517 C   0  0  0  0  0  0  0  0  0  0  0  0
   14.8832   -6.5988  -15.9158 O   0  0  0  0  0  0  0  0  0  0  0  0
   19.5222   -7.4926  -15.1159 C   0  0  0  0  0  0  0  0  0  0  0  0
   19.4611   -7.8679  -13.9194 O   0  0  0  0  0  0  0  0  0  0  0  0
   16.1968   -6.3618  -17.7212 O   0  0  0  0  0  0  0  0  0  0  0  0
   26.9288   -9.5714  -14.6657 C   0  0  0  0  0  0  0  0  0  0  0  0
   25.3813   -9.4083  -15.5811 S   0  0  0  0  0  0  0  0  0  0  0  0
   24.2653   -8.2327  -14.7401 C   0  0  0  0  0  0  0  0  0  0  0  0
   22.9375   -8.1692  -15.4343 C   0  0  0  0  0  0  0  0  0  0  0  0
   22.0318   -7.1424  -14.8674 C   0  0  2  0  0  0  0  0  0  0  0  0
   20.7723   -7.0635  -15.6061 N   0  0  0  0  0  0  0  0  0  0  0  0
   22.6341   -5.8379  -14.6617 C   0  0  0  0  0  0  0  0  0  0  0  0
   23.2810   -5.6429  -13.5902 O   0  0  0  0  0  0  0  0  0  0  0  0
   22.5605   -4.7937  -15.5418 O   0  0  0  0  0  0  0  0  0  0  0  0
  1  5  1  0
  1  2  1  0
  2  3  1  0
  4  5  1  0
  4  3  1  0
  6  7  2  0
  5  6  1  6
  8  6  1  0
  9 13  1  0
  9  8  1  0
  9 10  1  1
 11 10  1  0
 11 12  2  0
 13 21  1  0
 14 13  2  0
 15 11  1  0
 17 16  1  0
 18 17  1  0
 20 19  1  6
 19 18  1  0
 20 22  1  0
 21 20  1  0
 22 23  2  0
 22 24  1  0
M  END
$$$$
