PDM.pdb
     RDKit          3D

 24 24  0  0  1  0  0  0  0  0999 V2000
   21.8889   -9.7009  -17.8602 N   0  0  0  0  0  0  0  0  0  0  0  0
   22.0164  -11.1196  -17.7205 C   0  0  0  0  0  0  0  0  0  0  0  0
   20.5838  -11.6595  -17.8013 C   0  0  0  0  0  0  0  0  0  0  0  0
   19.8396  -10.5527  -17.0382 C   0  0  0  0  0  0  0  0  0  0  0  0
   20.5268   -9.3343  -17.6277 C   0  0  1  0  0  0  0  0  0  0  0  0
   20.4142   -8.1353  -16.7552 C   0  0  0  0  0  0  0  0  0  0  0  0
   19.2822   -7.6550  -16.5014 O   0  0  0  0  0  0  0  0  0  0  0  0
   21.5677   -7.5026  -16.1883 N   0  0  0  0  0  0  0  0  0  0  0  0
   21.5180   -6.2918  -15.4249 C   0  0  1  0  0  0  0  0  0  0  0  0
   22.2489   -6.4004  -14.1202 C   0  0  0  0  0  0  0  0  0  0  0  0
   22.1052   -5.1842  -13.2850 C   0  0  0  0  0  0  0  0  0  0  0  0
   21.1946   -5.1063  -12.4248 O   0  0  0  0  0  0  0  0  0  0  0  0
   21.8734   -5.0900  -16.2082 C   0  0  0  0  0  0  0  0  0  0  0  0
   22.9772   -5.0717  -16.8060 O   0  0  0  0  0  0  0  0  0  0  0  0
   22.9421   -4.0849  -13.3965 O   0  0  0  0  0  0  0  0  0  0  0  0
   20.4428   -0.1122  -21.7949 C   0  0  0  0  0  0  0  0  0  0  0  0
   19.9167   -1.4606  -20.7157 S   0  0  0  0  0  0  0  0  0  0  0  0
   20.9489   -1.5103  -19.2101 C   0  0  0  0  0  0  0  0  0  0  0  0
   20.5664   -2.6705  -18.3402 C   0  0  0  0  0  0  0  0  0  0  0  0
   21.3708   -2.7583  -17.0988 C   0  0  2  0  0  0  0  0  0  0  0  0
   21.0446   -3.9557  -16.3254 N   0  0  0  0  0  0  0  0  0  0  0  0
   21.3746   -1.5579  -16.2828 C   0  0  0  0  0  0  0  0  0  0  0  0
   20.5256   -1.4714  -15.3468 O   0  0  0  0  0  0  0  0  0  0  0  0
   22.2315   -0.5042  -16.4437 O   0  0  0  0  0  0  0  0  0  0  0  0
  1  5  1  0
  1  2  1  0
  2  3  1  0
  4  5  1  0
  4  3  1  0
  6  7  2  0
  5  6  1  1
  8  6  1  0
  9 13  1  0
  9  8  1  0
  9 10  1  1
 11 10  1  0
 11 12  2  0
 13 21  1  0
 14 13  2  0
 15 11  1  0
 17 16  1  0
 18 17  1  0
 20 19  1  6
 19 18  1  0
 20 22  1  0
 21 20  1  0
 22 23  2  0
 22 24  1  0
M  END
$$$$
