PDM.pdb
     RDKit          3D

 24 24  0  0  1  0  0  0  0  0999 V2000
   15.8766  -10.5330  -15.6129 N   0  0  0  0  0  0  0  0  0  0  0  0
   14.6433  -11.0746  -16.0970 C   0  0  0  0  0  0  0  0  0  0  0  0
   14.9349  -11.5060  -17.5389 C   0  0  0  0  0  0  0  0  0  0  0  0
   15.8684  -10.3654  -17.9735 C   0  0  0  0  0  0  0  0  0  0  0  0
   16.7277  -10.2542  -16.7272 C   0  0  1  0  0  0  0  0  0  0  0  0
   17.3892   -8.9279  -16.6042 C   0  0  0  0  0  0  0  0  0  0  0  0
   18.2545   -8.5841  -17.4465 O   0  0  0  0  0  0  0  0  0  0  0  0
   17.0683   -8.0192  -15.5443 N   0  0  0  0  0  0  0  0  0  0  0  0
   17.7039   -6.7484  -15.3645 C   0  0  1  0  0  0  0  0  0  0  0  0
   16.7683   -5.7038  -14.8337 C   0  0  0  0  0  0  0  0  0  0  0  0
   15.5589   -5.5429  -15.6757 C   0  0  0  0  0  0  0  0  0  0  0  0
   15.6615   -5.2004  -16.8788 O   0  0  0  0  0  0  0  0  0  0  0  0
   18.9827   -6.8316  -14.6284 C   0  0  0  0  0  0  0  0  0  0  0  0
   18.9852   -7.3708  -13.4946 O   0  0  0  0  0  0  0  0  0  0  0  0
   14.2730   -5.7536  -15.2033 O   0  0  0  0  0  0  0  0  0  0  0  0
   25.7229   -9.9199  -13.9512 C   0  0  0  0  0  0  0  0  0  0  0  0
   24.4414   -9.3141  -15.0694 S   0  0  0  0  0  0  0  0  0  0  0  0
   23.5579   -7.9027  -14.3197 C   0  0  0  0  0  0  0  0  0  0  0  0
   22.2483   -7.6661  -15.0111 C   0  0  0  0  0  0  0  0  0  0  0  0
   21.5029   -6.5069  -14.4667 C   0  0  2  0  0  0  0  0  0  0  0  0
   20.2072   -6.3390  -15.1235 N   0  0  0  0  0  0  0  0  0  0  0  0
   22.2550   -5.2671  -14.4039 C   0  0  0  0  0  0  0  0  0  0  0  0
   22.0810   -4.4176  -15.3272 O   0  0  0  0  0  0  0  0  0  0  0  0
   23.1428   -4.9388  -13.4168 O   0  0  0  0  0  0  0  0  0  0  0  0
  1  5  1  0
  1  2  1  0
  2  3  1  0
  4  5  1  0
  4  3  1  0
  6  7  2  0
  5  6  1  1
  8  6  1  0
  9 13  1  0
  9  8  1  0
  9 10  1  1
 11 10  1  0
 11 12  2  0
 13 21  1  0
 14 13  2  0
 15 11  1  0
 17 16  1  0
 18 17  1  0
 20 19  1  6
 19 18  1  0
 20 22  1  0
 21 20  1  0
 22 23  2  0
 22 24  1  0
M  END
$$$$
