PDM.pdb
     RDKit          3D

 24 24  0  0  1  0  0  0  0  0999 V2000
   24.8878  -21.1863  -13.2529 N   0  0  0  0  0  0  0  0  0  0  0  0
   25.2521  -22.4374  -12.6607 C   0  0  0  0  0  0  0  0  0  0  0  0
   25.5186  -23.3765  -13.8428 C   0  0  0  0  0  0  0  0  0  0  0  0
   24.4182  -22.9077  -14.8075 C   0  0  0  0  0  0  0  0  0  0  0  0
   24.5441  -21.4063  -14.6230 C   0  0  1  0  0  0  0  0  0  0  0  0
   23.3080  -20.6761  -15.0109 C   0  0  0  0  0  0  0  0  0  0  0  0
   22.9097  -20.7161  -16.2010 O   0  0  0  0  0  0  0  0  0  0  0  0
   22.5479  -19.9196  -14.0610 N   0  0  0  0  0  0  0  0  0  0  0  0
   21.3721  -19.1731  -14.3947 C   0  0  1  0  0  0  0  0  0  0  0  0
   20.3274  -19.2289  -13.3205 C   0  0  0  0  0  0  0  0  0  0  0  0
   19.8183  -20.6024  -13.0934 C   0  0  0  0  0  0  0  0  0  0  0  0
   19.8811  -21.1245  -11.9537 O   0  0  0  0  0  0  0  0  0  0  0  0
   21.6623  -17.8049  -14.8724 C   0  0  0  0  0  0  0  0  0  0  0  0
   22.2635  -17.0180  -14.1007 O   0  0  0  0  0  0  0  0  0  0  0  0
   19.2565  -21.3779  -14.0954 O   0  0  0  0  0  0  0  0  0  0  0  0
   23.6748  -16.2796  -20.5891 C   0  0  0  0  0  0  0  0  0  0  0  0
   23.1944  -14.6288  -20.0380 S   0  0  0  0  0  0  0  0  0  0  0  0
   22.9229  -14.6146  -18.2323 C   0  0  0  0  0  0  0  0  0  0  0  0
   22.5801  -15.9870  -17.7344 C   0  0  0  0  0  0  0  0  0  0  0  0
   21.5774  -15.9777  -16.6434 C   0  0  2  0  0  0  0  0  0  0  0  0
   21.3027  -17.3260  -16.1485 N   0  0  0  0  0  0  0  0  0  0  0  0
   20.3628  -15.2370  -16.9314 C   0  0  0  0  0  0  0  0  0  0  0  0
   19.3581  -15.8820  -17.3543 O   0  0  0  0  0  0  0  0  0  0  0  0
   20.2144  -13.8860  -16.7786 O   0  0  0  0  0  0  0  0  0  0  0  0
  1  5  1  0
  1  2  1  0
  2  3  1  0
  4  5  1  0
  4  3  1  0
  6  7  2  0
  5  6  1  1
  8  6  1  0
  9 13  1  0
  9  8  1  0
  9 10  1  1
 11 10  1  0
 11 12  2  0
 13 21  1  0
 14 13  2  0
 15 11  1  0
 17 16  1  0
 18 17  1  0
 20 19  1  6
 19 18  1  0
 20 22  1  0
 21 20  1  0
 22 23  2  0
 22 24  1  0
M  END
$$$$
