PDM.pdb
     RDKit          3D

 24 24  0  0  1  0  0  0  0  0999 V2000
   17.4556  -13.8216  -15.1149 N   0  0  0  0  0  0  0  0  0  0  0  0
   16.3540  -14.6621  -15.4737 C   0  0  0  0  0  0  0  0  0  0  0  0
   16.8347  -15.4500  -16.6978 C   0  0  0  0  0  0  0  0  0  0  0  0
   17.6507  -14.3608  -17.4109 C   0  0  0  0  0  0  0  0  0  0  0  0
   18.3659  -13.7582  -16.2154 C   0  0  1  0  0  0  0  0  0  0  0  0
   18.8365  -12.3705  -16.4692 C   0  0  0  0  0  0  0  0  0  0  0  0
   19.7076  -12.1604  -17.3487 O   0  0  0  0  0  0  0  0  0  0  0  0
   18.3233  -11.2526  -15.7349 N   0  0  0  0  0  0  0  0  0  0  0  0
   18.6746   -9.8912  -16.0074 C   0  0  1  0  0  0  0  0  0  0  0  0
   17.6039   -8.9246  -15.5983 C   0  0  0  0  0  0  0  0  0  0  0  0
   16.3053   -9.2023  -16.2570 C   0  0  0  0  0  0  0  0  0  0  0  0
   16.2226   -9.2463  -17.5086 O   0  0  0  0  0  0  0  0  0  0  0  0
   20.0228   -9.5257  -15.5245 C   0  0  0  0  0  0  0  0  0  0  0  0
   20.2334   -9.5236  -14.2868 O   0  0  0  0  0  0  0  0  0  0  0  0
   15.1313   -9.4244  -15.5545 O   0  0  0  0  0  0  0  0  0  0  0  0
   27.2877   -9.7666  -14.9241 C   0  0  0  0  0  0  0  0  0  0  0  0
   25.6387  -10.2193  -15.5034 S   0  0  0  0  0  0  0  0  0  0  0  0
   24.8588   -8.8118  -16.3668 C   0  0  0  0  0  0  0  0  0  0  0  0
   23.4842   -9.1750  -16.8437 C   0  0  0  0  0  0  0  0  0  0  0  0
   22.4121   -8.7392  -15.9183 C   0  0  2  0  0  0  0  0  0  0  0  0
   21.0929   -9.1766  -16.3730 N   0  0  0  0  0  0  0  0  0  0  0  0
   22.4368   -7.3306  -15.5689 C   0  0  0  0  0  0  0  0  0  0  0  0
   22.7944   -7.0142  -14.3957 O   0  0  0  0  0  0  0  0  0  0  0  0
   22.1044   -6.3081  -16.4141 O   0  0  0  0  0  0  0  0  0  0  0  0
  1  5  1  0
  1  2  1  0
  2  3  1  0
  4  5  1  0
  4  3  1  0
  6  7  2  0
  5  6  1  6
  8  6  1  0
  9 13  1  0
  9  8  1  0
  9 10  1  1
 11 10  1  0
 11 12  2  0
 13 21  1  0
 14 13  2  0
 15 11  1  0
 17 16  1  0
 18 17  1  0
 20 19  1  6
 19 18  1  0
 20 22  1  0
 21 20  1  0
 22 23  2  0
 22 24  1  0
M  END
$$$$
