CAW.pdb
     RDKit          3D

 26 27  0  0  1  0  0  0  0  0999 V2000
   26.9543  -15.3202  -16.2562 N   0  0  0  0  0  0  0  0  0  0  0  0
   26.7834  -16.2869  -15.1935 C   0  0  1  0  0  0  0  0  0  0  0  0
   25.5079  -16.0728  -14.4418 C   0  0  0  0  0  0  0  0  0  0  0  0
   25.3916  -14.4737  -13.6334 S   0  0  0  0  0  0  0  0  0  0  0  0
   26.9039  -17.6797  -15.7129 C   0  0  0  0  0  0  0  0  0  0  0  0
   27.0583  -17.8071  -16.9567 O   0  0  0  0  0  0  0  0  0  0  0  0
   28.6115  -19.9674  -15.9638 C   0  0  0  0  0  0  0  0  0  0  0  0
   27.2987  -20.1013  -15.2791 C   0  0  2  0  0  0  0  0  0  0  0  0
   26.8465  -18.8006  -14.8433 N   0  0  0  0  0  0  0  0  0  0  0  0
   27.2761  -21.0942  -14.1828 C   0  0  0  0  0  0  0  0  0  0  0  0
   27.7339  -22.2476  -14.4265 O   0  0  0  0  0  0  0  0  0  0  0  0
   26.7848  -20.8492  -12.8951 N   0  0  0  0  0  0  0  0  0  0  0  0
   25.9438  -21.7824  -12.1503 C   0  0  1  0  0  0  0  0  0  0  0  0
   26.5799  -22.1623  -10.8655 C   0  0  0  0  0  0  0  0  0  0  0  0
   26.4753  -21.2332   -9.7539 C   0  0  0  0  0  0  0  0  0  0  0  0
   25.2923  -20.6348   -9.3064 C   0  0  0  0  0  0  0  0  0  0  0  0
   25.6198  -19.8303   -8.2900 N   0  0  0  0  0  0  0  0  0  0  0  0
   26.9424  -19.8807   -8.0618 C   0  0  0  0  0  0  0  0  0  0  0  0
   27.7747  -19.2694   -7.1402 C   0  0  0  0  0  0  0  0  0  0  0  0
   29.1283  -19.4867   -7.0779 C   0  0  0  0  0  0  0  0  0  0  0  0
   29.6880  -20.3627   -7.9847 C   0  0  0  0  0  0  0  0  0  0  0  0
   28.8922  -20.9846   -8.9114 C   0  0  0  0  0  0  0  0  0  0  0  0
   27.5248  -20.7567   -8.9652 C   0  0  0  0  0  0  0  0  0  0  0  0
   24.5598  -21.3811  -12.0687 C   0  0  0  0  0  0  0  0  0  0  0  0
   23.5978  -22.3624  -11.7577 O   0  0  0  0  0  0  0  0  0  0  0  0
   24.1911  -20.2059  -12.2628 O   0  0  0  0  0  0  0  0  0  0  0  0
  2  1  1  6
  2  3  1  0
  4  3  1  0
  5  6  2  0
  5  2  1  0
  8  7  1  1
  8  9  1  0
  8 10  1  0
  9  5  1  0
 10 11  2  0
 12 10  1  0
 12 13  1  0
 13 14  1  1
 15 16  2  0
 15 14  1  0
 17 16  1  0
 18 23  2  0
 18 17  1  0
 19 18  1  0
 20 19  2  0
 20 21  1  0
 21 22  2  0
 22 23  1  0
 23 15  1  0
 24 25  1  0
 24 13  1  0
 26 24  2  0
M  END
$$$$
