CAW.pdb
     RDKit          3D

 26 27  0  0  1  0  0  0  0  0999 V2000
   26.5725  -16.6830  -17.1143 N   0  0  0  0  0  0  0  0  0  0  0  0
   26.9964  -17.0555  -15.7822 C   0  0  1  0  0  0  0  0  0  0  0  0
   26.0444  -16.5698  -14.7355 C   0  0  0  0  0  0  0  0  0  0  0  0
   26.6684  -16.7027  -13.0571 S   0  0  0  0  0  0  0  0  0  0  0  0
   27.2351  -18.5247  -15.6882 C   0  0  0  0  0  0  0  0  0  0  0  0
   26.4638  -19.2658  -16.3538 O   0  0  0  0  0  0  0  0  0  0  0  0
   29.9420  -20.7086  -14.4024 C   0  0  0  0  0  0  0  0  0  0  0  0
   28.5460  -20.4735  -14.8563 C   0  0  2  0  0  0  0  0  0  0  0  0
   28.2808  -19.0540  -14.8868 N   0  0  0  0  0  0  0  0  0  0  0  0
   27.5186  -21.2150  -14.0928 C   0  0  0  0  0  0  0  0  0  0  0  0
   27.5224  -22.4768  -14.1768 O   0  0  0  0  0  0  0  0  0  0  0  0
   26.5429  -20.6209  -13.2837 N   0  0  0  0  0  0  0  0  0  0  0  0
   25.5627  -21.3701  -12.5022 C   0  0  1  0  0  0  0  0  0  0  0  0
   26.1677  -21.8968  -11.2547 C   0  0  0  0  0  0  0  0  0  0  0  0
   26.2511  -21.0059  -10.1105 C   0  0  0  0  0  0  0  0  0  0  0  0
   25.2270  -20.1645   -9.6621 C   0  0  0  0  0  0  0  0  0  0  0  0
   25.7043  -19.4918   -8.6099 N   0  0  0  0  0  0  0  0  0  0  0  0
   26.9729  -19.8551   -8.3597 C   0  0  0  0  0  0  0  0  0  0  0  0
   27.8992  -19.4842   -7.4004 C   0  0  0  0  0  0  0  0  0  0  0  0
   29.1638  -20.0114   -7.3218 C   0  0  0  0  0  0  0  0  0  0  0  0
   29.5298  -20.9630   -8.2510 C   0  0  0  0  0  0  0  0  0  0  0  0
   28.6367  -21.3525   -9.2151 C   0  0  0  0  0  0  0  0  0  0  0  0
   27.3610  -20.8120   -9.2851 C   0  0  0  0  0  0  0  0  0  0  0  0
   24.2995  -20.6894  -12.3462 C   0  0  0  0  0  0  0  0  0  0  0  0
   23.2166  -21.4090  -11.8032 O   0  0  0  0  0  0  0  0  0  0  0  0
   24.1366  -19.4974  -12.6732 O   0  0  0  0  0  0  0  0  0  0  0  0
  2  1  1  6
  2  3  1  0
  4  3  1  0
  5  6  2  0
  5  2  1  0
  8  7  1  1
  8  9  1  0
  8 10  1  0
  9  5  1  0
 10 11  2  0
 12 10  1  0
 12 13  1  0
 13 14  1  1
 15 16  2  0
 15 14  1  0
 17 16  1  0
 18 23  2  0
 18 17  1  0
 19 18  1  0
 20 19  2  0
 20 21  1  0
 21 22  2  0
 22 23  1  0
 23 15  1  0
 24 25  1  0
 24 13  1  0
 26 24  2  0
M  END
$$$$
