CAW.pdb
     RDKit          3D

 26 27  0  0  1  0  0  0  0  0999 V2000
   20.7857   -2.5870  -22.5952 N   0  0  0  0  0  0  0  0  0  0  0  0
   19.7424   -2.9647  -21.6669 C   0  0  1  0  0  0  0  0  0  0  0  0
   19.1050   -4.2656  -22.0401 C   0  0  0  0  0  0  0  0  0  0  0  0
   17.8021   -4.7922  -20.9225 S   0  0  0  0  0  0  0  0  0  0  0  0
   20.2497   -2.9682  -20.2644 C   0  0  0  0  0  0  0  0  0  0  0  0
   21.4255   -3.3858  -20.0904 O   0  0  0  0  0  0  0  0  0  0  0  0
   19.1241   -1.6210  -16.9898 C   0  0  0  0  0  0  0  0  0  0  0  0
   19.9427   -2.5341  -17.8302 C   0  0  2  0  0  0  0  0  0  0  0  0
   19.4425   -2.5217  -19.1851 N   0  0  0  0  0  0  0  0  0  0  0  0
   20.0724   -3.9082  -17.2977 C   0  0  0  0  0  0  0  0  0  0  0  0
   19.2352   -4.7708  -17.6904 O   0  0  0  0  0  0  0  0  0  0  0  0
   21.0551   -4.3225  -16.3909 N   0  0  0  0  0  0  0  0  0  0  0  0
   21.1286   -5.6663  -15.8235 C   0  0  1  0  0  0  0  0  0  0  0  0
   22.4816   -5.9414  -15.2819 C   0  0  0  0  0  0  0  0  0  0  0  0
   22.7488   -7.2713  -14.7627 C   0  0  0  0  0  0  0  0  0  0  0  0
   23.6107   -8.2093  -15.3416 C   0  0  0  0  0  0  0  0  0  0  0  0
   23.5593   -9.3096  -14.5838 N   0  0  0  0  0  0  0  0  0  0  0  0
   22.7158   -9.1286  -13.5543 C   0  0  0  0  0  0  0  0  0  0  0  0
   22.3206   -9.9261  -12.4943 C   0  0  0  0  0  0  0  0  0  0  0  0
   21.4375   -9.5192  -11.5258 C   0  0  0  0  0  0  0  0  0  0  0  0
   20.9163   -8.2451  -11.6158 C   0  0  0  0  0  0  0  0  0  0  0  0
   21.2862   -7.4296  -12.6535 C   0  0  0  0  0  0  0  0  0  0  0  0
   22.1794   -7.8521  -13.6273 C   0  0  0  0  0  0  0  0  0  0  0  0
   20.0268   -5.9901  -14.9492 C   0  0  0  0  0  0  0  0  0  0  0  0
   19.3412   -7.2026  -15.1610 O   0  0  0  0  0  0  0  0  0  0  0  0
   19.6653   -5.2393  -14.0218 O   0  0  0  0  0  0  0  0  0  0  0  0
  2  1  1  6
  2  3  1  0
  4  3  1  0
  5  6  2  0
  5  2  1  0
  8  7  1  1
  8  9  1  0
  8 10  1  0
  9  5  1  0
 10 11  2  0
 12 10  1  0
 12 13  1  0
 13 14  1  1
 15 16  2  0
 15 14  1  0
 17 16  1  0
 18 23  2  0
 18 17  1  0
 19 18  1  0
 20 19  2  0
 20 21  1  0
 21 22  2  0
 22 23  1  0
 23 15  1  0
 24 25  1  0
 24 13  1  0
 26 24  2  0
M  END
$$$$
