CAW.pdb
     RDKit          3D

 26 27  0  0  1  0  0  0  0  0999 V2000
   44.7451  -11.1234   -6.5466 N   0  0  0  0  0  0  0  0  0  0  0  0
   43.3030  -11.0318   -6.4773 C   0  0  1  0  0  0  0  0  0  0  0  0
   42.8457  -10.3257   -5.2404 C   0  0  0  0  0  0  0  0  0  0  0  0
   41.0627  -10.2923   -5.0307 S   0  0  0  0  0  0  0  0  0  0  0  0
   42.7461  -10.4155   -7.7160 C   0  0  0  0  0  0  0  0  0  0  0  0
   43.3161   -9.3724   -8.1331 O   0  0  0  0  0  0  0  0  0  0  0  0
   40.2627  -11.2411  -10.3343 C   0  0  0  0  0  0  0  0  0  0  0  0
   40.9678  -10.2714   -9.4552 C   0  0  2  0  0  0  0  0  0  0  0  0
   41.6296  -10.9818   -8.3858 N   0  0  0  0  0  0  0  0  0  0  0  0
   40.1188   -9.1705   -8.9498 C   0  0  0  0  0  0  0  0  0  0  0  0
   39.2601   -9.4509   -8.0647 O   0  0  0  0  0  0  0  0  0  0  0  0
   40.1975   -7.8408   -9.3801 N   0  0  0  0  0  0  0  0  0  0  0  0
   39.2353   -6.8051   -9.0132 C   0  0  1  0  0  0  0  0  0  0  0  0
   39.9222   -5.6144   -8.4563 C   0  0  0  0  0  0  0  0  0  0  0  0
   39.1057   -4.4769   -8.0702 C   0  0  0  0  0  0  0  0  0  0  0  0
   39.1135   -3.8632   -6.8128 C   0  0  0  0  0  0  0  0  0  0  0  0
   38.2084   -2.8798   -6.8505 N   0  0  0  0  0  0  0  0  0  0  0  0
   37.6239   -2.8291   -8.0587 C   0  0  0  0  0  0  0  0  0  0  0  0
   36.6567   -2.0109   -8.6162 C   0  0  0  0  0  0  0  0  0  0  0  0
   36.2118   -2.1327   -9.9086 C   0  0  0  0  0  0  0  0  0  0  0  0
   36.7598   -3.1260  -10.6935 C   0  0  0  0  0  0  0  0  0  0  0  0
   37.7194   -3.9544  -10.1722 C   0  0  0  0  0  0  0  0  0  0  0  0
   38.1611   -3.8221   -8.8638 C   0  0  0  0  0  0  0  0  0  0  0  0
   38.2496   -6.5387  -10.0333 C   0  0  0  0  0  0  0  0  0  0  0  0
   36.9272   -6.2686   -9.6289 O   0  0  0  0  0  0  0  0  0  0  0  0
   38.5270   -6.5400  -11.2489 O   0  0  0  0  0  0  0  0  0  0  0  0
  2  1  1  6
  2  3  1  0
  4  3  1  0
  5  6  2  0
  5  2  1  0
  8  7  1  1
  8  9  1  0
  8 10  1  0
  9  5  1  0
 10 11  2  0
 12 10  1  0
 12 13  1  0
 13 14  1  6
 15 16  2  0
 15 14  1  0
 17 16  1  0
 18 23  2  0
 18 17  1  0
 19 18  1  0
 20 19  2  0
 20 21  1  0
 21 22  2  0
 22 23  1  0
 23 15  1  0
 24 25  1  0
 24 13  1  0
 26 24  2  0
M  END
$$$$
