CAW.pdb
     RDKit          3D

 26 27  0  0  1  0  0  0  0  0999 V2000
   27.0060  -19.1788  -15.4695 N   0  0  0  0  0  0  0  0  0  0  0  0
   27.1032  -18.8089  -14.0742 C   0  0  1  0  0  0  0  0  0  0  0  0
   25.8643  -18.1255  -13.5886 C   0  0  0  0  0  0  0  0  0  0  0  0
   25.3023  -16.7867  -14.6450 S   0  0  0  0  0  0  0  0  0  0  0  0
   27.4635  -19.9863  -13.2327 C   0  0  0  0  0  0  0  0  0  0  0  0
   26.8616  -21.0644  -13.4826 O   0  0  0  0  0  0  0  0  0  0  0  0
   30.1368  -20.8824  -10.8412 C   0  0  0  0  0  0  0  0  0  0  0  0
   28.7575  -21.0290  -11.3761 C   0  0  2  0  0  0  0  0  0  0  0  0
   28.4369  -19.8893  -12.2035 N   0  0  0  0  0  0  0  0  0  0  0  0
   27.7232  -21.2787  -10.3483 C   0  0  0  0  0  0  0  0  0  0  0  0
   27.8458  -22.3139   -9.6323 O   0  0  0  0  0  0  0  0  0  0  0  0
   26.6191  -20.4517  -10.1108 N   0  0  0  0  0  0  0  0  0  0  0  0
   25.5466  -20.7705   -9.1720 C   0  0  1  0  0  0  0  0  0  0  0  0
   25.4782  -19.7669   -8.0822 C   0  0  0  0  0  0  0  0  0  0  0  0
   26.7206  -19.3742   -7.4404 C   0  0  0  0  0  0  0  0  0  0  0  0
   27.5618  -18.3407   -7.8670 C   0  0  0  0  0  0  0  0  0  0  0  0
   28.6073  -18.3166   -7.0340 N   0  0  0  0  0  0  0  0  0  0  0  0
   28.4824  -19.2736   -6.0999 C   0  0  0  0  0  0  0  0  0  0  0  0
   29.2583  -19.6591   -5.0205 C   0  0  0  0  0  0  0  0  0  0  0  0
   28.9197  -20.6797   -4.1678 C   0  0  0  0  0  0  0  0  0  0  0  0
   27.7411  -21.3574   -4.4014 C   0  0  0  0  0  0  0  0  0  0  0  0
   26.9495  -21.0015   -5.4623 C   0  0  0  0  0  0  0  0  0  0  0  0
   27.3023  -19.9682   -6.3181 C   0  0  0  0  0  0  0  0  0  0  0  0
   24.2911  -21.0891   -9.8089 C   0  0  0  0  0  0  0  0  0  0  0  0
   23.2099  -21.4796   -8.9942 O   0  0  0  0  0  0  0  0  0  0  0  0
   24.1336  -21.0310  -11.0444 O   0  0  0  0  0  0  0  0  0  0  0  0
  2  1  1  6
  2  3  1  0
  4  3  1  0
  5  6  2  0
  5  2  1  0
  8  7  1  1
  8  9  1  0
  8 10  1  0
  9  5  1  0
 10 11  2  0
 12 10  1  0
 12 13  1  0
 13 14  1  1
 15 16  2  0
 15 14  1  0
 17 16  1  0
 18 23  2  0
 18 17  1  0
 19 18  1  0
 20 19  2  0
 20 21  1  0
 21 22  2  0
 22 23  1  0
 23 15  1  0
 24 25  1  0
 24 13  1  0
 26 24  2  0
M  END
$$$$
