CAW.pdb
     RDKit          3D

 26 27  0  0  1  0  0  0  0  0999 V2000
   29.8546  -22.7116  -17.6107 N   0  0  0  0  0  0  0  0  0  0  0  0
   28.7774  -21.7476  -17.5556 C   0  0  1  0  0  0  0  0  0  0  0  0
   27.5049  -22.2971  -18.1185 C   0  0  0  0  0  0  0  0  0  0  0  0
   26.6542  -23.4424  -17.0285 S   0  0  0  0  0  0  0  0  0  0  0  0
   28.6000  -21.2224  -16.1710 C   0  0  0  0  0  0  0  0  0  0  0  0
   29.1353  -21.8850  -15.2429 O   0  0  0  0  0  0  0  0  0  0  0  0
   27.3487  -18.0820  -14.6335 C   0  0  0  0  0  0  0  0  0  0  0  0
   27.7224  -19.5199  -14.5774 C   0  0  2  0  0  0  0  0  0  0  0  0
   27.8637  -20.0347  -15.9195 N   0  0  0  0  0  0  0  0  0  0  0  0
   26.8236  -20.3565  -13.7525 C   0  0  0  0  0  0  0  0  0  0  0  0
   25.7975  -20.8414  -14.3104 O   0  0  0  0  0  0  0  0  0  0  0  0
   27.0271  -20.6506  -12.3991 N   0  0  0  0  0  0  0  0  0  0  0  0
   26.0991  -21.4299  -11.5839 C   0  0  1  0  0  0  0  0  0  0  0  0
   26.7279  -21.8357  -10.3034 C   0  0  0  0  0  0  0  0  0  0  0  0
   26.7774  -20.8582   -9.2302 C   0  0  0  0  0  0  0  0  0  0  0  0
   25.8693  -19.8097   -9.0465 C   0  0  0  0  0  0  0  0  0  0  0  0
   26.2740  -19.1237   -7.9726 N   0  0  0  0  0  0  0  0  0  0  0  0
   27.3867  -19.6735   -7.4593 C   0  0  0  0  0  0  0  0  0  0  0  0
   28.1841  -19.3708   -6.3692 C   0  0  0  0  0  0  0  0  0  0  0  0
   29.2919  -20.0982   -6.0132 C   0  0  0  0  0  0  0  0  0  0  0  0
   29.6275  -21.1907   -6.7857 C   0  0  0  0  0  0  0  0  0  0  0  0
   28.8596  -21.5179   -7.8729 C   0  0  0  0  0  0  0  0  0  0  0  0
   27.7420  -20.7746   -8.2236 C   0  0  0  0  0  0  0  0  0  0  0  0
   24.7844  -20.8438  -11.4773 C   0  0  0  0  0  0  0  0  0  0  0  0
   23.6807  -21.7054  -11.3197 O   0  0  0  0  0  0  0  0  0  0  0  0
   24.5951  -19.6122  -11.5201 O   0  0  0  0  0  0  0  0  0  0  0  0
  2  1  1  1
  2  3  1  0
  4  3  1  0
  5  6  2  0
  5  2  1  0
  8  7  1  6
  8  9  1  0
  8 10  1  0
  9  5  1  0
 10 11  2  0
 12 10  1  0
 12 13  1  0
 13 14  1  1
 15 16  2  0
 15 14  1  0
 17 16  1  0
 18 23  2  0
 18 17  1  0
 19 18  1  0
 20 19  2  0
 20 21  1  0
 21 22  2  0
 22 23  1  0
 23 15  1  0
 24 25  1  0
 24 13  1  0
 26 24  2  0
M  END
$$$$
