CAW.pdb
     RDKit          3D

 26 27  0  0  1  0  0  0  0  0999 V2000
   24.5063  -17.4518  -14.8784 N   0  0  0  0  0  0  0  0  0  0  0  0
   24.0247  -18.7614  -15.2605 C   0  0  1  0  0  0  0  0  0  0  0  0
   23.3273  -18.7373  -16.5837 C   0  0  0  0  0  0  0  0  0  0  0  0
   22.2819  -17.2996  -16.8365 S   0  0  0  0  0  0  0  0  0  0  0  0
   25.1246  -19.7680  -15.2219 C   0  0  0  0  0  0  0  0  0  0  0  0
   25.5578  -20.1739  -16.3331 O   0  0  0  0  0  0  0  0  0  0  0  0
   27.9353  -20.0355  -14.6808 C   0  0  0  0  0  0  0  0  0  0  0  0
   26.9534  -20.8635  -13.9321 C   0  0  2  0  0  0  0  0  0  0  0  0
   25.6517  -20.2402  -13.9911 N   0  0  0  0  0  0  0  0  0  0  0  0
   27.3532  -21.1865  -12.5450 C   0  0  0  0  0  0  0  0  0  0  0  0
   27.7937  -22.3498  -12.3173 O   0  0  0  0  0  0  0  0  0  0  0  0
   27.2795  -20.2973  -11.4664 N   0  0  0  0  0  0  0  0  0  0  0  0
   26.7706  -20.6560  -10.1452 C   0  0  1  0  0  0  0  0  0  0  0  0
   27.2220  -19.6843   -9.1197 C   0  0  0  0  0  0  0  0  0  0  0  0
   26.8482  -19.9308   -7.7380 C   0  0  0  0  0  0  0  0  0  0  0  0
   25.5913  -20.3661   -7.3038 C   0  0  0  0  0  0  0  0  0  0  0  0
   25.6422  -20.4440   -5.9700 N   0  0  0  0  0  0  0  0  0  0  0  0
   26.8584  -20.0848   -5.5273 C   0  0  0  0  0  0  0  0  0  0  0  0
   27.4298  -20.0055   -4.2691 C   0  0  0  0  0  0  0  0  0  0  0  0
   28.7280  -19.6201   -4.0475 C   0  0  0  0  0  0  0  0  0  0  0  0
   29.5045  -19.2941   -5.1402 C   0  0  0  0  0  0  0  0  0  0  0  0
   28.9694  -19.3613   -6.4004 C   0  0  0  0  0  0  0  0  0  0  0  0
   27.6551  -19.7518   -6.6122 C   0  0  0  0  0  0  0  0  0  0  0  0
   25.3625  -20.9729  -10.1301 C   0  0  0  0  0  0  0  0  0  0  0  0
   24.9311  -22.0570   -9.3403 O   0  0  0  0  0  0  0  0  0  0  0  0
   24.5236  -20.3252  -10.7868 O   0  0  0  0  0  0  0  0  0  0  0  0
  2  1  1  6
  2  3  1  0
  4  3  1  0
  5  6  2  0
  5  2  1  0
  8  7  1  1
  8  9  1  0
  8 10  1  0
  9  5  1  0
 10 11  2  0
 12 10  1  0
 12 13  1  0
 13 14  1  1
 15 16  2  0
 15 14  1  0
 17 16  1  0
 18 23  2  0
 18 17  1  0
 19 18  1  0
 20 19  2  0
 20 21  1  0
 21 22  2  0
 22 23  1  0
 23 15  1  0
 24 25  1  0
 24 13  1  0
 26 24  2  0
M  END
$$$$
