CAW.pdb
     RDKit          3D

 26 27  0  0  1  0  0  0  0  0999 V2000
   26.6733   -3.7486  -18.5729 N   0  0  0  0  0  0  0  0  0  0  0  0
   27.1163   -5.1034  -18.3256 C   0  0  1  0  0  0  0  0  0  0  0  0
   28.3829   -5.1418  -17.5306 C   0  0  0  0  0  0  0  0  0  0  0  0
   29.6455   -4.0020  -18.1056 S   0  0  0  0  0  0  0  0  0  0  0  0
   26.0330   -5.9142  -17.6984 C   0  0  0  0  0  0  0  0  0  0  0  0
   26.2841   -7.1322  -17.4966 O   0  0  0  0  0  0  0  0  0  0  0  0
   22.8255   -5.2438  -15.9755 C   0  0  0  0  0  0  0  0  0  0  0  0
   23.7439   -6.1298  -16.7383 C   0  0  2  0  0  0  0  0  0  0  0  0
   24.7844   -5.3356  -17.3491 N   0  0  0  0  0  0  0  0  0  0  0  0
   23.0730   -7.0144  -17.7159 C   0  0  0  0  0  0  0  0  0  0  0  0
   23.0071   -6.6196  -18.9155 O   0  0  0  0  0  0  0  0  0  0  0  0
   22.5063   -8.2571  -17.4090 N   0  0  0  0  0  0  0  0  0  0  0  0
   21.7337   -9.0585  -18.3545 C   0  0  1  0  0  0  0  0  0  0  0  0
   22.0634  -10.4987  -18.2245 C   0  0  0  0  0  0  0  0  0  0  0  0
   21.4977  -11.4164  -19.1979 C   0  0  0  0  0  0  0  0  0  0  0  0
   22.0946  -11.7821  -20.4094 C   0  0  0  0  0  0  0  0  0  0  0  0
   21.2508  -12.6154  -21.0268 N   0  0  0  0  0  0  0  0  0  0  0  0
   20.1505  -12.8039  -20.2799 C   0  0  0  0  0  0  0  0  0  0  0  0
   19.0053  -13.5637  -20.4445 C   0  0  0  0  0  0  0  0  0  0  0  0
   17.9919  -13.6199  -19.5208 C   0  0  0  0  0  0  0  0  0  0  0  0
   18.1239  -12.8775  -18.3656 C   0  0  0  0  0  0  0  0  0  0  0  0
   19.2453  -12.1136  -18.1713 C   0  0  0  0  0  0  0  0  0  0  0  0
   20.2631  -12.0640  -19.1126 C   0  0  0  0  0  0  0  0  0  0  0  0
   20.3266   -8.7380  -18.3755 C   0  0  0  0  0  0  0  0  0  0  0  0
   19.6358   -8.8469  -19.5987 O   0  0  0  0  0  0  0  0  0  0  0  0
   19.7083   -8.3714  -17.3568 O   0  0  0  0  0  0  0  0  0  0  0  0
  2  1  1  1
  2  3  1  0
  4  3  1  0
  5  6  2  0
  5  2  1  0
  8  7  1  6
  8  9  1  0
  8 10  1  0
  9  5  1  0
 10 11  2  0
 12 10  1  0
 12 13  1  0
 13 14  1  1
 15 16  2  0
 15 14  1  0
 17 16  1  0
 18 23  2  0
 18 17  1  0
 19 18  1  0
 20 19  2  0
 20 21  1  0
 21 22  2  0
 22 23  1  0
 23 15  1  0
 24 25  1  0
 24 13  1  0
 26 24  2  0
M  END
$$$$
