CAW.pdb
     RDKit          3D

 26 27  0  0  1  0  0  0  0  0999 V2000
   20.5444  -33.0458  -10.3441 N   0  0  0  0  0  0  0  0  0  0  0  0
   21.3711  -32.0522  -10.9940 C   0  0  1  0  0  0  0  0  0  0  0  0
   22.2375  -32.6522  -12.0556 C   0  0  0  0  0  0  0  0  0  0  0  0
   23.4622  -33.8100  -11.4362 S   0  0  0  0  0  0  0  0  0  0  0  0
   20.5440  -30.9247  -11.5127 C   0  0  0  0  0  0  0  0  0  0  0  0
   21.1667  -29.9558  -12.0230 O   0  0  0  0  0  0  0  0  0  0  0  0
   17.0007  -30.2519  -12.2841 C   0  0  0  0  0  0  0  0  0  0  0  0
   18.3414  -29.8025  -11.8248 C   0  0  2  0  0  0  0  0  0  0  0  0
   19.1266  -30.9494  -11.4320 N   0  0  0  0  0  0  0  0  0  0  0  0
   18.3137  -28.7612  -10.7745 C   0  0  0  0  0  0  0  0  0  0  0  0
   17.9476  -29.1075   -9.6147 O   0  0  0  0  0  0  0  0  0  0  0  0
   18.6640  -27.4203  -10.9717 N   0  0  0  0  0  0  0  0  0  0  0  0
   18.7059  -26.4218   -9.9067 C   0  0  1  0  0  0  0  0  0  0  0  0
   19.6851  -25.3524  -10.2187 C   0  0  0  0  0  0  0  0  0  0  0  0
   19.3244  -24.3741  -11.2299 C   0  0  0  0  0  0  0  0  0  0  0  0
   18.5765  -23.2132  -11.0043 C   0  0  0  0  0  0  0  0  0  0  0  0
   18.4383  -22.6000  -12.1843 N   0  0  0  0  0  0  0  0  0  0  0  0
   19.0551  -23.3008  -13.1499 C   0  0  0  0  0  0  0  0  0  0  0  0
   19.2235  -23.1057  -14.5099 C   0  0  0  0  0  0  0  0  0  0  0  0
   19.9231  -23.9649  -15.3194 C   0  0  0  0  0  0  0  0  0  0  0  0
   20.4887  -25.0840  -14.7442 C   0  0  0  0  0  0  0  0  0  0  0  0
   20.3404  -25.3076  -13.4000 C   0  0  0  0  0  0  0  0  0  0  0  0
   19.6302  -24.4322  -12.5915 C   0  0  0  0  0  0  0  0  0  0  0  0
   17.4029  -25.9718   -9.4790 C   0  0  0  0  0  0  0  0  0  0  0  0
   17.2750  -25.4339   -8.1830 O   0  0  0  0  0  0  0  0  0  0  0  0
   16.3965  -26.0428  -10.2115 O   0  0  0  0  0  0  0  0  0  0  0  0
  2  1  1  6
  2  3  1  0
  4  3  1  0
  5  6  2  0
  5  2  1  0
  8  7  1  1
  8  9  1  0
  8 10  1  0
  9  5  1  0
 10 11  2  0
 12 10  1  0
 12 13  1  0
 13 14  1  6
 15 16  2  0
 15 14  1  0
 17 16  1  0
 18 23  2  0
 18 17  1  0
 19 18  1  0
 20 19  2  0
 20 21  1  0
 21 22  2  0
 22 23  1  0
 23 15  1  0
 24 25  1  0
 24 13  1  0
 26 24  2  0
M  END
$$$$
