CAW.pdb
     RDKit          3D

 26 27  0  0  1  0  0  0  0  0999 V2000
   26.9350  -18.5631  -16.3263 N   0  0  0  0  0  0  0  0  0  0  0  0
   27.4431  -18.6022  -14.9723 C   0  0  1  0  0  0  0  0  0  0  0  0
   28.4975  -17.5668  -14.7399 C   0  0  0  0  0  0  0  0  0  0  0  0
   29.9988  -17.8214  -15.6914 S   0  0  0  0  0  0  0  0  0  0  0  0
   26.3325  -18.5072  -13.9814 C   0  0  0  0  0  0  0  0  0  0  0  0
   25.5166  -17.5600  -14.1368 O   0  0  0  0  0  0  0  0  0  0  0  0
   23.8922  -19.9693  -13.2222 C   0  0  0  0  0  0  0  0  0  0  0  0
   24.9485  -19.6223  -12.2352 C   0  0  2  0  0  0  0  0  0  0  0  0
   26.2077  -19.4410  -12.9192 N   0  0  0  0  0  0  0  0  0  0  0  0
   25.0624  -20.5645  -11.1005 C   0  0  0  0  0  0  0  0  0  0  0  0
   25.1112  -21.7999  -11.3665 O   0  0  0  0  0  0  0  0  0  0  0  0
   25.1206  -20.1873   -9.7536 N   0  0  0  0  0  0  0  0  0  0  0  0
   24.8321  -21.0873   -8.6401 C   0  0  1  0  0  0  0  0  0  0  0  0
   25.5090  -20.6337   -7.4008 C   0  0  0  0  0  0  0  0  0  0  0  0
   26.9590  -20.5491   -7.4100 C   0  0  0  0  0  0  0  0  0  0  0  0
   27.7850  -20.9068   -8.4812 C   0  0  0  0  0  0  0  0  0  0  0  0
   29.0471  -20.7108   -8.0859 N   0  0  0  0  0  0  0  0  0  0  0  0
   29.0752  -20.2480   -6.8253 C   0  0  0  0  0  0  0  0  0  0  0  0
   30.0971  -19.8773   -5.9685 C   0  0  0  0  0  0  0  0  0  0  0  0
   29.8883  -19.4043   -4.6973 C   0  0  0  0  0  0  0  0  0  0  0  0
   28.5878  -19.2931   -4.2510 C   0  0  0  0  0  0  0  0  0  0  0  0
   27.5521  -19.6523   -5.0739 C   0  0  0  0  0  0  0  0  0  0  0  0
   27.7754  -20.1298   -6.3571 C   0  0  0  0  0  0  0  0  0  0  0  0
   23.4332  -21.4159   -8.5046 C   0  0  0  0  0  0  0  0  0  0  0  0
   23.0693  -22.4165   -7.5818 O   0  0  0  0  0  0  0  0  0  0  0  0
   22.5449  -20.8491   -9.1711 O   0  0  0  0  0  0  0  0  0  0  0  0
  2  1  1  6
  2  3  1  0
  4  3  1  0
  5  6  2  0
  5  2  1  0
  8  7  1  6
  8  9  1  0
  8 10  1  0
  9  5  1  0
 10 11  2  0
 12 10  1  0
 12 13  1  0
 13 14  1  1
 15 16  2  0
 15 14  1  0
 17 16  1  0
 18 23  2  0
 18 17  1  0
 19 18  1  0
 20 19  2  0
 20 21  1  0
 21 22  2  0
 22 23  1  0
 23 15  1  0
 24 25  1  0
 24 13  1  0
 26 24  2  0
M  END
$$$$
