CAW.pdb
     RDKit          3D

 26 27  0  0  1  0  0  0  0  0999 V2000
   17.2536  -28.9876   -6.5076 N   0  0  0  0  0  0  0  0  0  0  0  0
   16.8500  -28.4810   -7.8013 C   0  0  1  0  0  0  0  0  0  0  0  0
   15.4770  -28.9396   -8.1785 C   0  0  0  0  0  0  0  0  0  0  0  0
   15.3774  -29.7009   -9.8016 S   0  0  0  0  0  0  0  0  0  0  0  0
   16.9839  -26.9967   -7.8600 C   0  0  0  0  0  0  0  0  0  0  0  0
   16.4072  -26.3414   -6.9516 O   0  0  0  0  0  0  0  0  0  0  0  0
   18.3431  -24.4153   -7.6405 C   0  0  0  0  0  0  0  0  0  0  0  0
   17.8391  -24.9227   -8.9439 C   0  0  2  0  0  0  0  0  0  0  0  0
   17.7256  -26.3616   -8.8907 N   0  0  0  0  0  0  0  0  0  0  0  0
   18.6127  -24.4689  -10.1204 C   0  0  0  0  0  0  0  0  0  0  0  0
   19.3697  -25.3102  -10.6847 O   0  0  0  0  0  0  0  0  0  0  0  0
   18.5669  -23.1756  -10.6542 N   0  0  0  0  0  0  0  0  0  0  0  0
   19.2803  -22.7641  -11.8604 C   0  0  1  0  0  0  0  0  0  0  0  0
   20.6728  -23.2744  -11.8548 C   0  0  0  0  0  0  0  0  0  0  0  0
   21.7023  -22.4483  -12.4609 C   0  0  0  0  0  0  0  0  0  0  0  0
   21.8368  -21.0660  -12.2906 C   0  0  0  0  0  0  0  0  0  0  0  0
   22.8811  -20.6793  -13.0306 N   0  0  0  0  0  0  0  0  0  0  0  0
   23.4218  -21.7339  -13.6626 C   0  0  0  0  0  0  0  0  0  0  0  0
   24.5004  -21.8829  -14.5172 C   0  0  0  0  0  0  0  0  0  0  0  0
   24.8917  -23.0885  -15.0431 C   0  0  0  0  0  0  0  0  0  0  0  0
   24.1690  -24.2123  -14.7001 C   0  0  0  0  0  0  0  0  0  0  0  0
   23.0945  -24.0998  -13.8565 C   0  0  0  0  0  0  0  0  0  0  0  0
   22.7077  -22.8754  -13.3313 C   0  0  0  0  0  0  0  0  0  0  0  0
   18.5384  -22.9835  -13.0789 C   0  0  0  0  0  0  0  0  0  0  0  0
   18.3090  -21.8825  -13.9277 O   0  0  0  0  0  0  0  0  0  0  0  0
   18.0978  -24.1043  -13.4018 O   0  0  0  0  0  0  0  0  0  0  0  0
  2  1  1  1
  2  3  1  0
  4  3  1  0
  5  6  2  0
  5  2  1  0
  8  7  1  1
  8  9  1  0
  8 10  1  0
  9  5  1  0
 10 11  2  0
 12 10  1  0
 12 13  1  0
 13 14  1  6
 15 16  2  0
 15 14  1  0
 17 16  1  0
 18 23  2  0
 18 17  1  0
 19 18  1  0
 20 19  2  0
 20 21  1  0
 21 22  2  0
 22 23  1  0
 23 15  1  0
 24 25  1  0
 24 13  1  0
 26 24  2  0
M  END
$$$$
