CAW.pdb
     RDKit          3D

 26 27  0  0  1  0  0  0  0  0999 V2000
   27.9640  -18.2761  -15.7437 N   0  0  0  0  0  0  0  0  0  0  0  0
   27.7051  -19.4902  -15.0009 C   0  0  1  0  0  0  0  0  0  0  0  0
   28.9609  -20.0878  -14.4498 C   0  0  0  0  0  0  0  0  0  0  0  0
   28.7822  -21.7843  -13.8894 S   0  0  0  0  0  0  0  0  0  0  0  0
   26.6788  -19.2616  -13.9431 C   0  0  0  0  0  0  0  0  0  0  0  0
   26.8959  -18.3147  -13.1411 O   0  0  0  0  0  0  0  0  0  0  0  0
   23.2441  -20.3684  -13.1627 C   0  0  0  0  0  0  0  0  0  0  0  0
   24.6035  -19.9380  -12.7417 C   0  0  2  0  0  0  0  0  0  0  0  0
   25.5183  -20.0744  -13.8511 N   0  0  0  0  0  0  0  0  0  0  0  0
   25.1076  -20.6028  -11.5201 C   0  0  0  0  0  0  0  0  0  0  0  0
   25.6735  -21.7258  -11.6545 O   0  0  0  0  0  0  0  0  0  0  0  0
   25.0038  -20.0785  -10.2264 N   0  0  0  0  0  0  0  0  0  0  0  0
   25.4633  -20.7706   -9.0251 C   0  0  1  0  0  0  0  0  0  0  0  0
   26.6794  -20.1261   -8.4725 C   0  0  0  0  0  0  0  0  0  0  0  0
   27.1690  -20.5885   -7.1856 C   0  0  0  0  0  0  0  0  0  0  0  0
   27.1086  -21.9072   -6.7217 C   0  0  0  0  0  0  0  0  0  0  0  0
   27.6332  -21.9149   -5.4919 N   0  0  0  0  0  0  0  0  0  0  0  0
   28.0258  -20.6785   -5.1438 C   0  0  0  0  0  0  0  0  0  0  0  0
   28.6286  -20.1523   -4.0144 C   0  0  0  0  0  0  0  0  0  0  0  0
   28.9638  -18.8285   -3.8794 C   0  0  0  0  0  0  0  0  0  0  0  0
   28.6836  -17.9771   -4.9281 C   0  0  0  0  0  0  0  0  0  0  0  0
   28.0864  -18.4656   -6.0610 C   0  0  0  0  0  0  0  0  0  0  0  0
   27.7514  -19.8060   -6.1860 C   0  0  0  0  0  0  0  0  0  0  0  0
   24.4131  -21.0448   -8.0737 C   0  0  0  0  0  0  0  0  0  0  0  0
   24.6299  -22.0522   -7.1127 O   0  0  0  0  0  0  0  0  0  0  0  0
   23.3308  -20.4258   -8.0744 O   0  0  0  0  0  0  0  0  0  0  0  0
  2  1  1  1
  2  3  1  0
  4  3  1  0
  5  6  2  0
  5  2  1  0
  8  7  1  6
  8  9  1  0
  8 10  1  0
  9  5  1  0
 10 11  2  0
 12 10  1  0
 12 13  1  0
 13 14  1  1
 15 16  2  0
 15 14  1  0
 17 16  1  0
 18 23  2  0
 18 17  1  0
 19 18  1  0
 20 19  2  0
 20 21  1  0
 21 22  2  0
 22 23  1  0
 23 15  1  0
 24 25  1  0
 24 13  1  0
 26 24  2  0
M  END
$$$$
