TAF.pdb
     RDKit          3D

 24 24  0  0  1  0  0  0  0  0999 V2000
    9.5774  -14.0991   17.0783 C   0  0  0  0  0  0  0  0  0  0  0  0
    9.3915  -14.5185   18.5260 C   0  0  1  0  0  0  0  0  0  0  0  0
   10.4044  -14.0034   19.2669 O   0  0  0  0  0  0  0  0  0  0  0  0
    7.9953  -14.1445   18.9060 C   0  0  2  0  0  0  0  0  0  0  0  0
    7.7488  -12.7360   18.6826 N   0  0  0  0  0  0  0  0  0  0  0  0
    7.5666  -14.6035   20.2477 C   0  0  0  0  0  0  0  0  0  0  0  0
    7.5342  -13.7261   21.1488 O   0  0  0  0  0  0  0  0  0  0  0  0
    6.2887  -17.7073   21.9863 C   0  0  0  0  0  0  0  0  0  0  0  0
    6.9138  -16.3467   21.8929 C   0  0  2  0  0  0  0  0  0  0  0  0
    7.2079  -15.9253   20.5561 N   0  0  0  0  0  0  0  0  0  0  0  0
    8.0125  -16.1155   22.8413 C   0  0  0  0  0  0  0  0  0  0  0  0
    9.1841  -16.0533   22.3890 O   0  0  0  0  0  0  0  0  0  0  0  0
    7.7665  -15.9695   24.2149 N   0  0  0  0  0  0  0  0  0  0  0  0
    8.7894  -15.6987   25.2000 C   0  0  1  0  0  0  0  0  0  0  0  0
    8.3244  -15.0826   26.4593 C   0  0  0  0  0  0  0  0  0  0  0  0
    7.5762  -13.8196   26.3232 C   0  0  0  0  0  0  0  0  0  0  0  0
    6.2458  -13.7426   26.6872 C   0  0  0  0  0  0  0  0  0  0  0  0
    5.5055  -12.5792   26.6078 C   0  0  0  0  0  0  0  0  0  0  0  0
    6.1121  -11.4430   26.1490 C   0  0  0  0  0  0  0  0  0  0  0  0
    7.4329  -11.4811   25.7805 C   0  0  0  0  0  0  0  0  0  0  0  0
    8.1718  -12.6657   25.8653 C   0  0  0  0  0  0  0  0  0  0  0  0
    9.5338  -16.9943   25.4898 C   0  0  0  0  0  0  0  0  0  0  0  0
   10.5868  -16.9901   26.1522 O   0  0  0  0  0  0  0  0  0  0  0  0
    9.0172  -18.1576   25.0000 O   0  0  0  0  0  0  0  0  0  0  0  0
  2  1  1  6
  2  3  1  0
  4  6  1  0
  4  2  1  0
  4  5  1  1
  6 10  1  0
  7  6  2  0
  9  8  1  6
  9 11  1  0
 10  9  1  0
 11 12  2  0
 11 13  1  0
 13 14  1  0
 14 15  1  1
 14 22  1  0
 16 15  1  0
 16 21  2  0
 17 16  1  0
 18 17  2  0
 18 19  1  0
 19 20  2  0
 20 21  1  0
 22 24  1  0
 23 22  2  0
M  END
$$$$
