TAF.pdb
     RDKit          3D

 24 24  0  0  1  0  0  0  0  0999 V2000
   11.5031  -17.4466   15.3243 C   0  0  0  0  0  0  0  0  0  0  0  0
   10.4873  -16.3850   14.9402 C   0  0  1  0  0  0  0  0  0  0  0  0
   10.6675  -16.0545   13.6369 O   0  0  0  0  0  0  0  0  0  0  0  0
    9.1463  -16.9073   15.3436 C   0  0  2  0  0  0  0  0  0  0  0  0
    8.0790  -16.1419   14.7357 N   0  0  0  0  0  0  0  0  0  0  0  0
    8.9627  -17.1045   16.8003 C   0  0  0  0  0  0  0  0  0  0  0  0
    8.5533  -16.1059   17.4469 O   0  0  0  0  0  0  0  0  0  0  0  0
    8.9415  -19.8860   19.3472 C   0  0  0  0  0  0  0  0  0  0  0  0
    8.9907  -18.4607   18.8815 C   0  0  2  0  0  0  0  0  0  0  0  0
    9.2158  -18.3092   17.4753 N   0  0  0  0  0  0  0  0  0  0  0  0
    9.8215  -17.5777   19.7122 C   0  0  0  0  0  0  0  0  0  0  0  0
   10.9675  -17.2735   19.2933 O   0  0  0  0  0  0  0  0  0  0  0  0
    9.3543  -17.0861   20.9404 N   0  0  0  0  0  0  0  0  0  0  0  0
   10.0714  -16.1374   21.7625 C   0  0  1  0  0  0  0  0  0  0  0  0
    9.2921  -14.9742   22.2332 C   0  0  0  0  0  0  0  0  0  0  0  0
    8.5652  -14.2204   21.1954 C   0  0  0  0  0  0  0  0  0  0  0  0
    7.2164  -14.4299   20.9829 C   0  0  0  0  0  0  0  0  0  0  0  0
    6.4806  -13.7320   20.0451 C   0  0  0  0  0  0  0  0  0  0  0  0
    7.1102  -12.7845   19.2867 C   0  0  0  0  0  0  0  0  0  0  0  0
    8.4487  -12.5476   19.4715 C   0  0  0  0  0  0  0  0  0  0  0  0
    9.1829  -13.2613   20.4245 C   0  0  0  0  0  0  0  0  0  0  0  0
   10.6730  -16.8830   22.9452 C   0  0  0  0  0  0  0  0  0  0  0  0
   10.2661  -18.0162   23.2583 O   0  0  0  0  0  0  0  0  0  0  0  0
   11.6662  -16.2731   23.6535 O   0  0  0  0  0  0  0  0  0  0  0  0
  2  1  1  6
  2  3  1  0
  4  6  1  0
  4  2  1  0
  4  5  1  1
  6 10  1  0
  7  6  2  0
  9  8  1  1
  9 11  1  0
 10  9  1  0
 11 12  2  0
 11 13  1  0
 13 14  1  0
 14 15  1  1
 14 22  1  0
 16 15  1  0
 16 21  2  0
 17 16  1  0
 18 17  2  0
 18 19  1  0
 19 20  2  0
 20 21  1  0
 22 24  1  0
 23 22  2  0
M  END
$$$$
