TAF.pdb
     RDKit          3D

 24 24  0  0  1  0  0  0  0  0999 V2000
    9.6400  -13.1858   20.4057 C   0  0  0  0  0  0  0  0  0  0  0  0
    8.1729  -13.0568   20.0353 C   0  0  1  0  0  0  0  0  0  0  0  0
    8.0651  -12.2790   18.9291 O   0  0  0  0  0  0  0  0  0  0  0  0
    7.6243  -14.4451   19.9624 C   0  0  2  0  0  0  0  0  0  0  0  0
    6.2673  -14.4487   19.4591 N   0  0  0  0  0  0  0  0  0  0  0  0
    7.7885  -15.2495   21.1955 C   0  0  0  0  0  0  0  0  0  0  0  0
    6.9222  -15.0736   22.0907 O   0  0  0  0  0  0  0  0  0  0  0  0
    9.5462  -18.3400   22.3218 C   0  0  0  0  0  0  0  0  0  0  0  0
    8.8708  -17.0216   22.5592 C   0  0  2  0  0  0  0  0  0  0  0  0
    8.8288  -16.1673   21.4105 N   0  0  0  0  0  0  0  0  0  0  0  0
    9.2888  -16.3370   23.7907 C   0  0  0  0  0  0  0  0  0  0  0  0
   10.1626  -15.4370   23.7025 O   0  0  0  0  0  0  0  0  0  0  0  0
    8.7327  -16.6757   25.0335 N   0  0  0  0  0  0  0  0  0  0  0  0
    9.0974  -16.0508   26.2851 C   0  0  1  0  0  0  0  0  0  0  0  0
    7.9826  -15.4857   27.0723 C   0  0  0  0  0  0  0  0  0  0  0  0
    7.4285  -14.2096   26.5843 C   0  0  0  0  0  0  0  0  0  0  0  0
    8.1632  -13.0425   26.6644 C   0  0  0  0  0  0  0  0  0  0  0  0
    7.7050  -11.8262   26.1971 C   0  0  0  0  0  0  0  0  0  0  0  0
    6.4650  -11.7658   25.6243 C   0  0  0  0  0  0  0  0  0  0  0  0
    5.7075  -12.9053   25.5256 C   0  0  0  0  0  0  0  0  0  0  0  0
    6.1828  -14.1312   26.0030 C   0  0  0  0  0  0  0  0  0  0  0  0
    9.8739  -17.0600   27.1190 C   0  0  0  0  0  0  0  0  0  0  0  0
    9.9289  -18.2567   26.7833 O   0  0  0  0  0  0  0  0  0  0  0  0
   10.5030  -16.6171   28.2451 O   0  0  0  0  0  0  0  0  0  0  0  0
  2  1  1  6
  2  3  1  0
  4  6  1  0
  4  2  1  0
  4  5  1  1
  6 10  1  0
  7  6  2  0
  9  8  1  6
  9 11  1  0
 10  9  1  0
 11 12  2  0
 11 13  1  0
 13 14  1  0
 14 15  1  1
 14 22  1  0
 16 15  1  0
 16 21  2  0
 17 16  1  0
 18 17  2  0
 18 19  1  0
 19 20  2  0
 20 21  1  0
 22 24  1  0
 23 22  2  0
M  END
$$$$
