TAF.pdb
     RDKit          3D

 24 24  0  0  1  0  0  0  0  0999 V2000
    9.5492  -13.8887   17.2790 C   0  0  0  0  0  0  0  0  0  0  0  0
    9.4588  -14.4248   18.6969 C   0  0  1  0  0  0  0  0  0  0  0  0
   10.4779  -13.9085   19.4285 O   0  0  0  0  0  0  0  0  0  0  0  0
    8.0650  -14.1615   19.1679 C   0  0  2  0  0  0  0  0  0  0  0  0
    7.7057  -12.7701   18.9962 N   0  0  0  0  0  0  0  0  0  0  0  0
    7.7520  -14.6794   20.5202 C   0  0  0  0  0  0  0  0  0  0  0  0
    7.6910  -13.8238   21.4404 O   0  0  0  0  0  0  0  0  0  0  0  0
    6.7130  -17.8917   22.2131 C   0  0  0  0  0  0  0  0  0  0  0  0
    7.2325  -16.4860   22.1443 C   0  0  2  0  0  0  0  0  0  0  0  0
    7.5290  -16.0331   20.8184 N   0  0  0  0  0  0  0  0  0  0  0  0
    8.2839  -16.1775   23.1239 C   0  0  0  0  0  0  0  0  0  0  0  0
    9.4535  -15.9919   22.7010 O   0  0  0  0  0  0  0  0  0  0  0  0
    7.9962  -16.0928   24.4945 N   0  0  0  0  0  0  0  0  0  0  0  0
    8.9603  -15.7234   25.5065 C   0  0  1  0  0  0  0  0  0  0  0  0
    8.4115  -15.0654   26.7097 C   0  0  0  0  0  0  0  0  0  0  0  0
    7.6263  -13.8399   26.4748 C   0  0  0  0  0  0  0  0  0  0  0  0
    8.2512  -12.6478   26.1637 C   0  0  0  0  0  0  0  0  0  0  0  0
    7.5640  -11.4777   25.9061 C   0  0  0  0  0  0  0  0  0  0  0  0
    6.1979  -11.4916   25.9579 C   0  0  0  0  0  0  0  0  0  0  0  0
    5.5427  -12.6579   26.2616 C   0  0  0  0  0  0  0  0  0  0  0  0
    6.2502  -13.8365   26.5208 C   0  0  0  0  0  0  0  0  0  0  0  0
    9.7482  -16.9657   25.8974 C   0  0  0  0  0  0  0  0  0  0  0  0
   10.7280  -16.8855   26.6598 O   0  0  0  0  0  0  0  0  0  0  0  0
    9.3530  -18.1665   25.3858 O   0  0  0  0  0  0  0  0  0  0  0  0
  2  1  1  6
  2  3  1  0
  4  6  1  0
  4  2  1  0
  4  5  1  1
  6 10  1  0
  7  6  2  0
  9  8  1  6
  9 11  1  0
 10  9  1  0
 11 12  2  0
 11 13  1  0
 13 14  1  0
 14 15  1  1
 14 22  1  0
 16 15  1  0
 16 21  2  0
 17 16  1  0
 18 17  2  0
 18 19  1  0
 19 20  2  0
 20 21  1  0
 22 24  1  0
 23 22  2  0
M  END
$$$$
