TAF.pdb
     RDKit          3D

 24 24  0  0  1  0  0  0  0  0999 V2000
    9.2405  -13.3323   16.5389 C   0  0  0  0  0  0  0  0  0  0  0  0
    9.0998  -13.7735   17.9852 C   0  0  1  0  0  0  0  0  0  0  0  0
    8.3165  -12.8824   18.6429 O   0  0  0  0  0  0  0  0  0  0  0  0
    8.6544  -15.1999   17.9581 C   0  0  2  0  0  0  0  0  0  0  0  0
    7.4301  -15.3544   17.2020 N   0  0  0  0  0  0  0  0  0  0  0  0
    8.6089  -15.8675   19.2798 C   0  0  0  0  0  0  0  0  0  0  0  0
    7.5411  -15.7335   19.9313 O   0  0  0  0  0  0  0  0  0  0  0  0
   10.6219  -18.2267   21.4243 C   0  0  0  0  0  0  0  0  0  0  0  0
    9.6178  -17.1447   21.1567 C   0  0  2  0  0  0  0  0  0  0  0  0
    9.6632  -16.6165   19.8262 N   0  0  0  0  0  0  0  0  0  0  0  0
    9.5425  -16.1129   22.2006 C   0  0  0  0  0  0  0  0  0  0  0  0
   10.3417  -15.1441   22.1367 O   0  0  0  0  0  0  0  0  0  0  0  0
    8.6078  -16.2024   23.2431 N   0  0  0  0  0  0  0  0  0  0  0  0
    8.4515  -15.2101   24.2827 C   0  0  1  0  0  0  0  0  0  0  0  0
    7.2352  -14.3762   24.2001 C   0  0  0  0  0  0  0  0  0  0  0  0
    7.0528  -13.3900   25.2808 C   0  0  0  0  0  0  0  0  0  0  0  0
    6.0714  -13.5622   26.2375 C   0  0  0  0  0  0  0  0  0  0  0  0
    5.8753  -12.6858   27.2870 C   0  0  0  0  0  0  0  0  0  0  0  0
    6.6894  -11.5924   27.3923 C   0  0  0  0  0  0  0  0  0  0  0  0
    7.6767  -11.3899   26.4615 C   0  0  0  0  0  0  0  0  0  0  0  0
    7.8649  -12.2848   25.4031 C   0  0  0  0  0  0  0  0  0  0  0  0
    8.5199  -15.9112   25.6320 C   0  0  0  0  0  0  0  0  0  0  0  0
    9.1645  -15.4180   26.5749 O   0  0  0  0  0  0  0  0  0  0  0  0
    7.8595  -17.0956   25.7767 O   0  0  0  0  0  0  0  0  0  0  0  0
  2  1  1  6
  2  3  1  0
  4  6  1  0
  4  2  1  0
  4  5  1  1
  6 10  1  0
  7  6  2  0
  9  8  1  1
  9 11  1  0
 10  9  1  0
 11 12  2  0
 11 13  1  0
 13 14  1  0
 14 15  1  6
 14 22  1  0
 16 15  1  0
 16 21  2  0
 17 16  1  0
 18 17  2  0
 18 19  1  0
 19 20  2  0
 20 21  1  0
 22 24  1  0
 23 22  2  0
M  END
$$$$
