TAF.pdb
     RDKit          3D

 24 24  0  0  1  0  0  0  0  0999 V2000
    9.6824  -13.2491   20.3099 C   0  0  0  0  0  0  0  0  0  0  0  0
    8.1863  -13.0483   20.1434 C   0  0  1  0  0  0  0  0  0  0  0  0
    7.9662  -12.2536   19.0663 O   0  0  0  0  0  0  0  0  0  0  0  0
    7.5680  -14.4090   20.1385 C   0  0  2  0  0  0  0  0  0  0  0  0
    6.1675  -14.3490   19.7783 N   0  0  0  0  0  0  0  0  0  0  0  0
    7.8208  -15.2167   21.3544 C   0  0  0  0  0  0  0  0  0  0  0  0
    7.0128  -15.0544   22.3049 O   0  0  0  0  0  0  0  0  0  0  0  0
    9.7427  -18.2575   22.3762 C   0  0  0  0  0  0  0  0  0  0  0  0
    9.0170  -16.9718   22.6430 C   0  0  2  0  0  0  0  0  0  0  0  0
    8.8830  -16.1236   21.4968 N   0  0  0  0  0  0  0  0  0  0  0  0
    9.4570  -16.2648   23.8540 C   0  0  0  0  0  0  0  0  0  0  0  0
   10.3866  -15.4249   23.7465 O   0  0  0  0  0  0  0  0  0  0  0  0
    8.8607  -16.5176   25.0986 N   0  0  0  0  0  0  0  0  0  0  0  0
    9.2826  -15.9101   26.3408 C   0  0  1  0  0  0  0  0  0  0  0  0
    8.2068  -15.3405   27.1776 C   0  0  0  0  0  0  0  0  0  0  0  0
    7.5442  -14.1354   26.6464 C   0  0  0  0  0  0  0  0  0  0  0  0
    8.1981  -12.9187   26.6273 C   0  0  0  0  0  0  0  0  0  0  0  0
    7.6362  -11.7654   26.1155 C   0  0  0  0  0  0  0  0  0  0  0  0
    6.3715  -11.8224   25.5991 C   0  0  0  0  0  0  0  0  0  0  0  0
    5.6922  -13.0142   25.5992 C   0  0  0  0  0  0  0  0  0  0  0  0
    6.2722  -14.1753   26.1208 C   0  0  0  0  0  0  0  0  0  0  0  0
   10.0796  -16.9368   27.1328 C   0  0  0  0  0  0  0  0  0  0  0  0
   10.6559  -16.6200   28.1889 O   0  0  0  0  0  0  0  0  0  0  0  0
   10.1477  -18.2108   26.6508 O   0  0  0  0  0  0  0  0  0  0  0  0
  2  1  1  6
  2  3  1  0
  4  6  1  0
  4  2  1  0
  4  5  1  1
  6 10  1  0
  7  6  2  0
  9  8  1  6
  9 11  1  0
 10  9  1  0
 11 12  2  0
 11 13  1  0
 13 14  1  0
 14 15  1  1
 14 22  1  0
 16 15  1  0
 16 21  2  0
 17 16  1  0
 18 17  2  0
 18 19  1  0
 19 20  2  0
 20 21  1  0
 22 24  1  0
 23 22  2  0
M  END
$$$$
