TAF.pdb
     RDKit          3D

 24 24  0  0  1  0  0  0  0  0999 V2000
   10.7514  -14.0584   19.5922 C   0  0  0  0  0  0  0  0  0  0  0  0
    9.5859  -13.1769   19.1789 C   0  0  1  0  0  0  0  0  0  0  0  0
    9.9135  -12.5207   18.0377 O   0  0  0  0  0  0  0  0  0  0  0  0
    8.3741  -14.0513   19.1519 C   0  0  2  0  0  0  0  0  0  0  0  0
    7.2306  -13.3489   18.6101 N   0  0  0  0  0  0  0  0  0  0  0  0
    8.0771  -14.7503   20.4239 C   0  0  0  0  0  0  0  0  0  0  0  0
    7.6323  -14.0347   21.3581 O   0  0  0  0  0  0  0  0  0  0  0  0
    7.8250  -18.2135   21.8659 C   0  0  0  0  0  0  0  0  0  0  0  0
    8.0784  -16.7357   21.9171 C   0  0  2  0  0  0  0  0  0  0  0  0
    8.2624  -16.1259   20.6344 N   0  0  0  0  0  0  0  0  0  0  0  0
    9.0740  -16.3235   22.9165 C   0  0  0  0  0  0  0  0  0  0  0  0
   10.2633  -16.1652   22.5397 O   0  0  0  0  0  0  0  0  0  0  0  0
    8.7132  -16.1126   24.2559 N   0  0  0  0  0  0  0  0  0  0  0  0
    9.6453  -15.7602   25.3034 C   0  0  1  0  0  0  0  0  0  0  0  0
    9.7174  -14.3253   25.6459 C   0  0  0  0  0  0  0  0  0  0  0  0
    8.4275  -13.6514   25.8820 C   0  0  0  0  0  0  0  0  0  0  0  0
    8.1709  -13.0146   27.0808 C   0  0  0  0  0  0  0  0  0  0  0  0
    6.9925  -12.3441   27.3445 C   0  0  0  0  0  0  0  0  0  0  0  0
    6.0280  -12.3023   26.3763 C   0  0  0  0  0  0  0  0  0  0  0  0
    6.2486  -12.9217   25.1724 C   0  0  0  0  0  0  0  0  0  0  0  0
    7.4463  -13.5979   24.9176 C   0  0  0  0  0  0  0  0  0  0  0  0
    9.3125  -16.5821   26.5406 C   0  0  0  0  0  0  0  0  0  0  0  0
    8.2540  -17.2322   26.6084 O   0  0  0  0  0  0  0  0  0  0  0  0
   10.2039  -16.5822   27.5727 O   0  0  0  0  0  0  0  0  0  0  0  0
  2  1  1  6
  2  3  1  0
  4  6  1  0
  4  2  1  0
  4  5  1  1
  6 10  1  0
  7  6  2  0
  9  8  1  6
  9 11  1  0
 10  9  1  0
 11 12  2  0
 11 13  1  0
 13 14  1  0
 14 15  1  1
 14 22  1  0
 16 15  1  0
 16 21  2  0
 17 16  1  0
 18 17  2  0
 18 19  1  0
 19 20  2  0
 20 21  1  0
 22 24  1  0
 23 22  2  0
M  END
$$$$
