TAF.pdb
     RDKit          3D

 24 24  0  0  1  0  0  0  0  0999 V2000
    7.9647  -17.9710   17.6054 C   0  0  0  0  0  0  0  0  0  0  0  0
    8.1694  -17.8654   19.1065 C   0  0  1  0  0  0  0  0  0  0  0  0
    9.4280  -17.4211   19.3488 O   0  0  0  0  0  0  0  0  0  0  0  0
    7.0334  -17.0533   19.6391 C   0  0  2  0  0  0  0  0  0  0  0  0
    6.9017  -15.8012   18.9254 N   0  0  0  0  0  0  0  0  0  0  0  0
    7.0178  -16.8870   21.1112 C   0  0  0  0  0  0  0  0  0  0  0  0
    7.3001  -15.7392   21.5417 O   0  0  0  0  0  0  0  0  0  0  0  0
    6.0684  -18.8060   24.2233 C   0  0  0  0  0  0  0  0  0  0  0  0
    6.7124  -17.7018   23.4381 C   0  0  2  0  0  0  0  0  0  0  0  0
    6.7158  -17.9123   22.0215 N   0  0  0  0  0  0  0  0  0  0  0  0
    8.0048  -17.2494   23.9720 C   0  0  0  0  0  0  0  0  0  0  0  0
    9.0517  -17.6011   23.3707 O   0  0  0  0  0  0  0  0  0  0  0  0
    8.0744  -16.4483   25.1219 N   0  0  0  0  0  0  0  0  0  0  0  0
    9.3030  -15.9236   25.6743 C   0  0  1  0  0  0  0  0  0  0  0  0
    9.4605  -14.4561   25.6168 C   0  0  0  0  0  0  0  0  0  0  0  0
    8.3393  -13.6641   26.1547 C   0  0  0  0  0  0  0  0  0  0  0  0
    7.2355  -13.3795   25.3744 C   0  0  0  0  0  0  0  0  0  0  0  0
    6.1457  -12.6673   25.8358 C   0  0  0  0  0  0  0  0  0  0  0  0
    6.1510  -12.2197   27.1277 C   0  0  0  0  0  0  0  0  0  0  0  0
    7.2293  -12.4853   27.9329 C   0  0  0  0  0  0  0  0  0  0  0  0
    8.3272  -13.2075   27.4536 C   0  0  0  0  0  0  0  0  0  0  0  0
    9.4329  -16.4124   27.1099 C   0  0  0  0  0  0  0  0  0  0  0  0
   10.4453  -16.1500   27.7837 O   0  0  0  0  0  0  0  0  0  0  0  0
    8.4118  -17.1486   27.6347 O   0  0  0  0  0  0  0  0  0  0  0  0
  2  1  1  6
  2  3  1  0
  4  6  1  0
  4  2  1  0
  4  5  1  6
  6 10  1  0
  7  6  2  0
  9  8  1  1
  9 11  1  0
 10  9  1  0
 11 12  2  0
 11 13  1  0
 13 14  1  0
 14 15  1  1
 14 22  1  0
 16 15  1  0
 16 21  2  0
 17 16  1  0
 18 17  2  0
 18 19  1  0
 19 20  2  0
 20 21  1  0
 22 24  1  0
 23 22  2  0
M  END
$$$$
