TAF.pdb
     RDKit          3D

 24 24  0  0  1  0  0  0  0  0999 V2000
    8.8920  -20.8971   20.8176 C   0  0  0  0  0  0  0  0  0  0  0  0
    7.7801  -20.3256   19.9553 C   0  0  1  0  0  0  0  0  0  0  0  0
    7.6819  -21.0611   18.8196 O   0  0  0  0  0  0  0  0  0  0  0  0
    6.5685  -20.2286   20.8249 C   0  0  2  0  0  0  0  0  0  0  0  0
    5.3763  -19.9863   20.0408 N   0  0  0  0  0  0  0  0  0  0  0  0
    6.6989  -19.3124   21.9817 C   0  0  0  0  0  0  0  0  0  0  0  0
    6.9225  -18.1047   21.7090 O   0  0  0  0  0  0  0  0  0  0  0  0
    6.0893  -19.2902   25.6981 C   0  0  0  0  0  0  0  0  0  0  0  0
    6.6520  -18.7746   24.4066 C   0  0  2  0  0  0  0  0  0  0  0  0
    6.5913  -19.7100   23.3238 N   0  0  0  0  0  0  0  0  0  0  0  0
    7.9525  -18.1020   24.5351 C   0  0  0  0  0  0  0  0  0  0  0  0
    8.9872  -18.7457   24.2248 O   0  0  0  0  0  0  0  0  0  0  0  0
    8.0427  -16.7787   24.9926 N   0  0  0  0  0  0  0  0  0  0  0  0
    9.2818  -16.0446   25.1188 C   0  0  1  0  0  0  0  0  0  0  0  0
    9.1977  -14.5909   24.8707 C   0  0  0  0  0  0  0  0  0  0  0  0
    8.1456  -13.8689   25.6093 C   0  0  0  0  0  0  0  0  0  0  0  0
    6.8524  -13.8148   25.1265 C   0  0  0  0  0  0  0  0  0  0  0  0
    5.8226  -13.1776   25.7909 C   0  0  0  0  0  0  0  0  0  0  0  0
    6.0872  -12.5695   26.9865 C   0  0  0  0  0  0  0  0  0  0  0  0
    7.3596  -12.6047   27.4981 C   0  0  0  0  0  0  0  0  0  0  0  0
    8.3941  -13.2530   26.8154 C   0  0  0  0  0  0  0  0  0  0  0  0
    9.8611  -16.3114   26.5008 C   0  0  0  0  0  0  0  0  0  0  0  0
    9.1430  -16.7421   27.4209 O   0  0  0  0  0  0  0  0  0  0  0  0
   11.1865  -16.0614   26.7030 O   0  0  0  0  0  0  0  0  0  0  0  0
  2  1  1  1
  2  3  1  0
  4  6  1  0
  4  2  1  0
  4  5  1  6
  6 10  1  0
  7  6  2  0
  9  8  1  1
  9 11  1  0
 10  9  1  0
 11 12  2  0
 11 13  1  0
 13 14  1  0
 14 15  1  1
 14 22  1  0
 16 15  1  0
 16 21  2  0
 17 16  1  0
 18 17  2  0
 18 19  1  0
 19 20  2  0
 20 21  1  0
 22 24  1  0
 23 22  2  0
M  END
$$$$
