TAF.pdb
     RDKit          3D

 24 24  0  0  1  0  0  0  0  0999 V2000
    7.3629  -12.4670   19.8755 C   0  0  0  0  0  0  0  0  0  0  0  0
    7.8252  -13.6281   19.0129 C   0  0  1  0  0  0  0  0  0  0  0  0
    7.9655  -13.1978   17.7341 O   0  0  0  0  0  0  0  0  0  0  0  0
    9.0272  -14.2102   19.6838 C   0  0  2  0  0  0  0  0  0  0  0  0
    9.8454  -14.9506   18.7474 N   0  0  0  0  0  0  0  0  0  0  0  0
    8.7475  -14.9605   20.9303 C   0  0  0  0  0  0  0  0  0  0  0  0
    7.9962  -14.3904   21.7629 O   0  0  0  0  0  0  0  0  0  0  0  0
    9.1865  -18.4097   22.3724 C   0  0  0  0  0  0  0  0  0  0  0  0
    8.9422  -16.9307   22.4309 C   0  0  2  0  0  0  0  0  0  0  0  0
    9.2628  -16.2335   21.2217 N   0  0  0  0  0  0  0  0  0  0  0  0
    9.4536  -16.2772   23.6440 C   0  0  0  0  0  0  0  0  0  0  0  0
   10.5268  -15.6271   23.5607 O   0  0  0  0  0  0  0  0  0  0  0  0
    8.7681  -16.3742   24.8643 N   0  0  0  0  0  0  0  0  0  0  0  0
    9.2761  -15.8792   26.1240 C   0  0  1  0  0  0  0  0  0  0  0  0
    8.2724  -15.3035   27.0421 C   0  0  0  0  0  0  0  0  0  0  0  0
    7.7090  -13.9992   26.6483 C   0  0  0  0  0  0  0  0  0  0  0  0
    8.4856  -12.8570   26.6712 C   0  0  0  0  0  0  0  0  0  0  0  0
    8.0179  -11.6159   26.2857 C   0  0  0  0  0  0  0  0  0  0  0  0
    6.7243  -11.5038   25.8576 C   0  0  0  0  0  0  0  0  0  0  0  0
    5.9239  -12.6172   25.8194 C   0  0  0  0  0  0  0  0  0  0  0  0
    6.4094  -13.8687   26.2127 C   0  0  0  0  0  0  0  0  0  0  0  0
   10.0368  -17.0038   26.8119 C   0  0  0  0  0  0  0  0  0  0  0  0
   10.7178  -16.7836   27.8295 O   0  0  0  0  0  0  0  0  0  0  0  0
    9.9546  -18.2568   26.2798 O   0  0  0  0  0  0  0  0  0  0  0  0
  2  1  1  1
  2  3  1  0
  4  6  1  0
  4  2  1  0
  4  5  1  6
  6 10  1  0
  7  6  2  0
  9  8  1  6
  9 11  1  0
 10  9  1  0
 11 12  2  0
 11 13  1  0
 13 14  1  0
 14 15  1  1
 14 22  1  0
 16 15  1  0
 16 21  2  0
 17 16  1  0
 18 17  2  0
 18 19  1  0
 19 20  2  0
 20 21  1  0
 22 24  1  0
 23 22  2  0
M  END
$$$$
