TAF.pdb
     RDKit          3D

 24 24  0  0  1  0  0  0  0  0999 V2000
    9.4445  -13.4666   17.6691 C   0  0  0  0  0  0  0  0  0  0  0  0
    9.4410  -14.0449   19.0732 C   0  0  1  0  0  0  0  0  0  0  0  0
   10.2388  -13.2845   19.8643 O   0  0  0  0  0  0  0  0  0  0  0  0
    8.0086  -14.1942   19.4731 C   0  0  2  0  0  0  0  0  0  0  0  0
    7.2817  -12.9550   19.2979 N   0  0  0  0  0  0  0  0  0  0  0  0
    7.7899  -14.8130   20.8012 C   0  0  0  0  0  0  0  0  0  0  0  0
    7.3989  -14.0408   21.7142 O   0  0  0  0  0  0  0  0  0  0  0  0
    7.5623  -18.2306   22.3685 C   0  0  0  0  0  0  0  0  0  0  0  0
    7.7072  -16.7374   22.3701 C   0  0  2  0  0  0  0  0  0  0  0  0
    7.9919  -16.1730   21.0849 N   0  0  0  0  0  0  0  0  0  0  0  0
    8.5544  -16.2096   23.4488 C   0  0  0  0  0  0  0  0  0  0  0  0
    9.6764  -15.7314   23.1427 O   0  0  0  0  0  0  0  0  0  0  0  0
    8.1285  -16.2377   24.7854 N   0  0  0  0  0  0  0  0  0  0  0  0
    8.9416  -15.8237   25.9068 C   0  0  1  0  0  0  0  0  0  0  0  0
    8.2302  -15.1208   26.9938 C   0  0  0  0  0  0  0  0  0  0  0  0
    7.5277  -13.8822   26.6116 C   0  0  0  0  0  0  0  0  0  0  0  0
    8.2217  -12.7009   26.4349 C   0  0  0  0  0  0  0  0  0  0  0  0
    7.6190  -11.5193   26.0496 C   0  0  0  0  0  0  0  0  0  0  0  0
    6.2698  -11.5101   25.8286 C   0  0  0  0  0  0  0  0  0  0  0  0
    5.5481  -12.6652   25.9921 C   0  0  0  0  0  0  0  0  0  0  0  0
    6.1702  -13.8555   26.3829 C   0  0  0  0  0  0  0  0  0  0  0  0
    9.6657  -17.0456   26.4539 C   0  0  0  0  0  0  0  0  0  0  0  0
   10.5122  -16.9331   27.3586 O   0  0  0  0  0  0  0  0  0  0  0  0
    9.3642  -18.2647   25.9221 O   0  0  0  0  0  0  0  0  0  0  0  0
  2  1  1  6
  2  3  1  0
  4  6  1  0
  4  2  1  0
  4  5  1  1
  6 10  1  0
  7  6  2  0
  9  8  1  6
  9 11  1  0
 10  9  1  0
 11 12  2  0
 11 13  1  0
 13 14  1  0
 14 15  1  1
 14 22  1  0
 16 15  1  0
 16 21  2  0
 17 16  1  0
 18 17  2  0
 18 19  1  0
 19 20  2  0
 20 21  1  0
 22 24  1  0
 23 22  2  0
M  END
$$$$
