TAF.pdb
     RDKit          3D

 24 24  0  0  1  0  0  0  0  0999 V2000
    5.8576  -18.0552   20.6266 C   0  0  0  0  0  0  0  0  0  0  0  0
    6.9971  -18.6006   19.7838 C   0  0  1  0  0  0  0  0  0  0  0  0
    6.5170  -19.5769   18.9735 O   0  0  0  0  0  0  0  0  0  0  0  0
    7.6545  -17.4244   19.1370 C   0  0  2  0  0  0  0  0  0  0  0  0
    8.5770  -17.8405   18.1024 N   0  0  0  0  0  0  0  0  0  0  0  0
    8.2405  -16.4393   20.0757 C   0  0  0  0  0  0  0  0  0  0  0  0
    9.2793  -16.8045   20.6842 O   0  0  0  0  0  0  0  0  0  0  0  0
    7.7512  -12.8771   21.2360 C   0  0  0  0  0  0  0  0  0  0  0  0
    8.2332  -14.2947   21.3294 C   0  0  2  0  0  0  0  0  0  0  0  0
    7.7120  -15.1609   20.3150 N   0  0  0  0  0  0  0  0  0  0  0  0
    8.1792  -14.8677   22.6817 C   0  0  0  0  0  0  0  0  0  0  0  0
    7.1689  -15.5457   22.9994 O   0  0  0  0  0  0  0  0  0  0  0  0
    9.2227  -14.6654   23.5975 N   0  0  0  0  0  0  0  0  0  0  0  0
    9.2067  -15.1340   24.9651 C   0  0  1  0  0  0  0  0  0  0  0  0
    7.8737  -15.2524   25.5903 C   0  0  0  0  0  0  0  0  0  0  0  0
    7.3002  -14.0063   26.1306 C   0  0  0  0  0  0  0  0  0  0  0  0
    8.1179  -12.9916   26.5889 C   0  0  0  0  0  0  0  0  0  0  0  0
    7.6354  -11.7933   27.0780 C   0  0  0  0  0  0  0  0  0  0  0  0
    6.2834  -11.5928   27.1121 C   0  0  0  0  0  0  0  0  0  0  0  0
    5.4405  -12.5775   26.6631 C   0  0  0  0  0  0  0  0  0  0  0  0
    5.9415  -13.7870   26.1704 C   0  0  0  0  0  0  0  0  0  0  0  0
    9.9384  -16.4673   25.0259 C   0  0  0  0  0  0  0  0  0  0  0  0
   10.6752  -16.7470   25.9885 O   0  0  0  0  0  0  0  0  0  0  0  0
    9.7671  -17.3437   23.9950 O   0  0  0  0  0  0  0  0  0  0  0  0
  2  1  1  6
  2  3  1  0
  4  6  1  0
  4  2  1  0
  4  5  1  6
  6 10  1  0
  7  6  2  0
  9  8  1  1
  9 11  1  0
 10  9  1  0
 11 12  2  0
 11 13  1  0
 13 14  1  0
 14 15  1  6
 14 22  1  0
 16 15  1  0
 16 21  2  0
 17 16  1  0
 18 17  2  0
 18 19  1  0
 19 20  2  0
 20 21  1  0
 22 24  1  0
 23 22  2  0
M  END
$$$$
