TAF.pdb
     RDKit          3D

 24 24  0  0  1  0  0  0  0  0999 V2000
    8.9799  -18.4027   17.6038 C   0  0  0  0  0  0  0  0  0  0  0  0
    8.9281  -17.9580   19.0550 C   0  0  1  0  0  0  0  0  0  0  0  0
    9.8365  -16.9685   19.2447 O   0  0  0  0  0  0  0  0  0  0  0  0
    7.4972  -17.6529   19.3602 C   0  0  2  0  0  0  0  0  0  0  0  0
    6.9410  -16.7240   18.3998 N   0  0  0  0  0  0  0  0  0  0  0  0
    7.2240  -17.2690   20.7648 C   0  0  0  0  0  0  0  0  0  0  0  0
    7.2356  -16.0359   21.0140 O   0  0  0  0  0  0  0  0  0  0  0  0
    6.0247  -18.7110   24.0140 C   0  0  0  0  0  0  0  0  0  0  0  0
    6.8305  -17.7721   23.1655 C   0  0  2  0  0  0  0  0  0  0  0  0
    6.9633  -18.1813   21.7995 N   0  0  0  0  0  0  0  0  0  0  0  0
    8.0924  -17.3310   23.7763 C   0  0  0  0  0  0  0  0  0  0  0  0
    9.1603  -17.8695   23.3879 O   0  0  0  0  0  0  0  0  0  0  0  0
    8.1104  -16.3379   24.7673 N   0  0  0  0  0  0  0  0  0  0  0  0
    9.3122  -15.8409   25.3987 C   0  0  1  0  0  0  0  0  0  0  0  0
    9.5320  -14.3831   25.3086 C   0  0  0  0  0  0  0  0  0  0  0  0
    8.4217  -13.5320   25.7742 C   0  0  0  0  0  0  0  0  0  0  0  0
    7.3249  -13.2963   24.9682 C   0  0  0  0  0  0  0  0  0  0  0  0
    6.2450  -12.5316   25.3642 C   0  0  0  0  0  0  0  0  0  0  0  0
    6.2533  -11.9784   26.6145 C   0  0  0  0  0  0  0  0  0  0  0  0
    7.3250  -12.1927   27.4436 C   0  0  0  0  0  0  0  0  0  0  0  0
    8.4128  -12.9690   27.0306 C   0  0  0  0  0  0  0  0  0  0  0  0
    9.3105  -16.2853   26.8545 C   0  0  0  0  0  0  0  0  0  0  0  0
    8.2805  -16.7449   27.3796 O   0  0  0  0  0  0  0  0  0  0  0  0
   10.4666  -16.1617   27.5672 O   0  0  0  0  0  0  0  0  0  0  0  0
  2  1  1  6
  2  3  1  0
  4  6  1  0
  4  2  1  0
  4  5  1  6
  6 10  1  0
  7  6  2  0
  9  8  1  1
  9 11  1  0
 10  9  1  0
 11 12  2  0
 11 13  1  0
 13 14  1  0
 14 15  1  1
 14 22  1  0
 16 15  1  0
 16 21  2  0
 17 16  1  0
 18 17  2  0
 18 19  1  0
 19 20  2  0
 20 21  1  0
 22 24  1  0
 23 22  2  0
M  END
$$$$
