TAF.pdb
     RDKit          3D

 24 24  0  0  1  0  0  0  0  0999 V2000
   10.1469  -13.1813   20.1597 C   0  0  0  0  0  0  0  0  0  0  0  0
    8.7224  -12.8874   19.7232 C   0  0  1  0  0  0  0  0  0  0  0  0
    8.7491  -11.9752   18.7195 O   0  0  0  0  0  0  0  0  0  0  0  0
    8.0776  -14.2064   19.4438 C   0  0  2  0  0  0  0  0  0  0  0  0
    6.7885  -14.0376   18.8079 N   0  0  0  0  0  0  0  0  0  0  0  0
    8.0407  -15.1418   20.5920 C   0  0  0  0  0  0  0  0  0  0  0  0
    7.0658  -15.0164   21.3772 O   0  0  0  0  0  0  0  0  0  0  0  0
    9.5981  -18.3326   21.7685 C   0  0  0  0  0  0  0  0  0  0  0  0
    8.9341  -17.0030   21.9737 C   0  0  2  0  0  0  0  0  0  0  0  0
    9.0079  -16.1282   20.8422 N   0  0  0  0  0  0  0  0  0  0  0  0
    9.2618  -16.3499   23.2489 C   0  0  0  0  0  0  0  0  0  0  0  0
   10.2495  -15.5723   23.2812 O   0  0  0  0  0  0  0  0  0  0  0  0
    8.4978  -16.5853   24.4019 N   0  0  0  0  0  0  0  0  0  0  0  0
    8.8280  -16.0764   25.7142 C   0  0  1  0  0  0  0  0  0  0  0  0
    7.7002  -15.5298   26.4959 C   0  0  0  0  0  0  0  0  0  0  0  0
    7.3909  -14.1053   26.2751 C   0  0  0  0  0  0  0  0  0  0  0  0
    6.0866  -13.6513   26.3068 C   0  0  0  0  0  0  0  0  0  0  0  0
    5.7426  -12.3247   26.1353 C   0  0  0  0  0  0  0  0  0  0  0  0
    6.7358  -11.4090   25.9250 C   0  0  0  0  0  0  0  0  0  0  0  0
    8.0432  -11.8229   25.8894 C   0  0  0  0  0  0  0  0  0  0  0  0
    8.3787  -13.1696   26.0642 C   0  0  0  0  0  0  0  0  0  0  0  0
    9.5270  -17.1791   26.4965 C   0  0  0  0  0  0  0  0  0  0  0  0
    9.5353  -18.3507   26.0782 O   0  0  0  0  0  0  0  0  0  0  0  0
   10.1394  -16.8480   27.6693 O   0  0  0  0  0  0  0  0  0  0  0  0
  2  1  1  6
  2  3  1  0
  4  6  1  0
  4  2  1  0
  4  5  1  1
  6 10  1  0
  7  6  2  0
  9  8  1  6
  9 11  1  0
 10  9  1  0
 11 12  2  0
 11 13  1  0
 13 14  1  0
 14 15  1  1
 14 22  1  0
 16 15  1  0
 16 21  2  0
 17 16  1  0
 18 17  2  0
 18 19  1  0
 19 20  2  0
 20 21  1  0
 22 24  1  0
 23 22  2  0
M  END
$$$$
