TAF.pdb
     RDKit          3D

 24 24  0  0  1  0  0  0  0  0999 V2000
    8.8262  -13.9147   17.7803 C   0  0  0  0  0  0  0  0  0  0  0  0
    8.8215  -14.5231   19.1717 C   0  0  1  0  0  0  0  0  0  0  0  0
    9.7074  -13.8511   19.9488 O   0  0  0  0  0  0  0  0  0  0  0  0
    7.3961  -14.5607   19.6196 C   0  0  2  0  0  0  0  0  0  0  0  0
    6.7619  -13.2690   19.4650 N   0  0  0  0  0  0  0  0  0  0  0  0
    7.1747  -15.1602   20.9561 C   0  0  0  0  0  0  0  0  0  0  0  0
    7.0413  -14.3514   21.9105 O   0  0  0  0  0  0  0  0  0  0  0  0
    6.5076  -18.5353   22.5176 C   0  0  0  0  0  0  0  0  0  0  0  0
    6.8363  -17.0716   22.5065 C   0  0  2  0  0  0  0  0  0  0  0  0
    7.1102  -16.5404   21.2050 N   0  0  0  0  0  0  0  0  0  0  0  0
    7.8063  -16.6581   23.5303 C   0  0  0  0  0  0  0  0  0  0  0  0
    8.9956  -16.4568   23.1747 O   0  0  0  0  0  0  0  0  0  0  0  0
    7.4216  -16.4929   24.8695 N   0  0  0  0  0  0  0  0  0  0  0  0
    8.3266  -16.1289   25.9365 C   0  0  1  0  0  0  0  0  0  0  0  0
    7.7452  -15.3193   27.0266 C   0  0  0  0  0  0  0  0  0  0  0  0
    7.3389  -13.9483   26.6675 C   0  0  0  0  0  0  0  0  0  0  0  0
    8.2627  -13.0387   26.1904 C   0  0  0  0  0  0  0  0  0  0  0  0
    7.9322  -11.7519   25.8124 C   0  0  0  0  0  0  0  0  0  0  0  0
    6.6287  -11.3512   25.9106 C   0  0  0  0  0  0  0  0  0  0  0  0
    5.6832  -12.2283   26.3781 C   0  0  0  0  0  0  0  0  0  0  0  0
    6.0306  -13.5289   26.7581 C   0  0  0  0  0  0  0  0  0  0  0  0
    8.9467  -17.4010   26.4970 C   0  0  0  0  0  0  0  0  0  0  0  0
    9.8724  -17.3472   27.3264 O   0  0  0  0  0  0  0  0  0  0  0  0
    8.4626  -18.5994   26.0619 O   0  0  0  0  0  0  0  0  0  0  0  0
  2  1  1  6
  2  3  1  0
  4  6  1  0
  4  2  1  0
  4  5  1  1
  6 10  1  0
  7  6  2  0
  9  8  1  6
  9 11  1  0
 10  9  1  0
 11 12  2  0
 11 13  1  0
 13 14  1  0
 14 15  1  1
 14 22  1  0
 16 15  1  0
 16 21  2  0
 17 16  1  0
 18 17  2  0
 18 19  1  0
 19 20  2  0
 20 21  1  0
 22 24  1  0
 23 22  2  0
M  END
$$$$
