GRN.pdb
     RDKit          3D

 24 23  0  0  1  0  0  0  0  0999 V2000
    9.7949  -21.3738   19.1751 N   0  0  0  0  0  0  0  0  0  0  0  0
    9.0125  -20.6686   20.1396 C   0  0  0  0  0  0  0  0  0  0  0  0
    9.5085  -19.2695   20.3535 C   0  0  0  0  0  0  0  0  0  0  0  0
   10.7060  -19.0207   20.0729 O   0  0  0  0  0  0  0  0  0  0  0  0
    6.8411  -14.4012   18.6430 N   0  0  0  0  0  0  0  0  0  0  0  0
    7.5566  -13.1791   18.8121 C   0  0  0  0  0  0  0  0  0  0  0  0
    8.0501  -12.4958   17.8543 N   0  0  0  0  0  0  0  0  0  0  0  0
    7.7296  -12.6916   20.1532 N   0  0  0  0  0  0  0  0  0  0  0  0
    7.4568  -13.5206   21.2945 C   0  0  0  0  0  0  0  0  0  0  0  0
    8.6116  -14.4964   21.5168 C   0  0  0  0  0  0  0  0  0  0  0  0
    8.1645  -15.8901   21.1871 C   0  0  0  0  0  0  0  0  0  0  0  0
    9.2432  -16.9339   21.2604 C   0  0  2  0  0  0  0  0  0  0  0  0
    8.6910  -18.2393   20.8510 N   0  0  0  0  0  0  0  0  0  0  0  0
    9.7845  -17.0178   22.6258 C   0  0  0  0  0  0  0  0  0  0  0  0
    9.1503  -17.5541   23.5506 O   0  0  0  0  0  0  0  0  0  0  0  0
    8.5456  -11.5944   18.0478 N   0  0  0  0  0  0  0  0  0  0  0  0
   13.7274  -20.1180   24.3765 C   0  0  0  0  0  0  0  0  0  0  0  0
   12.7042  -19.2148   24.7986 O   0  0  0  0  0  0  0  0  0  0  0  0
   12.4874  -19.0183   26.0282 C   0  0  0  0  0  0  0  0  0  0  0  0
   11.9201  -18.5291   23.7676 C   0  0  2  0  0  0  0  0  0  0  0  0
   11.8822  -17.0526   23.9835 N   0  0  0  0  0  0  0  0  0  0  0  0
   11.0674  -16.4737   22.9084 C   0  0  0  0  0  0  0  0  0  0  0  0
   13.2053  -16.4045   23.9588 O   0  0  0  0  0  0  0  0  0  0  0  0
   13.9435  -16.0991   25.0897 O   0  0  0  0  0  0  0  0  0  0  0  0
  1  2  1  0
  2  3  1  0
  3 13  1  0
  3  4  2  0
  5  6  1  0
  6  8  1  0
  7  6  2  0
  8  9  1  0
  9 10  1  0
 11 10  1  0
 12 11  1  1
 12 14  1  0
 13 12  1  0
 14 21  1  0
 14 15  2  0
 16 17  1  0
 17 19  1  0
 18 17  2  0
 20 19  1  1
 20 22  1  0
 21 20  1  0
 22 23  1  0
 24 22  2  0
M  END
$$$$
