GRN.pdb
     RDKit          3D

 24 23  0  0  1  0  0  0  0  0999 V2000
   10.3393  -19.3217   17.6493 N   0  0  0  0  0  0  0  0  0  0  0  0
    9.6381  -19.1830   18.8857 C   0  0  0  0  0  0  0  0  0  0  0  0
   10.1934  -18.0725   19.7270 C   0  0  0  0  0  0  0  0  0  0  0  0
   11.2347  -17.4968   19.3283 O   0  0  0  0  0  0  0  0  0  0  0  0
    7.1051  -13.6111   18.7007 N   0  0  0  0  0  0  0  0  0  0  0  0
    7.2334  -12.9026   19.9318 C   0  0  0  0  0  0  0  0  0  0  0  0
    7.7839  -11.7576   20.0490 N   0  0  0  0  0  0  0  0  0  0  0  0
    6.7059  -13.5264   21.1144 N   0  0  0  0  0  0  0  0  0  0  0  0
    7.1871  -14.8015   21.5691 C   0  0  0  0  0  0  0  0  0  0  0  0
    8.5800  -14.6451   22.1778 C   0  0  0  0  0  0  0  0  0  0  0  0
    9.0903  -15.9848   22.6201 C   0  0  0  0  0  0  0  0  0  0  0  0
   10.1663  -16.5702   21.7495 C   0  0  2  0  0  0  0  0  0  0  0  0
    9.5973  -17.6579   20.9312 N   0  0  0  0  0  0  0  0  0  0  0  0
   11.2725  -17.0811   22.5740 C   0  0  0  0  0  0  0  0  0  0  0  0
   11.1711  -18.1334   23.2278 O   0  0  0  0  0  0  0  0  0  0  0  0
    7.8770  -11.3091   20.9901 N   0  0  0  0  0  0  0  0  0  0  0  0
   17.0834  -17.1134   22.9792 C   0  0  0  0  0  0  0  0  0  0  0  0
   16.0306  -16.5298   23.7487 O   0  0  0  0  0  0  0  0  0  0  0  0
   16.1398  -16.4125   25.0024 C   0  0  0  0  0  0  0  0  0  0  0  0
   14.8294  -16.0755   23.0427 C   0  0  1  0  0  0  0  0  0  0  0  0
   13.6470  -16.9370   23.3395 N   0  0  0  0  0  0  0  0  0  0  0  0
   12.4967  -16.3602   22.6331 C   0  0  0  0  0  0  0  0  0  0  0  0
   13.3102  -17.0281   24.7710 O   0  0  0  0  0  0  0  0  0  0  0  0
   12.4327  -16.1759   25.4199 O   0  0  0  0  0  0  0  0  0  0  0  0
  1  2  1  0
  2  3  1  0
  3 13  1  0
  3  4  2  0
  5  6  1  0
  6  8  1  0
  7  6  2  0
  8  9  1  0
  9 10  1  0
 11 10  1  0
 12 11  1  1
 12 14  1  0
 13 12  1  0
 14 21  1  0
 14 15  2  0
 16 17  1  0
 17 19  1  0
 18 17  2  0
 20 19  1  6
 20 22  1  0
 21 20  1  0
 22 23  1  0
 24 22  2  0
M  END
$$$$
