GRN.pdb
     RDKit          3D

 24 23  0  0  1  0  0  0  0  0999 V2000
   14.8666  -18.0263   16.4673 N   0  0  0  0  0  0  0  0  0  0  0  0
   13.9229  -18.6314   17.3520 C   0  0  0  0  0  0  0  0  0  0  0  0
   13.6091  -17.7540   18.5271 C   0  0  0  0  0  0  0  0  0  0  0  0
   14.5694  -17.3044   19.1984 O   0  0  0  0  0  0  0  0  0  0  0  0
    6.5417  -13.1407   19.7552 N   0  0  0  0  0  0  0  0  0  0  0  0
    7.6516  -13.2707   18.8691 C   0  0  0  0  0  0  0  0  0  0  0  0
    7.6579  -12.8652   17.6593 N   0  0  0  0  0  0  0  0  0  0  0  0
    8.8378  -13.9019   19.3795 N   0  0  0  0  0  0  0  0  0  0  0  0
    8.9070  -14.3906   20.7288 C   0  0  0  0  0  0  0  0  0  0  0  0
   10.2959  -14.9660   21.0032 C   0  0  0  0  0  0  0  0  0  0  0  0
   10.6606  -15.9400   19.9219 C   0  0  0  0  0  0  0  0  0  0  0  0
   12.0065  -16.5888   20.0834 C   0  0  2  0  0  0  0  0  0  0  0  0
   12.2948  -17.4211   18.8999 N   0  0  0  0  0  0  0  0  0  0  0  0
   12.0365  -17.4123   21.3022 C   0  0  0  0  0  0  0  0  0  0  0  0
   11.5395  -18.5511   21.3363 O   0  0  0  0  0  0  0  0  0  0  0  0
    8.4572  -13.1016   17.0262 N   0  0  0  0  0  0  0  0  0  0  0  0
   14.9802  -19.6057   23.1925 C   0  0  0  0  0  0  0  0  0  0  0  0
   15.0795  -18.2045   23.4527 O   0  0  0  0  0  0  0  0  0  0  0  0
   16.0330  -17.5276   22.9727 C   0  0  0  0  0  0  0  0  0  0  0  0
   14.0484  -17.5824   24.2879 C   0  0  2  0  0  0  0  0  0  0  0  0
   12.6862  -17.7266   23.6946 N   0  0  0  0  0  0  0  0  0  0  0  0
   12.6479  -16.9027   22.4804 C   0  0  0  0  0  0  0  0  0  0  0  0
   11.5923  -17.2920   24.5810 O   0  0  0  0  0  0  0  0  0  0  0  0
   10.7405  -16.2357   24.3056 O   0  0  0  0  0  0  0  0  0  0  0  0
  1  2  1  0
  2  3  1  0
  3 13  1  0
  3  4  2  0
  5  6  1  0
  6  8  1  0
  7  6  2  0
  8  9  1  0
  9 10  1  0
 11 10  1  0
 12 11  1  6
 12 14  1  0
 13 12  1  0
 14 21  1  0
 14 15  2  0
 16 17  1  0
 17 19  1  0
 18 17  2  0
 20 19  1  6
 20 22  1  0
 21 20  1  0
 22 23  1  0
 24 22  2  0
M  END
$$$$
