GRN.pdb
     RDKit          3D

 24 23  0  0  1  0  0  0  0  0999 V2000
    5.3583  -20.6647   21.1996 N   0  0  0  0  0  0  0  0  0  0  0  0
    5.4240  -19.6881   22.2395 C   0  0  0  0  0  0  0  0  0  0  0  0
    6.6657  -18.8518   22.1497 C   0  0  0  0  0  0  0  0  0  0  0  0
    7.5942  -19.2553   21.4081 O   0  0  0  0  0  0  0  0  0  0  0  0
    8.1383  -11.5701   20.0468 N   0  0  0  0  0  0  0  0  0  0  0  0
    7.8427  -12.6449   19.1571 C   0  0  0  0  0  0  0  0  0  0  0  0
    8.0487  -12.6144   17.8984 N   0  0  0  0  0  0  0  0  0  0  0  0
    7.2745  -13.8376   19.7233 N   0  0  0  0  0  0  0  0  0  0  0  0
    7.9401  -14.5628   20.7698 C   0  0  0  0  0  0  0  0  0  0  0  0
    7.0414  -14.6381   22.0035 C   0  0  0  0  0  0  0  0  0  0  0  0
    7.7377  -15.4059   23.0883 C   0  0  0  0  0  0  0  0  0  0  0  0
    8.0528  -16.8354   22.7483 C   0  0  2  0  0  0  0  0  0  0  0  0
    6.8257  -17.6473   22.8572 N   0  0  0  0  0  0  0  0  0  0  0  0
    9.0903  -17.3608   23.6495 C   0  0  0  0  0  0  0  0  0  0  0  0
    8.8345  -17.6960   24.8188 O   0  0  0  0  0  0  0  0  0  0  0  0
    7.8231  -13.4467   17.3050 N   0  0  0  0  0  0  0  0  0  0  0  0
   10.8724  -19.8431   22.1266 C   0  0  0  0  0  0  0  0  0  0  0  0
   12.2370  -19.4243   22.1876 O   0  0  0  0  0  0  0  0  0  0  0  0
   13.0891  -19.8903   21.3786 C   0  0  0  0  0  0  0  0  0  0  0  0
   12.6137  -18.4449   23.2106 C   0  0  2  0  0  0  0  0  0  0  0  0
   11.4541  -18.0560   24.0663 N   0  0  0  0  0  0  0  0  0  0  0  0
   10.4266  -17.4933   23.1819 C   0  0  0  0  0  0  0  0  0  0  0  0
   11.7739  -17.0531   25.0974 O   0  0  0  0  0  0  0  0  0  0  0  0
   12.5262  -17.3140   26.2302 O   0  0  0  0  0  0  0  0  0  0  0  0
  1  2  1  0
  2  3  1  0
  3 13  1  0
  3  4  2  0
  5  6  1  0
  6  8  1  0
  7  6  2  0
  8  9  1  0
  9 10  1  0
 11 10  1  0
 12 11  1  1
 12 14  1  0
 13 12  1  0
 14 21  1  0
 14 15  2  0
 16 17  1  0
 17 19  1  0
 18 17  2  0
 20 19  1  6
 20 22  1  0
 21 20  1  0
 22 23  1  0
 24 22  2  0
M  END
$$$$
