GRN.pdb
     RDKit          3D

 24 23  0  0  1  0  0  0  0  0999 V2000
    5.2809  -21.3441   21.5868 N   0  0  0  0  0  0  0  0  0  0  0  0
    5.2665  -20.5081   22.7445 C   0  0  0  0  0  0  0  0  0  0  0  0
    6.3436  -19.4655   22.7004 C   0  0  0  0  0  0  0  0  0  0  0  0
    7.4336  -19.7686   22.1573 O   0  0  0  0  0  0  0  0  0  0  0  0
    7.0590  -12.2575   20.2667 N   0  0  0  0  0  0  0  0  0  0  0  0
    8.0683  -13.1972   19.9028 C   0  0  0  0  0  0  0  0  0  0  0  0
    8.4779  -13.3873   18.7095 N   0  0  0  0  0  0  0  0  0  0  0  0
    8.6578  -13.9786   20.9554 N   0  0  0  0  0  0  0  0  0  0  0  0
    7.9561  -15.0784   21.5573 C   0  0  0  0  0  0  0  0  0  0  0  0
    7.5274  -14.7079   22.9765 C   0  0  0  0  0  0  0  0  0  0  0  0
    6.7419  -15.8365   23.5767 C   0  0  0  0  0  0  0  0  0  0  0  0
    7.2896  -17.2074   23.2954 C   0  0  2  0  0  0  0  0  0  0  0  0
    6.1791  -18.1769   23.2385 N   0  0  0  0  0  0  0  0  0  0  0  0
    8.2523  -17.5992   24.3366 C   0  0  0  0  0  0  0  0  0  0  0  0
    7.8855  -18.0988   25.4141 O   0  0  0  0  0  0  0  0  0  0  0  0
    9.2204  -14.0979   18.5119 N   0  0  0  0  0  0  0  0  0  0  0  0
   12.2754  -16.9817   22.1910 C   0  0  0  0  0  0  0  0  0  0  0  0
   12.1013  -18.0089   23.1686 O   0  0  0  0  0  0  0  0  0  0  0  0
   12.0575  -19.2239   22.8233 C   0  0  0  0  0  0  0  0  0  0  0  0
   11.9759  -17.6110   24.5735 C   0  0  2  0  0  0  0  0  0  0  0  0
   10.6108  -17.8836   25.1122 N   0  0  0  0  0  0  0  0  0  0  0  0
    9.6437  -17.4060   24.1165 C   0  0  0  0  0  0  0  0  0  0  0  0
   10.3220  -17.2144   26.3928 O   0  0  0  0  0  0  0  0  0  0  0  0
   10.5068  -17.7979   27.6349 O   0  0  0  0  0  0  0  0  0  0  0  0
  1  2  1  0
  2  3  1  0
  3 13  1  0
  3  4  2  0
  5  6  1  0
  6  8  1  0
  7  6  2  0
  8  9  1  0
  9 10  1  0
 11 10  1  0
 12 11  1  1
 12 14  1  0
 13 12  1  0
 14 21  1  0
 14 15  2  0
 16 17  1  0
 17 19  1  0
 18 17  2  0
 20 19  1  6
 20 22  1  0
 21 20  1  0
 22 23  1  0
 24 22  2  0
M  END
$$$$
