GRN.pdb
     RDKit          3D

 24 23  0  0  1  0  0  0  0  0999 V2000
    6.0229  -21.2329   24.7815 N   0  0  0  0  0  0  0  0  0  0  0  0
    5.8588  -19.8259   24.9632 C   0  0  0  0  0  0  0  0  0  0  0  0
    6.8169  -19.0337   24.1245 C   0  0  0  0  0  0  0  0  0  0  0  0
    7.7885  -19.6394   23.6107 O   0  0  0  0  0  0  0  0  0  0  0  0
    9.8423  -13.3849   19.6647 N   0  0  0  0  0  0  0  0  0  0  0  0
    8.5961  -12.9417   19.1313 C   0  0  0  0  0  0  0  0  0  0  0  0
    8.4664  -11.9612   18.3252 N   0  0  0  0  0  0  0  0  0  0  0  0
    7.4124  -13.6509   19.5335 N   0  0  0  0  0  0  0  0  0  0  0  0
    7.0518  -13.7859   20.9177 C   0  0  0  0  0  0  0  0  0  0  0  0
    7.8685  -14.9057   21.5613 C   0  0  0  0  0  0  0  0  0  0  0  0
    6.9919  -15.7051   22.4797 C   0  0  0  0  0  0  0  0  0  0  0  0
    7.6658  -16.8778   23.1348 C   0  0  2  0  0  0  0  0  0  0  0  0
    6.6685  -17.6543   23.8956 N   0  0  0  0  0  0  0  0  0  0  0  0
    8.7406  -16.4189   24.0284 C   0  0  0  0  0  0  0  0  0  0  0  0
    8.5140  -16.0639   25.1979 O   0  0  0  0  0  0  0  0  0  0  0  0
    7.5177  -11.6756   17.9878 N   0  0  0  0  0  0  0  0  0  0  0  0
   12.1803  -18.3669   27.2776 C   0  0  0  0  0  0  0  0  0  0  0  0
   12.2359  -18.3080   25.8512 O   0  0  0  0  0  0  0  0  0  0  0  0
   13.2990  -18.6070   25.2365 C   0  0  0  0  0  0  0  0  0  0  0  0
   11.0298  -17.8926   25.1297 C   0  0  1  0  0  0  0  0  0  0  0  0
   11.1921  -16.5515   24.4947 N   0  0  0  0  0  0  0  0  0  0  0  0
   10.0800  -16.3754   23.5529 C   0  0  0  0  0  0  0  0  0  0  0  0
   12.4545  -16.3829   23.7536 O   0  0  0  0  0  0  0  0  0  0  0  0
   12.5815  -16.5486   22.3848 O   0  0  0  0  0  0  0  0  0  0  0  0
  1  2  1  0
  2  3  1  0
  3 13  1  0
  3  4  2  0
  5  6  1  0
  6  8  1  0
  7  6  2  0
  8  9  1  0
  9 10  1  0
 11 10  1  0
 12 11  1  1
 12 14  1  0
 13 12  1  0
 14 21  1  0
 14 15  2  0
 16 17  1  0
 17 19  1  0
 18 17  2  0
 20 19  1  1
 20 22  1  0
 21 20  1  0
 22 23  1  0
 24 22  2  0
M  END
$$$$
