GRN.pdb
     RDKit          3D

 24 23  0  0  1  0  0  0  0  0999 V2000
    4.4914  -21.0533   22.6926 N   0  0  0  0  0  0  0  0  0  0  0  0
    4.2973  -19.6894   23.0690 C   0  0  0  0  0  0  0  0  0  0  0  0
    5.5644  -18.8927   22.9738 C   0  0  0  0  0  0  0  0  0  0  0  0
    6.6362  -19.5140   22.7740 O   0  0  0  0  0  0  0  0  0  0  0  0
    7.8880  -11.9505   18.9522 N   0  0  0  0  0  0  0  0  0  0  0  0
    8.6974  -13.1179   19.0793 C   0  0  0  0  0  0  0  0  0  0  0  0
    9.4675  -13.5626   18.1644 N   0  0  0  0  0  0  0  0  0  0  0  0
    8.6357  -13.8359   20.3229 N   0  0  0  0  0  0  0  0  0  0  0  0
    7.6003  -13.5819   21.2861 C   0  0  0  0  0  0  0  0  0  0  0  0
    7.8083  -14.4619   22.5180 C   0  0  0  0  0  0  0  0  0  0  0  0
    6.5862  -15.3005   22.7507 C   0  0  0  0  0  0  0  0  0  0  0  0
    6.8618  -16.7365   23.0977 C   0  0  2  0  0  0  0  0  0  0  0  0
    5.5950  -17.4925   23.0989 N   0  0  0  0  0  0  0  0  0  0  0  0
    7.5103  -16.8310   24.4149 C   0  0  0  0  0  0  0  0  0  0  0  0
    6.8975  -16.5798   25.4668 O   0  0  0  0  0  0  0  0  0  0  0  0
   10.0135  -14.4430   18.3141 N   0  0  0  0  0  0  0  0  0  0  0  0
    7.7115  -17.8696   27.8415 C   0  0  0  0  0  0  0  0  0  0  0  0
    8.1484  -19.0728   27.2072 O   0  0  0  0  0  0  0  0  0  0  0  0
    7.7103  -20.1957   27.5877 C   0  0  0  0  0  0  0  0  0  0  0  0
    9.1137  -18.9638   26.1098 C   0  0  2  0  0  0  0  0  0  0  0  0
    9.4589  -17.5433   25.8079 N   0  0  0  0  0  0  0  0  0  0  0  0
    8.8755  -17.2193   24.5005 C   0  0  0  0  0  0  0  0  0  0  0  0
   10.9061  -17.2734   25.7462 O   0  0  0  0  0  0  0  0  0  0  0  0
   11.5857  -16.9323   24.5890 O   0  0  0  0  0  0  0  0  0  0  0  0
  1  2  1  0
  2  3  1  0
  3 13  1  0
  3  4  2  0
  5  6  1  0
  6  8  1  0
  7  6  2  0
  8  9  1  0
  9 10  1  0
 11 10  1  0
 12 11  1  1
 12 14  1  0
 13 12  1  0
 14 21  1  0
 14 15  2  0
 16 17  1  0
 17 19  1  0
 18 17  2  0
 20 19  1  1
 20 22  1  0
 21 20  1  0
 22 23  1  0
 24 22  2  0
M  END
$$$$
