GRN.pdb
     RDKit          3D

 24 23  0  0  1  0  0  0  0  0999 V2000
    6.8898  -20.6662   22.7265 N   0  0  0  0  0  0  0  0  0  0  0  0
    6.6576  -19.2954   23.0528 C   0  0  0  0  0  0  0  0  0  0  0  0
    7.7725  -18.4080   22.5850 C   0  0  0  0  0  0  0  0  0  0  0  0
    8.8131  -18.9537   22.1443 O   0  0  0  0  0  0  0  0  0  0  0  0
    9.5140  -13.3685   18.2183 N   0  0  0  0  0  0  0  0  0  0  0  0
    8.1210  -13.2905   17.9223 C   0  0  0  0  0  0  0  0  0  0  0  0
    7.6102  -13.5681   16.7866 N   0  0  0  0  0  0  0  0  0  0  0  0
    7.2409  -12.8698   18.9779 N   0  0  0  0  0  0  0  0  0  0  0  0
    7.5688  -13.0861   20.3599 C   0  0  0  0  0  0  0  0  0  0  0  0
    8.2151  -14.4601   20.5325 C   0  0  0  0  0  0  0  0  0  0  0  0
    8.3819  -14.7589   21.9933 C   0  0  0  0  0  0  0  0  0  0  0  0
    8.8559  -16.1508   22.3036 C   0  0  2  0  0  0  0  0  0  0  0  0
    7.6955  -17.0045   22.6217 N   0  0  0  0  0  0  0  0  0  0  0  0
    9.7972  -16.1324   23.4341 C   0  0  0  0  0  0  0  0  0  0  0  0
    9.4229  -16.3340   24.6022 O   0  0  0  0  0  0  0  0  0  0  0  0
    6.5869  -13.4267   16.6179 N   0  0  0  0  0  0  0  0  0  0  0  0
   12.2288  -19.9207   25.6183 C   0  0  0  0  0  0  0  0  0  0  0  0
   12.2058  -18.4998   25.4714 O   0  0  0  0  0  0  0  0  0  0  0  0
   12.4613  -17.7477   26.4546 C   0  0  0  0  0  0  0  0  0  0  0  0
   11.8787  -17.9470   24.1541 C   0  0  2  0  0  0  0  0  0  0  0  0
   12.1883  -16.4893   24.0668 N   0  0  0  0  0  0  0  0  0  0  0  0
   11.1760  -15.8780   23.1972 C   0  0  0  0  0  0  0  0  0  0  0  0
   13.5182  -16.1867   23.5092 O   0  0  0  0  0  0  0  0  0  0  0  0
   13.9425  -16.5799   22.2512 O   0  0  0  0  0  0  0  0  0  0  0  0
  1  2  1  0
  2  3  1  0
  3 13  1  0
  3  4  2  0
  5  6  1  0
  6  8  1  0
  7  6  2  0
  8  9  1  0
  9 10  1  0
 11 10  1  0
 12 11  1  1
 12 14  1  0
 13 12  1  0
 14 21  1  0
 14 15  2  0
 16 17  1  0
 17 19  1  0
 18 17  2  0
 20 19  1  1
 20 22  1  0
 21 20  1  0
 22 23  1  0
 24 22  2  0
M  END
$$$$
