GRN.pdb
     RDKit          3D

 24 23  0  0  1  0  0  0  0  0999 V2000
    9.5870  -20.6268   19.0346 N   0  0  0  0  0  0  0  0  0  0  0  0
    8.8974  -20.0365   20.1371 C   0  0  0  0  0  0  0  0  0  0  0  0
    9.6075  -18.8245   20.6624 C   0  0  0  0  0  0  0  0  0  0  0  0
   10.8617  -18.8471   20.6984 O   0  0  0  0  0  0  0  0  0  0  0  0
    9.3704  -12.7771   18.7872 N   0  0  0  0  0  0  0  0  0  0  0  0
    8.0192  -12.8875   18.3442 C   0  0  0  0  0  0  0  0  0  0  0  0
    7.6540  -12.8158   17.1238 N   0  0  0  0  0  0  0  0  0  0  0  0
    7.0076  -13.0924   19.3446 N   0  0  0  0  0  0  0  0  0  0  0  0
    7.3201  -13.6748   20.6202 C   0  0  0  0  0  0  0  0  0  0  0  0
    8.4502  -14.6918   20.4651 C   0  0  0  0  0  0  0  0  0  0  0  0
    8.7189  -15.3521   21.7853 C   0  0  0  0  0  0  0  0  0  0  0  0
    9.6384  -16.5391   21.7227 C   0  0  2  0  0  0  0  0  0  0  0  0
    8.9278  -17.6781   21.1108 N   0  0  0  0  0  0  0  0  0  0  0  0
   10.1060  -16.8979   23.0707 C   0  0  0  0  0  0  0  0  0  0  0  0
    9.3431  -17.3897   23.9199 O   0  0  0  0  0  0  0  0  0  0  0  0
    6.6421  -12.8967   16.8687 N   0  0  0  0  0  0  0  0  0  0  0  0
   12.1925  -20.7215   25.4865 C   0  0  0  0  0  0  0  0  0  0  0  0
   12.9554  -19.8474   24.6529 O   0  0  0  0  0  0  0  0  0  0  0  0
   14.2187  -19.8870   24.6658 C   0  0  0  0  0  0  0  0  0  0  0  0
   12.2314  -18.9104   23.7893 C   0  0  1  0  0  0  0  0  0  0  0  0
   12.1103  -17.5579   24.4093 N   0  0  0  0  0  0  0  0  0  0  0  0
   11.4660  -16.6808   23.4243 C   0  0  0  0  0  0  0  0  0  0  0  0
   13.3974  -16.9522   24.7933 O   0  0  0  0  0  0  0  0  0  0  0  0
   14.2051  -16.2290   23.9320 O   0  0  0  0  0  0  0  0  0  0  0  0
  1  2  1  0
  2  3  1  0
  3 13  1  0
  3  4  2  0
  5  6  1  0
  6  8  1  0
  7  6  2  0
  8  9  1  0
  9 10  1  0
 11 10  1  0
 12 11  1  1
 12 14  1  0
 13 12  1  0
 14 21  1  0
 14 15  2  0
 16 17  1  0
 17 19  1  0
 18 17  2  0
 20 19  1  1
 20 22  1  0
 21 20  1  0
 22 23  1  0
 24 22  2  0
M  END
$$$$
