GRN.pdb
     RDKit          3D

 24 23  0  0  1  0  0  0  0  0999 V2000
   15.9356  -14.4301   16.1921 N   0  0  0  0  0  0  0  0  0  0  0  0
   14.7065  -15.1001   16.4746 C   0  0  0  0  0  0  0  0  0  0  0  0
   14.1943  -14.7826   17.8480 C   0  0  0  0  0  0  0  0  0  0  0  0
   14.8716  -14.0050   18.5631 O   0  0  0  0  0  0  0  0  0  0  0  0
    6.1050  -13.9687   20.1432 N   0  0  0  0  0  0  0  0  0  0  0  0
    7.1184  -13.1236   19.6020 C   0  0  0  0  0  0  0  0  0  0  0  0
    6.8912  -12.1186   18.8496 N   0  0  0  0  0  0  0  0  0  0  0  0
    8.4837  -13.4313   19.9298 N   0  0  0  0  0  0  0  0  0  0  0  0
    8.8204  -14.5400   20.7793 C   0  0  0  0  0  0  0  0  0  0  0  0
   10.3347  -14.6046   20.9747 C   0  0  0  0  0  0  0  0  0  0  0  0
   10.9892  -15.0465   19.6990 C   0  0  0  0  0  0  0  0  0  0  0  0
   12.4894  -14.9581   19.6947 C   0  0  2  0  0  0  0  0  0  0  0  0
   12.9979  -15.3178   18.3574 N   0  0  0  0  0  0  0  0  0  0  0  0
   13.0594  -15.8548   20.7123 C   0  0  0  0  0  0  0  0  0  0  0  0
   13.0302  -17.0911   20.5870 O   0  0  0  0  0  0  0  0  0  0  0  0
    7.6855  -11.5650   18.4520 N   0  0  0  0  0  0  0  0  0  0  0  0
   17.3059  -14.5986   21.8751 C   0  0  0  0  0  0  0  0  0  0  0  0
   16.5485  -15.7578   22.2270 O   0  0  0  0  0  0  0  0  0  0  0  0
   16.7383  -16.8553   21.6295 C   0  0  0  0  0  0  0  0  0  0  0  0
   15.5522  -15.6339   23.2946 C   0  0  2  0  0  0  0  0  0  0  0  0
   14.2297  -16.1979   22.8935 N   0  0  0  0  0  0  0  0  0  0  0  0
   13.6630  -15.3043   21.8761 C   0  0  0  0  0  0  0  0  0  0  0  0
   13.2612  -16.3110   23.9982 O   0  0  0  0  0  0  0  0  0  0  0  0
   12.7775  -17.5119   24.4892 O   0  0  0  0  0  0  0  0  0  0  0  0
  1  2  1  0
  2  3  1  0
  3 13  1  0
  3  4  2  0
  5  6  1  0
  6  8  1  0
  7  6  2  0
  8  9  1  0
  9 10  1  0
 11 10  1  0
 12 11  1  6
 12 14  1  0
 13 12  1  0
 14 21  1  0
 14 15  2  0
 16 17  1  0
 17 19  1  0
 18 17  2  0
 20 19  1  6
 20 22  1  0
 21 20  1  0
 22 23  1  0
 24 22  2  0
M  END
$$$$
