GRN.pdb
     RDKit          3D

 24 23  0  0  1  0  0  0  0  0999 V2000
   13.8262  -17.5302   21.4935 N   0  0  0  0  0  0  0  0  0  0  0  0
   12.4834  -17.9617   21.7178 C   0  0  0  0  0  0  0  0  0  0  0  0
   11.7620  -17.0766   22.6901 C   0  0  0  0  0  0  0  0  0  0  0  0
   12.4241  -16.5722   23.6294 O   0  0  0  0  0  0  0  0  0  0  0  0
    7.9501  -14.7575   18.8406 N   0  0  0  0  0  0  0  0  0  0  0  0
    7.7222  -13.4439   19.3471 C   0  0  0  0  0  0  0  0  0  0  0  0
    8.1602  -12.3766   18.8023 N   0  0  0  0  0  0  0  0  0  0  0  0
    6.9476  -13.3224   20.5518 N   0  0  0  0  0  0  0  0  0  0  0  0
    6.9295  -14.3641   21.5411 C   0  0  0  0  0  0  0  0  0  0  0  0
    8.3469  -14.6224   22.0506 C   0  0  0  0  0  0  0  0  0  0  0  0
    8.3113  -15.6566   23.1371 C   0  0  0  0  0  0  0  0  0  0  0  0
    9.6585  -16.0782   23.6526 C   0  0  2  0  0  0  0  0  0  0  0  0
   10.3881  -16.7949   22.5894 N   0  0  0  0  0  0  0  0  0  0  0  0
    9.5088  -16.9406   24.8351 C   0  0  0  0  0  0  0  0  0  0  0  0
    9.4326  -18.1776   24.7389 O   0  0  0  0  0  0  0  0  0  0  0  0
    7.9429  -11.4417   19.2198 N   0  0  0  0  0  0  0  0  0  0  0  0
   11.1488  -14.5892   29.0552 C   0  0  0  0  0  0  0  0  0  0  0  0
   10.8935  -15.9275   28.6250 O   0  0  0  0  0  0  0  0  0  0  0  0
   11.8491  -16.7073   28.3492 C   0  0  0  0  0  0  0  0  0  0  0  0
    9.4985  -16.3630   28.5143 C   0  0  2  0  0  0  0  0  0  0  0  0
    9.2720  -17.2124   27.3079 N   0  0  0  0  0  0  0  0  0  0  0  0
    9.4480  -16.3551   26.1295 C   0  0  0  0  0  0  0  0  0  0  0  0
    7.9310  -17.8194   27.2399 O   0  0  0  0  0  0  0  0  0  0  0  0
    7.0160  -17.5741   26.2301 O   0  0  0  0  0  0  0  0  0  0  0  0
  1  2  1  0
  2  3  1  0
  3 13  1  0
  3  4  2  0
  5  6  1  0
  6  8  1  0
  7  6  2  0
  8  9  1  0
  9 10  1  0
 11 10  1  0
 12 11  1  6
 12 14  1  0
 13 12  1  0
 14 21  1  0
 14 15  2  0
 16 17  1  0
 17 19  1  0
 18 17  2  0
 20 19  1  6
 20 22  1  0
 21 20  1  0
 22 23  1  0
 24 22  2  0
M  END
$$$$
