GRN.pdb
     RDKit          3D

 24 23  0  0  1  0  0  0  0  0999 V2000
    4.6057  -20.3074   22.1430 N   0  0  0  0  0  0  0  0  0  0  0  0
    4.4435  -18.9521   22.5632 C   0  0  0  0  0  0  0  0  0  0  0  0
    5.7602  -18.2703   22.7879 C   0  0  0  0  0  0  0  0  0  0  0  0
    6.7813  -18.9893   22.9120 O   0  0  0  0  0  0  0  0  0  0  0  0
    7.2581  -12.3411   19.2513 N   0  0  0  0  0  0  0  0  0  0  0  0
    8.2491  -13.2297   18.7392 C   0  0  0  0  0  0  0  0  0  0  0  0
    9.0369  -12.9504   17.7752 N   0  0  0  0  0  0  0  0  0  0  0  0
    8.3612  -14.5240   19.3542 N   0  0  0  0  0  0  0  0  0  0  0  0
    7.4956  -14.9218   20.4297 C   0  0  0  0  0  0  0  0  0  0  0  0
    7.9921  -14.3239   21.7455 C   0  0  0  0  0  0  0  0  0  0  0  0
    7.0979  -14.7623   22.8676 C   0  0  0  0  0  0  0  0  0  0  0  0
    7.1734  -16.2257   23.2011 C   0  0  2  0  0  0  0  0  0  0  0  0
    5.8910  -16.8723   22.8638 N   0  0  0  0  0  0  0  0  0  0  0  0
    7.4754  -16.4120   24.6289 C   0  0  0  0  0  0  0  0  0  0  0  0
    6.5786  -16.4541   25.4885 O   0  0  0  0  0  0  0  0  0  0  0  0
    9.7522  -13.6456   17.4581 N   0  0  0  0  0  0  0  0  0  0  0  0
    9.8936  -20.5697   26.8605 C   0  0  0  0  0  0  0  0  0  0  0  0
    8.9170  -19.5771   27.1803 O   0  0  0  0  0  0  0  0  0  0  0  0
    8.4328  -19.5038   28.3455 C   0  0  0  0  0  0  0  0  0  0  0  0
    8.4980  -18.6543   26.1217 C   0  0  2  0  0  0  0  0  0  0  0  0
    9.1362  -17.3125   26.2646 N   0  0  0  0  0  0  0  0  0  0  0  0
    8.8266  -16.5488   25.0499 C   0  0  0  0  0  0  0  0  0  0  0  0
   10.6006  -17.3539   26.4222 O   0  0  0  0  0  0  0  0  0  0  0  0
   11.2497  -17.4584   27.6408 O   0  0  0  0  0  0  0  0  0  0  0  0
  1  2  1  0
  2  3  1  0
  3 13  1  0
  3  4  2  0
  5  6  1  0
  6  8  1  0
  7  6  2  0
  8  9  1  0
  9 10  1  0
 11 10  1  0
 12 11  1  1
 12 14  1  0
 13 12  1  0
 14 21  1  0
 14 15  2  0
 16 17  1  0
 17 19  1  0
 18 17  2  0
 20 19  1  1
 20 22  1  0
 21 20  1  0
 22 23  1  0
 24 22  2  0
M  END
$$$$
