WHA.pdb
     RDKit          3D

 30 32  0  0  1  0  0  0  0  0999 V2000
   27.1186  -22.0365  -10.1627 N   0  0  0  0  0  0  0  0  0  0  0  0
   26.6216  -20.7162   -9.8312 C   0  0  1  0  0  0  0  0  0  0  0  0
   27.7175  -19.7557   -9.4736 C   0  0  0  0  0  0  0  0  0  0  0  0
   28.5456  -20.3751   -8.4155 C   0  0  0  0  0  0  0  0  0  0  0  0
   29.5827  -21.2783   -8.5345 C   0  0  0  0  0  0  0  0  0  0  0  0
   30.0369  -21.5622   -7.3226 N   0  0  0  0  0  0  0  0  0  0  0  0
   29.3334  -20.8748   -6.4000 C   0  0  0  0  0  0  0  0  0  0  0  0
   29.4476  -20.8518   -5.0276 C   0  0  0  0  0  0  0  0  0  0  0  0
   28.5908  -20.0501   -4.3027 C   0  0  0  0  0  0  0  0  0  0  0  0
   27.6216  -19.2708   -4.9247 C   0  0  0  0  0  0  0  0  0  0  0  0
   27.5461  -19.3279   -6.3047 C   0  0  0  0  0  0  0  0  0  0  0  0
   28.3819  -20.1146   -7.0655 C   0  0  0  0  0  0  0  0  0  0  0  0
   25.7210  -20.2255  -10.8922 C   0  0  0  0  0  0  0  0  0  0  0  0
   25.7923  -19.0582  -11.3429 O   0  0  0  0  0  0  0  0  0  0  0  0
   24.7369  -21.0897  -11.4307 N   0  0  0  0  0  0  0  0  0  0  0  0
   23.9716  -20.7471  -12.6136 C   0  0  1  0  0  0  0  0  0  0  0  0
   24.4885  -21.5515  -13.7781 C   0  0  0  0  0  0  0  0  0  0  0  0
   25.7421  -21.0208  -14.3197 C   0  0  0  0  0  0  0  0  0  0  0  0
   26.9229  -21.7337  -14.3856 C   0  0  0  0  0  0  0  0  0  0  0  0
   27.8413  -20.9320  -14.9333 N   0  0  0  0  0  0  0  0  0  0  0  0
   27.2960  -19.7382  -15.2195 C   0  0  0  0  0  0  0  0  0  0  0  0
   26.0081  -19.8145  -14.8350 N   0  0  0  0  0  0  0  0  0  0  0  0
   22.5563  -21.0645  -12.3578 C   0  0  0  0  0  0  0  0  0  0  0  0
   22.2576  -22.1185  -11.7406 O   0  0  0  0  0  0  0  0  0  0  0  0
   19.3686  -19.2046  -13.1256 C   0  0  0  0  0  0  0  0  0  0  0  0
   20.1715  -20.3616  -12.5198 C   0  0  2  0  0  0  0  0  0  0  0  0
   21.5528  -20.1544  -12.8241 N   0  0  0  0  0  0  0  0  0  0  0  0
   19.6390  -21.6039  -13.0872 C   0  0  0  0  0  0  0  0  0  0  0  0
   18.5360  -22.2602  -12.5469 O   0  0  0  0  0  0  0  0  0  0  0  0
   20.1740  -22.1211  -14.0973 O   0  0  0  0  0  0  0  0  0  0  0  0
  2  1  1  6
  2 13  1  0
  2  3  1  0
  3  4  1  0
  4  5  2  0
  5  6  1  0
  7  6  1  0
  8  7  2  0
  9  8  1  0
 10 11  1  0
 10  9  2  0
 11 12  2  0
 12  4  1  0
 12  7  1  0
 13 14  2  0
 15 13  1  0
 15 16  1  0
 16 17  1  6
 18 17  1  0
 19 18  2  0
 20 21  1  0
 20 19  1  0
 21 22  2  0
 22 18  1  0
 23 24  2  0
 23 16  1  0
 26 25  1  6
 26 27  1  0
 27 23  1  0
 28 29  1  0
 28 26  1  0
 30 28  2  0
M  END
$$$$
