WHA.pdb
     RDKit          3D

 30 32  0  0  1  0  0  0  0  0999 V2000
   27.8367  -21.9221  -10.9856 N   0  0  0  0  0  0  0  0  0  0  0  0
   26.7221  -21.1649  -10.4523 C   0  0  1  0  0  0  0  0  0  0  0  0
   27.1582  -19.9498   -9.6874 C   0  0  0  0  0  0  0  0  0  0  0  0
   28.1208  -20.3800   -8.6494 C   0  0  0  0  0  0  0  0  0  0  0  0
   29.3478  -20.9950   -8.7972 C   0  0  0  0  0  0  0  0  0  0  0  0
   29.8664  -21.1974   -7.5948 N   0  0  0  0  0  0  0  0  0  0  0  0
   29.0215  -20.7354   -6.6507 C   0  0  0  0  0  0  0  0  0  0  0  0
   29.1361  -20.7297   -5.2781 C   0  0  0  0  0  0  0  0  0  0  0  0
   28.1132  -20.1884   -4.5281 C   0  0  0  0  0  0  0  0  0  0  0  0
   26.9774  -19.6524   -5.1250 C   0  0  0  0  0  0  0  0  0  0  0  0
   26.9087  -19.6813   -6.5062 C   0  0  0  0  0  0  0  0  0  0  0  0
   27.9073  -20.2122   -7.2917 C   0  0  0  0  0  0  0  0  0  0  0  0
   25.7398  -20.8795  -11.5158 C   0  0  0  0  0  0  0  0  0  0  0  0
   26.0351  -20.2189  -12.5391 O   0  0  0  0  0  0  0  0  0  0  0  0
   24.4138  -21.3608  -11.3918 N   0  0  0  0  0  0  0  0  0  0  0  0
   23.4413  -21.2292  -12.4592 C   0  0  1  0  0  0  0  0  0  0  0  0
   23.3018  -22.5571  -13.1575 C   0  0  0  0  0  0  0  0  0  0  0  0
   24.4774  -22.8988  -13.9623 C   0  0  0  0  0  0  0  0  0  0  0  0
   25.1798  -24.0821  -13.8474 C   0  0  0  0  0  0  0  0  0  0  0  0
   26.1790  -24.0389  -14.7340 N   0  0  0  0  0  0  0  0  0  0  0  0
   26.1432  -22.8783  -15.4093 C   0  0  0  0  0  0  0  0  0  0  0  0
   25.0920  -22.1944  -14.9202 N   0  0  0  0  0  0  0  0  0  0  0  0
   22.1554  -20.8227  -11.8670 C   0  0  0  0  0  0  0  0  0  0  0  0
   21.7512  -21.3816  -10.8157 O   0  0  0  0  0  0  0  0  0  0  0  0
   19.5813  -18.2712  -12.9029 C   0  0  0  0  0  0  0  0  0  0  0  0
   20.1609  -19.3325  -11.9606 C   0  0  2  0  0  0  0  0  0  0  0  0
   21.3967  -19.7930  -12.5124 N   0  0  0  0  0  0  0  0  0  0  0  0
   19.1585  -20.3943  -11.8329 C   0  0  0  0  0  0  0  0  0  0  0  0
   18.2187  -20.4158  -10.8054 O   0  0  0  0  0  0  0  0  0  0  0  0
   19.1187  -21.3332  -12.6640 O   0  0  0  0  0  0  0  0  0  0  0  0
  2  1  1  6
  2 13  1  0
  2  3  1  0
  3  4  1  0
  4  5  2  0
  5  6  1  0
  7  6  1  0
  8  7  2  0
  9  8  1  0
 10 11  1  0
 10  9  2  0
 11 12  2  0
 12  4  1  0
 12  7  1  0
 13 14  2  0
 15 13  1  0
 15 16  1  0
 16 17  1  1
 18 17  1  0
 19 18  2  0
 20 21  1  0
 20 19  1  0
 21 22  2  0
 22 18  1  0
 23 24  2  0
 23 16  1  0
 26 25  1  6
 26 27  1  0
 27 23  1  0
 28 29  1  0
 28 26  1  0
 30 28  2  0
M  END
$$$$
