WHA.pdb
     RDKit          3D

 30 32  0  0  1  0  0  0  0  0999 V2000
   27.9294  -20.3553   -9.6360 N   0  0  0  0  0  0  0  0  0  0  0  0
   26.5868  -20.9003   -9.6117 C   0  0  1  0  0  0  0  0  0  0  0  0
   25.7548  -20.3456   -8.4929 C   0  0  0  0  0  0  0  0  0  0  0  0
   26.6485  -19.5967   -7.5820 C   0  0  0  0  0  0  0  0  0  0  0  0
   26.9227  -18.2444   -7.5439 C   0  0  0  0  0  0  0  0  0  0  0  0
   27.7822  -18.0151   -6.5620 N   0  0  0  0  0  0  0  0  0  0  0  0
   28.0885  -19.1744   -5.9448 C   0  0  0  0  0  0  0  0  0  0  0  0
   28.9292  -19.4233   -4.8826 C   0  0  0  0  0  0  0  0  0  0  0  0
   29.0691  -20.7204   -4.4356 C   0  0  0  0  0  0  0  0  0  0  0  0
   28.3840  -21.7738   -5.0310 C   0  0  0  0  0  0  0  0  0  0  0  0
   27.5517  -21.4734   -6.0943 C   0  0  0  0  0  0  0  0  0  0  0  0
   27.3837  -20.1926   -6.5713 C   0  0  0  0  0  0  0  0  0  0  0  0
   25.9582  -20.7758  -10.9409 C   0  0  0  0  0  0  0  0  0  0  0  0
   26.2238  -19.8311  -11.7204 O   0  0  0  0  0  0  0  0  0  0  0  0
   25.0205  -21.7482  -11.3659 N   0  0  0  0  0  0  0  0  0  0  0  0
   24.3366  -21.6562  -12.6412 C   0  0  1  0  0  0  0  0  0  0  0  0
   24.2262  -23.0365  -13.2353 C   0  0  0  0  0  0  0  0  0  0  0  0
   25.2813  -23.3175  -14.2122 C   0  0  0  0  0  0  0  0  0  0  0  0
   26.1767  -22.3762  -14.6804 C   0  0  0  0  0  0  0  0  0  0  0  0
   26.9829  -22.9925  -15.5501 N   0  0  0  0  0  0  0  0  0  0  0  0
   26.6395  -24.2868  -15.6562 C   0  0  0  0  0  0  0  0  0  0  0  0
   25.5937  -24.4644  -14.8273 N   0  0  0  0  0  0  0  0  0  0  0  0
   22.9976  -21.0883  -12.4090 C   0  0  0  0  0  0  0  0  0  0  0  0
   22.3529  -21.4171  -11.3808 O   0  0  0  0  0  0  0  0  0  0  0  0
   20.9547  -18.5625  -14.3198 C   0  0  0  0  0  0  0  0  0  0  0  0
   21.1934  -19.5475  -13.1696 C   0  0  2  0  0  0  0  0  0  0  0  0
   22.4648  -20.1695  -13.3705 N   0  0  0  0  0  0  0  0  0  0  0  0
   20.0805  -20.5014  -13.1765 C   0  0  0  0  0  0  0  0  0  0  0  0
   18.8927  -20.2698  -12.4873 O   0  0  0  0  0  0  0  0  0  0  0  0
   20.1694  -21.5762  -13.8175 O   0  0  0  0  0  0  0  0  0  0  0  0
  2  1  1  6
  2 13  1  0
  2  3  1  0
  3  4  1  0
  4  5  2  0
  5  6  1  0
  7  6  1  0
  8  7  2  0
  9  8  1  0
 10 11  1  0
 10  9  2  0
 11 12  2  0
 12  4  1  0
 12  7  1  0
 13 14  2  0
 15 13  1  0
 15 16  1  0
 16 17  1  1
 18 17  1  0
 19 18  2  0
 20 21  1  0
 20 19  1  0
 21 22  2  0
 22 18  1  0
 23 24  2  0
 23 16  1  0
 26 25  1  6
 26 27  1  0
 27 23  1  0
 28 29  1  0
 28 26  1  0
 30 28  2  0
M  END
$$$$
