WHA.pdb
     RDKit          3D

 30 32  0  0  1  0  0  0  0  0999 V2000
   26.3321  -22.4154  -12.3185 N   0  0  0  0  0  0  0  0  0  0  0  0
   25.7276  -21.2882  -11.6375 C   0  0  1  0  0  0  0  0  0  0  0  0
   26.6962  -20.1679  -11.3956 C   0  0  0  0  0  0  0  0  0  0  0  0
   27.8067  -20.6899  -10.5689 C   0  0  0  0  0  0  0  0  0  0  0  0
   28.9190  -21.4105  -10.9547 C   0  0  0  0  0  0  0  0  0  0  0  0
   29.6498  -21.6672   -9.8797 N   0  0  0  0  0  0  0  0  0  0  0  0
   29.0575  -21.1390   -8.7894 C   0  0  0  0  0  0  0  0  0  0  0  0
   29.4470  -21.1538   -7.4684 C   0  0  0  0  0  0  0  0  0  0  0  0
   28.6488  -20.5293   -6.5331 C   0  0  0  0  0  0  0  0  0  0  0  0
   27.4679  -19.8899   -6.8940 C   0  0  0  0  0  0  0  0  0  0  0  0
   27.1193  -19.9022   -8.2326 C   0  0  0  0  0  0  0  0  0  0  0  0
   27.8876  -20.5139   -9.1979 C   0  0  0  0  0  0  0  0  0  0  0  0
   24.4940  -20.8707  -12.3314 C   0  0  0  0  0  0  0  0  0  0  0  0
   24.2487  -19.6703  -12.5951 O   0  0  0  0  0  0  0  0  0  0  0  0
   23.5442  -21.8467  -12.7194 N   0  0  0  0  0  0  0  0  0  0  0  0
   22.3657  -21.5123  -13.4950 C   0  0  1  0  0  0  0  0  0  0  0  0
   22.4483  -22.2056  -14.8302 C   0  0  0  0  0  0  0  0  0  0  0  0
   23.3252  -21.5096  -15.7753 C   0  0  0  0  0  0  0  0  0  0  0  0
   23.9597  -20.3125  -15.5085 C   0  0  0  0  0  0  0  0  0  0  0  0
   24.6670  -19.9869  -16.5948 N   0  0  0  0  0  0  0  0  0  0  0  0
   24.5103  -20.9256  -17.5427 C   0  0  0  0  0  0  0  0  0  0  0  0
   23.6836  -21.8501  -17.0190 N   0  0  0  0  0  0  0  0  0  0  0  0
   21.1778  -21.9674  -12.7525 C   0  0  0  0  0  0  0  0  0  0  0  0
   21.1904  -23.0913  -12.1888 O   0  0  0  0  0  0  0  0  0  0  0  0
   17.7697  -20.4442  -12.2465 C   0  0  0  0  0  0  0  0  0  0  0  0
   18.8489  -21.5043  -11.9981 C   0  0  2  0  0  0  0  0  0  0  0  0
   20.0331  -21.1079  -12.6940 N   0  0  0  0  0  0  0  0  0  0  0  0
   18.3128  -22.7872  -12.4622 C   0  0  0  0  0  0  0  0  0  0  0  0
   18.4135  -23.2043  -13.7871 O   0  0  0  0  0  0  0  0  0  0  0  0
   17.7360  -23.5615  -11.6612 O   0  0  0  0  0  0  0  0  0  0  0  0
  2  1  1  6
  2 13  1  0
  2  3  1  0
  3  4  1  0
  4  5  2  0
  5  6  1  0
  7  6  1  0
  8  7  2  0
  9  8  1  0
 10 11  1  0
 10  9  2  0
 11 12  2  0
 12  4  1  0
 12  7  1  0
 13 14  2  0
 15 13  1  0
 15 16  1  0
 16 17  1  6
 18 17  1  0
 19 18  2  0
 20 21  1  0
 20 19  1  0
 21 22  2  0
 22 18  1  0
 23 24  2  0
 23 16  1  0
 26 25  1  6
 26 27  1  0
 27 23  1  0
 28 29  1  0
 28 26  1  0
 30 28  2  0
M  END
$$$$
