WHA.pdb
     RDKit          3D

 30 32  0  0  1  0  0  0  0  0999 V2000
   27.6306  -21.4633  -10.5736 N   0  0  0  0  0  0  0  0  0  0  0  0
   26.3260  -21.0424  -10.1038 C   0  0  1  0  0  0  0  0  0  0  0  0
   26.4046  -20.0877   -8.9489 C   0  0  0  0  0  0  0  0  0  0  0  0
   27.6532  -20.3661   -8.2055 C   0  0  0  0  0  0  0  0  0  0  0  0
   28.7775  -21.0553   -8.6134 C   0  0  0  0  0  0  0  0  0  0  0  0
   29.6544  -21.0588   -7.6202 N   0  0  0  0  0  0  0  0  0  0  0  0
   29.1479  -20.3923   -6.5629 C   0  0  0  0  0  0  0  0  0  0  0  0
   29.6932  -20.1412   -5.3234 C   0  0  0  0  0  0  0  0  0  0  0  0
   28.9550  -19.4238   -4.4055 C   0  0  0  0  0  0  0  0  0  0  0  0
   27.6813  -18.9527   -4.7040 C   0  0  0  0  0  0  0  0  0  0  0  0
   27.1769  -19.2303   -5.9617 C   0  0  0  0  0  0  0  0  0  0  0  0
   27.8807  -19.9428   -6.9069 C   0  0  0  0  0  0  0  0  0  0  0  0
   25.5091  -20.5504  -11.2298 C   0  0  0  0  0  0  0  0  0  0  0  0
   25.8067  -19.5145  -11.8694 O   0  0  0  0  0  0  0  0  0  0  0  0
   24.3458  -21.2607  -11.6140 N   0  0  0  0  0  0  0  0  0  0  0  0
   23.5699  -20.8975  -12.7838 C   0  0  1  0  0  0  0  0  0  0  0  0
   23.9587  -21.8003  -13.9258 C   0  0  0  0  0  0  0  0  0  0  0  0
   25.3232  -21.5561  -14.4001 C   0  0  0  0  0  0  0  0  0  0  0  0
   26.3461  -22.4813  -14.3321 C   0  0  0  0  0  0  0  0  0  0  0  0
   27.4351  -21.9091  -14.8545 N   0  0  0  0  0  0  0  0  0  0  0  0
   27.1498  -20.6583  -15.2527 C   0  0  0  0  0  0  0  0  0  0  0  0
   25.8494  -20.4626  -14.9646 N   0  0  0  0  0  0  0  0  0  0  0  0
   22.1420  -21.0620  -12.4621 C   0  0  0  0  0  0  0  0  0  0  0  0
   21.7910  -21.9228  -11.6155 O   0  0  0  0  0  0  0  0  0  0  0  0
   19.3248  -21.7076  -13.4590 C   0  0  0  0  0  0  0  0  0  0  0  0
   19.7862  -20.3658  -12.8785 C   0  0  2  0  0  0  0  0  0  0  0  0
   21.1869  -20.2284  -13.1296 N   0  0  0  0  0  0  0  0  0  0  0  0
   19.4576  -20.3744  -11.4500 C   0  0  0  0  0  0  0  0  0  0  0  0
   19.1432  -19.2134  -10.7481 O   0  0  0  0  0  0  0  0  0  0  0  0
   19.4504  -21.4513  -10.8066 O   0  0  0  0  0  0  0  0  0  0  0  0
  2  1  1  6
  2 13  1  0
  2  3  1  0
  3  4  1  0
  4  5  2  0
  5  6  1  0
  7  6  1  0
  8  7  2  0
  9  8  1  0
 10 11  1  0
 10  9  2  0
 11 12  2  0
 12  4  1  0
 12  7  1  0
 13 14  2  0
 15 13  1  0
 15 16  1  0
 16 17  1  6
 18 17  1  0
 19 18  2  0
 20 21  1  0
 20 19  1  0
 21 22  2  0
 22 18  1  0
 23 24  2  0
 23 16  1  0
 26 25  1  1
 26 27  1  0
 27 23  1  0
 28 29  1  0
 28 26  1  0
 30 28  2  0
M  END
$$$$
