WHA.pdb
     RDKit          3D

 30 32  0  0  1  0  0  0  0  0999 V2000
   22.7202  -19.1759  -17.6854 N   0  0  0  0  0  0  0  0  0  0  0  0
   22.7388  -19.0290  -16.2438 C   0  0  1  0  0  0  0  0  0  0  0  0
   21.4595  -19.4736  -15.5979 C   0  0  0  0  0  0  0  0  0  0  0  0
   20.4545  -18.4035  -15.7821 C   0  0  0  0  0  0  0  0  0  0  0  0
   19.6608  -18.1297  -16.8778 C   0  0  0  0  0  0  0  0  0  0  0  0
   18.9062  -17.0765  -16.6003 N   0  0  0  0  0  0  0  0  0  0  0  0
   19.1735  -16.6407  -15.3523 C   0  0  0  0  0  0  0  0  0  0  0  0
   18.6400  -15.5876  -14.6429 C   0  0  0  0  0  0  0  0  0  0  0  0
   19.0940  -15.3513  -13.3622 C   0  0  0  0  0  0  0  0  0  0  0  0
   20.0718  -16.1485  -12.7775 C   0  0  0  0  0  0  0  0  0  0  0  0
   20.5766  -17.1937  -13.5298 C   0  0  0  0  0  0  0  0  0  0  0  0
   20.1511  -17.4640  -14.8113 C   0  0  0  0  0  0  0  0  0  0  0  0
   23.9446  -19.6646  -15.6786 C   0  0  0  0  0  0  0  0  0  0  0  0
   24.3640  -20.7762  -16.0777 O   0  0  0  0  0  0  0  0  0  0  0  0
   24.6642  -19.0101  -14.6495 N   0  0  0  0  0  0  0  0  0  0  0  0
   25.8625  -19.5783  -14.0630 C   0  0  1  0  0  0  0  0  0  0  0  0
   26.9879  -18.5853  -14.1959 C   0  0  0  0  0  0  0  0  0  0  0  0
   27.4991  -18.4902  -15.5656 C   0  0  0  0  0  0  0  0  0  0  0  0
   27.0529  -19.2669  -16.6166 C   0  0  0  0  0  0  0  0  0  0  0  0
   27.7434  -18.9026  -17.7013 N   0  0  0  0  0  0  0  0  0  0  0  0
   28.6108  -17.9265  -17.3865 C   0  0  0  0  0  0  0  0  0  0  0  0
   28.4442  -17.6891  -16.0719 N   0  0  0  0  0  0  0  0  0  0  0  0
   25.5933  -19.8628  -12.6431 C   0  0  0  0  0  0  0  0  0  0  0  0
   24.8182  -19.1140  -11.9955 O   0  0  0  0  0  0  0  0  0  0  0  0
   26.6952  -20.2977   -9.7873 C   0  0  0  0  0  0  0  0  0  0  0  0
   25.9849  -21.3314  -10.6689 C   0  0  2  0  0  0  0  0  0  0  0  0
   26.2286  -20.9948  -12.0368 N   0  0  0  0  0  0  0  0  0  0  0  0
   24.5628  -21.3004  -10.3150 C   0  0  0  0  0  0  0  0  0  0  0  0
   23.5540  -21.2689  -11.2745 O   0  0  0  0  0  0  0  0  0  0  0  0
   24.2077  -21.3016   -9.1118 O   0  0  0  0  0  0  0  0  0  0  0  0
  2  1  1  6
  2 13  1  0
  2  3  1  0
  3  4  1  0
  4  5  2  0
  5  6  1  0
  7  6  1  0
  8  7  2  0
  9  8  1  0
 10 11  1  0
 10  9  2  0
 11 12  2  0
 12  4  1  0
 12  7  1  0
 13 14  2  0
 15 13  1  0
 15 16  1  0
 16 17  1  1
 18 17  1  0
 19 18  2  0
 20 21  1  0
 20 19  1  0
 21 22  2  0
 22 18  1  0
 23 24  2  0
 23 16  1  0
 26 25  1  1
 26 27  1  0
 27 23  1  0
 28 29  1  0
 28 26  1  0
 30 28  2  0
M  END
$$$$
