WHA.pdb
     RDKit          3D

 30 32  0  0  1  0  0  0  0  0999 V2000
   26.2455  -22.2822  -12.0039 N   0  0  0  0  0  0  0  0  0  0  0  0
   25.7239  -21.1620  -11.2469 C   0  0  1  0  0  0  0  0  0  0  0  0
   26.6771  -20.0045  -11.1906 C   0  0  0  0  0  0  0  0  0  0  0  0
   27.8830  -20.4367  -10.4503 C   0  0  0  0  0  0  0  0  0  0  0  0
   29.0759  -20.9324  -10.9370 C   0  0  0  0  0  0  0  0  0  0  0  0
   29.8760  -21.1892   -9.9126 N   0  0  0  0  0  0  0  0  0  0  0  0
   29.2517  -20.8791   -8.7581 C   0  0  0  0  0  0  0  0  0  0  0  0
   29.6875  -20.9772   -7.4552 C   0  0  0  0  0  0  0  0  0  0  0  0
   28.8397  -20.5873   -6.4397 C   0  0  0  0  0  0  0  0  0  0  0  0
   27.5638  -20.1011   -6.7027 C   0  0  0  0  0  0  0  0  0  0  0  0
   27.1719  -20.0214   -8.0269 C   0  0  0  0  0  0  0  0  0  0  0  0
   27.9871  -20.4000   -9.0701 C   0  0  0  0  0  0  0  0  0  0  0  0
   24.3757  -20.8016  -11.7266 C   0  0  0  0  0  0  0  0  0  0  0  0
   23.7297  -19.8411  -11.2462 O   0  0  0  0  0  0  0  0  0  0  0  0
   23.7766  -21.5564  -12.7642 N   0  0  0  0  0  0  0  0  0  0  0  0
   22.5030  -21.1879  -13.3512 C   0  0  1  0  0  0  0  0  0  0  0  0
   22.6215  -21.2516  -14.8519 C   0  0  0  0  0  0  0  0  0  0  0  0
   23.2547  -20.0588  -15.4200 C   0  0  0  0  0  0  0  0  0  0  0  0
   23.6247  -18.9507  -14.6837 C   0  0  0  0  0  0  0  0  0  0  0  0
   24.1653  -18.0716  -15.5328 N   0  0  0  0  0  0  0  0  0  0  0  0
   24.1556  -18.5721  -16.7793 C   0  0  0  0  0  0  0  0  0  0  0  0
   23.5928  -19.7916  -16.6872 N   0  0  0  0  0  0  0  0  0  0  0  0
   21.4818  -22.1369  -12.8758 C   0  0  0  0  0  0  0  0  0  0  0  0
   21.6067  -23.3623  -13.1286 O   0  0  0  0  0  0  0  0  0  0  0  0
   18.5259  -21.7295  -10.5942 C   0  0  0  0  0  0  0  0  0  0  0  0
   19.3710  -22.5116  -11.6063 C   0  0  2  0  0  0  0  0  0  0  0  0
   20.3665  -21.6308  -12.1325 N   0  0  0  0  0  0  0  0  0  0  0  0
   18.4574  -23.0231  -12.6321 C   0  0  0  0  0  0  0  0  0  0  0  0
   17.8249  -24.2589  -12.5212 O   0  0  0  0  0  0  0  0  0  0  0  0
   18.2148  -22.3468  -13.6606 O   0  0  0  0  0  0  0  0  0  0  0  0
  2  1  1  6
  2 13  1  0
  2  3  1  0
  3  4  1  0
  4  5  2  0
  5  6  1  0
  7  6  1  0
  8  7  2  0
  9  8  1  0
 10 11  1  0
 10  9  2  0
 11 12  2  0
 12  4  1  0
 12  7  1  0
 13 14  2  0
 15 13  1  0
 15 16  1  0
 16 17  1  6
 18 17  1  0
 19 18  2  0
 20 21  1  0
 20 19  1  0
 21 22  2  0
 22 18  1  0
 23 24  2  0
 23 16  1  0
 26 25  1  1
 26 27  1  0
 27 23  1  0
 28 29  1  0
 28 26  1  0
 30 28  2  0
M  END
$$$$
