WHA.pdb
     RDKit          3D

 30 32  0  0  1  0  0  0  0  0999 V2000
   21.1690  -12.8201  -18.2765 N   0  0  0  0  0  0  0  0  0  0  0  0
   20.6998  -11.4968  -18.6353 C   0  0  1  0  0  0  0  0  0  0  0  0
   19.2039  -11.3836  -18.6085 C   0  0  0  0  0  0  0  0  0  0  0  0
   18.6503  -12.3702  -19.5621 C   0  0  0  0  0  0  0  0  0  0  0  0
   19.1269  -12.7507  -20.8004 C   0  0  0  0  0  0  0  0  0  0  0  0
   18.3117  -13.6658  -21.3039 N   0  0  0  0  0  0  0  0  0  0  0  0
   17.3064  -13.9064  -20.4377 C   0  0  0  0  0  0  0  0  0  0  0  0
   16.2366  -14.7687  -20.5315 C   0  0  0  0  0  0  0  0  0  0  0  0
   15.3353  -14.8254  -19.4892 C   0  0  0  0  0  0  0  0  0  0  0  0
   15.4838  -14.0357  -18.3544 C   0  0  0  0  0  0  0  0  0  0  0  0
   16.5740  -13.1856  -18.3069 C   0  0  0  0  0  0  0  0  0  0  0  0
   17.4967  -13.0985  -19.3254 C   0  0  0  0  0  0  0  0  0  0  0  0
   21.3901  -10.4714  -17.8293 C   0  0  0  0  0  0  0  0  0  0  0  0
   21.6235  -10.6265  -16.6077 O   0  0  0  0  0  0  0  0  0  0  0  0
   21.8098   -9.2652  -18.4410 N   0  0  0  0  0  0  0  0  0  0  0  0
   22.4989   -8.2241  -17.7036 C   0  0  1  0  0  0  0  0  0  0  0  0
   23.2101   -7.3243  -18.6808 C   0  0  0  0  0  0  0  0  0  0  0  0
   23.9749   -6.2641  -18.0194 C   0  0  0  0  0  0  0  0  0  0  0  0
   25.2479   -6.4274  -17.5097 C   0  0  0  0  0  0  0  0  0  0  0  0
   25.6200   -5.2552  -16.9864 N   0  0  0  0  0  0  0  0  0  0  0  0
   24.6382   -4.3516  -17.1409 C   0  0  0  0  0  0  0  0  0  0  0  0
   23.6389   -4.9914  -17.7767 N   0  0  0  0  0  0  0  0  0  0  0  0
   21.4998   -7.4612  -16.9360 C   0  0  0  0  0  0  0  0  0  0  0  0
   20.3139   -7.3988  -17.3493 O   0  0  0  0  0  0  0  0  0  0  0  0
   19.9679   -7.0021  -14.3365 C   0  0  0  0  0  0  0  0  0  0  0  0
   20.9890   -6.0400  -14.9544 C   0  0  2  0  0  0  0  0  0  0  0  0
   21.9129   -6.8070  -15.7302 N   0  0  0  0  0  0  0  0  0  0  0  0
   21.6280   -5.3171  -13.8509 C   0  0  0  0  0  0  0  0  0  0  0  0
   22.9658   -5.5020  -13.5111 O   0  0  0  0  0  0  0  0  0  0  0  0
   20.9729   -4.4940  -13.1673 O   0  0  0  0  0  0  0  0  0  0  0  0
  2  1  1  1
  2 13  1  0
  2  3  1  0
  3  4  1  0
  4  5  2  0
  5  6  1  0
  7  6  1  0
  8  7  2  0
  9  8  1  0
 10 11  1  0
 10  9  2  0
 11 12  2  0
 12  4  1  0
 12  7  1  0
 13 14  2  0
 15 13  1  0
 15 16  1  0
 16 17  1  6
 18 17  1  0
 19 18  2  0
 20 21  1  0
 20 19  1  0
 21 22  2  0
 22 18  1  0
 23 24  2  0
 23 16  1  0
 26 25  1  1
 26 27  1  0
 27 23  1  0
 28 29  1  0
 28 26  1  0
 30 28  2  0
M  END
$$$$
