WHA.pdb
     RDKit          3D

 30 32  0  0  1  0  0  0  0  0999 V2000
   18.3637  -25.8699  -13.9613 N   0  0  0  0  0  0  0  0  0  0  0  0
   18.7908  -26.4629  -12.7098 C   0  0  1  0  0  0  0  0  0  0  0  0
   20.1928  -26.0819  -12.3350 C   0  0  0  0  0  0  0  0  0  0  0  0
   21.1069  -26.6149  -13.3692 C   0  0  0  0  0  0  0  0  0  0  0  0
   21.5851  -26.0042  -14.5110 C   0  0  0  0  0  0  0  0  0  0  0  0
   22.3780  -26.8555  -15.1451 N   0  0  0  0  0  0  0  0  0  0  0  0
   22.4424  -28.0150  -14.4596 C   0  0  0  0  0  0  0  0  0  0  0  0
   23.1346  -29.1741  -14.7322 C   0  0  0  0  0  0  0  0  0  0  0  0
   23.0289  -30.2332  -13.8552 C   0  0  0  0  0  0  0  0  0  0  0  0
   22.2435  -30.1551  -12.7104 C   0  0  0  0  0  0  0  0  0  0  0  0
   21.5677  -28.9704  -12.4801 C   0  0  0  0  0  0  0  0  0  0  0  0
   21.6461  -27.8897  -13.3298 C   0  0  0  0  0  0  0  0  0  0  0  0
   17.7975  -26.1983  -11.6511 C   0  0  0  0  0  0  0  0  0  0  0  0
   17.1205  -25.1441  -11.6177 O   0  0  0  0  0  0  0  0  0  0  0  0
   17.5897  -27.1575  -10.6303 N   0  0  0  0  0  0  0  0  0  0  0  0
   16.5694  -26.9942   -9.6131 C   0  0  1  0  0  0  0  0  0  0  0  0
   16.0362  -28.3520   -9.2356 C   0  0  0  0  0  0  0  0  0  0  0  0
   15.0064  -28.8321  -10.1605 C   0  0  0  0  0  0  0  0  0  0  0  0
   14.4987  -28.0914  -11.2096 C   0  0  0  0  0  0  0  0  0  0  0  0
   13.5868  -28.8491  -11.8264 N   0  0  0  0  0  0  0  0  0  0  0  0
   13.4916  -30.0414  -11.2151 C   0  0  0  0  0  0  0  0  0  0  0  0
   14.3709  -30.0094  -10.1963 N   0  0  0  0  0  0  0  0  0  0  0  0
   17.1811  -26.3394   -8.4441 C   0  0  0  0  0  0  0  0  0  0  0  0
   16.4759  -26.0851   -7.4346 O   0  0  0  0  0  0  0  0  0  0  0  0
   18.7820  -23.8779   -7.4065 C   0  0  0  0  0  0  0  0  0  0  0  0
   19.2136  -25.3489   -7.3974 C   0  0  2  0  0  0  0  0  0  0  0  0
   18.5743  -26.0088   -8.4927 N   0  0  0  0  0  0  0  0  0  0  0  0
   18.8370  -25.9041   -6.0941 C   0  0  0  0  0  0  0  0  0  0  0  0
   19.3166  -25.3859   -4.8938 O   0  0  0  0  0  0  0  0  0  0  0  0
   18.0553  -26.8827   -6.0227 O   0  0  0  0  0  0  0  0  0  0  0  0
  2  1  1  6
  2 13  1  0
  2  3  1  0
  3  4  1  0
  4  5  2  0
  5  6  1  0
  7  6  1  0
  8  7  2  0
  9  8  1  0
 10 11  1  0
 10  9  2  0
 11 12  2  0
 12  4  1  0
 12  7  1  0
 13 14  2  0
 15 13  1  0
 15 16  1  0
 16 17  1  1
 18 17  1  0
 19 18  2  0
 20 21  1  0
 20 19  1  0
 21 22  2  0
 22 18  1  0
 23 24  2  0
 23 16  1  0
 26 25  1  1
 26 27  1  0
 27 23  1  0
 28 29  1  0
 28 26  1  0
 30 28  2  0
M  END
$$$$
