WHA.pdb
     RDKit          3D

 30 32  0  0  1  0  0  0  0  0999 V2000
   28.1600  -20.5004   -9.6907 N   0  0  0  0  0  0  0  0  0  0  0  0
   26.8179  -21.0470   -9.6941 C   0  0  1  0  0  0  0  0  0  0  0  0
   26.0759  -20.7733   -8.4189 C   0  0  0  0  0  0  0  0  0  0  0  0
   26.9468  -19.9557   -7.5458 C   0  0  0  0  0  0  0  0  0  0  0  0
   27.0981  -18.5844   -7.5005 C   0  0  0  0  0  0  0  0  0  0  0  0
   27.9863  -18.2881   -6.5631 N   0  0  0  0  0  0  0  0  0  0  0  0
   28.4311  -19.4212   -5.9825 C   0  0  0  0  0  0  0  0  0  0  0  0
   29.3488  -19.6037   -4.9718 C   0  0  0  0  0  0  0  0  0  0  0  0
   29.6312  -20.8875   -4.5544 C   0  0  0  0  0  0  0  0  0  0  0  0
   29.0130  -21.9926   -5.1290 C   0  0  0  0  0  0  0  0  0  0  0  0
   28.0989  -21.7581   -6.1403 C   0  0  0  0  0  0  0  0  0  0  0  0
   27.7884  -20.4928   -6.5865 C   0  0  0  0  0  0  0  0  0  0  0  0
   26.0942  -20.6231  -10.9081 C   0  0  0  0  0  0  0  0  0  0  0  0
   26.2436  -19.4857  -11.4128 O   0  0  0  0  0  0  0  0  0  0  0  0
   25.1962  -21.5195  -11.5370 N   0  0  0  0  0  0  0  0  0  0  0  0
   24.5423  -21.2042  -12.7922 C   0  0  1  0  0  0  0  0  0  0  0  0
   24.8037  -22.3193  -13.7712 C   0  0  0  0  0  0  0  0  0  0  0  0
   26.0643  -22.1494  -14.4981 C   0  0  0  0  0  0  0  0  0  0  0  0
   26.2807  -21.1847  -15.4621 C   0  0  0  0  0  0  0  0  0  0  0  0
   27.5346  -21.3344  -15.8998 N   0  0  0  0  0  0  0  0  0  0  0  0
   28.1268  -22.3536  -15.2556 C   0  0  0  0  0  0  0  0  0  0  0  0
   27.2072  -22.8391  -14.4007 N   0  0  0  0  0  0  0  0  0  0  0  0
   23.0973  -21.0695  -12.5407 C   0  0  0  0  0  0  0  0  0  0  0  0
   22.5275  -21.8639  -11.7499 O   0  0  0  0  0  0  0  0  0  0  0  0
   20.5106  -18.6604  -13.8505 C   0  0  0  0  0  0  0  0  0  0  0  0
   20.9681  -19.8712  -13.0290 C   0  0  2  0  0  0  0  0  0  0  0  0
   22.3774  -20.0278  -13.2110 N   0  0  0  0  0  0  0  0  0  0  0  0
   20.1975  -21.0281  -13.4940 C   0  0  0  0  0  0  0  0  0  0  0  0
   18.9431  -21.3466  -12.9798 O   0  0  0  0  0  0  0  0  0  0  0  0
   20.6568  -21.7794  -14.3876 O   0  0  0  0  0  0  0  0  0  0  0  0
  2  1  1  1
  2 13  1  0
  2  3  1  0
  3  4  1  0
  4  5  2  0
  5  6  1  0
  7  6  1  0
  8  7  2  0
  9  8  1  0
 10 11  1  0
 10  9  2  0
 11 12  2  0
 12  4  1  0
 12  7  1  0
 13 14  2  0
 15 13  1  0
 15 16  1  0
 16 17  1  6
 18 17  1  0
 19 18  2  0
 20 21  1  0
 20 19  1  0
 21 22  2  0
 22 18  1  0
 23 24  2  0
 23 16  1  0
 26 25  1  6
 26 27  1  0
 27 23  1  0
 28 29  1  0
 28 26  1  0
 30 28  2  0
M  END
$$$$
