WHA.pdb
     RDKit          3D

 30 32  0  0  1  0  0  0  0  0999 V2000
   21.8719  -15.8050  -15.4111 N   0  0  0  0  0  0  0  0  0  0  0  0
   21.1959  -16.2893  -16.5978 C   0  0  1  0  0  0  0  0  0  0  0  0
   21.4490  -17.7454  -16.8573 C   0  0  0  0  0  0  0  0  0  0  0  0
   22.9124  -17.9543  -16.9202 C   0  0  0  0  0  0  0  0  0  0  0  0
   23.7509  -18.5453  -15.9966 C   0  0  0  0  0  0  0  0  0  0  0  0
   24.9882  -18.5159  -16.4697 N   0  0  0  0  0  0  0  0  0  0  0  0
   24.9987  -17.9232  -17.6810 C   0  0  0  0  0  0  0  0  0  0  0  0
   26.0447  -17.6724  -18.5412 C   0  0  0  0  0  0  0  0  0  0  0  0
   25.7832  -17.0413  -19.7393 C   0  0  0  0  0  0  0  0  0  0  0  0
   24.4949  -16.6562  -20.0935 C   0  0  0  0  0  0  0  0  0  0  0  0
   23.4781  -16.9297  -19.1965 C   0  0  0  0  0  0  0  0  0  0  0  0
   23.6962  -17.5576  -17.9905 C   0  0  0  0  0  0  0  0  0  0  0  0
   19.7650  -15.9309  -16.5558 C   0  0  0  0  0  0  0  0  0  0  0  0
   19.0751  -16.0539  -15.5168 O   0  0  0  0  0  0  0  0  0  0  0  0
   19.1342  -15.4296  -17.7203 N   0  0  0  0  0  0  0  0  0  0  0  0
   17.7230  -15.0979  -17.7524 C   0  0  1  0  0  0  0  0  0  0  0  0
   17.5077  -13.9797  -18.7390 C   0  0  0  0  0  0  0  0  0  0  0  0
   17.8546  -12.6665  -18.1896 C   0  0  0  0  0  0  0  0  0  0  0  0
   18.0973  -12.4240  -16.8520 C   0  0  0  0  0  0  0  0  0  0  0  0
   18.3798  -11.1235  -16.7287 N   0  0  0  0  0  0  0  0  0  0  0  0
   18.3274  -10.5267  -17.9310 C   0  0  0  0  0  0  0  0  0  0  0  0
   18.0037  -11.4913  -18.8125 N   0  0  0  0  0  0  0  0  0  0  0  0
   16.9744  -16.2976  -18.1643 C   0  0  0  0  0  0  0  0  0  0  0  0
   17.4631  -17.0685  -19.0291 O   0  0  0  0  0  0  0  0  0  0  0  0
   13.7141  -17.7721  -16.9838 C   0  0  0  0  0  0  0  0  0  0  0  0
   14.9564  -17.7313  -17.8812 C   0  0  2  0  0  0  0  0  0  0  0  0
   15.6999  -16.5528  -17.5616 N   0  0  0  0  0  0  0  0  0  0  0  0
   14.4898  -17.7561  -19.2705 C   0  0  0  0  0  0  0  0  0  0  0  0
   14.2187  -16.5944  -19.9892 O   0  0  0  0  0  0  0  0  0  0  0  0
   14.3180  -18.8484  -19.8633 O   0  0  0  0  0  0  0  0  0  0  0  0
  2  1  1  1
  2 13  1  0
  2  3  1  0
  3  4  1  0
  4  5  2  0
  5  6  1  0
  7  6  1  0
  8  7  2  0
  9  8  1  0
 10 11  1  0
 10  9  2  0
 11 12  2  0
 12  4  1  0
 12  7  1  0
 13 14  2  0
 15 13  1  0
 15 16  1  0
 16 17  1  6
 18 17  1  0
 19 18  2  0
 20 21  1  0
 20 19  1  0
 21 22  2  0
 22 18  1  0
 23 24  2  0
 23 16  1  0
 26 25  1  1
 26 27  1  0
 27 23  1  0
 28 29  1  0
 28 26  1  0
 30 28  2  0
M  END
$$$$
