WHA.pdb
     RDKit          3D

 30 32  0  0  1  0  0  0  0  0999 V2000
   27.3395  -21.6523  -13.8569 N   0  0  0  0  0  0  0  0  0  0  0  0
   26.3592  -21.0535  -12.9734 C   0  0  1  0  0  0  0  0  0  0  0  0
   26.9157  -19.9087  -12.1789 C   0  0  0  0  0  0  0  0  0  0  0  0
   27.9211  -20.4477  -11.2367 C   0  0  0  0  0  0  0  0  0  0  0  0
   29.2361  -20.7978  -11.4686 C   0  0  0  0  0  0  0  0  0  0  0  0
   29.7630  -21.2354  -10.3344 N   0  0  0  0  0  0  0  0  0  0  0  0
   28.8382  -21.1871   -9.3540 C   0  0  0  0  0  0  0  0  0  0  0  0
   28.9294  -21.5373   -8.0250 C   0  0  0  0  0  0  0  0  0  0  0  0
   27.8187  -21.3889   -7.2210 C   0  0  0  0  0  0  0  0  0  0  0  0
   26.6182  -20.8969   -7.7211 C   0  0  0  0  0  0  0  0  0  0  0  0
   26.5763  -20.5591   -9.0618 C   0  0  0  0  0  0  0  0  0  0  0  0
   27.6618  -20.6917   -9.8987 C   0  0  0  0  0  0  0  0  0  0  0  0
   25.1310  -20.7199  -13.7203 C   0  0  0  0  0  0  0  0  0  0  0  0
   25.0950  -19.8010  -14.5717 O   0  0  0  0  0  0  0  0  0  0  0  0
   23.9438  -21.4531  -13.4790 N   0  0  0  0  0  0  0  0  0  0  0  0
   22.7141  -21.1916  -14.2015 C   0  0  1  0  0  0  0  0  0  0  0  0
   22.2925  -22.4490  -14.9166 C   0  0  0  0  0  0  0  0  0  0  0  0
   22.9576  -22.6129  -16.2117 C   0  0  0  0  0  0  0  0  0  0  0  0
   23.7387  -21.6448  -16.8114 C   0  0  0  0  0  0  0  0  0  0  0  0
   24.1731  -22.1468  -17.9713 N   0  0  0  0  0  0  0  0  0  0  0  0
   23.7021  -23.3939  -18.1366 C   0  0  0  0  0  0  0  0  0  0  0  0
   22.9592  -23.6596  -17.0458 N   0  0  0  0  0  0  0  0  0  0  0  0
   21.6844  -20.7828  -13.2309 C   0  0  0  0  0  0  0  0  0  0  0  0
   21.6071  -21.3709  -12.1222 O   0  0  0  0  0  0  0  0  0  0  0  0
   19.1305  -18.0158  -13.2608 C   0  0  0  0  0  0  0  0  0  0  0  0
   19.7791  -19.2761  -12.6766 C   0  0  2  0  0  0  0  0  0  0  0  0
   20.7935  -19.7173  -13.5823 N   0  0  0  0  0  0  0  0  0  0  0  0
   18.7132  -20.2637  -12.4837 C   0  0  0  0  0  0  0  0  0  0  0  0
   17.8624  -20.2400  -11.3815 O   0  0  0  0  0  0  0  0  0  0  0  0
   18.5342  -21.1773  -13.3247 O   0  0  0  0  0  0  0  0  0  0  0  0
  2  1  1  6
  2 13  1  0
  2  3  1  0
  3  4  1  0
  4  5  2  0
  5  6  1  0
  7  6  1  0
  8  7  2  0
  9  8  1  0
 10 11  1  0
 10  9  2  0
 11 12  2  0
 12  4  1  0
 12  7  1  0
 13 14  2  0
 15 13  1  0
 15 16  1  0
 16 17  1  1
 18 17  1  0
 19 18  2  0
 20 21  1  0
 20 19  1  0
 21 22  2  0
 22 18  1  0
 23 24  2  0
 23 16  1  0
 26 25  1  6
 26 27  1  0
 27 23  1  0
 28 29  1  0
 28 26  1  0
 30 28  2  0
M  END
$$$$
