IGN.pdb
     RDKit          3D

 21 20  0  0  1  0  0  0  0  0999 V2000
    6.5756  -11.7438   27.6245 C   0  0  0  0  0  0  0  0  0  0  0  0
    6.2947  -13.0419   26.9493 C   0  0  0  0  0  0  0  0  0  0  0  0
    7.3375  -13.4584   25.9328 C   0  0  2  0  0  0  0  0  0  0  0  0
    7.3015  -12.3612   24.8599 C   0  0  0  0  0  0  0  0  0  0  0  0
    7.0663  -14.8207   25.3746 C   0  0  2  0  0  0  0  0  0  0  0  0
    7.0436  -15.7901   26.4823 N   0  0  0  0  0  0  0  0  0  0  0  0
    8.0774  -15.2851   24.4111 C   0  0  0  0  0  0  0  0  0  0  0  0
    9.2684  -15.5470   24.8116 O   0  0  0  0  0  0  0  0  0  0  0  0
    7.8841  -15.4899   23.0285 N   0  0  0  0  0  0  0  0  0  0  0  0
    8.9536  -15.6121   22.0734 C   0  0  0  0  0  0  0  0  0  0  0  0
   10.0945  -16.3849   22.5621 C   0  0  0  0  0  0  0  0  0  0  0  0
    9.9962  -17.6311   22.6528 O   0  0  0  0  0  0  0  0  0  0  0  0
   12.8571  -19.8552   24.9548 N   0  0  0  0  0  0  0  0  0  0  0  0
   12.9332  -18.4270   25.0397 C   0  0  0  0  0  0  0  0  0  0  0  0
   13.9324  -17.9612   25.6909 O   0  0  0  0  0  0  0  0  0  0  0  0
   11.9177  -17.5587   24.4105 C   0  0  0  0  0  0  0  0  0  0  0  0
   12.4624  -16.5825   23.4046 C   0  0  2  0  0  0  0  0  0  0  0  0
   11.3158  -15.7855   22.9411 N   0  0  0  0  0  0  0  0  0  0  0  0
   13.1061  -17.2819   22.2922 C   0  0  0  0  0  0  0  0  0  0  0  0
   12.6695  -18.5051   21.8223 O   0  0  0  0  0  0  0  0  0  0  0  0
   14.1014  -16.7520   21.7375 O   0  0  0  0  0  0  0  0  0  0  0  0
  1  2  1  0
  2  3  1  0
  3  4  1  6
  5  7  1  0
  5  3  1  0
  5  6  1  1
  7  8  2  0
  7  9  1  0
  9 10  1  0
 10 11  1  0
 11 12  2  0
 13 14  1  0
 14 15  2  0
 16 14  1  0
 17 16  1  1
 17 19  1  0
 18 11  1  0
 18 17  1  0
 19 21  2  0
 19 20  1  0
M  END
$$$$
