IGN.pdb
     RDKit          3D

 21 20  0  0  1  0  0  0  0  0999 V2000
    5.7521  -11.2638   26.9995 C   0  0  0  0  0  0  0  0  0  0  0  0
    5.6578  -12.5817   26.3109 C   0  0  0  0  0  0  0  0  0  0  0  0
    6.9463  -13.0440   25.6627 C   0  0  2  0  0  0  0  0  0  0  0  0
    7.2770  -11.9600   24.6274 C   0  0  0  0  0  0  0  0  0  0  0  0
    6.8121  -14.4040   25.0516 C   0  0  2  0  0  0  0  0  0  0  0  0
    6.3973  -15.3538   26.0972 N   0  0  0  0  0  0  0  0  0  0  0  0
    8.0581  -14.9218   24.4636 C   0  0  0  0  0  0  0  0  0  0  0  0
    9.1155  -15.0125   25.1855 O   0  0  0  0  0  0  0  0  0  0  0  0
    8.2387  -15.3551   23.1330 N   0  0  0  0  0  0  0  0  0  0  0  0
    9.5082  -15.3738   22.4555 C   0  0  0  0  0  0  0  0  0  0  0  0
   10.5448  -16.1202   23.1670 C   0  0  0  0  0  0  0  0  0  0  0  0
   11.7371  -16.0186   22.7946 O   0  0  0  0  0  0  0  0  0  0  0  0
   11.6998  -15.7371   26.8050 N   0  0  0  0  0  0  0  0  0  0  0  0
   11.0461  -16.9425   27.2201 C   0  0  0  0  0  0  0  0  0  0  0  0
   10.6566  -16.9722   28.4394 O   0  0  0  0  0  0  0  0  0  0  0  0
   10.8400  -18.0713   26.2903 C   0  0  0  0  0  0  0  0  0  0  0  0
   11.2916  -17.8131   24.8794 C   0  0  2  0  0  0  0  0  0  0  0  0
   10.2614  -16.9598   24.2666 N   0  0  0  0  0  0  0  0  0  0  0  0
   11.4483  -19.0673   24.1423 C   0  0  0  0  0  0  0  0  0  0  0  0
   12.4340  -19.2621   23.1947 O   0  0  0  0  0  0  0  0  0  0  0  0
   10.6526  -20.0114   24.3763 O   0  0  0  0  0  0  0  0  0  0  0  0
  1  2  1  0
  2  3  1  0
  3  4  1  6
  5  7  1  0
  5  3  1  0
  5  6  1  1
  7  8  2  0
  7  9  1  0
  9 10  1  0
 10 11  1  0
 11 12  2  0
 13 14  1  0
 14 15  2  0
 16 14  1  0
 17 16  1  1
 17 19  1  0
 18 11  1  0
 18 17  1  0
 19 21  2  0
 19 20  1  0
M  END
$$$$
