IGN.pdb
     RDKit          3D

 21 20  0  0  1  0  0  0  0  0999 V2000
    6.1723  -11.7118   26.7867 C   0  0  0  0  0  0  0  0  0  0  0  0
    6.2480  -12.9125   25.9076 C   0  0  0  0  0  0  0  0  0  0  0  0
    7.5051  -12.9957   25.0669 C   0  0  2  0  0  0  0  0  0  0  0  0
    7.3743  -11.8540   24.0492 C   0  0  0  0  0  0  0  0  0  0  0  0
    7.6585  -14.3348   24.4155 C   0  0  2  0  0  0  0  0  0  0  0  0
    6.4511  -14.6158   23.6214 N   0  0  0  0  0  0  0  0  0  0  0  0
    7.8228  -15.4473   25.3651 C   0  0  0  0  0  0  0  0  0  0  0  0
    8.8583  -15.4930   26.1222 O   0  0  0  0  0  0  0  0  0  0  0  0
    6.9314  -16.5245   25.5546 N   0  0  0  0  0  0  0  0  0  0  0  0
    7.1041  -17.5496   26.5497 C   0  0  0  0  0  0  0  0  0  0  0  0
    8.2751  -18.3962   26.3263 C   0  0  0  0  0  0  0  0  0  0  0  0
    8.1181  -19.6299   26.1709 O   0  0  0  0  0  0  0  0  0  0  0  0
   13.1838  -20.0455   25.2766 N   0  0  0  0  0  0  0  0  0  0  0  0
   12.9891  -18.6668   24.9389 C   0  0  0  0  0  0  0  0  0  0  0  0
   13.9074  -18.1348   24.2226 O   0  0  0  0  0  0  0  0  0  0  0  0
   11.7996  -17.9188   25.3936 C   0  0  0  0  0  0  0  0  0  0  0  0
   10.7590  -18.7548   26.0862 C   0  0  2  0  0  0  0  0  0  0  0  0
    9.5897  -17.8824   26.2770 N   0  0  0  0  0  0  0  0  0  0  0  0
   11.2591  -19.2584   27.3657 C   0  0  0  0  0  0  0  0  0  0  0  0
   12.0469  -20.3880   27.4708 O   0  0  0  0  0  0  0  0  0  0  0  0
   10.9603  -18.6410   28.4187 O   0  0  0  0  0  0  0  0  0  0  0  0
  1  2  1  0
  2  3  1  0
  3  4  1  6
  5  7  1  0
  5  3  1  0
  5  6  1  1
  7  8  2  0
  7  9  1  0
  9 10  1  0
 10 11  1  0
 11 12  2  0
 13 14  1  0
 14 15  2  0
 16 14  1  0
 17 16  1  1
 17 19  1  0
 18 11  1  0
 18 17  1  0
 19 21  2  0
 19 20  1  0
M  END
$$$$
