IGN.pdb
     RDKit          3D

 21 20  0  0  1  0  0  0  0  0999 V2000
    8.1785  -12.4025   19.8669 C   0  0  0  0  0  0  0  0  0  0  0  0
    6.9954  -13.0833   20.4642 C   0  0  0  0  0  0  0  0  0  0  0  0
    7.3262  -14.3200   21.2737 C   0  0  2  0  0  0  0  0  0  0  0  0
    8.1601  -13.8055   22.4553 C   0  0  0  0  0  0  0  0  0  0  0  0
    8.0499  -15.3476   20.4605 C   0  0  2  0  0  0  0  0  0  0  0  0
    7.2674  -15.6263   19.2451 N   0  0  0  0  0  0  0  0  0  0  0  0
    8.2465  -16.6305   21.1546 C   0  0  0  0  0  0  0  0  0  0  0  0
    7.2433  -17.2297   21.6857 O   0  0  0  0  0  0  0  0  0  0  0  0
    9.4686  -17.3179   21.3127 N   0  0  0  0  0  0  0  0  0  0  0  0
    9.6362  -18.4882   22.1331 C   0  0  0  0  0  0  0  0  0  0  0  0
   10.7185  -18.3733   23.1095 C   0  0  0  0  0  0  0  0  0  0  0  0
   11.0323  -19.3736   23.7963 O   0  0  0  0  0  0  0  0  0  0  0  0
   14.1024  -17.2865   21.9112 N   0  0  0  0  0  0  0  0  0  0  0  0
   14.1355  -16.0617   22.6538 C   0  0  0  0  0  0  0  0  0  0  0  0
   14.8829  -15.1400   22.1729 O   0  0  0  0  0  0  0  0  0  0  0  0
   13.3517  -15.8861   23.8931 C   0  0  0  0  0  0  0  0  0  0  0  0
   12.5321  -17.0820   24.2924 C   0  0  2  0  0  0  0  0  0  0  0  0
   11.4346  -17.1738   23.3168 N   0  0  0  0  0  0  0  0  0  0  0  0
   12.0192  -16.9336   25.6547 C   0  0  0  0  0  0  0  0  0  0  0  0
   12.8068  -17.1085   26.7757 O   0  0  0  0  0  0  0  0  0  0  0  0
   10.8093  -16.6358   25.8179 O   0  0  0  0  0  0  0  0  0  0  0  0
  1  2  1  0
  2  3  1  0
  3  4  1  1
  5  7  1  0
  5  3  1  0
  5  6  1  6
  7  8  2  0
  7  9  1  0
  9 10  1  0
 10 11  1  0
 11 12  2  0
 13 14  1  0
 14 15  2  0
 16 14  1  0
 17 16  1  6
 17 19  1  0
 18 11  1  0
 18 17  1  0
 19 21  2  0
 19 20  1  0
M  END
$$$$
