IGN.pdb
     RDKit          3D

 21 20  0  0  1  0  0  0  0  0999 V2000
    7.1624  -11.6333   27.9023 C   0  0  0  0  0  0  0  0  0  0  0  0
    6.8961  -13.0098   27.3983 C   0  0  0  0  0  0  0  0  0  0  0  0
    7.4057  -13.2737   25.9965 C   0  0  2  0  0  0  0  0  0  0  0  0
    6.6536  -12.2720   25.1093 C   0  0  0  0  0  0  0  0  0  0  0  0
    7.1872  -14.6940   25.5767 C   0  0  2  0  0  0  0  0  0  0  0  0
    7.9457  -15.5761   26.4789 N   0  0  0  0  0  0  0  0  0  0  0  0
    7.6327  -14.9882   24.2052 C   0  0  0  0  0  0  0  0  0  0  0  0
    6.7688  -15.2797   23.3017 O   0  0  0  0  0  0  0  0  0  0  0  0
    8.9646  -14.9859   23.7392 N   0  0  0  0  0  0  0  0  0  0  0  0
    9.3484  -15.3091   22.3905 C   0  0  0  0  0  0  0  0  0  0  0  0
   10.4041  -16.3171   22.3038 C   0  0  0  0  0  0  0  0  0  0  0  0
   10.6925  -16.8072   21.1869 O   0  0  0  0  0  0  0  0  0  0  0  0
   13.8619  -14.8729   23.7907 N   0  0  0  0  0  0  0  0  0  0  0  0
   13.8580  -16.1512   23.1435 C   0  0  0  0  0  0  0  0  0  0  0  0
   14.2851  -16.1645   21.9366 O   0  0  0  0  0  0  0  0  0  0  0  0
   13.3897  -17.3684   23.8364 C   0  0  0  0  0  0  0  0  0  0  0  0
   12.0658  -17.8949   23.3550 C   0  0  2  0  0  0  0  0  0  0  0  0
   11.1217  -16.7691   23.4330 N   0  0  0  0  0  0  0  0  0  0  0  0
   11.6193  -19.0192   24.1780 C   0  0  0  0  0  0  0  0  0  0  0  0
   10.4681  -18.9800   24.9401 O   0  0  0  0  0  0  0  0  0  0  0  0
   12.3108  -20.0684   24.1977 O   0  0  0  0  0  0  0  0  0  0  0  0
  1  2  1  0
  2  3  1  0
  3  4  1  6
  5  7  1  0
  5  3  1  0
  5  6  1  1
  7  8  2  0
  7  9  1  0
  9 10  1  0
 10 11  1  0
 11 12  2  0
 13 14  1  0
 14 15  2  0
 16 14  1  0
 17 16  1  1
 17 19  1  0
 18 11  1  0
 18 17  1  0
 19 21  2  0
 19 20  1  0
M  END
$$$$
