IGN.pdb
     RDKit          3D

 21 20  0  0  1  0  0  0  0  0999 V2000
    7.1301  -12.8868   27.1881 C   0  0  0  0  0  0  0  0  0  0  0  0
    7.1966  -13.9666   26.1637 C   0  0  0  0  0  0  0  0  0  0  0  0
    7.4796  -13.4802   24.7575 C   0  0  2  0  0  0  0  0  0  0  0  0
    6.2736  -12.6027   24.3944 C   0  0  0  0  0  0  0  0  0  0  0  0
    7.6780  -14.6135   23.7996 C   0  0  2  0  0  0  0  0  0  0  0  0
    6.5832  -15.5813   23.9782 N   0  0  0  0  0  0  0  0  0  0  0  0
    8.9406  -15.3452   23.9912 C   0  0  0  0  0  0  0  0  0  0  0  0
   10.0607  -14.7387   23.8328 O   0  0  0  0  0  0  0  0  0  0  0  0
    9.0747  -16.7036   24.3490 N   0  0  0  0  0  0  0  0  0  0  0  0
   10.3330  -17.3976   24.4257 C   0  0  0  0  0  0  0  0  0  0  0  0
   11.0277  -17.2188   25.6998 C   0  0  0  0  0  0  0  0  0  0  0  0
   12.2736  -17.3480   25.7413 O   0  0  0  0  0  0  0  0  0  0  0  0
    9.3098  -13.6906   28.8991 N   0  0  0  0  0  0  0  0  0  0  0  0
   10.3782  -14.6123   28.6511 C   0  0  0  0  0  0  0  0  0  0  0  0
   11.3836  -14.1398   28.0144 O   0  0  0  0  0  0  0  0  0  0  0  0
   10.3121  -16.0154   29.1072 C   0  0  0  0  0  0  0  0  0  0  0  0
   11.0109  -17.0006   28.2114 C   0  0  2  0  0  0  0  0  0  0  0  0
   10.3521  -16.9038   26.8994 N   0  0  0  0  0  0  0  0  0  0  0  0
   10.9182  -18.3569   28.7523 C   0  0  0  0  0  0  0  0  0  0  0  0
   10.0131  -19.2900   28.2859 O   0  0  0  0  0  0  0  0  0  0  0  0
   11.6924  -18.6923   29.6837 O   0  0  0  0  0  0  0  0  0  0  0  0
  1  2  1  0
  2  3  1  0
  3  4  1  6
  5  7  1  0
  5  3  1  0
  5  6  1  1
  7  8  2  0
  7  9  1  0
  9 10  1  0
 10 11  1  0
 11 12  2  0
 13 14  1  0
 14 15  2  0
 16 14  1  0
 17 16  1  1
 17 19  1  0
 18 11  1  0
 18 17  1  0
 19 21  2  0
 19 20  1  0
M  END
$$$$
