IGN.pdb
     RDKit          3D

 21 20  0  0  1  0  0  0  0  0999 V2000
    8.8813  -11.5642   19.9284 C   0  0  0  0  0  0  0  0  0  0  0  0
    8.8854  -13.0541   19.9189 C   0  0  0  0  0  0  0  0  0  0  0  0
    8.2974  -13.6747   18.6686 C   0  0  2  0  0  0  0  0  0  0  0  0
    6.8476  -13.1722   18.6242 C   0  0  0  0  0  0  0  0  0  0  0  0
    8.3901  -15.1687   18.6852 C   0  0  2  0  0  0  0  0  0  0  0  0
    7.7872  -15.6665   19.9326 N   0  0  0  0  0  0  0  0  0  0  0  0
    9.7680  -15.6837   18.6327 C   0  0  0  0  0  0  0  0  0  0  0  0
   10.4994  -15.4472   17.6048 O   0  0  0  0  0  0  0  0  0  0  0  0
   10.4160  -16.4437   19.6295 N   0  0  0  0  0  0  0  0  0  0  0  0
   11.7834  -16.8844   19.5471 C   0  0  0  0  0  0  0  0  0  0  0  0
   12.6910  -16.1579   20.4337 C   0  0  0  0  0  0  0  0  0  0  0  0
   12.8427  -14.9237   20.2768 O   0  0  0  0  0  0  0  0  0  0  0  0
   11.7446  -15.3848   24.7433 N   0  0  0  0  0  0  0  0  0  0  0  0
   12.3723  -16.4664   24.0441 C   0  0  0  0  0  0  0  0  0  0  0  0
   11.5920  -17.4037   23.6543 O   0  0  0  0  0  0  0  0  0  0  0  0
   13.8278  -16.4860   23.7944 C   0  0  0  0  0  0  0  0  0  0  0  0
   14.2356  -16.0264   22.4219 C   0  0  2  0  0  0  0  0  0  0  0  0
   13.4128  -16.7895   21.4703 N   0  0  0  0  0  0  0  0  0  0  0  0
   15.6622  -16.2590   22.1946 C   0  0  0  0  0  0  0  0  0  0  0  0
   16.6503  -15.5066   22.7987 O   0  0  0  0  0  0  0  0  0  0  0  0
   16.0093  -17.1815   21.4149 O   0  0  0  0  0  0  0  0  0  0  0  0
  1  2  1  0
  2  3  1  0
  3  4  1  1
  5  7  1  0
  5  3  1  0
  5  6  1  1
  7  8  2  0
  7  9  1  0
  9 10  1  0
 10 11  1  0
 11 12  2  0
 13 14  1  0
 14 15  2  0
 16 14  1  0
 17 16  1  1
 17 19  1  0
 18 11  1  0
 18 17  1  0
 19 21  2  0
 19 20  1  0
M  END
$$$$
