IGN.pdb
     RDKit          3D

 21 20  0  0  1  0  0  0  0  0999 V2000
    7.7936  -11.8190   20.6155 C   0  0  0  0  0  0  0  0  0  0  0  0
    8.1345  -12.9495   21.5242 C   0  0  0  0  0  0  0  0  0  0  0  0
    8.2899  -14.2867   20.8302 C   0  0  2  0  0  0  0  0  0  0  0  0
    6.9076  -14.5825   20.2316 C   0  0  0  0  0  0  0  0  0  0  0  0
    8.7534  -15.3570   21.7687 C   0  0  2  0  0  0  0  0  0  0  0  0
    9.9406  -14.8712   22.4911 N   0  0  0  0  0  0  0  0  0  0  0  0
    9.1335  -16.6135   21.1031 C   0  0  0  0  0  0  0  0  0  0  0  0
    8.2340  -17.4849   20.8220 O   0  0  0  0  0  0  0  0  0  0  0  0
   10.4355  -16.9941   20.7144 N   0  0  0  0  0  0  0  0  0  0  0  0
   10.7512  -18.2341   20.0561 C   0  0  0  0  0  0  0  0  0  0  0  0
   11.7943  -19.0085   20.7270 C   0  0  0  0  0  0  0  0  0  0  0  0
   12.0901  -20.1452   20.2896 O   0  0  0  0  0  0  0  0  0  0  0  0
   12.8844  -18.5472   26.4429 N   0  0  0  0  0  0  0  0  0  0  0  0
   11.8615  -18.9415   25.5205 C   0  0  0  0  0  0  0  0  0  0  0  0
   10.9933  -19.7670   25.9725 O   0  0  0  0  0  0  0  0  0  0  0  0
   11.8218  -18.4206   24.1391 C   0  0  0  0  0  0  0  0  0  0  0  0
   12.5267  -19.2777   23.1243 C   0  0  2  0  0  0  0  0  0  0  0  0
   12.4918  -18.5296   21.8578 N   0  0  0  0  0  0  0  0  0  0  0  0
   11.8690  -20.5778   22.9903 C   0  0  0  0  0  0  0  0  0  0  0  0
   12.5080  -21.7725   23.2586 O   0  0  0  0  0  0  0  0  0  0  0  0
   10.6709  -20.6152   22.6130 O   0  0  0  0  0  0  0  0  0  0  0  0
  1  2  1  0
  2  3  1  0
  3  4  1  1
  5  7  1  0
  5  3  1  0
  5  6  1  6
  7  8  2  0
  7  9  1  0
  9 10  1  0
 10 11  1  0
 11 12  2  0
 13 14  1  0
 14 15  2  0
 16 14  1  0
 17 16  1  1
 17 19  1  0
 18 11  1  0
 18 17  1  0
 19 21  2  0
 19 20  1  0
M  END
$$$$
