IGN.pdb
     RDKit          3D

 21 20  0  0  1  0  0  0  0  0999 V2000
    7.2767  -11.2288   27.1651 C   0  0  0  0  0  0  0  0  0  0  0  0
    6.3652  -12.3607   26.8367 C   0  0  0  0  0  0  0  0  0  0  0  0
    6.9859  -13.4331   25.9656 C   0  0  2  0  0  0  0  0  0  0  0  0
    7.4865  -12.6878   24.7205 C   0  0  0  0  0  0  0  0  0  0  0  0
    6.0130  -14.5216   25.6345 C   0  0  2  0  0  0  0  0  0  0  0  0
    5.5284  -15.1208   26.8888 N   0  0  0  0  0  0  0  0  0  0  0  0
    6.5849  -15.6100   24.8254 C   0  0  0  0  0  0  0  0  0  0  0  0
    7.0084  -15.3684   23.6380 O   0  0  0  0  0  0  0  0  0  0  0  0
    6.7334  -16.9567   25.2194 N   0  0  0  0  0  0  0  0  0  0  0  0
    7.1479  -18.0150   24.3367 C   0  0  0  0  0  0  0  0  0  0  0  0
    8.5974  -18.1086   24.1692 C   0  0  0  0  0  0  0  0  0  0  0  0
    9.2219  -19.0306   24.7442 O   0  0  0  0  0  0  0  0  0  0  0  0
   13.5301  -17.2216   22.3820 N   0  0  0  0  0  0  0  0  0  0  0  0
   12.6030  -16.2975   21.7994 C   0  0  0  0  0  0  0  0  0  0  0  0
   13.0878  -15.5042   20.9191 O   0  0  0  0  0  0  0  0  0  0  0  0
   11.1809  -16.2729   22.1971 C   0  0  0  0  0  0  0  0  0  0  0  0
   10.7853  -17.3399   23.1802 C   0  0  2  0  0  0  0  0  0  0  0  0
    9.3346  -17.1980   23.3806 N   0  0  0  0  0  0  0  0  0  0  0  0
   11.5122  -17.1856   24.4406 C   0  0  0  0  0  0  0  0  0  0  0  0
   11.5453  -15.9991   25.1467 O   0  0  0  0  0  0  0  0  0  0  0  0
   12.1372  -18.1722   24.9046 O   0  0  0  0  0  0  0  0  0  0  0  0
  1  2  1  0
  2  3  1  0
  3  4  1  6
  5  7  1  0
  5  3  1  0
  5  6  1  1
  7  8  2  0
  7  9  1  0
  9 10  1  0
 10 11  1  0
 11 12  2  0
 13 14  1  0
 14 15  2  0
 16 14  1  0
 17 16  1  6
 17 19  1  0
 18 11  1  0
 18 17  1  0
 19 21  2  0
 19 20  1  0
M  END
$$$$
