IGN.pdb
     RDKit          3D

 21 20  0  0  1  0  0  0  0  0999 V2000
    7.4493  -11.7526   19.5732 C   0  0  0  0  0  0  0  0  0  0  0  0
    7.5188  -13.0857   20.2350 C   0  0  0  0  0  0  0  0  0  0  0  0
    8.5328  -14.0342   19.6297 C   0  0  2  0  0  0  0  0  0  0  0  0
    8.0519  -14.2572   18.1891 C   0  0  0  0  0  0  0  0  0  0  0  0
    8.6429  -15.3098   20.4054 C   0  0  2  0  0  0  0  0  0  0  0  0
    7.3205  -15.9556   20.4444 N   0  0  0  0  0  0  0  0  0  0  0  0
    9.0787  -15.1271   21.7993 C   0  0  0  0  0  0  0  0  0  0  0  0
   10.2572  -14.6830   22.0471 O   0  0  0  0  0  0  0  0  0  0  0  0
    8.3161  -15.3932   22.9564 N   0  0  0  0  0  0  0  0  0  0  0  0
    8.7894  -15.1881   24.2998 C   0  0  0  0  0  0  0  0  0  0  0  0
    9.8586  -16.1042   24.6941 C   0  0  0  0  0  0  0  0  0  0  0  0
   10.2960  -16.0657   25.8679 O   0  0  0  0  0  0  0  0  0  0  0  0
   12.9520  -21.0410   24.1974 N   0  0  0  0  0  0  0  0  0  0  0  0
   11.6727  -20.4284   24.3994 C   0  0  0  0  0  0  0  0  0  0  0  0
   10.9463  -20.9478   25.3170 O   0  0  0  0  0  0  0  0  0  0  0  0
   11.2325  -19.2712   23.5943 C   0  0  0  0  0  0  0  0  0  0  0  0
   11.5273  -17.9305   24.2084 C   0  0  2  0  0  0  0  0  0  0  0  0
   10.4276  -17.0410   23.8034 N   0  0  0  0  0  0  0  0  0  0  0  0
   12.8193  -17.4182   23.7511 C   0  0  0  0  0  0  0  0  0  0  0  0
   13.9731  -17.5138   24.5043 O   0  0  0  0  0  0  0  0  0  0  0  0
   12.8876  -16.8643   22.6252 O   0  0  0  0  0  0  0  0  0  0  0  0
  1  2  1  0
  2  3  1  0
  3  4  1  6
  5  7  1  0
  5  3  1  0
  5  6  1  1
  7  8  2  0
  7  9  1  0
  9 10  1  0
 10 11  1  0
 11 12  2  0
 13 14  1  0
 14 15  2  0
 16 14  1  0
 17 16  1  6
 17 19  1  0
 18 11  1  0
 18 17  1  0
 19 21  2  0
 19 20  1  0
M  END
$$$$
