IGN.pdb
     RDKit          3D

 21 20  0  0  1  0  0  0  0  0999 V2000
    6.8195  -12.3670   27.7660 C   0  0  0  0  0  0  0  0  0  0  0  0
    6.6115  -13.5343   26.8637 C   0  0  0  0  0  0  0  0  0  0  0  0
    6.9479  -13.2712   25.4105 C   0  0  2  0  0  0  0  0  0  0  0  0
    5.9140  -12.2347   24.9487 C   0  0  0  0  0  0  0  0  0  0  0  0
    6.9162  -14.5231   24.5903 C   0  0  2  0  0  0  0  0  0  0  0  0
    6.1052  -15.5298   25.2945 N   0  0  0  0  0  0  0  0  0  0  0  0
    8.2414  -15.1190   24.3560 C   0  0  0  0  0  0  0  0  0  0  0  0
    9.1696  -14.4186   23.8124 O   0  0  0  0  0  0  0  0  0  0  0  0
    8.6355  -16.4356   24.6757 N   0  0  0  0  0  0  0  0  0  0  0  0
    9.9058  -17.0079   24.3157 C   0  0  0  0  0  0  0  0  0  0  0  0
   10.8353  -17.1318   25.4375 C   0  0  0  0  0  0  0  0  0  0  0  0
   11.9629  -17.6438   25.2447 O   0  0  0  0  0  0  0  0  0  0  0  0
   10.0683  -13.6720   29.0689 N   0  0  0  0  0  0  0  0  0  0  0  0
   10.9172  -14.6293   28.4241 C   0  0  0  0  0  0  0  0  0  0  0  0
   11.5217  -14.2175   27.3732 O   0  0  0  0  0  0  0  0  0  0  0  0
   11.0769  -16.0003   28.9494 C   0  0  0  0  0  0  0  0  0  0  0  0
   11.3521  -17.0453   27.9035 C   0  0  2  0  0  0  0  0  0  0  0  0
   10.5178  -16.6964   26.7429 N   0  0  0  0  0  0  0  0  0  0  0  0
   11.0321  -18.3827   28.4034 C   0  0  0  0  0  0  0  0  0  0  0  0
   11.9255  -19.1452   29.1301 O   0  0  0  0  0  0  0  0  0  0  0  0
    9.8969  -18.8646   28.1621 O   0  0  0  0  0  0  0  0  0  0  0  0
  1  2  1  0
  2  3  1  0
  3  4  1  6
  5  7  1  0
  5  3  1  0
  5  6  1  1
  7  8  2  0
  7  9  1  0
  9 10  1  0
 10 11  1  0
 11 12  2  0
 13 14  1  0
 14 15  2  0
 16 14  1  0
 17 16  1  1
 17 19  1  0
 18 11  1  0
 18 17  1  0
 19 21  2  0
 19 20  1  0
M  END
$$$$
