IGN.pdb
     RDKit          3D

 21 20  0  0  1  0  0  0  0  0999 V2000
    7.1676  -11.1199   27.4683 C   0  0  0  0  0  0  0  0  0  0  0  0
    7.1309  -12.6054   27.3590 C   0  0  0  0  0  0  0  0  0  0  0  0
    6.9293  -13.1256   25.9508 C   0  0  2  0  0  0  0  0  0  0  0  0
    5.5692  -12.5635   25.5146 C   0  0  0  0  0  0  0  0  0  0  0  0
    6.9822  -14.6205   25.8905 C   0  0  2  0  0  0  0  0  0  0  0  0
    8.0324  -15.0942   26.8071 N   0  0  0  0  0  0  0  0  0  0  0  0
    7.2967  -15.1550   24.5557 C   0  0  0  0  0  0  0  0  0  0  0  0
    7.2147  -16.4173   24.3377 O   0  0  0  0  0  0  0  0  0  0  0  0
    7.6963  -14.4076   23.4276 N   0  0  0  0  0  0  0  0  0  0  0  0
    7.8918  -14.9673   22.1164 C   0  0  0  0  0  0  0  0  0  0  0  0
    9.0889  -15.7994   22.0035 C   0  0  0  0  0  0  0  0  0  0  0  0
    9.3624  -16.3325   20.9028 O   0  0  0  0  0  0  0  0  0  0  0  0
   14.7362  -15.5976   23.5193 N   0  0  0  0  0  0  0  0  0  0  0  0
   13.6734  -15.9682   22.6328 C   0  0  0  0  0  0  0  0  0  0  0  0
   14.0121  -16.6872   21.6289 O   0  0  0  0  0  0  0  0  0  0  0  0
   12.2800  -15.5423   22.8737 C   0  0  0  0  0  0  0  0  0  0  0  0
   11.2779  -16.6631   22.9081 C   0  0  2  0  0  0  0  0  0  0  0  0
    9.9609  -16.0328   23.0897 N   0  0  0  0  0  0  0  0  0  0  0  0
   11.5735  -17.5961   23.9956 C   0  0  0  0  0  0  0  0  0  0  0  0
   12.6167  -18.4998   23.9456 O   0  0  0  0  0  0  0  0  0  0  0  0
   10.8483  -17.5804   25.0219 O   0  0  0  0  0  0  0  0  0  0  0  0
  1  2  1  0
  2  3  1  0
  3  4  1  1
  5  7  1  0
  5  3  1  0
  5  6  1  1
  7  8  2  0
  7  9  1  0
  9 10  1  0
 10 11  1  0
 11 12  2  0
 13 14  1  0
 14 15  2  0
 16 14  1  0
 17 16  1  1
 17 19  1  0
 18 11  1  0
 18 17  1  0
 19 21  2  0
 19 20  1  0
M  END
$$$$
