IGN.pdb
     RDKit          3D

 21 20  0  0  1  0  0  0  0  0999 V2000
    6.2926  -11.8478   27.3766 C   0  0  0  0  0  0  0  0  0  0  0  0
    5.8679  -12.9931   26.5235 C   0  0  0  0  0  0  0  0  0  0  0  0
    6.9703  -13.5785   25.6656 C   0  0  2  0  0  0  0  0  0  0  0  0
    7.4324  -12.4184   24.7729 C   0  0  0  0  0  0  0  0  0  0  0  0
    6.5015  -14.7618   24.8775 C   0  0  2  0  0  0  0  0  0  0  0  0
    5.8465  -15.7107   25.7930 N   0  0  0  0  0  0  0  0  0  0  0  0
    7.5813  -15.4921   24.1942 C   0  0  0  0  0  0  0  0  0  0  0  0
    8.1664  -16.4688   24.7869 O   0  0  0  0  0  0  0  0  0  0  0  0
    8.0750  -15.2356   22.8974 N   0  0  0  0  0  0  0  0  0  0  0  0
    9.1187  -15.9985   22.2656 C   0  0  0  0  0  0  0  0  0  0  0  0
   10.3340  -16.1139   23.0705 C   0  0  0  0  0  0  0  0  0  0  0  0
   11.4214  -16.3728   22.5038 O   0  0  0  0  0  0  0  0  0  0  0  0
   13.2860  -14.4236   26.8327 N   0  0  0  0  0  0  0  0  0  0  0  0
   12.0665  -14.8980   27.4161 C   0  0  0  0  0  0  0  0  0  0  0  0
   11.8044  -14.4595   28.5902 O   0  0  0  0  0  0  0  0  0  0  0  0
   11.1767  -15.8325   26.6977 C   0  0  0  0  0  0  0  0  0  0  0  0
   11.5663  -16.0981   25.2698 C   0  0  2  0  0  0  0  0  0  0  0  0
   10.3391  -15.9453   24.4726 N   0  0  0  0  0  0  0  0  0  0  0  0
   12.1306  -17.4400   25.1223 C   0  0  0  0  0  0  0  0  0  0  0  0
   13.4785  -17.7062   25.2628 O   0  0  0  0  0  0  0  0  0  0  0  0
   11.3598  -18.3956   24.8541 O   0  0  0  0  0  0  0  0  0  0  0  0
  1  2  1  0
  2  3  1  0
  3  4  1  6
  5  7  1  0
  5  3  1  0
  5  6  1  1
  7  8  2  0
  7  9  1  0
  9 10  1  0
 10 11  1  0
 11 12  2  0
 13 14  1  0
 14 15  2  0
 16 14  1  0
 17 16  1  1
 17 19  1  0
 18 11  1  0
 18 17  1  0
 19 21  2  0
 19 20  1  0
M  END
$$$$
