IGN.pdb
     RDKit          3D

 21 20  0  0  1  0  0  0  0  0999 V2000
    6.0492  -11.3779   27.0086 C   0  0  0  0  0  0  0  0  0  0  0  0
    5.7554  -12.5541   26.1424 C   0  0  0  0  0  0  0  0  0  0  0  0
    6.9723  -13.3714   25.7610 C   0  0  2  0  0  0  0  0  0  0  0  0
    7.8311  -12.4252   24.9104 C   0  0  0  0  0  0  0  0  0  0  0  0
    6.6016  -14.6259   25.0330 C   0  0  2  0  0  0  0  0  0  0  0  0
    5.6622  -15.3958   25.8649 N   0  0  0  0  0  0  0  0  0  0  0  0
    7.7434  -15.5066   24.7382 C   0  0  0  0  0  0  0  0  0  0  0  0
    8.2124  -16.2729   25.6550 O   0  0  0  0  0  0  0  0  0  0  0  0
    8.4183  -15.6172   23.5039 N   0  0  0  0  0  0  0  0  0  0  0  0
    9.5555  -16.4699   23.2794 C   0  0  0  0  0  0  0  0  0  0  0  0
   10.6260  -16.2947   24.2600 C   0  0  0  0  0  0  0  0  0  0  0  0
   11.7433  -15.8745   23.8782 O   0  0  0  0  0  0  0  0  0  0  0  0
   10.9469  -13.9073   27.0936 N   0  0  0  0  0  0  0  0  0  0  0  0
   10.7115  -14.8829   28.1161 C   0  0  0  0  0  0  0  0  0  0  0  0
   10.1900  -14.4394   29.1982 O   0  0  0  0  0  0  0  0  0  0  0  0
   11.0520  -16.3067   27.9211 C   0  0  0  0  0  0  0  0  0  0  0  0
   11.5977  -16.6411   26.5603 C   0  0  2  0  0  0  0  0  0  0  0  0
   10.4572  -16.5804   25.6327 N   0  0  0  0  0  0  0  0  0  0  0  0
   12.2147  -17.9678   26.5556 C   0  0  0  0  0  0  0  0  0  0  0  0
   13.5237  -18.1873   26.9375 O   0  0  0  0  0  0  0  0  0  0  0  0
   11.5288  -18.9541   26.1868 O   0  0  0  0  0  0  0  0  0  0  0  0
  1  2  1  0
  2  3  1  0
  3  4  1  6
  5  7  1  0
  5  3  1  0
  5  6  1  1
  7  8  2  0
  7  9  1  0
  9 10  1  0
 10 11  1  0
 11 12  2  0
 13 14  1  0
 14 15  2  0
 16 14  1  0
 17 16  1  1
 17 19  1  0
 18 11  1  0
 18 17  1  0
 19 21  2  0
 19 20  1  0
M  END
$$$$
