IEM.pdb
     RDKit          3D

 26 25  0  0  1  0  0  0  0  0999 V2000
   29.1930  -20.9763  -10.5739 C   0  0  0  0  0  0  0  0  0  0  0  0
   28.9493  -20.8693  -12.0419 C   0  0  0  0  0  0  0  0  0  0  0  0
   27.4955  -20.5084  -12.3815 C   0  0  2  0  0  0  0  0  0  0  0  0
   26.7167  -21.7950  -12.0499 C   0  0  0  0  0  0  0  0  0  0  0  0
   27.3820  -20.2892  -13.8592 C   0  0  2  0  0  0  0  0  0  0  0  0
   28.3255  -19.2699  -14.2579 N   0  0  0  0  0  0  0  0  0  0  0  0
   26.0045  -19.9682  -14.2899 C   0  0  0  0  0  0  0  0  0  0  0  0
   25.4813  -18.8483  -14.0741 O   0  0  0  0  0  0  0  0  0  0  0  0
   25.1580  -20.9094  -14.9871 N   0  0  0  0  0  0  0  0  0  0  0  0
   23.8073  -20.6360  -15.3146 C   0  0  1  0  0  0  0  0  0  0  0  0
   23.5081  -20.7190  -16.7591 C   0  0  0  0  0  0  0  0  0  0  0  0
   22.5096  -19.7488  -17.3073 C   0  0  0  0  0  0  0  0  0  0  0  0
   22.8277  -18.3312  -17.0942 C   0  0  0  0  0  0  0  0  0  0  0  0
   23.9413  -17.8112  -17.4496 O   0  0  0  0  0  0  0  0  0  0  0  0
   22.8270  -21.4132  -14.5212 C   0  0  0  0  0  0  0  0  0  0  0  0
   23.1364  -22.3937  -13.8009 O   0  0  0  0  0  0  0  0  0  0  0  0
   21.9142  -17.4883  -16.4883 O   0  0  0  0  0  0  0  0  0  0  0  0
   20.8078  -17.9517  -10.3578 C   0  0  0  0  0  0  0  0  0  0  0  0
   20.2500  -19.5519   -9.7317 S   0  0  0  0  0  0  0  0  0  0  0  0
   19.8763  -20.6352  -11.1375 C   0  0  0  0  0  0  0  0  0  0  0  0
   20.8349  -20.3786  -12.2882 C   0  0  0  0  0  0  0  0  0  0  0  0
   20.6027  -21.3527  -13.4219 C   0  0  2  0  0  0  0  0  0  0  0  0
   21.4616  -21.0435  -14.5649 N   0  0  0  0  0  0  0  0  0  0  0  0
   19.1990  -21.2020  -13.8526 C   0  0  0  0  0  0  0  0  0  0  0  0
   18.2390  -22.0517  -13.3382 O   0  0  0  0  0  0  0  0  0  0  0  0
   18.8361  -20.3262  -14.6751 O   0  0  0  0  0  0  0  0  0  0  0  0
  1  2  1  0
  2  3  1  0
  3  4  1  6
  5  3  1  0
  5  6  1  1
  7  8  2  0
  7  5  1  0
  9  7  1  0
 10  9  1  0
 10 11  1  6
 12 13  1  0
 12 11  1  0
 13 14  2  0
 15 23  1  0
 15 10  1  0
 16 15  2  0
 17 13  1  0
 19 18  1  0
 20 19  1  0
 20 21  1  0
 22 21  1  1
 22 24  1  0
 22 23  1  0
 24 25  1  0
 26 24  2  0
M  END
$$$$
