IEM.pdb
     RDKit          3D

 26 25  0  0  1  0  0  0  0  0999 V2000
   19.8620  -23.4759  -20.7191 C   0  0  0  0  0  0  0  0  0  0  0  0
   18.9848  -22.9994  -19.6103 C   0  0  0  0  0  0  0  0  0  0  0  0
   19.5388  -23.3441  -18.2199 C   0  0  2  0  0  0  0  0  0  0  0  0
   19.4633  -24.8816  -18.1715 C   0  0  0  0  0  0  0  0  0  0  0  0
   18.5977  -22.8205  -17.1786 C   0  0  2  0  0  0  0  0  0  0  0  0
   18.3270  -21.4265  -17.4466 N   0  0  0  0  0  0  0  0  0  0  0  0
   19.0868  -23.0348  -15.7998 C   0  0  0  0  0  0  0  0  0  0  0  0
   19.3877  -24.1736  -15.3674 O   0  0  0  0  0  0  0  0  0  0  0  0
   19.2558  -21.9601  -14.8484 N   0  0  0  0  0  0  0  0  0  0  0  0
   19.7053  -22.1687  -13.5214 C   0  0  1  0  0  0  0  0  0  0  0  0
   20.0564  -20.9273  -12.8013 C   0  0  0  0  0  0  0  0  0  0  0  0
   20.5935  -21.0713  -11.4122 C   0  0  0  0  0  0  0  0  0  0  0  0
   20.9024  -19.8116  -10.7237 C   0  0  0  0  0  0  0  0  0  0  0  0
   20.7256  -18.6660  -11.2651 O   0  0  0  0  0  0  0  0  0  0  0  0
   18.8061  -23.0207  -12.7089 C   0  0  0  0  0  0  0  0  0  0  0  0
   17.5536  -22.9452  -12.7479 O   0  0  0  0  0  0  0  0  0  0  0  0
   21.4065  -19.8186   -9.4361 O   0  0  0  0  0  0  0  0  0  0  0  0
   18.1041  -29.5954   -8.4123 C   0  0  0  0  0  0  0  0  0  0  0  0
   19.2522  -28.3141   -8.9638 S   0  0  0  0  0  0  0  0  0  0  0  0
   18.3167  -27.0118   -9.8112 C   0  0  0  0  0  0  0  0  0  0  0  0
   19.2539  -26.0170  -10.4750 C   0  0  0  0  0  0  0  0  0  0  0  0
   18.4882  -24.8543  -11.0668 C   0  0  2  0  0  0  0  0  0  0  0  0
   19.3731  -23.9788  -11.8352 N   0  0  0  0  0  0  0  0  0  0  0  0
   17.9362  -24.0720   -9.9435 C   0  0  0  0  0  0  0  0  0  0  0  0
   18.6786  -23.0351   -9.4125 O   0  0  0  0  0  0  0  0  0  0  0  0
   16.8098  -24.3109   -9.4442 O   0  0  0  0  0  0  0  0  0  0  0  0
  1  2  1  0
  2  3  1  0
  3  4  1  6
  5  3  1  0
  5  6  1  6
  7  8  2  0
  7  5  1  0
  9  7  1  0
 10  9  1  0
 10 11  1  1
 12 13  1  0
 12 11  1  0
 13 14  2  0
 15 23  1  0
 15 10  1  0
 16 15  2  0
 17 13  1  0
 19 18  1  0
 20 19  1  0
 20 21  1  0
 22 21  1  1
 22 24  1  0
 22 23  1  0
 24 25  1  0
 26 24  2  0
M  END
$$$$
