IEM.pdb
     RDKit          3D

 26 25  0  0  1  0  0  0  0  0999 V2000
   18.4377  -13.4867  -16.4594 C   0  0  0  0  0  0  0  0  0  0  0  0
   18.0773  -12.0502  -16.2790 C   0  0  0  0  0  0  0  0  0  0  0  0
   18.3377  -11.5434  -14.8527 C   0  0  2  0  0  0  0  0  0  0  0  0
   17.2965  -12.2981  -14.0051 C   0  0  0  0  0  0  0  0  0  0  0  0
   17.9940  -10.0868  -14.7846 C   0  0  2  0  0  0  0  0  0  0  0  0
   18.7744   -9.3722  -15.7687 N   0  0  0  0  0  0  0  0  0  0  0  0
   18.1575   -9.5191  -13.4292 C   0  0  0  0  0  0  0  0  0  0  0  0
   17.5448   -9.9776  -12.4347 O   0  0  0  0  0  0  0  0  0  0  0  0
   19.0274   -8.4010  -13.1436 N   0  0  0  0  0  0  0  0  0  0  0  0
   19.0641   -7.7548  -11.8836 C   0  0  1  0  0  0  0  0  0  0  0  0
   20.2011   -6.8265  -11.7146 C   0  0  0  0  0  0  0  0  0  0  0  0
   20.2648   -5.6488  -12.6353 C   0  0  0  0  0  0  0  0  0  0  0  0
   21.3697   -4.7144  -12.3855 C   0  0  0  0  0  0  0  0  0  0  0  0
   22.1961   -4.8626  -11.4201 O   0  0  0  0  0  0  0  0  0  0  0  0
   17.7868   -7.1090  -11.5016 C   0  0  0  0  0  0  0  0  0  0  0  0
   17.0375   -6.5148  -12.3148 O   0  0  0  0  0  0  0  0  0  0  0  0
   21.5611   -3.6162  -13.2037 O   0  0  0  0  0  0  0  0  0  0  0  0
   11.9748   -6.4691   -6.2315 C   0  0  0  0  0  0  0  0  0  0  0  0
   13.5802   -7.2160   -6.5903 S   0  0  0  0  0  0  0  0  0  0  0  0
   14.2767   -6.4301   -8.0691 C   0  0  0  0  0  0  0  0  0  0  0  0
   15.5665   -7.1147   -8.4890 C   0  0  0  0  0  0  0  0  0  0  0  0
   16.1109   -6.5193   -9.7686 C   0  0  2  0  0  0  0  0  0  0  0  0
   17.3720   -7.1552  -10.1493 N   0  0  0  0  0  0  0  0  0  0  0  0
   16.3801   -5.0912   -9.5111 C   0  0  0  0  0  0  0  0  0  0  0  0
   15.3561   -4.1745   -9.6499 O   0  0  0  0  0  0  0  0  0  0  0  0
   17.5112   -4.6690   -9.1682 O   0  0  0  0  0  0  0  0  0  0  0  0
  1  2  1  0
  2  3  1  0
  3  4  1  1
  5  3  1  0
  5  6  1  6
  7  8  2  0
  7  5  1  0
  9  7  1  0
 10  9  1  0
 10 11  1  6
 12 13  1  0
 12 11  1  0
 13 14  2  0
 15 23  1  0
 15 10  1  0
 16 15  2  0
 17 13  1  0
 19 18  1  0
 20 19  1  0
 20 21  1  0
 22 21  1  1
 22 24  1  0
 22 23  1  0
 24 25  1  0
 26 24  2  0
M  END
$$$$
