IEM.pdb
     RDKit          3D

 26 25  0  0  1  0  0  0  0  0999 V2000
   16.8252  -16.3289  -15.4157 C   0  0  0  0  0  0  0  0  0  0  0  0
   16.2248  -15.1577  -16.1183 C   0  0  0  0  0  0  0  0  0  0  0  0
   17.2285  -14.0171  -16.3435 C   0  0  2  0  0  0  0  0  0  0  0  0
   17.5422  -13.5250  -14.9182 C   0  0  0  0  0  0  0  0  0  0  0  0
   16.5376  -12.8962  -17.0581 C   0  0  2  0  0  0  0  0  0  0  0  0
   16.0643  -13.3740  -18.3372 N   0  0  0  0  0  0  0  0  0  0  0  0
   17.3842  -11.6918  -17.1953 C   0  0  0  0  0  0  0  0  0  0  0  0
   18.4012  -11.6705  -17.9300 O   0  0  0  0  0  0  0  0  0  0  0  0
   17.1112  -10.4543  -16.5008 N   0  0  0  0  0  0  0  0  0  0  0  0
   17.9674   -9.3277  -16.5670 C   0  0  1  0  0  0  0  0  0  0  0  0
   17.2681   -8.0311  -16.4555 C   0  0  0  0  0  0  0  0  0  0  0  0
   18.1131   -6.7962  -16.4574 C   0  0  0  0  0  0  0  0  0  0  0  0
   17.3769   -5.5304  -16.3483 C   0  0  0  0  0  0  0  0  0  0  0  0
   17.0084   -5.0389  -15.2260 O   0  0  0  0  0  0  0  0  0  0  0  0
   19.1205   -9.3935  -15.6393 C   0  0  0  0  0  0  0  0  0  0  0  0
   19.0254   -9.7343  -14.4348 O   0  0  0  0  0  0  0  0  0  0  0  0
   17.0484   -4.8075  -17.4804 O   0  0  0  0  0  0  0  0  0  0  0  0
   26.7227  -10.5807  -14.4530 C   0  0  0  0  0  0  0  0  0  0  0  0
   25.3569  -10.5625  -15.6353 S   0  0  0  0  0  0  0  0  0  0  0  0
   23.8987   -9.8368  -14.8377 C   0  0  0  0  0  0  0  0  0  0  0  0
   22.7057   -9.8475  -15.7788 C   0  0  0  0  0  0  0  0  0  0  0  0
   21.5418   -9.0767  -15.1960 C   0  0  2  0  0  0  0  0  0  0  0  0
   20.4084   -9.0578  -16.1205 N   0  0  0  0  0  0  0  0  0  0  0  0
   21.9902   -7.6848  -14.9960 C   0  0  0  0  0  0  0  0  0  0  0  0
   22.4300   -7.2890  -13.7478 O   0  0  0  0  0  0  0  0  0  0  0  0
   21.9889   -6.8362  -15.9207 O   0  0  0  0  0  0  0  0  0  0  0  0
  1  2  1  0
  2  3  1  0
  3  4  1  1
  5  3  1  0
  5  6  1  6
  7  8  2  0
  7  5  1  0
  9  7  1  0
 10  9  1  0
 10 11  1  1
 12 13  1  0
 12 11  1  0
 13 14  2  0
 15 23  1  0
 15 10  1  0
 16 15  2  0
 17 13  1  0
 19 18  1  0
 20 19  1  0
 20 21  1  0
 22 21  1  6
 22 24  1  0
 22 23  1  0
 24 25  1  0
 26 24  2  0
M  END
$$$$
