IEM.pdb
     RDKit          3D

 26 25  0  0  1  0  0  0  0  0999 V2000
   25.0123  -31.5744   -9.1771 C   0  0  0  0  0  0  0  0  0  0  0  0
   26.0812  -32.4761   -8.6571 C   0  0  0  0  0  0  0  0  0  0  0  0
   25.7127  -33.1283   -7.3162 C   0  0  2  0  0  0  0  0  0  0  0  0
   25.6339  -31.9365   -6.3440 C   0  0  0  0  0  0  0  0  0  0  0  0
   26.8510  -33.9927   -6.8676 C   0  0  2  0  0  0  0  0  0  0  0  0
   27.0848  -35.0164   -7.8604 N   0  0  0  0  0  0  0  0  0  0  0  0
   26.6436  -34.5649   -5.5201 C   0  0  0  0  0  0  0  0  0  0  0  0
   25.6210  -35.2306   -5.2274 O   0  0  0  0  0  0  0  0  0  0  0  0
   27.5928  -34.4050   -4.4421 N   0  0  0  0  0  0  0  0  0  0  0  0
   27.3851  -34.9381   -3.1463 C   0  0  1  0  0  0  0  0  0  0  0  0
   28.6302  -35.2045   -2.3969 C   0  0  0  0  0  0  0  0  0  0  0  0
   29.5488  -36.2497   -2.9469 C   0  0  0  0  0  0  0  0  0  0  0  0
   30.7883  -36.4597   -2.1880 C   0  0  0  0  0  0  0  0  0  0  0  0
   30.9748  -37.4777   -1.4359 O   0  0  0  0  0  0  0  0  0  0  0  0
   26.4232  -34.1662   -2.3256 C   0  0  0  0  0  0  0  0  0  0  0  0
   26.4637  -32.9181   -2.1967 O   0  0  0  0  0  0  0  0  0  0  0  0
   31.8220  -35.5441   -2.2612 O   0  0  0  0  0  0  0  0  0  0  0  0
   19.2591  -32.6596   -1.0090 C   0  0  0  0  0  0  0  0  0  0  0  0
   20.2900  -34.1428   -1.0455 S   0  0  0  0  0  0  0  0  0  0  0  0
   21.9640  -33.7087   -0.4988 C   0  0  0  0  0  0  0  0  0  0  0  0
   23.0091  -34.3351   -1.4066 C   0  0  0  0  0  0  0  0  0  0  0  0
   24.4067  -34.0935   -0.8806 C   0  0  2  0  0  0  0  0  0  0  0  0
   25.3944  -34.8574   -1.6426 N   0  0  0  0  0  0  0  0  0  0  0  0
   24.4409  -34.5697    0.5160 C   0  0  0  0  0  0  0  0  0  0  0  0
   23.9584  -33.7534    1.5205 O   0  0  0  0  0  0  0  0  0  0  0  0
   24.8945  -35.6959    0.8339 O   0  0  0  0  0  0  0  0  0  0  0  0
  1  2  1  0
  2  3  1  0
  3  4  1  1
  5  3  1  0
  5  6  1  6
  7  8  2  0
  7  5  1  0
  9  7  1  0
 10  9  1  0
 10 11  1  1
 12 13  1  0
 12 11  1  0
 13 14  2  0
 15 23  1  0
 15 10  1  0
 16 15  2  0
 17 13  1  0
 19 18  1  0
 20 19  1  0
 20 21  1  0
 22 21  1  6
 22 24  1  0
 22 23  1  0
 24 25  1  0
 26 24  2  0
M  END
$$$$
