IEM.pdb
     RDKit          3D

 26 25  0  0  1  0  0  0  0  0999 V2000
   24.4017  -10.9008  -14.6109 C   0  0  0  0  0  0  0  0  0  0  0  0
   22.9386  -10.6781  -14.8006 C   0  0  0  0  0  0  0  0  0  0  0  0
   22.5187   -9.2218  -14.5520 C   0  0  2  0  0  0  0  0  0  0  0  0
   22.5676   -9.0883  -13.0184 C   0  0  0  0  0  0  0  0  0  0  0  0
   21.0895   -9.0508  -14.9671 C   0  0  2  0  0  0  0  0  0  0  0  0
   20.9553   -9.4213  -16.3574 N   0  0  0  0  0  0  0  0  0  0  0  0
   20.5717   -7.6912  -14.7035 C   0  0  0  0  0  0  0  0  0  0  0  0
   21.2189   -6.6598  -15.0062 O   0  0  0  0  0  0  0  0  0  0  0  0
   19.2908   -7.4434  -14.0819 N   0  0  0  0  0  0  0  0  0  0  0  0
   18.7773   -6.1409  -13.8666 C   0  0  1  0  0  0  0  0  0  0  0  0
   18.8292   -5.2676  -15.0572 C   0  0  0  0  0  0  0  0  0  0  0  0
   18.2742   -3.8853  -14.9159 C   0  0  0  0  0  0  0  0  0  0  0  0
   18.3074   -3.0667  -16.1345 C   0  0  0  0  0  0  0  0  0  0  0  0
   18.8043   -3.4862  -17.2363 O   0  0  0  0  0  0  0  0  0  0  0  0
   17.4315   -6.1198  -13.2478 C   0  0  0  0  0  0  0  0  0  0  0  0
   16.4444   -6.7437  -13.7085 O   0  0  0  0  0  0  0  0  0  0  0  0
   17.7907   -1.7841  -16.1350 O   0  0  0  0  0  0  0  0  0  0  0  0
   12.8421   -4.7263   -7.0479 C   0  0  0  0  0  0  0  0  0  0  0  0
   14.4699   -5.2042   -7.6688 S   0  0  0  0  0  0  0  0  0  0  0  0
   14.4694   -5.0771   -9.4781 C   0  0  0  0  0  0  0  0  0  0  0  0
   15.8522   -5.3598  -10.0407 C   0  0  0  0  0  0  0  0  0  0  0  0
   15.8725   -5.2077  -11.5457 C   0  0  2  0  0  0  0  0  0  0  0  0
   17.2291   -5.3600  -12.0711 N   0  0  0  0  0  0  0  0  0  0  0  0
   15.4140   -3.8398  -11.8571 C   0  0  0  0  0  0  0  0  0  0  0  0
   14.0636   -3.6006  -12.0223 O   0  0  0  0  0  0  0  0  0  0  0  0
   16.2064   -2.8743  -11.9800 O   0  0  0  0  0  0  0  0  0  0  0  0
  1  2  1  0
  2  3  1  0
  3  4  1  1
  5  3  1  0
  5  6  1  6
  7  8  2  0
  7  5  1  0
  9  7  1  0
 10  9  1  0
 10 11  1  6
 12 13  1  0
 12 11  1  0
 13 14  2  0
 15 23  1  0
 15 10  1  0
 16 15  2  0
 17 13  1  0
 19 18  1  0
 20 19  1  0
 20 21  1  0
 22 21  1  1
 22 24  1  0
 22 23  1  0
 24 25  1  0
 26 24  2  0
M  END
$$$$
