IEM.pdb
     RDKit          3D

 26 25  0  0  1  0  0  0  0  0999 V2000
   36.2591  -27.7351  -18.9672 C   0  0  0  0  0  0  0  0  0  0  0  0
   35.4346  -28.4343  -17.9390 C   0  0  0  0  0  0  0  0  0  0  0  0
   34.6303  -29.6089  -18.5156 C   0  0  2  0  0  0  0  0  0  0  0  0
   33.5624  -28.9224  -19.3875 C   0  0  0  0  0  0  0  0  0  0  0  0
   33.9128  -30.3014  -17.3977 C   0  0  2  0  0  0  0  0  0  0  0  0
   34.8864  -30.8702  -16.4940 N   0  0  0  0  0  0  0  0  0  0  0  0
   32.9426  -31.3106  -17.8735 C   0  0  0  0  0  0  0  0  0  0  0  0
   33.3024  -32.4371  -18.2931 O   0  0  0  0  0  0  0  0  0  0  0  0
   31.5156  -31.0829  -17.8936 N   0  0  0  0  0  0  0  0  0  0  0  0
   30.5839  -32.0643  -18.3124 C   0  0  1  0  0  0  0  0  0  0  0  0
   29.2998  -32.0274  -17.5825 C   0  0  0  0  0  0  0  0  0  0  0  0
   29.3133  -32.4677  -16.1526 C   0  0  0  0  0  0  0  0  0  0  0  0
   28.0193  -32.4003  -15.4617 C   0  0  0  0  0  0  0  0  0  0  0  0
   27.8479  -32.8336  -14.2702 O   0  0  0  0  0  0  0  0  0  0  0  0
   30.3644  -32.0987  -19.7770 C   0  0  0  0  0  0  0  0  0  0  0  0
   30.3924  -31.0790  -20.5086 O   0  0  0  0  0  0  0  0  0  0  0  0
   26.9147  -31.8531  -16.0882 O   0  0  0  0  0  0  0  0  0  0  0  0
   31.4642  -36.0126  -26.4060 C   0  0  0  0  0  0  0  0  0  0  0  0
   31.7199  -35.9253  -24.6198 S   0  0  0  0  0  0  0  0  0  0  0  0
   30.6670  -34.6150  -23.9386 C   0  0  0  0  0  0  0  0  0  0  0  0
   30.8339  -34.5154  -22.4317 C   0  0  0  0  0  0  0  0  0  0  0  0
   29.9931  -33.3949  -21.8606 C   0  0  2  0  0  0  0  0  0  0  0  0
   30.1082  -33.3416  -20.4034 N   0  0  0  0  0  0  0  0  0  0  0  0
   28.5853  -33.6846  -22.1964 C   0  0  0  0  0  0  0  0  0  0  0  0
   28.0498  -33.1740  -23.3629 O   0  0  0  0  0  0  0  0  0  0  0  0
   27.8458  -34.3816  -21.4600 O   0  0  0  0  0  0  0  0  0  0  0  0
  1  2  1  0
  2  3  1  0
  3  4  1  6
  5  3  1  0
  5  6  1  1
  7  8  2  0
  7  5  1  0
  9  7  1  0
 10  9  1  0
 10 11  1  1
 12 13  1  0
 12 11  1  0
 13 14  2  0
 15 23  1  0
 15 10  1  0
 16 15  2  0
 17 13  1  0
 19 18  1  0
 20 19  1  0
 20 21  1  0
 22 21  1  1
 22 24  1  0
 22 23  1  0
 24 25  1  0
 26 24  2  0
M  END
$$$$
