IEM.pdb
     RDKit          3D

 26 25  0  0  1  0  0  0  0  0999 V2000
   24.5834  -15.1450  -15.7526 C   0  0  0  0  0  0  0  0  0  0  0  0
   23.1503  -14.7310  -15.7809 C   0  0  0  0  0  0  0  0  0  0  0  0
   22.9619  -13.2559  -16.1651 C   0  0  2  0  0  0  0  0  0  0  0  0
   23.5249  -12.4917  -14.9522 C   0  0  0  0  0  0  0  0  0  0  0  0
   21.4959  -12.9561  -16.2371 C   0  0  2  0  0  0  0  0  0  0  0  0
   20.8866  -13.8194  -17.2230 N   0  0  0  0  0  0  0  0  0  0  0  0
   21.2118  -11.5290  -16.4991 C   0  0  0  0  0  0  0  0  0  0  0  0
   21.6121  -10.9479  -17.5368 O   0  0  0  0  0  0  0  0  0  0  0  0
   20.4578  -10.6964  -15.5898 N   0  0  0  0  0  0  0  0  0  0  0  0
   20.1972   -9.3259  -15.8352 C   0  0  1  0  0  0  0  0  0  0  0  0
   18.8071   -8.9154  -15.5487 C   0  0  0  0  0  0  0  0  0  0  0  0
   18.4629   -7.4744  -15.7577 C   0  0  0  0  0  0  0  0  0  0  0  0
   17.1254   -7.0748  -15.3019 C   0  0  0  0  0  0  0  0  0  0  0  0
   16.3300   -7.8782  -14.7030 O   0  0  0  0  0  0  0  0  0  0  0  0
   21.1673   -8.4058  -15.1975 C   0  0  0  0  0  0  0  0  0  0  0  0
   21.5065   -8.4799  -13.9911 O   0  0  0  0  0  0  0  0  0  0  0  0
   16.6674   -5.7864  -15.5081 O   0  0  0  0  0  0  0  0  0  0  0  0
   24.6850   -2.8860  -17.8488 C   0  0  0  0  0  0  0  0  0  0  0  0
   25.6715   -4.1034  -16.9496 S   0  0  0  0  0  0  0  0  0  0  0  0
   24.6230   -4.9075  -15.7072 C   0  0  0  0  0  0  0  0  0  0  0  0
   23.5593   -5.7660  -16.3707 C   0  0  0  0  0  0  0  0  0  0  0  0
   22.6849   -6.4473  -15.3413 C   0  0  2  0  0  0  0  0  0  0  0  0
   21.7550   -7.3808  -15.9765 N   0  0  0  0  0  0  0  0  0  0  0  0
   21.8914   -5.3978  -14.6724 C   0  0  0  0  0  0  0  0  0  0  0  0
   22.2982   -4.9251  -13.4398 O   0  0  0  0  0  0  0  0  0  0  0  0
   20.8518   -4.9114  -15.1802 O   0  0  0  0  0  0  0  0  0  0  0  0
  1  2  1  0
  2  3  1  0
  3  4  1  1
  5  3  1  0
  5  6  1  6
  7  8  2  0
  7  5  1  0
  9  7  1  0
 10  9  1  0
 10 11  1  1
 12 13  1  0
 12 11  1  0
 13 14  2  0
 15 23  1  0
 15 10  1  0
 16 15  2  0
 17 13  1  0
 19 18  1  0
 20 19  1  0
 20 21  1  0
 22 21  1  6
 22 24  1  0
 22 23  1  0
 24 25  1  0
 26 24  2  0
M  END
$$$$
