IEM.pdb
     RDKit          3D

 26 25  0  0  1  0  0  0  0  0999 V2000
   28.9768  -17.0826  -16.9246 C   0  0  0  0  0  0  0  0  0  0  0  0
   27.7281  -17.8894  -16.7992 C   0  0  0  0  0  0  0  0  0  0  0  0
   27.1466  -17.8734  -15.3776 C   0  0  2  0  0  0  0  0  0  0  0  0
   28.1983  -18.6339  -14.5483 C   0  0  0  0  0  0  0  0  0  0  0  0
   25.8905  -18.6895  -15.3575 C   0  0  2  0  0  0  0  0  0  0  0  0
   24.9493  -18.1286  -16.2996 N   0  0  0  0  0  0  0  0  0  0  0  0
   25.3093  -18.8192  -14.0042 C   0  0  0  0  0  0  0  0  0  0  0  0
   24.8224  -17.8394  -13.3898 O   0  0  0  0  0  0  0  0  0  0  0  0
   25.2559  -20.0727  -13.2870 N   0  0  0  0  0  0  0  0  0  0  0  0
   24.6634  -20.2042  -12.0071 C   0  0  1  0  0  0  0  0  0  0  0  0
   23.4423  -21.0358  -11.9902 C   0  0  0  0  0  0  0  0  0  0  0  0
   22.2604  -20.5304  -12.7560 C   0  0  0  0  0  0  0  0  0  0  0  0
   21.0351  -21.3282  -12.6199 C   0  0  0  0  0  0  0  0  0  0  0  0
   20.0596  -20.9755  -11.8711 O   0  0  0  0  0  0  0  0  0  0  0  0
   25.6092  -20.6236  -10.9469 C   0  0  0  0  0  0  0  0  0  0  0  0
   26.4282  -21.5659  -11.0785 O   0  0  0  0  0  0  0  0  0  0  0  0
   20.8883  -22.5161  -13.3124 O   0  0  0  0  0  0  0  0  0  0  0  0
   29.3308  -19.2256   -4.1805 C   0  0  0  0  0  0  0  0  0  0  0  0
   28.3295  -18.5253   -5.5111 S   0  0  0  0  0  0  0  0  0  0  0  0
   27.6603  -19.8777   -6.5174 C   0  0  0  0  0  0  0  0  0  0  0  0
   26.8997  -19.3354   -7.7157 C   0  0  0  0  0  0  0  0  0  0  0  0
   26.4008  -20.4563   -8.6006 C   0  0  2  0  0  0  0  0  0  0  0  0
   25.6039  -19.9346   -9.7107 N   0  0  0  0  0  0  0  0  0  0  0  0
   25.5273  -21.3138   -7.7760 C   0  0  0  0  0  0  0  0  0  0  0  0
   26.0913  -22.1172   -6.8040 O   0  0  0  0  0  0  0  0  0  0  0  0
   24.2811  -21.3454   -7.9214 O   0  0  0  0  0  0  0  0  0  0  0  0
  1  2  1  0
  2  3  1  0
  3  4  1  1
  5  3  1  0
  5  6  1  6
  7  8  2  0
  7  5  1  0
  9  7  1  0
 10  9  1  0
 10 11  1  6
 12 13  1  0
 12 11  1  0
 13 14  2  0
 15 23  1  0
 15 10  1  0
 16 15  2  0
 17 13  1  0
 19 18  1  0
 20 19  1  0
 20 21  1  0
 22 21  1  1
 22 24  1  0
 22 23  1  0
 24 25  1  0
 26 24  2  0
M  END
$$$$
