IEM.pdb
     RDKit          3D

 26 25  0  0  1  0  0  0  0  0999 V2000
   16.8626  -14.6186  -18.4065 C   0  0  0  0  0  0  0  0  0  0  0  0
   17.4515  -14.0681  -17.1511 C   0  0  0  0  0  0  0  0  0  0  0  0
   17.8168  -12.5806  -17.2646 C   0  0  2  0  0  0  0  0  0  0  0  0
   18.9814  -12.5702  -18.2724 C   0  0  0  0  0  0  0  0  0  0  0  0
   18.3629  -12.1129  -15.9503 C   0  0  2  0  0  0  0  0  0  0  0  0
   17.3655  -12.3203  -14.9253 N   0  0  0  0  0  0  0  0  0  0  0  0
   18.8354  -10.7124  -15.9883 C   0  0  0  0  0  0  0  0  0  0  0  0
   19.7281  -10.3302  -16.7829 O   0  0  0  0  0  0  0  0  0  0  0  0
   18.3123   -9.6812  -15.1214 N   0  0  0  0  0  0  0  0  0  0  0  0
   18.7213   -8.3273  -15.1996 C   0  0  1  0  0  0  0  0  0  0  0  0
   17.7818   -7.3759  -14.5711 C   0  0  0  0  0  0  0  0  0  0  0  0
   16.4061   -7.2885  -15.1529 C   0  0  0  0  0  0  0  0  0  0  0  0
   15.4907   -6.3676  -14.4672 C   0  0  0  0  0  0  0  0  0  0  0  0
   14.8178   -5.4726  -15.0861 O   0  0  0  0  0  0  0  0  0  0  0  0
   20.1089   -8.0908  -14.7376 C   0  0  0  0  0  0  0  0  0  0  0  0
   20.7093   -8.8391  -13.9280 O   0  0  0  0  0  0  0  0  0  0  0  0
   15.3190   -6.4365  -13.0968 O   0  0  0  0  0  0  0  0  0  0  0  0
   27.1185   -9.1473  -15.8590 C   0  0  0  0  0  0  0  0  0  0  0  0
   25.3734   -9.2088  -16.3224 S   0  0  0  0  0  0  0  0  0  0  0  0
   24.4944   -7.8632  -15.4822 C   0  0  0  0  0  0  0  0  0  0  0  0
   22.9932   -7.9923  -15.6781 C   0  0  0  0  0  0  0  0  0  0  0  0
   22.2526   -6.8662  -14.9912 C   0  0  2  0  0  0  0  0  0  0  0  0
   20.8121   -6.9641  -15.2262 N   0  0  0  0  0  0  0  0  0  0  0  0
   22.7261   -5.6003  -15.5844 C   0  0  0  0  0  0  0  0  0  0  0  0
   23.9553   -5.0953  -15.2072 O   0  0  0  0  0  0  0  0  0  0  0  0
   22.0531   -4.9558  -16.4251 O   0  0  0  0  0  0  0  0  0  0  0  0
  1  2  1  0
  2  3  1  0
  3  4  1  6
  5  3  1  0
  5  6  1  1
  7  8  2  0
  7  5  1  0
  9  7  1  0
 10  9  1  0
 10 11  1  1
 12 13  1  0
 12 11  1  0
 13 14  2  0
 15 23  1  0
 15 10  1  0
 16 15  2  0
 17 13  1  0
 19 18  1  0
 20 19  1  0
 20 21  1  0
 22 21  1  6
 22 24  1  0
 22 23  1  0
 24 25  1  0
 26 24  2  0
M  END
$$$$
