IEM.pdb
     RDKit          3D

 26 25  0  0  1  0  0  0  0  0999 V2000
   20.3052  -16.0053  -17.1875 C   0  0  0  0  0  0  0  0  0  0  0  0
   19.2582  -14.9517  -17.0466 C   0  0  0  0  0  0  0  0  0  0  0  0
   19.8088  -13.5318  -17.2456 C   0  0  2  0  0  0  0  0  0  0  0  0
   20.7290  -13.3269  -16.0277 C   0  0  0  0  0  0  0  0  0  0  0  0
   18.6824  -12.5521  -17.1207 C   0  0  2  0  0  0  0  0  0  0  0  0
   17.6536  -12.8930  -18.0766 N   0  0  0  0  0  0  0  0  0  0  0  0
   19.1226  -11.1473  -17.2579 C   0  0  0  0  0  0  0  0  0  0  0  0
   19.7791  -10.7471  -18.2496 O   0  0  0  0  0  0  0  0  0  0  0  0
   18.8352  -10.1322  -16.2704 N   0  0  0  0  0  0  0  0  0  0  0  0
   19.3046   -8.7998  -16.3750 C   0  0  1  0  0  0  0  0  0  0  0  0
   18.3161   -7.7785  -15.9716 C   0  0  0  0  0  0  0  0  0  0  0  0
   18.7518   -6.3480  -16.0218 C   0  0  0  0  0  0  0  0  0  0  0  0
   18.4527   -5.5570  -14.8213 C   0  0  0  0  0  0  0  0  0  0  0  0
   17.4308   -5.7782  -14.0841 O   0  0  0  0  0  0  0  0  0  0  0  0
   20.6103   -8.5687  -15.7145 C   0  0  0  0  0  0  0  0  0  0  0  0
   20.9274   -9.0676  -14.6070 O   0  0  0  0  0  0  0  0  0  0  0  0
   19.2841   -4.5215  -14.4356 O   0  0  0  0  0  0  0  0  0  0  0  0
   27.3196  -10.9063  -14.9897 C   0  0  0  0  0  0  0  0  0  0  0  0
   25.6343  -10.9004  -15.6404 S   0  0  0  0  0  0  0  0  0  0  0  0
   24.9790   -9.2112  -15.5599 C   0  0  0  0  0  0  0  0  0  0  0  0
   23.5443   -9.1631  -16.0578 C   0  0  0  0  0  0  0  0  0  0  0  0
   22.9558   -7.7786  -15.8990 C   0  0  2  0  0  0  0  0  0  0  0  0
   21.5658   -7.7430  -16.3533 N   0  0  0  0  0  0  0  0  0  0  0  0
   23.7386   -6.8657  -16.7547 C   0  0  0  0  0  0  0  0  0  0  0  0
   23.1396   -6.2974  -17.8623 O   0  0  0  0  0  0  0  0  0  0  0  0
   24.9376   -6.5807  -16.5175 O   0  0  0  0  0  0  0  0  0  0  0  0
  1  2  1  0
  2  3  1  0
  3  4  1  1
  5  3  1  0
  5  6  1  6
  7  8  2  0
  7  5  1  0
  9  7  1  0
 10  9  1  0
 10 11  1  1
 12 13  1  0
 12 11  1  0
 13 14  2  0
 15 23  1  0
 15 10  1  0
 16 15  2  0
 17 13  1  0
 19 18  1  0
 20 19  1  0
 20 21  1  0
 22 21  1  6
 22 24  1  0
 22 23  1  0
 24 25  1  0
 26 24  2  0
M  END
$$$$
