IEM.pdb
     RDKit          3D

 26 25  0  0  1  0  0  0  0  0999 V2000
   34.7889  -25.5776  -17.1114 C   0  0  0  0  0  0  0  0  0  0  0  0
   33.7377  -24.9914  -17.9931 C   0  0  0  0  0  0  0  0  0  0  0  0
   32.3654  -24.9025  -17.3090 C   0  0  2  0  0  0  0  0  0  0  0  0
   31.9820  -26.3757  -17.0749 C   0  0  0  0  0  0  0  0  0  0  0  0
   31.3750  -24.3348  -18.2791 C   0  0  2  0  0  0  0  0  0  0  0  0
   31.8987  -23.1009  -18.8190 N   0  0  0  0  0  0  0  0  0  0  0  0
   30.0303  -24.1558  -17.6912 C   0  0  0  0  0  0  0  0  0  0  0  0
   29.3579  -25.1215  -17.2556 O   0  0  0  0  0  0  0  0  0  0  0  0
   29.3883  -22.8665  -17.5723 N   0  0  0  0  0  0  0  0  0  0  0  0
   28.0548  -22.7077  -17.1215 C   0  0  1  0  0  0  0  0  0  0  0  0
   27.7646  -21.3750  -16.5536 C   0  0  0  0  0  0  0  0  0  0  0  0
   26.5877  -21.2644  -15.6362 C   0  0  0  0  0  0  0  0  0  0  0  0
   26.4084  -19.9537  -14.9989 C   0  0  0  0  0  0  0  0  0  0  0  0
   25.2573  -19.4283  -14.8095 O   0  0  0  0  0  0  0  0  0  0  0  0
   27.0321  -23.0962  -18.1205 C   0  0  0  0  0  0  0  0  0  0  0  0
   27.0441  -22.7090  -19.3146 O   0  0  0  0  0  0  0  0  0  0  0  0
   27.5020  -19.2239  -14.5704 O   0  0  0  0  0  0  0  0  0  0  0  0
   21.1432  -27.9762  -20.0567 C   0  0  0  0  0  0  0  0  0  0  0  0
   22.3453  -27.5200  -18.7876 S   0  0  0  0  0  0  0  0  0  0  0  0
   23.1728  -25.9852  -19.2865 C   0  0  0  0  0  0  0  0  0  0  0  0
   24.2379  -25.5919  -18.2768 C   0  0  0  0  0  0  0  0  0  0  0  0
   24.9651  -24.3376  -18.7085 C   0  0  2  0  0  0  0  0  0  0  0  0
   25.9762  -23.9512  -17.7246 N   0  0  0  0  0  0  0  0  0  0  0  0
   23.9667  -23.2534  -18.7860 C   0  0  0  0  0  0  0  0  0  0  0  0
   23.3579  -22.9802  -19.9956 O   0  0  0  0  0  0  0  0  0  0  0  0
   23.6437  -22.5612  -17.7902 O   0  0  0  0  0  0  0  0  0  0  0  0
  1  2  1  0
  2  3  1  0
  3  4  1  6
  5  3  1  0
  5  6  1  1
  7  8  2  0
  7  5  1  0
  9  7  1  0
 10  9  1  0
 10 11  1  6
 12 13  1  0
 12 11  1  0
 13 14  2  0
 15 23  1  0
 15 10  1  0
 16 15  2  0
 17 13  1  0
 19 18  1  0
 20 19  1  0
 20 21  1  0
 22 21  1  1
 22 24  1  0
 22 23  1  0
 24 25  1  0
 26 24  2  0
M  END
$$$$
