IEM.pdb
     RDKit          3D

 26 25  0  0  1  0  0  0  0  0999 V2000
   28.9167  -21.3213  -13.4904 C   0  0  0  0  0  0  0  0  0  0  0  0
   28.5331  -19.9360  -13.0908 C   0  0  0  0  0  0  0  0  0  0  0  0
   27.0149  -19.7552  -12.9445 C   0  0  2  0  0  0  0  0  0  0  0  0
   26.5846  -20.9743  -12.1074 C   0  0  0  0  0  0  0  0  0  0  0  0
   26.3770  -19.8949  -14.2927 C   0  0  2  0  0  0  0  0  0  0  0  0
   27.0461  -19.0153  -15.2237 N   0  0  0  0  0  0  0  0  0  0  0  0
   24.9166  -19.6655  -14.2656 C   0  0  0  0  0  0  0  0  0  0  0  0
   24.3970  -18.7493  -13.5836 O   0  0  0  0  0  0  0  0  0  0  0  0
   23.9791  -20.4704  -15.0152 N   0  0  0  0  0  0  0  0  0  0  0  0
   22.5748  -20.3208  -14.9062 C   0  0  1  0  0  0  0  0  0  0  0  0
   21.8503  -20.4780  -16.1842 C   0  0  0  0  0  0  0  0  0  0  0  0
   20.3800  -20.2007  -16.1752 C   0  0  0  0  0  0  0  0  0  0  0  0
   19.5271  -21.3166  -16.6038 C   0  0  0  0  0  0  0  0  0  0  0  0
   19.4837  -21.7288  -17.8142 O   0  0  0  0  0  0  0  0  0  0  0  0
   21.9628  -21.1484  -13.8408 C   0  0  0  0  0  0  0  0  0  0  0  0
   22.2815  -22.3421  -13.6179 O   0  0  0  0  0  0  0  0  0  0  0  0
   18.7222  -21.9771  -15.6938 O   0  0  0  0  0  0  0  0  0  0  0  0
   22.6223  -20.4542   -8.1534 C   0  0  0  0  0  0  0  0  0  0  0  0
   21.0512  -21.3002   -7.8715 S   0  0  0  0  0  0  0  0  0  0  0  0
   20.3539  -21.7937   -9.4715 C   0  0  0  0  0  0  0  0  0  0  0  0
   21.0133  -21.0301  -10.6076 C   0  0  0  0  0  0  0  0  0  0  0  0
   20.3851  -21.3790  -11.9388 C   0  0  2  0  0  0  0  0  0  0  0  0
   20.9622  -20.5781  -13.0183 N   0  0  0  0  0  0  0  0  0  0  0  0
   18.9485  -21.0532  -11.8476 C   0  0  0  0  0  0  0  0  0  0  0  0
   18.4893  -19.8653  -12.3827 O   0  0  0  0  0  0  0  0  0  0  0  0
   18.1171  -21.8166  -11.2986 O   0  0  0  0  0  0  0  0  0  0  0  0
  1  2  1  0
  2  3  1  0
  3  4  1  1
  5  3  1  0
  5  6  1  6
  7  8  2  0
  7  5  1  0
  9  7  1  0
 10  9  1  0
 10 11  1  6
 12 13  1  0
 12 11  1  0
 13 14  2  0
 15 23  1  0
 15 10  1  0
 16 15  2  0
 17 13  1  0
 19 18  1  0
 20 19  1  0
 20 21  1  0
 22 21  1  1
 22 24  1  0
 22 23  1  0
 24 25  1  0
 26 24  2  0
M  END
$$$$
