IEM.pdb
     RDKit          3D

 26 25  0  0  1  0  0  0  0  0999 V2000
   16.7997  -19.4384  -16.7814 C   0  0  0  0  0  0  0  0  0  0  0  0
   17.1778  -19.7054  -15.3631 C   0  0  0  0  0  0  0  0  0  0  0  0
   18.4339  -20.5798  -15.2340 C   0  0  2  0  0  0  0  0  0  0  0  0
   18.1360  -21.4617  -14.0070 C   0  0  0  0  0  0  0  0  0  0  0  0
   19.5991  -19.7069  -14.8808 C   0  0  2  0  0  0  0  0  0  0  0  0
   19.8693  -18.8131  -15.9837 N   0  0  0  0  0  0  0  0  0  0  0  0
   20.7974  -20.4775  -14.4857 C   0  0  0  0  0  0  0  0  0  0  0  0
   20.8224  -21.1908  -13.4536 O   0  0  0  0  0  0  0  0  0  0  0  0
   22.0246  -20.4711  -15.2489 N   0  0  0  0  0  0  0  0  0  0  0  0
   23.1730  -21.2081  -14.8687 C   0  0  1  0  0  0  0  0  0  0  0  0
   23.9510  -21.7418  -16.0057 C   0  0  0  0  0  0  0  0  0  0  0  0
   25.2079  -22.4870  -15.6841 C   0  0  0  0  0  0  0  0  0  0  0  0
   26.4320  -21.9454  -16.2880 C   0  0  0  0  0  0  0  0  0  0  0  0
   26.4143  -21.1079  -17.2549 O   0  0  0  0  0  0  0  0  0  0  0  0
   24.0503  -20.5008  -13.9072 C   0  0  0  0  0  0  0  0  0  0  0  0
   24.2963  -19.2711  -13.9648 O   0  0  0  0  0  0  0  0  0  0  0  0
   27.6760  -22.3297  -15.8222 O   0  0  0  0  0  0  0  0  0  0  0  0
   27.1985  -19.8610   -6.8105 C   0  0  0  0  0  0  0  0  0  0  0  0
   26.2235  -20.9107   -7.9110 S   0  0  0  0  0  0  0  0  0  0  0  0
   26.3503  -20.2672   -9.6019 C   0  0  0  0  0  0  0  0  0  0  0  0
   25.4329  -21.0311  -10.5418 C   0  0  0  0  0  0  0  0  0  0  0  0
   25.6014  -20.5644  -11.9708 C   0  0  2  0  0  0  0  0  0  0  0  0
   24.6525  -21.2360  -12.8586 N   0  0  0  0  0  0  0  0  0  0  0  0
   26.9651  -20.9341  -12.3978 C   0  0  0  0  0  0  0  0  0  0  0  0
   28.0287  -20.1320  -12.0321 O   0  0  0  0  0  0  0  0  0  0  0  0
   27.2026  -21.9562  -13.0863 O   0  0  0  0  0  0  0  0  0  0  0  0
  1  2  1  0
  2  3  1  0
  3  4  1  1
  5  3  1  0
  5  6  1  6
  7  8  2  0
  7  5  1  0
  9  7  1  0
 10  9  1  0
 10 11  1  6
 12 13  1  0
 12 11  1  0
 13 14  2  0
 15 23  1  0
 15 10  1  0
 16 15  2  0
 17 13  1  0
 19 18  1  0
 20 19  1  0
 20 21  1  0
 22 21  1  1
 22 24  1  0
 22 23  1  0
 24 25  1  0
 26 24  2  0
M  END
$$$$
