AYH.pdb
     RDKit          3D

 28 29  0  0  1  0  0  0  0  0999 V2000
   11.0183  -16.8519   18.8182 C   0  0  0  0  0  0  0  0  0  0  0  0
   10.1864  -17.5240   19.8755 C   0  0  2  0  0  0  0  0  0  0  0  0
    8.9086  -17.9547   19.4017 N   0  0  0  0  0  0  0  0  0  0  0  0
   10.0903  -16.7143   21.1217 C   0  0  0  0  0  0  0  0  0  0  0  0
   11.1305  -16.4842   21.7828 O   0  0  0  0  0  0  0  0  0  0  0  0
    6.8374  -11.8232   27.7891 O   0  0  0  0  0  0  0  0  0  0  0  0
    6.9801  -12.5222   26.5993 C   0  0  0  0  0  0  0  0  0  0  0  0
    7.8278  -12.0372   25.6211 C   0  0  0  0  0  0  0  0  0  0  0  0
    8.0116  -12.6848   24.4206 C   0  0  0  0  0  0  0  0  0  0  0  0
    7.3386  -13.8542   24.1673 C   0  0  0  0  0  0  0  0  0  0  0  0
    7.5326  -14.5417   22.8950 C   0  0  0  0  0  0  0  0  0  0  0  0
    8.6569  -15.5194   22.8327 C   0  0  2  0  0  0  0  0  0  0  0  0
    8.8568  -16.1879   21.5953 N   0  0  0  0  0  0  0  0  0  0  0  0
    8.7884  -16.3842   24.0453 C   0  0  0  0  0  0  0  0  0  0  0  0
    7.9530  -17.2669   24.3242 O   0  0  0  0  0  0  0  0  0  0  0  0
    6.4891  -14.3653   25.1147 C   0  0  0  0  0  0  0  0  0  0  0  0
    6.3139  -13.6984   26.3243 C   0  0  0  0  0  0  0  0  0  0  0  0
    9.9020  -16.1784   24.8968 N   0  0  0  0  0  0  0  0  0  0  0  0
   10.1607  -17.0259   26.0726 C   0  0  1  0  0  0  0  0  0  0  0  0
   11.4997  -17.6421   25.8633 C   0  0  0  0  0  0  0  0  0  0  0  0
   11.5405  -18.7864   24.9457 C   0  0  0  0  0  0  0  0  0  0  0  0
   10.3661  -19.3227   24.4071 C   0  0  0  0  0  0  0  0  0  0  0  0
   10.6568  -20.3479   23.6080 N   0  0  0  0  0  0  0  0  0  0  0  0
   11.9954  -20.4577   23.6414 C   0  0  0  0  0  0  0  0  0  0  0  0
   12.5217  -19.5240   24.4411 N   0  0  0  0  0  0  0  0  0  0  0  0
   10.0227  -16.2258   27.3088 C   0  0  0  0  0  0  0  0  0  0  0  0
    9.9135  -16.7766   28.5680 O   0  0  0  0  0  0  0  0  0  0  0  0
   10.0029  -14.9707   27.2070 O   0  0  0  0  0  0  0  0  0  0  0  0
  2  1  1  6
  2  3  1  0
  4  5  2  0
  4  2  1  0
  6  7  1  0
  7  8  2  0
  8  9  1  0
 10  9  2  0
 10 11  1  0
 12 11  1  6
 12 13  1  0
 13  4  1  0
 14 12  1  0
 15 14  2  0
 16 10  1  0
 17  7  1  0
 17 16  2  0
 18 14  1  0
 19 26  1  0
 19 18  1  0
 20 21  1  0
 19 20  1  6
 21 22  2  0
 21 25  1  0
 22 23  1  0
 23 24  1  0
 25 24  2  0
 26 27  1  0
 28 26  2  0
M  END
$$$$
