AYH.pdb
     RDKit          3D

 28 29  0  0  1  0  0  0  0  0999 V2000
   10.6315  -17.5603   18.5341 C   0  0  0  0  0  0  0  0  0  0  0  0
   10.4314  -17.9747   19.9659 C   0  0  2  0  0  0  0  0  0  0  0  0
    9.2344  -18.7270   20.1756 N   0  0  0  0  0  0  0  0  0  0  0  0
   10.5602  -16.8309   20.9110 C   0  0  0  0  0  0  0  0  0  0  0  0
   11.6552  -16.2255   20.9921 O   0  0  0  0  0  0  0  0  0  0  0  0
    7.1206  -13.3445   16.8617 O   0  0  0  0  0  0  0  0  0  0  0  0
    7.4727  -13.5300   18.1908 C   0  0  0  0  0  0  0  0  0  0  0  0
    6.7788  -14.4462   18.9585 C   0  0  0  0  0  0  0  0  0  0  0  0
    7.0805  -14.6750   20.2817 C   0  0  0  0  0  0  0  0  0  0  0  0
    8.1028  -13.9788   20.8776 C   0  0  0  0  0  0  0  0  0  0  0  0
    8.4237  -14.2203   22.2803 C   0  0  0  0  0  0  0  0  0  0  0  0
    9.4791  -15.2375   22.5548 C   0  0  2  0  0  0  0  0  0  0  0  0
    9.4830  -16.3949   21.7310 N   0  0  0  0  0  0  0  0  0  0  0  0
    9.7215  -15.4964   24.0073 C   0  0  0  0  0  0  0  0  0  0  0  0
    9.8219  -14.5719   24.8380 O   0  0  0  0  0  0  0  0  0  0  0  0
    8.8133  -13.0616   20.1467 C   0  0  0  0  0  0  0  0  0  0  0  0
    8.4958  -12.8415   18.8090 C   0  0  0  0  0  0  0  0  0  0  0  0
    9.8428  -16.8412   24.4365 N   0  0  0  0  0  0  0  0  0  0  0  0
    9.9389  -17.2074   25.8594 C   0  0  1  0  0  0  0  0  0  0  0  0
    8.6449  -17.8499   26.2189 C   0  0  0  0  0  0  0  0  0  0  0  0
    7.4456  -17.0291   26.0168 C   0  0  0  0  0  0  0  0  0  0  0  0
    7.3459  -15.7476   26.5688 C   0  0  0  0  0  0  0  0  0  0  0  0
    6.1729  -15.2030   26.2499 N   0  0  0  0  0  0  0  0  0  0  0  0
    5.5409  -16.1272   25.5072 C   0  0  0  0  0  0  0  0  0  0  0  0
    6.3027  -17.2175   25.3690 N   0  0  0  0  0  0  0  0  0  0  0  0
   11.1394  -18.0418   26.0834 C   0  0  0  0  0  0  0  0  0  0  0  0
   11.5308  -18.5013   27.3229 O   0  0  0  0  0  0  0  0  0  0  0  0
   11.8450  -18.3502   25.0869 O   0  0  0  0  0  0  0  0  0  0  0  0
  2  1  1  6
  2  3  1  0
  4  5  2  0
  4  2  1  0
  6  7  1  0
  7  8  2  0
  8  9  1  0
 10  9  2  0
 10 11  1  0
 12 11  1  1
 12 13  1  0
 13  4  1  0
 14 12  1  0
 15 14  2  0
 16 10  1  0
 17  7  1  0
 17 16  2  0
 18 14  1  0
 19 26  1  0
 19 18  1  0
 20 21  1  0
 19 20  1  6
 21 22  2  0
 21 25  1  0
 22 23  1  0
 23 24  1  0
 25 24  2  0
 26 27  1  0
 28 26  2  0
M  END
$$$$
