AYH.pdb
     RDKit          3D

 28 29  0  0  1  0  0  0  0  0999 V2000
    9.0200  -15.8383   18.1279 C   0  0  0  0  0  0  0  0  0  0  0  0
    8.9232  -16.8468   19.2392 C   0  0  2  0  0  0  0  0  0  0  0  0
    7.7544  -17.6657   19.1605 N   0  0  0  0  0  0  0  0  0  0  0  0
    9.0983  -16.2290   20.5830 C   0  0  0  0  0  0  0  0  0  0  0  0
   10.2570  -16.0046   21.0061 O   0  0  0  0  0  0  0  0  0  0  0  0
    7.4778  -11.7005   28.0234 O   0  0  0  0  0  0  0  0  0  0  0  0
    7.3310  -12.3756   26.8203 C   0  0  0  0  0  0  0  0  0  0  0  0
    7.9399  -11.8811   25.6823 C   0  0  0  0  0  0  0  0  0  0  0  0
    7.8315  -12.5050   24.4604 C   0  0  0  0  0  0  0  0  0  0  0  0
    7.0976  -13.6597   24.3477 C   0  0  0  0  0  0  0  0  0  0  0  0
    6.9818  -14.3223   23.0529 C   0  0  0  0  0  0  0  0  0  0  0  0
    8.0760  -15.2685   22.6906 C   0  0  2  0  0  0  0  0  0  0  0  0
    7.9958  -15.8810   21.4113 N   0  0  0  0  0  0  0  0  0  0  0  0
    8.4954  -16.1785   23.8004 C   0  0  0  0  0  0  0  0  0  0  0  0
    7.8071  -17.1570   24.1517 O   0  0  0  0  0  0  0  0  0  0  0  0
    6.4794  -14.1798   25.4558 C   0  0  0  0  0  0  0  0  0  0  0  0
    6.5985  -13.5367   26.6850 C   0  0  0  0  0  0  0  0  0  0  0  0
    9.7151  -15.9035   24.4668 N   0  0  0  0  0  0  0  0  0  0  0  0
   10.2743  -16.8046   25.4881 C   0  0  1  0  0  0  0  0  0  0  0  0
   11.7389  -16.8777   25.2312 C   0  0  0  0  0  0  0  0  0  0  0  0
   12.1522  -17.7577   24.1323 C   0  0  0  0  0  0  0  0  0  0  0  0
   11.3112  -17.9922   23.0393 C   0  0  0  0  0  0  0  0  0  0  0  0
   11.9018  -18.8186   22.1776 N   0  0  0  0  0  0  0  0  0  0  0  0
   13.0986  -19.1019   22.7186 C   0  0  0  0  0  0  0  0  0  0  0  0
   13.2464  -18.4674   23.8862 N   0  0  0  0  0  0  0  0  0  0  0  0
    9.8949  -16.3320   26.8372 C   0  0  0  0  0  0  0  0  0  0  0  0
    9.6733  -17.1722   27.9075 O   0  0  0  0  0  0  0  0  0  0  0  0
    9.7662  -15.0926   27.0199 O   0  0  0  0  0  0  0  0  0  0  0  0
  2  1  1  6
  2  3  1  0
  4  5  2  0
  4  2  1  0
  6  7  1  0
  7  8  2  0
  8  9  1  0
 10  9  2  0
 10 11  1  0
 12 11  1  1
 12 13  1  0
 13  4  1  0
 14 12  1  0
 15 14  2  0
 16 10  1  0
 17  7  1  0
 17 16  2  0
 18 14  1  0
 19 26  1  0
 19 18  1  0
 20 21  1  0
 19 20  1  1
 21 22  2  0
 21 25  1  0
 22 23  1  0
 23 24  1  0
 25 24  2  0
 26 27  1  0
 28 26  2  0
M  END
$$$$
