AYH.pdb
     RDKit          3D

 28 29  0  0  1  0  0  0  0  0999 V2000
    8.8841  -20.0681   18.9324 C   0  0  0  0  0  0  0  0  0  0  0  0
    9.0188  -18.6039   18.6172 C   0  0  2  0  0  0  0  0  0  0  0  0
    9.6907  -18.3501   17.3815 N   0  0  0  0  0  0  0  0  0  0  0  0
    9.5968  -17.8302   19.7510 C   0  0  0  0  0  0  0  0  0  0  0  0
   10.8417  -17.7969   19.8964 O   0  0  0  0  0  0  0  0  0  0  0  0
    8.1121  -11.3586   18.1832 O   0  0  0  0  0  0  0  0  0  0  0  0
    8.1886  -12.3199   19.1807 C   0  0  0  0  0  0  0  0  0  0  0  0
    9.3784  -12.5050   19.8594 C   0  0  0  0  0  0  0  0  0  0  0  0
    9.5169  -13.4418   20.8581 C   0  0  0  0  0  0  0  0  0  0  0  0
    8.4478  -14.2293   21.2066 C   0  0  0  0  0  0  0  0  0  0  0  0
    8.5933  -15.2229   22.2651 C   0  0  0  0  0  0  0  0  0  0  0  0
    9.2386  -16.5117   21.8824 C   0  0  2  0  0  0  0  0  0  0  0  0
    8.7872  -17.1225   20.6819 N   0  0  0  0  0  0  0  0  0  0  0  0
    9.4602  -17.4518   23.0238 C   0  0  0  0  0  0  0  0  0  0  0  0
    8.5143  -17.9720   23.6479 O   0  0  0  0  0  0  0  0  0  0  0  0
    7.2514  -14.0737   20.5547 C   0  0  0  0  0  0  0  0  0  0  0  0
    7.1272  -13.1214   19.5465 C   0  0  0  0  0  0  0  0  0  0  0  0
   10.7943  -17.7474   23.3982 N   0  0  0  0  0  0  0  0  0  0  0  0
   11.1166  -18.6738   24.4963 C   0  0  1  0  0  0  0  0  0  0  0  0
   12.4008  -19.3323   24.1308 C   0  0  0  0  0  0  0  0  0  0  0  0
   12.9134  -20.3128   25.0944 C   0  0  0  0  0  0  0  0  0  0  0  0
   12.0478  -21.1670   25.7857 C   0  0  0  0  0  0  0  0  0  0  0  0
   12.7426  -21.9617   26.5981 N   0  0  0  0  0  0  0  0  0  0  0  0
   14.0285  -21.6144   26.4224 C   0  0  0  0  0  0  0  0  0  0  0  0
   14.1288  -20.6293   25.5238 N   0  0  0  0  0  0  0  0  0  0  0  0
   11.1275  -17.9439   25.7825 C   0  0  0  0  0  0  0  0  0  0  0  0
   11.0214  -16.5731   25.8848 O   0  0  0  0  0  0  0  0  0  0  0  0
   11.2408  -18.6106   26.8449 O   0  0  0  0  0  0  0  0  0  0  0  0
  2  1  1  1
  2  3  1  0
  4  5  2  0
  4  2  1  0
  6  7  1  0
  7  8  2  0
  8  9  1  0
 10  9  2  0
 10 11  1  0
 12 11  1  1
 12 13  1  0
 13  4  1  0
 14 12  1  0
 15 14  2  0
 16 10  1  0
 17  7  1  0
 17 16  2  0
 18 14  1  0
 19 26  1  0
 19 18  1  0
 20 21  1  0
 19 20  1  6
 21 22  2  0
 21 25  1  0
 22 23  1  0
 23 24  1  0
 25 24  2  0
 26 27  1  0
 28 26  2  0
M  END
$$$$
