AYH.pdb
     RDKit          3D

 28 29  0  0  1  0  0  0  0  0999 V2000
    8.7308  -18.5852   19.6124 C   0  0  0  0  0  0  0  0  0  0  0  0
    9.0453  -17.1250   19.4374 C   0  0  2  0  0  0  0  0  0  0  0  0
   10.1715  -16.8859   18.5905 N   0  0  0  0  0  0  0  0  0  0  0  0
    9.1459  -16.4063   20.7380 C   0  0  0  0  0  0  0  0  0  0  0  0
   10.2484  -15.9194   21.0835 O   0  0  0  0  0  0  0  0  0  0  0  0
    7.0706  -11.2066   27.5393 O   0  0  0  0  0  0  0  0  0  0  0  0
    7.0295  -12.0147   26.4124 C   0  0  0  0  0  0  0  0  0  0  0  0
    7.7202  -11.6364   25.2765 C   0  0  0  0  0  0  0  0  0  0  0  0
    7.7182  -12.3950   24.1281 C   0  0  0  0  0  0  0  0  0  0  0  0
    7.0116  -13.5714   24.0899 C   0  0  0  0  0  0  0  0  0  0  0  0
    7.0085  -14.3766   22.8731 C   0  0  0  0  0  0  0  0  0  0  0  0
    8.0122  -15.4772   22.8023 C   0  0  2  0  0  0  0  0  0  0  0  0
    8.0333  -16.2492   21.6099 N   0  0  0  0  0  0  0  0  0  0  0  0
    8.1528  -16.2642   24.0658 C   0  0  0  0  0  0  0  0  0  0  0  0
    7.9944  -15.7481   25.1897 O   0  0  0  0  0  0  0  0  0  0  0  0
    6.3142  -13.9785   25.1982 C   0  0  0  0  0  0  0  0  0  0  0  0
    6.3261  -13.1999   26.3525 C   0  0  0  0  0  0  0  0  0  0  0  0
    8.4810  -17.6388   23.9652 N   0  0  0  0  0  0  0  0  0  0  0  0
    9.8241  -18.1524   24.2817 C   0  0  1  0  0  0  0  0  0  0  0  0
   10.7174  -17.7097   23.1760 C   0  0  0  0  0  0  0  0  0  0  0  0
   12.1048  -18.1818   23.2470 C   0  0  0  0  0  0  0  0  0  0  0  0
   12.4084  -19.4640   23.7168 C   0  0  0  0  0  0  0  0  0  0  0  0
   13.7254  -19.6611   23.6874 N   0  0  0  0  0  0  0  0  0  0  0  0
   14.2461  -18.5200   23.2061 C   0  0  0  0  0  0  0  0  0  0  0  0
   13.2766  -17.6373   22.9435 N   0  0  0  0  0  0  0  0  0  0  0  0
   10.2270  -17.7062   25.6330 C   0  0  0  0  0  0  0  0  0  0  0  0
   10.3634  -16.3821   25.9921 O   0  0  0  0  0  0  0  0  0  0  0  0
   10.4595  -18.5840   26.5056 O   0  0  0  0  0  0  0  0  0  0  0  0
  2  1  1  1
  2  3  1  0
  4  5  2  0
  4  2  1  0
  6  7  1  0
  7  8  2  0
  8  9  1  0
 10  9  2  0
 10 11  1  0
 12 11  1  1
 12 13  1  0
 13  4  1  0
 14 12  1  0
 15 14  2  0
 16 10  1  0
 17  7  1  0
 17 16  2  0
 18 14  1  0
 19 26  1  0
 19 18  1  0
 20 21  1  0
 19 20  1  6
 21 22  2  0
 21 25  1  0
 22 23  1  0
 23 24  1  0
 25 24  2  0
 26 27  1  0
 28 26  2  0
M  END
$$$$
