AYH.pdb
     RDKit          3D

 28 29  0  0  1  0  0  0  0  0999 V2000
    8.7879  -18.1542   19.5345 C   0  0  0  0  0  0  0  0  0  0  0  0
    9.3797  -16.7740   19.6143 C   0  0  2  0  0  0  0  0  0  0  0  0
   10.6479  -16.6632   18.9644 N   0  0  0  0  0  0  0  0  0  0  0  0
    9.4034  -16.2463   21.0067 C   0  0  0  0  0  0  0  0  0  0  0  0
   10.4279  -16.4195   21.7086 O   0  0  0  0  0  0  0  0  0  0  0  0
    7.0325  -11.8032   28.3491 O   0  0  0  0  0  0  0  0  0  0  0  0
    7.0897  -12.3200   27.0629 C   0  0  0  0  0  0  0  0  0  0  0  0
    6.3616  -13.4525   26.7502 C   0  0  0  0  0  0  0  0  0  0  0  0
    6.3771  -14.0124   25.4930 C   0  0  0  0  0  0  0  0  0  0  0  0
    7.1359  -13.4410   24.5019 C   0  0  0  0  0  0  0  0  0  0  0  0
    7.1532  -14.0336   23.1687 C   0  0  0  0  0  0  0  0  0  0  0  0
    8.2501  -15.0039   22.8872 C   0  0  2  0  0  0  0  0  0  0  0  0
    8.3025  -15.5487   21.5762 N   0  0  0  0  0  0  0  0  0  0  0  0
    8.5028  -15.9836   23.9880 C   0  0  0  0  0  0  0  0  0  0  0  0
    7.7339  -16.9385   24.2156 O   0  0  0  0  0  0  0  0  0  0  0  0
    7.8714  -12.3165   24.7757 C   0  0  0  0  0  0  0  0  0  0  0  0
    7.8452  -11.7619   26.0526 C   0  0  0  0  0  0  0  0  0  0  0  0
    9.6556  -15.8044   24.7920 N   0  0  0  0  0  0  0  0  0  0  0  0
   10.0000  -16.7234   25.8897 C   0  0  1  0  0  0  0  0  0  0  0  0
   11.4141  -17.1334   25.6698 C   0  0  0  0  0  0  0  0  0  0  0  0
   11.6234  -18.2107   24.6958 C   0  0  0  0  0  0  0  0  0  0  0  0
   10.5429  -18.8180   24.0471 C   0  0  0  0  0  0  0  0  0  0  0  0
   10.9814  -19.7614   23.2152 N   0  0  0  0  0  0  0  0  0  0  0  0
   12.3193  -19.7501   23.3368 C   0  0  0  0  0  0  0  0  0  0  0  0
   12.7012  -18.8232   24.2217 N   0  0  0  0  0  0  0  0  0  0  0  0
    9.7277  -16.0758   27.1911 C   0  0  0  0  0  0  0  0  0  0  0  0
    9.4183  -16.7705   28.3411 O   0  0  0  0  0  0  0  0  0  0  0  0
    9.7806  -14.8191   27.2539 O   0  0  0  0  0  0  0  0  0  0  0  0
  2  1  1  1
  2  3  1  0
  4  5  2  0
  4  2  1  0
  6  7  1  0
  7  8  2  0
  8  9  1  0
 10  9  2  0
 10 11  1  0
 12 11  1  1
 12 13  1  0
 13  4  1  0
 14 12  1  0
 15 14  2  0
 16 10  1  0
 17  7  1  0
 17 16  2  0
 18 14  1  0
 19 26  1  0
 19 18  1  0
 20 21  1  0
 19 20  1  1
 21 22  2  0
 21 25  1  0
 22 23  1  0
 23 24  1  0
 25 24  2  0
 26 27  1  0
 28 26  2  0
M  END
$$$$
