AYH.pdb
     RDKit          3D

 28 29  0  0  1  0  0  0  0  0999 V2000
    8.0849  -20.3360   26.0024 C   0  0  0  0  0  0  0  0  0  0  0  0
    8.9117  -19.3257   25.2558 C   0  0  2  0  0  0  0  0  0  0  0  0
    9.5163  -18.3491   26.1064 N   0  0  0  0  0  0  0  0  0  0  0  0
    8.1689  -18.7125   24.1199 C   0  0  0  0  0  0  0  0  0  0  0  0
    7.7143  -19.4531   23.2161 O   0  0  0  0  0  0  0  0  0  0  0  0
    7.6287  -12.2362   27.6549 O   0  0  0  0  0  0  0  0  0  0  0  0
    7.2974  -13.0429   26.5758 C   0  0  0  0  0  0  0  0  0  0  0  0
    6.7859  -14.3070   26.8013 C   0  0  0  0  0  0  0  0  0  0  0  0
    6.4387  -15.1536   25.7733 C   0  0  0  0  0  0  0  0  0  0  0  0
    6.5985  -14.7466   24.4719 C   0  0  0  0  0  0  0  0  0  0  0  0
    6.2309  -15.6431   23.3811 C   0  0  0  0  0  0  0  0  0  0  0  0
    7.2541  -16.6486   22.9739 C   0  0  2  0  0  0  0  0  0  0  0  0
    7.9532  -17.3103   24.0187 N   0  0  0  0  0  0  0  0  0  0  0  0
    8.1007  -16.2304   21.8146 C   0  0  0  0  0  0  0  0  0  0  0  0
    7.6223  -15.6543   20.8176 O   0  0  0  0  0  0  0  0  0  0  0  0
    7.1033  -13.4987   24.2101 C   0  0  0  0  0  0  0  0  0  0  0  0
    7.4498  -12.6539   25.2612 C   0  0  0  0  0  0  0  0  0  0  0  0
    9.4890  -16.5088   21.8647 N   0  0  0  0  0  0  0  0  0  0  0  0
   10.4274  -16.0180   20.8417 C   0  0  1  0  0  0  0  0  0  0  0  0
   10.3252  -14.5328   20.8520 C   0  0  0  0  0  0  0  0  0  0  0  0
    9.4166  -13.9475   19.8597 C   0  0  0  0  0  0  0  0  0  0  0  0
    8.6989  -14.7560   18.9719 C   0  0  0  0  0  0  0  0  0  0  0  0
    7.9468  -14.0010   18.1728 N   0  0  0  0  0  0  0  0  0  0  0  0
    8.1861  -12.7340   18.5504 C   0  0  0  0  0  0  0  0  0  0  0  0
    9.0644  -12.7039   19.5582 N   0  0  0  0  0  0  0  0  0  0  0  0
   11.7799  -16.5575   21.1004 C   0  0  0  0  0  0  0  0  0  0  0  0
   12.8084  -16.5152   20.1832 O   0  0  0  0  0  0  0  0  0  0  0  0
   12.0062  -17.0861   22.2208 O   0  0  0  0  0  0  0  0  0  0  0  0
  2  1  1  1
  2  3  1  0
  4  5  2  0
  4  2  1  0
  6  7  1  0
  7  8  2  0
  8  9  1  0
 10  9  2  0
 10 11  1  0
 12 11  1  1
 12 13  1  0
 13  4  1  0
 14 12  1  0
 15 14  2  0
 16 10  1  0
 17  7  1  0
 17 16  2  0
 18 14  1  0
 19 26  1  0
 19 18  1  0
 20 21  1  0
 19 20  1  1
 21 22  2  0
 21 25  1  0
 22 23  1  0
 23 24  1  0
 25 24  2  0
 26 27  1  0
 28 26  2  0
M  END
$$$$
