AYH.pdb
     RDKit          3D

 28 29  0  0  1  0  0  0  0  0999 V2000
    8.8965  -20.5544   16.7459 C   0  0  0  0  0  0  0  0  0  0  0  0
    9.1381  -19.1689   16.2136 C   0  0  2  0  0  0  0  0  0  0  0  0
   10.1715  -19.1132   15.2278 N   0  0  0  0  0  0  0  0  0  0  0  0
    9.3311  -18.1691   17.3004 C   0  0  0  0  0  0  0  0  0  0  0  0
   10.4838  -17.9736   17.7534 O   0  0  0  0  0  0  0  0  0  0  0  0
    7.8229  -11.5052   22.9714 O   0  0  0  0  0  0  0  0  0  0  0  0
    7.6530  -12.5254   22.0467 C   0  0  0  0  0  0  0  0  0  0  0  0
    8.0227  -12.3213   20.7306 C   0  0  0  0  0  0  0  0  0  0  0  0
    7.8790  -13.2939   19.7675 C   0  0  0  0  0  0  0  0  0  0  0  0
    7.3521  -14.5155   20.1060 C   0  0  0  0  0  0  0  0  0  0  0  0
    7.1992  -15.5475   19.0859 C   0  0  0  0  0  0  0  0  0  0  0  0
    8.3435  -16.4885   18.9160 C   0  0  2  0  0  0  0  0  0  0  0  0
    8.2524  -17.4218   17.8489 N   0  0  0  0  0  0  0  0  0  0  0  0
    8.8783  -17.0448   20.1967 C   0  0  0  0  0  0  0  0  0  0  0  0
    8.4796  -18.1287   20.6666 O   0  0  0  0  0  0  0  0  0  0  0  0
    6.9741  -14.7539   21.4025 C   0  0  0  0  0  0  0  0  0  0  0  0
    7.1259  -13.7597   22.3654 C   0  0  0  0  0  0  0  0  0  0  0  0
    9.8667  -16.3017   20.8883 N   0  0  0  0  0  0  0  0  0  0  0  0
   10.4611  -16.7682   22.1520 C   0  0  1  0  0  0  0  0  0  0  0  0
   11.9188  -16.9330   21.8981 C   0  0  0  0  0  0  0  0  0  0  0  0
   12.3084  -18.1486   21.1746 C   0  0  0  0  0  0  0  0  0  0  0  0
   11.7127  -19.3816   21.4606 C   0  0  0  0  0  0  0  0  0  0  0  0
   12.2274  -20.3296   20.6792 N   0  0  0  0  0  0  0  0  0  0  0  0
   13.1350  -19.7044   19.9108 C   0  0  0  0  0  0  0  0  0  0  0  0
   13.1821  -18.4016   20.2081 N   0  0  0  0  0  0  0  0  0  0  0  0
   10.1145  -15.8344   23.2452 C   0  0  0  0  0  0  0  0  0  0  0  0
   10.4949  -16.0183   24.5575 O   0  0  0  0  0  0  0  0  0  0  0  0
    9.4330  -14.8136   22.9630 O   0  0  0  0  0  0  0  0  0  0  0  0
  2  1  1  1
  2  3  1  0
  4  5  2  0
  4  2  1  0
  6  7  1  0
  7  8  2  0
  8  9  1  0
 10  9  2  0
 10 11  1  0
 12 11  1  1
 12 13  1  0
 13  4  1  0
 14 12  1  0
 15 14  2  0
 16 10  1  0
 17  7  1  0
 17 16  2  0
 18 14  1  0
 19 26  1  0
 19 18  1  0
 20 21  1  0
 19 20  1  6
 21 22  2  0
 21 25  1  0
 22 23  1  0
 23 24  1  0
 25 24  2  0
 26 27  1  0
 28 26  2  0
M  END
$$$$
