AYH.pdb
     RDKit          3D

 28 29  0  0  1  0  0  0  0  0999 V2000
   10.0409  -19.1145   20.8412 C   0  0  0  0  0  0  0  0  0  0  0  0
    9.8498  -17.7277   20.2918 C   0  0  2  0  0  0  0  0  0  0  0  0
   10.7875  -17.3903   19.2672 N   0  0  0  0  0  0  0  0  0  0  0  0
    9.7806  -16.6969   21.3645 C   0  0  0  0  0  0  0  0  0  0  0  0
   10.8001  -16.0144   21.6230 O   0  0  0  0  0  0  0  0  0  0  0  0
    6.5149  -11.3509   27.6953 O   0  0  0  0  0  0  0  0  0  0  0  0
    6.6817  -12.1916   26.6043 C   0  0  0  0  0  0  0  0  0  0  0  0
    6.2134  -13.4905   26.6666 C   0  0  0  0  0  0  0  0  0  0  0  0
    6.3487  -14.3717   25.6181 C   0  0  0  0  0  0  0  0  0  0  0  0
    6.9674  -13.9652   24.4619 C   0  0  0  0  0  0  0  0  0  0  0  0
    7.1115  -14.8984   23.3496 C   0  0  0  0  0  0  0  0  0  0  0  0
    8.4567  -15.5171   23.1715 C   0  0  2  0  0  0  0  0  0  0  0  0
    8.5957  -16.4541   22.1128 N   0  0  0  0  0  0  0  0  0  0  0  0
    9.1301  -15.9042   24.4490 C   0  0  0  0  0  0  0  0  0  0  0  0
    9.2299  -15.1173   25.4111 O   0  0  0  0  0  0  0  0  0  0  0  0
    7.4447  -12.6834   24.3642 C   0  0  0  0  0  0  0  0  0  0  0  0
    7.3000  -11.8038   25.4338 C   0  0  0  0  0  0  0  0  0  0  0  0
    9.6707  -17.2098   24.5519 N   0  0  0  0  0  0  0  0  0  0  0  0
   10.4100  -17.6639   25.7414 C   0  0  1  0  0  0  0  0  0  0  0  0
   10.1410  -19.1220   25.8754 C   0  0  0  0  0  0  0  0  0  0  0  0
    8.7610  -19.4893   26.2121 C   0  0  0  0  0  0  0  0  0  0  0  0
    8.1424  -18.9940   27.3649 C   0  0  0  0  0  0  0  0  0  0  0  0
    6.8997  -19.4651   27.4547 N   0  0  0  0  0  0  0  0  0  0  0  0
    6.7357  -20.2466   26.3742 C   0  0  0  0  0  0  0  0  0  0  0  0
    7.8486  -20.2599   25.6330 N   0  0  0  0  0  0  0  0  0  0  0  0
   11.8371  -17.2963   25.6166 C   0  0  0  0  0  0  0  0  0  0  0  0
   12.7567  -17.4442   26.6331 O   0  0  0  0  0  0  0  0  0  0  0  0
   12.2362  -16.8206   24.5210 O   0  0  0  0  0  0  0  0  0  0  0  0
  2  1  1  1
  2  3  1  0
  4  5  2  0
  4  2  1  0
  6  7  1  0
  7  8  2  0
  8  9  1  0
 10  9  2  0
 10 11  1  0
 12 11  1  1
 12 13  1  0
 13  4  1  0
 14 12  1  0
 15 14  2  0
 16 10  1  0
 17  7  1  0
 17 16  2  0
 18 14  1  0
 19 26  1  0
 19 18  1  0
 20 21  1  0
 19 20  1  6
 21 22  2  0
 21 25  1  0
 22 23  1  0
 23 24  1  0
 25 24  2  0
 26 27  1  0
 28 26  2  0
M  END
$$$$
