AYH.pdb
     RDKit          3D

 28 29  0  0  1  0  0  0  0  0999 V2000
   11.1813  -17.1593   19.3677 C   0  0  0  0  0  0  0  0  0  0  0  0
   10.5648  -17.6020   20.6659 C   0  0  2  0  0  0  0  0  0  0  0  0
    9.4523  -18.4825   20.4933 N   0  0  0  0  0  0  0  0  0  0  0  0
   10.2526  -16.4568   21.5655 C   0  0  0  0  0  0  0  0  0  0  0  0
   11.1743  -15.6776   21.9051 O   0  0  0  0  0  0  0  0  0  0  0  0
    7.5629  -12.6915   17.2175 O   0  0  0  0  0  0  0  0  0  0  0  0
    7.5929  -13.0325   18.5620 C   0  0  0  0  0  0  0  0  0  0  0  0
    6.9250  -14.1630   18.9937 C   0  0  0  0  0  0  0  0  0  0  0  0
    6.9175  -14.5534   20.3134 C   0  0  0  0  0  0  0  0  0  0  0  0
    7.5909  -13.8071   21.2485 C   0  0  0  0  0  0  0  0  0  0  0  0
    7.5838  -14.2198   22.6480 C   0  0  0  0  0  0  0  0  0  0  0  0
    8.5889  -15.2484   23.0425 C   0  0  2  0  0  0  0  0  0  0  0  0
    8.9414  -16.2101   22.0582 N   0  0  0  0  0  0  0  0  0  0  0  0
    8.4003  -15.7963   24.4208 C   0  0  0  0  0  0  0  0  0  0  0  0
    7.2808  -16.1362   24.8520 O   0  0  0  0  0  0  0  0  0  0  0  0
    8.2649  -12.6789   20.8567 C   0  0  0  0  0  0  0  0  0  0  0  0
    8.2630  -12.2973   19.5177 C   0  0  0  0  0  0  0  0  0  0  0  0
    9.5403  -15.9233   25.2525 N   0  0  0  0  0  0  0  0  0  0  0  0
    9.8552  -17.1692   25.9712 C   0  0  1  0  0  0  0  0  0  0  0  0
    9.9121  -18.2464   24.9451 C   0  0  0  0  0  0  0  0  0  0  0  0
   10.1974  -19.5947   25.4488 C   0  0  0  0  0  0  0  0  0  0  0  0
   10.3385  -19.8391   26.8189 C   0  0  0  0  0  0  0  0  0  0  0  0
   10.5926  -21.1297   27.0288 N   0  0  0  0  0  0  0  0  0  0  0  0
   10.6117  -21.6923   25.8089 C   0  0  0  0  0  0  0  0  0  0  0  0
   10.3754  -20.7738   24.8662 N   0  0  0  0  0  0  0  0  0  0  0  0
   11.0894  -16.9921   26.7667 C   0  0  0  0  0  0  0  0  0  0  0  0
   12.1452  -16.1975   26.3734 O   0  0  0  0  0  0  0  0  0  0  0  0
   11.1828  -17.6012   27.8649 O   0  0  0  0  0  0  0  0  0  0  0  0
  2  1  1  6
  2  3  1  0
  4  5  2  0
  4  2  1  0
  6  7  1  0
  7  8  2  0
  8  9  1  0
 10  9  2  0
 10 11  1  0
 12 11  1  6
 12 13  1  0
 13  4  1  0
 14 12  1  0
 15 14  2  0
 16 10  1  0
 17  7  1  0
 17 16  2  0
 18 14  1  0
 19 26  1  0
 19 18  1  0
 20 21  1  0
 19 20  1  6
 21 22  2  0
 21 25  1  0
 22 23  1  0
 23 24  1  0
 25 24  2  0
 26 27  1  0
 28 26  2  0
M  END
$$$$
