AYH.pdb
     RDKit          3D

 28 29  0  0  1  0  0  0  0  0999 V2000
    9.4247  -19.4594   21.8403 C   0  0  0  0  0  0  0  0  0  0  0  0
    9.5108  -18.3313   20.8496 C   0  0  2  0  0  0  0  0  0  0  0  0
   10.3673  -18.6152   19.7412 N   0  0  0  0  0  0  0  0  0  0  0  0
    9.8292  -17.0291   21.4985 C   0  0  0  0  0  0  0  0  0  0  0  0
   11.0043  -16.5943   21.4520 O   0  0  0  0  0  0  0  0  0  0  0  0
    7.7184  -13.3030   16.6303 O   0  0  0  0  0  0  0  0  0  0  0  0
    7.7877  -13.4731   18.0055 C   0  0  0  0  0  0  0  0  0  0  0  0
    8.7299  -12.7706   18.7328 C   0  0  0  0  0  0  0  0  0  0  0  0
    8.8480  -12.8964   20.0983 C   0  0  0  0  0  0  0  0  0  0  0  0
    8.0100  -13.7440   20.7794 C   0  0  0  0  0  0  0  0  0  0  0  0
    8.1341  -13.8784   22.2270 C   0  0  0  0  0  0  0  0  0  0  0  0
    9.0397  -14.9562   22.7190 C   0  0  2  0  0  0  0  0  0  0  0  0
    8.8465  -16.2537   22.1738 N   0  0  0  0  0  0  0  0  0  0  0  0
    9.2932  -14.9223   24.1921 C   0  0  0  0  0  0  0  0  0  0  0  0
    9.2950  -13.8572   24.8405 O   0  0  0  0  0  0  0  0  0  0  0  0
    7.0628  -14.4574   20.0907 C   0  0  0  0  0  0  0  0  0  0  0  0
    6.9559  -14.3191   18.7093 C   0  0  0  0  0  0  0  0  0  0  0  0
    9.5419  -16.1485   24.8569 N   0  0  0  0  0  0  0  0  0  0  0  0
    9.1502  -16.3777   26.2576 C   0  0  1  0  0  0  0  0  0  0  0  0
    7.6684  -16.2435   26.3096 C   0  0  0  0  0  0  0  0  0  0  0  0
    7.1551  -14.8771   26.4590 C   0  0  0  0  0  0  0  0  0  0  0  0
    8.0143  -13.8092   26.7388 C   0  0  0  0  0  0  0  0  0  0  0  0
    7.3202  -12.6758   26.8280 N   0  0  0  0  0  0  0  0  0  0  0  0
    6.0411  -13.0228   26.6076 C   0  0  0  0  0  0  0  0  0  0  0  0
    5.9443  -14.3382   26.3874 N   0  0  0  0  0  0  0  0  0  0  0  0
    9.6808  -17.6780   26.7213 C   0  0  0  0  0  0  0  0  0  0  0  0
   10.2519  -18.6131   25.8846 O   0  0  0  0  0  0  0  0  0  0  0  0
    9.6069  -17.9479   27.9492 O   0  0  0  0  0  0  0  0  0  0  0  0
  2  1  1  1
  2  3  1  0
  4  5  2  0
  4  2  1  0
  6  7  1  0
  7  8  2  0
  8  9  1  0
 10  9  2  0
 10 11  1  0
 12 11  1  1
 12 13  1  0
 13  4  1  0
 14 12  1  0
 15 14  2  0
 16 10  1  0
 17  7  1  0
 17 16  2  0
 18 14  1  0
 19 26  1  0
 19 18  1  0
 20 21  1  0
 19 20  1  6
 21 22  2  0
 21 25  1  0
 22 23  1  0
 23 24  1  0
 25 24  2  0
 26 27  1  0
 28 26  2  0
M  END
$$$$
