AYH.pdb
     RDKit          3D

 28 29  0  0  1  0  0  0  0  0999 V2000
    7.3825  -13.6264   19.1547 C   0  0  0  0  0  0  0  0  0  0  0  0
    8.2510  -14.7873   19.5541 C   0  0  2  0  0  0  0  0  0  0  0  0
    7.5306  -16.0148   19.6847 N   0  0  0  0  0  0  0  0  0  0  0  0
    9.0872  -14.4858   20.7490 C   0  0  0  0  0  0  0  0  0  0  0  0
    9.8928  -13.5261   20.7048 O   0  0  0  0  0  0  0  0  0  0  0  0
    6.2731  -11.5122   28.2725 O   0  0  0  0  0  0  0  0  0  0  0  0
    6.5380  -12.1206   27.0541 C   0  0  0  0  0  0  0  0  0  0  0  0
    7.3450  -11.4794   26.1331 C   0  0  0  0  0  0  0  0  0  0  0  0
    7.6444  -12.0311   24.9082 C   0  0  0  0  0  0  0  0  0  0  0  0
    7.1334  -13.2599   24.5711 C   0  0  0  0  0  0  0  0  0  0  0  0
    7.4499  -13.8459   23.2729 C   0  0  0  0  0  0  0  0  0  0  0  0
    8.6308  -14.7552   23.2247 C   0  0  2  0  0  0  0  0  0  0  0  0
    9.0077  -15.2485   21.9469 N   0  0  0  0  0  0  0  0  0  0  0  0
    8.6774  -15.7626   24.3286 C   0  0  0  0  0  0  0  0  0  0  0  0
    8.2892  -15.4991   25.4838 O   0  0  0  0  0  0  0  0  0  0  0  0
    6.3288  -13.9255   25.4601 C   0  0  0  0  0  0  0  0  0  0  0  0
    6.0352  -13.3540   26.6954 C   0  0  0  0  0  0  0  0  0  0  0  0
    9.1858  -17.0525   24.0367 N   0  0  0  0  0  0  0  0  0  0  0  0
   10.3771  -17.5991   24.7075 C   0  0  1  0  0  0  0  0  0  0  0  0
   11.5562  -16.9545   24.0668 C   0  0  0  0  0  0  0  0  0  0  0  0
   11.8420  -17.3701   22.6889 C   0  0  0  0  0  0  0  0  0  0  0  0
   11.0518  -18.3280   22.0448 C   0  0  0  0  0  0  0  0  0  0  0  0
   11.5045  -18.5379   20.8097 N   0  0  0  0  0  0  0  0  0  0  0  0
   12.5653  -17.7243   20.6758 C   0  0  0  0  0  0  0  0  0  0  0  0
   12.7654  -17.0274   21.7993 N   0  0  0  0  0  0  0  0  0  0  0  0
   10.2672  -17.3987   26.1687 C   0  0  0  0  0  0  0  0  0  0  0  0
   10.8912  -18.2016   27.0997 O   0  0  0  0  0  0  0  0  0  0  0  0
    9.5638  -16.4418   26.5876 O   0  0  0  0  0  0  0  0  0  0  0  0
  2  1  1  1
  2  3  1  0
  4  5  2  0
  4  2  1  0
  6  7  1  0
  7  8  2  0
  8  9  1  0
 10  9  2  0
 10 11  1  0
 12 11  1  6
 12 13  1  0
 13  4  1  0
 14 12  1  0
 15 14  2  0
 16 10  1  0
 17  7  1  0
 17 16  2  0
 18 14  1  0
 19 26  1  0
 19 18  1  0
 20 21  1  0
 19 20  1  6
 21 22  2  0
 21 25  1  0
 22 23  1  0
 23 24  1  0
 25 24  2  0
 26 27  1  0
 28 26  2  0
M  END
$$$$
