AYH.pdb
     RDKit          3D

 28 29  0  0  1  0  0  0  0  0999 V2000
    8.4073  -19.8449   19.2026 C   0  0  0  0  0  0  0  0  0  0  0  0
    8.9169  -18.4869   18.8056 C   0  0  2  0  0  0  0  0  0  0  0  0
    9.7006  -18.5033   17.6104 N   0  0  0  0  0  0  0  0  0  0  0  0
    9.6016  -17.7873   19.9280 C   0  0  0  0  0  0  0  0  0  0  0  0
   10.8543  -17.7369   19.9433 O   0  0  0  0  0  0  0  0  0  0  0  0
    7.3906  -11.9167   17.9123 O   0  0  0  0  0  0  0  0  0  0  0  0
    7.7849  -12.6846   18.9984 C   0  0  0  0  0  0  0  0  0  0  0  0
    6.8472  -13.4433   19.6733 C   0  0  0  0  0  0  0  0  0  0  0  0
    7.1763  -14.2250   20.7572 C   0  0  0  0  0  0  0  0  0  0  0  0
    8.4757  -14.2658   21.1985 C   0  0  0  0  0  0  0  0  0  0  0  0
    8.8260  -15.0941   22.3474 C   0  0  0  0  0  0  0  0  0  0  0  0
    9.4560  -16.4123   22.0488 C   0  0  2  0  0  0  0  0  0  0  0  0
    8.8860  -17.1697   20.9907 N   0  0  0  0  0  0  0  0  0  0  0  0
    9.8307  -17.2040   23.2606 C   0  0  0  0  0  0  0  0  0  0  0  0
    8.9750  -17.7201   24.0064 O   0  0  0  0  0  0  0  0  0  0  0  0
    9.4332  -13.5259   20.5533 C   0  0  0  0  0  0  0  0  0  0  0  0
    9.0844  -12.7400   19.4581 C   0  0  0  0  0  0  0  0  0  0  0  0
   11.2069  -17.3599   23.5591 N   0  0  0  0  0  0  0  0  0  0  0  0
   11.6770  -18.1179   24.7306 C   0  0  1  0  0  0  0  0  0  0  0  0
   13.0494  -18.5933   24.4037 C   0  0  0  0  0  0  0  0  0  0  0  0
   13.1444  -19.5736   23.3161 C   0  0  0  0  0  0  0  0  0  0  0  0
   12.1683  -19.6400   22.3162 C   0  0  0  0  0  0  0  0  0  0  0  0
   12.4707  -20.6020   21.4459 N   0  0  0  0  0  0  0  0  0  0  0  0
   13.6212  -21.1355   21.8898 C   0  0  0  0  0  0  0  0  0  0  0  0
   14.0222  -20.5199   23.0071 N   0  0  0  0  0  0  0  0  0  0  0  0
   11.5738  -17.2805   25.9453 C   0  0  0  0  0  0  0  0  0  0  0  0
   11.1665  -15.9634   25.9338 O   0  0  0  0  0  0  0  0  0  0  0  0
   11.8752  -17.7981   27.0531 O   0  0  0  0  0  0  0  0  0  0  0  0
  2  1  1  1
  2  3  1  0
  4  5  2  0
  4  2  1  0
  6  7  1  0
  7  8  2  0
  8  9  1  0
 10  9  2  0
 10 11  1  0
 12 11  1  1
 12 13  1  0
 13  4  1  0
 14 12  1  0
 15 14  2  0
 16 10  1  0
 17  7  1  0
 17 16  2  0
 18 14  1  0
 19 26  1  0
 19 18  1  0
 20 21  1  0
 19 20  1  6
 21 22  2  0
 21 25  1  0
 22 23  1  0
 23 24  1  0
 25 24  2  0
 26 27  1  0
 28 26  2  0
M  END
$$$$
