AYH.pdb
     RDKit          3D

 28 29  0  0  1  0  0  0  0  0999 V2000
   10.4310  -17.4309   19.3735 C   0  0  0  0  0  0  0  0  0  0  0  0
    9.7302  -18.0151   20.5690 C   0  0  2  0  0  0  0  0  0  0  0  0
    8.4589  -18.5883   20.2560 N   0  0  0  0  0  0  0  0  0  0  0  0
    9.6607  -17.0594   21.7091 C   0  0  0  0  0  0  0  0  0  0  0  0
   10.7253  -16.6094   22.1952 O   0  0  0  0  0  0  0  0  0  0  0  0
    7.5754  -12.5492   17.6710 O   0  0  0  0  0  0  0  0  0  0  0  0
    7.5593  -13.0010   18.9827 C   0  0  0  0  0  0  0  0  0  0  0  0
    6.6432  -13.9646   19.3606 C   0  0  0  0  0  0  0  0  0  0  0  0
    6.5778  -14.4527   20.6458 C   0  0  0  0  0  0  0  0  0  0  0  0
    7.4439  -13.9786   21.5996 C   0  0  0  0  0  0  0  0  0  0  0  0
    7.3756  -14.4952   22.9625 C   0  0  0  0  0  0  0  0  0  0  0  0
    8.2677  -15.6467   23.2820 C   0  0  2  0  0  0  0  0  0  0  0  0
    8.4261  -16.6337   22.2726 N   0  0  0  0  0  0  0  0  0  0  0  0
    8.1082  -16.1826   24.6687 C   0  0  0  0  0  0  0  0  0  0  0  0
    7.9251  -15.4367   25.6510 O   0  0  0  0  0  0  0  0  0  0  0  0
    8.3665  -13.0223   21.2609 C   0  0  0  0  0  0  0  0  0  0  0  0
    8.4201  -12.5385   19.9563 C   0  0  0  0  0  0  0  0  0  0  0  0
    8.1738  -17.5855   24.8559 N   0  0  0  0  0  0  0  0  0  0  0  0
    7.9876  -18.2129   26.1748 C   0  0  1  0  0  0  0  0  0  0  0  0
    7.0538  -19.3546   25.9718 C   0  0  0  0  0  0  0  0  0  0  0  0
    6.8640  -20.2385   27.1275 C   0  0  0  0  0  0  0  0  0  0  0  0
    7.4356  -19.9379   28.3684 C   0  0  0  0  0  0  0  0  0  0  0  0
    7.1248  -20.8821   29.2551 N   0  0  0  0  0  0  0  0  0  0  0  0
    6.3679  -21.7662   28.5839 C   0  0  0  0  0  0  0  0  0  0  0  0
    6.2131  -21.3802   27.3130 N   0  0  0  0  0  0  0  0  0  0  0  0
    9.3019  -18.5698   26.7514 C   0  0  0  0  0  0  0  0  0  0  0  0
    9.5081  -18.8117   28.0930 O   0  0  0  0  0  0  0  0  0  0  0  0
   10.2892  -18.6576   25.9746 O   0  0  0  0  0  0  0  0  0  0  0  0
  2  1  1  6
  2  3  1  0
  4  5  2  0
  4  2  1  0
  6  7  1  0
  7  8  2  0
  8  9  1  0
 10  9  2  0
 10 11  1  0
 12 11  1  6
 12 13  1  0
 13  4  1  0
 14 12  1  0
 15 14  2  0
 16 10  1  0
 17  7  1  0
 17 16  2  0
 18 14  1  0
 19 26  1  0
 19 18  1  0
 20 21  1  0
 19 20  1  6
 21 22  2  0
 21 25  1  0
 22 23  1  0
 23 24  1  0
 25 24  2  0
 26 27  1  0
 28 26  2  0
M  END
$$$$
