WLV.pdb
     RDKit          3D

 30 31  0  0  1  0  0  0  0  0999 V2000
   26.2032  -18.9947  -16.2959 N   0  0  0  0  0  0  0  0  0  0  0  0
   25.0504  -19.5046  -15.6244 C   0  0  1  0  0  0  0  0  0  0  0  0
   24.0021  -20.1105  -16.4880 C   0  0  0  0  0  0  0  0  0  0  0  0
   23.5784  -19.1458  -17.5213 C   0  0  0  0  0  0  0  0  0  0  0  0
   24.0520  -19.0610  -18.8183 C   0  0  0  0  0  0  0  0  0  0  0  0
   23.3910  -18.0758  -19.4368 N   0  0  0  0  0  0  0  0  0  0  0  0
   22.5024  -17.5098  -18.5969 C   0  0  0  0  0  0  0  0  0  0  0  0
   21.5964  -16.4551  -18.7713 C   0  0  0  0  0  0  0  0  0  0  0  0
   20.8154  -16.0934  -17.7085 C   0  0  0  0  0  0  0  0  0  0  0  0
   20.9370  -16.7617  -16.5170 C   0  0  0  0  0  0  0  0  0  0  0  0
   21.8159  -17.7969  -16.3219 C   0  0  0  0  0  0  0  0  0  0  0  0
   22.6144  -18.1739  -17.3960 C   0  0  0  0  0  0  0  0  0  0  0  0
   25.5430  -20.4745  -14.5829 C   0  0  0  0  0  0  0  0  0  0  0  0
   25.0246  -21.6208  -14.4411 O   0  0  0  0  0  0  0  0  0  0  0  0
   28.9402  -20.2409  -14.5602 C   0  0  0  0  0  0  0  0  0  0  0  0
   29.0875  -19.9286  -13.0508 C   0  0  2  0  0  0  0  0  0  0  0  0
   30.5527  -20.0510  -12.6975 C   0  0  0  0  0  0  0  0  0  0  0  0
   28.3178  -20.9753  -12.3495 C   0  0  0  0  0  0  0  0  0  0  0  0
   26.8251  -20.9580  -12.4892 C   0  0  2  0  0  0  0  0  0  0  0  0
   26.6073  -20.1516  -13.7136 N   0  0  0  0  0  0  0  0  0  0  0  0
   26.2515  -20.2197  -11.3281 C   0  0  0  0  0  0  0  0  0  0  0  0
   25.9952  -18.9677  -11.4380 O   0  0  0  0  0  0  0  0  0  0  0  0
   22.3288  -20.3777   -9.1785 C   0  0  0  0  0  0  0  0  0  0  0  0
   23.5303  -20.7894   -9.9656 C   0  0  1  0  0  0  0  0  0  0  0  0
   23.4896  -20.0502  -11.3028 C   0  0  0  0  0  0  0  0  0  0  0  0
   24.8134  -20.3349   -9.2872 C   0  0  2  0  0  0  0  0  0  0  0  0
   25.9475  -20.7822  -10.0751 N   0  0  0  0  0  0  0  0  0  0  0  0
   24.8808  -20.8184   -7.8934 C   0  0  0  0  0  0  0  0  0  0  0  0
   24.2698  -20.0897   -6.8835 O   0  0  0  0  0  0  0  0  0  0  0  0
   25.4688  -21.8740   -7.5396 O   0  0  0  0  0  0  0  0  0  0  0  0
  2  1  1  6
  2 13  1  0
  2  3  1  0
  4  3  1  0
  4  5  2  0
  6  5  1  0
  7  6  1  0
  8  7  2  0
  9  8  1  0
 10  9  2  0
 10 11  1  0
 11 12  2  0
 12  7  1  0
 12  4  1  0
 13 14  2  0
 16 15  1  6
 17 16  1  0
 18 16  1  0
 19 18  1  1
 20 19  1  0
 20 13  1  0
 21 22  2  0
 21 19  1  0
 24 23  1  1
 24 26  1  0
 25 24  1  0
 26 28  1  0
 26 27  1  6
 27 21  1  0
 28 29  1  0
 30 28  2  0
M  END
$$$$
