WLV.pdb
     RDKit          3D

 30 31  0  0  1  0  0  0  0  0999 V2000
   25.2289  -20.2591  -16.7622 N   0  0  0  0  0  0  0  0  0  0  0  0
   25.1094  -19.4457  -15.5944 C   0  0  1  0  0  0  0  0  0  0  0  0
   24.2488  -18.2393  -15.7201 C   0  0  0  0  0  0  0  0  0  0  0  0
   24.8059  -17.3242  -16.7349 C   0  0  0  0  0  0  0  0  0  0  0  0
   24.1103  -16.6914  -17.7497 C   0  0  0  0  0  0  0  0  0  0  0  0
   24.9735  -15.9282  -18.4298 N   0  0  0  0  0  0  0  0  0  0  0  0
   26.2086  -16.0354  -17.9022 C   0  0  0  0  0  0  0  0  0  0  0  0
   27.4290  -15.4470  -18.2601 C   0  0  0  0  0  0  0  0  0  0  0  0
   28.5376  -15.7628  -17.5240 C   0  0  0  0  0  0  0  0  0  0  0  0
   28.4285  -16.6340  -16.4704 C   0  0  0  0  0  0  0  0  0  0  0  0
   27.2455  -17.2223  -16.1007 C   0  0  0  0  0  0  0  0  0  0  0  0
   26.1116  -16.9077  -16.8415 C   0  0  0  0  0  0  0  0  0  0  0  0
   24.6473  -20.3457  -14.4788 C   0  0  0  0  0  0  0  0  0  0  0  0
   23.9576  -21.3837  -14.7019 O   0  0  0  0  0  0  0  0  0  0  0  0
   25.4783  -20.2358   -8.4508 C   0  0  0  0  0  0  0  0  0  0  0  0
   24.6874  -21.0181   -9.5278 C   0  0  2  0  0  0  0  0  0  0  0  0
   25.1360  -22.4609   -9.4692 C   0  0  0  0  0  0  0  0  0  0  0  0
   25.0825  -20.4267  -10.8215 C   0  0  0  0  0  0  0  0  0  0  0  0
   24.4152  -20.9444  -12.0603 C   0  0  2  0  0  0  0  0  0  0  0  0
   24.9608  -20.0746  -13.1294 N   0  0  0  0  0  0  0  0  0  0  0  0
   22.9503  -20.6926  -11.9471 C   0  0  0  0  0  0  0  0  0  0  0  0
   22.5281  -19.5034  -11.7176 O   0  0  0  0  0  0  0  0  0  0  0  0
   20.3074  -21.3093  -14.3867 C   0  0  0  0  0  0  0  0  0  0  0  0
   19.7671  -21.8708  -13.1118 C   0  0  1  0  0  0  0  0  0  0  0  0
   20.0072  -23.3802  -13.1262 C   0  0  0  0  0  0  0  0  0  0  0  0
   20.5383  -21.3466  -11.9103 C   0  0  2  0  0  0  0  0  0  0  0  0
   21.9442  -21.6674  -12.0758 N   0  0  0  0  0  0  0  0  0  0  0  0
   19.9912  -21.8843  -10.6484 C   0  0  0  0  0  0  0  0  0  0  0  0
   18.7142  -21.5231  -10.2446 O   0  0  0  0  0  0  0  0  0  0  0  0
   20.6139  -22.6696   -9.8865 O   0  0  0  0  0  0  0  0  0  0  0  0
  2  1  1  6
  2 13  1  0
  2  3  1  0
  4  3  1  0
  4  5  2  0
  6  5  1  0
  7  6  1  0
  8  7  2  0
  9  8  1  0
 10  9  2  0
 10 11  1  0
 11 12  2  0
 12  7  1  0
 12  4  1  0
 13 14  2  0
 16 15  1  1
 17 16  1  0
 18 16  1  0
 19 18  1  1
 20 19  1  0
 20 13  1  0
 21 22  2  0
 21 19  1  0
 24 23  1  6
 24 26  1  0
 25 24  1  0
 26 28  1  0
 26 27  1  6
 27 21  1  0
 28 29  1  0
 30 28  2  0
M  END
$$$$
