WLV.pdb
     RDKit          3D

 30 31  0  0  1  0  0  0  0  0999 V2000
   26.8554  -20.8365  -12.1024 N   0  0  0  0  0  0  0  0  0  0  0  0
   25.8643  -20.3289  -11.2080 C   0  0  1  0  0  0  0  0  0  0  0  0
   24.4500  -20.6276  -11.5577 C   0  0  0  0  0  0  0  0  0  0  0  0
   24.0694  -19.9045  -12.7866 C   0  0  0  0  0  0  0  0  0  0  0  0
   24.8827  -19.6318  -13.8719 C   0  0  0  0  0  0  0  0  0  0  0  0
   24.1499  -18.9863  -14.7865 N   0  0  0  0  0  0  0  0  0  0  0  0
   22.8876  -18.8236  -14.3442 C   0  0  0  0  0  0  0  0  0  0  0  0
   21.7679  -18.2139  -14.9256 C   0  0  0  0  0  0  0  0  0  0  0  0
   20.6001  -18.1974  -14.2138 C   0  0  0  0  0  0  0  0  0  0  0  0
   20.5554  -18.7691  -12.9679 C   0  0  0  0  0  0  0  0  0  0  0  0
   21.6375  -19.3718  -12.3780 C   0  0  0  0  0  0  0  0  0  0  0  0
   22.8298  -19.3954  -13.0931 C   0  0  0  0  0  0  0  0  0  0  0  0
   26.2161  -20.8319   -9.8328 C   0  0  0  0  0  0  0  0  0  0  0  0
   26.3458  -22.0673   -9.5877 O   0  0  0  0  0  0  0  0  0  0  0  0
   29.3632  -20.3600   -6.5088 C   0  0  0  0  0  0  0  0  0  0  0  0
   28.5678  -19.1001   -6.9302 C   0  0  2  0  0  0  0  0  0  0  0  0
   29.0581  -17.9444   -6.0874 C   0  0  0  0  0  0  0  0  0  0  0  0
   27.1576  -19.3905   -6.6037 C   0  0  0  0  0  0  0  0  0  0  0  0
   26.4732  -20.4836   -7.3683 C   0  0  2  0  0  0  0  0  0  0  0  0
   26.4180  -19.9494   -8.7498 N   0  0  0  0  0  0  0  0  0  0  0  0
   25.0795  -20.6159   -6.8562 C   0  0  0  0  0  0  0  0  0  0  0  0
   24.2665  -19.6304   -6.9708 O   0  0  0  0  0  0  0  0  0  0  0  0
   22.5776  -23.2433   -7.6785 C   0  0  0  0  0  0  0  0  0  0  0  0
   22.5293  -23.0998   -6.1920 C   0  0  1  0  0  0  0  0  0  0  0  0
   23.3814  -24.2147   -5.5862 C   0  0  0  0  0  0  0  0  0  0  0  0
   23.1799  -21.8000   -5.7443 C   0  0  2  0  0  0  0  0  0  0  0  0
   24.5442  -21.7609   -6.2385 N   0  0  0  0  0  0  0  0  0  0  0  0
   23.1168  -21.6491   -4.2766 C   0  0  0  0  0  0  0  0  0  0  0  0
   21.8844  -21.5318   -3.6507 O   0  0  0  0  0  0  0  0  0  0  0  0
   24.1269  -21.6172   -3.5258 O   0  0  0  0  0  0  0  0  0  0  0  0
  2  1  1  6
  2 13  1  0
  2  3  1  0
  4  3  1  0
  4  5  2  0
  6  5  1  0
  7  6  1  0
  8  7  2  0
  9  8  1  0
 10  9  2  0
 10 11  1  0
 11 12  2  0
 12  7  1  0
 12  4  1  0
 13 14  2  0
 16 15  1  1
 17 16  1  0
 18 16  1  0
 19 18  1  1
 20 19  1  0
 20 13  1  0
 21 22  2  0
 21 19  1  0
 24 23  1  6
 24 26  1  0
 25 24  1  0
 26 28  1  0
 26 27  1  1
 27 21  1  0
 28 29  1  0
 30 28  2  0
M  END
$$$$
