WLV.pdb
     RDKit          3D

 30 31  0  0  1  0  0  0  0  0999 V2000
   25.7747  -20.9755  -18.0435 N   0  0  0  0  0  0  0  0  0  0  0  0
   25.4119  -20.0936  -16.9802 C   0  0  1  0  0  0  0  0  0  0  0  0
   24.2115  -19.2465  -17.2109 C   0  0  0  0  0  0  0  0  0  0  0  0
   24.4440  -18.3399  -18.3519 C   0  0  0  0  0  0  0  0  0  0  0  0
   23.6584  -18.2158  -19.4839 C   0  0  0  0  0  0  0  0  0  0  0  0
   24.1960  -17.2669  -20.2588 N   0  0  0  0  0  0  0  0  0  0  0  0
   25.3040  -16.7633  -19.6808 C   0  0  0  0  0  0  0  0  0  0  0  0
   26.2037  -15.7727  -20.0965 C   0  0  0  0  0  0  0  0  0  0  0  0
   27.2615  -15.4789  -19.2808 C   0  0  0  0  0  0  0  0  0  0  0  0
   27.4127  -16.1511  -18.0949 C   0  0  0  0  0  0  0  0  0  0  0  0
   26.5455  -17.1240  -17.6664 C   0  0  0  0  0  0  0  0  0  0  0  0
   25.4658  -17.4303  -18.4873 C   0  0  0  0  0  0  0  0  0  0  0  0
   25.2685  -20.9370  -15.7409 C   0  0  0  0  0  0  0  0  0  0  0  0
   25.1127  -22.1919  -15.8028 O   0  0  0  0  0  0  0  0  0  0  0  0
   28.1093  -21.8242  -12.8614 C   0  0  0  0  0  0  0  0  0  0  0  0
   27.5480  -20.3960  -12.6548 C   0  0  2  0  0  0  0  0  0  0  0  0
   28.3076  -19.7654  -11.5095 C   0  0  0  0  0  0  0  0  0  0  0  0
   26.1327  -20.5744  -12.2744 C   0  0  0  0  0  0  0  0  0  0  0  0
   25.2233  -21.2473  -13.2583 C   0  0  2  0  0  0  0  0  0  0  0  0
   25.3006  -20.3683  -14.4493 N   0  0  0  0  0  0  0  0  0  0  0  0
   23.8324  -21.1990  -12.7242 C   0  0  0  0  0  0  0  0  0  0  0  0
   23.5557  -21.7969  -11.6236 O   0  0  0  0  0  0  0  0  0  0  0  0
   21.5147  -18.0857  -12.8564 C   0  0  0  0  0  0  0  0  0  0  0  0
   20.6817  -19.2921  -13.1454 C   0  0  1  0  0  0  0  0  0  0  0  0
   20.4812  -19.3708  -14.6586 C   0  0  0  0  0  0  0  0  0  0  0  0
   21.4140  -20.5693  -12.7639 C   0  0  2  0  0  0  0  0  0  0  0  0
   22.7506  -20.5334  -13.3289 N   0  0  0  0  0  0  0  0  0  0  0  0
   20.6617  -21.7651  -13.1941 C   0  0  0  0  0  0  0  0  0  0  0  0
   19.4512  -22.0694  -12.5888 O   0  0  0  0  0  0  0  0  0  0  0  0
   21.0462  -22.5548  -14.0961 O   0  0  0  0  0  0  0  0  0  0  0  0
  2  1  1  6
  2 13  1  0
  2  3  1  0
  4  3  1  0
  4  5  2  0
  6  5  1  0
  7  6  1  0
  8  7  2  0
  9  8  1  0
 10  9  2  0
 10 11  1  0
 11 12  2  0
 12  7  1  0
 12  4  1  0
 13 14  2  0
 16 15  1  1
 17 16  1  0
 18 16  1  0
 19 18  1  1
 20 19  1  0
 20 13  1  0
 21 22  2  0
 21 19  1  0
 24 23  1  6
 24 26  1  0
 25 24  1  0
 26 28  1  0
 26 27  1  6
 27 21  1  0
 28 29  1  0
 30 28  2  0
M  END
$$$$
