WLV.pdb
     RDKit          3D

 30 31  0  0  1  0  0  0  0  0999 V2000
   22.3307  -21.3036  -16.4589 N   0  0  0  0  0  0  0  0  0  0  0  0
   22.8304  -20.1189  -15.8370 C   0  0  1  0  0  0  0  0  0  0  0  0
   21.9006  -19.4235  -14.9076 C   0  0  0  0  0  0  0  0  0  0  0  0
   20.8927  -18.6654  -15.6739 C   0  0  0  0  0  0  0  0  0  0  0  0
   19.6812  -19.1401  -16.1439 C   0  0  0  0  0  0  0  0  0  0  0  0
   19.0527  -18.1324  -16.7599 N   0  0  0  0  0  0  0  0  0  0  0  0
   19.8039  -17.0148  -16.7137 C   0  0  0  0  0  0  0  0  0  0  0  0
   19.5860  -15.7243  -17.2143 C   0  0  0  0  0  0  0  0  0  0  0  0
   20.5571  -14.7823  -17.0139 C   0  0  0  0  0  0  0  0  0  0  0  0
   21.7021  -15.1196  -16.3384 C   0  0  0  0  0  0  0  0  0  0  0  0
   21.9382  -16.3754  -15.8389 C   0  0  0  0  0  0  0  0  0  0  0  0
   20.9571  -17.3409  -16.0360 C   0  0  0  0  0  0  0  0  0  0  0  0
   24.1215  -20.4919  -15.1574 C   0  0  0  0  0  0  0  0  0  0  0  0
   24.2995  -21.6364  -14.6461 O   0  0  0  0  0  0  0  0  0  0  0  0
   28.3830  -20.5800  -16.4260 C   0  0  0  0  0  0  0  0  0  0  0  0
   27.8252  -19.1457  -16.2553 C   0  0  2  0  0  0  0  0  0  0  0  0
   28.9424  -18.1777  -16.5737 C   0  0  0  0  0  0  0  0  0  0  0  0
   27.4560  -19.0278  -14.8307 C   0  0  0  0  0  0  0  0  0  0  0  0
   26.4116  -19.9629  -14.2989 C   0  0  2  0  0  0  0  0  0  0  0  0
   25.1963  -19.5823  -15.0574 N   0  0  0  0  0  0  0  0  0  0  0  0
   26.1879  -19.6500  -12.8587 C   0  0  0  0  0  0  0  0  0  0  0  0
   26.0594  -18.4285  -12.4887 O   0  0  0  0  0  0  0  0  0  0  0  0
   23.4902  -20.4709  -10.8214 C   0  0  0  0  0  0  0  0  0  0  0  0
   24.6299  -20.7874   -9.9084 C   0  0  1  0  0  0  0  0  0  0  0  0
   24.8248  -22.3033   -9.9112 C   0  0  0  0  0  0  0  0  0  0  0  0
   25.9333  -20.2075  -10.4357 C   0  0  2  0  0  0  0  0  0  0  0  0
   26.0960  -20.5986  -11.8240 N   0  0  0  0  0  0  0  0  0  0  0  0
   27.0792  -20.6258   -9.6034 C   0  0  0  0  0  0  0  0  0  0  0  0
   27.1914  -20.1557   -8.3031 O   0  0  0  0  0  0  0  0  0  0  0  0
   27.9913  -21.4002   -9.9951 O   0  0  0  0  0  0  0  0  0  0  0  0
  2  1  1  1
  2 13  1  0
  2  3  1  0
  4  3  1  0
  4  5  2  0
  6  5  1  0
  7  6  1  0
  8  7  2  0
  9  8  1  0
 10  9  2  0
 10 11  1  0
 11 12  2  0
 12  7  1  0
 12  4  1  0
 13 14  2  0
 16 15  1  1
 17 16  1  0
 18 16  1  0
 19 18  1  6
 20 19  1  0
 20 13  1  0
 21 22  2  0
 21 19  1  0
 24 23  1  6
 24 26  1  0
 25 24  1  0
 26 28  1  0
 26 27  1  6
 27 21  1  0
 28 29  1  0
 30 28  2  0
M  END
$$$$
