WLV.pdb
     RDKit          3D

 30 31  0  0  1  0  0  0  0  0999 V2000
   26.0514  -21.9947  -11.8624 N   0  0  0  0  0  0  0  0  0  0  0  0
   25.4202  -21.0729  -10.9725 C   0  0  1  0  0  0  0  0  0  0  0  0
   26.1956  -19.8490  -10.6370 C   0  0  0  0  0  0  0  0  0  0  0  0
   27.4196  -20.2128   -9.8973 C   0  0  0  0  0  0  0  0  0  0  0  0
   28.5815  -20.7427  -10.4294 C   0  0  0  0  0  0  0  0  0  0  0  0
   29.4593  -20.9004   -9.4320 N   0  0  0  0  0  0  0  0  0  0  0  0
   28.9194  -20.4957   -8.2657 C   0  0  0  0  0  0  0  0  0  0  0  0
   29.4310  -20.4696   -6.9614 C   0  0  0  0  0  0  0  0  0  0  0  0
   28.6241  -20.0012   -5.9614 C   0  0  0  0  0  0  0  0  0  0  0  0
   27.3540  -19.5757   -6.2559 C   0  0  0  0  0  0  0  0  0  0  0  0
   26.8310  -19.5913   -7.5242 C   0  0  0  0  0  0  0  0  0  0  0  0
   27.6429  -20.0645   -8.5490 C   0  0  0  0  0  0  0  0  0  0  0  0
   24.0790  -20.7363  -11.5690 C   0  0  0  0  0  0  0  0  0  0  0  0
   23.3536  -19.8110  -11.0992 O   0  0  0  0  0  0  0  0  0  0  0  0
   22.2843  -18.5240  -14.8746 C   0  0  0  0  0  0  0  0  0  0  0  0
   23.2437  -19.7023  -15.1720 C   0  0  2  0  0  0  0  0  0  0  0  0
   23.4458  -19.7630  -16.6694 C   0  0  0  0  0  0  0  0  0  0  0  0
   22.5383  -20.9164  -14.7159 C   0  0  0  0  0  0  0  0  0  0  0  0
   22.2524  -21.0504  -13.2502 C   0  0  2  0  0  0  0  0  0  0  0  0
   23.5653  -21.4373  -12.6814 N   0  0  0  0  0  0  0  0  0  0  0  0
   21.3011  -22.1817  -13.0569 C   0  0  0  0  0  0  0  0  0  0  0  0
   21.5367  -23.3102  -13.6192 O   0  0  0  0  0  0  0  0  0  0  0  0
   19.7447  -23.5183   -9.8273 C   0  0  0  0  0  0  0  0  0  0  0  0
   18.6426  -23.3684  -10.8251 C   0  0  1  0  0  0  0  0  0  0  0  0
   17.9345  -22.0432  -10.5447 C   0  0  0  0  0  0  0  0  0  0  0  0
   19.1933  -23.2459  -12.2374 C   0  0  2  0  0  0  0  0  0  0  0  0
   20.1257  -22.1345  -12.2853 N   0  0  0  0  0  0  0  0  0  0  0  0
   18.1045  -23.0996  -13.2244 C   0  0  0  0  0  0  0  0  0  0  0  0
   17.2672  -24.1739  -13.4873 O   0  0  0  0  0  0  0  0  0  0  0  0
   17.8703  -22.0421  -13.8662 O   0  0  0  0  0  0  0  0  0  0  0  0
  2  1  1  6
  2 13  1  0
  2  3  1  0
  4  3  1  0
  4  5  2  0
  6  5  1  0
  7  6  1  0
  8  7  2  0
  9  8  1  0
 10  9  2  0
 10 11  1  0
 11 12  2  0
 12  7  1  0
 12  4  1  0
 13 14  2  0
 16 15  1  6
 17 16  1  0
 18 16  1  0
 19 18  1  6
 20 19  1  0
 20 13  1  0
 21 22  2  0
 21 19  1  0
 24 23  1  1
 24 26  1  0
 25 24  1  0
 26 28  1  0
 26 27  1  1
 27 21  1  0
 28 29  1  0
 30 28  2  0
M  END
$$$$
