WLV.pdb
     RDKit          3D

 30 31  0  0  1  0  0  0  0  0999 V2000
   27.9286  -21.7379  -10.4912 N   0  0  0  0  0  0  0  0  0  0  0  0
   26.8612  -21.0017   -9.8924 C   0  0  1  0  0  0  0  0  0  0  0  0
   27.2551  -19.9514   -8.9160 C   0  0  0  0  0  0  0  0  0  0  0  0
   28.2802  -20.4773   -7.9937 C   0  0  0  0  0  0  0  0  0  0  0  0
   29.3309  -21.3175   -8.3163 C   0  0  0  0  0  0  0  0  0  0  0  0
   30.0444  -21.5333   -7.2053 N   0  0  0  0  0  0  0  0  0  0  0  0
   29.5034  -20.8686   -6.1657 C   0  0  0  0  0  0  0  0  0  0  0  0
   29.8763  -20.7850   -4.8175 C   0  0  0  0  0  0  0  0  0  0  0  0
   29.1084  -20.0214   -3.9821 C   0  0  0  0  0  0  0  0  0  0  0  0
   28.0096  -19.3669   -4.4775 C   0  0  0  0  0  0  0  0  0  0  0  0
   27.6247  -19.4330   -5.7927 C   0  0  0  0  0  0  0  0  0  0  0  0
   28.3987  -20.2058   -6.6514 C   0  0  0  0  0  0  0  0  0  0  0  0
   26.0350  -20.4349  -11.0168 C   0  0  0  0  0  0  0  0  0  0  0  0
   26.4116  -19.4216  -11.6758 O   0  0  0  0  0  0  0  0  0  0  0  0
   26.3653  -21.4926  -15.0906 C   0  0  0  0  0  0  0  0  0  0  0  0
   25.6473  -21.6437  -13.7271 C   0  0  2  0  0  0  0  0  0  0  0  0
   24.9445  -22.9826  -13.7243 C   0  0  0  0  0  0  0  0  0  0  0  0
   24.6483  -20.5577  -13.6793 C   0  0  0  0  0  0  0  0  0  0  0  0
   23.9402  -20.3151  -12.3802 C   0  0  2  0  0  0  0  0  0  0  0  0
   24.7995  -21.0067  -11.3901 N   0  0  0  0  0  0  0  0  0  0  0  0
   22.6205  -21.0067  -12.4262 C   0  0  0  0  0  0  0  0  0  0  0  0
   22.5497  -22.2554  -12.1415 O   0  0  0  0  0  0  0  0  0  0  0  0
   19.3687  -18.5753  -11.9508 C   0  0  0  0  0  0  0  0  0  0  0  0
   19.5155  -19.9196  -11.3151 C   0  0  1  0  0  0  0  0  0  0  0  0
   18.1144  -20.4481  -11.0089 C   0  0  0  0  0  0  0  0  0  0  0  0
   20.1267  -20.9210  -12.2830 C   0  0  2  0  0  0  0  0  0  0  0  0
   21.3952  -20.4016  -12.7604 N   0  0  0  0  0  0  0  0  0  0  0  0
   19.1998  -21.2267  -13.3913 C   0  0  0  0  0  0  0  0  0  0  0  0
   18.1815  -22.1491  -13.2002 O   0  0  0  0  0  0  0  0  0  0  0  0
   19.2646  -20.6986  -14.5323 O   0  0  0  0  0  0  0  0  0  0  0  0
  2  1  1  6
  2 13  1  0
  2  3  1  0
  4  3  1  0
  4  5  2  0
  6  5  1  0
  7  6  1  0
  8  7  2  0
  9  8  1  0
 10  9  2  0
 10 11  1  0
 11 12  2  0
 12  7  1  0
 12  4  1  0
 13 14  2  0
 16 15  1  6
 17 16  1  0
 18 16  1  0
 19 18  1  6
 20 19  1  0
 20 13  1  0
 21 22  2  0
 21 19  1  0
 24 23  1  6
 24 26  1  0
 25 24  1  0
 26 28  1  0
 26 27  1  6
 27 21  1  0
 28 29  1  0
 30 28  2  0
M  END
$$$$
