WLV.pdb
     RDKit          3D

 30 31  0  0  1  0  0  0  0  0999 V2000
   26.4784  -17.8908   -9.5025 N   0  0  0  0  0  0  0  0  0  0  0  0
   26.6984  -19.2937   -9.6558 C   0  0  1  0  0  0  0  0  0  0  0  0
   26.4162  -20.1364   -8.4634 C   0  0  0  0  0  0  0  0  0  0  0  0
   27.1358  -19.6075   -7.2885 C   0  0  0  0  0  0  0  0  0  0  0  0
   27.3234  -18.2760   -6.9633 C   0  0  0  0  0  0  0  0  0  0  0  0
   27.9986  -18.2230   -5.8094 N   0  0  0  0  0  0  0  0  0  0  0  0
   28.2623  -19.4671   -5.3644 C   0  0  0  0  0  0  0  0  0  0  0  0
   28.9376  -19.9256   -4.2253 C   0  0  0  0  0  0  0  0  0  0  0  0
   29.0551  -21.2763   -4.0454 C   0  0  0  0  0  0  0  0  0  0  0  0
   28.5176  -22.1346   -4.9703 C   0  0  0  0  0  0  0  0  0  0  0  0
   27.8523  -21.7101   -6.0925 C   0  0  0  0  0  0  0  0  0  0  0  0
   27.7258  -20.3388   -6.2852 C   0  0  0  0  0  0  0  0  0  0  0  0
   25.8968  -19.7349  -10.8519 C   0  0  0  0  0  0  0  0  0  0  0  0
   24.7305  -19.2943  -11.0722 O   0  0  0  0  0  0  0  0  0  0  0  0
   27.6031  -19.4286  -15.2694 C   0  0  0  0  0  0  0  0  0  0  0  0
   28.1179  -20.5110  -14.2891 C   0  0  2  0  0  0  0  0  0  0  0  0
   29.1408  -21.3472  -15.0247 C   0  0  0  0  0  0  0  0  0  0  0  0
   26.9428  -21.3410  -13.9577 C   0  0  0  0  0  0  0  0  0  0  0  0
   25.8443  -20.7099  -13.1558 C   0  0  2  0  0  0  0  0  0  0  0  0
   26.4077  -20.6622  -11.7856 N   0  0  0  0  0  0  0  0  0  0  0  0
   24.6727  -21.6316  -13.1538 C   0  0  0  0  0  0  0  0  0  0  0  0
   24.8139  -22.8342  -12.7304 O   0  0  0  0  0  0  0  0  0  0  0  0
   21.4346  -21.1774  -11.5290 C   0  0  0  0  0  0  0  0  0  0  0  0
   21.0845  -21.6688  -12.8959 C   0  0  1  0  0  0  0  0  0  0  0  0
   20.6875  -20.4586  -13.7409 C   0  0  0  0  0  0  0  0  0  0  0  0
   22.2963  -22.2712  -13.5900 C   0  0  2  0  0  0  0  0  0  0  0  0
   23.3749  -21.2998  -13.5834 N   0  0  0  0  0  0  0  0  0  0  0  0
   21.9611  -22.7189  -14.9568 C   0  0  0  0  0  0  0  0  0  0  0  0
   21.1331  -23.8174  -15.1359 O   0  0  0  0  0  0  0  0  0  0  0  0
   22.3823  -22.1634  -16.0052 O   0  0  0  0  0  0  0  0  0  0  0  0
  2  1  1  1
  2 13  1  0
  2  3  1  0
  4  3  1  0
  4  5  2  0
  6  5  1  0
  7  6  1  0
  8  7  2  0
  9  8  1  0
 10  9  2  0
 10 11  1  0
 11 12  2  0
 12  7  1  0
 12  4  1  0
 13 14  2  0
 16 15  1  6
 17 16  1  0
 18 16  1  0
 19 18  1  6
 20 19  1  0
 20 13  1  0
 21 22  2  0
 21 19  1  0
 24 23  1  1
 24 26  1  0
 25 24  1  0
 26 28  1  0
 26 27  1  6
 27 21  1  0
 28 29  1  0
 30 28  2  0
M  END
$$$$
