WLV.pdb
     RDKit          3D

 30 31  0  0  1  0  0  0  0  0999 V2000
   25.2052  -21.7075   -9.5562 N   0  0  0  0  0  0  0  0  0  0  0  0
   25.6570  -20.3534   -9.5086 C   0  0  1  0  0  0  0  0  0  0  0  0
   26.9231  -20.1097   -8.7675 C   0  0  0  0  0  0  0  0  0  0  0  0
   26.6763  -20.1625   -7.3135 C   0  0  0  0  0  0  0  0  0  0  0  0
   25.5602  -20.6813   -6.6818 C   0  0  0  0  0  0  0  0  0  0  0  0
   25.7404  -20.5648   -5.3612 N   0  0  0  0  0  0  0  0  0  0  0  0
   26.9305  -19.9893   -5.1007 C   0  0  0  0  0  0  0  0  0  0  0  0
   27.5591  -19.6538   -3.8941 C   0  0  0  0  0  0  0  0  0  0  0  0
   28.7889  -19.0582   -3.9514 C   0  0  0  0  0  0  0  0  0  0  0  0
   29.3670  -18.8081   -5.1697 C   0  0  0  0  0  0  0  0  0  0  0  0
   28.7719  -19.1274   -6.3640 C   0  0  0  0  0  0  0  0  0  0  0  0
   27.5216  -19.7343   -6.3177 C   0  0  0  0  0  0  0  0  0  0  0  0
   25.7429  -19.8698  -10.9322 C   0  0  0  0  0  0  0  0  0  0  0  0
   25.9867  -18.6592  -11.2114 O   0  0  0  0  0  0  0  0  0  0  0  0
   28.1453  -19.2473  -14.5837 C   0  0  0  0  0  0  0  0  0  0  0  0
   27.9694  -20.6333  -13.9163 C   0  0  2  0  0  0  0  0  0  0  0  0
   28.8604  -21.6116  -14.6481 C   0  0  0  0  0  0  0  0  0  0  0  0
   26.5540  -20.9992  -14.1229 C   0  0  0  0  0  0  0  0  0  0  0  0
   25.5119  -20.1978  -13.4021 C   0  0  2  0  0  0  0  0  0  0  0  0
   25.5554  -20.7438  -12.0247 N   0  0  0  0  0  0  0  0  0  0  0  0
   24.1809  -20.5138  -13.9944 C   0  0  0  0  0  0  0  0  0  0  0  0
   23.6844  -21.6872  -13.8463 O   0  0  0  0  0  0  0  0  0  0  0  0
   21.1469  -18.0301  -14.0439 C   0  0  0  0  0  0  0  0  0  0  0  0
   21.2077  -18.7553  -15.3489 C   0  0  1  0  0  0  0  0  0  0  0  0
   21.9056  -17.8444  -16.3585 C   0  0  0  0  0  0  0  0  0  0  0  0
   22.0811  -19.9963  -15.2473 C   0  0  2  0  0  0  0  0  0  0  0  0
   23.3813  -19.6166  -14.7256 N   0  0  0  0  0  0  0  0  0  0  0  0
   22.1852  -20.6842  -16.5500 C   0  0  0  0  0  0  0  0  0  0  0  0
   21.1231  -21.4492  -17.0093 O   0  0  0  0  0  0  0  0  0  0  0  0
   23.1954  -20.6285  -17.2994 O   0  0  0  0  0  0  0  0  0  0  0  0
  2  1  1  6
  2 13  1  0
  2  3  1  0
  4  3  1  0
  4  5  2  0
  6  5  1  0
  7  6  1  0
  8  7  2  0
  9  8  1  0
 10  9  2  0
 10 11  1  0
 11 12  2  0
 12  7  1  0
 12  4  1  0
 13 14  2  0
 16 15  1  6
 17 16  1  0
 18 16  1  0
 19 18  1  6
 20 19  1  0
 20 13  1  0
 21 22  2  0
 21 19  1  0
 24 23  1  1
 24 26  1  0
 25 24  1  0
 26 28  1  0
 26 27  1  6
 27 21  1  0
 28 29  1  0
 30 28  2  0
M  END
$$$$
