WLV.pdb
     RDKit          3D

 30 31  0  0  1  0  0  0  0  0999 V2000
   27.7457  -21.3227  -15.7843 N   0  0  0  0  0  0  0  0  0  0  0  0
   26.9493  -20.3737  -15.0736 C   0  0  1  0  0  0  0  0  0  0  0  0
   25.8305  -19.7556  -15.8338 C   0  0  0  0  0  0  0  0  0  0  0  0
   26.3629  -18.9213  -16.9284 C   0  0  0  0  0  0  0  0  0  0  0  0
   27.6061  -19.0333  -17.5249 C   0  0  0  0  0  0  0  0  0  0  0  0
   27.6858  -18.1121  -18.4919 N   0  0  0  0  0  0  0  0  0  0  0  0
   26.5442  -17.3990  -18.5536 C   0  0  0  0  0  0  0  0  0  0  0  0
   26.1517  -16.3383  -19.3808 C   0  0  0  0  0  0  0  0  0  0  0  0
   24.9072  -15.8022  -19.1953 C   0  0  0  0  0  0  0  0  0  0  0  0
   24.0876  -16.3084  -18.2191 C   0  0  0  0  0  0  0  0  0  0  0  0
   24.4490  -17.3459  -17.3974 C   0  0  0  0  0  0  0  0  0  0  0  0
   25.7118  -17.8994  -17.5777 C   0  0  0  0  0  0  0  0  0  0  0  0
   26.4621  -21.0588  -13.8241 C   0  0  0  0  0  0  0  0  0  0  0  0
   26.0819  -22.2665  -13.8309 O   0  0  0  0  0  0  0  0  0  0  0  0
   25.9840  -19.4753   -7.9808 C   0  0  0  0  0  0  0  0  0  0  0  0
   25.3319  -20.4333   -9.0078 C   0  0  2  0  0  0  0  0  0  0  0  0
   25.6120  -21.8492   -8.5571 C   0  0  0  0  0  0  0  0  0  0  0  0
   26.0194  -20.1738  -10.2883 C   0  0  0  0  0  0  0  0  0  0  0  0
   25.5441  -20.9169  -11.5007 C   0  0  2  0  0  0  0  0  0  0  0  0
   26.4055  -20.3866  -12.5841 N   0  0  0  0  0  0  0  0  0  0  0  0
   24.1353  -20.5157  -11.7772 C   0  0  0  0  0  0  0  0  0  0  0  0
   23.8527  -19.2771  -11.9539 O   0  0  0  0  0  0  0  0  0  0  0  0
   22.1614  -21.0814  -14.5575 C   0  0  0  0  0  0  0  0  0  0  0  0
   21.2187  -21.4583  -13.4612 C   0  0  1  0  0  0  0  0  0  0  0  0
   21.2443  -22.9804  -13.3245 C   0  0  0  0  0  0  0  0  0  0  0  0
   21.6928  -20.9202  -12.1200 C   0  0  2  0  0  0  0  0  0  0  0  0
   23.0416  -21.3955  -11.8713 N   0  0  0  0  0  0  0  0  0  0  0  0
   20.7635  -21.2954  -11.0353 C   0  0  0  0  0  0  0  0  0  0  0  0
   19.4779  -20.7745  -11.0217 O   0  0  0  0  0  0  0  0  0  0  0  0
   21.0571  -22.0759  -10.0920 O   0  0  0  0  0  0  0  0  0  0  0  0
  2  1  1  6
  2 13  1  0
  2  3  1  0
  4  3  1  0
  4  5  2  0
  6  5  1  0
  7  6  1  0
  8  7  2  0
  9  8  1  0
 10  9  2  0
 10 11  1  0
 11 12  2  0
 12  7  1  0
 12  4  1  0
 13 14  2  0
 16 15  1  1
 17 16  1  0
 18 16  1  0
 19 18  1  1
 20 19  1  0
 20 13  1  0
 21 22  2  0
 21 19  1  0
 24 23  1  6
 24 26  1  0
 25 24  1  0
 26 28  1  0
 26 27  1  1
 27 21  1  0
 28 29  1  0
 30 28  2  0
M  END
$$$$
