WLV.pdb
     RDKit          3D

 30 31  0  0  1  0  0  0  0  0999 V2000
   28.1596  -21.1466  -16.4119 N   0  0  0  0  0  0  0  0  0  0  0  0
   27.8316  -20.1855  -15.4076 C   0  0  1  0  0  0  0  0  0  0  0  0
   27.0044  -19.0311  -15.8491 C   0  0  0  0  0  0  0  0  0  0  0  0
   27.7318  -18.2475  -16.8663 C   0  0  0  0  0  0  0  0  0  0  0  0
   27.2208  -17.7571  -18.0547 C   0  0  0  0  0  0  0  0  0  0  0  0
   28.1929  -17.0781  -18.6744 N   0  0  0  0  0  0  0  0  0  0  0  0
   29.3223  -17.1037  -17.9401 C   0  0  0  0  0  0  0  0  0  0  0  0
   30.5915  -16.5531  -18.1632 C   0  0  0  0  0  0  0  0  0  0  0  0
   31.5594  -16.7603  -17.2194 C   0  0  0  0  0  0  0  0  0  0  0  0
   31.2678  -17.4908  -16.0958 C   0  0  0  0  0  0  0  0  0  0  0  0
   30.0336  -18.0394  -15.8550 C   0  0  0  0  0  0  0  0  0  0  0  0
   29.0415  -17.8343  -16.8074 C   0  0  0  0  0  0  0  0  0  0  0  0
   27.1797  -20.9378  -14.2774 C   0  0  0  0  0  0  0  0  0  0  0  0
   26.5431  -22.0146  -14.4729 O   0  0  0  0  0  0  0  0  0  0  0  0
   26.6449  -19.7785   -8.3265 C   0  0  0  0  0  0  0  0  0  0  0  0
   25.9715  -20.6185   -9.4394 C   0  0  2  0  0  0  0  0  0  0  0  0
   26.0728  -22.0737   -9.0410 C   0  0  0  0  0  0  0  0  0  0  0  0
   26.7699  -20.3799  -10.6581 C   0  0  0  0  0  0  0  0  0  0  0  0
   26.3075  -21.0183  -11.9335 C   0  0  2  0  0  0  0  0  0  0  0  0
   27.2469  -20.4777  -12.9446 N   0  0  0  0  0  0  0  0  0  0  0  0
   24.9387  -20.5156  -12.2430 C   0  0  0  0  0  0  0  0  0  0  0  0
   24.7185  -19.2522  -12.2671 O   0  0  0  0  0  0  0  0  0  0  0  0
   23.0646  -20.7813  -15.2334 C   0  0  0  0  0  0  0  0  0  0  0  0
   22.0721  -21.1911  -14.1943 C   0  0  1  0  0  0  0  0  0  0  0  0
   22.0444  -22.7186  -14.1501 C   0  0  0  0  0  0  0  0  0  0  0  0
   22.5153  -20.7508  -12.8076 C   0  0  2  0  0  0  0  0  0  0  0  0
   23.8204  -21.3207  -12.5265 N   0  0  0  0  0  0  0  0  0  0  0  0
   21.5163  -21.1211  -11.7850 C   0  0  0  0  0  0  0  0  0  0  0  0
   21.8180  -22.1048  -10.8547 O   0  0  0  0  0  0  0  0  0  0  0  0
   20.3757  -20.5966  -11.6894 O   0  0  0  0  0  0  0  0  0  0  0  0
  2  1  1  6
  2 13  1  0
  2  3  1  0
  4  3  1  0
  4  5  2  0
  6  5  1  0
  7  6  1  0
  8  7  2  0
  9  8  1  0
 10  9  2  0
 10 11  1  0
 11 12  2  0
 12  7  1  0
 12  4  1  0
 13 14  2  0
 16 15  1  1
 17 16  1  0
 18 16  1  0
 19 18  1  1
 20 19  1  0
 20 13  1  0
 21 22  2  0
 21 19  1  0
 24 23  1  6
 24 26  1  0
 25 24  1  0
 26 28  1  0
 26 27  1  1
 27 21  1  0
 28 29  1  0
 30 28  2  0
M  END
$$$$
