WLV.pdb
     RDKit          3D

 30 31  0  0  1  0  0  0  0  0999 V2000
   24.8876  -18.9056  -10.3370 N   0  0  0  0  0  0  0  0  0  0  0  0
   25.7302  -19.9077  -10.9076 C   0  0  1  0  0  0  0  0  0  0  0  0
   25.9201  -21.1427  -10.1012 C   0  0  0  0  0  0  0  0  0  0  0  0
   26.4587  -20.8001   -8.7707 C   0  0  0  0  0  0  0  0  0  0  0  0
   25.7299  -20.5566   -7.6203 C   0  0  0  0  0  0  0  0  0  0  0  0
   26.5928  -20.3123   -6.6275 N   0  0  0  0  0  0  0  0  0  0  0  0
   27.8596  -20.3850   -7.0806 C   0  0  0  0  0  0  0  0  0  0  0  0
   29.0912  -20.2043   -6.4370 C   0  0  0  0  0  0  0  0  0  0  0  0
   30.2323  -20.3375   -7.1791 C   0  0  0  0  0  0  0  0  0  0  0  0
   30.1436  -20.6397   -8.5140 C   0  0  0  0  0  0  0  0  0  0  0  0
   28.9503  -20.8214   -9.1660 C   0  0  0  0  0  0  0  0  0  0  0  0
   27.7836  -20.6894   -8.4211 C   0  0  0  0  0  0  0  0  0  0  0  0
   25.1811  -20.2149  -12.2759 C   0  0  0  0  0  0  0  0  0  0  0  0
   24.0538  -19.7807  -12.6548 O   0  0  0  0  0  0  0  0  0  0  0  0
   27.8181  -18.6205  -15.4626 C   0  0  0  0  0  0  0  0  0  0  0  0
   28.2399  -19.9402  -14.7714 C   0  0  2  0  0  0  0  0  0  0  0  0
   29.5729  -20.3565  -15.3513 C   0  0  0  0  0  0  0  0  0  0  0  0
   27.2076  -20.9303  -15.1373 C   0  0  0  0  0  0  0  0  0  0  0  0
   25.8093  -20.6956  -14.6499 C   0  0  2  0  0  0  0  0  0  0  0  0
   25.8975  -21.0028  -13.2025 N   0  0  0  0  0  0  0  0  0  0  0  0
   24.9117  -21.6975  -15.2923 C   0  0  0  0  0  0  0  0  0  0  0  0
   24.7736  -21.6983  -16.5675 O   0  0  0  0  0  0  0  0  0  0  0  0
   24.6720  -25.4144  -14.7473 C   0  0  0  0  0  0  0  0  0  0  0  0
   23.2617  -24.9208  -14.7520 C   0  0  1  0  0  0  0  0  0  0  0  0
   22.7885  -24.8422  -13.3008 C   0  0  0  0  0  0  0  0  0  0  0  0
   23.1792  -23.4990  -15.2856 C   0  0  2  0  0  0  0  0  0  0  0  0
   24.1744  -22.6843  -14.6127 N   0  0  0  0  0  0  0  0  0  0  0  0
   21.8169  -22.9495  -15.1331 C   0  0  0  0  0  0  0  0  0  0  0  0
   20.7860  -23.4415  -15.9201 O   0  0  0  0  0  0  0  0  0  0  0  0
   21.5092  -22.0402  -14.3185 O   0  0  0  0  0  0  0  0  0  0  0  0
  2  1  1  1
  2 13  1  0
  2  3  1  0
  4  3  1  0
  4  5  2  0
  6  5  1  0
  7  6  1  0
  8  7  2  0
  9  8  1  0
 10  9  2  0
 10 11  1  0
 11 12  2  0
 12  7  1  0
 12  4  1  0
 13 14  2  0
 16 15  1  6
 17 16  1  0
 18 16  1  0
 19 18  1  6
 20 19  1  0
 20 13  1  0
 21 22  2  0
 21 19  1  0
 24 23  1  1
 24 26  1  0
 25 24  1  0
 26 28  1  0
 26 27  1  1
 27 21  1  0
 28 29  1  0
 30 28  2  0
M  END
$$$$
