WLV.pdb
     RDKit          3D

 30 31  0  0  1  0  0  0  0  0999 V2000
   25.7107  -18.9027  -11.3682 N   0  0  0  0  0  0  0  0  0  0  0  0
   25.2062  -20.2384  -11.3316 C   0  0  1  0  0  0  0  0  0  0  0  0
   25.4340  -21.0596  -12.5505 C   0  0  0  0  0  0  0  0  0  0  0  0
   24.8466  -20.3911  -13.7277 C   0  0  0  0  0  0  0  0  0  0  0  0
   25.5196  -19.9638  -14.8584 C   0  0  0  0  0  0  0  0  0  0  0  0
   24.6224  -19.4376  -15.7000 N   0  0  0  0  0  0  0  0  0  0  0  0
   23.3869  -19.5019  -15.1664 C   0  0  0  0  0  0  0  0  0  0  0  0
   22.1401  -19.0832  -15.6500 C   0  0  0  0  0  0  0  0  0  0  0  0
   21.0422  -19.2798  -14.8584 C   0  0  0  0  0  0  0  0  0  0  0  0
   21.1872  -19.8725  -13.6301 C   0  0  0  0  0  0  0  0  0  0  0  0
   22.3964  -20.2909  -13.1352 C   0  0  0  0  0  0  0  0  0  0  0  0
   23.5194  -20.0969  -13.9319 C   0  0  0  0  0  0  0  0  0  0  0  0
   25.7841  -20.8917  -10.1039 C   0  0  0  0  0  0  0  0  0  0  0  0
   25.9046  -22.1487  -10.0117 O   0  0  0  0  0  0  0  0  0  0  0  0
   28.9530  -20.8018   -6.5132 C   0  0  0  0  0  0  0  0  0  0  0  0
   28.2764  -19.4981   -7.0032 C   0  0  2  0  0  0  0  0  0  0  0  0
   28.7769  -18.3664   -6.1341 C   0  0  0  0  0  0  0  0  0  0  0  0
   26.8295  -19.6919   -6.7827 C   0  0  0  0  0  0  0  0  0  0  0  0
   26.1220  -20.7051   -7.6316 C   0  0  2  0  0  0  0  0  0  0  0  0
   26.2192  -20.1333   -8.9958 N   0  0  0  0  0  0  0  0  0  0  0  0
   24.6861  -20.7347   -7.2323 C   0  0  0  0  0  0  0  0  0  0  0  0
   23.9445  -19.7131   -7.4593 O   0  0  0  0  0  0  0  0  0  0  0  0
   22.4533  -24.2387   -6.3761 C   0  0  0  0  0  0  0  0  0  0  0  0
   21.9106  -22.9403   -6.8785 C   0  0  1  0  0  0  0  0  0  0  0  0
   20.4584  -22.8293   -6.4148 C   0  0  0  0  0  0  0  0  0  0  0  0
   22.6325  -21.7613   -6.2446 C   0  0  2  0  0  0  0  0  0  0  0  0
   24.0362  -21.8160   -6.6098 N   0  0  0  0  0  0  0  0  0  0  0  0
   22.4403  -21.7418   -4.7805 C   0  0  0  0  0  0  0  0  0  0  0  0
   21.1720  -21.5380   -4.2570 O   0  0  0  0  0  0  0  0  0  0  0  0
   23.3680  -21.9006   -3.9442 O   0  0  0  0  0  0  0  0  0  0  0  0
  2  1  1  6
  2 13  1  0
  2  3  1  0
  4  3  1  0
  4  5  2  0
  6  5  1  0
  7  6  1  0
  8  7  2  0
  9  8  1  0
 10  9  2  0
 10 11  1  0
 11 12  2  0
 12  7  1  0
 12  4  1  0
 13 14  2  0
 16 15  1  1
 17 16  1  0
 18 16  1  0
 19 18  1  1
 20 19  1  0
 20 13  1  0
 21 22  2  0
 21 19  1  0
 24 23  1  1
 24 26  1  0
 25 24  1  0
 26 28  1  0
 26 27  1  1
 27 21  1  0
 28 29  1  0
 30 28  2  0
M  END
$$$$
