RYH.pdb
     RDKit          3D

 34 35  0  0  1  0  0  0  0  0999 V2000
    7.9210  -13.5637   15.9169 N   0  0  0  0  0  0  0  0  0  0  0  0
    8.3373  -14.3173   14.7855 C   0  0  0  0  0  0  0  0  0  0  0  0
    7.6537  -14.2772   13.6821 N   0  0  0  0  0  0  0  0  0  0  0  0
    9.5027  -15.1079   14.8851 N   0  0  0  0  0  0  0  0  0  0  0  0
   10.2314  -15.0955   16.1715 C   0  0  0  0  0  0  0  0  0  0  0  0
    9.4144  -15.9024   17.1154 C   0  0  0  0  0  0  0  0  0  0  0  0
    9.9875  -16.0069   18.4731 C   0  0  0  0  0  0  0  0  0  0  0  0
    9.1998  -16.7619   19.5018 C   0  0  2  0  0  0  0  0  0  0  0  0
    7.8442  -16.9925   19.1201 N   0  0  0  0  0  0  0  0  0  0  0  0
    9.2794  -15.9574   20.7713 C   0  0  0  0  0  0  0  0  0  0  0  0
   10.2076  -15.1260   20.8612 O   0  0  0  0  0  0  0  0  0  0  0  0
    7.9268  -14.7815   12.8176 O   0  0  0  0  0  0  0  0  0  0  0  0
    7.3314  -11.5079   28.0502 C   0  0  0  0  0  0  0  0  0  0  0  0
    7.3056  -12.2344   26.8642 C   0  0  0  0  0  0  0  0  0  0  0  0
    6.6182  -13.4382   26.7867 C   0  0  0  0  0  0  0  0  0  0  0  0
    6.5801  -14.1783   25.6136 C   0  0  0  0  0  0  0  0  0  0  0  0
    7.2383  -13.7080   24.5029 C   0  0  0  0  0  0  0  0  0  0  0  0
    7.2068  -14.4707   23.2597 C   0  0  1  0  0  0  0  0  0  0  0  0
    8.4504  -15.3173   23.0581 N   0  0  0  0  0  0  0  0  0  0  0  0
    8.3611  -16.1034   21.8435 C   0  0  0  0  0  0  0  0  0  0  0  0
    8.6688  -16.2171   24.2036 O   0  0  0  0  0  0  0  0  0  0  0  0
    7.8583  -17.1195   24.5264 C   0  0  0  0  0  0  0  0  0  0  0  0
    7.9164  -12.5163   24.5869 C   0  0  0  0  0  0  0  0  0  0  0  0
    7.9652  -11.7658   25.7472 N   0  0  0  0  0  0  0  0  0  0  0  0
    9.8334  -16.0859   24.9953 C   0  0  2  0  0  0  0  0  0  0  0  0
   10.0781  -17.0126   26.1028 C   0  0  0  0  0  0  0  0  0  0  0  0
   11.4577  -17.5634   26.0576 C   0  0  0  0  0  0  0  0  0  0  0  0
   11.6215  -18.4530   24.8908 C   0  0  0  0  0  0  0  0  0  0  0  0
   10.6543  -18.7089   23.9078 N   0  0  0  0  0  0  0  0  0  0  0  0
   11.1306  -19.5631   22.9880 C   0  0  0  0  0  0  0  0  0  0  0  0
   12.3807  -19.8538   23.3685 N   0  0  0  0  0  0  0  0  0  0  0  0
   12.6803  -19.1984   24.4980 C   0  0  0  0  0  0  0  0  0  0  0  0
    9.8531  -16.2982   27.3763 O   0  0  0  0  0  0  0  0  0  0  0  0
    9.6152  -15.0573   27.3658 O   0  0  0  0  0  0  0  0  0  0  0  0
  2  4  1  0
  2  1  1  0
  3  2  2  0
  5  4  1  0
  6  5  1  0
  7  8  1  0
  7  6  1  0
  8  9  1  6
 10  8  1  0
 10 19  1  0
 11 10  2  0
 12 13  1  0
 13 14  2  0
 14 15  1  0
 16 15  2  0
 16 17  1  0
 18 17  1  6
 18 19  1  0
 20 18  1  0
 21 20  2  0
 22 16  1  0
 23 13  1  0
 23 22  2  0
 24 20  1  0
 25 26  1  6
 25 24  1  0
 26 27  1  0
 27 28  2  0
 29 28  1  0
 30 29  1  0
 31 30  2  0
 31 27  1  0
 32 25  1  0
 33 32  2  0
 34 32  1  0
M  END
$$$$
