RYH.pdb
     RDKit          3D

 34 35  0  0  1  0  0  0  0  0999 V2000
    7.6280  -17.1206   15.0822 N   0  0  0  0  0  0  0  0  0  0  0  0
    9.0039  -17.1134   14.7246 C   0  0  0  0  0  0  0  0  0  0  0  0
    9.3914  -17.6234   13.5950 N   0  0  0  0  0  0  0  0  0  0  0  0
    9.9369  -16.5447   15.6186 N   0  0  0  0  0  0  0  0  0  0  0  0
    9.4179  -15.9759   16.8807 C   0  0  0  0  0  0  0  0  0  0  0  0
    9.2481  -17.1232   17.8104 C   0  0  0  0  0  0  0  0  0  0  0  0
    8.8050  -16.7408   19.1669 C   0  0  0  0  0  0  0  0  0  0  0  0
    8.3278  -15.3337   19.3694 C   0  0  2  0  0  0  0  0  0  0  0  0
    8.8022  -14.4262   18.3754 N   0  0  0  0  0  0  0  0  0  0  0  0
    8.7849  -14.9246   20.7437 C   0  0  0  0  0  0  0  0  0  0  0  0
    9.4901  -13.8967   20.8267 O   0  0  0  0  0  0  0  0  0  0  0  0
   10.3827  -17.6618   13.2912 O   0  0  0  0  0  0  0  0  0  0  0  0
    6.9565  -11.4552   28.3137 C   0  0  0  0  0  0  0  0  0  0  0  0
    7.0563  -12.0596   27.0649 C   0  0  0  0  0  0  0  0  0  0  0  0
    7.8938  -11.5348   26.0897 C   0  0  0  0  0  0  0  0  0  0  0  0
    8.0079  -12.1222   24.8378 C   0  0  0  0  0  0  0  0  0  0  0  0
    7.2745  -13.2500   24.5574 C   0  0  0  0  0  0  0  0  0  0  0  0
    7.3838  -13.8834   23.2478 C   0  0  1  0  0  0  0  0  0  0  0  0
    8.3919  -15.0180   23.2264 N   0  0  0  0  0  0  0  0  0  0  0  0
    8.4519  -15.6445   21.9206 C   0  0  0  0  0  0  0  0  0  0  0  0
    8.0635  -16.0363   24.2386 O   0  0  0  0  0  0  0  0  0  0  0  0
    7.2559  -16.9735   24.0263 C   0  0  0  0  0  0  0  0  0  0  0  0
    6.4479  -13.7636   25.5269 C   0  0  0  0  0  0  0  0  0  0  0  0
    6.3217  -13.1916   26.7795 N   0  0  0  0  0  0  0  0  0  0  0  0
    8.6677  -15.9855   25.5163 C   0  0  2  0  0  0  0  0  0  0  0  0
    9.8422  -16.8105   25.8080 C   0  0  0  0  0  0  0  0  0  0  0  0
   10.9457  -16.5461   24.8482 C   0  0  0  0  0  0  0  0  0  0  0  0
   11.3081  -17.7805   24.1239 C   0  0  0  0  0  0  0  0  0  0  0  0
   10.6847  -19.0293   24.2612 N   0  0  0  0  0  0  0  0  0  0  0  0
   11.2606  -19.9356   23.4552 C   0  0  0  0  0  0  0  0  0  0  0  0
   12.2368  -19.2858   22.8096 N   0  0  0  0  0  0  0  0  0  0  0  0
   12.2719  -18.0049   23.2011 C   0  0  0  0  0  0  0  0  0  0  0  0
   10.2862  -16.5305   27.1891 O   0  0  0  0  0  0  0  0  0  0  0  0
   10.0450  -15.4046   27.7093 O   0  0  0  0  0  0  0  0  0  0  0  0
  2  4  1  0
  2  1  1  0
  3  2  2  0
  5  4  1  0
  6  5  1  0
  7  8  1  0
  7  6  1  0
  8  9  1  6
 10  8  1  0
 10 19  1  0
 11 10  2  0
 12 13  1  0
 13 14  2  0
 14 15  1  0
 16 15  2  0
 16 17  1  0
 18 17  1  6
 18 19  1  0
 20 18  1  0
 21 20  2  0
 22 16  1  0
 23 13  1  0
 23 22  2  0
 24 20  1  0
 25 26  1  6
 25 24  1  0
 26 27  1  0
 27 28  2  0
 29 28  1  0
 30 29  1  0
 31 30  2  0
 31 27  1  0
 32 25  1  0
 33 32  2  0
 34 32  1  0
M  END
$$$$
