RYH.pdb
     RDKit          3D

 34 35  0  0  1  0  0  0  0  0999 V2000
    8.4930  -16.9275   15.6347 N   0  0  0  0  0  0  0  0  0  0  0  0
    7.9128  -15.7753   15.0374 C   0  0  0  0  0  0  0  0  0  0  0  0
    8.2860  -15.3905   13.8545 N   0  0  0  0  0  0  0  0  0  0  0  0
    6.9283  -15.0598   15.7527 N   0  0  0  0  0  0  0  0  0  0  0  0
    6.9738  -15.1212   17.2292 C   0  0  0  0  0  0  0  0  0  0  0  0
    8.3793  -14.8231   17.6106 C   0  0  0  0  0  0  0  0  0  0  0  0
    8.6283  -14.8488   19.0667 C   0  0  0  0  0  0  0  0  0  0  0  0
    8.0970  -13.7073   19.8811 C   0  0  2  0  0  0  0  0  0  0  0  0
    8.4606  -12.4269   19.3664 N   0  0  0  0  0  0  0  0  0  0  0  0
    8.6221  -13.9025   21.2780 C   0  0  0  0  0  0  0  0  0  0  0  0
    9.8261  -14.2145   21.3952 O   0  0  0  0  0  0  0  0  0  0  0  0
    7.9033  -14.5542   13.3744 O   0  0  0  0  0  0  0  0  0  0  0  0
    9.0030  -14.9789   30.0425 C   0  0  0  0  0  0  0  0  0  0  0  0
    8.5902  -14.6420   28.7576 C   0  0  0  0  0  0  0  0  0  0  0  0
    8.0137  -15.5939   27.9273 C   0  0  0  0  0  0  0  0  0  0  0  0
    7.5952  -15.2787   26.6425 C   0  0  0  0  0  0  0  0  0  0  0  0
    7.7553  -13.9940   26.1818 C   0  0  0  0  0  0  0  0  0  0  0  0
    7.3184  -13.6431   24.8349 C   0  0  1  0  0  0  0  0  0  0  0  0
    8.2921  -14.0996   23.7637 N   0  0  0  0  0  0  0  0  0  0  0  0
    7.8205  -13.7480   22.4389 C   0  0  0  0  0  0  0  0  0  0  0  0
    8.5086  -15.5549   23.8315 O   0  0  0  0  0  0  0  0  0  0  0  0
    7.7737  -16.3821   23.2388 C   0  0  0  0  0  0  0  0  0  0  0  0
    8.3265  -13.0576   27.0087 C   0  0  0  0  0  0  0  0  0  0  0  0
    8.7493  -13.3537   28.2915 N   0  0  0  0  0  0  0  0  0  0  0  0
    9.5833  -16.0767   24.5885 C   0  0  2  0  0  0  0  0  0  0  0  0
   10.3503  -17.2190   24.0865 C   0  0  0  0  0  0  0  0  0  0  0  0
   10.8720  -16.9660   22.7181 C   0  0  0  0  0  0  0  0  0  0  0  0
   11.6490  -18.1259   22.2381 C   0  0  0  0  0  0  0  0  0  0  0  0
   11.9024  -19.3026   22.9581 N   0  0  0  0  0  0  0  0  0  0  0  0
   12.6390  -20.1541   22.2268 C   0  0  0  0  0  0  0  0  0  0  0  0
   12.8576  -19.5405   21.0573 N   0  0  0  0  0  0  0  0  0  0  0  0
   12.2729  -18.3350   21.0558 C   0  0  0  0  0  0  0  0  0  0  0  0
   11.4649  -17.4870   25.0185 O   0  0  0  0  0  0  0  0  0  0  0  0
   11.8571  -18.6740   25.2025 O   0  0  0  0  0  0  0  0  0  0  0  0
  2  4  1  0
  2  1  1  0
  3  2  2  0
  5  4  1  0
  6  5  1  0
  7  8  1  0
  7  6  1  0
  8  9  1  6
 10  8  1  0
 10 19  1  0
 11 10  2  0
 12 13  1  0
 13 14  2  0
 14 15  1  0
 16 15  2  0
 16 17  1  0
 18 17  1  1
 18 19  1  0
 20 18  1  0
 21 20  2  0
 22 16  1  0
 23 13  1  0
 23 22  2  0
 24 20  1  0
 25 26  1  6
 25 24  1  0
 26 27  1  0
 27 28  2  0
 29 28  1  0
 30 29  1  0
 31 30  2  0
 31 27  1  0
 32 25  1  0
 33 32  2  0
 34 32  1  0
M  END
$$$$
