RYH.pdb
     RDKit          3D

 34 35  0  0  1  0  0  0  0  0999 V2000
    8.9445  -15.1614   15.4373 N   0  0  0  0  0  0  0  0  0  0  0  0
    8.3626  -14.2001   16.3081 C   0  0  0  0  0  0  0  0  0  0  0  0
    8.3271  -12.9463   15.9721 N   0  0  0  0  0  0  0  0  0  0  0  0
    7.8277  -14.6332   17.5407 N   0  0  0  0  0  0  0  0  0  0  0  0
    7.7688  -16.0897   17.7883 C   0  0  0  0  0  0  0  0  0  0  0  0
    9.1778  -16.5400   17.9340 C   0  0  0  0  0  0  0  0  0  0  0  0
    9.8737  -15.9758   19.1089 C   0  0  0  0  0  0  0  0  0  0  0  0
    9.9772  -16.8365   20.3325 C   0  0  2  0  0  0  0  0  0  0  0  0
    8.9875  -17.8630   20.3883 N   0  0  0  0  0  0  0  0  0  0  0  0
    9.8685  -15.9096   21.5133 C   0  0  0  0  0  0  0  0  0  0  0  0
   10.7504  -15.0327   21.6319 O   0  0  0  0  0  0  0  0  0  0  0  0
    7.8861  -12.2077   16.5520 O   0  0  0  0  0  0  0  0  0  0  0  0
    6.2400  -11.1276   27.9694 C   0  0  0  0  0  0  0  0  0  0  0  0
    6.4830  -11.9536   26.8769 C   0  0  0  0  0  0  0  0  0  0  0  0
    7.1957  -11.4859   25.7810 C   0  0  0  0  0  0  0  0  0  0  0  0
    7.4489  -12.2933   24.6812 C   0  0  0  0  0  0  0  0  0  0  0  0
    6.9830  -13.5860   24.6775 C   0  0  0  0  0  0  0  0  0  0  0  0
    7.2422  -14.4508   23.5316 C   0  0  1  0  0  0  0  0  0  0  0  0
    8.6545  -15.0068   23.5227 N   0  0  0  0  0  0  0  0  0  0  0  0
    8.8263  -15.9916   22.4731 C   0  0  0  0  0  0  0  0  0  0  0  0
    8.9909  -15.6168   24.8204 O   0  0  0  0  0  0  0  0  0  0  0  0
    8.9542  -14.9818   25.9026 C   0  0  0  0  0  0  0  0  0  0  0  0
    6.2785  -14.0419   25.7651 C   0  0  0  0  0  0  0  0  0  0  0  0
    6.0168  -13.2516   26.8693 N   0  0  0  0  0  0  0  0  0  0  0  0
    9.3755  -16.9762   24.8857 C   0  0  1  0  0  0  0  0  0  0  0  0
    9.7249  -17.5808   26.1732 C   0  0  0  0  0  0  0  0  0  0  0  0
    9.0566  -18.8954   26.3570 C   0  0  0  0  0  0  0  0  0  0  0  0
    9.5269  -19.5460   27.5960 C   0  0  0  0  0  0  0  0  0  0  0  0
   10.4233  -18.9980   28.5252 N   0  0  0  0  0  0  0  0  0  0  0  0
   10.6357  -19.8537   29.5376 C   0  0  0  0  0  0  0  0  0  0  0  0
    9.8917  -20.9335   29.2686 N   0  0  0  0  0  0  0  0  0  0  0  0
    9.2298  -20.7590   28.1168 C   0  0  0  0  0  0  0  0  0  0  0  0
   11.1925  -17.7384   26.2394 O   0  0  0  0  0  0  0  0  0  0  0  0
   11.8825  -17.6355   25.1859 O   0  0  0  0  0  0  0  0  0  0  0  0
  2  4  1  0
  2  1  1  0
  3  2  2  0
  5  4  1  0
  6  5  1  0
  7  8  1  0
  7  6  1  0
  8  9  1  1
 10  8  1  0
 10 19  1  0
 11 10  2  0
 12 13  1  0
 13 14  2  0
 14 15  1  0
 16 15  2  0
 16 17  1  0
 18 17  1  6
 18 19  1  0
 20 18  1  0
 21 20  2  0
 22 16  1  0
 23 13  1  0
 23 22  2  0
 24 20  1  0
 25 26  1  1
 25 24  1  0
 26 27  1  0
 27 28  2  0
 29 28  1  0
 30 29  1  0
 31 30  2  0
 31 27  1  0
 32 25  1  0
 33 32  2  0
 34 32  1  0
M  END
$$$$
