RYH.pdb
     RDKit          3D

 34 35  0  0  1  0  0  0  0  0999 V2000
    9.5531  -13.4040   15.9566 N   0  0  0  0  0  0  0  0  0  0  0  0
    8.5674  -14.3718   15.6211 C   0  0  0  0  0  0  0  0  0  0  0  0
    7.4673  -14.0118   15.0324 N   0  0  0  0  0  0  0  0  0  0  0  0
    8.8061  -15.7261   15.9405 N   0  0  0  0  0  0  0  0  0  0  0  0
    9.9228  -16.0263   16.8619 C   0  0  0  0  0  0  0  0  0  0  0  0
   10.1192  -14.8031   17.6833 C   0  0  0  0  0  0  0  0  0  0  0  0
   10.6070  -15.0670   19.0527 C   0  0  0  0  0  0  0  0  0  0  0  0
    9.8802  -16.1006   19.8602 C   0  0  2  0  0  0  0  0  0  0  0  0
    8.5795  -16.4016   19.3561 N   0  0  0  0  0  0  0  0  0  0  0  0
    9.8102  -15.5680   21.2662 C   0  0  0  0  0  0  0  0  0  0  0  0
   10.8940  -15.3148   21.8337 O   0  0  0  0  0  0  0  0  0  0  0  0
    6.7159  -14.6744   14.7627 O   0  0  0  0  0  0  0  0  0  0  0  0
    6.8742  -12.1553   28.8472 C   0  0  0  0  0  0  0  0  0  0  0  0
    6.9894  -12.5952   27.5326 C   0  0  0  0  0  0  0  0  0  0  0  0
    7.7137  -11.8621   26.6022 C   0  0  0  0  0  0  0  0  0  0  0  0
    7.8408  -12.2831   25.2861 C   0  0  0  0  0  0  0  0  0  0  0  0
    7.2355  -13.4532   24.8954 C   0  0  0  0  0  0  0  0  0  0  0  0
    7.3609  -13.9135   23.5168 C   0  0  1  0  0  0  0  0  0  0  0  0
    8.5400  -14.8476   23.3142 N   0  0  0  0  0  0  0  0  0  0  0  0
    8.5888  -15.3469   21.9542 C   0  0  0  0  0  0  0  0  0  0  0  0
    8.4795  -15.9856   24.2472 O   0  0  0  0  0  0  0  0  0  0  0  0
    7.7972  -17.0153   24.0237 C   0  0  0  0  0  0  0  0  0  0  0  0
    6.5205  -14.1733   25.8213 C   0  0  0  0  0  0  0  0  0  0  0  0
    6.3832  -13.7691   27.1366 N   0  0  0  0  0  0  0  0  0  0  0  0
    9.2110  -15.9494   25.4570 C   0  0  1  0  0  0  0  0  0  0  0  0
    9.9767  -17.1209   25.8890 C   0  0  0  0  0  0  0  0  0  0  0  0
   11.2437  -17.2561   25.1241 C   0  0  0  0  0  0  0  0  0  0  0  0
   11.3233  -18.5850   24.4858 C   0  0  0  0  0  0  0  0  0  0  0  0
   10.2343  -19.3755   24.0905 N   0  0  0  0  0  0  0  0  0  0  0  0
   10.6597  -20.5247   23.5418 C   0  0  0  0  0  0  0  0  0  0  0  0
   11.9970  -20.4782   23.5815 N   0  0  0  0  0  0  0  0  0  0  0  0
   12.3994  -19.3292   24.1409 C   0  0  0  0  0  0  0  0  0  0  0  0
   10.2612  -16.9942   27.3333 O   0  0  0  0  0  0  0  0  0  0  0  0
   10.8499  -15.9644   27.7686 O   0  0  0  0  0  0  0  0  0  0  0  0
  2  4  1  0
  2  1  1  0
  3  2  2  0
  5  4  1  0
  6  5  1  0
  7  8  1  0
  7  6  1  0
  8  9  1  6
 10  8  1  0
 10 19  1  0
 11 10  2  0
 12 13  1  0
 13 14  2  0
 14 15  1  0
 16 15  2  0
 16 17  1  0
 18 17  1  6
 18 19  1  0
 20 18  1  0
 21 20  2  0
 22 16  1  0
 23 13  1  0
 23 22  2  0
 24 20  1  0
 25 26  1  1
 25 24  1  0
 26 27  1  0
 27 28  2  0
 29 28  1  0
 30 29  1  0
 31 30  2  0
 31 27  1  0
 32 25  1  0
 33 32  2  0
 34 32  1  0
M  END
$$$$
