RYH.pdb
     RDKit          3D

 34 35  0  0  1  0  0  0  0  0999 V2000
    9.6467  -21.9029   12.4093 N   0  0  0  0  0  0  0  0  0  0  0  0
    9.2345  -21.1033   13.5101 C   0  0  0  0  0  0  0  0  0  0  0  0
    8.3012  -20.2127   13.3617 N   0  0  0  0  0  0  0  0  0  0  0  0
    9.8582  -21.2945   14.7621 N   0  0  0  0  0  0  0  0  0  0  0  0
   10.8689  -22.3684   14.8674 C   0  0  0  0  0  0  0  0  0  0  0  0
   12.1869  -21.6864   14.9534 C   0  0  0  0  0  0  0  0  0  0  0  0
   12.4475  -21.0379   16.2550 C   0  0  0  0  0  0  0  0  0  0  0  0
   13.7697  -20.3540   16.4364 C   0  0  2  0  0  0  0  0  0  0  0  0
   14.8244  -20.9516   15.6834 N   0  0  0  0  0  0  0  0  0  0  0  0
   14.0659  -20.3881   17.9116 C   0  0  0  0  0  0  0  0  0  0  0  0
   13.3113  -19.7306   18.6592 O   0  0  0  0  0  0  0  0  0  0  0  0
    8.0224  -19.5427   14.1031 O   0  0  0  0  0  0  0  0  0  0  0  0
    9.9371  -24.8462   19.3506 C   0  0  0  0  0  0  0  0  0  0  0  0
   11.2231  -24.3571   19.5559 C   0  0  0  0  0  0  0  0  0  0  0  0
   11.4840  -23.4633   20.5858 C   0  0  0  0  0  0  0  0  0  0  0  0
   12.7593  -22.9635   20.8078 C   0  0  0  0  0  0  0  0  0  0  0  0
   13.7876  -23.3631   19.9886 C   0  0  0  0  0  0  0  0  0  0  0  0
   15.1357  -22.8509   20.2085 C   0  0  2  0  0  0  0  0  0  0  0  0
   15.2603  -21.3710   19.8950 N   0  0  0  0  0  0  0  0  0  0  0  0
   15.1435  -21.1225   18.4718 C   0  0  0  0  0  0  0  0  0  0  0  0
   16.5443  -20.8345   20.3776 O   0  0  0  0  0  0  0  0  0  0  0  0
   16.9151  -20.9253   21.5734 C   0  0  0  0  0  0  0  0  0  0  0  0
   13.5220  -24.2476   18.9716 C   0  0  0  0  0  0  0  0  0  0  0  0
   12.2578  -24.7557   18.7357 N   0  0  0  0  0  0  0  0  0  0  0  0
   17.4220  -20.1832   19.4802 C   0  0  1  0  0  0  0  0  0  0  0  0
   18.7316  -19.7162   19.9408 C   0  0  0  0  0  0  0  0  0  0  0  0
   19.3029  -18.7001   19.0190 C   0  0  0  0  0  0  0  0  0  0  0  0
   19.2836  -19.1945   17.6280 C   0  0  0  0  0  0  0  0  0  0  0  0
   19.3041  -20.5397   17.2315 N   0  0  0  0  0  0  0  0  0  0  0  0
   19.2758  -20.6378   15.8928 C   0  0  0  0  0  0  0  0  0  0  0  0
   19.2377  -19.3813   15.4328 N   0  0  0  0  0  0  0  0  0  0  0  0
   19.2421  -18.5176   16.4571 C   0  0  0  0  0  0  0  0  0  0  0  0
   18.5823  -19.1509   21.2976 O   0  0  0  0  0  0  0  0  0  0  0  0
   17.4391  -19.0998   21.8334 O   0  0  0  0  0  0  0  0  0  0  0  0
  2  4  1  0
  2  1  1  0
  3  2  2  0
  5  4  1  0
  6  5  1  0
  7  8  1  0
  7  6  1  0
  8  9  1  6
 10  8  1  0
 10 19  1  0
 11 10  2  0
 12 13  1  0
 13 14  2  0
 14 15  1  0
 16 15  2  0
 16 17  1  0
 18 17  1  1
 18 19  1  0
 20 18  1  0
 21 20  2  0
 22 16  1  0
 23 13  1  0
 23 22  2  0
 24 20  1  0
 25 26  1  6
 25 24  1  0
 26 27  1  0
 27 28  2  0
 29 28  1  0
 30 29  1  0
 31 30  2  0
 31 27  1  0
 32 25  1  0
 33 32  2  0
 34 32  1  0
M  END
$$$$
