RYH.pdb
     RDKit          3D

 34 35  0  0  1  0  0  0  0  0999 V2000
   11.7971  -15.0647   13.4554 N   0  0  0  0  0  0  0  0  0  0  0  0
   11.5269  -16.4536   13.3172 C   0  0  0  0  0  0  0  0  0  0  0  0
   11.8602  -17.0824   12.2310 N   0  0  0  0  0  0  0  0  0  0  0  0
   10.8904  -17.1326   14.3787 N   0  0  0  0  0  0  0  0  0  0  0  0
   10.6340  -16.3740   15.6216 C   0  0  0  0  0  0  0  0  0  0  0  0
   10.6696  -17.3685   16.7258 C   0  0  0  0  0  0  0  0  0  0  0  0
   10.4717  -16.7865   18.0693 C   0  0  0  0  0  0  0  0  0  0  0  0
   10.3916  -17.7328   19.2298 C   0  0  2  0  0  0  0  0  0  0  0  0
    9.1948  -18.5100   19.2453 N   0  0  0  0  0  0  0  0  0  0  0  0
   10.5115  -16.8916   20.4720 C   0  0  0  0  0  0  0  0  0  0  0  0
   11.5617  -16.2296   20.6121 O   0  0  0  0  0  0  0  0  0  0  0  0
   11.8274  -18.1145   12.1307 O   0  0  0  0  0  0  0  0  0  0  0  0
    7.2792  -12.0669   18.2275 C   0  0  0  0  0  0  0  0  0  0  0  0
    7.5681  -12.8108   19.3668 C   0  0  0  0  0  0  0  0  0  0  0  0
    6.7328  -13.8452   19.7670 C   0  0  0  0  0  0  0  0  0  0  0  0
    7.0026  -14.5993   20.9000 C   0  0  0  0  0  0  0  0  0  0  0  0
    8.1232  -14.3152   21.6429 C   0  0  0  0  0  0  0  0  0  0  0  0
    8.4251  -15.0993   22.8355 C   0  0  2  0  0  0  0  0  0  0  0  0
    9.6305  -16.0038   22.6542 N   0  0  0  0  0  0  0  0  0  0  0  0
    9.5004  -16.8229   21.4655 C   0  0  0  0  0  0  0  0  0  0  0  0
    9.8183  -16.8757   23.8263 O   0  0  0  0  0  0  0  0  0  0  0  0
    8.9098  -17.6135   24.2801 C   0  0  0  0  0  0  0  0  0  0  0  0
    8.9450  -13.2904   21.2411 C   0  0  0  0  0  0  0  0  0  0  0  0
    8.6917  -12.5286   20.1151 N   0  0  0  0  0  0  0  0  0  0  0  0
   11.0652  -16.9077   24.4930 C   0  0  1  0  0  0  0  0  0  0  0  0
   11.2563  -17.7795   25.6543 C   0  0  0  0  0  0  0  0  0  0  0  0
   12.6914  -18.1060   25.8601 C   0  0  0  0  0  0  0  0  0  0  0  0
   13.1967  -18.9390   24.7509 C   0  0  0  0  0  0  0  0  0  0  0  0
   12.4304  -19.4656   23.7009 N   0  0  0  0  0  0  0  0  0  0  0  0
   13.2025  -20.1754   22.8627 C   0  0  0  0  0  0  0  0  0  0  0  0
   14.4433  -20.1091   23.3607 N   0  0  0  0  0  0  0  0  0  0  0  0
   14.4487  -19.3765   24.4825 C   0  0  0  0  0  0  0  0  0  0  0  0
   10.7080  -17.1041   26.8485 O   0  0  0  0  0  0  0  0  0  0  0  0
   10.7684  -17.6741   27.9745 O   0  0  0  0  0  0  0  0  0  0  0  0
  2  4  1  0
  2  1  1  0
  3  2  2  0
  5  4  1  0
  6  5  1  0
  7  8  1  0
  7  6  1  0
  8  9  1  1
 10  8  1  0
 10 19  1  0
 11 10  2  0
 12 13  1  0
 13 14  2  0
 14 15  1  0
 16 15  2  0
 16 17  1  0
 18 17  1  6
 18 19  1  0
 20 18  1  0
 21 20  2  0
 22 16  1  0
 23 13  1  0
 23 22  2  0
 24 20  1  0
 25 26  1  6
 25 24  1  0
 26 27  1  0
 27 28  2  0
 29 28  1  0
 30 29  1  0
 31 30  2  0
 31 27  1  0
 32 25  1  0
 33 32  2  0
 34 32  1  0
M  END
$$$$
