RYH.pdb
     RDKit          3D

 34 35  0  0  1  0  0  0  0  0999 V2000
    9.2978  -15.6424   14.5653 N   0  0  0  0  0  0  0  0  0  0  0  0
    9.2405  -17.0383   14.8285 C   0  0  0  0  0  0  0  0  0  0  0  0
    8.7126  -17.8487   13.9618 N   0  0  0  0  0  0  0  0  0  0  0  0
    9.7650  -17.5240   16.0458 N   0  0  0  0  0  0  0  0  0  0  0  0
   10.3493  -16.5396   16.9815 C   0  0  0  0  0  0  0  0  0  0  0  0
   10.9734  -17.3305   18.0745 C   0  0  0  0  0  0  0  0  0  0  0  0
   10.8171  -16.7337   19.4170 C   0  0  0  0  0  0  0  0  0  0  0  0
   10.2011  -17.5851   20.4866 C   0  0  2  0  0  0  0  0  0  0  0  0
    8.9784  -18.2021   20.0854 N   0  0  0  0  0  0  0  0  0  0  0  0
    9.9937  -16.6870   21.6764 C   0  0  0  0  0  0  0  0  0  0  0  0
   10.8813  -15.8400   21.9120 O   0  0  0  0  0  0  0  0  0  0  0  0
    8.6423  -18.8742   14.1018 O   0  0  0  0  0  0  0  0  0  0  0  0
    7.8343  -12.1472   18.5756 C   0  0  0  0  0  0  0  0  0  0  0  0
    7.7577  -12.8318   19.7841 C   0  0  0  0  0  0  0  0  0  0  0  0
    7.0093  -13.9964   19.8911 C   0  0  0  0  0  0  0  0  0  0  0  0
    6.9196  -14.6944   21.0870 C   0  0  0  0  0  0  0  0  0  0  0  0
    7.5875  -14.2213   22.1908 C   0  0  0  0  0  0  0  0  0  0  0  0
    7.5077  -14.9434   23.4558 C   0  0  2  0  0  0  0  0  0  0  0  0
    8.6730  -15.8934   23.6646 N   0  0  0  0  0  0  0  0  0  0  0  0
    8.8547  -16.7636   22.5197 C   0  0  0  0  0  0  0  0  0  0  0  0
    8.4765  -16.7141   24.8717 O   0  0  0  0  0  0  0  0  0  0  0  0
    7.5674  -17.5740   24.9713 C   0  0  0  0  0  0  0  0  0  0  0  0
    8.3259  -13.0685   22.0775 C   0  0  0  0  0  0  0  0  0  0  0  0
    8.4265  -12.3601   20.8942 N   0  0  0  0  0  0  0  0  0  0  0  0
    9.3326  -16.5520   25.9856 C   0  0  2  0  0  0  0  0  0  0  0  0
    9.7284  -17.7141   26.7845 C   0  0  0  0  0  0  0  0  0  0  0  0
   10.5883  -18.6432   26.0061 C   0  0  0  0  0  0  0  0  0  0  0  0
    9.7757  -19.7197   25.4056 C   0  0  0  0  0  0  0  0  0  0  0  0
    8.3905  -19.8846   25.5505 N   0  0  0  0  0  0  0  0  0  0  0  0
    7.9701  -20.9643   24.8723 C   0  0  0  0  0  0  0  0  0  0  0  0
    9.0616  -21.4871   24.3002 N   0  0  0  0  0  0  0  0  0  0  0  0
   10.1387  -20.7538   24.6121 C   0  0  0  0  0  0  0  0  0  0  0  0
   10.4436  -17.2402   27.9873 O   0  0  0  0  0  0  0  0  0  0  0  0
   10.8150  -16.0348   28.0620 O   0  0  0  0  0  0  0  0  0  0  0  0
  2  4  1  0
  2  1  1  0
  3  2  2  0
  5  4  1  0
  6  5  1  0
  7  8  1  0
  7  6  1  0
  8  9  1  6
 10  8  1  0
 10 19  1  0
 11 10  2  0
 12 13  1  0
 13 14  2  0
 14 15  1  0
 16 15  2  0
 16 17  1  0
 18 17  1  6
 18 19  1  0
 20 18  1  0
 21 20  2  0
 22 16  1  0
 23 13  1  0
 23 22  2  0
 24 20  1  0
 25 26  1  1
 25 24  1  0
 26 27  1  0
 27 28  2  0
 29 28  1  0
 30 29  1  0
 31 30  2  0
 31 27  1  0
 32 25  1  0
 33 32  2  0
 34 32  1  0
M  END
$$$$
