RYH.pdb
     RDKit          3D

 34 35  0  0  1  0  0  0  0  0999 V2000
    7.6943  -12.3766   16.3072 N   0  0  0  0  0  0  0  0  0  0  0  0
    7.7365  -13.7116   15.8204 C   0  0  0  0  0  0  0  0  0  0  0  0
    7.4248  -13.9708   14.5867 N   0  0  0  0  0  0  0  0  0  0  0  0
    8.1207  -14.7459   16.7011 N   0  0  0  0  0  0  0  0  0  0  0  0
    8.2888  -14.4027   18.1294 C   0  0  0  0  0  0  0  0  0  0  0  0
    8.7341  -15.6507   18.8031 C   0  0  0  0  0  0  0  0  0  0  0  0
    9.0645  -15.4801   20.2330 C   0  0  0  0  0  0  0  0  0  0  0  0
    7.9237  -15.3378   21.1958 C   0  0  2  0  0  0  0  0  0  0  0  0
    7.1667  -14.1433   21.0045 N   0  0  0  0  0  0  0  0  0  0  0  0
    8.5241  -15.3877   22.5750 C   0  0  0  0  0  0  0  0  0  0  0  0
    9.5021  -14.6429   22.7975 O   0  0  0  0  0  0  0  0  0  0  0  0
    7.4969  -14.9143   14.1613 O   0  0  0  0  0  0  0  0  0  0  0  0
    6.7907  -10.3675   26.1096 C   0  0  0  0  0  0  0  0  0  0  0  0
    7.0309  -11.7373   26.0824 C   0  0  0  0  0  0  0  0  0  0  0  0
    6.3893  -12.5860   26.9744 C   0  0  0  0  0  0  0  0  0  0  0  0
    6.6147  -13.9552   26.9641 C   0  0  0  0  0  0  0  0  0  0  0  0
    7.4939  -14.4826   26.0491 C   0  0  0  0  0  0  0  0  0  0  0  0
    7.7413  -15.9200   26.0210 C   0  0  2  0  0  0  0  0  0  0  0  0
    8.6786  -16.3330   24.9008 N   0  0  0  0  0  0  0  0  0  0  0  0
    8.0322  -16.2279   23.6076 C   0  0  0  0  0  0  0  0  0  0  0  0
    9.1573  -17.7125   25.0934 O   0  0  0  0  0  0  0  0  0  0  0  0
    8.4392  -18.7197   24.8800 C   0  0  0  0  0  0  0  0  0  0  0  0
    8.1252  -13.6370   25.1697 C   0  0  0  0  0  0  0  0  0  0  0  0
    7.9127  -12.2706   25.1656 N   0  0  0  0  0  0  0  0  0  0  0  0
   10.4794  -17.9481   25.5369 C   0  0  1  0  0  0  0  0  0  0  0  0
   10.9010  -19.3010   25.9074 C   0  0  0  0  0  0  0  0  0  0  0  0
   10.7853  -20.2406   24.7618 C   0  0  0  0  0  0  0  0  0  0  0  0
   11.4459  -19.6817   23.5656 C   0  0  0  0  0  0  0  0  0  0  0  0
   11.9861  -18.3926   23.4495 N   0  0  0  0  0  0  0  0  0  0  0  0
   12.5128  -18.2096   22.2282 C   0  0  0  0  0  0  0  0  0  0  0  0
   12.3170  -19.3574   21.5676 N   0  0  0  0  0  0  0  0  0  0  0  0
   11.6838  -20.2373   22.3550 C   0  0  0  0  0  0  0  0  0  0  0  0
   12.2974  -19.2469   26.3869 O   0  0  0  0  0  0  0  0  0  0  0  0
   12.8882  -20.3133   26.7192 O   0  0  0  0  0  0  0  0  0  0  0  0
  2  4  1  0
  2  1  1  0
  3  2  2  0
  5  4  1  0
  6  5  1  0
  7  8  1  0
  7  6  1  0
  8  9  1  6
 10  8  1  0
 10 19  1  0
 11 10  2  0
 12 13  1  0
 13 14  2  0
 14 15  1  0
 16 15  2  0
 16 17  1  0
 18 17  1  6
 18 19  1  0
 20 18  1  0
 21 20  2  0
 22 16  1  0
 23 13  1  0
 23 22  2  0
 24 20  1  0
 25 26  1  6
 25 24  1  0
 26 27  1  0
 27 28  2  0
 29 28  1  0
 30 29  1  0
 31 30  2  0
 31 27  1  0
 32 25  1  0
 33 32  2  0
 34 32  1  0
M  END
$$$$
