RYH.pdb
     RDKit          3D

 34 35  0  0  1  0  0  0  0  0999 V2000
    6.1902  -19.3668   17.9928 N   0  0  0  0  0  0  0  0  0  0  0  0
    6.8085  -18.2188   17.4265 C   0  0  0  0  0  0  0  0  0  0  0  0
    6.1676  -17.4836   16.5690 N   0  0  0  0  0  0  0  0  0  0  0  0
    8.1277  -17.8958   17.8117 N   0  0  0  0  0  0  0  0  0  0  0  0
    8.7147  -16.6518   17.2698 C   0  0  0  0  0  0  0  0  0  0  0  0
    7.9795  -15.5335   17.9167 C   0  0  0  0  0  0  0  0  0  0  0  0
    8.4134  -15.2454   19.2993 C   0  0  0  0  0  0  0  0  0  0  0  0
    7.6720  -14.1804   20.0508 C   0  0  2  0  0  0  0  0  0  0  0  0
    7.5960  -12.9404   19.3486 N   0  0  0  0  0  0  0  0  0  0  0  0
    8.3821  -14.0184   21.3679 C   0  0  0  0  0  0  0  0  0  0  0  0
    9.2805  -13.1523   21.4276 O   0  0  0  0  0  0  0  0  0  0  0  0
    6.5420  -16.5993   16.1763 O   0  0  0  0  0  0  0  0  0  0  0  0
   10.3166  -14.4567   29.9685 C   0  0  0  0  0  0  0  0  0  0  0  0
    9.6889  -14.5107   28.7283 C   0  0  0  0  0  0  0  0  0  0  0  0
    9.4660  -15.7289   28.1007 C   0  0  0  0  0  0  0  0  0  0  0  0
    8.8418  -15.8049   26.8637 C   0  0  0  0  0  0  0  0  0  0  0  0
    8.4349  -14.6467   26.2462 C   0  0  0  0  0  0  0  0  0  0  0  0
    7.7740  -14.7069   24.9471 C   0  0  1  0  0  0  0  0  0  0  0  0
    8.7475  -14.6012   23.7873 N   0  0  0  0  0  0  0  0  0  0  0  0
    8.0761  -14.7929   22.5170 C   0  0  0  0  0  0  0  0  0  0  0  0
    9.8330  -15.5883   23.9164 O   0  0  0  0  0  0  0  0  0  0  0  0
   10.5671  -15.6659   24.9316 C   0  0  0  0  0  0  0  0  0  0  0  0
    8.6588  -13.4451   26.8731 C   0  0  0  0  0  0  0  0  0  0  0  0
    9.2792  -13.3505   28.1053 N   0  0  0  0  0  0  0  0  0  0  0  0
   10.0857  -16.5044   22.8690 C   0  0  1  0  0  0  0  0  0  0  0  0
   11.0534  -17.5877   23.0567 C   0  0  0  0  0  0  0  0  0  0  0  0
   10.8654  -18.6664   22.0518 C   0  0  0  0  0  0  0  0  0  0  0  0
    9.4830  -19.1824   22.0992 C   0  0  0  0  0  0  0  0  0  0  0  0
    8.5177  -18.8644   23.0657 N   0  0  0  0  0  0  0  0  0  0  0  0
    7.3660  -19.5058   22.8115 C   0  0  0  0  0  0  0  0  0  0  0  0
    7.5821  -20.2242   21.7029 N   0  0  0  0  0  0  0  0  0  0  0  0
    8.8374  -20.0378   21.2732 C   0  0  0  0  0  0  0  0  0  0  0  0
   12.4167  -17.0270   22.9578 O   0  0  0  0  0  0  0  0  0  0  0  0
   12.5727  -15.7909   22.7475 O   0  0  0  0  0  0  0  0  0  0  0  0
  2  4  1  0
  2  1  1  0
  3  2  2  0
  5  4  1  0
  6  5  1  0
  7  8  1  0
  7  6  1  0
  8  9  1  6
 10  8  1  0
 10 19  1  0
 11 10  2  0
 12 13  1  0
 13 14  2  0
 14 15  1  0
 16 15  2  0
 16 17  1  0
 18 17  1  6
 18 19  1  0
 20 18  1  0
 21 20  2  0
 22 16  1  0
 23 13  1  0
 23 22  2  0
 24 20  1  0
 25 26  1  1
 25 24  1  0
 26 27  1  0
 27 28  2  0
 29 28  1  0
 30 29  1  0
 31 30  2  0
 31 27  1  0
 32 25  1  0
 33 32  2  0
 34 32  1  0
M  END
$$$$
