RYH.pdb
     RDKit          3D

 34 35  0  0  1  0  0  0  0  0999 V2000
    7.0754  -16.8456   15.5953 N   0  0  0  0  0  0  0  0  0  0  0  0
    8.4963  -16.8666   15.6368 C   0  0  0  0  0  0  0  0  0  0  0  0
    9.1498  -17.9107   15.2253 N   0  0  0  0  0  0  0  0  0  0  0  0
    9.1800  -15.7356   16.1332 N   0  0  0  0  0  0  0  0  0  0  0  0
    8.3741  -14.6734   16.7721 C   0  0  0  0  0  0  0  0  0  0  0  0
    8.6346  -14.7804   18.2316 C   0  0  0  0  0  0  0  0  0  0  0  0
    7.5047  -14.3486   19.0800 C   0  0  0  0  0  0  0  0  0  0  0  0
    7.7540  -13.2343   20.0521 C   0  0  2  0  0  0  0  0  0  0  0  0
    8.5592  -12.1850   19.5164 N   0  0  0  0  0  0  0  0  0  0  0  0
    8.4044  -13.8600   21.2565 C   0  0  0  0  0  0  0  0  0  0  0  0
    9.6435  -13.7399   21.3613 O   0  0  0  0  0  0  0  0  0  0  0  0
   10.1853  -17.9628   15.1871 O   0  0  0  0  0  0  0  0  0  0  0  0
    5.9729  -10.8882   27.5161 C   0  0  0  0  0  0  0  0  0  0  0  0
    6.3055  -12.0118   26.7667 C   0  0  0  0  0  0  0  0  0  0  0  0
    6.5247  -13.2354   27.3853 C   0  0  0  0  0  0  0  0  0  0  0  0
    6.8574  -14.3682   26.6564 C   0  0  0  0  0  0  0  0  0  0  0  0
    6.9725  -14.2761   25.2901 C   0  0  0  0  0  0  0  0  0  0  0  0
    7.3183  -15.4571   24.5067 C   0  0  2  0  0  0  0  0  0  0  0  0
    8.3229  -15.1599   23.4083 N   0  0  0  0  0  0  0  0  0  0  0  0
    7.6803  -14.5634   22.2541 C   0  0  0  0  0  0  0  0  0  0  0  0
    9.0289  -16.3838   22.9922 O   0  0  0  0  0  0  0  0  0  0  0  0
    8.9497  -16.8559   21.8319 C   0  0  0  0  0  0  0  0  0  0  0  0
    6.7543  -13.0624   24.6849 C   0  0  0  0  0  0  0  0  0  0  0  0
    6.4221  -11.9234   25.3952 N   0  0  0  0  0  0  0  0  0  0  0  0
    9.8409  -17.0819   23.9161 C   0  0  2  0  0  0  0  0  0  0  0  0
   11.2386  -17.3760   23.5915 C   0  0  0  0  0  0  0  0  0  0  0  0
   12.0145  -16.1323   23.3472 C   0  0  0  0  0  0  0  0  0  0  0  0
   12.2462  -15.9428   21.9015 C   0  0  0  0  0  0  0  0  0  0  0  0
   11.7475  -16.7564   20.8736 N   0  0  0  0  0  0  0  0  0  0  0  0
   12.1465  -16.3009   19.6753 C   0  0  0  0  0  0  0  0  0  0  0  0
   12.8883  -15.2145   19.9233 N   0  0  0  0  0  0  0  0  0  0  0  0
   12.9526  -14.9947   21.2434 C   0  0  0  0  0  0  0  0  0  0  0  0
   11.8330  -18.1400   24.7077 O   0  0  0  0  0  0  0  0  0  0  0  0
   12.6685  -19.0564   24.4657 O   0  0  0  0  0  0  0  0  0  0  0  0
  2  4  1  0
  2  1  1  0
  3  2  2  0
  5  4  1  0
  6  5  1  0
  7  8  1  0
  7  6  1  0
  8  9  1  6
 10  8  1  0
 10 19  1  0
 11 10  2  0
 12 13  1  0
 13 14  2  0
 14 15  1  0
 16 15  2  0
 16 17  1  0
 18 17  1  1
 18 19  1  0
 20 18  1  0
 21 20  2  0
 22 16  1  0
 23 13  1  0
 23 22  2  0
 24 20  1  0
 25 26  1  6
 25 24  1  0
 26 27  1  0
 27 28  2  0
 29 28  1  0
 30 29  1  0
 31 30  2  0
 31 27  1  0
 32 25  1  0
 33 32  2  0
 34 32  1  0
M  END
$$$$
