RYH.pdb
     RDKit          3D

 34 35  0  0  1  0  0  0  0  0999 V2000
    7.3689  -12.5057   15.9161 N   0  0  0  0  0  0  0  0  0  0  0  0
    8.0211  -13.7142   15.5483 C   0  0  0  0  0  0  0  0  0  0  0  0
    8.6002  -13.8218   14.3909 N   0  0  0  0  0  0  0  0  0  0  0  0
    8.0257  -14.7909   16.4613 N   0  0  0  0  0  0  0  0  0  0  0  0
    6.7824  -15.0540   17.2169 C   0  0  0  0  0  0  0  0  0  0  0  0
    7.0442  -14.6055   18.6097 C   0  0  0  0  0  0  0  0  0  0  0  0
    7.6957  -15.6234   19.4595 C   0  0  0  0  0  0  0  0  0  0  0  0
    7.0345  -15.9660   20.7611 C   0  0  2  0  0  0  0  0  0  0  0  0
    5.7906  -15.2951   20.9583 N   0  0  0  0  0  0  0  0  0  0  0  0
    8.0205  -15.6154   21.8428 C   0  0  0  0  0  0  0  0  0  0  0  0
    8.8211  -14.6865   21.6041 O   0  0  0  0  0  0  0  0  0  0  0  0
    9.0500  -14.6929   14.0516 O   0  0  0  0  0  0  0  0  0  0  0  0
    5.9178  -10.7751   26.3744 C   0  0  0  0  0  0  0  0  0  0  0  0
    6.4978  -12.0204   26.1558 C   0  0  0  0  0  0  0  0  0  0  0  0
    7.8445  -12.1272   25.8356 C   0  0  0  0  0  0  0  0  0  0  0  0
    8.4425  -13.3596   25.6136 C   0  0  0  0  0  0  0  0  0  0  0  0
    7.6832  -14.5005   25.7134 C   0  0  0  0  0  0  0  0  0  0  0  0
    8.2951  -15.8053   25.4867 C   0  0  2  0  0  0  0  0  0  0  0  0
    8.9959  -15.9001   24.1437 N   0  0  0  0  0  0  0  0  0  0  0  0
    8.0729  -16.2834   23.0939 C   0  0  0  0  0  0  0  0  0  0  0  0
   10.1043  -16.8688   24.1929 O   0  0  0  0  0  0  0  0  0  0  0  0
    9.9237  -18.1098   24.2468 C   0  0  0  0  0  0  0  0  0  0  0  0
    6.3514  -14.3871   26.0305 C   0  0  0  0  0  0  0  0  0  0  0  0
    5.7390  -13.1678   26.2549 N   0  0  0  0  0  0  0  0  0  0  0  0
   11.4435  -16.4142   24.1798 C   0  0  2  0  0  0  0  0  0  0  0  0
   12.5456  -17.3681   24.3232 C   0  0  0  0  0  0  0  0  0  0  0  0
   13.8655  -16.7030   24.1684 C   0  0  0  0  0  0  0  0  0  0  0  0
   14.9585  -17.6883   24.2879 C   0  0  0  0  0  0  0  0  0  0  0  0
   14.8197  -19.0299   24.6725 N   0  0  0  0  0  0  0  0  0  0  0  0
   16.0126  -19.6459   24.6761 C   0  0  0  0  0  0  0  0  0  0  0  0
   16.9050  -18.7211   24.3013 N   0  0  0  0  0  0  0  0  0  0  0  0
   16.2871  -17.5553   24.0687 C   0  0  0  0  0  0  0  0  0  0  0  0
   12.4472  -18.0089   25.6509 O   0  0  0  0  0  0  0  0  0  0  0  0
   12.6514  -19.2506   25.7646 O   0  0  0  0  0  0  0  0  0  0  0  0
  2  4  1  0
  2  1  1  0
  3  2  2  0
  5  4  1  0
  6  5  1  0
  7  8  1  0
  7  6  1  0
  8  9  1  1
 10  8  1  0
 10 19  1  0
 11 10  2  0
 12 13  1  0
 13 14  2  0
 14 15  1  0
 16 15  2  0
 16 17  1  0
 18 17  1  6
 18 19  1  0
 20 18  1  0
 21 20  2  0
 22 16  1  0
 23 13  1  0
 23 22  2  0
 24 20  1  0
 25 26  1  6
 25 24  1  0
 26 27  1  0
 27 28  2  0
 29 28  1  0
 30 29  1  0
 31 30  2  0
 31 27  1  0
 32 25  1  0
 33 32  2  0
 34 32  1  0
M  END
$$$$
