RYH.pdb
     RDKit          3D

 34 35  0  0  1  0  0  0  0  0999 V2000
    8.1287  -13.2378   17.3991 N   0  0  0  0  0  0  0  0  0  0  0  0
    7.9848  -13.9434   16.1734 C   0  0  0  0  0  0  0  0  0  0  0  0
    8.1403  -13.3291   15.0399 N   0  0  0  0  0  0  0  0  0  0  0  0
    7.6692  -15.3189   16.2123 N   0  0  0  0  0  0  0  0  0  0  0  0
    7.5193  -15.9502   17.5408 C   0  0  0  0  0  0  0  0  0  0  0  0
    8.8902  -16.3262   17.9752 C   0  0  0  0  0  0  0  0  0  0  0  0
    9.2457  -15.8533   19.3290 C   0  0  0  0  0  0  0  0  0  0  0  0
    9.4178  -16.8873   20.4014 C   0  0  2  0  0  0  0  0  0  0  0  0
    8.4087  -17.8961   20.3827 N   0  0  0  0  0  0  0  0  0  0  0  0
    9.4215  -16.1441   21.7102 C   0  0  0  0  0  0  0  0  0  0  0  0
   10.4655  -15.5279   22.0121 O   0  0  0  0  0  0  0  0  0  0  0  0
    8.0848  -13.8009   14.1176 O   0  0  0  0  0  0  0  0  0  0  0  0
    7.0613  -11.4823   28.7291 C   0  0  0  0  0  0  0  0  0  0  0  0
    7.0775  -12.2195   27.5496 C   0  0  0  0  0  0  0  0  0  0  0  0
    6.1715  -13.2521   27.3482 C   0  0  0  0  0  0  0  0  0  0  0  0
    6.1708  -13.9997   26.1791 C   0  0  0  0  0  0  0  0  0  0  0  0
    7.0885  -13.7104   25.1982 C   0  0  0  0  0  0  0  0  0  0  0  0
    7.1009  -14.4832   23.9610 C   0  0  2  0  0  0  0  0  0  0  0  0
    8.3222  -15.3761   23.8382 N   0  0  0  0  0  0  0  0  0  0  0  0
    8.3100  -16.1168   22.5923 C   0  0  0  0  0  0  0  0  0  0  0  0
    8.4010  -16.3220   24.9645 O   0  0  0  0  0  0  0  0  0  0  0  0
    7.4186  -16.9966   25.3587 C   0  0  0  0  0  0  0  0  0  0  0  0
    7.9819  -12.6874   25.4044 C   0  0  0  0  0  0  0  0  0  0  0  0
    7.9972  -11.9323   26.5627 N   0  0  0  0  0  0  0  0  0  0  0  0
    9.6227  -16.5027   25.6536 C   0  0  1  0  0  0  0  0  0  0  0  0
    9.7118  -17.4669   26.7526 C   0  0  0  0  0  0  0  0  0  0  0  0
   10.5694  -18.6259   26.3924 C   0  0  0  0  0  0  0  0  0  0  0  0
    9.9327  -19.4304   25.3307 C   0  0  0  0  0  0  0  0  0  0  0  0
    8.5545  -19.6275   25.1611 N   0  0  0  0  0  0  0  0  0  0  0  0
    8.3171  -20.4106   24.0967 C   0  0  0  0  0  0  0  0  0  0  0  0
    9.5178  -20.7138   23.5882 N   0  0  0  0  0  0  0  0  0  0  0  0
   10.4830  -20.1355   24.3154 C   0  0  0  0  0  0  0  0  0  0  0  0
   10.2531  -16.7792   27.9429 O   0  0  0  0  0  0  0  0  0  0  0  0
   10.6042  -15.5681   27.8620 O   0  0  0  0  0  0  0  0  0  0  0  0
  2  4  1  0
  2  1  1  0
  3  2  2  0
  5  4  1  0
  6  5  1  0
  7  8  1  0
  7  6  1  0
  8  9  1  1
 10  8  1  0
 10 19  1  0
 11 10  2  0
 12 13  1  0
 13 14  2  0
 14 15  1  0
 16 15  2  0
 16 17  1  0
 18 17  1  6
 18 19  1  0
 20 18  1  0
 21 20  2  0
 22 16  1  0
 23 13  1  0
 23 22  2  0
 24 20  1  0
 25 26  1  1
 25 24  1  0
 26 27  1  0
 27 28  2  0
 29 28  1  0
 30 29  1  0
 31 30  2  0
 31 27  1  0
 32 25  1  0
 33 32  2  0
 34 32  1  0
M  END
$$$$
