RYH.pdb
     RDKit          3D

 34 35  0  0  1  0  0  0  0  0999 V2000
   10.1720  -14.1913   14.7280 N   0  0  0  0  0  0  0  0  0  0  0  0
    8.8005  -14.1584   14.3551 C   0  0  0  0  0  0  0  0  0  0  0  0
    8.4235  -14.6125   13.1983 N   0  0  0  0  0  0  0  0  0  0  0  0
    7.8606  -13.6234   15.2625 N   0  0  0  0  0  0  0  0  0  0  0  0
    8.3534  -13.2041   16.5919 C   0  0  0  0  0  0  0  0  0  0  0  0
    8.7115  -14.4545   17.3115 C   0  0  0  0  0  0  0  0  0  0  0  0
    8.6691  -14.3374   18.7837 C   0  0  0  0  0  0  0  0  0  0  0  0
    8.9423  -15.5747   19.5856 C   0  0  2  0  0  0  0  0  0  0  0  0
    7.9316  -16.5727   19.4491 N   0  0  0  0  0  0  0  0  0  0  0  0
    9.0799  -15.1303   21.0170 C   0  0  0  0  0  0  0  0  0  0  0  0
   10.0441  -14.3848   21.2916 O   0  0  0  0  0  0  0  0  0  0  0  0
    7.4365  -14.6244   12.8790 O   0  0  0  0  0  0  0  0  0  0  0  0
    7.0716  -12.2234   29.0159 C   0  0  0  0  0  0  0  0  0  0  0  0
    7.0338  -12.7672   27.7361 C   0  0  0  0  0  0  0  0  0  0  0  0
    6.5639  -14.0572   27.5291 C   0  0  0  0  0  0  0  0  0  0  0  0
    6.5178  -14.6183   26.2609 C   0  0  0  0  0  0  0  0  0  0  0  0
    6.9474  -13.8792   25.1851 C   0  0  0  0  0  0  0  0  0  0  0  0
    6.9035  -14.4511   23.8437 C   0  0  2  0  0  0  0  0  0  0  0  0
    8.2502  -14.9817   23.3868 N   0  0  0  0  0  0  0  0  0  0  0  0
    8.1768  -15.5162   22.0415 C   0  0  0  0  0  0  0  0  0  0  0  0
    8.7433  -16.0280   24.2986 O   0  0  0  0  0  0  0  0  0  0  0  0
    8.1889  -17.1482   24.4147 C   0  0  0  0  0  0  0  0  0  0  0  0
    7.4111  -12.6037   25.3974 C   0  0  0  0  0  0  0  0  0  0  0  0
    7.4642  -12.0285   26.6538 N   0  0  0  0  0  0  0  0  0  0  0  0
    9.8900  -15.7931   25.0923 C   0  0  2  0  0  0  0  0  0  0  0  0
   10.3802  -16.8310   26.0021 C   0  0  0  0  0  0  0  0  0  0  0  0
   11.8553  -16.9854   25.9084 C   0  0  0  0  0  0  0  0  0  0  0  0
   12.2227  -17.7046   24.6726 C   0  0  0  0  0  0  0  0  0  0  0  0
   11.3309  -18.3152   23.7787 N   0  0  0  0  0  0  0  0  0  0  0  0
   11.9970  -18.8789   22.7584 C   0  0  0  0  0  0  0  0  0  0  0  0
   13.2936  -18.6377   22.9878 N   0  0  0  0  0  0  0  0  0  0  0  0
   13.4365  -17.9406   24.1231 C   0  0  0  0  0  0  0  0  0  0  0  0
    9.9887  -16.4747   27.3815 O   0  0  0  0  0  0  0  0  0  0  0  0
    9.7747  -15.2658   27.6802 O   0  0  0  0  0  0  0  0  0  0  0  0
  2  4  1  0
  2  1  1  0
  3  2  2  0
  5  4  1  0
  6  5  1  0
  7  8  1  0
  7  6  1  0
  8  9  1  1
 10  8  1  0
 10 19  1  0
 11 10  2  0
 12 13  1  0
 13 14  2  0
 14 15  1  0
 16 15  2  0
 16 17  1  0
 18 17  1  6
 18 19  1  0
 20 18  1  0
 21 20  2  0
 22 16  1  0
 23 13  1  0
 23 22  2  0
 24 20  1  0
 25 26  1  6
 25 24  1  0
 26 27  1  0
 27 28  2  0
 29 28  1  0
 30 29  1  0
 31 30  2  0
 31 27  1  0
 32 25  1  0
 33 32  2  0
 34 32  1  0
M  END
$$$$
