RYH.pdb
     RDKit          3D

 34 35  0  0  1  0  0  0  0  0999 V2000
    8.7995  -14.3646   15.5166 N   0  0  0  0  0  0  0  0  0  0  0  0
    8.4697  -13.9004   16.8192 C   0  0  0  0  0  0  0  0  0  0  0  0
    8.4696  -12.6287   17.0825 N   0  0  0  0  0  0  0  0  0  0  0  0
    8.1450  -14.8449   17.8169 N   0  0  0  0  0  0  0  0  0  0  0  0
    8.5696  -16.2444   17.5999 C   0  0  0  0  0  0  0  0  0  0  0  0
    8.1547  -16.9937   18.8148 C   0  0  0  0  0  0  0  0  0  0  0  0
    8.3574  -16.2553   20.0783 C   0  0  0  0  0  0  0  0  0  0  0  0
    9.0798  -16.9622   21.1861 C   0  0  2  0  0  0  0  0  0  0  0  0
    8.4121  -18.1402   21.6365 N   0  0  0  0  0  0  0  0  0  0  0  0
    9.2310  -15.9615   22.3000 C   0  0  0  0  0  0  0  0  0  0  0  0
    9.9487  -14.9639   22.0757 O   0  0  0  0  0  0  0  0  0  0  0  0
    8.2839  -12.2366   18.0249 O   0  0  0  0  0  0  0  0  0  0  0  0
    5.6567   -9.7538   25.8025 C   0  0  0  0  0  0  0  0  0  0  0  0
    6.1263  -11.0615   25.7362 C   0  0  0  0  0  0  0  0  0  0  0  0
    7.3673  -11.3401   25.1795 C   0  0  0  0  0  0  0  0  0  0  0  0
    7.8543  -12.6373   25.1036 C   0  0  0  0  0  0  0  0  0  0  0  0
    7.0898  -13.6697   25.5913 C   0  0  0  0  0  0  0  0  0  0  0  0
    7.5864  -15.0396   25.5233 C   0  0  2  0  0  0  0  0  0  0  0  0
    8.8233  -15.1736   24.6537 N   0  0  0  0  0  0  0  0  0  0  0  0
    8.6032  -16.1046   23.5647 C   0  0  0  0  0  0  0  0  0  0  0  0
    9.9815  -15.6194   25.4468 O   0  0  0  0  0  0  0  0  0  0  0  0
   10.2853  -15.1130   26.5545 C   0  0  0  0  0  0  0  0  0  0  0  0
    5.8630  -13.3865   26.1407 C   0  0  0  0  0  0  0  0  0  0  0  0
    5.3618  -12.1004   26.2245 N   0  0  0  0  0  0  0  0  0  0  0  0
   10.8084  -16.6623   24.9685 C   0  0  1  0  0  0  0  0  0  0  0  0
   11.8603  -17.2178   25.8231 C   0  0  0  0  0  0  0  0  0  0  0  0
   11.2896  -17.9408   26.9893 C   0  0  0  0  0  0  0  0  0  0  0  0
   10.9083  -16.9893   28.0518 C   0  0  0  0  0  0  0  0  0  0  0  0
   11.2281  -15.6243   28.0888 N   0  0  0  0  0  0  0  0  0  0  0  0
   10.7254  -15.0514   29.1940 C   0  0  0  0  0  0  0  0  0  0  0  0
   10.0930  -16.0264   29.8584 N   0  0  0  0  0  0  0  0  0  0  0  0
   10.1969  -17.1810   29.1868 C   0  0  0  0  0  0  0  0  0  0  0  0
   12.6956  -18.1290   25.0139 O   0  0  0  0  0  0  0  0  0  0  0  0
   13.7173  -18.6660   25.5280 O   0  0  0  0  0  0  0  0  0  0  0  0
  2  4  1  0
  2  1  1  0
  3  2  2  0
  5  4  1  0
  6  5  1  0
  7  8  1  0
  7  6  1  0
  8  9  1  1
 10  8  1  0
 10 19  1  0
 11 10  2  0
 12 13  1  0
 13 14  2  0
 14 15  1  0
 16 15  2  0
 16 17  1  0
 18 17  1  6
 18 19  1  0
 20 18  1  0
 21 20  2  0
 22 16  1  0
 23 13  1  0
 23 22  2  0
 24 20  1  0
 25 26  1  1
 25 24  1  0
 26 27  1  0
 27 28  2  0
 29 28  1  0
 30 29  1  0
 31 30  2  0
 31 27  1  0
 32 25  1  0
 33 32  2  0
 34 32  1  0
M  END
$$$$
