HGS.pdb
     RDKit          3D

 21 21  0  0  1  0  0  0  0  0999 V2000
   25.2181  -22.1205  -12.3530 N   0  0  0  0  0  0  0  0  0  0  0  0
   24.8354  -20.7457  -12.2562 C   0  0  1  0  0  0  0  0  0  0  0  0
   25.9762  -19.9195  -11.6921 C   0  0  0  0  0  0  0  0  0  0  0  0
   26.0047  -20.0755  -10.2175 C   0  0  0  0  0  0  0  0  0  0  0  0
   25.1257  -20.8525   -9.4764 C   0  0  0  0  0  0  0  0  0  0  0  0
   25.4806  -20.7308   -8.1866 N   0  0  0  0  0  0  0  0  0  0  0  0
   26.5454  -19.9061   -8.1198 C   0  0  0  0  0  0  0  0  0  0  0  0
   26.8633  -19.5064   -9.3701 N   0  0  0  0  0  0  0  0  0  0  0  0
   24.4231  -20.2062  -13.5712 C   0  0  0  0  0  0  0  0  0  0  0  0
   25.2673  -19.8984  -14.4492 O   0  0  0  0  0  0  0  0  0  0  0  0
   23.0408  -20.0396  -13.8282 N   0  0  0  0  0  0  0  0  0  0  0  0
   22.5226  -20.0640  -15.1760 C   0  0  0  0  0  0  0  0  0  0  0  0
   21.0594  -19.7952  -15.1515 C   0  0  0  0  0  0  0  0  0  0  0  0
   20.3498  -20.2860  -14.2651 O   0  0  0  0  0  0  0  0  0  0  0  0
   19.1860  -16.6243  -17.1628 O   0  0  0  0  0  0  0  0  0  0  0  0
   18.6244  -17.8661  -17.3732 C   0  0  0  0  0  0  0  0  0  0  0  0
   19.0364  -18.8384  -16.3140 C   0  0  2  0  0  0  0  0  0  0  0  0
   20.4343  -18.9778  -16.1301 N   0  0  0  0  0  0  0  0  0  0  0  0
   18.4511  -20.1640  -16.6067 C   0  0  0  0  0  0  0  0  0  0  0  0
   19.0849  -21.0344  -17.2471 O   0  0  0  0  0  0  0  0  0  0  0  0
   17.1762  -20.4465  -16.1626 O   0  0  0  0  0  0  0  0  0  0  0  0
  2  1  1  6
  2  3  1  0
  3  4  1  0
  4  5  2  0
  5  6  1  0
  7  6  1  0
  8  4  1  0
  8  7  2  0
  9  2  1  0
  9 10  2  0
 11  9  1  0
 12 11  1  0
 12 13  1  0
 13 18  1  0
 14 13  2  0
 16 15  1  0
 17 16  1  6
 17 19  1  0
 18 17  1  0
 19 20  2  0
 19 21  1  0
M  END
$$$$
