HGS.pdb
     RDKit          3D

 21 21  0  0  1  0  0  0  0  0999 V2000
   19.1134  -11.3694  -16.4161 N   0  0  0  0  0  0  0  0  0  0  0  0
   17.7606  -10.9077  -16.4681 C   0  0  1  0  0  0  0  0  0  0  0  0
   16.9589  -11.4948  -15.3214 C   0  0  0  0  0  0  0  0  0  0  0  0
   16.9599  -12.9735  -15.4365 C   0  0  0  0  0  0  0  0  0  0  0  0
   16.0580  -13.7202  -16.1811 C   0  0  0  0  0  0  0  0  0  0  0  0
   16.3922  -15.0122  -16.0280 N   0  0  0  0  0  0  0  0  0  0  0  0
   17.4666  -15.0749  -15.2156 C   0  0  0  0  0  0  0  0  0  0  0  0
   17.8113  -13.8198  -14.8551 N   0  0  0  0  0  0  0  0  0  0  0  0
   17.6925   -9.4299  -16.4272 C   0  0  0  0  0  0  0  0  0  0  0  0
   16.6006   -8.8189  -16.5400 O   0  0  0  0  0  0  0  0  0  0  0  0
   18.8961   -8.7041  -16.2563 N   0  0  0  0  0  0  0  0  0  0  0  0
   18.8950   -7.2619  -16.1796 C   0  0  0  0  0  0  0  0  0  0  0  0
   20.1745   -6.7945  -15.5807 C   0  0  0  0  0  0  0  0  0  0  0  0
   21.0462   -7.6101  -15.2570 O   0  0  0  0  0  0  0  0  0  0  0  0
   21.2822   -2.8454  -16.0969 O   0  0  0  0  0  0  0  0  0  0  0  0
   21.7428   -3.3794  -14.9118 C   0  0  0  0  0  0  0  0  0  0  0  0
   21.6684   -4.8732  -14.9204 C   0  0  2  0  0  0  0  0  0  0  0  0
   20.4366   -5.4160  -15.3626 N   0  0  0  0  0  0  0  0  0  0  0  0
   21.9687   -5.3899  -13.5682 C   0  0  0  0  0  0  0  0  0  0  0  0
   21.1147   -6.0189  -12.9014 O   0  0  0  0  0  0  0  0  0  0  0  0
   23.2200   -5.1727  -13.0305 O   0  0  0  0  0  0  0  0  0  0  0  0
  2  1  1  1
  2  3  1  0
  3  4  1  0
  4  5  2  0
  5  6  1  0
  7  6  1  0
  8  4  1  0
  8  7  2  0
  9  2  1  0
  9 10  2  0
 11  9  1  0
 12 11  1  0
 12 13  1  0
 13 18  1  0
 14 13  2  0
 16 15  1  0
 17 16  1  1
 17 19  1  0
 18 17  1  0
 19 20  2  0
 19 21  1  0
M  END
$$$$
