HGS.pdb
     RDKit          3D

 21 21  0  0  1  0  0  0  0  0999 V2000
   33.8207  -11.0931  -20.1531 N   0  0  0  0  0  0  0  0  0  0  0  0
   34.4645  -11.5591  -18.9639 C   0  0  1  0  0  0  0  0  0  0  0  0
   34.1217  -13.0162  -18.7153 C   0  0  0  0  0  0  0  0  0  0  0  0
   32.6558  -13.1442  -18.5294 C   0  0  0  0  0  0  0  0  0  0  0  0
   31.9833  -12.9840  -17.3262 C   0  0  0  0  0  0  0  0  0  0  0  0
   30.6775  -13.1791  -17.5736 N   0  0  0  0  0  0  0  0  0  0  0  0
   30.5347  -13.4523  -18.8863 C   0  0  0  0  0  0  0  0  0  0  0  0
   31.7530  -13.4297  -19.4688 N   0  0  0  0  0  0  0  0  0  0  0  0
   35.9328  -11.3925  -19.0442 C   0  0  0  0  0  0  0  0  0  0  0  0
   36.5309  -11.3567  -20.1484 O   0  0  0  0  0  0  0  0  0  0  0  0
   36.6646  -11.2721  -17.8380 N   0  0  0  0  0  0  0  0  0  0  0  0
   38.0991  -11.1058  -17.8472 C   0  0  0  0  0  0  0  0  0  0  0  0
   38.6001  -11.0292  -16.4482 C   0  0  0  0  0  0  0  0  0  0  0  0
   37.8045  -10.9920  -15.5019 O   0  0  0  0  0  0  0  0  0  0  0  0
   42.7303  -10.3983  -15.6517 O   0  0  0  0  0  0  0  0  0  0  0  0
   42.0204  -11.1957  -14.7788 C   0  0  0  0  0  0  0  0  0  0  0  0
   40.5527  -10.9185  -14.8563 C   0  0  2  0  0  0  0  0  0  0  0  0
   39.9889  -10.9966  -16.1538 N   0  0  0  0  0  0  0  0  0  0  0  0
   40.2719   -9.5843  -14.2849 C   0  0  0  0  0  0  0  0  0  0  0  0
   39.8398   -8.6450  -14.9924 O   0  0  0  0  0  0  0  0  0  0  0  0
   40.4918   -9.3714  -12.9401 O   0  0  0  0  0  0  0  0  0  0  0  0
  2  1  1  6
  2  3  1  0
  3  4  1  0
  4  5  2  0
  5  6  1  0
  7  6  1  0
  8  4  1  0
  8  7  2  0
  9  2  1  0
  9 10  2  0
 11  9  1  0
 12 11  1  0
 12 13  1  0
 13 18  1  0
 14 13  2  0
 16 15  1  0
 17 16  1  6
 17 19  1  0
 18 17  1  0
 19 20  2  0
 19 21  1  0
M  END
$$$$
