HGS.pdb
     RDKit          3D

 21 21  0  0  1  0  0  0  0  0999 V2000
   15.9127  -20.6194    3.9298 N   0  0  0  0  0  0  0  0  0  0  0  0
   16.2439  -19.4931    4.7469 C   0  0  1  0  0  0  0  0  0  0  0  0
   14.9866  -18.8828    5.3377 C   0  0  0  0  0  0  0  0  0  0  0  0
   14.0934  -18.4506    4.2353 C   0  0  0  0  0  0  0  0  0  0  0  0
   12.8507  -18.9978    3.9492 C   0  0  0  0  0  0  0  0  0  0  0  0
   12.3628  -18.3375    2.8860 N   0  0  0  0  0  0  0  0  0  0  0  0
   13.2674  -17.4081    2.5172 C   0  0  0  0  0  0  0  0  0  0  0  0
   14.3286  -17.4818    3.3493 N   0  0  0  0  0  0  0  0  0  0  0  0
   17.1800  -19.8684    5.8299 C   0  0  0  0  0  0  0  0  0  0  0  0
   17.5553  -19.0355    6.6923 O   0  0  0  0  0  0  0  0  0  0  0  0
   17.6536  -21.2018    5.8796 N   0  0  0  0  0  0  0  0  0  0  0  0
   18.5025  -21.6540    6.9569 C   0  0  0  0  0  0  0  0  0  0  0  0
   18.7696  -23.1097    6.8025 C   0  0  0  0  0  0  0  0  0  0  0  0
   18.4545  -23.6943    5.7590 O   0  0  0  0  0  0  0  0  0  0  0  0
   21.8660  -24.9898    8.8346 O   0  0  0  0  0  0  0  0  0  0  0  0
   20.6914  -25.7119    8.8100 C   0  0  0  0  0  0  0  0  0  0  0  0
   19.7748  -25.2274    7.7320 C   0  0  2  0  0  0  0  0  0  0  0  0
   19.3866  -23.8685    7.8321 N   0  0  0  0  0  0  0  0  0  0  0  0
   18.5649  -26.0761    7.6947 C   0  0  0  0  0  0  0  0  0  0  0  0
   17.4295  -25.6118    7.9490 O   0  0  0  0  0  0  0  0  0  0  0  0
   18.6924  -27.4109    7.3720 O   0  0  0  0  0  0  0  0  0  0  0  0
  2  1  1  1
  2  3  1  0
  3  4  1  0
  4  5  2  0
  5  6  1  0
  7  6  1  0
  8  4  1  0
  8  7  2  0
  9  2  1  0
  9 10  2  0
 11  9  1  0
 12 11  1  0
 12 13  1  0
 13 18  1  0
 14 13  2  0
 16 15  1  0
 17 16  1  1
 17 19  1  0
 18 17  1  0
 19 20  2  0
 19 21  1  0
M  END
$$$$
