HGS.pdb
     RDKit          3D

 21 21  0  0  1  0  0  0  0  0999 V2000
   18.2985  -11.8830  -14.8481 N   0  0  0  0  0  0  0  0  0  0  0  0
   18.6878  -12.1599  -16.1963 C   0  0  1  0  0  0  0  0  0  0  0  0
   17.4846  -12.5904  -17.0144 C   0  0  0  0  0  0  0  0  0  0  0  0
   16.9254  -13.8362  -16.4355 C   0  0  0  0  0  0  0  0  0  0  0  0
   17.2644  -15.1240  -16.8257 C   0  0  0  0  0  0  0  0  0  0  0  0
   16.5462  -15.9691  -16.0678 N   0  0  0  0  0  0  0  0  0  0  0  0
   15.7829  -15.2378  -15.2308 C   0  0  0  0  0  0  0  0  0  0  0  0
   16.0196  -13.9281  -15.4609 N   0  0  0  0  0  0  0  0  0  0  0  0
   19.3314  -10.9847  -16.8246 C   0  0  0  0  0  0  0  0  0  0  0  0
   19.6768  -10.9920  -18.0325 O   0  0  0  0  0  0  0  0  0  0  0  0
   19.5553   -9.8339  -16.0308 N   0  0  0  0  0  0  0  0  0  0  0  0
   20.2314   -8.6757  -16.5668 C   0  0  0  0  0  0  0  0  0  0  0  0
   20.3031   -7.6152  -15.5255 C   0  0  0  0  0  0  0  0  0  0  0  0
   19.5236   -7.6302  -14.5653 O   0  0  0  0  0  0  0  0  0  0  0  0
   22.5527   -3.5687  -13.9512 O   0  0  0  0  0  0  0  0  0  0  0  0
   22.5096   -4.5614  -14.9074 C   0  0  0  0  0  0  0  0  0  0  0  0
   21.3416   -5.4718  -14.6971 C   0  0  2  0  0  0  0  0  0  0  0  0
   21.2548   -6.5636  -15.5959 N   0  0  0  0  0  0  0  0  0  0  0  0
   20.0887   -4.6898  -14.7612 C   0  0  0  0  0  0  0  0  0  0  0  0
   19.5026   -4.4774  -15.8479 O   0  0  0  0  0  0  0  0  0  0  0  0
   19.5546   -4.1830  -13.5950 O   0  0  0  0  0  0  0  0  0  0  0  0
  2  1  1  1
  2  3  1  0
  3  4  1  0
  4  5  2  0
  5  6  1  0
  7  6  1  0
  8  4  1  0
  8  7  2  0
  9  2  1  0
  9 10  2  0
 11  9  1  0
 12 11  1  0
 12 13  1  0
 13 18  1  0
 14 13  2  0
 16 15  1  0
 17 16  1  6
 17 19  1  0
 18 17  1  0
 19 20  2  0
 19 21  1  0
M  END
$$$$
