HGS.pdb
     RDKit          3D

 21 21  0  0  1  0  0  0  0  0999 V2000
   13.2803  -21.0802    2.1868 N   0  0  0  0  0  0  0  0  0  0  0  0
   14.4894  -21.7074    1.7506 C   0  0  1  0  0  0  0  0  0  0  0  0
   15.3859  -20.6987    1.0569 C   0  0  0  0  0  0  0  0  0  0  0  0
   15.6224  -19.5529    1.9685 C   0  0  0  0  0  0  0  0  0  0  0  0
   16.8456  -19.2139    2.5293 C   0  0  0  0  0  0  0  0  0  0  0  0
   16.6445  -18.1243    3.2887 N   0  0  0  0  0  0  0  0  0  0  0  0
   15.3406  -17.7905    3.2078 C   0  0  0  0  0  0  0  0  0  0  0  0
   14.7172  -18.6713    2.3955 N   0  0  0  0  0  0  0  0  0  0  0  0
   15.2121  -22.3317    2.8812 C   0  0  0  0  0  0  0  0  0  0  0  0
   16.2713  -22.9839    2.7045 O   0  0  0  0  0  0  0  0  0  0  0  0
   14.6829  -22.1800    4.1857 N   0  0  0  0  0  0  0  0  0  0  0  0
   15.3591  -22.7329    5.3358 C   0  0  0  0  0  0  0  0  0  0  0  0
   16.1819  -21.6765    5.9847 C   0  0  0  0  0  0  0  0  0  0  0  0
   17.0501  -21.0774    5.3388 O   0  0  0  0  0  0  0  0  0  0  0  0
   14.9220  -18.6129    7.9023 O   0  0  0  0  0  0  0  0  0  0  0  0
   15.7348  -19.3247    8.7593 C   0  0  0  0  0  0  0  0  0  0  0  0
   16.6434  -20.2471    8.0103 C   0  0  2  0  0  0  0  0  0  0  0  0
   16.0025  -21.3235    7.3485 N   0  0  0  0  0  0  0  0  0  0  0  0
   17.6683  -20.7844    8.9302 C   0  0  0  0  0  0  0  0  0  0  0  0
   18.4919  -20.0354    9.5048 O   0  0  0  0  0  0  0  0  0  0  0  0
   17.7166  -22.1435    9.1596 O   0  0  0  0  0  0  0  0  0  0  0  0
  2  1  1  1
  2  3  1  0
  3  4  1  0
  4  5  2  0
  5  6  1  0
  7  6  1  0
  8  4  1  0
  8  7  2  0
  9  2  1  0
  9 10  2  0
 11  9  1  0
 12 11  1  0
 12 13  1  0
 13 18  1  0
 14 13  2  0
 16 15  1  0
 17 16  1  1
 17 19  1  0
 18 17  1  0
 19 20  2  0
 19 21  1  0
M  END
$$$$
