HGS.pdb
     RDKit          3D

 21 21  0  0  1  0  0  0  0  0999 V2000
   19.3217  -13.8429  -16.2189 N   0  0  0  0  0  0  0  0  0  0  0  0
   20.1833  -13.8456  -17.3606 C   0  0  1  0  0  0  0  0  0  0  0  0
   19.4118  -14.2529  -18.6021 C   0  0  0  0  0  0  0  0  0  0  0  0
   18.7942  -15.5821  -18.3746 C   0  0  0  0  0  0  0  0  0  0  0  0
   17.4352  -15.8195  -18.2250 C   0  0  0  0  0  0  0  0  0  0  0  0
   17.2824  -17.1410  -18.0390 N   0  0  0  0  0  0  0  0  0  0  0  0
   18.5028  -17.7137  -18.0706 C   0  0  0  0  0  0  0  0  0  0  0  0
   19.4279  -16.7516  -18.2770 N   0  0  0  0  0  0  0  0  0  0  0  0
   20.8098  -12.5209  -17.5674 C   0  0  0  0  0  0  0  0  0  0  0  0
   21.5813  -12.3025  -18.5346 O   0  0  0  0  0  0  0  0  0  0  0  0
   20.5218  -11.4873  -16.6436 N   0  0  0  0  0  0  0  0  0  0  0  0
   21.0781  -10.1643  -16.8044 C   0  0  0  0  0  0  0  0  0  0  0  0
   20.5698   -9.2761  -15.7242 C   0  0  0  0  0  0  0  0  0  0  0  0
   19.6456   -9.6503  -14.9923 O   0  0  0  0  0  0  0  0  0  0  0  0
   22.9139   -6.1071  -14.5160 O   0  0  0  0  0  0  0  0  0  0  0  0
   21.5681   -5.8574  -14.3479 C   0  0  0  0  0  0  0  0  0  0  0  0
   20.7637   -7.1150  -14.4392 C   0  0  2  0  0  0  0  0  0  0  0  0
   21.1193   -7.9863  -15.4983 N   0  0  0  0  0  0  0  0  0  0  0  0
   19.3291   -6.7760  -14.5509 C   0  0  0  0  0  0  0  0  0  0  0  0
   18.6827   -6.9953  -15.6015 O   0  0  0  0  0  0  0  0  0  0  0  0
   18.6895   -6.2045  -13.4709 O   0  0  0  0  0  0  0  0  0  0  0  0
  2  1  1  1
  2  3  1  0
  3  4  1  0
  4  5  2  0
  5  6  1  0
  7  6  1  0
  8  4  1  0
  8  7  2  0
  9  2  1  0
  9 10  2  0
 11  9  1  0
 12 11  1  0
 12 13  1  0
 13 18  1  0
 14 13  2  0
 16 15  1  0
 17 16  1  6
 17 19  1  0
 18 17  1  0
 19 20  2  0
 19 21  1  0
M  END
$$$$
