HGS.pdb
     RDKit          3D

 21 21  0  0  1  0  0  0  0  0999 V2000
   20.3528  -11.3554  -16.5708 N   0  0  0  0  0  0  0  0  0  0  0  0
   19.1558  -10.7113  -17.0158 C   0  0  1  0  0  0  0  0  0  0  0  0
   18.0104  -11.7052  -17.0673 C   0  0  0  0  0  0  0  0  0  0  0  0
   18.3990  -12.8484  -17.9287 C   0  0  0  0  0  0  0  0  0  0  0  0
   18.6152  -14.1465  -17.4887 C   0  0  0  0  0  0  0  0  0  0  0  0
   18.9474  -14.8789  -18.5647 N   0  0  0  0  0  0  0  0  0  0  0  0
   18.9401  -14.0692  -19.6428 C   0  0  0  0  0  0  0  0  0  0  0  0
   18.6026  -12.8229  -19.2466 N   0  0  0  0  0  0  0  0  0  0  0  0
   18.7977   -9.5730  -16.1405 C   0  0  0  0  0  0  0  0  0  0  0  0
   18.6014   -9.7271  -14.9092 O   0  0  0  0  0  0  0  0  0  0  0  0
   18.6778   -8.2875  -16.7215 N   0  0  0  0  0  0  0  0  0  0  0  0
   18.2969   -7.1415  -15.9294 C   0  0  0  0  0  0  0  0  0  0  0  0
   18.4237   -5.9060  -16.7488 C   0  0  0  0  0  0  0  0  0  0  0  0
   18.9158   -5.9571  -17.8825 O   0  0  0  0  0  0  0  0  0  0  0  0
   17.6155   -2.1780  -15.0249 O   0  0  0  0  0  0  0  0  0  0  0  0
   17.2862   -2.2864  -16.3596 C   0  0  0  0  0  0  0  0  0  0  0  0
   17.9949   -3.4343  -17.0056 C   0  0  2  0  0  0  0  0  0  0  0  0
   17.9908   -4.6427  -16.2659 N   0  0  0  0  0  0  0  0  0  0  0  0
   19.3919   -3.0496  -17.2985 C   0  0  0  0  0  0  0  0  0  0  0  0
   20.3589   -3.6018  -16.7245 O   0  0  0  0  0  0  0  0  0  0  0  0
   19.6335   -2.0585  -18.2268 O   0  0  0  0  0  0  0  0  0  0  0  0
  2  1  1  1
  2  3  1  0
  3  4  1  0
  4  5  2  0
  5  6  1  0
  7  6  1  0
  8  4  1  0
  8  7  2  0
  9  2  1  0
  9 10  2  0
 11  9  1  0
 12 11  1  0
 12 13  1  0
 13 18  1  0
 14 13  2  0
 16 15  1  0
 17 16  1  1
 17 19  1  0
 18 17  1  0
 19 20  2  0
 19 21  1  0
M  END
$$$$
