HGS.pdb
     RDKit          3D

 21 21  0  0  1  0  0  0  0  0999 V2000
   19.5420   -8.7196  -16.4082 N   0  0  0  0  0  0  0  0  0  0  0  0
   20.0189   -9.2250  -15.1581 C   0  0  1  0  0  0  0  0  0  0  0  0
   21.0813  -10.2837  -15.3883 C   0  0  0  0  0  0  0  0  0  0  0  0
   20.5103  -11.3702  -16.2210 C   0  0  0  0  0  0  0  0  0  0  0  0
   20.9538  -11.7279  -17.4862 C   0  0  0  0  0  0  0  0  0  0  0  0
   20.1845  -12.7477  -17.9017 N   0  0  0  0  0  0  0  0  0  0  0  0
   19.2891  -13.0210  -16.9313 C   0  0  0  0  0  0  0  0  0  0  0  0
   19.4936  -12.1719  -15.9011 N   0  0  0  0  0  0  0  0  0  0  0  0
   20.5619   -8.1410  -14.3093 C   0  0  0  0  0  0  0  0  0  0  0  0
   21.0034   -8.3684  -13.1552 O   0  0  0  0  0  0  0  0  0  0  0  0
   20.5763   -6.8230  -14.8262 N   0  0  0  0  0  0  0  0  0  0  0  0
   21.2400   -5.7509  -14.1222 C   0  0  0  0  0  0  0  0  0  0  0  0
   21.1278   -4.4937  -14.9102 C   0  0  0  0  0  0  0  0  0  0  0  0
   20.5108   -4.4824  -15.9821 O   0  0  0  0  0  0  0  0  0  0  0  0
   21.1409   -0.8116  -13.1304 O   0  0  0  0  0  0  0  0  0  0  0  0
   21.9178   -0.8349  -14.2695 C   0  0  0  0  0  0  0  0  0  0  0  0
   21.6070   -2.0267  -15.1182 C   0  0  2  0  0  0  0  0  0  0  0  0
   21.7163   -3.2799  -14.4664 N   0  0  0  0  0  0  0  0  0  0  0  0
   22.4791   -2.0231  -16.3119 C   0  0  0  0  0  0  0  0  0  0  0  0
   23.3098   -2.9373  -16.5206 O   0  0  0  0  0  0  0  0  0  0  0  0
   22.3733   -0.9869  -17.2160 O   0  0  0  0  0  0  0  0  0  0  0  0
  2  1  1  6
  2  3  1  0
  3  4  1  0
  4  5  2  0
  5  6  1  0
  7  6  1  0
  8  4  1  0
  8  7  2  0
  9  2  1  0
  9 10  2  0
 11  9  1  0
 12 11  1  0
 12 13  1  0
 13 18  1  0
 14 13  2  0
 16 15  1  0
 17 16  1  1
 17 19  1  0
 18 17  1  0
 19 20  2  0
 19 21  1  0
M  END
$$$$
