HGS.pdb
     RDKit          3D

 21 21  0  0  1  0  0  0  0  0999 V2000
   17.1765  -11.0098  -15.6696 N   0  0  0  0  0  0  0  0  0  0  0  0
   18.5253  -11.3865  -15.9606 C   0  0  1  0  0  0  0  0  0  0  0  0
   18.5581  -12.3935  -17.0952 C   0  0  0  0  0  0  0  0  0  0  0  0
   17.7655  -13.5859  -16.7081 C   0  0  0  0  0  0  0  0  0  0  0  0
   17.6212  -14.0671  -15.4146 C   0  0  0  0  0  0  0  0  0  0  0  0
   16.8342  -15.1537  -15.4820 N   0  0  0  0  0  0  0  0  0  0  0  0
   16.4960  -15.3481  -16.7728 C   0  0  0  0  0  0  0  0  0  0  0  0
   17.0707  -14.3822  -17.5217 N   0  0  0  0  0  0  0  0  0  0  0  0
   19.3522  -10.2089  -16.3065 C   0  0  0  0  0  0  0  0  0  0  0  0
   19.1002   -9.5019  -17.3141 O   0  0  0  0  0  0  0  0  0  0  0  0
   20.4489   -9.8864  -15.4712 N   0  0  0  0  0  0  0  0  0  0  0  0
   21.2889   -8.7446  -15.7475 C   0  0  0  0  0  0  0  0  0  0  0  0
   20.8343   -7.5842  -14.9346 C   0  0  0  0  0  0  0  0  0  0  0  0
   19.7886   -7.6542  -14.2777 O   0  0  0  0  0  0  0  0  0  0  0  0
   23.0577   -3.9597  -14.9498 O   0  0  0  0  0  0  0  0  0  0  0  0
   22.3626   -4.3041  -13.8097 C   0  0  0  0  0  0  0  0  0  0  0  0
   21.2302   -5.2309  -14.1195 C   0  0  2  0  0  0  0  0  0  0  0  0
   21.5737   -6.3728  -14.8846 N   0  0  0  0  0  0  0  0  0  0  0  0
   20.1589   -4.4858  -14.8142 C   0  0  0  0  0  0  0  0  0  0  0  0
   19.9102   -4.6727  -16.0277 O   0  0  0  0  0  0  0  0  0  0  0  0
   19.4170   -3.5632  -14.1066 O   0  0  0  0  0  0  0  0  0  0  0  0
  2  1  1  6
  2  3  1  0
  3  4  1  0
  4  5  2  0
  5  6  1  0
  7  6  1  0
  8  4  1  0
  8  7  2  0
  9  2  1  0
  9 10  2  0
 11  9  1  0
 12 11  1  0
 12 13  1  0
 13 18  1  0
 14 13  2  0
 16 15  1  0
 17 16  1  6
 17 19  1  0
 18 17  1  0
 19 20  2  0
 19 21  1  0
M  END
$$$$
