HGS.pdb
     RDKit          3D

 21 21  0  0  1  0  0  0  0  0999 V2000
   25.9733  -12.7188  -17.3749 N   0  0  0  0  0  0  0  0  0  0  0  0
   26.4336  -11.8417  -16.3431 C   0  0  1  0  0  0  0  0  0  0  0  0
   27.9447  -11.9134  -16.2257 C   0  0  0  0  0  0  0  0  0  0  0  0
   28.4109  -13.2172  -16.7574 C   0  0  0  0  0  0  0  0  0  0  0  0
   27.5876  -14.2538  -17.1734 C   0  0  0  0  0  0  0  0  0  0  0  0
   28.3860  -15.2532  -17.5834 N   0  0  0  0  0  0  0  0  0  0  0  0
   29.6661  -14.8581  -17.4303 C   0  0  0  0  0  0  0  0  0  0  0  0
   29.6758  -13.6067  -16.9226 N   0  0  0  0  0  0  0  0  0  0  0  0
   26.0123  -10.4454  -16.5937 C   0  0  0  0  0  0  0  0  0  0  0  0
   25.8396  -10.0101  -17.7595 O   0  0  0  0  0  0  0  0  0  0  0  0
   25.8038   -9.5942  -15.4816 N   0  0  0  0  0  0  0  0  0  0  0  0
   25.3119   -8.2472  -15.6529 C   0  0  0  0  0  0  0  0  0  0  0  0
   23.8573   -8.2055  -15.3422 C   0  0  0  0  0  0  0  0  0  0  0  0
   23.4076   -8.8334  -14.3760 O   0  0  0  0  0  0  0  0  0  0  0  0
   19.8875   -6.1355  -14.6281 O   0  0  0  0  0  0  0  0  0  0  0  0
   21.2415   -6.1933  -14.8835 C   0  0  0  0  0  0  0  0  0  0  0  0
   21.5679   -7.2816  -15.8562 C   0  0  2  0  0  0  0  0  0  0  0  0
   22.9468   -7.4545  -16.1319 N   0  0  0  0  0  0  0  0  0  0  0  0
   20.8459   -7.0429  -17.1240 C   0  0  0  0  0  0  0  0  0  0  0  0
   21.3925   -6.4649  -18.0917 O   0  0  0  0  0  0  0  0  0  0  0  0
   19.5391   -7.4680  -17.2412 O   0  0  0  0  0  0  0  0  0  0  0  0
  2  1  1  6
  2  3  1  0
  3  4  1  0
  4  5  2  0
  5  6  1  0
  7  6  1  0
  8  4  1  0
  8  7  2  0
  9  2  1  0
  9 10  2  0
 11  9  1  0
 12 11  1  0
 12 13  1  0
 13 18  1  0
 14 13  2  0
 16 15  1  0
 17 16  1  1
 17 19  1  0
 18 17  1  0
 19 20  2  0
 19 21  1  0
M  END
$$$$
