HGS.pdb
     RDKit          3D

 21 21  0  0  1  0  0  0  0  0999 V2000
   24.2754  -13.8638  -17.4606 N   0  0  0  0  0  0  0  0  0  0  0  0
   23.2595  -14.4551  -16.6457 C   0  0  1  0  0  0  0  0  0  0  0  0
   23.8019  -14.7527  -15.2602 C   0  0  0  0  0  0  0  0  0  0  0  0
   25.0197  -15.5899  -15.3861 C   0  0  0  0  0  0  0  0  0  0  0  0
   26.2853  -15.2362  -14.9402 C   0  0  0  0  0  0  0  0  0  0  0  0
   27.1089  -16.2546  -15.2384 N   0  0  0  0  0  0  0  0  0  0  0  0
   26.3860  -17.2144  -15.8502 C   0  0  0  0  0  0  0  0  0  0  0  0
   25.1032  -16.8011  -15.9384 N   0  0  0  0  0  0  0  0  0  0  0  0
   22.0705  -13.5796  -16.5452 C   0  0  0  0  0  0  0  0  0  0  0  0
   21.0208  -13.9603  -15.9692 O   0  0  0  0  0  0  0  0  0  0  0  0
   22.1354  -12.2861  -17.1172 N   0  0  0  0  0  0  0  0  0  0  0  0
   21.0103  -11.3829  -17.0531 C   0  0  0  0  0  0  0  0  0  0  0  0
   21.4301  -10.1104  -16.4062 C   0  0  0  0  0  0  0  0  0  0  0  0
   22.4296  -10.0809  -15.6781 O   0  0  0  0  0  0  0  0  0  0  0  0
   20.2823   -6.4599  -17.9620 O   0  0  0  0  0  0  0  0  0  0  0  0
   20.2796   -6.4789  -16.5831 C   0  0  0  0  0  0  0  0  0  0  0  0
   21.0551   -7.6420  -16.0514 C   0  0  2  0  0  0  0  0  0  0  0  0
   20.7089   -8.9022  -16.5986 N   0  0  0  0  0  0  0  0  0  0  0  0
   20.9157   -7.6969  -14.5806 C   0  0  0  0  0  0  0  0  0  0  0  0
   20.3658   -8.6668  -14.0092 O   0  0  0  0  0  0  0  0  0  0  0  0
   21.4038   -6.6538  -13.8218 O   0  0  0  0  0  0  0  0  0  0  0  0
  2  1  1  6
  2  3  1  0
  3  4  1  0
  4  5  2  0
  5  6  1  0
  7  6  1  0
  8  4  1  0
  8  7  2  0
  9  2  1  0
  9 10  2  0
 11  9  1  0
 12 11  1  0
 12 13  1  0
 13 18  1  0
 14 13  2  0
 16 15  1  0
 17 16  1  6
 17 19  1  0
 18 17  1  0
 19 20  2  0
 19 21  1  0
M  END
$$$$
