DNG.pdb
     RDKit          3D

 21 20  0  0  1  0  0  0  0  0999 V2000
    8.9921  -18.4109   18.5182 N   0  0  0  0  0  0  0  0  0  0  0  0
   10.0254  -17.4509   18.3043 C   0  0  1  0  0  0  0  0  0  0  0  0
   10.0623  -16.9702   16.8520 C   0  0  0  0  0  0  0  0  0  0  0  0
    9.8894  -18.1423   15.9635 C   0  0  0  0  0  0  0  0  0  0  0  0
    9.4952  -19.2358   16.4219 O   0  0  0  0  0  0  0  0  0  0  0  0
   10.0106  -16.3095   19.2338 C   0  0  0  0  0  0  0  0  0  0  0  0
   10.9985  -15.5204   19.2670 O   0  0  0  0  0  0  0  0  0  0  0  0
   10.1772  -17.9890   14.6169 O   0  0  0  0  0  0  0  0  0  0  0  0
    7.4776  -12.2525   19.4485 N   0  0  0  0  0  0  0  0  0  0  0  0
    7.4292  -13.6417   19.7998 C   0  0  0  0  0  0  0  0  0  0  0  0
    7.0603  -14.4270   18.8670 O   0  0  0  0  0  0  0  0  0  0  0  0
    7.7865  -14.1064   21.1574 C   0  0  0  0  0  0  0  0  0  0  0  0
    9.0301  -14.9292   21.0988 C   0  0  2  0  0  0  0  0  0  0  0  0
    8.9478  -16.0017   20.1307 N   0  0  0  0  0  0  0  0  0  0  0  0
    9.4535  -15.4110   22.4314 C   0  0  0  0  0  0  0  0  0  0  0  0
    8.5535  -15.6126   23.2842 O   0  0  0  0  0  0  0  0  0  0  0  0
   10.8236  -15.6492   22.7722 N   0  0  0  0  0  0  0  0  0  0  0  0
   11.0836  -16.1944   24.0714 C   0  0  0  0  0  0  0  0  0  0  0  0
   12.5000  -16.3407   24.4023 C   0  0  0  0  0  0  0  0  0  0  0  0
   13.4243  -16.0755   23.6130 O   0  0  0  0  0  0  0  0  0  0  0  0
   12.8126  -16.8060   25.6834 O   0  0  0  0  0  0  0  0  0  0  0  0
  2  3  1  0
  2  1  1  6
  3  4  1  0
  4  8  1  0
  5  4  2  0
  6  2  1  0
  6  7  2  0
  9 10  1  0
 10 11  2  0
 10 12  1  0
 13 12  1  1
 13 14  1  0
 13 15  1  0
 14  6  1  0
 15 16  2  0
 17 15  1  0
 17 18  1  0
 19 18  1  0
 19 21  1  0
 20 19  2  0
M  END
$$$$
