DNG.pdb
     RDKit          3D

 21 20  0  0  1  0  0  0  0  0999 V2000
    8.6324  -19.4033   20.6110 N   0  0  0  0  0  0  0  0  0  0  0  0
    8.3759  -18.0065   20.4764 C   0  0  1  0  0  0  0  0  0  0  0  0
    8.0046  -17.6330   19.0397 C   0  0  0  0  0  0  0  0  0  0  0  0
    9.1077  -18.0509   18.1444 C   0  0  0  0  0  0  0  0  0  0  0  0
   10.0958  -18.6676   18.5969 O   0  0  0  0  0  0  0  0  0  0  0  0
    7.3939  -17.4637   21.4294 C   0  0  0  0  0  0  0  0  0  0  0  0
    7.1280  -16.2274   21.4134 O   0  0  0  0  0  0  0  0  0  0  0  0
    9.0102  -17.7383   16.7982 O   0  0  0  0  0  0  0  0  0  0  0  0
    4.5019  -17.9310   20.9042 N   0  0  0  0  0  0  0  0  0  0  0  0
    3.8768  -18.5270   22.0487 C   0  0  0  0  0  0  0  0  0  0  0  0
    2.7984  -19.1623   21.8114 O   0  0  0  0  0  0  0  0  0  0  0  0
    4.4619  -18.3986   23.4007 C   0  0  0  0  0  0  0  0  0  0  0  0
    5.7458  -17.6418   23.3259 C   0  0  2  0  0  0  0  0  0  0  0  0
    6.6911  -18.2311   22.4020 N   0  0  0  0  0  0  0  0  0  0  0  0
    6.3415  -17.4043   24.6586 C   0  0  0  0  0  0  0  0  0  0  0  0
    5.5711  -17.0231   25.5747 O   0  0  0  0  0  0  0  0  0  0  0  0
    7.7347  -17.5904   24.9311 N   0  0  0  0  0  0  0  0  0  0  0  0
    8.1819  -17.2890   26.2586 C   0  0  0  0  0  0  0  0  0  0  0  0
    8.5436  -18.4550   27.0628 C   0  0  0  0  0  0  0  0  0  0  0  0
    8.4185  -19.6292   26.6715 O   0  0  0  0  0  0  0  0  0  0  0  0
    9.0577  -18.2155   28.3410 O   0  0  0  0  0  0  0  0  0  0  0  0
  2  3  1  0
  2  1  1  6
  3  4  1  0
  4  8  1  0
  5  4  2  0
  6  2  1  0
  6  7  2  0
  9 10  1  0
 10 11  2  0
 10 12  1  0
 13 12  1  1
 13 14  1  0
 13 15  1  0
 14  6  1  0
 15 16  2  0
 17 15  1  0
 17 18  1  0
 19 18  1  0
 19 21  1  0
 20 19  2  0
M  END
$$$$
