DNG.pdb
     RDKit          3D

 21 20  0  0  1  0  0  0  0  0999 V2000
    8.9074  -16.2025   17.1254 N   0  0  0  0  0  0  0  0  0  0  0  0
    9.3467  -15.2255   18.0675 C   0  0  1  0  0  0  0  0  0  0  0  0
    8.1959  -14.3344   18.5400 C   0  0  0  0  0  0  0  0  0  0  0  0
    7.5904  -13.6804   17.3573 C   0  0  0  0  0  0  0  0  0  0  0  0
    8.0310  -13.9061   16.2101 O   0  0  0  0  0  0  0  0  0  0  0  0
   10.0961  -15.7653   19.2138 C   0  0  0  0  0  0  0  0  0  0  0  0
    9.9750  -16.9871   19.5175 O   0  0  0  0  0  0  0  0  0  0  0  0
    6.5274  -12.8158   17.5620 O   0  0  0  0  0  0  0  0  0  0  0  0
   14.2414  -14.1817   19.0742 N   0  0  0  0  0  0  0  0  0  0  0  0
   13.8615  -15.2717   19.9245 C   0  0  0  0  0  0  0  0  0  0  0  0
   14.1914  -16.4291   19.5069 O   0  0  0  0  0  0  0  0  0  0  0  0
   13.1367  -15.0433   21.1931 C   0  0  0  0  0  0  0  0  0  0  0  0
   11.7605  -15.6124   21.0983 C   0  0  2  0  0  0  0  0  0  0  0  0
   10.9765  -15.0108   20.0409 N   0  0  0  0  0  0  0  0  0  0  0  0
   11.0514  -15.5986   22.3961 C   0  0  0  0  0  0  0  0  0  0  0  0
   10.7236  -14.4791   22.8620 O   0  0  0  0  0  0  0  0  0  0  0  0
   10.7346  -16.7920   23.1209 N   0  0  0  0  0  0  0  0  0  0  0  0
   10.0011  -16.6342   24.3416 C   0  0  0  0  0  0  0  0  0  0  0  0
   10.7222  -17.0403   25.5466 C   0  0  0  0  0  0  0  0  0  0  0  0
   11.8655  -17.5306   25.5347 O   0  0  0  0  0  0  0  0  0  0  0  0
   10.0731  -16.8591   26.7719 O   0  0  0  0  0  0  0  0  0  0  0  0
  2  3  1  0
  2  1  1  1
  3  4  1  0
  4  8  1  0
  5  4  2  0
  6  2  1  0
  6  7  2  0
  9 10  1  0
 10 11  2  0
 10 12  1  0
 13 12  1  1
 13 14  1  0
 13 15  1  0
 14  6  1  0
 15 16  2  0
 17 15  1  0
 17 18  1  0
 19 18  1  0
 19 21  1  0
 20 19  2  0
M  END
$$$$
