DNG.pdb
     RDKit          3D

 21 20  0  0  1  0  0  0  0  0999 V2000
   16.6466  -18.4425   19.0269 N   0  0  0  0  0  0  0  0  0  0  0  0
   16.7897  -17.9631   20.3629 C   0  0  1  0  0  0  0  0  0  0  0  0
   17.6030  -16.6680   20.4174 C   0  0  0  0  0  0  0  0  0  0  0  0
   18.8284  -16.8469   19.6055 C   0  0  0  0  0  0  0  0  0  0  0  0
   19.5027  -17.8952   19.6933 O   0  0  0  0  0  0  0  0  0  0  0  0
   15.5276  -17.8210   21.1071 C   0  0  0  0  0  0  0  0  0  0  0  0
   14.6222  -17.0602   20.6586 O   0  0  0  0  0  0  0  0  0  0  0  0
   19.2013  -15.8217   18.7513 O   0  0  0  0  0  0  0  0  0  0  0  0
   11.6560  -17.1429   20.3871 N   0  0  0  0  0  0  0  0  0  0  0  0
   12.0845  -17.4142   21.7281 C   0  0  0  0  0  0  0  0  0  0  0  0
   11.8111  -16.5086   22.5813 O   0  0  0  0  0  0  0  0  0  0  0  0
   12.7937  -18.6653   22.0724 C   0  0  0  0  0  0  0  0  0  0  0  0
   13.9368  -18.3639   22.9831 C   0  0  2  0  0  0  0  0  0  0  0  0
   15.2221  -18.4859   22.3291 N   0  0  0  0  0  0  0  0  0  0  0  0
   13.8758  -19.1361   24.2430 C   0  0  0  0  0  0  0  0  0  0  0  0
   13.7264  -20.3799   24.1501 O   0  0  0  0  0  0  0  0  0  0  0  0
   13.9790  -18.5258   25.5340 N   0  0  0  0  0  0  0  0  0  0  0  0
   15.2973  -18.3633   26.0712 C   0  0  0  0  0  0  0  0  0  0  0  0
   15.7686  -19.4812   26.8869 C   0  0  0  0  0  0  0  0  0  0  0  0
   16.8384  -19.4698   27.5217 O   0  0  0  0  0  0  0  0  0  0  0  0
   14.9564  -20.6182   26.9439 O   0  0  0  0  0  0  0  0  0  0  0  0
  2  3  1  0
  2  1  1  6
  3  4  1  0
  4  8  1  0
  5  4  2  0
  6  2  1  0
  6  7  2  0
  9 10  1  0
 10 11  2  0
 10 12  1  0
 13 12  1  6
 13 14  1  0
 13 15  1  0
 14  6  1  0
 15 16  2  0
 17 15  1  0
 17 18  1  0
 19 18  1  0
 19 21  1  0
 20 19  2  0
M  END
$$$$
