DNG.pdb
     RDKit          3D

 21 20  0  0  1  0  0  0  0  0999 V2000
   10.2245  -20.2669   22.0219 N   0  0  0  0  0  0  0  0  0  0  0  0
    9.0655  -19.4669   21.7941 C   0  0  1  0  0  0  0  0  0  0  0  0
    8.5843  -19.5638   20.3448 C   0  0  0  0  0  0  0  0  0  0  0  0
    9.7041  -19.1900   19.4508 C   0  0  0  0  0  0  0  0  0  0  0  0
   10.4494  -18.2275   19.7325 O   0  0  0  0  0  0  0  0  0  0  0  0
    7.9559  -19.7053   22.7318 C   0  0  0  0  0  0  0  0  0  0  0  0
    6.9358  -18.9587   22.6923 O   0  0  0  0  0  0  0  0  0  0  0  0
    9.8976  -19.9361   18.2995 O   0  0  0  0  0  0  0  0  0  0  0  0
    4.0426  -22.9589   24.8856 N   0  0  0  0  0  0  0  0  0  0  0  0
    5.2893  -22.6614   25.5282 C   0  0  0  0  0  0  0  0  0  0  0  0
    5.2424  -22.5837   26.7988 O   0  0  0  0  0  0  0  0  0  0  0  0
    6.5299  -22.4618   24.7486 C   0  0  0  0  0  0  0  0  0  0  0  0
    6.7590  -21.0039   24.5278 C   0  0  2  0  0  0  0  0  0  0  0  0
    7.9253  -20.7365   23.7138 N   0  0  0  0  0  0  0  0  0  0  0  0
    6.7715  -20.2350   25.7911 C   0  0  0  0  0  0  0  0  0  0  0  0
    5.6611  -19.8956   26.2703 O   0  0  0  0  0  0  0  0  0  0  0  0
    7.9799  -19.8739   26.4688 N   0  0  0  0  0  0  0  0  0  0  0  0
    7.8438  -19.1276   27.6843 C   0  0  0  0  0  0  0  0  0  0  0  0
    9.1037  -18.8205   28.3591 C   0  0  0  0  0  0  0  0  0  0  0  0
   10.2162  -19.1972   27.9490 O   0  0  0  0  0  0  0  0  0  0  0  0
    9.0331  -18.0587   29.5297 O   0  0  0  0  0  0  0  0  0  0  0  0
  2  3  1  0
  2  1  1  6
  3  4  1  0
  4  8  1  0
  5  4  2  0
  6  2  1  0
  6  7  2  0
  9 10  1  0
 10 11  2  0
 10 12  1  0
 13 12  1  1
 13 14  1  0
 13 15  1  0
 14  6  1  0
 15 16  2  0
 17 15  1  0
 17 18  1  0
 19 18  1  0
 19 21  1  0
 20 19  2  0
M  END
$$$$
