DNG.pdb
     RDKit          3D

 21 20  0  0  1  0  0  0  0  0999 V2000
   12.1088  -16.1104   16.6588 N   0  0  0  0  0  0  0  0  0  0  0  0
   13.4904  -16.4618   16.7116 C   0  0  1  0  0  0  0  0  0  0  0  0
   14.2456  -15.9851   15.4689 C   0  0  0  0  0  0  0  0  0  0  0  0
   13.5810  -16.5456   14.2701 C   0  0  0  0  0  0  0  0  0  0  0  0
   12.3958  -16.2528   14.0040 O   0  0  0  0  0  0  0  0  0  0  0  0
   14.1873  -16.0462   17.9399 C   0  0  0  0  0  0  0  0  0  0  0  0
   15.3924  -16.3865   18.1179 O   0  0  0  0  0  0  0  0  0  0  0  0
   14.3101  -17.3996   13.4586 O   0  0  0  0  0  0  0  0  0  0  0  0
   17.3553  -13.8540   19.8251 N   0  0  0  0  0  0  0  0  0  0  0  0
   16.0832  -13.4523   19.2999 C   0  0  0  0  0  0  0  0  0  0  0  0
   16.0937  -13.0579   18.0887 O   0  0  0  0  0  0  0  0  0  0  0  0
   14.8580  -13.5006   20.1266 C   0  0  0  0  0  0  0  0  0  0  0  0
   14.3371  -14.8981   20.1769 C   0  0  2  0  0  0  0  0  0  0  0  0
   13.6080  -15.2681   18.9827 N   0  0  0  0  0  0  0  0  0  0  0  0
   13.5660  -15.1709   21.4090 C   0  0  0  0  0  0  0  0  0  0  0  0
   12.3872  -14.7397   21.4587 O   0  0  0  0  0  0  0  0  0  0  0  0
   14.1074  -15.8933   22.5203 N   0  0  0  0  0  0  0  0  0  0  0  0
   13.2426  -16.0983   23.6441 C   0  0  0  0  0  0  0  0  0  0  0  0
   13.8486  -16.8237   24.7593 C   0  0  0  0  0  0  0  0  0  0  0  0
   14.9755  -17.3484   24.7106 O   0  0  0  0  0  0  0  0  0  0  0  0
   13.1034  -16.9219   25.9386 O   0  0  0  0  0  0  0  0  0  0  0  0
  2  3  1  0
  2  1  1  1
  3  4  1  0
  4  8  1  0
  5  4  2  0
  6  2  1  0
  6  7  2  0
  9 10  1  0
 10 11  2  0
 10 12  1  0
 13 12  1  6
 13 14  1  0
 13 15  1  0
 14  6  1  0
 15 16  2  0
 17 15  1  0
 17 18  1  0
 19 18  1  0
 19 21  1  0
 20 19  2  0
M  END
$$$$
