DNG.pdb
     RDKit          3D

 21 20  0  0  1  0  0  0  0  0999 V2000
    3.2766  -25.4075   29.1643 N   0  0  0  0  0  0  0  0  0  0  0  0
    3.7044  -26.5497   29.9042 C   0  0  1  0  0  0  0  0  0  0  0  0
    3.8779  -27.7762   29.0057 C   0  0  0  0  0  0  0  0  0  0  0  0
    2.5851  -28.0601   28.3416 C   0  0  0  0  0  0  0  0  0  0  0  0
    1.5135  -27.6419   28.8295 O   0  0  0  0  0  0  0  0  0  0  0  0
    4.9005  -26.3354   30.7352 C   0  0  0  0  0  0  0  0  0  0  0  0
    5.4825  -27.3295   31.2574 O   0  0  0  0  0  0  0  0  0  0  0  0
    2.6014  -28.7997   27.1701 O   0  0  0  0  0  0  0  0  0  0  0  0
    7.6858  -24.9045   29.3179 N   0  0  0  0  0  0  0  0  0  0  0  0
    7.9650  -23.7731   30.1532 C   0  0  0  0  0  0  0  0  0  0  0  0
    8.6910  -22.8704   29.6232 O   0  0  0  0  0  0  0  0  0  0  0  0
    7.4363  -23.6834   31.5313 C   0  0  0  0  0  0  0  0  0  0  0  0
    6.6523  -24.9117   31.8528 C   0  0  2  0  0  0  0  0  0  0  0  0
    5.4828  -25.0659   31.0143 N   0  0  0  0  0  0  0  0  0  0  0  0
    6.3256  -25.0145   33.2915 C   0  0  0  0  0  0  0  0  0  0  0  0
    5.2691  -24.4595   33.6837 O   0  0  0  0  0  0  0  0  0  0  0  0
    7.1552  -25.7095   34.2288 N   0  0  0  0  0  0  0  0  0  0  0  0
    6.7342  -25.7013   35.5984 C   0  0  0  0  0  0  0  0  0  0  0  0
    7.6462  -26.3714   36.5237 C   0  0  0  0  0  0  0  0  0  0  0  0
    8.6828  -26.9594   36.1670 O   0  0  0  0  0  0  0  0  0  0  0  0
    7.3171  -26.3378   37.8825 O   0  0  0  0  0  0  0  0  0  0  0  0
  2  3  1  0
  2  1  1  6
  3  4  1  0
  4  8  1  0
  5  4  2  0
  6  2  1  0
  6  7  2  0
  9 10  1  0
 10 11  2  0
 10 12  1  0
 13 12  1  1
 13 14  1  0
 13 15  1  0
 14  6  1  0
 15 16  2  0
 17 15  1  0
 17 18  1  0
 19 18  1  0
 19 21  1  0
 20 19  2  0
M  END
$$$$
