DNG.pdb
     RDKit          3D

 21 20  0  0  1  0  0  0  0  0999 V2000
   11.9515  -17.0094   17.0389 N   0  0  0  0  0  0  0  0  0  0  0  0
   12.4133  -15.6598   17.0243 C   0  0  1  0  0  0  0  0  0  0  0  0
   12.1305  -14.9772   15.6842 C   0  0  0  0  0  0  0  0  0  0  0  0
   12.6941  -15.8148   14.6009 C   0  0  0  0  0  0  0  0  0  0  0  0
   13.2612  -16.8970   14.8626 O   0  0  0  0  0  0  0  0  0  0  0  0
   11.9380  -14.8317   18.1448 C   0  0  0  0  0  0  0  0  0  0  0  0
   12.6012  -13.8119   18.4908 O   0  0  0  0  0  0  0  0  0  0  0  0
   12.5738  -15.3633   13.2966 O   0  0  0  0  0  0  0  0  0  0  0  0
    9.2062  -13.2006   17.8644 N   0  0  0  0  0  0  0  0  0  0  0  0
    8.3653  -13.5445   18.9736 C   0  0  0  0  0  0  0  0  0  0  0  0
    7.1238  -13.3109   18.8091 O   0  0  0  0  0  0  0  0  0  0  0  0
    8.9237  -14.1278   20.2124 C   0  0  0  0  0  0  0  0  0  0  0  0
   10.3983  -14.3050   20.0675 C   0  0  2  0  0  0  0  0  0  0  0  0
   10.7576  -15.0830   18.9013 N   0  0  0  0  0  0  0  0  0  0  0  0
   11.0303  -14.8223   21.3004 C   0  0  0  0  0  0  0  0  0  0  0  0
   10.2915  -14.9814   22.3038 O   0  0  0  0  0  0  0  0  0  0  0  0
   12.4238  -15.1399   21.3847 N   0  0  0  0  0  0  0  0  0  0  0  0
   12.8953  -15.6650   22.6317 C   0  0  0  0  0  0  0  0  0  0  0  0
   14.3102  -16.0323   22.6461 C   0  0  0  0  0  0  0  0  0  0  0  0
   15.0688  -15.8960   21.6696 O   0  0  0  0  0  0  0  0  0  0  0  0
   14.8205  -16.5648   23.8342 O   0  0  0  0  0  0  0  0  0  0  0  0
  2  3  1  0
  2  1  1  6
  3  4  1  0
  4  8  1  0
  5  4  2  0
  6  2  1  0
  6  7  2  0
  9 10  1  0
 10 11  2  0
 10 12  1  0
 13 12  1  1
 13 14  1  0
 13 15  1  0
 14  6  1  0
 15 16  2  0
 17 15  1  0
 17 18  1  0
 19 18  1  0
 19 21  1  0
 20 19  2  0
M  END
$$$$
