DNG.pdb
     RDKit          3D

 21 20  0  0  1  0  0  0  0  0999 V2000
   12.3638  -16.6814   17.3993 N   0  0  0  0  0  0  0  0  0  0  0  0
   13.0029  -15.5261   17.9397 C   0  0  1  0  0  0  0  0  0  0  0  0
   13.5103  -14.5910   16.8398 C   0  0  0  0  0  0  0  0  0  0  0  0
   14.4361  -15.3490   15.9673 C   0  0  0  0  0  0  0  0  0  0  0  0
   15.0231  -16.3663   16.3937 O   0  0  0  0  0  0  0  0  0  0  0  0
   12.2054  -14.7852   18.9307 C   0  0  0  0  0  0  0  0  0  0  0  0
   12.7251  -13.8091   19.5445 O   0  0  0  0  0  0  0  0  0  0  0  0
   14.6298  -14.8972   14.6719 O   0  0  0  0  0  0  0  0  0  0  0  0
    8.4435  -12.2609   18.3578 N   0  0  0  0  0  0  0  0  0  0  0  0
    8.5417  -13.6664   18.6231 C   0  0  0  0  0  0  0  0  0  0  0  0
    8.4871  -14.4197   17.5972 O   0  0  0  0  0  0  0  0  0  0  0  0
    8.6946  -14.1820   20.0006 C   0  0  0  0  0  0  0  0  0  0  0  0
   10.1419  -14.3666   20.3134 C   0  0  2  0  0  0  0  0  0  0  0  0
   10.8541  -15.0775   19.2732 N   0  0  0  0  0  0  0  0  0  0  0  0
   10.3610  -14.9638   21.6485 C   0  0  0  0  0  0  0  0  0  0  0  0
    9.8969  -14.3465   22.6393 O   0  0  0  0  0  0  0  0  0  0  0  0
   11.0682  -16.1934   21.8430 N   0  0  0  0  0  0  0  0  0  0  0  0
   11.3065  -16.5975   23.1969 C   0  0  0  0  0  0  0  0  0  0  0  0
   12.6855  -16.4307   23.6524 C   0  0  0  0  0  0  0  0  0  0  0  0
   13.5972  -15.9732   22.9403 O   0  0  0  0  0  0  0  0  0  0  0  0
   12.9757  -16.8125   24.9660 O   0  0  0  0  0  0  0  0  0  0  0  0
  2  3  1  0
  2  1  1  6
  3  4  1  0
  4  8  1  0
  5  4  2  0
  6  2  1  0
  6  7  2  0
  9 10  1  0
 10 11  2  0
 10 12  1  0
 13 12  1  6
 13 14  1  0
 13 15  1  0
 14  6  1  0
 15 16  2  0
 17 15  1  0
 17 18  1  0
 19 18  1  0
 19 21  1  0
 20 19  2  0
M  END
$$$$
