DNG.pdb
     RDKit          3D

 21 20  0  0  1  0  0  0  0  0999 V2000
    9.9337  -18.7748   21.2181 N   0  0  0  0  0  0  0  0  0  0  0  0
    9.5048  -17.4240   21.3809 C   0  0  1  0  0  0  0  0  0  0  0  0
    8.5188  -17.0056   20.2881 C   0  0  0  0  0  0  0  0  0  0  0  0
    9.0539  -17.4430   18.9784 C   0  0  0  0  0  0  0  0  0  0  0  0
   10.1692  -18.0011   18.9008 O   0  0  0  0  0  0  0  0  0  0  0  0
    8.9759  -17.1002   22.7160 C   0  0  0  0  0  0  0  0  0  0  0  0
    8.7136  -15.8977   23.0072 O   0  0  0  0  0  0  0  0  0  0  0  0
    8.2840  -17.2149   17.8493 O   0  0  0  0  0  0  0  0  0  0  0  0
    7.6395  -19.8780   26.8037 N   0  0  0  0  0  0  0  0  0  0  0  0
    6.7123  -19.3794   25.8305 C   0  0  0  0  0  0  0  0  0  0  0  0
    5.8030  -20.1977   25.4748 O   0  0  0  0  0  0  0  0  0  0  0  0
    6.8246  -18.0072   25.2910 C   0  0  0  0  0  0  0  0  0  0  0  0
    8.2602  -17.6698   25.0629 C   0  0  2  0  0  0  0  0  0  0  0  0
    8.7234  -18.0511   23.7459 N   0  0  0  0  0  0  0  0  0  0  0  0
    9.1399  -18.1840   26.1348 C   0  0  0  0  0  0  0  0  0  0  0  0
    8.8161  -17.9243   27.3204 O   0  0  0  0  0  0  0  0  0  0  0  0
   10.3205  -18.9496   25.8704 N   0  0  0  0  0  0  0  0  0  0  0  0
   11.5756  -18.2692   25.9915 C   0  0  0  0  0  0  0  0  0  0  0  0
   12.7512  -19.1054   25.7551 C   0  0  0  0  0  0  0  0  0  0  0  0
   12.6942  -20.2692   25.3194 O   0  0  0  0  0  0  0  0  0  0  0  0
   14.0010  -18.5469   26.0406 O   0  0  0  0  0  0  0  0  0  0  0  0
  2  3  1  0
  2  1  1  1
  3  4  1  0
  4  8  1  0
  5  4  2  0
  6  2  1  0
  6  7  2  0
  9 10  1  0
 10 11  2  0
 10 12  1  0
 13 12  1  1
 13 14  1  0
 13 15  1  0
 14  6  1  0
 15 16  2  0
 17 15  1  0
 17 18  1  0
 19 18  1  0
 19 21  1  0
 20 19  2  0
M  END
$$$$
