DNG.pdb
     RDKit          3D

 21 20  0  0  1  0  0  0  0  0999 V2000
    7.7734  -17.2638   21.6314 N   0  0  0  0  0  0  0  0  0  0  0  0
    8.8243  -16.3044   21.5308 C   0  0  1  0  0  0  0  0  0  0  0  0
    8.5680  -15.2968   20.4080 C   0  0  0  0  0  0  0  0  0  0  0  0
    8.5288  -16.0266   19.1201 C   0  0  0  0  0  0  0  0  0  0  0  0
    7.4897  -16.6163   18.7541 O   0  0  0  0  0  0  0  0  0  0  0  0
    9.1540  -15.6147   22.7888 C   0  0  0  0  0  0  0  0  0  0  0  0
   10.1371  -14.8198   22.8242 O   0  0  0  0  0  0  0  0  0  0  0  0
    9.6732  -16.0352   18.3393 O   0  0  0  0  0  0  0  0  0  0  0  0
    7.3674  -13.0332   23.9465 N   0  0  0  0  0  0  0  0  0  0  0  0
    6.8586  -13.8178   25.0333 C   0  0  0  0  0  0  0  0  0  0  0  0
    5.5887  -13.8874   25.1074 O   0  0  0  0  0  0  0  0  0  0  0  0
    7.7648  -14.4895   25.9895 C   0  0  0  0  0  0  0  0  0  0  0  0
    8.8775  -15.1539   25.2497 C   0  0  2  0  0  0  0  0  0  0  0  0
    8.4416  -15.7660   24.0128 N   0  0  0  0  0  0  0  0  0  0  0  0
    9.6406  -16.0936   26.0993 C   0  0  0  0  0  0  0  0  0  0  0  0
   10.0703  -15.6595   27.1969 O   0  0  0  0  0  0  0  0  0  0  0  0
    9.8990  -17.4497   25.7195 N   0  0  0  0  0  0  0  0  0  0  0  0
   10.6295  -18.2564   26.6515 C   0  0  0  0  0  0  0  0  0  0  0  0
   12.0810  -18.2278   26.4805 C   0  0  0  0  0  0  0  0  0  0  0  0
   12.6617  -17.5381   25.6233 O   0  0  0  0  0  0  0  0  0  0  0  0
   12.8419  -19.0276   27.3389 O   0  0  0  0  0  0  0  0  0  0  0  0
  2  3  1  0
  2  1  1  1
  3  4  1  0
  4  8  1  0
  5  4  2  0
  6  2  1  0
  6  7  2  0
  9 10  1  0
 10 11  2  0
 10 12  1  0
 13 12  1  1
 13 14  1  0
 13 15  1  0
 14  6  1  0
 15 16  2  0
 17 15  1  0
 17 18  1  0
 19 18  1  0
 19 21  1  0
 20 19  2  0
M  END
$$$$
