DNG.pdb
     RDKit          3D

 21 20  0  0  1  0  0  0  0  0999 V2000
   14.9851  -18.6248   19.2379 N   0  0  0  0  0  0  0  0  0  0  0  0
   14.9351  -17.2310   18.9380 C   0  0  1  0  0  0  0  0  0  0  0  0
   14.2211  -16.9606   17.6119 C   0  0  0  0  0  0  0  0  0  0  0  0
   14.9257  -17.6987   16.5386 C   0  0  0  0  0  0  0  0  0  0  0  0
   15.8838  -18.4539   16.8088 O   0  0  0  0  0  0  0  0  0  0  0  0
   14.3843  -16.3872   20.0113 C   0  0  0  0  0  0  0  0  0  0  0  0
   14.3743  -15.1302   19.8722 O   0  0  0  0  0  0  0  0  0  0  0  0
   14.4919  -17.5261   15.2342 O   0  0  0  0  0  0  0  0  0  0  0  0
   12.5727  -18.4860   21.5268 N   0  0  0  0  0  0  0  0  0  0  0  0
   11.7100  -17.7336   22.3902 C   0  0  0  0  0  0  0  0  0  0  0  0
   10.6215  -18.3121   22.7116 O   0  0  0  0  0  0  0  0  0  0  0  0
   12.0797  -16.3814   22.8611 C   0  0  0  0  0  0  0  0  0  0  0  0
   13.4077  -15.9964   22.3000 C   0  0  2  0  0  0  0  0  0  0  0  0
   13.8424  -16.8746   21.2349 N   0  0  0  0  0  0  0  0  0  0  0  0
   14.4396  -15.8351   23.3471 C   0  0  0  0  0  0  0  0  0  0  0  0
   14.1068  -16.0974   24.5296 O   0  0  0  0  0  0  0  0  0  0  0  0
   15.7736  -15.4000   23.0625 N   0  0  0  0  0  0  0  0  0  0  0  0
   16.6545  -15.2350   24.1805 C   0  0  0  0  0  0  0  0  0  0  0  0
   17.9478  -14.6347   23.8582 C   0  0  0  0  0  0  0  0  0  0  0  0
   18.2983  -14.3282   22.7046 O   0  0  0  0  0  0  0  0  0  0  0  0
   18.8262  -14.3995   24.9206 O   0  0  0  0  0  0  0  0  0  0  0  0
  2  3  1  0
  2  1  1  1
  3  4  1  0
  4  8  1  0
  5  4  2  0
  6  2  1  0
  6  7  2  0
  9 10  1  0
 10 11  2  0
 10 12  1  0
 13 12  1  1
 13 14  1  0
 13 15  1  0
 14  6  1  0
 15 16  2  0
 17 15  1  0
 17 18  1  0
 19 18  1  0
 19 21  1  0
 20 19  2  0
M  END
$$$$
