DNG.pdb
     RDKit          3D

 21 20  0  0  1  0  0  0  0  0999 V2000
   12.0886  -22.2972   27.3042 N   0  0  0  0  0  0  0  0  0  0  0  0
   12.8972  -21.3652   28.0203 C   0  0  1  0  0  0  0  0  0  0  0  0
   12.9980  -20.0234   27.2915 C   0  0  0  0  0  0  0  0  0  0  0  0
   13.2340  -20.2853   25.8532 C   0  0  0  0  0  0  0  0  0  0  0  0
   14.1017  -21.1076   25.4899 O   0  0  0  0  0  0  0  0  0  0  0  0
   12.5151  -21.1694   29.4283 C   0  0  0  0  0  0  0  0  0  0  0  0
   11.9722  -20.0829   29.7811 O   0  0  0  0  0  0  0  0  0  0  0  0
   12.4674  -19.5938   24.9292 O   0  0  0  0  0  0  0  0  0  0  0  0
    9.5702  -22.3767   30.8638 N   0  0  0  0  0  0  0  0  0  0  0  0
   10.3194  -23.4218   31.4980 C   0  0  0  0  0  0  0  0  0  0  0  0
    9.8989  -24.6041   31.2783 O   0  0  0  0  0  0  0  0  0  0  0  0
   11.4944  -23.1231   32.3445 C   0  0  0  0  0  0  0  0  0  0  0  0
   12.2109  -21.9278   31.8110 C   0  0  2  0  0  0  0  0  0  0  0  0
   12.7076  -22.1257   30.4662 N   0  0  0  0  0  0  0  0  0  0  0  0
   13.2635  -21.4419   32.7293 C   0  0  0  0  0  0  0  0  0  0  0  0
   12.8955  -21.0037   33.8475 O   0  0  0  0  0  0  0  0  0  0  0  0
   14.6549  -21.4549   32.3922 N   0  0  0  0  0  0  0  0  0  0  0  0
   15.5604  -20.8989   33.3535 C   0  0  0  0  0  0  0  0  0  0  0  0
   16.1605  -21.8721   34.2644 C   0  0  0  0  0  0  0  0  0  0  0  0
   15.8617  -23.0796   34.2791 O   0  0  0  0  0  0  0  0  0  0  0  0
   17.1230  -21.3991   35.1618 O   0  0  0  0  0  0  0  0  0  0  0  0
  2  3  1  0
  2  1  1  6
  3  4  1  0
  4  8  1  0
  5  4  2  0
  6  2  1  0
  6  7  2  0
  9 10  1  0
 10 11  2  0
 10 12  1  0
 13 12  1  1
 13 14  1  0
 13 15  1  0
 14  6  1  0
 15 16  2  0
 17 15  1  0
 17 18  1  0
 19 18  1  0
 19 21  1  0
 20 19  2  0
M  END
$$$$
