DNG.pdb
     RDKit          3D

 21 20  0  0  1  0  0  0  0  0999 V2000
    8.4519  -16.1058   17.6654 N   0  0  0  0  0  0  0  0  0  0  0  0
    8.8965  -14.7993   18.0268 C   0  0  1  0  0  0  0  0  0  0  0  0
    8.0656  -13.7086   17.3475 C   0  0  0  0  0  0  0  0  0  0  0  0
    7.9748  -14.0173   15.9020 C   0  0  0  0  0  0  0  0  0  0  0  0
    8.3627  -15.1202   15.4611 O   0  0  0  0  0  0  0  0  0  0  0  0
    8.9934  -14.5583   19.4758 C   0  0  0  0  0  0  0  0  0  0  0  0
    9.5133  -13.4842   19.8951 O   0  0  0  0  0  0  0  0  0  0  0  0
    7.4499  -13.0507   15.0595 O   0  0  0  0  0  0  0  0  0  0  0  0
    6.2809  -14.5591   20.9399 N   0  0  0  0  0  0  0  0  0  0  0  0
    6.3648  -15.4360   22.0711 C   0  0  0  0  0  0  0  0  0  0  0  0
    5.2638  -15.9644   22.4337 O   0  0  0  0  0  0  0  0  0  0  0  0
    7.6512  -15.6929   22.7536 C   0  0  0  0  0  0  0  0  0  0  0  0
    8.7803  -15.2323   21.8934 C   0  0  2  0  0  0  0  0  0  0  0  0
    8.5389  -15.4557   20.4841 N   0  0  0  0  0  0  0  0  0  0  0  0
   10.0838  -15.7777   22.3301 C   0  0  0  0  0  0  0  0  0  0  0  0
   10.6714  -16.5640   21.5463 O   0  0  0  0  0  0  0  0  0  0  0  0
   10.6827  -15.4461   23.5876 N   0  0  0  0  0  0  0  0  0  0  0  0
   11.9887  -15.9767   23.8442 C   0  0  0  0  0  0  0  0  0  0  0  0
   12.0068  -17.1982   24.6470 C   0  0  0  0  0  0  0  0  0  0  0  0
   10.9844  -17.8345   24.9591 O   0  0  0  0  0  0  0  0  0  0  0  0
   13.2538  -17.6614   25.0783 O   0  0  0  0  0  0  0  0  0  0  0  0
  2  3  1  0
  2  1  1  1
  3  4  1  0
  4  8  1  0
  5  4  2  0
  6  2  1  0
  6  7  2  0
  9 10  1  0
 10 11  2  0
 10 12  1  0
 13 12  1  1
 13 14  1  0
 13 15  1  0
 14  6  1  0
 15 16  2  0
 17 15  1  0
 17 18  1  0
 19 18  1  0
 19 21  1  0
 20 19  2  0
M  END
$$$$
