DNG.pdb
     RDKit          3D

 21 20  0  0  1  0  0  0  0  0999 V2000
    7.3757  -24.8743   28.4808 N   0  0  0  0  0  0  0  0  0  0  0  0
    7.7888  -24.5686   27.1501 C   0  0  1  0  0  0  0  0  0  0  0  0
    6.7237  -24.9552   26.1217 C   0  0  0  0  0  0  0  0  0  0  0  0
    6.6625  -26.4325   26.0397 C   0  0  0  0  0  0  0  0  0  0  0  0
    7.6319  -27.1310   26.4055 O   0  0  0  0  0  0  0  0  0  0  0  0
    8.2359  -23.1811   26.9451 C   0  0  0  0  0  0  0  0  0  0  0  0
    8.3929  -22.7446   25.7685 O   0  0  0  0  0  0  0  0  0  0  0  0
    5.5042  -27.0118   25.5475 O   0  0  0  0  0  0  0  0  0  0  0  0
    6.3859  -20.5665   27.1080 N   0  0  0  0  0  0  0  0  0  0  0  0
    6.9371  -19.7571   28.1552 C   0  0  0  0  0  0  0  0  0  0  0  0
    6.1230  -18.9431   28.7006 O   0  0  0  0  0  0  0  0  0  0  0  0
    8.3554  -19.8765   28.5562 C   0  0  0  0  0  0  0  0  0  0  0  0
    9.0275  -20.9227   27.7311 C   0  0  2  0  0  0  0  0  0  0  0  0
    8.5176  -22.2525   27.9878 N   0  0  0  0  0  0  0  0  0  0  0  0
   10.5018  -20.8611   27.8300 C   0  0  0  0  0  0  0  0  0  0  0  0
   11.0071  -20.9544   28.9762 O   0  0  0  0  0  0  0  0  0  0  0  0
   11.3510  -20.7023   26.6882 N   0  0  0  0  0  0  0  0  0  0  0  0
   12.7235  -20.3778   26.9407 C   0  0  0  0  0  0  0  0  0  0  0  0
   13.6041  -21.5317   27.1137 C   0  0  0  0  0  0  0  0  0  0  0  0
   13.2024  -22.7088   27.1406 O   0  0  0  0  0  0  0  0  0  0  0  0
   14.9719  -21.2769   27.2548 O   0  0  0  0  0  0  0  0  0  0  0  0
  2  3  1  0
  2  1  1  1
  3  4  1  0
  4  8  1  0
  5  4  2  0
  6  2  1  0
  6  7  2  0
  9 10  1  0
 10 11  2  0
 10 12  1  0
 13 12  1  1
 13 14  1  0
 13 15  1  0
 14  6  1  0
 15 16  2  0
 17 15  1  0
 17 18  1  0
 19 18  1  0
 19 21  1  0
 20 19  2  0
M  END
$$$$
