YSE.pdb
     RDKit          3D

 28 28  0  0  1  0  0  0  0  0999 V2000
    5.0221  -10.9035   28.2060 O   0  0  0  0  0  0  0  0  0  0  0  0
    5.7396  -11.7498   27.3819 C   0  0  0  0  0  0  0  0  0  0  0  0
    5.1460  -12.2410   26.2524 C   0  0  0  0  0  0  0  0  0  0  0  0
    5.8673  -13.0975   25.4160 C   0  0  0  0  0  0  0  0  0  0  0  0
    7.1628  -13.4323   25.7431 C   0  0  0  0  0  0  0  0  0  0  0  0
    7.9832  -14.3316   24.8924 C   0  0  0  0  0  0  0  0  0  0  0  0
    7.1032  -15.4761   24.4316 C   0  0  2  0  0  0  0  0  0  0  0  0
    6.5939  -16.2767   25.4987 N   0  0  0  0  0  0  0  0  0  0  0  0
    7.8616  -16.3063   23.4864 C   0  0  0  0  0  0  0  0  0  0  0  0
    8.2641  -17.4331   23.9028 O   0  0  0  0  0  0  0  0  0  0  0  0
    7.7396  -12.9179   26.8965 C   0  0  0  0  0  0  0  0  0  0  0  0
    7.0357  -12.0824   27.7118 C   0  0  0  0  0  0  0  0  0  0  0  0
    9.5941  -14.9246   19.8800 O   0  0  0  0  0  0  0  0  0  0  0  0
    9.1208  -16.2107   19.9554 C   0  0  0  0  0  0  0  0  0  0  0  0
    9.0600  -16.6677   21.3898 C   0  0  2  0  0  0  0  0  0  0  0  0
    8.1344  -15.8790   22.1821 N   0  0  0  0  0  0  0  0  0  0  0  0
   10.4029  -16.5583   22.0456 C   0  0  0  0  0  0  0  0  0  0  0  0
   10.5088  -15.9362   23.1449 O   0  0  0  0  0  0  0  0  0  0  0  0
   11.5758  -17.1088   21.5217 N   0  0  0  0  0  0  0  0  0  0  0  0
   12.8137  -17.2627   22.3448 C   0  0  1  0  0  0  0  0  0  0  0  0
   12.3913  -18.1093   23.4866 C   0  0  0  0  0  0  0  0  0  0  0  0
   13.1270  -18.0588   24.7593 C   0  0  0  0  0  0  0  0  0  0  0  0
   12.6468  -18.8723   25.8674 C   0  0  0  0  0  0  0  0  0  0  0  0
   11.7521  -18.4183   26.6406 O   0  0  0  0  0  0  0  0  0  0  0  0
   13.8254  -17.7890   21.4365 C   0  0  0  0  0  0  0  0  0  0  0  0
   13.5137  -18.4874   20.4580 O   0  0  0  0  0  0  0  0  0  0  0  0
   13.1743  -20.1631   26.0780 O   0  0  0  0  0  0  0  0  0  0  0  0
   15.1734  -17.5332   21.6255 O   0  0  0  0  0  0  0  0  0  0  0  0
  2  1  1  0
  2 12  2  0
  3  2  1  0
  4  3  2  0
  4  5  1  0
  5 11  2  0
  6  5  1  0
  7  8  1  1
  7  6  1  0
  9  7  1  0
  9 10  2  0
 11 12  1  0
 13 14  1  0
 15 14  1  6
 15 16  1  0
 15 17  1  0
 16  9  1  0
 17 19  1  0
 18 17  2  0
 19 20  1  0
 20 25  1  0
 20 21  1  1
 22 21  1  0
 23 22  1  0
 23 24  2  0
 25 26  2  0
 25 28  1  0
 27 23  1  0
M  END
$$$$
