YSE.pdb
     RDKit          3D

 28 28  0  0  1  0  0  0  0  0999 V2000
    8.7883  -13.6619   25.0200 O   0  0  0  0  0  0  0  0  0  0  0  0
    7.9846  -14.6343   24.4556 C   0  0  0  0  0  0  0  0  0  0  0  0
    7.3954  -14.3920   23.2459 C   0  0  0  0  0  0  0  0  0  0  0  0
    6.5814  -15.3721   22.6713 C   0  0  0  0  0  0  0  0  0  0  0  0
    6.3864  -16.5647   23.3325 C   0  0  0  0  0  0  0  0  0  0  0  0
    5.5390  -17.6475   22.7714 C   0  0  0  0  0  0  0  0  0  0  0  0
    5.8847  -17.8037   21.3042 C   0  0  2  0  0  0  0  0  0  0  0  0
    5.1114  -18.7989   20.6330 N   0  0  0  0  0  0  0  0  0  0  0  0
    7.3179  -18.1025   21.1841 C   0  0  0  0  0  0  0  0  0  0  0  0
    7.6771  -19.2990   21.3946 O   0  0  0  0  0  0  0  0  0  0  0  0
    6.9979  -16.7829   24.5596 C   0  0  0  0  0  0  0  0  0  0  0  0
    7.7919  -15.8266   25.1196 C   0  0  0  0  0  0  0  0  0  0  0  0
   10.0231  -15.7017   19.2394 O   0  0  0  0  0  0  0  0  0  0  0  0
   10.2417  -17.0457   19.4112 C   0  0  0  0  0  0  0  0  0  0  0  0
    9.6404  -17.5166   20.7101 C   0  0  2  0  0  0  0  0  0  0  0  0
    8.2531  -17.1153   20.8542 N   0  0  0  0  0  0  0  0  0  0  0  0
   10.3847  -16.9525   21.8819 C   0  0  0  0  0  0  0  0  0  0  0  0
   10.1022  -15.7880   22.2954 O   0  0  0  0  0  0  0  0  0  0  0  0
   11.3906  -17.6352   22.5714 N   0  0  0  0  0  0  0  0  0  0  0  0
   12.1143  -17.0221   23.7263 C   0  0  1  0  0  0  0  0  0  0  0  0
   11.9094  -17.9818   24.8380 C   0  0  0  0  0  0  0  0  0  0  0  0
   10.8268  -17.7694   25.8109 C   0  0  0  0  0  0  0  0  0  0  0  0
   10.6798  -18.7246   26.9000 C   0  0  0  0  0  0  0  0  0  0  0  0
   11.4694  -19.7117   26.9828 O   0  0  0  0  0  0  0  0  0  0  0  0
   13.4760  -16.7929   23.2585 C   0  0  0  0  0  0  0  0  0  0  0  0
   13.8857  -17.2893   22.1963 O   0  0  0  0  0  0  0  0  0  0  0  0
    9.6632  -18.5503   27.8616 O   0  0  0  0  0  0  0  0  0  0  0  0
   14.3682  -16.0141   23.9766 O   0  0  0  0  0  0  0  0  0  0  0  0
  2  1  1  0
  2 12  2  0
  3  2  1  0
  4  3  2  0
  4  5  1  0
  5 11  2  0
  6  5  1  0
  7  8  1  1
  7  6  1  0
  9  7  1  0
  9 10  2  0
 11 12  1  0
 13 14  1  0
 15 14  1  6
 15 16  1  0
 15 17  1  0
 16  9  1  0
 17 19  1  0
 18 17  2  0
 19 20  1  0
 20 25  1  0
 20 21  1  1
 22 21  1  0
 23 22  1  0
 23 24  2  0
 25 26  2  0
 25 28  1  0
 27 23  1  0
M  END
$$$$
