YSE.pdb
     RDKit          3D

 28 28  0  0  1  0  0  0  0  0999 V2000
    7.8190  -12.9892   16.9389 O   0  0  0  0  0  0  0  0  0  0  0  0
    7.7219  -13.3001   18.2820 C   0  0  0  0  0  0  0  0  0  0  0  0
    7.8830  -12.3078   19.2087 C   0  0  0  0  0  0  0  0  0  0  0  0
    7.7861  -12.6172   20.5682 C   0  0  0  0  0  0  0  0  0  0  0  0
    7.5304  -13.9153   20.9516 C   0  0  0  0  0  0  0  0  0  0  0  0
    7.4092  -14.3061   22.3792 C   0  0  0  0  0  0  0  0  0  0  0  0
    7.0098  -15.7668   22.4353 C   0  0  2  0  0  0  0  0  0  0  0  0
    5.6646  -16.0124   22.0241 N   0  0  0  0  0  0  0  0  0  0  0  0
    7.2265  -16.2654   23.7999 C   0  0  0  0  0  0  0  0  0  0  0  0
    6.3650  -15.9487   24.6732 O   0  0  0  0  0  0  0  0  0  0  0  0
    7.3711  -14.9021   19.9881 C   0  0  0  0  0  0  0  0  0  0  0  0
    7.4656  -14.5997   18.6622 C   0  0  0  0  0  0  0  0  0  0  0  0
    7.2012  -19.5841   25.0838 O   0  0  0  0  0  0  0  0  0  0  0  0
    7.2109  -18.4316   25.8291 C   0  0  0  0  0  0  0  0  0  0  0  0
    8.4084  -17.5867   25.4791 C   0  0  2  0  0  0  0  0  0  0  0  0
    8.3338  -17.0543   24.1310 N   0  0  0  0  0  0  0  0  0  0  0  0
    9.6731  -18.3856   25.5664 C   0  0  0  0  0  0  0  0  0  0  0  0
   10.0215  -19.1069   24.5840 O   0  0  0  0  0  0  0  0  0  0  0  0
   10.5193  -18.3907   26.6787 N   0  0  0  0  0  0  0  0  0  0  0  0
   11.7752  -19.2000   26.7134 C   0  0  1  0  0  0  0  0  0  0  0  0
   12.5733  -18.6864   25.5741 C   0  0  0  0  0  0  0  0  0  0  0  0
   13.0003  -17.2792   25.5426 C   0  0  0  0  0  0  0  0  0  0  0  0
   14.1790  -16.9324   24.7612 C   0  0  0  0  0  0  0  0  0  0  0  0
   14.8256  -17.8407   24.1600 O   0  0  0  0  0  0  0  0  0  0  0  0
   12.3117  -19.0335   28.0588 C   0  0  0  0  0  0  0  0  0  0  0  0
   13.3943  -19.5444   28.3897 O   0  0  0  0  0  0  0  0  0  0  0  0
   14.5984  -15.5890   24.6716 O   0  0  0  0  0  0  0  0  0  0  0  0
   11.6391  -18.3005   29.0223 O   0  0  0  0  0  0  0  0  0  0  0  0
  2  1  1  0
  2 12  2  0
  3  2  1  0
  4  3  2  0
  4  5  1  0
  5 11  2  0
  6  5  1  0
  7  8  1  1
  7  6  1  0
  9  7  1  0
  9 10  2  0
 11 12  1  0
 13 14  1  0
 15 14  1  6
 15 16  1  0
 15 17  1  0
 16  9  1  0
 17 19  1  0
 18 17  2  0
 19 20  1  0
 20 25  1  0
 20 21  1  6
 22 21  1  0
 23 22  1  0
 23 24  2  0
 25 26  2  0
 25 28  1  0
 27 23  1  0
M  END
$$$$
