YSE.pdb
     RDKit          3D

 28 28  0  0  1  0  0  0  0  0999 V2000
   19.0488  -15.6425   11.8724 O   0  0  0  0  0  0  0  0  0  0  0  0
   18.4686  -15.4967   13.1183 C   0  0  0  0  0  0  0  0  0  0  0  0
   19.1739  -14.8790   14.1134 C   0  0  0  0  0  0  0  0  0  0  0  0
   18.5917  -14.7295   15.3752 C   0  0  0  0  0  0  0  0  0  0  0  0
   17.3183  -15.2065   15.5951 C   0  0  0  0  0  0  0  0  0  0  0  0
   16.6426  -15.0721   16.9107 C   0  0  0  0  0  0  0  0  0  0  0  0
   15.6851  -13.9003   16.8309 C   0  0  2  0  0  0  0  0  0  0  0  0
   16.3296  -12.6428   16.6252 N   0  0  0  0  0  0  0  0  0  0  0  0
   14.8753  -13.8655   18.0560 C   0  0  0  0  0  0  0  0  0  0  0  0
   15.4099  -13.3581   19.0865 O   0  0  0  0  0  0  0  0  0  0  0  0
   16.6258  -15.8292   14.5654 C   0  0  0  0  0  0  0  0  0  0  0  0
   17.1942  -15.9747   13.3349 C   0  0  0  0  0  0  0  0  0  0  0  0
   10.9549  -15.4241   18.4916 O   0  0  0  0  0  0  0  0  0  0  0  0
   11.3624  -14.3034   19.1709 C   0  0  0  0  0  0  0  0  0  0  0  0
   12.8576  -14.3130   19.3564 C   0  0  2  0  0  0  0  0  0  0  0  0
   13.5706  -14.3701   18.0935 N   0  0  0  0  0  0  0  0  0  0  0  0
   13.2914  -15.5013   20.1597 C   0  0  0  0  0  0  0  0  0  0  0  0
   14.0189  -16.3861   19.6170 O   0  0  0  0  0  0  0  0  0  0  0  0
   12.9461  -15.7084   21.4980 N   0  0  0  0  0  0  0  0  0  0  0  0
   13.7693  -16.5662   22.4036 C   0  0  1  0  0  0  0  0  0  0  0  0
   15.1138  -15.9412   22.3777 C   0  0  0  0  0  0  0  0  0  0  0  0
   16.1771  -16.4323   23.2675 C   0  0  0  0  0  0  0  0  0  0  0  0
   17.4866  -15.8001   23.1934 C   0  0  0  0  0  0  0  0  0  0  0  0
   18.2273  -16.0022   22.1858 O   0  0  0  0  0  0  0  0  0  0  0  0
   13.0511  -16.5992   23.6720 C   0  0  0  0  0  0  0  0  0  0  0  0
   12.2559  -15.6987   23.9870 O   0  0  0  0  0  0  0  0  0  0  0  0
   17.9285  -14.9631   24.2387 O   0  0  0  0  0  0  0  0  0  0  0  0
   13.2245  -17.6332   24.5770 O   0  0  0  0  0  0  0  0  0  0  0  0
  2  1  1  0
  2 12  2  0
  3  2  1  0
  4  3  2  0
  4  5  1  0
  5 11  2  0
  6  5  1  0
  7  8  1  1
  7  6  1  0
  9  7  1  0
  9 10  2  0
 11 12  1  0
 13 14  1  0
 15 14  1  6
 15 16  1  0
 15 17  1  0
 16  9  1  0
 17 19  1  0
 18 17  2  0
 19 20  1  0
 20 25  1  0
 20 21  1  1
 22 21  1  0
 23 22  1  0
 23 24  2  0
 25 26  2  0
 25 28  1  0
 27 23  1  0
M  END
$$$$
