YSE.pdb
     RDKit          3D

 28 28  0  0  1  0  0  0  0  0999 V2000
    8.1450  -11.3850   17.7848 O   0  0  0  0  0  0  0  0  0  0  0  0
    8.1682  -12.3620   18.7621 C   0  0  0  0  0  0  0  0  0  0  0  0
    7.4762  -13.5236   18.5593 C   0  0  0  0  0  0  0  0  0  0  0  0
    7.4962  -14.5144   19.5448 C   0  0  0  0  0  0  0  0  0  0  0  0
    8.2120  -14.3045   20.7028 C   0  0  0  0  0  0  0  0  0  0  0  0
    8.2780  -15.3209   21.7837 C   0  0  0  0  0  0  0  0  0  0  0  0
    9.6653  -15.9306   21.7726 C   0  0  2  0  0  0  0  0  0  0  0  0
   10.1334  -16.2734   20.4678 N   0  0  0  0  0  0  0  0  0  0  0  0
    9.6705  -17.1127   22.6446 C   0  0  0  0  0  0  0  0  0  0  0  0
    9.2159  -16.9657   23.8180 O   0  0  0  0  0  0  0  0  0  0  0  0
    8.9055  -13.1151   20.8810 C   0  0  0  0  0  0  0  0  0  0  0  0
    8.8857  -12.1490   19.9193 C   0  0  0  0  0  0  0  0  0  0  0  0
   11.6905  -20.6750   21.7583 O   0  0  0  0  0  0  0  0  0  0  0  0
   10.5773  -20.7466   22.5578 C   0  0  0  0  0  0  0  0  0  0  0  0
   10.2954  -19.4089   23.1914 C   0  0  2  0  0  0  0  0  0  0  0  0
   10.1562  -18.3503   22.2083 N   0  0  0  0  0  0  0  0  0  0  0  0
   11.4052  -19.0076   24.1147 C   0  0  0  0  0  0  0  0  0  0  0  0
   11.5648  -17.7827   24.3990 O   0  0  0  0  0  0  0  0  0  0  0  0
   12.2974  -19.9086   24.7025 N   0  0  0  0  0  0  0  0  0  0  0  0
   13.1564  -19.5269   25.8644 C   0  0  1  0  0  0  0  0  0  0  0  0
   12.1909  -19.1751   26.9336 C   0  0  0  0  0  0  0  0  0  0  0  0
   12.6454  -19.0310   28.3250 C   0  0  0  0  0  0  0  0  0  0  0  0
   11.6772  -18.6102   29.3278 C   0  0  0  0  0  0  0  0  0  0  0  0
   10.4729  -18.4044   28.9931 O   0  0  0  0  0  0  0  0  0  0  0  0
   14.0433  -20.6626   26.0860 C   0  0  0  0  0  0  0  0  0  0  0  0
   15.2312  -20.5003   26.4101 O   0  0  0  0  0  0  0  0  0  0  0  0
   12.0778  -18.4347   30.6684 O   0  0  0  0  0  0  0  0  0  0  0  0
   13.6002  -21.9672   25.9450 O   0  0  0  0  0  0  0  0  0  0  0  0
  2  1  1  0
  2 12  2  0
  3  2  1  0
  4  3  2  0
  4  5  1  0
  5 11  2  0
  6  5  1  0
  7  8  1  6
  7  6  1  0
  9  7  1  0
  9 10  2  0
 11 12  1  0
 13 14  1  0
 15 14  1  6
 15 16  1  0
 15 17  1  0
 16  9  1  0
 17 19  1  0
 18 17  2  0
 19 20  1  0
 20 25  1  0
 20 21  1  1
 22 21  1  0
 23 22  1  0
 23 24  2  0
 25 26  2  0
 25 28  1  0
 27 23  1  0
M  END
$$$$
