YSE.pdb
     RDKit          3D

 28 28  0  0  1  0  0  0  0  0999 V2000
    5.5705  -10.5687   28.0490 O   0  0  0  0  0  0  0  0  0  0  0  0
    6.2321  -11.5116   27.2852 C   0  0  0  0  0  0  0  0  0  0  0  0
    5.8019  -11.7576   26.0109 C   0  0  0  0  0  0  0  0  0  0  0  0
    6.4674  -12.7104   25.2346 C   0  0  0  0  0  0  0  0  0  0  0  0
    7.5444  -13.3853   25.7657 C   0  0  0  0  0  0  0  0  0  0  0  0
    8.2969  -14.4037   24.9896 C   0  0  0  0  0  0  0  0  0  0  0  0
    7.3212  -15.4769   24.5507 C   0  0  2  0  0  0  0  0  0  0  0  0
    6.7746  -16.2349   25.6303 N   0  0  0  0  0  0  0  0  0  0  0  0
    7.9923  -16.3639   23.5912 C   0  0  0  0  0  0  0  0  0  0  0  0
    8.2255  -17.5507   23.9686 O   0  0  0  0  0  0  0  0  0  0  0  0
    7.9590  -13.1144   27.0627 C   0  0  0  0  0  0  0  0  0  0  0  0
    7.3096  -12.1848   27.8193 C   0  0  0  0  0  0  0  0  0  0  0  0
    9.7360  -15.2895   19.8403 O   0  0  0  0  0  0  0  0  0  0  0  0
    8.9866  -16.4292   19.9913 C   0  0  0  0  0  0  0  0  0  0  0  0
    8.9991  -16.8829   21.4281 C   0  0  2  0  0  0  0  0  0  0  0  0
    8.3635  -15.9260   22.3151 N   0  0  0  0  0  0  0  0  0  0  0  0
   10.4022  -17.0720   21.9191 C   0  0  0  0  0  0  0  0  0  0  0  0
   10.9689  -16.1347   22.5571 O   0  0  0  0  0  0  0  0  0  0  0  0
   11.1487  -18.2370   21.7226 N   0  0  0  0  0  0  0  0  0  0  0  0
   12.5258  -18.3976   22.2808 C   0  0  1  0  0  0  0  0  0  0  0  0
   12.7368  -19.8649   22.3181 C   0  0  0  0  0  0  0  0  0  0  0  0
   12.8158  -20.6348   21.0673 C   0  0  0  0  0  0  0  0  0  0  0  0
   13.2212  -22.0313   21.1402 C   0  0  0  0  0  0  0  0  0  0  0  0
   13.5662  -22.5297   22.2526 O   0  0  0  0  0  0  0  0  0  0  0  0
   13.3925  -17.6003   21.4214 C   0  0  0  0  0  0  0  0  0  0  0  0
   14.5121  -17.2236   21.8050 O   0  0  0  0  0  0  0  0  0  0  0  0
   13.2275  -22.8280   19.9766 O   0  0  0  0  0  0  0  0  0  0  0  0
   13.0056  -17.2302   20.1441 O   0  0  0  0  0  0  0  0  0  0  0  0
  2  1  1  0
  2 12  2  0
  3  2  1  0
  4  3  2  0
  4  5  1  0
  5 11  2  0
  6  5  1  0
  7  8  1  1
  7  6  1  0
  9  7  1  0
  9 10  2  0
 11 12  1  0
 13 14  1  0
 15 14  1  6
 15 16  1  0
 15 17  1  0
 16  9  1  0
 17 19  1  0
 18 17  2  0
 19 20  1  0
 20 25  1  0
 20 21  1  6
 22 21  1  0
 23 22  1  0
 23 24  2  0
 25 26  2  0
 25 28  1  0
 27 23  1  0
M  END
$$$$
