YSE.pdb
     RDKit          3D

 28 28  0  0  1  0  0  0  0  0999 V2000
    7.4515  -14.0864   13.9687 O   0  0  0  0  0  0  0  0  0  0  0  0
    7.8834  -14.3629   15.2521 C   0  0  0  0  0  0  0  0  0  0  0  0
    7.6425  -13.4555   16.2460 C   0  0  0  0  0  0  0  0  0  0  0  0
    8.0776  -13.7304   17.5454 C   0  0  0  0  0  0  0  0  0  0  0  0
    8.7413  -14.9096   17.8030 C   0  0  0  0  0  0  0  0  0  0  0  0
    9.2222  -15.2625   19.1630 C   0  0  0  0  0  0  0  0  0  0  0  0
    9.8352  -14.0226   19.7822 C   0  0  2  0  0  0  0  0  0  0  0  0
   11.1484  -13.7293   19.3043 N   0  0  0  0  0  0  0  0  0  0  0  0
    9.8453  -14.1776   21.2429 C   0  0  0  0  0  0  0  0  0  0  0  0
   10.9725  -14.3406   21.7978 O   0  0  0  0  0  0  0  0  0  0  0  0
    8.9714  -15.8125   16.7738 C   0  0  0  0  0  0  0  0  0  0  0  0
    8.5467  -15.5439   15.5065 C   0  0  0  0  0  0  0  0  0  0  0  0
    7.5636  -14.4381   25.4616 O   0  0  0  0  0  0  0  0  0  0  0  0
    7.5083  -14.0069   24.1598 C   0  0  0  0  0  0  0  0  0  0  0  0
    8.7705  -14.3794   23.4261 C   0  0  2  0  0  0  0  0  0  0  0  0
    8.6666  -14.1500   21.9967 N   0  0  0  0  0  0  0  0  0  0  0  0
    9.0934  -15.8303   23.6157 C   0  0  0  0  0  0  0  0  0  0  0  0
    8.4187  -16.7036   22.9921 O   0  0  0  0  0  0  0  0  0  0  0  0
   10.1118  -16.3021   24.4483 N   0  0  0  0  0  0  0  0  0  0  0  0
   10.2697  -17.7554   24.7593 C   0  0  1  0  0  0  0  0  0  0  0  0
   11.3027  -18.2241   23.8043 C   0  0  0  0  0  0  0  0  0  0  0  0
   12.6815  -17.7201   23.8970 C   0  0  0  0  0  0  0  0  0  0  0  0
   13.6633  -18.2148   22.9423 C   0  0  0  0  0  0  0  0  0  0  0  0
   13.6791  -19.4436   22.6348 O   0  0  0  0  0  0  0  0  0  0  0  0
   10.5710  -17.8207   26.1843 C   0  0  0  0  0  0  0  0  0  0  0  0
   10.7842  -18.9058   26.7497 O   0  0  0  0  0  0  0  0  0  0  0  0
   14.5925  -17.3285   22.3595 O   0  0  0  0  0  0  0  0  0  0  0  0
   10.6322  -16.6790   26.9658 O   0  0  0  0  0  0  0  0  0  0  0  0
  2  1  1  0
  2 12  2  0
  3  2  1  0
  4  3  2  0
  4  5  1  0
  5 11  2  0
  6  5  1  0
  7  8  1  6
  7  6  1  0
  9  7  1  0
  9 10  2  0
 11 12  1  0
 13 14  1  0
 15 14  1  1
 15 16  1  0
 15 17  1  0
 16  9  1  0
 17 19  1  0
 18 17  2  0
 19 20  1  0
 20 25  1  0
 20 21  1  6
 22 21  1  0
 23 22  1  0
 23 24  2  0
 25 26  2  0
 25 28  1  0
 27 23  1  0
M  END
$$$$
