YSE.pdb
     RDKit          3D

 28 28  0  0  1  0  0  0  0  0999 V2000
    8.5078  -12.4729   17.5108 O   0  0  0  0  0  0  0  0  0  0  0  0
    8.5034  -13.0054   18.7862 C   0  0  0  0  0  0  0  0  0  0  0  0
    7.3155  -13.1311   19.4514 C   0  0  0  0  0  0  0  0  0  0  0  0
    7.3059  -13.6686   20.7415 C   0  0  0  0  0  0  0  0  0  0  0  0
    8.4920  -14.0622   21.3209 C   0  0  0  0  0  0  0  0  0  0  0  0
    8.5470  -14.6464   22.6851 C   0  0  0  0  0  0  0  0  0  0  0  0
    8.0891  -16.0884   22.5987 C   0  0  2  0  0  0  0  0  0  0  0  0
    6.7255  -16.2832   22.9751 N   0  0  0  0  0  0  0  0  0  0  0  0
    8.9725  -16.9169   23.4299 C   0  0  0  0  0  0  0  0  0  0  0  0
    8.6903  -17.0043   24.6619 O   0  0  0  0  0  0  0  0  0  0  0  0
    9.6830  -13.9227   20.6212 C   0  0  0  0  0  0  0  0  0  0  0  0
    9.6918  -13.3986   19.3628 C   0  0  0  0  0  0  0  0  0  0  0  0
   11.0421  -20.6487   24.6346 O   0  0  0  0  0  0  0  0  0  0  0  0
   10.2835  -19.8533   23.8127 C   0  0  0  0  0  0  0  0  0  0  0  0
   10.8391  -18.4532   23.7733 C   0  0  2  0  0  0  0  0  0  0  0  0
   10.0806  -17.5825   22.8940 N   0  0  0  0  0  0  0  0  0  0  0  0
   12.2540  -18.4508   23.2800 C   0  0  0  0  0  0  0  0  0  0  0  0
   12.5103  -17.9838   22.1297 O   0  0  0  0  0  0  0  0  0  0  0  0
   13.3392  -18.9350   24.0155 N   0  0  0  0  0  0  0  0  0  0  0  0
   14.7401  -18.8610   23.5004 C   0  0  1  0  0  0  0  0  0  0  0  0
   14.9814  -17.4113   23.3027 C   0  0  0  0  0  0  0  0  0  0  0  0
   16.3435  -16.9128   23.0584 C   0  0  0  0  0  0  0  0  0  0  0  0
   16.5358  -15.4783   22.8994 C   0  0  0  0  0  0  0  0  0  0  0  0
   16.7185  -14.7504   23.9199 O   0  0  0  0  0  0  0  0  0  0  0  0
   15.5563  -19.5659   24.4815 C   0  0  0  0  0  0  0  0  0  0  0  0
   15.1829  -19.6942   25.6590 O   0  0  0  0  0  0  0  0  0  0  0  0
   16.5214  -14.9008   21.6129 O   0  0  0  0  0  0  0  0  0  0  0  0
   16.7792  -20.1211   24.1432 O   0  0  0  0  0  0  0  0  0  0  0  0
  2  1  1  0
  2 12  2  0
  3  2  1  0
  4  3  2  0
  4  5  1  0
  5 11  2  0
  6  5  1  0
  7  8  1  1
  7  6  1  0
  9  7  1  0
  9 10  2  0
 11 12  1  0
 13 14  1  0
 15 14  1  6
 15 16  1  0
 15 17  1  0
 16  9  1  0
 17 19  1  0
 18 17  2  0
 19 20  1  0
 20 25  1  0
 20 21  1  1
 22 21  1  0
 23 22  1  0
 23 24  2  0
 25 26  2  0
 25 28  1  0
 27 23  1  0
M  END
$$$$
