YSE.pdb
     RDKit          3D

 28 28  0  0  1  0  0  0  0  0999 V2000
    5.3498  -10.2524   27.5850 O   0  0  0  0  0  0  0  0  0  0  0  0
    5.9912  -11.3477   27.0383 C   0  0  0  0  0  0  0  0  0  0  0  0
    5.8666  -11.5927   25.6989 C   0  0  0  0  0  0  0  0  0  0  0  0
    6.5130  -12.6993   25.1414 C   0  0  0  0  0  0  0  0  0  0  0  0
    7.2640  -13.5241   25.9496 C   0  0  0  0  0  0  0  0  0  0  0  0
    7.9801  -14.7109   25.4164 C   0  0  0  0  0  0  0  0  0  0  0  0
    6.9504  -15.6647   24.8451 C   0  0  2  0  0  0  0  0  0  0  0  0
    6.6585  -16.7740   25.6955 N   0  0  0  0  0  0  0  0  0  0  0  0
    7.4156  -16.1345   23.5334 C   0  0  0  0  0  0  0  0  0  0  0  0
    7.8909  -17.3075   23.4762 O   0  0  0  0  0  0  0  0  0  0  0  0
    7.3728  -13.2503   27.3064 C   0  0  0  0  0  0  0  0  0  0  0  0
    6.7422  -12.1706   27.8496 C   0  0  0  0  0  0  0  0  0  0  0  0
    8.0454  -15.5321   18.8116 O   0  0  0  0  0  0  0  0  0  0  0  0
    7.4941  -15.0177   19.9583 C   0  0  0  0  0  0  0  0  0  0  0  0
    7.8615  -15.8667   21.1477 C   0  0  2  0  0  0  0  0  0  0  0  0
    7.3432  -15.3284   22.3919 N   0  0  0  0  0  0  0  0  0  0  0  0
    9.3491  -15.9653   21.2978 C   0  0  0  0  0  0  0  0  0  0  0  0
    9.9540  -15.1414   22.0475 O   0  0  0  0  0  0  0  0  0  0  0  0
   10.1374  -16.9257   20.6580 N   0  0  0  0  0  0  0  0  0  0  0  0
   11.6217  -16.9708   20.8265 C   0  0  1  0  0  0  0  0  0  0  0  0
   11.8182  -17.2359   22.2722 C   0  0  0  0  0  0  0  0  0  0  0  0
   11.4355  -18.5348   22.8465 C   0  0  0  0  0  0  0  0  0  0  0  0
   11.7685  -18.7993   24.2391 C   0  0  0  0  0  0  0  0  0  0  0  0
   10.8478  -18.8538   25.1074 O   0  0  0  0  0  0  0  0  0  0  0  0
   12.0942  -17.9687   19.8744 C   0  0  0  0  0  0  0  0  0  0  0  0
   11.2997  -18.6477   19.2034 O   0  0  0  0  0  0  0  0  0  0  0  0
   13.1118  -18.9968   24.6202 O   0  0  0  0  0  0  0  0  0  0  0  0
   13.4453  -18.2014   19.6781 O   0  0  0  0  0  0  0  0  0  0  0  0
  2  1  1  0
  2 12  2  0
  3  2  1  0
  4  3  2  0
  4  5  1  0
  5 11  2  0
  6  5  1  0
  7  8  1  1
  7  6  1  0
  9  7  1  0
  9 10  2  0
 11 12  1  0
 13 14  1  0
 15 14  1  6
 15 16  1  0
 15 17  1  0
 16  9  1  0
 17 19  1  0
 18 17  2  0
 19 20  1  0
 20 25  1  0
 20 21  1  1
 22 21  1  0
 23 22  1  0
 23 24  2  0
 25 26  2  0
 25 28  1  0
 27 23  1  0
M  END
$$$$
