YSE.pdb
     RDKit          3D

 28 28  0  0  1  0  0  0  0  0999 V2000
    5.5726  -10.6486   27.6178 O   0  0  0  0  0  0  0  0  0  0  0  0
    6.2652  -11.7577   27.1701 C   0  0  0  0  0  0  0  0  0  0  0  0
    7.6297  -11.7074   27.1002 C   0  0  0  0  0  0  0  0  0  0  0  0
    8.3346  -12.8262   26.6478 C   0  0  0  0  0  0  0  0  0  0  0  0
    7.6437  -13.9597   26.2800 C   0  0  0  0  0  0  0  0  0  0  0  0
    8.3352  -15.1825   25.7980 C   0  0  0  0  0  0  0  0  0  0  0  0
    7.3813  -15.9376   24.8944 C   0  0  2  0  0  0  0  0  0  0  0  0
    6.5494  -16.8699   25.5857 N   0  0  0  0  0  0  0  0  0  0  0  0
    8.1574  -16.6206   23.8509 C   0  0  0  0  0  0  0  0  0  0  0  0
    8.4967  -17.8202   24.0766 O   0  0  0  0  0  0  0  0  0  0  0  0
    6.2580  -13.9819   26.3619 C   0  0  0  0  0  0  0  0  0  0  0  0
    5.5710  -12.8903   26.8034 C   0  0  0  0  0  0  0  0  0  0  0  0
    8.6039  -14.9371   20.3427 O   0  0  0  0  0  0  0  0  0  0  0  0
    9.3543  -16.0862   20.3505 C   0  0  0  0  0  0  0  0  0  0  0  0
    9.3495  -16.7106   21.7218 C   0  0  2  0  0  0  0  0  0  0  0  0
    8.5130  -15.9820   22.6576 N   0  0  0  0  0  0  0  0  0  0  0  0
   10.7309  -16.7437   22.3015 C   0  0  0  0  0  0  0  0  0  0  0  0
   11.1382  -15.7627   22.9932 O   0  0  0  0  0  0  0  0  0  0  0  0
   11.6239  -17.8055   22.1334 N   0  0  0  0  0  0  0  0  0  0  0  0
   13.0274  -17.7470   22.6436 C   0  0  1  0  0  0  0  0  0  0  0  0
   13.1787  -18.9873   23.4422 C   0  0  0  0  0  0  0  0  0  0  0  0
   12.4877  -19.1268   24.7332 C   0  0  0  0  0  0  0  0  0  0  0  0
   12.6679  -20.3619   25.4830 C   0  0  0  0  0  0  0  0  0  0  0  0
   13.4000  -21.2828   25.0133 O   0  0  0  0  0  0  0  0  0  0  0  0
   13.8671  -17.5833   21.4630 C   0  0  0  0  0  0  0  0  0  0  0  0
   13.4094  -17.7382   20.3189 O   0  0  0  0  0  0  0  0  0  0  0  0
   12.0315  -20.5319   26.7299 O   0  0  0  0  0  0  0  0  0  0  0  0
   15.2071  -17.2488   21.5667 O   0  0  0  0  0  0  0  0  0  0  0  0
  2  1  1  0
  2 12  2  0
  3  2  1  0
  4  3  2  0
  4  5  1  0
  5 11  2  0
  6  5  1  0
  7  8  1  1
  7  6  1  0
  9  7  1  0
  9 10  2  0
 11 12  1  0
 13 14  1  0
 15 14  1  6
 15 16  1  0
 15 17  1  0
 16  9  1  0
 17 19  1  0
 18 17  2  0
 19 20  1  0
 20 25  1  0
 20 21  1  6
 22 21  1  0
 23 22  1  0
 23 24  2  0
 25 26  2  0
 25 28  1  0
 27 23  1  0
M  END
$$$$
