YSE.pdb
     RDKit          3D

 28 28  0  0  1  0  0  0  0  0999 V2000
    5.4100  -10.3375   26.9149 O   0  0  0  0  0  0  0  0  0  0  0  0
    6.1212  -11.4694   26.5642 C   0  0  0  0  0  0  0  0  0  0  0  0
    6.2961  -12.4597   27.4905 C   0  0  0  0  0  0  0  0  0  0  0  0
    7.0150  -13.6062   27.1408 C   0  0  0  0  0  0  0  0  0  0  0  0
    7.5349  -13.7192   25.8703 C   0  0  0  0  0  0  0  0  0  0  0  0
    8.3016  -14.9147   25.4359 C   0  0  0  0  0  0  0  0  0  0  0  0
    7.4103  -15.7432   24.5329 C   0  0  2  0  0  0  0  0  0  0  0  0
    6.3819  -16.4486   25.2284 N   0  0  0  0  0  0  0  0  0  0  0  0
    8.2471  -16.6795   23.7706 C   0  0  0  0  0  0  0  0  0  0  0  0
    8.1977  -17.9006   24.1049 O   0  0  0  0  0  0  0  0  0  0  0  0
    7.3411  -12.6975   24.9505 C   0  0  0  0  0  0  0  0  0  0  0  0
    6.6397  -11.5796   25.2920 C   0  0  0  0  0  0  0  0  0  0  0  0
   10.6215  -15.5990   20.5240 O   0  0  0  0  0  0  0  0  0  0  0  0
   10.2215  -16.9057   20.6522 C   0  0  0  0  0  0  0  0  0  0  0  0
    9.9357  -17.2311   22.0954 C   0  0  2  0  0  0  0  0  0  0  0  0
    9.0675  -16.2508   22.7212 N   0  0  0  0  0  0  0  0  0  0  0  0
   11.2009  -17.2726   22.8971 C   0  0  0  0  0  0  0  0  0  0  0  0
   11.5922  -16.2257   23.4952 O   0  0  0  0  0  0  0  0  0  0  0  0
   11.9991  -18.4109   23.0397 N   0  0  0  0  0  0  0  0  0  0  0  0
   13.0761  -18.4976   24.0722 C   0  0  1  0  0  0  0  0  0  0  0  0
   12.4738  -19.3017   25.1629 C   0  0  0  0  0  0  0  0  0  0  0  0
   12.3134  -18.7259   26.5069 C   0  0  0  0  0  0  0  0  0  0  0  0
   11.7523  -19.5658   27.5556 C   0  0  0  0  0  0  0  0  0  0  0  0
   12.4373  -19.8246   28.5893 O   0  0  0  0  0  0  0  0  0  0  0  0
   14.2394  -19.0399   23.3806 C   0  0  0  0  0  0  0  0  0  0  0  0
   14.1153  -19.8381   22.4372 O   0  0  0  0  0  0  0  0  0  0  0  0
   10.4490  -20.0878   27.4227 O   0  0  0  0  0  0  0  0  0  0  0  0
   15.5287  -18.6891   23.7450 O   0  0  0  0  0  0  0  0  0  0  0  0
  2  1  1  0
  2 12  2  0
  3  2  1  0
  4  3  2  0
  4  5  1  0
  5 11  2  0
  6  5  1  0
  7  8  1  1
  7  6  1  0
  9  7  1  0
  9 10  2  0
 11 12  1  0
 13 14  1  0
 15 14  1  6
 15 16  1  0
 15 17  1  0
 16  9  1  0
 17 19  1  0
 18 17  2  0
 19 20  1  0
 20 25  1  0
 20 21  1  1
 22 21  1  0
 23 22  1  0
 23 24  2  0
 25 26  2  0
 25 28  1  0
 27 23  1  0
M  END
$$$$
