YSE.pdb
     RDKit          3D

 28 28  0  0  1  0  0  0  0  0999 V2000
    7.1279  -13.8147   15.1737 O   0  0  0  0  0  0  0  0  0  0  0  0
    7.4154  -14.1684   16.4785 C   0  0  0  0  0  0  0  0  0  0  0  0
    8.6715  -14.6112   16.7872 C   0  0  0  0  0  0  0  0  0  0  0  0
    8.9671  -14.9705   18.1051 C   0  0  0  0  0  0  0  0  0  0  0  0
    7.9890  -14.8726   19.0701 C   0  0  0  0  0  0  0  0  0  0  0  0
    8.2425  -15.2324   20.4885 C   0  0  0  0  0  0  0  0  0  0  0  0
    9.0171  -14.0992   21.1306 C   0  0  2  0  0  0  0  0  0  0  0  0
   10.2642  -13.8203   20.4934 N   0  0  0  0  0  0  0  0  0  0  0  0
    9.2271  -14.4131   22.5501 C   0  0  0  0  0  0  0  0  0  0  0  0
   10.4101  -14.6874   22.9113 O   0  0  0  0  0  0  0  0  0  0  0  0
    6.7224  -14.4193   18.7273 C   0  0  0  0  0  0  0  0  0  0  0  0
    6.4347  -14.0689   17.4416 C   0  0  0  0  0  0  0  0  0  0  0  0
    6.3144  -13.8981   25.5424 O   0  0  0  0  0  0  0  0  0  0  0  0
    7.6432  -13.6122   25.7326 C   0  0  0  0  0  0  0  0  0  0  0  0
    8.5034  -14.5087   24.8803 C   0  0  2  0  0  0  0  0  0  0  0  0
    8.1728  -14.4138   23.4703 N   0  0  0  0  0  0  0  0  0  0  0  0
    8.3377  -15.9448   25.2745 C   0  0  0  0  0  0  0  0  0  0  0  0
    7.5893  -16.6971   24.5812 O   0  0  0  0  0  0  0  0  0  0  0  0
    8.9667  -16.5305   26.3765 N   0  0  0  0  0  0  0  0  0  0  0  0
    9.3012  -17.9866   26.4149 C   0  0  1  0  0  0  0  0  0  0  0  0
   10.2373  -18.1771   25.2806 C   0  0  0  0  0  0  0  0  0  0  0  0
   11.6698  -17.8861   25.4445 C   0  0  0  0  0  0  0  0  0  0  0  0
   12.6284  -18.7022   24.7131 C   0  0  0  0  0  0  0  0  0  0  0  0
   12.2171  -19.6333   23.9590 O   0  0  0  0  0  0  0  0  0  0  0  0
    9.7947  -18.2400   27.7631 C   0  0  0  0  0  0  0  0  0  0  0  0
   10.1030  -17.3076   28.5234 O   0  0  0  0  0  0  0  0  0  0  0  0
   14.0110  -18.4556   24.8414 O   0  0  0  0  0  0  0  0  0  0  0  0
    9.9402  -19.5276   28.2522 O   0  0  0  0  0  0  0  0  0  0  0  0
  2  1  1  0
  2 12  2  0
  3  2  1  0
  4  3  2  0
  4  5  1  0
  5 11  2  0
  6  5  1  0
  7  8  1  6
  7  6  1  0
  9  7  1  0
  9 10  2  0
 11 12  1  0
 13 14  1  0
 15 14  1  1
 15 16  1  0
 15 17  1  0
 16  9  1  0
 17 19  1  0
 18 17  2  0
 19 20  1  0
 20 25  1  0
 20 21  1  6
 22 21  1  0
 23 22  1  0
 23 24  2  0
 25 26  2  0
 25 28  1  0
 27 23  1  0
M  END
$$$$
