IPF.pdb
     RDKit          3D

 27 28  0  0  1  0  0  0  0  0999 V2000
    7.1996  -12.4951   28.0531 C   0  0  0  0  0  0  0  0  0  0  0  0
    6.3803  -13.2506   27.0494 C   0  0  0  0  0  0  0  0  0  0  0  0
    7.2025  -14.0292   26.0707 C   0  0  2  0  0  0  0  0  0  0  0  0
    8.2749  -13.1868   25.4166 C   0  0  0  0  0  0  0  0  0  0  0  0
    6.3653  -14.7875   25.0564 C   0  0  2  0  0  0  0  0  0  0  0  0
    5.3739  -15.5234   25.7823 N   0  0  0  0  0  0  0  0  0  0  0  0
    7.2686  -15.7226   24.3596 C   0  0  0  0  0  0  0  0  0  0  0  0
    7.0621  -16.9606   24.6589 O   0  0  0  0  0  0  0  0  0  0  0  0
    8.2884  -15.4153   23.4430 N   0  0  0  0  0  0  0  0  0  0  0  0
    8.6300  -14.1365   22.9260 C   0  0  0  0  0  0  0  0  0  0  0  0
    9.3741  -14.4369   21.6303 C   0  0  0  0  0  0  0  0  0  0  0  0
    9.2304  -15.9331   21.4267 C   0  0  0  0  0  0  0  0  0  0  0  0
    9.1958  -16.3812   22.8783 C   0  0  1  0  0  0  0  0  0  0  0  0
   10.5760  -16.2240   23.4186 C   0  0  0  0  0  0  0  0  0  0  0  0
   11.5513  -15.8455   22.7208 O   0  0  0  0  0  0  0  0  0  0  0  0
   10.8218  -16.5086   24.7764 N   0  0  0  0  0  0  0  0  0  0  0  0
   12.1681  -16.8073   25.2268 C   0  0  1  0  0  0  0  0  0  0  0  0
   12.3004  -16.4958   26.7170 C   0  0  0  0  0  0  0  0  0  0  0  0
   11.3864  -15.4048   27.1362 C   0  0  0  0  0  0  0  0  0  0  0  0
   10.6319  -15.5215   28.3015 C   0  0  0  0  0  0  0  0  0  0  0  0
    9.7659  -14.5386   28.7317 C   0  0  0  0  0  0  0  0  0  0  0  0
    9.6210  -13.3807   27.9966 C   0  0  0  0  0  0  0  0  0  0  0  0
   10.3445  -13.2283   26.8462 C   0  0  0  0  0  0  0  0  0  0  0  0
   11.2145  -14.2362   26.4305 C   0  0  0  0  0  0  0  0  0  0  0  0
   12.3865  -18.2608   25.0592 C   0  0  0  0  0  0  0  0  0  0  0  0
   11.4550  -19.0137   24.6817 O   0  0  0  0  0  0  0  0  0  0  0  0
   13.6069  -18.8757   25.3013 O   0  0  0  0  0  0  0  0  0  0  0  0
  2  3  1  0
  2  1  1  0
  3  5  1  0
  3  4  1  6
  5  6  1  1
  7  8  2  0
  7  5  1  0
  9  7  1  0
 10  9  1  0
 11 10  1  0
 12 11  1  0
 12 13  1  0
 13  9  1  0
 13 14  1  1
 14 15  2  0
 16 14  1  0
 17 16  1  0
 17 18  1  1
 19 18  1  0
 19 20  2  0
 21 20  1  0
 22 21  2  0
 23 24  2  0
 23 22  1  0
 24 19  1  0
 25 17  1  0
 26 25  2  0
 27 25  1  0
M  END
$$$$
