IPF.pdb
     RDKit          3D

 27 28  0  0  1  0  0  0  0  0999 V2000
    7.7229  -11.9361   21.3134 C   0  0  0  0  0  0  0  0  0  0  0  0
    7.1749  -13.3321   21.3219 C   0  0  0  0  0  0  0  0  0  0  0  0
    7.9001  -14.2648   20.4031 C   0  0  2  0  0  0  0  0  0  0  0  0
    7.9019  -13.7805   18.9703 C   0  0  0  0  0  0  0  0  0  0  0  0
    7.4360  -15.7051   20.5250 C   0  0  2  0  0  0  0  0  0  0  0  0
    6.0406  -15.7352   20.2040 N   0  0  0  0  0  0  0  0  0  0  0  0
    7.6325  -16.1073   21.9307 C   0  0  0  0  0  0  0  0  0  0  0  0
    6.6268  -15.8347   22.6917 O   0  0  0  0  0  0  0  0  0  0  0  0
    8.7559  -16.7297   22.5009 N   0  0  0  0  0  0  0  0  0  0  0  0
    9.9769  -17.0678   21.8575 C   0  0  0  0  0  0  0  0  0  0  0  0
   10.5773  -18.1618   22.7324 C   0  0  0  0  0  0  0  0  0  0  0  0
    9.5046  -18.4873   23.7543 C   0  0  0  0  0  0  0  0  0  0  0  0
    8.8587  -17.1180   23.8844 C   0  0  1  0  0  0  0  0  0  0  0  0
    9.8143  -16.2518   24.6315 C   0  0  0  0  0  0  0  0  0  0  0  0
   10.9147  -15.8696   24.1577 O   0  0  0  0  0  0  0  0  0  0  0  0
    9.4877  -15.8290   25.9351 N   0  0  0  0  0  0  0  0  0  0  0  0
   10.4862  -15.1782   26.7624 C   0  0  1  0  0  0  0  0  0  0  0  0
   10.2460  -13.6691   26.7793 C   0  0  0  0  0  0  0  0  0  0  0  0
    8.8341  -13.3314   26.4730 C   0  0  0  0  0  0  0  0  0  0  0  0
    7.8898  -13.2424   27.4934 C   0  0  0  0  0  0  0  0  0  0  0  0
    6.5657  -12.9361   27.2606 C   0  0  0  0  0  0  0  0  0  0  0  0
    6.1305  -12.7032   25.9728 C   0  0  0  0  0  0  0  0  0  0  0  0
    7.0273  -12.7812   24.9433 C   0  0  0  0  0  0  0  0  0  0  0  0
    8.3619  -13.0927   25.2028 C   0  0  0  0  0  0  0  0  0  0  0  0
   10.3115  -15.6679   28.1473 C   0  0  0  0  0  0  0  0  0  0  0  0
    9.3230  -16.3760   28.4613 O   0  0  0  0  0  0  0  0  0  0  0  0
   11.2077  -15.3852   29.1687 O   0  0  0  0  0  0  0  0  0  0  0  0
  2  3  1  0
  2  1  1  0
  3  5  1  0
  3  4  1  6
  5  6  1  1
  7  8  2  0
  7  5  1  0
  9  7  1  0
 10  9  1  0
 11 10  1  0
 12 11  1  0
 12 13  1  0
 13  9  1  0
 13 14  1  1
 14 15  2  0
 16 14  1  0
 17 16  1  0
 17 18  1  1
 19 18  1  0
 19 20  2  0
 21 20  1  0
 22 21  2  0
 23 24  2  0
 23 22  1  0
 24 19  1  0
 25 17  1  0
 26 25  2  0
 27 25  1  0
M  END
$$$$
