IPF.pdb
     RDKit          3D

 27 28  0  0  1  0  0  0  0  0999 V2000
    7.3402  -12.7314   28.0439 C   0  0  0  0  0  0  0  0  0  0  0  0
    6.4834  -13.4581   27.0503 C   0  0  0  0  0  0  0  0  0  0  0  0
    7.2679  -14.2139   26.0240 C   0  0  2  0  0  0  0  0  0  0  0  0
    8.3390  -13.3663   25.3747 C   0  0  0  0  0  0  0  0  0  0  0  0
    6.3932  -14.9202   25.0038 C   0  0  2  0  0  0  0  0  0  0  0  0
    5.4170  -15.6787   25.7269 N   0  0  0  0  0  0  0  0  0  0  0  0
    7.2660  -15.8316   24.2399 C   0  0  0  0  0  0  0  0  0  0  0  0
    6.9666  -17.0780   24.3866 O   0  0  0  0  0  0  0  0  0  0  0  0
    8.3450  -15.4947   23.4050 N   0  0  0  0  0  0  0  0  0  0  0  0
    8.8110  -14.1931   23.0768 C   0  0  0  0  0  0  0  0  0  0  0  0
    9.5819  -14.3823   21.7757 C   0  0  0  0  0  0  0  0  0  0  0  0
    9.3255  -15.8203   21.3670 C   0  0  0  0  0  0  0  0  0  0  0  0
    9.1936  -16.4521   22.7427 C   0  0  1  0  0  0  0  0  0  0  0  0
   10.5581  -16.4876   23.3413 C   0  0  0  0  0  0  0  0  0  0  0  0
   11.5680  -15.9827   22.7876 O   0  0  0  0  0  0  0  0  0  0  0  0
   10.7478  -17.1133   24.5893 N   0  0  0  0  0  0  0  0  0  0  0  0
   12.0188  -16.9950   25.2788 C   0  0  1  0  0  0  0  0  0  0  0  0
   12.2471  -15.5458   25.7064 C   0  0  0  0  0  0  0  0  0  0  0  0
   11.1921  -15.0717   26.6357 C   0  0  0  0  0  0  0  0  0  0  0  0
   11.2899  -13.8195   27.2386 C   0  0  0  0  0  0  0  0  0  0  0  0
   10.3391  -13.3353   28.1119 C   0  0  0  0  0  0  0  0  0  0  0  0
    9.2346  -14.1017   28.4194 C   0  0  0  0  0  0  0  0  0  0  0  0
    9.1023  -15.3371   27.8479 C   0  0  0  0  0  0  0  0  0  0  0  0
   10.0769  -15.8063   26.9673 C   0  0  0  0  0  0  0  0  0  0  0  0
   11.9400  -17.8108   26.5104 C   0  0  0  0  0  0  0  0  0  0  0  0
   10.8504  -18.3106   26.8845 O   0  0  0  0  0  0  0  0  0  0  0  0
   13.0393  -18.0731   27.3160 O   0  0  0  0  0  0  0  0  0  0  0  0
  2  3  1  0
  2  1  1  0
  3  5  1  0
  3  4  1  6
  5  6  1  1
  7  8  2  0
  7  5  1  0
  9  7  1  0
 10  9  1  0
 11 10  1  0
 12 11  1  0
 12 13  1  0
 13  9  1  0
 13 14  1  1
 14 15  2  0
 16 14  1  0
 17 16  1  0
 17 18  1  1
 19 18  1  0
 19 20  2  0
 21 20  1  0
 22 21  2  0
 23 24  2  0
 23 22  1  0
 24 19  1  0
 25 17  1  0
 26 25  2  0
 27 25  1  0
M  END
$$$$
