IPF.pdb
     RDKit          3D

 27 28  0  0  1  0  0  0  0  0999 V2000
    6.5113  -11.7390   27.5854 C   0  0  0  0  0  0  0  0  0  0  0  0
    5.8056  -12.7690   26.7546 C   0  0  0  0  0  0  0  0  0  0  0  0
    6.7348  -13.6754   26.0096 C   0  0  2  0  0  0  0  0  0  0  0  0
    7.8243  -12.9177   25.2842 C   0  0  0  0  0  0  0  0  0  0  0  0
    6.0136  -14.6577   25.1041 C   0  0  2  0  0  0  0  0  0  0  0  0
    5.0840  -15.3858   25.9146 N   0  0  0  0  0  0  0  0  0  0  0  0
    7.0315  -15.5788   24.5641 C   0  0  0  0  0  0  0  0  0  0  0  0
    6.9647  -16.7694   25.0569 O   0  0  0  0  0  0  0  0  0  0  0  0
    8.0248  -15.3029   23.6091 N   0  0  0  0  0  0  0  0  0  0  0  0
    8.3580  -14.0407   23.0478 C   0  0  0  0  0  0  0  0  0  0  0  0
    9.0606  -14.3806   21.7388 C   0  0  0  0  0  0  0  0  0  0  0  0
    8.9021  -15.8807   21.5801 C   0  0  0  0  0  0  0  0  0  0  0  0
    8.9089  -16.2896   23.0436 C   0  0  1  0  0  0  0  0  0  0  0  0
   10.3058  -16.1273   23.5375 C   0  0  0  0  0  0  0  0  0  0  0  0
   11.1002  -15.2618   23.0890 O   0  0  0  0  0  0  0  0  0  0  0  0
   10.7797  -16.9757   24.5575 N   0  0  0  0  0  0  0  0  0  0  0  0
   12.0943  -16.7612   25.1325 C   0  0  1  0  0  0  0  0  0  0  0  0
   12.0099  -16.8061   26.6577 C   0  0  0  0  0  0  0  0  0  0  0  0
   11.0486  -15.8075   27.1870 C   0  0  0  0  0  0  0  0  0  0  0  0
   11.4774  -14.5302   27.5412 C   0  0  0  0  0  0  0  0  0  0  0  0
   10.6251  -13.5686   28.0412 C   0  0  0  0  0  0  0  0  0  0  0  0
    9.2867  -13.8563   28.2079 C   0  0  0  0  0  0  0  0  0  0  0  0
    8.8267  -15.0995   27.8717 C   0  0  0  0  0  0  0  0  0  0  0  0
    9.7075  -16.0564   27.3678 C   0  0  0  0  0  0  0  0  0  0  0  0
   12.9603  -17.8820   24.7058 C   0  0  0  0  0  0  0  0  0  0  0  0
   14.1942  -17.8687   24.9387 O   0  0  0  0  0  0  0  0  0  0  0  0
   12.4786  -18.9980   24.0357 O   0  0  0  0  0  0  0  0  0  0  0  0
  2  3  1  0
  2  1  1  0
  3  5  1  0
  3  4  1  6
  5  6  1  1
  7  8  2  0
  7  5  1  0
  9  7  1  0
 10  9  1  0
 11 10  1  0
 12 11  1  0
 12 13  1  0
 13  9  1  0
 13 14  1  1
 14 15  2  0
 16 14  1  0
 17 16  1  0
 17 18  1  1
 19 18  1  0
 19 20  2  0
 21 20  1  0
 22 21  2  0
 23 24  2  0
 23 22  1  0
 24 19  1  0
 25 17  1  0
 26 25  2  0
 27 25  1  0
M  END
$$$$
