IPF.pdb
     RDKit          3D

 27 28  0  0  1  0  0  0  0  0999 V2000
    7.3037  -11.8174   19.8782 C   0  0  0  0  0  0  0  0  0  0  0  0
    7.2757  -13.3140   19.7846 C   0  0  0  0  0  0  0  0  0  0  0  0
    7.7698  -13.9997   21.0198 C   0  0  2  0  0  0  0  0  0  0  0  0
    9.1577  -13.5481   21.4164 C   0  0  0  0  0  0  0  0  0  0  0  0
    7.6521  -15.5118   20.9519 C   0  0  2  0  0  0  0  0  0  0  0  0
    6.3148  -15.8203   20.5427 N   0  0  0  0  0  0  0  0  0  0  0  0
    7.8877  -16.0275   22.3137 C   0  0  0  0  0  0  0  0  0  0  0  0
    6.8379  -16.0055   23.0636 O   0  0  0  0  0  0  0  0  0  0  0  0
    9.0882  -16.5185   22.8546 N   0  0  0  0  0  0  0  0  0  0  0  0
   10.3886  -16.4392   22.2872 C   0  0  0  0  0  0  0  0  0  0  0  0
   11.1691  -17.5570   22.9683 C   0  0  0  0  0  0  0  0  0  0  0  0
   10.1410  -18.3239   23.7780 C   0  0  0  0  0  0  0  0  0  0  0  0
    9.1969  -17.1855   24.1268 C   0  0  1  0  0  0  0  0  0  0  0  0
    9.8886  -16.3366   25.1379 C   0  0  0  0  0  0  0  0  0  0  0  0
   10.8637  -15.5916   24.8628 O   0  0  0  0  0  0  0  0  0  0  0  0
    9.4437  -16.3550   26.4746 N   0  0  0  0  0  0  0  0  0  0  0  0
   10.0647  -15.4923   27.4619 C   0  0  1  0  0  0  0  0  0  0  0  0
    8.9898  -14.7687   28.2720 C   0  0  0  0  0  0  0  0  0  0  0  0
    8.1759  -13.8630   27.4243 C   0  0  0  0  0  0  0  0  0  0  0  0
    6.9324  -14.2689   26.9449 C   0  0  0  0  0  0  0  0  0  0  0  0
    6.1403  -13.4668   26.1509 C   0  0  0  0  0  0  0  0  0  0  0  0
    6.5726  -12.2048   25.8013 C   0  0  0  0  0  0  0  0  0  0  0  0
    7.7881  -11.7695   26.2522 C   0  0  0  0  0  0  0  0  0  0  0  0
    8.5724  -12.5984   27.0542 C   0  0  0  0  0  0  0  0  0  0  0  0
   10.8192  -16.3523   28.3998 C   0  0  0  0  0  0  0  0  0  0  0  0
   10.6485  -17.5963   28.4138 O   0  0  0  0  0  0  0  0  0  0  0  0
   11.7454  -15.8540   29.3054 O   0  0  0  0  0  0  0  0  0  0  0  0
  2  3  1  0
  2  1  1  0
  3  5  1  0
  3  4  1  6
  5  6  1  1
  7  8  2  0
  7  5  1  0
  9  7  1  0
 10  9  1  0
 11 10  1  0
 12 11  1  0
 12 13  1  0
 13  9  1  0
 13 14  1  1
 14 15  2  0
 16 14  1  0
 17 16  1  0
 17 18  1  1
 19 18  1  0
 19 20  2  0
 21 20  1  0
 22 21  2  0
 23 24  2  0
 23 22  1  0
 24 19  1  0
 25 17  1  0
 26 25  2  0
 27 25  1  0
M  END
$$$$
