IPF.pdb
     RDKit          3D

 27 28  0  0  1  0  0  0  0  0999 V2000
    7.7781  -11.9972   19.3541 C   0  0  0  0  0  0  0  0  0  0  0  0
    7.5176  -13.4726   19.2857 C   0  0  0  0  0  0  0  0  0  0  0  0
    7.9448  -14.2128   20.5144 C   0  0  2  0  0  0  0  0  0  0  0  0
    9.3971  -13.9705   20.8602 C   0  0  0  0  0  0  0  0  0  0  0  0
    7.6002  -15.6907   20.4721 C   0  0  2  0  0  0  0  0  0  0  0  0
    6.2187  -15.7992   20.1103 N   0  0  0  0  0  0  0  0  0  0  0  0
    7.8018  -16.2229   21.8330 C   0  0  0  0  0  0  0  0  0  0  0  0
    6.8053  -16.0096   22.6244 O   0  0  0  0  0  0  0  0  0  0  0  0
    8.9214  -16.9086   22.3341 N   0  0  0  0  0  0  0  0  0  0  0  0
   10.1424  -17.1800   21.6598 C   0  0  0  0  0  0  0  0  0  0  0  0
   10.7362  -18.3653   22.4115 C   0  0  0  0  0  0  0  0  0  0  0  0
    9.6600  -18.7954   23.3900 C   0  0  0  0  0  0  0  0  0  0  0  0
    9.0196  -17.4456   23.6672 C   0  0  1  0  0  0  0  0  0  0  0  0
    9.9771  -16.6701   24.5058 C   0  0  0  0  0  0  0  0  0  0  0  0
   11.0609  -16.2074   24.0670 O   0  0  0  0  0  0  0  0  0  0  0  0
    9.6718  -16.4322   25.8605 N   0  0  0  0  0  0  0  0  0  0  0  0
   10.5177  -15.5636   26.6571 C   0  0  1  0  0  0  0  0  0  0  0  0
   10.1745  -14.1011   26.3764 C   0  0  0  0  0  0  0  0  0  0  0  0
    8.7558  -13.7977   26.6870 C   0  0  0  0  0  0  0  0  0  0  0  0
    8.4284  -12.9253   27.7226 C   0  0  0  0  0  0  0  0  0  0  0  0
    7.1264  -12.6142   28.0532 C   0  0  0  0  0  0  0  0  0  0  0  0
    6.0847  -13.1762   27.3454 C   0  0  0  0  0  0  0  0  0  0  0  0
    6.3650  -14.0380   26.3212 C   0  0  0  0  0  0  0  0  0  0  0  0
    7.6899  -14.3379   26.0047 C   0  0  0  0  0  0  0  0  0  0  0  0
   10.2134  -15.8222   28.0815 C   0  0  0  0  0  0  0  0  0  0  0  0
   10.7996  -15.1865   28.9922 O   0  0  0  0  0  0  0  0  0  0  0  0
    9.2809  -16.7622   28.4977 O   0  0  0  0  0  0  0  0  0  0  0  0
  2  3  1  0
  2  1  1  0
  3  5  1  0
  3  4  1  6
  5  6  1  1
  7  8  2  0
  7  5  1  0
  9  7  1  0
 10  9  1  0
 11 10  1  0
 12 11  1  0
 12 13  1  0
 13  9  1  0
 13 14  1  1
 14 15  2  0
 16 14  1  0
 17 16  1  0
 17 18  1  6
 19 18  1  0
 19 20  2  0
 21 20  1  0
 22 21  2  0
 23 24  2  0
 23 22  1  0
 24 19  1  0
 25 17  1  0
 26 25  2  0
 27 25  1  0
M  END
$$$$
