IPF.pdb
     RDKit          3D

 27 28  0  0  1  0  0  0  0  0999 V2000
    7.4534  -19.1850   25.4400 C   0  0  0  0  0  0  0  0  0  0  0  0
    7.5079  -19.2113   23.9415 C   0  0  0  0  0  0  0  0  0  0  0  0
    6.2700  -18.6809   23.2886 C   0  0  2  0  0  0  0  0  0  0  0  0
    5.0380  -19.4811   23.6482 C   0  0  0  0  0  0  0  0  0  0  0  0
    6.4186  -18.4921   21.7896 C   0  0  2  0  0  0  0  0  0  0  0  0
    6.6169  -19.7874   21.2113 N   0  0  0  0  0  0  0  0  0  0  0  0
    7.6181  -17.6612   21.5732 C   0  0  0  0  0  0  0  0  0  0  0  0
    8.6326  -18.3235   21.1294 O   0  0  0  0  0  0  0  0  0  0  0  0
    7.7624  -16.2807   21.7927 N   0  0  0  0  0  0  0  0  0  0  0  0
    6.8113  -15.3916   22.3621 C   0  0  0  0  0  0  0  0  0  0  0  0
    7.2352  -14.0139   21.8670 C   0  0  0  0  0  0  0  0  0  0  0  0
    8.3451  -14.2749   20.8666 C   0  0  0  0  0  0  0  0  0  0  0  0
    8.9493  -15.5253   21.4833 C   0  0  1  0  0  0  0  0  0  0  0  0
    9.6709  -15.1011   22.7165 C   0  0  0  0  0  0  0  0  0  0  0  0
   10.5261  -14.1792   22.7331 O   0  0  0  0  0  0  0  0  0  0  0  0
    9.3960  -15.7524   23.9352 N   0  0  0  0  0  0  0  0  0  0  0  0
   10.0918  -15.3586   25.1458 C   0  0  1  0  0  0  0  0  0  0  0  0
    9.9802  -13.8474   25.3431 C   0  0  0  0  0  0  0  0  0  0  0  0
    8.6249  -13.4485   25.7963 C   0  0  0  0  0  0  0  0  0  0  0  0
    7.5302  -13.5637   24.9423 C   0  0  0  0  0  0  0  0  0  0  0  0
    6.2523  -13.2030   25.3140 C   0  0  0  0  0  0  0  0  0  0  0  0
    6.0194  -12.7042   26.5785 C   0  0  0  0  0  0  0  0  0  0  0  0
    7.0684  -12.5758   27.4465 C   0  0  0  0  0  0  0  0  0  0  0  0
    8.3526  -12.9471   27.0484 C   0  0  0  0  0  0  0  0  0  0  0  0
    9.4080  -16.0040   26.2878 C   0  0  0  0  0  0  0  0  0  0  0  0
    8.2637  -16.5041   26.1556 O   0  0  0  0  0  0  0  0  0  0  0  0
    9.9721  -16.0988   27.5524 O   0  0  0  0  0  0  0  0  0  0  0  0
  2  3  1  0
  2  1  1  0
  3  5  1  0
  3  4  1  6
  5  6  1  6
  7  8  2  0
  7  5  1  0
  9  7  1  0
 10  9  1  0
 11 10  1  0
 12 11  1  0
 12 13  1  0
 13  9  1  0
 13 14  1  1
 14 15  2  0
 16 14  1  0
 17 16  1  0
 17 18  1  1
 19 18  1  0
 19 20  2  0
 21 20  1  0
 22 21  2  0
 23 24  2  0
 23 22  1  0
 24 19  1  0
 25 17  1  0
 26 25  2  0
 27 25  1  0
M  END
$$$$
