IPF.pdb
     RDKit          3D

 27 28  0  0  1  0  0  0  0  0999 V2000
    7.5509  -11.7272   19.0260 C   0  0  0  0  0  0  0  0  0  0  0  0
    7.7803  -13.1727   18.6983 C   0  0  0  0  0  0  0  0  0  0  0  0
    7.7113  -14.0744   19.8908 C   0  0  2  0  0  0  0  0  0  0  0  0
    8.6842  -13.6729   20.9770 C   0  0  0  0  0  0  0  0  0  0  0  0
    7.8190  -15.5462   19.5345 C   0  0  2  0  0  0  0  0  0  0  0  0
    6.8702  -15.8065   18.4937 N   0  0  0  0  0  0  0  0  0  0  0  0
    7.4571  -16.3131   20.7415 C   0  0  0  0  0  0  0  0  0  0  0  0
    6.2233  -16.1733   21.0922 O   0  0  0  0  0  0  0  0  0  0  0  0
    8.2845  -17.1442   21.5158 N   0  0  0  0  0  0  0  0  0  0  0  0
    9.6730  -17.3891   21.3389 C   0  0  0  0  0  0  0  0  0  0  0  0
    9.9181  -18.7160   22.0474 C   0  0  0  0  0  0  0  0  0  0  0  0
    8.5412  -19.2200   22.4356 C   0  0  0  0  0  0  0  0  0  0  0  0
    7.8435  -17.8900   22.6667 C   0  0  1  0  0  0  0  0  0  0  0  0
    8.3879  -17.3238   23.9334 C   0  0  0  0  0  0  0  0  0  0  0  0
    9.5467  -16.8456   24.0336 O   0  0  0  0  0  0  0  0  0  0  0  0
    7.5804  -17.3141   25.0878 N   0  0  0  0  0  0  0  0  0  0  0  0
    7.9941  -16.5675   26.2610 C   0  0  1  0  0  0  0  0  0  0  0  0
    6.8104  -15.7806   26.8224 C   0  0  0  0  0  0  0  0  0  0  0  0
    7.0035  -14.3165   26.6799 C   0  0  0  0  0  0  0  0  0  0  0  0
    5.9165  -13.4789   26.4394 C   0  0  0  0  0  0  0  0  0  0  0  0
    6.0438  -12.1135   26.2953 C   0  0  0  0  0  0  0  0  0  0  0  0
    7.2879  -11.5257   26.3884 C   0  0  0  0  0  0  0  0  0  0  0  0
    8.3801  -12.3143   26.6238 C   0  0  0  0  0  0  0  0  0  0  0  0
    8.2273  -13.6933   26.7661 C   0  0  0  0  0  0  0  0  0  0  0  0
    8.4041  -17.5438   27.2940 C   0  0  0  0  0  0  0  0  0  0  0  0
    7.9531  -18.7158   27.2890 O   0  0  0  0  0  0  0  0  0  0  0  0
    9.2943  -17.2377   28.3138 O   0  0  0  0  0  0  0  0  0  0  0  0
  2  3  1  0
  2  1  1  0
  3  5  1  0
  3  4  1  1
  5  6  1  6
  7  8  2  0
  7  5  1  0
  9  7  1  0
 10  9  1  0
 11 10  1  0
 12 11  1  0
 12 13  1  0
 13  9  1  0
 13 14  1  1
 14 15  2  0
 16 14  1  0
 17 16  1  0
 17 18  1  1
 19 18  1  0
 19 20  2  0
 21 20  1  0
 22 21  2  0
 23 24  2  0
 23 22  1  0
 24 19  1  0
 25 17  1  0
 26 25  2  0
 27 25  1  0
M  END
$$$$
