IPF.pdb
     RDKit          3D

 27 28  0  0  1  0  0  0  0  0999 V2000
    6.3001  -11.4767   27.2742 C   0  0  0  0  0  0  0  0  0  0  0  0
    5.6576  -12.6226   26.5507 C   0  0  0  0  0  0  0  0  0  0  0  0
    6.6318  -13.4823   25.8077 C   0  0  2  0  0  0  0  0  0  0  0  0
    7.5409  -12.6789   24.9046 C   0  0  0  0  0  0  0  0  0  0  0  0
    5.9732  -14.6410   25.0808 C   0  0  2  0  0  0  0  0  0  0  0  0
    5.2012  -15.3684   26.0431 N   0  0  0  0  0  0  0  0  0  0  0  0
    7.0549  -15.4980   24.5596 C   0  0  0  0  0  0  0  0  0  0  0  0
    7.2254  -16.5837   25.2357 O   0  0  0  0  0  0  0  0  0  0  0  0
    7.8838  -15.2619   23.4498 N   0  0  0  0  0  0  0  0  0  0  0  0
    8.0526  -14.0422   22.7404 C   0  0  0  0  0  0  0  0  0  0  0  0
    8.5841  -14.4664   21.3765 C   0  0  0  0  0  0  0  0  0  0  0  0
    8.5018  -15.9809   21.3709 C   0  0  0  0  0  0  0  0  0  0  0  0
    8.7412  -16.2503   22.8471 C   0  0  1  0  0  0  0  0  0  0  0  0
   10.1803  -15.9707   23.1160 C   0  0  0  0  0  0  0  0  0  0  0  0
   10.8006  -14.9998   22.6120 O   0  0  0  0  0  0  0  0  0  0  0  0
   10.9001  -16.8245   23.9748 N   0  0  0  0  0  0  0  0  0  0  0  0
   12.1104  -16.3556   24.6231 C   0  0  1  0  0  0  0  0  0  0  0  0
   12.0907  -16.7371   26.1027 C   0  0  0  0  0  0  0  0  0  0  0  0
   11.3720  -15.7308   26.9227 C   0  0  0  0  0  0  0  0  0  0  0  0
   11.1466  -15.9531   28.2794 C   0  0  0  0  0  0  0  0  0  0  0  0
   10.4809  -15.0519   29.0830 C   0  0  0  0  0  0  0  0  0  0  0  0
   10.0073  -13.8727   28.5471 C   0  0  0  0  0  0  0  0  0  0  0  0
   10.2086  -13.6176   27.2187 C   0  0  0  0  0  0  0  0  0  0  0  0
   10.8848  -14.5440   26.4252 C   0  0  0  0  0  0  0  0  0  0  0  0
   13.2545  -17.0582   24.0019 C   0  0  0  0  0  0  0  0  0  0  0  0
   13.0730  -18.0479   23.2507 O   0  0  0  0  0  0  0  0  0  0  0  0
   14.5746  -16.6792   24.2023 O   0  0  0  0  0  0  0  0  0  0  0  0
  2  3  1  0
  2  1  1  0
  3  5  1  0
  3  4  1  6
  5  6  1  1
  7  8  2  0
  7  5  1  0
  9  7  1  0
 10  9  1  0
 11 10  1  0
 12 11  1  0
 12 13  1  0
 13  9  1  0
 13 14  1  6
 14 15  2  0
 16 14  1  0
 17 16  1  0
 17 18  1  1
 19 18  1  0
 19 20  2  0
 21 20  1  0
 22 21  2  0
 23 24  2  0
 23 22  1  0
 24 19  1  0
 25 17  1  0
 26 25  2  0
 27 25  1  0
M  END
$$$$
