IPF.pdb
     RDKit          3D

 27 28  0  0  1  0  0  0  0  0999 V2000
    3.6555  -19.7565   22.0507 C   0  0  0  0  0  0  0  0  0  0  0  0
    4.0987  -18.8523   20.9393 C   0  0  0  0  0  0  0  0  0  0  0  0
    5.2425  -17.9621   21.3126 C   0  0  2  0  0  0  0  0  0  0  0  0
    4.9353  -17.0994   22.5163 C   0  0  0  0  0  0  0  0  0  0  0  0
    5.7769  -17.1536   20.1441 C   0  0  2  0  0  0  0  0  0  0  0  0
    5.9681  -18.0566   19.0489 N   0  0  0  0  0  0  0  0  0  0  0  0
    7.0767  -16.5944   20.5611 C   0  0  0  0  0  0  0  0  0  0  0  0
    8.0564  -17.4270   20.4526 O   0  0  0  0  0  0  0  0  0  0  0  0
    7.3448  -15.3025   21.0447 N   0  0  0  0  0  0  0  0  0  0  0  0
    6.4060  -14.2776   21.3403 C   0  0  0  0  0  0  0  0  0  0  0  0
    7.2188  -12.9897   21.2834 C   0  0  0  0  0  0  0  0  0  0  0  0
    8.5822  -13.4025   20.7624 C   0  0  0  0  0  0  0  0  0  0  0  0
    8.6611  -14.8022   21.3486 C   0  0  1  0  0  0  0  0  0  0  0  0
    8.8692  -14.6515   22.8167 C   0  0  0  0  0  0  0  0  0  0  0  0
    8.8175  -13.5445   23.4111 O   0  0  0  0  0  0  0  0  0  0  0  0
    9.1387  -15.7939   23.5961 N   0  0  0  0  0  0  0  0  0  0  0  0
    9.9427  -15.6833   24.7986 C   0  0  1  0  0  0  0  0  0  0  0  0
    9.0385  -15.6662   26.0305 C   0  0  0  0  0  0  0  0  0  0  0  0
    8.2475  -14.4139   26.1174 C   0  0  0  0  0  0  0  0  0  0  0  0
    8.8561  -13.2159   26.4852 C   0  0  0  0  0  0  0  0  0  0  0  0
    8.1647  -12.0271   26.5844 C   0  0  0  0  0  0  0  0  0  0  0  0
    6.8129  -11.9938   26.3138 C   0  0  0  0  0  0  0  0  0  0  0  0
    6.1788  -13.1494   25.9494 C   0  0  0  0  0  0  0  0  0  0  0  0
    6.8987  -14.3403   25.8556 C   0  0  0  0  0  0  0  0  0  0  0  0
   10.7869  -16.8947   24.8883 C   0  0  0  0  0  0  0  0  0  0  0  0
   11.6994  -16.9830   25.7466 O   0  0  0  0  0  0  0  0  0  0  0  0
   10.6307  -17.9899   24.0501 O   0  0  0  0  0  0  0  0  0  0  0  0
  2  3  1  0
  2  1  1  0
  3  5  1  0
  3  4  1  1
  5  6  1  6
  7  8  2  0
  7  5  1  0
  9  7  1  0
 10  9  1  0
 11 10  1  0
 12 11  1  0
 12 13  1  0
 13  9  1  0
 13 14  1  1
 14 15  2  0
 16 14  1  0
 17 16  1  0
 17 18  1  1
 19 18  1  0
 19 20  2  0
 21 20  1  0
 22 21  2  0
 23 24  2  0
 23 22  1  0
 24 19  1  0
 25 17  1  0
 26 25  2  0
 27 25  1  0
M  END
$$$$
