IPF.pdb
     RDKit          3D

 27 28  0  0  1  0  0  0  0  0999 V2000
   12.4123  -14.1072   17.3949 C   0  0  0  0  0  0  0  0  0  0  0  0
   10.9557  -13.8634   17.6558 C   0  0  0  0  0  0  0  0  0  0  0  0
   10.5122  -14.2937   19.0189 C   0  0  2  0  0  0  0  0  0  0  0  0
   10.8598  -15.7362   19.3120 C   0  0  0  0  0  0  0  0  0  0  0  0
    9.0526  -13.9835   19.2983 C   0  0  2  0  0  0  0  0  0  0  0  0
    8.8545  -12.5876   19.0461 N   0  0  0  0  0  0  0  0  0  0  0  0
    8.8127  -14.2706   20.7252 C   0  0  0  0  0  0  0  0  0  0  0  0
    9.0908  -13.2813   21.5055 O   0  0  0  0  0  0  0  0  0  0  0  0
    8.3336  -15.4616   21.2969 N   0  0  0  0  0  0  0  0  0  0  0  0
    8.0703  -16.6925   20.6376 C   0  0  0  0  0  0  0  0  0  0  0  0
    7.0931  -17.4148   21.5574 C   0  0  0  0  0  0  0  0  0  0  0  0
    6.7343  -16.4035   22.6294 C   0  0  0  0  0  0  0  0  0  0  0  0
    8.0434  -15.6351   22.6972 C   0  0  1  0  0  0  0  0  0  0  0  0
    9.0391  -16.5233   23.3615 C   0  0  0  0  0  0  0  0  0  0  0  0
    9.6178  -17.4724   22.7736 O   0  0  0  0  0  0  0  0  0  0  0  0
    9.3623  -16.3058   24.7155 N   0  0  0  0  0  0  0  0  0  0  0  0
   10.6742  -16.6667   25.2192 C   0  0  1  0  0  0  0  0  0  0  0  0
   11.3609  -15.4375   25.8131 C   0  0  0  0  0  0  0  0  0  0  0  0
   10.5228  -14.7829   26.8477 C   0  0  0  0  0  0  0  0  0  0  0  0
   10.7438  -15.0326   28.2003 C   0  0  0  0  0  0  0  0  0  0  0  0
    9.9906  -14.4531   29.1993 C   0  0  0  0  0  0  0  0  0  0  0  0
    8.9689  -13.5856   28.8741 C   0  0  0  0  0  0  0  0  0  0  0  0
    8.7203  -13.3147   27.5569 C   0  0  0  0  0  0  0  0  0  0  0  0
    9.4954  -13.9128   26.5634 C   0  0  0  0  0  0  0  0  0  0  0  0
   10.4824  -17.6384   26.3180 C   0  0  0  0  0  0  0  0  0  0  0  0
   11.4669  -18.1701   26.8881 O   0  0  0  0  0  0  0  0  0  0  0  0
    9.2309  -18.0184   26.7825 O   0  0  0  0  0  0  0  0  0  0  0  0
  2  3  1  0
  2  1  1  0
  3  5  1  0
  3  4  1  6
  5  6  1  1
  7  8  2  0
  7  5  1  0
  9  7  1  0
 10  9  1  0
 11 10  1  0
 12 11  1  0
 12 13  1  0
 13  9  1  0
 13 14  1  6
 14 15  2  0
 16 14  1  0
 17 16  1  0
 17 18  1  1
 19 18  1  0
 19 20  2  0
 21 20  1  0
 22 21  2  0
 23 24  2  0
 23 22  1  0
 24 19  1  0
 25 17  1  0
 26 25  2  0
 27 25  1  0
M  END
$$$$
