IPF.pdb
     RDKit          3D

 27 28  0  0  1  0  0  0  0  0999 V2000
    7.0445  -11.6799   20.0202 C   0  0  0  0  0  0  0  0  0  0  0  0
    7.1213  -13.1535   19.7524 C   0  0  0  0  0  0  0  0  0  0  0  0
    7.5784  -13.9527   20.9325 C   0  0  2  0  0  0  0  0  0  0  0  0
    8.9191  -13.4917   21.4592 C   0  0  0  0  0  0  0  0  0  0  0  0
    7.5367  -15.4511   20.6922 C   0  0  2  0  0  0  0  0  0  0  0  0
    6.2434  -15.7652   20.1630 N   0  0  0  0  0  0  0  0  0  0  0  0
    7.7113  -16.1062   22.0023 C   0  0  0  0  0  0  0  0  0  0  0  0
    6.6275  -16.1635   22.7001 O   0  0  0  0  0  0  0  0  0  0  0  0
    8.8879  -16.6502   22.5448 N   0  0  0  0  0  0  0  0  0  0  0  0
   10.2002  -16.5852   22.0038 C   0  0  0  0  0  0  0  0  0  0  0  0
   10.9377  -17.7491   22.6551 C   0  0  0  0  0  0  0  0  0  0  0  0
    9.8746  -18.5176   23.4166 C   0  0  0  0  0  0  0  0  0  0  0  0
    8.9551  -17.3676   23.7922 C   0  0  1  0  0  0  0  0  0  0  0  0
    9.6504  -16.5770   24.8472 C   0  0  0  0  0  0  0  0  0  0  0  0
   10.6395  -15.8360   24.6149 O   0  0  0  0  0  0  0  0  0  0  0  0
    9.1927  -16.6492   26.1777 N   0  0  0  0  0  0  0  0  0  0  0  0
    9.8297  -15.8563   27.2122 C   0  0  1  0  0  0  0  0  0  0  0  0
    8.7721  -15.0980   28.0133 C   0  0  0  0  0  0  0  0  0  0  0  0
    8.1541  -14.0080   27.2186 C   0  0  0  0  0  0  0  0  0  0  0  0
    6.9190  -14.1942   26.6016 C   0  0  0  0  0  0  0  0  0  0  0  0
    6.3051  -13.2150   25.8496 C   0  0  0  0  0  0  0  0  0  0  0  0
    6.9171  -11.9902   25.6849 C   0  0  0  0  0  0  0  0  0  0  0  0
    8.1308  -11.7684   26.2749 C   0  0  0  0  0  0  0  0  0  0  0  0
    8.7329  -12.7738   27.0312 C   0  0  0  0  0  0  0  0  0  0  0  0
   10.5032  -16.7884   28.1428 C   0  0  0  0  0  0  0  0  0  0  0  0
   10.2242  -18.0129   28.1436 O   0  0  0  0  0  0  0  0  0  0  0  0
   11.4665  -16.3823   29.0556 O   0  0  0  0  0  0  0  0  0  0  0  0
  2  3  1  0
  2  1  1  0
  3  5  1  0
  3  4  1  6
  5  6  1  1
  7  8  2  0
  7  5  1  0
  9  7  1  0
 10  9  1  0
 11 10  1  0
 12 11  1  0
 12 13  1  0
 13  9  1  0
 13 14  1  1
 14 15  2  0
 16 14  1  0
 17 16  1  0
 17 18  1  1
 19 18  1  0
 19 20  2  0
 21 20  1  0
 22 21  2  0
 23 24  2  0
 23 22  1  0
 24 19  1  0
 25 17  1  0
 26 25  2  0
 27 25  1  0
M  END
$$$$
