IPF.pdb
     RDKit          3D

 27 28  0  0  1  0  0  0  0  0999 V2000
    5.7294  -20.8821   20.7385 C   0  0  0  0  0  0  0  0  0  0  0  0
    5.9884  -19.6906   19.8653 C   0  0  0  0  0  0  0  0  0  0  0  0
    6.7574  -18.6039   20.5492 C   0  0  2  0  0  0  0  0  0  0  0  0
    6.0741  -18.1147   21.8066 C   0  0  0  0  0  0  0  0  0  0  0  0
    7.1394  -17.4659   19.6196 C   0  0  2  0  0  0  0  0  0  0  0  0
    7.6796  -18.0481   18.4278 N   0  0  0  0  0  0  0  0  0  0  0  0
    8.1806  -16.6765   20.3044 C   0  0  0  0  0  0  0  0  0  0  0  0
    9.3632  -17.1826   20.2032 O   0  0  0  0  0  0  0  0  0  0  0  0
    8.0221  -15.4810   21.0257 N   0  0  0  0  0  0  0  0  0  0  0  0
    6.8089  -14.9072   21.4928 C   0  0  0  0  0  0  0  0  0  0  0  0
    7.1379  -13.4324   21.6914 C   0  0  0  0  0  0  0  0  0  0  0  0
    8.5337  -13.2564   21.1246 C   0  0  0  0  0  0  0  0  0  0  0  0
    9.1068  -14.6281   21.4393 C   0  0  1  0  0  0  0  0  0  0  0  0
    9.3231  -14.6851   22.9129 C   0  0  0  0  0  0  0  0  0  0  0  0
   10.2827  -14.1150   23.4922 O   0  0  0  0  0  0  0  0  0  0  0  0
    8.4189  -15.4087   23.7153 N   0  0  0  0  0  0  0  0  0  0  0  0
    8.6762  -15.5779   25.1331 C   0  0  1  0  0  0  0  0  0  0  0  0
    7.3908  -15.3487   25.9272 C   0  0  0  0  0  0  0  0  0  0  0  0
    7.1691  -13.9103   26.2155 C   0  0  0  0  0  0  0  0  0  0  0  0
    8.1880  -13.1320   26.7604 C   0  0  0  0  0  0  0  0  0  0  0  0
    8.0310  -11.7931   27.0501 C   0  0  0  0  0  0  0  0  0  0  0  0
    6.8249  -11.1728   26.8002 C   0  0  0  0  0  0  0  0  0  0  0  0
    5.7996  -11.9030   26.2655 C   0  0  0  0  0  0  0  0  0  0  0  0
    5.9815  -13.2562   25.9806 C   0  0  0  0  0  0  0  0  0  0  0  0
    9.0847  -16.9828   25.3516 C   0  0  0  0  0  0  0  0  0  0  0  0
    9.5389  -17.3575   26.4608 O   0  0  0  0  0  0  0  0  0  0  0  0
    8.9949  -17.9587   24.3688 O   0  0  0  0  0  0  0  0  0  0  0  0
  2  3  1  0
  2  1  1  0
  3  5  1  0
  3  4  1  1
  5  6  1  6
  7  8  2  0
  7  5  1  0
  9  7  1  0
 10  9  1  0
 11 10  1  0
 12 11  1  0
 12 13  1  0
 13  9  1  0
 13 14  1  1
 14 15  2  0
 16 14  1  0
 17 16  1  0
 17 18  1  1
 19 18  1  0
 19 20  2  0
 21 20  1  0
 22 21  2  0
 23 24  2  0
 23 22  1  0
 24 19  1  0
 25 17  1  0
 26 25  2  0
 27 25  1  0
M  END
$$$$
