IPF.pdb
     RDKit          3D

 27 28  0  0  1  0  0  0  0  0999 V2000
    8.0536  -20.2470   21.3823 C   0  0  0  0  0  0  0  0  0  0  0  0
    8.7024  -19.1706   20.5640 C   0  0  0  0  0  0  0  0  0  0  0  0
    7.7402  -18.4088   19.7072 C   0  0  2  0  0  0  0  0  0  0  0  0
    6.9510  -19.3086   18.7827 C   0  0  0  0  0  0  0  0  0  0  0  0
    8.3847  -17.2477   18.9715 C   0  0  2  0  0  0  0  0  0  0  0  0
    9.4197  -17.7870   18.1413 N   0  0  0  0  0  0  0  0  0  0  0  0
    8.9758  -16.3613   19.9917 C   0  0  0  0  0  0  0  0  0  0  0  0
   10.2574  -16.4722   20.0931 O   0  0  0  0  0  0  0  0  0  0  0  0
    8.3133  -15.4480   20.8294 N   0  0  0  0  0  0  0  0  0  0  0  0
    6.9166  -15.1967   20.9015 C   0  0  0  0  0  0  0  0  0  0  0  0
    6.8120  -13.8060   21.5162 C   0  0  0  0  0  0  0  0  0  0  0  0
    8.2376  -13.2920   21.5822 C   0  0  0  0  0  0  0  0  0  0  0  0
    8.9681  -14.6068   21.7983 C   0  0  1  0  0  0  0  0  0  0  0  0
    8.6800  -15.0441   23.1938 C   0  0  0  0  0  0  0  0  0  0  0  0
    7.6648  -15.7151   23.5110 O   0  0  0  0  0  0  0  0  0  0  0  0
    9.5770  -14.6990   24.2239 N   0  0  0  0  0  0  0  0  0  0  0  0
    9.4217  -15.2710   25.5482 C   0  0  1  0  0  0  0  0  0  0  0  0
    7.9378  -15.3975   25.8907 C   0  0  0  0  0  0  0  0  0  0  0  0
    7.3322  -14.0825   26.2156 C   0  0  0  0  0  0  0  0  0  0  0  0
    8.1094  -13.0579   26.7512 C   0  0  0  0  0  0  0  0  0  0  0  0
    7.5938  -11.8204   27.0737 C   0  0  0  0  0  0  0  0  0  0  0  0
    6.2555  -11.5588   26.8677 C   0  0  0  0  0  0  0  0  0  0  0  0
    5.4591  -12.5392   26.3434 C   0  0  0  0  0  0  0  0  0  0  0  0
    6.0027  -13.7835   26.0248 C   0  0  0  0  0  0  0  0  0  0  0  0
    9.9849  -16.6386   25.5163 C   0  0  0  0  0  0  0  0  0  0  0  0
   10.0235  -17.3446   26.5542 O   0  0  0  0  0  0  0  0  0  0  0  0
   10.4957  -17.2201   24.3643 O   0  0  0  0  0  0  0  0  0  0  0  0
  2  3  1  0
  2  1  1  0
  3  5  1  0
  3  4  1  6
  5  6  1  6
  7  8  2  0
  7  5  1  0
  9  7  1  0
 10  9  1  0
 11 10  1  0
 12 11  1  0
 12 13  1  0
 13  9  1  0
 13 14  1  1
 14 15  2  0
 16 14  1  0
 17 16  1  0
 17 18  1  6
 19 18  1  0
 19 20  2  0
 21 20  1  0
 22 21  2  0
 23 24  2  0
 23 22  1  0
 24 19  1  0
 25 17  1  0
 26 25  2  0
 27 25  1  0
M  END
$$$$
