IPF.pdb
     RDKit          3D

 27 28  0  0  1  0  0  0  0  0999 V2000
    5.6759  -21.3071   23.5834 C   0  0  0  0  0  0  0  0  0  0  0  0
    5.8709  -20.4976   22.3361 C   0  0  0  0  0  0  0  0  0  0  0  0
    6.6511  -19.2394   22.5556 C   0  0  2  0  0  0  0  0  0  0  0  0
    6.0763  -18.3884   23.6659 C   0  0  0  0  0  0  0  0  0  0  0  0
    6.8797  -18.4476   21.2807 C   0  0  2  0  0  0  0  0  0  0  0  0
    7.3267  -19.3676   20.2782 N   0  0  0  0  0  0  0  0  0  0  0  0
    7.9428  -17.4649   21.5642 C   0  0  0  0  0  0  0  0  0  0  0  0
    9.1349  -17.9431   21.4414 O   0  0  0  0  0  0  0  0  0  0  0  0
    7.7954  -16.1187   21.9395 N   0  0  0  0  0  0  0  0  0  0  0  0
    6.5956  -15.4474   22.2984 C   0  0  0  0  0  0  0  0  0  0  0  0
    6.9021  -13.9723   22.0685 C   0  0  0  0  0  0  0  0  0  0  0  0
    8.2630  -13.9485   21.3990 C   0  0  0  0  0  0  0  0  0  0  0  0
    8.8811  -15.1777   22.0441 C   0  0  1  0  0  0  0  0  0  0  0  0
    9.1737  -14.8277   23.4631 C   0  0  0  0  0  0  0  0  0  0  0  0
    9.0465  -13.6661   23.9277 O   0  0  0  0  0  0  0  0  0  0  0  0
    9.6162  -15.8338   24.3445 N   0  0  0  0  0  0  0  0  0  0  0  0
    9.5100  -15.6449   25.7791 C   0  0  1  0  0  0  0  0  0  0  0  0
    8.0415  -15.5114   26.1801 C   0  0  0  0  0  0  0  0  0  0  0  0
    7.6048  -14.0938   26.2126 C   0  0  0  0  0  0  0  0  0  0  0  0
    6.3114  -13.7423   25.8327 C   0  0  0  0  0  0  0  0  0  0  0  0
    5.8588  -12.4399   25.8412 C   0  0  0  0  0  0  0  0  0  0  0  0
    6.7009  -11.4224   26.2381 C   0  0  0  0  0  0  0  0  0  0  0  0
    7.9787  -11.7268   26.6185 C   0  0  0  0  0  0  0  0  0  0  0  0
    8.4146  -13.0516   26.6018 C   0  0  0  0  0  0  0  0  0  0  0  0
   10.0366  -16.8627   26.4333 C   0  0  0  0  0  0  0  0  0  0  0  0
   10.2092  -16.9038   27.6765 O   0  0  0  0  0  0  0  0  0  0  0  0
   10.3669  -18.0151   25.7337 O   0  0  0  0  0  0  0  0  0  0  0  0
  2  3  1  0
  2  1  1  0
  3  5  1  0
  3  4  1  1
  5  6  1  6
  7  8  2  0
  7  5  1  0
  9  7  1  0
 10  9  1  0
 11 10  1  0
 12 11  1  0
 12 13  1  0
 13  9  1  0
 13 14  1  1
 14 15  2  0
 16 14  1  0
 17 16  1  0
 17 18  1  6
 19 18  1  0
 19 20  2  0
 21 20  1  0
 22 21  2  0
 23 24  2  0
 23 22  1  0
 24 19  1  0
 25 17  1  0
 26 25  2  0
 27 25  1  0
M  END
$$$$
