IPF.pdb
     RDKit          3D

 27 28  0  0  1  0  0  0  0  0999 V2000
    6.6908  -19.6018   24.6802 C   0  0  0  0  0  0  0  0  0  0  0  0
    7.2266  -19.3532   23.3016 C   0  0  0  0  0  0  0  0  0  0  0  0
    6.2070  -18.8031   22.3540 C   0  0  2  0  0  0  0  0  0  0  0  0
    5.0313  -19.7353   22.1640 C   0  0  0  0  0  0  0  0  0  0  0  0
    6.8022  -18.3480   21.0336 C   0  0  2  0  0  0  0  0  0  0  0  0
    7.3750  -19.4985   20.4016 N   0  0  0  0  0  0  0  0  0  0  0  0
    7.8633  -17.3728   21.3486 C   0  0  0  0  0  0  0  0  0  0  0  0
    9.0490  -17.8818   21.3512 O   0  0  0  0  0  0  0  0  0  0  0  0
    7.7202  -16.0045   21.6348 N   0  0  0  0  0  0  0  0  0  0  0  0
    6.5116  -15.2852   21.8375 C   0  0  0  0  0  0  0  0  0  0  0  0
    6.8824  -13.8332   21.5600 C   0  0  0  0  0  0  0  0  0  0  0  0
    8.3018  -13.8801   21.0272 C   0  0  0  0  0  0  0  0  0  0  0  0
    8.8180  -15.0856   21.7949 C   0  0  1  0  0  0  0  0  0  0  0  0
    8.9821  -14.6635   23.2149 C   0  0  0  0  0  0  0  0  0  0  0  0
    8.2610  -13.7913   23.7634 O   0  0  0  0  0  0  0  0  0  0  0  0
    9.9895  -15.2589   23.9995 N   0  0  0  0  0  0  0  0  0  0  0  0
    9.8048  -15.4117   25.4304 C   0  0  1  0  0  0  0  0  0  0  0  0
    8.3141  -15.4084   25.7669 C   0  0  0  0  0  0  0  0  0  0  0  0
    7.8196  -14.0427   26.0697 C   0  0  0  0  0  0  0  0  0  0  0  0
    8.7098  -13.0263   26.4091 C   0  0  0  0  0  0  0  0  0  0  0  0
    8.3005  -11.7428   26.7031 C   0  0  0  0  0  0  0  0  0  0  0  0
    6.9591  -11.4242   26.6673 C   0  0  0  0  0  0  0  0  0  0  0  0
    6.0535  -12.3947   26.3384 C   0  0  0  0  0  0  0  0  0  0  0  0
    6.4908  -13.6863   26.0448 C   0  0  0  0  0  0  0  0  0  0  0  0
   10.3404  -16.7362   25.8141 C   0  0  0  0  0  0  0  0  0  0  0  0
   10.4893  -17.0466   27.0218 O   0  0  0  0  0  0  0  0  0  0  0  0
   10.7050  -17.7027   24.8871 O   0  0  0  0  0  0  0  0  0  0  0  0
  2  3  1  0
  2  1  1  0
  3  5  1  0
  3  4  1  6
  5  6  1  1
  7  8  2  0
  7  5  1  0
  9  7  1  0
 10  9  1  0
 11 10  1  0
 12 11  1  0
 12 13  1  0
 13  9  1  0
 13 14  1  1
 14 15  2  0
 16 14  1  0
 17 16  1  0
 17 18  1  6
 19 18  1  0
 19 20  2  0
 21 20  1  0
 22 21  2  0
 23 24  2  0
 23 22  1  0
 24 19  1  0
 25 17  1  0
 26 25  2  0
 27 25  1  0
M  END
$$$$
