YID.pdb
     RDKit          3D

 29 29  0  0  1  0  0  0  0  0999 V2000
    5.0148  -19.6754   17.4175 O   0  0  0  0  0  0  0  0  0  0  0  0
    5.6903  -19.0781   18.4893 C   0  0  0  0  0  0  0  0  0  0  0  0
    7.0723  -18.9602   18.4113 C   0  0  0  0  0  0  0  0  0  0  0  0
    7.7534  -18.3774   19.4519 C   0  0  0  0  0  0  0  0  0  0  0  0
    7.0709  -17.9224   20.5459 C   0  0  0  0  0  0  0  0  0  0  0  0
    7.7830  -17.2956   21.6699 C   0  0  0  0  0  0  0  0  0  0  0  0
    7.7424  -15.7866   21.6224 C   0  0  2  0  0  0  0  0  0  0  0  0
    8.4502  -15.2673   20.4756 N   0  0  0  0  0  0  0  0  0  0  0  0
    8.4362  -15.2909   22.8449 C   0  0  0  0  0  0  0  0  0  0  0  0
    9.6493  -14.9667   22.8027 O   0  0  0  0  0  0  0  0  0  0  0  0
    5.6942  -18.0314   20.6410 C   0  0  0  0  0  0  0  0  0  0  0  0
    5.0177  -18.6137   19.6003 C   0  0  0  0  0  0  0  0  0  0  0  0
    5.7469  -12.0833   26.2776 C   0  0  0  0  0  0  0  0  0  0  0  0
    6.8484  -12.6305   25.3389 C   0  0  0  0  0  0  0  0  0  0  0  0
    7.5090  -13.7558   26.0331 C   0  0  2  0  0  0  0  0  0  0  0  0
    8.2849  -13.1551   27.2171 C   0  0  0  0  0  0  0  0  0  0  0  0
    8.4872  -14.5467   25.2001 C   0  0  2  0  0  0  0  0  0  0  0  0
    7.7615  -15.1689   24.0833 N   0  0  0  0  0  0  0  0  0  0  0  0
    9.0103  -15.6747   25.9947 C   0  0  0  0  0  0  0  0  0  0  0  0
    8.2224  -16.5749   26.4703 O   0  0  0  0  0  0  0  0  0  0  0  0
   10.3818  -15.9032   26.3133 N   0  0  0  0  0  0  0  0  0  0  0  0
   10.7751  -17.0860   27.0124 C   0  0  1  0  0  0  0  0  0  0  0  0
   12.1922  -17.5178   26.6995 C   0  0  0  0  0  0  0  0  0  0  0  0
   12.4491  -17.7378   25.2756 C   0  0  0  0  0  0  0  0  0  0  0  0
   11.4841  -17.9345   24.5002 O   0  0  0  0  0  0  0  0  0  0  0  0
   10.6436  -16.8635   28.4629 C   0  0  0  0  0  0  0  0  0  0  0  0
   10.5551  -17.8709   29.3999 O   0  0  0  0  0  0  0  0  0  0  0  0
   13.7267  -17.7398   24.7315 O   0  0  0  0  0  0  0  0  0  0  0  0
   10.6084  -15.6668   28.8856 O   0  0  0  0  0  0  0  0  0  0  0  0
  2  3  2  0
  2  1  1  0
  4  3  1  0
  5  4  2  0
  6  5  1  0
  7  6  1  0
  7  8  1  6
  9 18  1  0
  9  7  1  0
 10  9  2  0
 11  5  1  0
 11 12  2  0
 12  2  1  0
 13 14  1  0
 14 15  1  0
 15 17  1  0
 15 16  1  1
 17 18  1  6
 19 17  1  0
 20 19  2  0
 21 19  1  0
 22 26  1  0
 22 21  1  0
 23 24  1  0
 22 23  1  1
 24 25  2  0
 26 27  1  0
 28 24  1  0
 29 26  2  0
M  END
$$$$
