YID.pdb
     RDKit          3D

 29 29  0  0  1  0  0  0  0  0999 V2000
   12.8027  -17.6298   32.2491 O   0  0  0  0  0  0  0  0  0  0  0  0
   12.0784  -17.4292   31.0671 C   0  0  0  0  0  0  0  0  0  0  0  0
   12.0865  -18.4382   30.1122 C   0  0  0  0  0  0  0  0  0  0  0  0
   11.3825  -18.2611   28.9463 C   0  0  0  0  0  0  0  0  0  0  0  0
   10.6859  -17.1031   28.7378 C   0  0  0  0  0  0  0  0  0  0  0  0
    9.9263  -16.8954   27.4956 C   0  0  0  0  0  0  0  0  0  0  0  0
    8.4534  -17.1909   27.6516 C   0  0  2  0  0  0  0  0  0  0  0  0
    8.1961  -18.6103   27.7213 N   0  0  0  0  0  0  0  0  0  0  0  0
    7.7700  -16.6664   26.4354 C   0  0  0  0  0  0  0  0  0  0  0  0
    7.1838  -17.4483   25.6457 O   0  0  0  0  0  0  0  0  0  0  0  0
   10.6664  -16.0871   29.6777 C   0  0  0  0  0  0  0  0  0  0  0  0
   11.3704  -16.2675   30.8404 C   0  0  0  0  0  0  0  0  0  0  0  0
    7.5950  -11.0762   25.3989 C   0  0  0  0  0  0  0  0  0  0  0  0
    7.9767  -12.5753   25.3703 C   0  0  0  0  0  0  0  0  0  0  0  0
    6.7461  -13.3447   25.0906 C   0  0  2  0  0  0  0  0  0  0  0  0
    5.7698  -13.0581   26.2435 C   0  0  0  0  0  0  0  0  0  0  0  0
    6.9229  -14.8405   25.0029 C   0  0  2  0  0  0  0  0  0  0  0  0
    7.7566  -15.2844   26.1293 N   0  0  0  0  0  0  0  0  0  0  0  0
    7.7007  -15.1736   23.7940 C   0  0  0  0  0  0  0  0  0  0  0  0
    7.2187  -14.9741   22.6171 O   0  0  0  0  0  0  0  0  0  0  0  0
    9.0174  -15.7222   23.7763 N   0  0  0  0  0  0  0  0  0  0  0  0
    9.6578  -16.0272   22.5357 C   0  0  1  0  0  0  0  0  0  0  0  0
    9.8878  -14.8067   21.6696 C   0  0  0  0  0  0  0  0  0  0  0  0
   10.5784  -15.0891   20.4106 C   0  0  0  0  0  0  0  0  0  0  0  0
   10.8000  -16.2790   20.0846 O   0  0  0  0  0  0  0  0  0  0  0  0
   10.9489  -16.6857   22.8005 C   0  0  0  0  0  0  0  0  0  0  0  0
   11.7760  -17.1981   21.8238 O   0  0  0  0  0  0  0  0  0  0  0  0
   11.0071  -14.0910   19.5455 O   0  0  0  0  0  0  0  0  0  0  0  0
   11.3318  -16.7924   24.0063 O   0  0  0  0  0  0  0  0  0  0  0  0
  2  3  2  0
  2  1  1  0
  4  3  1  0
  5  4  2  0
  6  5  1  0
  7  6  1  0
  7  8  1  6
  9 18  1  0
  9  7  1  0
 10  9  2  0
 11  5  1  0
 11 12  2  0
 12  2  1  0
 13 14  1  0
 14 15  1  0
 15 17  1  0
 15 16  1  1
 17 18  1  1
 19 17  1  0
 20 19  2  0
 21 19  1  0
 22 26  1  0
 22 21  1  0
 23 24  1  0
 22 23  1  1
 24 25  2  0
 26 27  1  0
 28 24  1  0
 29 26  2  0
M  END
$$$$
