YID.pdb
     RDKit          3D

 29 29  0  0  1  0  0  0  0  0999 V2000
    6.8742  -14.3510   15.6082 O   0  0  0  0  0  0  0  0  0  0  0  0
    7.3940  -14.2562   16.9054 C   0  0  0  0  0  0  0  0  0  0  0  0
    7.9521  -15.3940   17.4744 C   0  0  0  0  0  0  0  0  0  0  0  0
    8.4673  -15.3220   18.7455 C   0  0  0  0  0  0  0  0  0  0  0  0
    8.4265  -14.1410   19.4336 C   0  0  0  0  0  0  0  0  0  0  0  0
    8.9732  -14.0446   20.7956 C   0  0  0  0  0  0  0  0  0  0  0  0
    8.7026  -15.2771   21.6255 C   0  0  2  0  0  0  0  0  0  0  0  0
    7.2995  -15.6191   21.6353 N   0  0  0  0  0  0  0  0  0  0  0  0
    9.1003  -14.9583   23.0261 C   0  0  0  0  0  0  0  0  0  0  0  0
   10.2752  -14.5997   23.2898 O   0  0  0  0  0  0  0  0  0  0  0  0
    7.8744  -12.9974   18.8827 C   0  0  0  0  0  0  0  0  0  0  0  0
    7.3611  -13.0731   17.6136 C   0  0  0  0  0  0  0  0  0  0  0  0
    6.1165  -11.8887   26.0989 C   0  0  0  0  0  0  0  0  0  0  0  0
    7.3184  -12.5508   25.3842 C   0  0  0  0  0  0  0  0  0  0  0  0
    7.6300  -13.8047   26.1020 C   0  0  2  0  0  0  0  0  0  0  0  0
    8.1790  -13.4039   27.4813 C   0  0  0  0  0  0  0  0  0  0  0  0
    8.6567  -14.6914   25.4418 C   0  0  2  0  0  0  0  0  0  0  0  0
    8.1795  -15.0468   24.0976 N   0  0  0  0  0  0  0  0  0  0  0  0
    8.7421  -15.9717   26.1704 C   0  0  0  0  0  0  0  0  0  0  0  0
    7.6977  -16.7005   26.3590 O   0  0  0  0  0  0  0  0  0  0  0  0
    9.9294  -16.5380   26.7221 N   0  0  0  0  0  0  0  0  0  0  0  0
    9.8990  -17.8293   27.3337 C   0  0  1  0  0  0  0  0  0  0  0  0
   10.4980  -18.9136   26.4631 C   0  0  0  0  0  0  0  0  0  0  0  0
   10.6030  -20.2172   27.1200 C   0  0  0  0  0  0  0  0  0  0  0  0
    9.7324  -20.5563   27.9556 O   0  0  0  0  0  0  0  0  0  0  0  0
   10.6227  -17.7803   28.6162 C   0  0  0  0  0  0  0  0  0  0  0  0
   10.5527  -18.7566   29.5870 O   0  0  0  0  0  0  0  0  0  0  0  0
   11.6336  -21.1111   26.8609 O   0  0  0  0  0  0  0  0  0  0  0  0
   11.3617  -16.7747   28.8501 O   0  0  0  0  0  0  0  0  0  0  0  0
  2  3  2  0
  2  1  1  0
  4  3  1  0
  5  4  2  0
  6  5  1  0
  7  6  1  0
  7  8  1  1
  9 18  1  0
  9  7  1  0
 10  9  2  0
 11  5  1  0
 11 12  2  0
 12  2  1  0
 13 14  1  0
 14 15  1  0
 15 17  1  0
 15 16  1  1
 17 18  1  6
 19 17  1  0
 20 19  2  0
 21 19  1  0
 22 26  1  0
 22 21  1  0
 23 24  1  0
 22 23  1  6
 24 25  2  0
 26 27  1  0
 28 24  1  0
 29 26  2  0
M  END
$$$$
