YID.pdb
     RDKit          3D

 29 29  0  0  1  0  0  0  0  0999 V2000
   11.3257  -15.6821   32.3668 O   0  0  0  0  0  0  0  0  0  0  0  0
   10.8824  -15.8934   31.0551 C   0  0  0  0  0  0  0  0  0  0  0  0
   10.4416  -14.7963   30.3257 C   0  0  0  0  0  0  0  0  0  0  0  0
   10.0028  -14.9823   29.0376 C   0  0  0  0  0  0  0  0  0  0  0  0
   10.0039  -16.2350   28.4894 C   0  0  0  0  0  0  0  0  0  0  0  0
    9.5377  -16.4537   27.1117 C   0  0  0  0  0  0  0  0  0  0  0  0
    8.1865  -17.1255   27.0486 C   0  0  2  0  0  0  0  0  0  0  0  0
    8.2878  -18.5524   27.2478 N   0  0  0  0  0  0  0  0  0  0  0  0
    7.6472  -16.8973   25.6780 C   0  0  0  0  0  0  0  0  0  0  0  0
    6.5812  -17.4519   25.3113 O   0  0  0  0  0  0  0  0  0  0  0  0
   10.4394  -17.3396   29.2009 C   0  0  0  0  0  0  0  0  0  0  0  0
   10.8767  -17.1500   30.4865 C   0  0  0  0  0  0  0  0  0  0  0  0
    7.1623  -12.0109   26.1427 C   0  0  0  0  0  0  0  0  0  0  0  0
    6.7836  -13.4314   25.6603 C   0  0  0  0  0  0  0  0  0  0  0  0
    7.6309  -13.7471   24.4911 C   0  0  2  0  0  0  0  0  0  0  0  0
    7.2339  -12.7664   23.3753 C   0  0  0  0  0  0  0  0  0  0  0  0
    7.4849  -15.1454   23.9436 C   0  0  2  0  0  0  0  0  0  0  0  0
    8.3088  -16.0570   24.7506 N   0  0  0  0  0  0  0  0  0  0  0  0
    8.0618  -15.2050   22.5868 C   0  0  0  0  0  0  0  0  0  0  0  0
    8.1286  -14.1543   21.8459 O   0  0  0  0  0  0  0  0  0  0  0  0
    8.5971  -16.3693   21.9601 N   0  0  0  0  0  0  0  0  0  0  0  0
    9.9032  -16.3438   21.3808 C   0  0  1  0  0  0  0  0  0  0  0  0
   10.9203  -15.6223   22.2395 C   0  0  0  0  0  0  0  0  0  0  0  0
   12.2714  -15.6040   21.6770 C   0  0  0  0  0  0  0  0  0  0  0  0
   13.1997  -16.1827   22.2888 O   0  0  0  0  0  0  0  0  0  0  0  0
   10.3597  -17.7243   21.1427 C   0  0  0  0  0  0  0  0  0  0  0  0
   10.6719  -18.2377   19.9019 O   0  0  0  0  0  0  0  0  0  0  0  0
   12.5819  -14.9685   20.4819 O   0  0  0  0  0  0  0  0  0  0  0  0
   10.4754  -18.4988   22.1421 O   0  0  0  0  0  0  0  0  0  0  0  0
  2  3  2  0
  2  1  1  0
  4  3  1  0
  5  4  2  0
  6  5  1  0
  7  6  1  0
  7  8  1  6
  9 18  1  0
  9  7  1  0
 10  9  2  0
 11  5  1  0
 11 12  2  0
 12  2  1  0
 13 14  1  0
 14 15  1  0
 15 17  1  0
 15 16  1  6
 17 18  1  1
 19 17  1  0
 20 19  2  0
 21 19  1  0
 22 26  1  0
 22 21  1  0
 23 24  1  0
 22 23  1  1
 24 25  2  0
 26 27  1  0
 28 24  1  0
 29 26  2  0
M  END
$$$$
