YID.pdb
     RDKit          3D

 29 29  0  0  1  0  0  0  0  0999 V2000
    4.2999  -21.6635   19.9620 O   0  0  0  0  0  0  0  0  0  0  0  0
    5.0689  -20.7207   20.6558 C   0  0  0  0  0  0  0  0  0  0  0  0
    6.3210  -20.3939   20.1504 C   0  0  0  0  0  0  0  0  0  0  0  0
    7.0908  -19.4715   20.8159 C   0  0  0  0  0  0  0  0  0  0  0  0
    6.6218  -18.8881   21.9603 C   0  0  0  0  0  0  0  0  0  0  0  0
    7.4317  -17.8984   22.6867 C   0  0  0  0  0  0  0  0  0  0  0  0
    7.1973  -16.4844   22.2104 C   0  0  2  0  0  0  0  0  0  0  0  0
    7.6949  -16.2810   20.8700 N   0  0  0  0  0  0  0  0  0  0  0  0
    7.9624  -15.5837   23.1186 C   0  0  0  0  0  0  0  0  0  0  0  0
    9.1544  -15.2814   22.8616 O   0  0  0  0  0  0  0  0  0  0  0  0
    5.3770  -19.2014   22.4785 C   0  0  0  0  0  0  0  0  0  0  0  0
    4.6114  -20.1226   21.8114 C   0  0  0  0  0  0  0  0  0  0  0  0
    6.8307  -11.2925   27.3192 C   0  0  0  0  0  0  0  0  0  0  0  0
    7.9332  -12.1780   26.6913 C   0  0  0  0  0  0  0  0  0  0  0  0
    7.2700  -13.1529   25.8001 C   0  0  2  0  0  0  0  0  0  0  0  0
    6.3166  -13.9815   26.6770 C   0  0  0  0  0  0  0  0  0  0  0  0
    8.1915  -14.1149   25.0918 C   0  0  2  0  0  0  0  0  0  0  0  0
    7.3804  -15.0423   24.2899 N   0  0  0  0  0  0  0  0  0  0  0  0
    8.8751  -14.9636   26.0867 C   0  0  0  0  0  0  0  0  0  0  0  0
    8.2609  -15.9353   26.6661 O   0  0  0  0  0  0  0  0  0  0  0  0
   10.2322  -14.8277   26.5049 N   0  0  0  0  0  0  0  0  0  0  0  0
   10.8450  -15.8348   27.3126 C   0  0  1  0  0  0  0  0  0  0  0  0
   12.3087  -16.0473   26.9886 C   0  0  0  0  0  0  0  0  0  0  0  0
   12.5853  -16.2235   25.5622 C   0  0  0  0  0  0  0  0  0  0  0  0
   11.8944  -17.0305   24.8972 O   0  0  0  0  0  0  0  0  0  0  0  0
   10.7094  -15.4715   28.7340 C   0  0  0  0  0  0  0  0  0  0  0  0
   11.0102  -16.3124   29.7843 O   0  0  0  0  0  0  0  0  0  0  0  0
   13.5896  -15.5315   24.8981 O   0  0  0  0  0  0  0  0  0  0  0  0
   10.2876  -14.3083   29.0184 O   0  0  0  0  0  0  0  0  0  0  0  0
  2  3  2  0
  2  1  1  0
  4  3  1  0
  5  4  2  0
  6  5  1  0
  7  6  1  0
  7  8  1  6
  9 18  1  0
  9  7  1  0
 10  9  2  0
 11  5  1  0
 11 12  2  0
 12  2  1  0
 13 14  1  0
 14 15  1  0
 15 17  1  0
 15 16  1  1
 17 18  1  6
 19 17  1  0
 20 19  2  0
 21 19  1  0
 22 26  1  0
 22 21  1  0
 23 24  1  0
 22 23  1  6
 24 25  2  0
 26 27  1  0
 28 24  1  0
 29 26  2  0
M  END
$$$$
