YID.pdb
     RDKit          3D

 29 29  0  0  1  0  0  0  0  0999 V2000
    6.2216  -20.0688   17.2277 O   0  0  0  0  0  0  0  0  0  0  0  0
    6.7303  -19.4080   18.3530 C   0  0  0  0  0  0  0  0  0  0  0  0
    5.8505  -18.6713   19.1360 C   0  0  0  0  0  0  0  0  0  0  0  0
    6.3295  -18.0159   20.2438 C   0  0  0  0  0  0  0  0  0  0  0  0
    7.6568  -18.0937   20.5633 C   0  0  0  0  0  0  0  0  0  0  0  0
    8.1880  -17.3986   21.7456 C   0  0  0  0  0  0  0  0  0  0  0  0
    8.0488  -15.8974   21.6561 C   0  0  2  0  0  0  0  0  0  0  0  0
    8.7703  -15.3587   20.5271 N   0  0  0  0  0  0  0  0  0  0  0  0
    8.6531  -15.3268   22.8933 C   0  0  0  0  0  0  0  0  0  0  0  0
    9.8572  -14.9685   22.9085 O   0  0  0  0  0  0  0  0  0  0  0  0
    8.5479  -18.8228   19.7949 C   0  0  0  0  0  0  0  0  0  0  0  0
    8.0661  -19.4758   18.6898 C   0  0  0  0  0  0  0  0  0  0  0  0
    5.8208  -12.1088   26.2992 C   0  0  0  0  0  0  0  0  0  0  0  0
    6.9850  -12.6117   25.4128 C   0  0  0  0  0  0  0  0  0  0  0  0
    7.5509  -13.8149   26.0583 C   0  0  2  0  0  0  0  0  0  0  0  0
    8.2401  -13.3450   27.3501 C   0  0  0  0  0  0  0  0  0  0  0  0
    8.5731  -14.5677   25.2429 C   0  0  2  0  0  0  0  0  0  0  0  0
    7.9011  -15.1696   24.0823 N   0  0  0  0  0  0  0  0  0  0  0  0
    9.0832  -15.7092   26.0266 C   0  0  0  0  0  0  0  0  0  0  0  0
    8.3011  -16.6600   26.4029 O   0  0  0  0  0  0  0  0  0  0  0  0
   10.4359  -15.8983   26.4381 N   0  0  0  0  0  0  0  0  0  0  0  0
   10.8385  -17.1190   27.0627 C   0  0  1  0  0  0  0  0  0  0  0  0
   12.2970  -17.4528   26.8300 C   0  0  0  0  0  0  0  0  0  0  0  0
   12.7396  -17.2651   25.4477 C   0  0  0  0  0  0  0  0  0  0  0  0
   12.0345  -17.7085   24.5110 O   0  0  0  0  0  0  0  0  0  0  0  0
   10.5843  -17.0342   28.5115 C   0  0  0  0  0  0  0  0  0  0  0  0
   10.5048  -18.1235   29.3527 O   0  0  0  0  0  0  0  0  0  0  0  0
   13.9187  -16.6108   25.1159 O   0  0  0  0  0  0  0  0  0  0  0  0
   10.4264  -15.8846   29.0267 O   0  0  0  0  0  0  0  0  0  0  0  0
  2  3  2  0
  2  1  1  0
  4  3  1  0
  5  4  2  0
  6  5  1  0
  7  6  1  0
  7  8  1  6
  9 18  1  0
  9  7  1  0
 10  9  2  0
 11  5  1  0
 11 12  2  0
 12  2  1  0
 13 14  1  0
 14 15  1  0
 15 17  1  0
 15 16  1  1
 17 18  1  6
 19 17  1  0
 20 19  2  0
 21 19  1  0
 22 26  1  0
 22 21  1  0
 23 24  1  0
 22 23  1  1
 24 25  2  0
 26 27  1  0
 28 24  1  0
 29 26  2  0
M  END
$$$$
