YID.pdb
     RDKit          3D

 29 29  0  0  1  0  0  0  0  0999 V2000
   11.0120  -20.7257   11.6517 O   0  0  0  0  0  0  0  0  0  0  0  0
   11.0770  -19.9847   12.8385 C   0  0  0  0  0  0  0  0  0  0  0  0
   12.3297  -19.6362   13.3278 C   0  0  0  0  0  0  0  0  0  0  0  0
   12.4151  -18.9097   14.4902 C   0  0  0  0  0  0  0  0  0  0  0  0
   11.2760  -18.5393   15.1498 C   0  0  0  0  0  0  0  0  0  0  0  0
   11.3475  -17.7612   16.3960 C   0  0  0  0  0  0  0  0  0  0  0  0
   11.1777  -16.2773   16.1723 C   0  0  2  0  0  0  0  0  0  0  0  0
   12.2997  -15.7107   15.4611 N   0  0  0  0  0  0  0  0  0  0  0  0
   11.1229  -15.6350   17.5161 C   0  0  0  0  0  0  0  0  0  0  0  0
   12.1760  -15.2497   18.0825 O   0  0  0  0  0  0  0  0  0  0  0  0
   10.0196  -18.8775   14.6774 C   0  0  0  0  0  0  0  0  0  0  0  0
    9.9384  -19.6028   13.5167 C   0  0  0  0  0  0  0  0  0  0  0  0
    6.8024  -12.5238   19.1208 C   0  0  0  0  0  0  0  0  0  0  0  0
    8.2688  -12.9315   18.8428 C   0  0  0  0  0  0  0  0  0  0  0  0
    8.5857  -14.0826   19.7140 C   0  0  2  0  0  0  0  0  0  0  0  0
    8.5628  -13.5652   21.1619 C   0  0  0  0  0  0  0  0  0  0  0  0
    9.9317  -14.7223   19.4787 C   0  0  2  0  0  0  0  0  0  0  0  0
    9.8965  -15.4381   18.1952 N   0  0  0  0  0  0  0  0  0  0  0  0
   10.1642  -15.7665   20.4950 C   0  0  0  0  0  0  0  0  0  0  0  0
    9.5733  -16.9080   20.4230 O   0  0  0  0  0  0  0  0  0  0  0  0
   11.0321  -15.6533   21.6214 N   0  0  0  0  0  0  0  0  0  0  0  0
   11.2254  -16.7631   22.5007 C   0  0  1  0  0  0  0  0  0  0  0  0
   12.6837  -17.0320   22.8068 C   0  0  0  0  0  0  0  0  0  0  0  0
   12.8999  -18.0339   23.8515 C   0  0  0  0  0  0  0  0  0  0  0  0
   12.3472  -19.1545   23.7523 O   0  0  0  0  0  0  0  0  0  0  0  0
   10.5008  -16.5210   23.7606 C   0  0  0  0  0  0  0  0  0  0  0  0
   10.0882  -17.5134   24.6240 O   0  0  0  0  0  0  0  0  0  0  0  0
   13.6982  -17.8027   24.9640 O   0  0  0  0  0  0  0  0  0  0  0  0
   10.2348  -15.3211   24.0787 O   0  0  0  0  0  0  0  0  0  0  0  0
  2  3  2  0
  2  1  1  0
  4  3  1  0
  5  4  2  0
  6  5  1  0
  7  6  1  0
  7  8  1  6
  9 18  1  0
  9  7  1  0
 10  9  2  0
 11  5  1  0
 11 12  2  0
 12  2  1  0
 13 14  1  0
 14 15  1  0
 15 17  1  0
 15 16  1  1
 17 18  1  6
 19 17  1  0
 20 19  2  0
 21 19  1  0
 22 26  1  0
 22 21  1  0
 23 24  1  0
 22 23  1  1
 24 25  2  0
 26 27  1  0
 28 24  1  0
 29 26  2  0
M  END
$$$$
