YID.pdb
     RDKit          3D

 29 29  0  0  1  0  0  0  0  0999 V2000
    7.1810  -14.2154   15.5168 O   0  0  0  0  0  0  0  0  0  0  0  0
    7.5825  -14.1266   16.8557 C   0  0  0  0  0  0  0  0  0  0  0  0
    8.2946  -15.1882   17.3999 C   0  0  0  0  0  0  0  0  0  0  0  0
    8.6976  -15.1207   18.7111 C   0  0  0  0  0  0  0  0  0  0  0  0
    8.3968  -14.0187   19.4627 C   0  0  0  0  0  0  0  0  0  0  0  0
    8.8199  -13.9284   20.8685 C   0  0  0  0  0  0  0  0  0  0  0  0
    8.6297  -15.2228   21.6231 C   0  0  2  0  0  0  0  0  0  0  0  0
    7.2364  -15.5927   21.7099 N   0  0  0  0  0  0  0  0  0  0  0  0
    9.1253  -14.9978   23.0107 C   0  0  0  0  0  0  0  0  0  0  0  0
   10.3453  -14.7895   23.2265 O   0  0  0  0  0  0  0  0  0  0  0  0
    7.6884  -12.9517   18.9375 C   0  0  0  0  0  0  0  0  0  0  0  0
    7.2878  -13.0227   17.6281 C   0  0  0  0  0  0  0  0  0  0  0  0
    6.1381  -12.1816   26.5413 C   0  0  0  0  0  0  0  0  0  0  0  0
    7.3112  -12.6905   25.6703 C   0  0  0  0  0  0  0  0  0  0  0  0
    7.7832  -13.9631   26.2553 C   0  0  2  0  0  0  0  0  0  0  0  0
    8.4159  -13.6210   27.6145 C   0  0  0  0  0  0  0  0  0  0  0  0
    8.8164  -14.7054   25.4443 C   0  0  2  0  0  0  0  0  0  0  0  0
    8.2495  -15.0106   24.1228 N   0  0  0  0  0  0  0  0  0  0  0  0
    9.0767  -16.0191   26.0638 C   0  0  0  0  0  0  0  0  0  0  0  0
    8.1103  -16.8096   26.3776 O   0  0  0  0  0  0  0  0  0  0  0  0
   10.3628  -16.5549   26.3701 N   0  0  0  0  0  0  0  0  0  0  0  0
   10.4825  -17.8104   27.0421 C   0  0  1  0  0  0  0  0  0  0  0  0
   11.7444  -18.5627   26.6758 C   0  0  0  0  0  0  0  0  0  0  0  0
   12.1020  -18.4753   25.2593 C   0  0  0  0  0  0  0  0  0  0  0  0
   11.2662  -18.8219   24.3918 O   0  0  0  0  0  0  0  0  0  0  0  0
   10.4532  -17.5904   28.4987 C   0  0  0  0  0  0  0  0  0  0  0  0
   10.5647  -16.3557   29.1017 O   0  0  0  0  0  0  0  0  0  0  0  0
   13.3388  -18.0212   24.8206 O   0  0  0  0  0  0  0  0  0  0  0  0
   10.3167  -18.6007   29.2555 O   0  0  0  0  0  0  0  0  0  0  0  0
  2  3  2  0
  2  1  1  0
  4  3  1  0
  5  4  2  0
  6  5  1  0
  7  6  1  0
  7  8  1  1
  9 18  1  0
  9  7  1  0
 10  9  2  0
 11  5  1  0
 11 12  2  0
 12  2  1  0
 13 14  1  0
 14 15  1  0
 15 17  1  0
 15 16  1  1
 17 18  1  6
 19 17  1  0
 20 19  2  0
 21 19  1  0
 22 26  1  0
 22 21  1  0
 23 24  1  0
 22 23  1  1
 24 25  2  0
 26 27  1  0
 28 24  1  0
 29 26  2  0
M  END
$$$$
