YID.pdb
     RDKit          3D

 29 29  0  0  1  0  0  0  0  0999 V2000
    1.2058  -19.7237   20.1048 O   0  0  0  0  0  0  0  0  0  0  0  0
    2.3061  -19.2153   20.8068 C   0  0  0  0  0  0  0  0  0  0  0  0
    3.0479  -18.1984   20.2188 C   0  0  0  0  0  0  0  0  0  0  0  0
    4.1306  -17.6862   20.8908 C   0  0  0  0  0  0  0  0  0  0  0  0
    4.4658  -18.1776   22.1220 C   0  0  0  0  0  0  0  0  0  0  0  0
    5.6218  -17.6417   22.8567 C   0  0  0  0  0  0  0  0  0  0  0  0
    6.1596  -16.3652   22.2549 C   0  0  2  0  0  0  0  0  0  0  0  0
    6.7900  -16.5993   20.9767 N   0  0  0  0  0  0  0  0  0  0  0  0
    7.2024  -15.8474   23.1854 C   0  0  0  0  0  0  0  0  0  0  0  0
    8.4209  -15.9414   22.8942 O   0  0  0  0  0  0  0  0  0  0  0  0
    3.7385  -19.1903   22.7232 C   0  0  0  0  0  0  0  0  0  0  0  0
    2.6583  -19.6992   22.0494 C   0  0  0  0  0  0  0  0  0  0  0  0
    5.8519  -11.8519   26.7764 C   0  0  0  0  0  0  0  0  0  0  0  0
    6.6682  -12.5179   25.6433 C   0  0  0  0  0  0  0  0  0  0  0  0
    7.3521  -13.6955   26.2177 C   0  0  2  0  0  0  0  0  0  0  0  0
    8.4994  -13.1621   27.0916 C   0  0  0  0  0  0  0  0  0  0  0  0
    7.9485  -14.6518   25.2146 C   0  0  2  0  0  0  0  0  0  0  0  0
    6.8618  -15.2379   24.4169 N   0  0  0  0  0  0  0  0  0  0  0  0
    8.5614  -15.7906   25.9251 C   0  0  0  0  0  0  0  0  0  0  0  0
    7.8434  -16.6128   26.6076 O   0  0  0  0  0  0  0  0  0  0  0  0
    9.9510  -16.1126   25.9392 N   0  0  0  0  0  0  0  0  0  0  0  0
   10.4179  -17.2738   26.6290 C   0  0  1  0  0  0  0  0  0  0  0  0
   11.7006  -17.8331   26.0507 C   0  0  0  0  0  0  0  0  0  0  0  0
   11.6191  -18.1660   24.6279 C   0  0  0  0  0  0  0  0  0  0  0  0
   11.8387  -17.2746   23.7745 O   0  0  0  0  0  0  0  0  0  0  0  0
   10.6272  -16.9473   28.0505 C   0  0  0  0  0  0  0  0  0  0  0  0
   10.6031  -17.8717   29.0730 O   0  0  0  0  0  0  0  0  0  0  0  0
   11.3060  -19.4384   24.1682 O   0  0  0  0  0  0  0  0  0  0  0  0
   10.8444  -15.7359   28.3621 O   0  0  0  0  0  0  0  0  0  0  0  0
  2  3  2  0
  2  1  1  0
  4  3  1  0
  5  4  2  0
  6  5  1  0
  7  6  1  0
  7  8  1  6
  9 18  1  0
  9  7  1  0
 10  9  2  0
 11  5  1  0
 11 12  2  0
 12  2  1  0
 13 14  1  0
 14 15  1  0
 15 17  1  0
 15 16  1  1
 17 18  1  6
 19 17  1  0
 20 19  2  0
 21 19  1  0
 22 26  1  0
 22 21  1  0
 23 24  1  0
 22 23  1  6
 24 25  2  0
 26 27  1  0
 28 24  1  0
 29 26  2  0
M  END
$$$$
