YID.pdb
     RDKit          3D

 29 29  0  0  1  0  0  0  0  0999 V2000
    6.1071  -16.5815   15.5864 O   0  0  0  0  0  0  0  0  0  0  0  0
    6.5908  -16.4393   16.8931 C   0  0  0  0  0  0  0  0  0  0  0  0
    7.9163  -16.0606   17.0656 C   0  0  0  0  0  0  0  0  0  0  0  0
    8.4100  -15.9157   18.3390 C   0  0  0  0  0  0  0  0  0  0  0  0
    7.5994  -16.1435   19.4164 C   0  0  0  0  0  0  0  0  0  0  0  0
    8.1102  -15.9934   20.7874 C   0  0  0  0  0  0  0  0  0  0  0  0
    8.2243  -14.5499   21.2167 C   0  0  2  0  0  0  0  0  0  0  0  0
    9.1592  -13.8184   20.3941 N   0  0  0  0  0  0  0  0  0  0  0  0
    8.7508  -14.5478   22.6111 C   0  0  0  0  0  0  0  0  0  0  0  0
    9.9712  -14.3473   22.8320 O   0  0  0  0  0  0  0  0  0  0  0  0
    6.2765  -16.5214   19.2637 C   0  0  0  0  0  0  0  0  0  0  0  0
    5.7871  -16.6651   17.9910 C   0  0  0  0  0  0  0  0  0  0  0  0
    5.9266  -12.0436   26.4445 C   0  0  0  0  0  0  0  0  0  0  0  0
    7.0873  -12.5105   25.5342 C   0  0  0  0  0  0  0  0  0  0  0  0
    7.4404  -13.8895   25.9318 C   0  0  2  0  0  0  0  0  0  0  0  0
    8.0095  -13.8100   27.3581 C   0  0  0  0  0  0  0  0  0  0  0  0
    8.4718  -14.5697   25.0658 C   0  0  2  0  0  0  0  0  0  0  0  0
    7.9047  -14.7691   23.7243 N   0  0  0  0  0  0  0  0  0  0  0  0
    8.7275  -15.9286   25.5810 C   0  0  0  0  0  0  0  0  0  0  0  0
    7.7571  -16.7216   25.8755 O   0  0  0  0  0  0  0  0  0  0  0  0
   10.0126  -16.5080   25.7992 N   0  0  0  0  0  0  0  0  0  0  0  0
   10.1299  -17.8355   26.3152 C   0  0  1  0  0  0  0  0  0  0  0  0
   11.3876  -18.5426   25.8562 C   0  0  0  0  0  0  0  0  0  0  0  0
   11.7085  -18.3341   24.4436 C   0  0  0  0  0  0  0  0  0  0  0  0
   10.7934  -18.3985   23.5894 O   0  0  0  0  0  0  0  0  0  0  0  0
   10.1064  -17.7919   27.7877 C   0  0  0  0  0  0  0  0  0  0  0  0
   10.1245  -16.6318   28.5323 O   0  0  0  0  0  0  0  0  0  0  0  0
   12.9946  -18.0645   23.9945 O   0  0  0  0  0  0  0  0  0  0  0  0
   10.0673  -18.8922   28.4200 O   0  0  0  0  0  0  0  0  0  0  0  0
  2  3  2  0
  2  1  1  0
  4  3  1  0
  5  4  2  0
  6  5  1  0
  7  6  1  0
  7  8  1  6
  9 18  1  0
  9  7  1  0
 10  9  2  0
 11  5  1  0
 11 12  2  0
 12  2  1  0
 13 14  1  0
 14 15  1  0
 15 17  1  0
 15 16  1  1
 17 18  1  6
 19 17  1  0
 20 19  2  0
 21 19  1  0
 22 26  1  0
 22 21  1  0
 23 24  1  0
 22 23  1  1
 24 25  2  0
 26 27  1  0
 28 24  1  0
 29 26  2  0
M  END
$$$$
