YID.pdb
     RDKit          3D

 29 29  0  0  1  0  0  0  0  0999 V2000
   11.1973  -14.7990   31.7771 O   0  0  0  0  0  0  0  0  0  0  0  0
   10.7791  -15.5040   30.6414 C   0  0  0  0  0  0  0  0  0  0  0  0
   10.7418  -16.8913   30.7060 C   0  0  0  0  0  0  0  0  0  0  0  0
   10.3346  -17.6013   29.6031 C   0  0  0  0  0  0  0  0  0  0  0  0
    9.9726  -16.9419   28.4612 C   0  0  0  0  0  0  0  0  0  0  0  0
    9.5339  -17.6851   27.2702 C   0  0  0  0  0  0  0  0  0  0  0  0
    8.0316  -17.7160   27.1178 C   0  0  2  0  0  0  0  0  0  0  0  0
    7.5282  -19.0677   27.0446 N   0  0  0  0  0  0  0  0  0  0  0  0
    7.7081  -17.0423   25.8283 C   0  0  0  0  0  0  0  0  0  0  0  0
    7.2141  -17.6939   24.8744 O   0  0  0  0  0  0  0  0  0  0  0  0
   10.0035  -15.5605   28.3786 C   0  0  0  0  0  0  0  0  0  0  0  0
   10.4106  -14.8551   29.4816 C   0  0  0  0  0  0  0  0  0  0  0  0
    6.4172  -11.8195   25.9471 C   0  0  0  0  0  0  0  0  0  0  0  0
    6.1581  -13.2315   25.3701 C   0  0  0  0  0  0  0  0  0  0  0  0
    7.3224  -13.5936   24.5347 C   0  0  2  0  0  0  0  0  0  0  0  0
    7.0837  -12.9771   23.1464 C   0  0  0  0  0  0  0  0  0  0  0  0
    7.5486  -15.0732   24.3448 C   0  0  2  0  0  0  0  0  0  0  0  0
    7.9429  -15.6600   25.6337 N   0  0  0  0  0  0  0  0  0  0  0  0
    8.7076  -15.2833   23.4560 C   0  0  0  0  0  0  0  0  0  0  0  0
    9.8645  -14.7988   23.7461 O   0  0  0  0  0  0  0  0  0  0  0  0
    8.6963  -16.0167   22.2326 N   0  0  0  0  0  0  0  0  0  0  0  0
    9.9083  -16.2325   21.5068 C   0  0  1  0  0  0  0  0  0  0  0  0
   10.0631  -17.6574   21.0187 C   0  0  0  0  0  0  0  0  0  0  0  0
   10.1243  -18.6526   22.0901 C   0  0  0  0  0  0  0  0  0  0  0  0
   10.6050  -18.3301   23.2018 O   0  0  0  0  0  0  0  0  0  0  0  0
    9.9584  -15.3157   20.3546 C   0  0  0  0  0  0  0  0  0  0  0  0
    8.8912  -14.5639   19.9113 O   0  0  0  0  0  0  0  0  0  0  0  0
    9.6700  -19.9557   21.9354 O   0  0  0  0  0  0  0  0  0  0  0  0
   11.0540  -15.2056   19.7226 O   0  0  0  0  0  0  0  0  0  0  0  0
  2  3  2  0
  2  1  1  0
  4  3  1  0
  5  4  2  0
  6  5  1  0
  7  6  1  0
  7  8  1  6
  9 18  1  0
  9  7  1  0
 10  9  2  0
 11  5  1  0
 11 12  2  0
 12  2  1  0
 13 14  1  0
 14 15  1  0
 15 17  1  0
 15 16  1  6
 17 18  1  1
 19 17  1  0
 20 19  2  0
 21 19  1  0
 22 26  1  0
 22 21  1  0
 23 24  1  0
 22 23  1  6
 24 25  2  0
 26 27  1  0
 28 24  1  0
 29 26  2  0
M  END
$$$$
