YID.pdb
     RDKit          3D

 29 29  0  0  1  0  0  0  0  0999 V2000
    7.1351  -14.0766   15.5634 O   0  0  0  0  0  0  0  0  0  0  0  0
    7.6132  -14.0549   16.8797 C   0  0  0  0  0  0  0  0  0  0  0  0
    8.5301  -15.0261   17.2620 C   0  0  0  0  0  0  0  0  0  0  0  0
    9.0110  -15.0222   18.5484 C   0  0  0  0  0  0  0  0  0  0  0  0
    8.5867  -14.0705   19.4338 C   0  0  0  0  0  0  0  0  0  0  0  0
    9.0905  -14.0503   20.8155 C   0  0  0  0  0  0  0  0  0  0  0  0
    8.6562  -15.2548   21.6165 C   0  0  2  0  0  0  0  0  0  0  0  0
    7.2178  -15.3712   21.6720 N   0  0  0  0  0  0  0  0  0  0  0  0
    9.1480  -15.0553   23.0093 C   0  0  0  0  0  0  0  0  0  0  0  0
   10.3799  -14.9959   23.2486 O   0  0  0  0  0  0  0  0  0  0  0  0
    7.6738  -13.0953   19.0708 C   0  0  0  0  0  0  0  0  0  0  0  0
    7.1959  -13.1023   17.7857 C   0  0  0  0  0  0  0  0  0  0  0  0
    6.0737  -12.0561   26.2958 C   0  0  0  0  0  0  0  0  0  0  0  0
    7.3152  -12.5526   25.5174 C   0  0  0  0  0  0  0  0  0  0  0  0
    7.7991  -13.7801   26.1834 C   0  0  2  0  0  0  0  0  0  0  0  0
    8.4519  -13.3420   27.5050 C   0  0  0  0  0  0  0  0  0  0  0  0
    8.8215  -14.5765   25.4109 C   0  0  2  0  0  0  0  0  0  0  0  0
    8.2552  -14.9269   24.1003 N   0  0  0  0  0  0  0  0  0  0  0  0
    9.0527  -15.8673   26.0874 C   0  0  0  0  0  0  0  0  0  0  0  0
    8.0682  -16.5983   26.4796 O   0  0  0  0  0  0  0  0  0  0  0  0
   10.3271  -16.4422   26.3708 N   0  0  0  0  0  0  0  0  0  0  0  0
   10.4204  -17.7032   27.0367 C   0  0  1  0  0  0  0  0  0  0  0  0
   11.5170  -18.5881   26.4827 C   0  0  0  0  0  0  0  0  0  0  0  0
   11.7142  -19.8322   27.2279 C   0  0  0  0  0  0  0  0  0  0  0  0
   12.3307  -19.8041   28.3189 O   0  0  0  0  0  0  0  0  0  0  0  0
   10.6546  -17.4811   28.4743 C   0  0  0  0  0  0  0  0  0  0  0  0
   11.5259  -16.5427   28.9850 O   0  0  0  0  0  0  0  0  0  0  0  0
   11.2461  -21.0609   26.7811 O   0  0  0  0  0  0  0  0  0  0  0  0
   10.0151  -18.1983   29.3042 O   0  0  0  0  0  0  0  0  0  0  0  0
  2  3  2  0
  2  1  1  0
  4  3  1  0
  5  4  2  0
  6  5  1  0
  7  6  1  0
  7  8  1  1
  9 18  1  0
  9  7  1  0
 10  9  2  0
 11  5  1  0
 11 12  2  0
 12  2  1  0
 13 14  1  0
 14 15  1  0
 15 17  1  0
 15 16  1  1
 17 18  1  6
 19 17  1  0
 20 19  2  0
 21 19  1  0
 22 26  1  0
 22 21  1  0
 23 24  1  0
 22 23  1  6
 24 25  2  0
 26 27  1  0
 28 24  1  0
 29 26  2  0
M  END
$$$$
