LQW.pdb
     RDKit          3D

 32 33  0  0  1  0  0  0  0  0999 V2000
    9.4992  -14.9334   19.3863 C   0  0  0  0  0  0  0  0  0  0  0  0
    8.2909  -14.3684   20.0750 C   0  0  1  0  0  0  0  0  0  0  0  0
    8.1617  -12.9010   19.6558 C   0  0  0  0  0  0  0  0  0  0  0  0
    7.0308  -15.1137   19.8184 C   0  0  0  0  0  0  0  0  0  0  0  0
    6.9122  -16.4678   20.4065 C   0  0  2  0  0  0  0  0  0  0  0  0
    5.7212  -17.0947   19.8496 N   0  0  0  0  0  0  0  0  0  0  0  0
    6.9198  -16.5615   21.8735 C   0  0  0  0  0  0  0  0  0  0  0  0
    6.0064  -15.9538   22.5304 O   0  0  0  0  0  0  0  0  0  0  0  0
    6.5487  -21.2703   24.9102 N   0  0  0  0  0  0  0  0  0  0  0  0
    6.7640  -20.4729   26.0536 C   0  0  0  0  0  0  0  0  0  0  0  0
    6.5492  -20.9675   27.1826 O   0  0  0  0  0  0  0  0  0  0  0  0
    7.2471  -19.0421   25.9184 C   0  0  0  0  0  0  0  0  0  0  0  0
    7.3318  -18.7486   24.4575 C   0  0  0  0  0  0  0  0  0  0  0  0
    7.8549  -17.3741   24.0990 C   0  0  2  0  0  0  0  0  0  0  0  0
    7.8554  -17.2725   22.6206 N   0  0  0  0  0  0  0  0  0  0  0  0
    9.1974  -17.0782   24.6280 C   0  0  0  0  0  0  0  0  0  0  0  0
   10.1996  -17.5574   24.0315 O   0  0  0  0  0  0  0  0  0  0  0  0
    9.3889  -16.2761   25.7722 N   0  0  0  0  0  0  0  0  0  0  0  0
   10.6080  -15.8170   26.3412 C   0  0  1  0  0  0  0  0  0  0  0  0
   10.6954  -14.3479   26.5353 C   0  0  0  0  0  0  0  0  0  0  0  0
    9.5753  -13.8158   27.3483 C   0  0  0  0  0  0  0  0  0  0  0  0
    9.4342  -13.9139   28.7328 C   0  0  0  0  0  0  0  0  0  0  0  0
    8.2793  -13.3045   29.0292 N   0  0  0  0  0  0  0  0  0  0  0  0
    7.6867  -12.8328   27.9379 C   0  0  0  0  0  0  0  0  0  0  0  0
    6.5042  -12.1387   27.6778 C   0  0  0  0  0  0  0  0  0  0  0  0
    6.1409  -11.7731   26.3963 C   0  0  0  0  0  0  0  0  0  0  0  0
    6.9431  -12.0857   25.3246 C   0  0  0  0  0  0  0  0  0  0  0  0
    8.1132  -12.7731   25.5859 C   0  0  0  0  0  0  0  0  0  0  0  0
    8.4721  -13.1366   26.8694 C   0  0  0  0  0  0  0  0  0  0  0  0
   11.1331  -16.6259   27.4814 C   0  0  0  0  0  0  0  0  0  0  0  0
   12.3186  -16.4202   27.9210 O   0  0  0  0  0  0  0  0  0  0  0  0
   10.4494  -17.6218   28.1421 O   0  0  0  0  0  0  0  0  0  0  0  0
  2  1  1  6
  3  2  1  0
  4  5  1  0
  4  2  1  0
  5  6  1  1
  7  5  1  0
  7  8  2  0
  9 10  1  0
 10 12  1  0
 11 10  2  0
 12 13  1  0
 14 13  1  6
 14 15  1  0
 15  7  1  0
 16 14  1  0
 17 16  2  0
 18 16  1  0
 19 20  1  1
 19 18  1  0
 20 21  1  0
 21 22  2  0
 21 29  1  0
 22 23  1  0
 23 24  1  0
 24 25  2  0
 25 26  1  0
 27 26  2  0
 28 27  1  0
 29 28  2  0
 29 24  1  0
 30 19  1  0
 31 30  2  0
 32 30  1  0
M  END
$$$$
