LQW.pdb
     RDKit          3D

 32 33  0  0  1  0  0  0  0  0999 V2000
    6.5306  -12.5166   19.0520 C   0  0  0  0  0  0  0  0  0  0  0  0
    7.8085  -13.2291   19.3880 C   0  0  1  0  0  0  0  0  0  0  0  0
    8.8768  -12.1647   19.6550 C   0  0  0  0  0  0  0  0  0  0  0  0
    7.7025  -14.1813   20.5243 C   0  0  0  0  0  0  0  0  0  0  0  0
    8.9401  -14.8798   20.9413 C   0  0  2  0  0  0  0  0  0  0  0  0
    9.7234  -15.1551   19.7445 N   0  0  0  0  0  0  0  0  0  0  0  0
    8.7800  -16.0925   21.7565 C   0  0  0  0  0  0  0  0  0  0  0  0
    7.6847  -16.2607   22.3946 O   0  0  0  0  0  0  0  0  0  0  0  0
   12.0202  -21.1590   20.8108 N   0  0  0  0  0  0  0  0  0  0  0  0
   11.2747  -21.6582   21.8992 C   0  0  0  0  0  0  0  0  0  0  0  0
   11.3976  -22.8634   22.2118 O   0  0  0  0  0  0  0  0  0  0  0  0
   10.3409  -20.7516   22.6771 C   0  0  0  0  0  0  0  0  0  0  0  0
   10.4545  -19.3911   22.0743 C   0  0  0  0  0  0  0  0  0  0  0  0
    9.5611  -18.3323   22.6843 C   0  0  2  0  0  0  0  0  0  0  0  0
    9.7393  -17.0927   21.8920 N   0  0  0  0  0  0  0  0  0  0  0  0
    9.8220  -18.0649   24.1091 C   0  0  0  0  0  0  0  0  0  0  0  0
    9.6699  -19.0041   24.9366 O   0  0  0  0  0  0  0  0  0  0  0  0
   10.2380  -16.7974   24.5670 N   0  0  0  0  0  0  0  0  0  0  0  0
   10.3894  -16.3420   25.9051 C   0  0  1  0  0  0  0  0  0  0  0  0
   10.0560  -14.9118   26.1223 C   0  0  0  0  0  0  0  0  0  0  0  0
    8.6157  -14.6275   25.9139 C   0  0  0  0  0  0  0  0  0  0  0  0
    7.6285  -15.5507   25.5682 C   0  0  0  0  0  0  0  0  0  0  0  0
    6.4880  -14.8546   25.4807 N   0  0  0  0  0  0  0  0  0  0  0  0
    6.6847  -13.5676   25.7445 C   0  0  0  0  0  0  0  0  0  0  0  0
    5.8722  -12.4339   25.7931 C   0  0  0  0  0  0  0  0  0  0  0  0
    6.3788  -11.1875   26.1054 C   0  0  0  0  0  0  0  0  0  0  0  0
    7.7155  -11.0236   26.3812 C   0  0  0  0  0  0  0  0  0  0  0  0
    8.5171  -12.1483   26.3320 C   0  0  0  0  0  0  0  0  0  0  0  0
    8.0056  -13.3928   26.0192 C   0  0  0  0  0  0  0  0  0  0  0  0
    9.8804  -17.2654   26.9627 C   0  0  0  0  0  0  0  0  0  0  0  0
   10.1021  -17.0093   28.1981 O   0  0  0  0  0  0  0  0  0  0  0  0
    9.1669  -18.4223   26.7437 O   0  0  0  0  0  0  0  0  0  0  0  0
  2  1  1  1
  3  2  1  0
  4  5  1  0
  4  2  1  0
  5  6  1  6
  7  5  1  0
  7  8  2  0
  9 10  1  0
 10 12  1  0
 11 10  2  0
 12 13  1  0
 14 13  1  6
 14 15  1  0
 15  7  1  0
 16 14  1  0
 17 16  2  0
 18 16  1  0
 19 20  1  6
 19 18  1  0
 20 21  1  0
 21 22  2  0
 21 29  1  0
 22 23  1  0
 23 24  1  0
 24 25  2  0
 25 26  1  0
 27 26  2  0
 28 27  1  0
 29 28  2  0
 29 24  1  0
 30 19  1  0
 31 30  2  0
 32 30  1  0
M  END
$$$$
