LQW.pdb
     RDKit          3D

 32 33  0  0  1  0  0  0  0  0999 V2000
    7.1673  -11.8776   20.4396 C   0  0  0  0  0  0  0  0  0  0  0  0
    7.6075  -13.2206   19.9336 C   0  0  1  0  0  0  0  0  0  0  0  0
    8.7532  -12.9904   18.9434 C   0  0  0  0  0  0  0  0  0  0  0  0
    8.0012  -14.1810   20.9974 C   0  0  0  0  0  0  0  0  0  0  0  0
    8.4308  -15.5313   20.5666 C   0  0  2  0  0  0  0  0  0  0  0  0
    7.3114  -16.1582   19.8770 N   0  0  0  0  0  0  0  0  0  0  0  0
    8.9761  -16.4205   21.6024 C   0  0  0  0  0  0  0  0  0  0  0  0
    8.1649  -17.1399   22.2804 O   0  0  0  0  0  0  0  0  0  0  0  0
   14.0277  -19.3476   21.4151 N   0  0  0  0  0  0  0  0  0  0  0  0
   13.9459  -19.4872   22.8163 C   0  0  0  0  0  0  0  0  0  0  0  0
   14.6718  -20.3355   23.3809 O   0  0  0  0  0  0  0  0  0  0  0  0
   12.9959  -18.6254   23.6248 C   0  0  0  0  0  0  0  0  0  0  0  0
   12.2973  -17.7264   22.6599 C   0  0  0  0  0  0  0  0  0  0  0  0
   10.8683  -17.3751   23.0151 C   0  0  2  0  0  0  0  0  0  0  0  0
   10.3281  -16.5483   21.9103 N   0  0  0  0  0  0  0  0  0  0  0  0
   10.7180  -16.6674   24.2981 C   0  0  0  0  0  0  0  0  0  0  0  0
   11.2783  -15.5465   24.4378 O   0  0  0  0  0  0  0  0  0  0  0  0
    9.9662  -17.2049   25.3636 N   0  0  0  0  0  0  0  0  0  0  0  0
    9.9493  -16.8071   26.7283 C   0  0  1  0  0  0  0  0  0  0  0  0
    8.5967  -16.6145   27.3087 C   0  0  0  0  0  0  0  0  0  0  0  0
    7.7218  -15.7858   26.4448 C   0  0  0  0  0  0  0  0  0  0  0  0
    6.7933  -16.2513   25.5133 C   0  0  0  0  0  0  0  0  0  0  0  0
    6.2431  -15.1604   24.9653 N   0  0  0  0  0  0  0  0  0  0  0  0
    6.7553  -14.0486   25.4812 C   0  0  0  0  0  0  0  0  0  0  0  0
    6.5533  -12.6823   25.2804 C   0  0  0  0  0  0  0  0  0  0  0  0
    7.2599  -11.7297   25.9883 C   0  0  0  0  0  0  0  0  0  0  0  0
    8.1952  -12.1031   26.9240 C   0  0  0  0  0  0  0  0  0  0  0  0
    8.3925  -13.4567   27.1202 C   0  0  0  0  0  0  0  0  0  0  0  0
    7.6834  -14.4056   26.4096 C   0  0  0  0  0  0  0  0  0  0  0  0
   10.9117  -17.5200   27.6203 C   0  0  0  0  0  0  0  0  0  0  0  0
   11.0423  -17.1578   28.8421 O   0  0  0  0  0  0  0  0  0  0  0  0
   11.7176  -18.5743   27.2534 O   0  0  0  0  0  0  0  0  0  0  0  0
  2  1  1  1
  3  2  1  0
  4  5  1  0
  4  2  1  0
  5  6  1  1
  7  5  1  0
  7  8  2  0
  9 10  1  0
 10 12  1  0
 11 10  2  0
 12 13  1  0
 14 13  1  6
 14 15  1  0
 15  7  1  0
 16 14  1  0
 17 16  2  0
 18 16  1  0
 19 20  1  1
 19 18  1  0
 20 21  1  0
 21 22  2  0
 21 29  1  0
 22 23  1  0
 23 24  1  0
 24 25  2  0
 25 26  1  0
 27 26  2  0
 28 27  1  0
 29 28  2  0
 29 24  1  0
 30 19  1  0
 31 30  2  0
 32 30  1  0
M  END
$$$$
