LQW.pdb
     RDKit          3D

 32 33  0  0  1  0  0  0  0  0999 V2000
    6.3683  -12.4958   19.2467 C   0  0  0  0  0  0  0  0  0  0  0  0
    7.6733  -13.2337   19.3217 C   0  0  1  0  0  0  0  0  0  0  0  0
    8.7878  -12.1924   19.4607 C   0  0  0  0  0  0  0  0  0  0  0  0
    7.7465  -14.2474   20.4062 C   0  0  0  0  0  0  0  0  0  0  0  0
    9.0517  -14.9118   20.6265 C   0  0  2  0  0  0  0  0  0  0  0  0
    9.4571  -15.5289   19.3709 N   0  0  0  0  0  0  0  0  0  0  0  0
    9.1330  -15.8726   21.7361 C   0  0  0  0  0  0  0  0  0  0  0  0
    8.1032  -16.0430   22.4747 O   0  0  0  0  0  0  0  0  0  0  0  0
   13.5720  -20.1810   22.5347 N   0  0  0  0  0  0  0  0  0  0  0  0
   12.6908  -20.0593   21.4400 C   0  0  0  0  0  0  0  0  0  0  0  0
   12.9329  -20.7059   20.3967 O   0  0  0  0  0  0  0  0  0  0  0  0
   11.4719  -19.1615   21.5250 C   0  0  0  0  0  0  0  0  0  0  0  0
   11.4878  -18.5347   22.8793 C   0  0  0  0  0  0  0  0  0  0  0  0
   10.3392  -17.5940   23.1746 C   0  0  2  0  0  0  0  0  0  0  0  0
   10.2588  -16.6280   22.0536 N   0  0  0  0  0  0  0  0  0  0  0  0
   10.4564  -16.8758   24.4552 C   0  0  0  0  0  0  0  0  0  0  0  0
   11.2463  -15.8956   24.5268 O   0  0  0  0  0  0  0  0  0  0  0  0
    9.7108  -17.2505   25.5923 N   0  0  0  0  0  0  0  0  0  0  0  0
    9.9163  -16.8829   26.9501 C   0  0  1  0  0  0  0  0  0  0  0  0
    8.6945  -16.4523   27.6750 C   0  0  0  0  0  0  0  0  0  0  0  0
    7.7704  -15.6735   26.8158 C   0  0  0  0  0  0  0  0  0  0  0  0
    6.8227  -16.1913   25.9326 C   0  0  0  0  0  0  0  0  0  0  0  0
    6.2272  -15.1325   25.3694 N   0  0  0  0  0  0  0  0  0  0  0  0
    6.7287  -13.9924   25.8313 C   0  0  0  0  0  0  0  0  0  0  0  0
    6.4861  -12.6387   25.5939 C   0  0  0  0  0  0  0  0  0  0  0  0
    7.1923  -11.6468   26.2460 C   0  0  0  0  0  0  0  0  0  0  0  0
    8.1678  -11.9668   27.1601 C   0  0  0  0  0  0  0  0  0  0  0  0
    8.4054  -13.3081   27.3926 C   0  0  0  0  0  0  0  0  0  0  0  0
    7.6964  -14.2965   26.7378 C   0  0  0  0  0  0  0  0  0  0  0  0
   10.8182  -17.7800   27.7323 C   0  0  0  0  0  0  0  0  0  0  0  0
   11.1835  -18.9062   27.2432 O   0  0  0  0  0  0  0  0  0  0  0  0
   11.3219  -17.5177   28.9865 O   0  0  0  0  0  0  0  0  0  0  0  0
  2  1  1  1
  3  2  1  0
  4  5  1  0
  4  2  1  0
  5  6  1  6
  7  5  1  0
  7  8  2  0
  9 10  1  0
 10 12  1  0
 11 10  2  0
 12 13  1  0
 14 13  1  6
 14 15  1  0
 15  7  1  0
 16 14  1  0
 17 16  2  0
 18 16  1  0
 19 20  1  1
 19 18  1  0
 20 21  1  0
 21 22  2  0
 21 29  1  0
 22 23  1  0
 23 24  1  0
 24 25  2  0
 25 26  1  0
 27 26  2  0
 28 27  1  0
 29 28  2  0
 29 24  1  0
 30 19  1  0
 31 30  2  0
 32 30  1  0
M  END
$$$$
