LQW.pdb
     RDKit          3D

 32 33  0  0  1  0  0  0  0  0999 V2000
    6.4299  -13.2620   18.3539 C   0  0  0  0  0  0  0  0  0  0  0  0
    7.8887  -13.5302   18.5848 C   0  0  1  0  0  0  0  0  0  0  0  0
    8.5832  -12.1795   18.7822 C   0  0  0  0  0  0  0  0  0  0  0  0
    8.1743  -14.4519   19.7153 C   0  0  0  0  0  0  0  0  0  0  0  0
    9.5887  -14.5997   20.1289 C   0  0  2  0  0  0  0  0  0  0  0  0
   10.3881  -14.7960   18.9273 N   0  0  0  0  0  0  0  0  0  0  0  0
    9.8862  -15.6307   21.1337 C   0  0  0  0  0  0  0  0  0  0  0  0
    9.0288  -15.8515   22.0563 O   0  0  0  0  0  0  0  0  0  0  0  0
   11.6530  -21.5797   22.3804 N   0  0  0  0  0  0  0  0  0  0  0  0
   12.5640  -20.6604   21.8196 C   0  0  0  0  0  0  0  0  0  0  0  0
   13.0686  -20.9163   20.7038 O   0  0  0  0  0  0  0  0  0  0  0  0
   12.9260  -19.3846   22.5548 C   0  0  0  0  0  0  0  0  0  0  0  0
   12.5127  -18.2476   21.6809 C   0  0  0  0  0  0  0  0  0  0  0  0
   11.3599  -17.4143   22.1988 C   0  0  2  0  0  0  0  0  0  0  0  0
   11.0449  -16.4024   21.1630 N   0  0  0  0  0  0  0  0  0  0  0  0
   11.6195  -16.7544   23.4898 C   0  0  0  0  0  0  0  0  0  0  0  0
   12.4459  -15.8028   23.5252 O   0  0  0  0  0  0  0  0  0  0  0  0
   10.9697  -17.1536   24.6763 N   0  0  0  0  0  0  0  0  0  0  0  0
    9.9019  -16.5137   25.3628 C   0  0  1  0  0  0  0  0  0  0  0  0
    8.7789  -16.0687   24.5000 C   0  0  0  0  0  0  0  0  0  0  0  0
    7.7320  -15.3448   25.2606 C   0  0  0  0  0  0  0  0  0  0  0  0
    6.5459  -15.8836   25.7599 C   0  0  0  0  0  0  0  0  0  0  0  0
    5.9090  -14.8735   26.3656 N   0  0  0  0  0  0  0  0  0  0  0  0
    6.6042  -13.7444   26.2840 C   0  0  0  0  0  0  0  0  0  0  0  0
    6.4146  -12.4338   26.7247 C   0  0  0  0  0  0  0  0  0  0  0  0
    7.3436  -11.4414   26.4797 C   0  0  0  0  0  0  0  0  0  0  0  0
    8.4976  -11.7179   25.7858 C   0  0  0  0  0  0  0  0  0  0  0  0
    8.6819  -13.0166   25.3510 C   0  0  0  0  0  0  0  0  0  0  0  0
    7.7498  -14.0057   25.5984 C   0  0  0  0  0  0  0  0  0  0  0  0
    9.4832  -17.1544   26.6451 C   0  0  0  0  0  0  0  0  0  0  0  0
    9.1362  -18.3874   26.6623 O   0  0  0  0  0  0  0  0  0  0  0  0
    9.4221  -16.5322   27.8718 O   0  0  0  0  0  0  0  0  0  0  0  0
  2  1  1  1
  3  2  1  0
  4  5  1  0
  4  2  1  0
  5  6  1  6
  7  5  1  0
  7  8  2  0
  9 10  1  0
 10 12  1  0
 11 10  2  0
 12 13  1  0
 14 13  1  6
 14 15  1  0
 15  7  1  0
 16 14  1  0
 17 16  2  0
 18 16  1  0
 19 20  1  6
 19 18  1  0
 20 21  1  0
 21 22  2  0
 21 29  1  0
 22 23  1  0
 23 24  1  0
 24 25  2  0
 25 26  1  0
 27 26  2  0
 28 27  1  0
 29 28  2  0
 29 24  1  0
 30 19  1  0
 31 30  2  0
 32 30  1  0
M  END
$$$$
