LQW.pdb
     RDKit          3D

 32 33  0  0  1  0  0  0  0  0999 V2000
    6.9629  -12.3236   18.9259 C   0  0  0  0  0  0  0  0  0  0  0  0
    8.0441  -13.3364   18.6838 C   0  0  1  0  0  0  0  0  0  0  0  0
    9.3857  -12.5979   18.7095 C   0  0  0  0  0  0  0  0  0  0  0  0
    8.0414  -14.4795   19.6337 C   0  0  0  0  0  0  0  0  0  0  0  0
    9.0248  -15.5611   19.3958 C   0  0  2  0  0  0  0  0  0  0  0  0
    8.7637  -16.1210   18.0768 N   0  0  0  0  0  0  0  0  0  0  0  0
    9.1099  -16.6212   20.4107 C   0  0  0  0  0  0  0  0  0  0  0  0
    8.6794  -17.7882   20.1142 O   0  0  0  0  0  0  0  0  0  0  0  0
   13.7724  -20.0430   21.4037 N   0  0  0  0  0  0  0  0  0  0  0  0
   12.4076  -20.3849   21.5037 C   0  0  0  0  0  0  0  0  0  0  0  0
   11.9601  -21.2983   20.7751 O   0  0  0  0  0  0  0  0  0  0  0  0
   11.4982  -19.6595   22.4762 C   0  0  0  0  0  0  0  0  0  0  0  0
   11.0564  -18.4030   21.8028 C   0  0  0  0  0  0  0  0  0  0  0  0
   10.0612  -17.5651   22.5767 C   0  0  2  0  0  0  0  0  0  0  0  0
    9.6323  -16.4571   21.6910 N   0  0  0  0  0  0  0  0  0  0  0  0
   10.5779  -17.0275   23.8470 C   0  0  0  0  0  0  0  0  0  0  0  0
   11.5528  -16.2286   23.8116 O   0  0  0  0  0  0  0  0  0  0  0  0
   10.0123  -17.3773   25.0908 N   0  0  0  0  0  0  0  0  0  0  0  0
   10.2978  -16.8450   26.3776 C   0  0  1  0  0  0  0  0  0  0  0  0
    9.9474  -15.4136   26.5560 C   0  0  0  0  0  0  0  0  0  0  0  0
    8.4958  -15.1603   26.3904 C   0  0  0  0  0  0  0  0  0  0  0  0
    7.5052  -16.1183   26.1729 C   0  0  0  0  0  0  0  0  0  0  0  0
    6.3536  -15.4418   26.0776 N   0  0  0  0  0  0  0  0  0  0  0  0
    6.5465  -14.1351   26.2183 C   0  0  0  0  0  0  0  0  0  0  0  0
    5.7234  -13.0081   26.2051 C   0  0  0  0  0  0  0  0  0  0  0  0
    6.2286  -11.7350   26.3832 C   0  0  0  0  0  0  0  0  0  0  0  0
    7.5743  -11.5367   26.5815 C   0  0  0  0  0  0  0  0  0  0  0  0
    8.3864  -12.6548   26.5940 C   0  0  0  0  0  0  0  0  0  0  0  0
    7.8763  -13.9261   26.4153 C   0  0  0  0  0  0  0  0  0  0  0  0
    9.9379  -17.7206   27.5326 C   0  0  0  0  0  0  0  0  0  0  0  0
    9.2235  -18.7673   27.3454 O   0  0  0  0  0  0  0  0  0  0  0  0
   10.3049  -17.5130   28.8433 O   0  0  0  0  0  0  0  0  0  0  0  0
  2  1  1  1
  3  2  1  0
  4  5  1  0
  4  2  1  0
  5  6  1  6
  7  5  1  0
  7  8  2  0
  9 10  1  0
 10 12  1  0
 11 10  2  0
 12 13  1  0
 14 13  1  6
 14 15  1  0
 15  7  1  0
 16 14  1  0
 17 16  2  0
 18 16  1  0
 19 20  1  1
 19 18  1  0
 20 21  1  0
 21 22  2  0
 21 29  1  0
 22 23  1  0
 23 24  1  0
 24 25  2  0
 25 26  1  0
 27 26  2  0
 28 27  1  0
 29 28  2  0
 29 24  1  0
 30 19  1  0
 31 30  2  0
 32 30  1  0
M  END
$$$$
