LQW.pdb
     RDKit          3D

 32 33  0  0  1  0  0  0  0  0999 V2000
    7.7949  -13.3338   18.2360 C   0  0  0  0  0  0  0  0  0  0  0  0
    7.9353  -14.1171   19.5089 C   0  0  1  0  0  0  0  0  0  0  0  0
    7.3987  -13.2479   20.6501 C   0  0  0  0  0  0  0  0  0  0  0  0
    7.2735  -15.4477   19.4896 C   0  0  0  0  0  0  0  0  0  0  0  0
    7.5401  -16.3542   20.6301 C   0  0  2  0  0  0  0  0  0  0  0  0
    6.9398  -15.7654   21.8195 N   0  0  0  0  0  0  0  0  0  0  0  0
    8.9414  -16.7243   20.8754 C   0  0  0  0  0  0  0  0  0  0  0  0
    9.3292  -17.8997   20.5543 O   0  0  0  0  0  0  0  0  0  0  0  0
   14.2354  -13.2962   19.8257 N   0  0  0  0  0  0  0  0  0  0  0  0
   14.3037  -14.6843   20.0661 C   0  0  0  0  0  0  0  0  0  0  0  0
   14.9210  -15.4073   19.2528 O   0  0  0  0  0  0  0  0  0  0  0  0
   13.6413  -15.2907   21.2878 C   0  0  0  0  0  0  0  0  0  0  0  0
   12.1686  -15.1278   21.1092 C   0  0  0  0  0  0  0  0  0  0  0  0
   11.3178  -16.2516   21.6611 C   0  0  2  0  0  0  0  0  0  0  0  0
    9.8997  -15.8843   21.4368 N   0  0  0  0  0  0  0  0  0  0  0  0
   11.5466  -16.5428   23.0867 C   0  0  0  0  0  0  0  0  0  0  0  0
   12.7342  -16.6202   23.5033 O   0  0  0  0  0  0  0  0  0  0  0  0
   10.4805  -16.7313   23.9907 N   0  0  0  0  0  0  0  0  0  0  0  0
   10.4888  -16.6266   25.4084 C   0  0  1  0  0  0  0  0  0  0  0  0
   10.1848  -15.2740   25.9391 C   0  0  0  0  0  0  0  0  0  0  0  0
    8.7400  -14.9481   25.8666 C   0  0  0  0  0  0  0  0  0  0  0  0
    7.7217  -15.7855   25.4100 C   0  0  0  0  0  0  0  0  0  0  0  0
    6.5891  -15.0792   25.5162 N   0  0  0  0  0  0  0  0  0  0  0  0
    6.8195  -13.8650   26.0033 C   0  0  0  0  0  0  0  0  0  0  0  0
    6.0283  -12.7559   26.3063 C   0  0  0  0  0  0  0  0  0  0  0  0
    6.5700  -11.5922   26.8164 C   0  0  0  0  0  0  0  0  0  0  0  0
    7.9218  -11.4897   27.0441 C   0  0  0  0  0  0  0  0  0  0  0  0
    8.7021  -12.5898   26.7428 C   0  0  0  0  0  0  0  0  0  0  0  0
    8.1556  -13.7515   26.2328 C   0  0  0  0  0  0  0  0  0  0  0  0
    9.8246  -17.7449   26.1420 C   0  0  0  0  0  0  0  0  0  0  0  0
    9.9260  -17.8251   27.4165 O   0  0  0  0  0  0  0  0  0  0  0  0
    9.0813  -18.7523   25.5691 O   0  0  0  0  0  0  0  0  0  0  0  0
  2  1  1  6
  3  2  1  0
  4  5  1  0
  4  2  1  0
  5  6  1  1
  7  5  1  0
  7  8  2  0
  9 10  1  0
 10 12  1  0
 11 10  2  0
 12 13  1  0
 14 13  1  1
 14 15  1  0
 15  7  1  0
 16 14  1  0
 17 16  2  0
 18 16  1  0
 19 20  1  6
 19 18  1  0
 20 21  1  0
 21 22  2  0
 21 29  1  0
 22 23  1  0
 23 24  1  0
 24 25  2  0
 25 26  1  0
 27 26  2  0
 28 27  1  0
 29 28  2  0
 29 24  1  0
 30 19  1  0
 31 30  2  0
 32 30  1  0
M  END
$$$$
