LQW.pdb
     RDKit          3D

 32 33  0  0  1  0  0  0  0  0999 V2000
    6.6726  -12.4449   18.4168 C   0  0  0  0  0  0  0  0  0  0  0  0
    7.8148  -13.3251   18.8341 C   0  0  1  0  0  0  0  0  0  0  0  0
    9.0362  -12.4274   19.0535 C   0  0  0  0  0  0  0  0  0  0  0  0
    7.5416  -14.1630   20.0309 C   0  0  0  0  0  0  0  0  0  0  0  0
    8.6661  -14.9613   20.5707 C   0  0  2  0  0  0  0  0  0  0  0  0
    9.1860  -15.7892   19.4909 N   0  0  0  0  0  0  0  0  0  0  0  0
    8.3973  -15.7677   21.7701 C   0  0  0  0  0  0  0  0  0  0  0  0
    7.8087  -15.2134   22.7608 O   0  0  0  0  0  0  0  0  0  0  0  0
    6.0527  -20.6046   23.0700 N   0  0  0  0  0  0  0  0  0  0  0  0
    7.0168  -20.7158   24.0936 C   0  0  0  0  0  0  0  0  0  0  0  0
    6.6531  -21.1099   25.2240 O   0  0  0  0  0  0  0  0  0  0  0  0
    8.4680  -20.3643   23.8300 C   0  0  0  0  0  0  0  0  0  0  0  0
    8.4792  -19.3760   22.7118 C   0  0  0  0  0  0  0  0  0  0  0  0
    8.4636  -17.9209   23.1290 C   0  0  2  0  0  0  0  0  0  0  0  0
    8.7347  -17.1105   21.9183 N   0  0  0  0  0  0  0  0  0  0  0  0
    9.4267  -17.5834   24.1911 C   0  0  0  0  0  0  0  0  0  0  0  0
   10.6523  -17.7946   23.9831 O   0  0  0  0  0  0  0  0  0  0  0  0
    9.0170  -17.0308   25.4224 N   0  0  0  0  0  0  0  0  0  0  0  0
    9.8184  -16.6217   26.5230 C   0  0  1  0  0  0  0  0  0  0  0  0
    9.4629  -15.3014   27.1011 C   0  0  0  0  0  0  0  0  0  0  0  0
    8.1009  -14.8611   26.7139 C   0  0  0  0  0  0  0  0  0  0  0  0
    7.0391  -15.6827   26.3343 C   0  0  0  0  0  0  0  0  0  0  0  0
    6.0155  -14.8616   26.0679 N   0  0  0  0  0  0  0  0  0  0  0  0
    6.3543  -13.5902   26.2509 C   0  0  0  0  0  0  0  0  0  0  0  0
    5.6987  -12.3649   26.1215 C   0  0  0  0  0  0  0  0  0  0  0  0
    6.3328  -11.1676   26.3898 C   0  0  0  0  0  0  0  0  0  0  0  0
    7.6454  -11.1460   26.7976 C   0  0  0  0  0  0  0  0  0  0  0  0
    8.2914  -12.3611   26.9246 C   0  0  0  0  0  0  0  0  0  0  0  0
    7.6528  -13.5560   26.6550 C   0  0  0  0  0  0  0  0  0  0  0  0
   10.1178  -17.6808   27.5323 C   0  0  0  0  0  0  0  0  0  0  0  0
    9.4965  -18.8003   27.4903 O   0  0  0  0  0  0  0  0  0  0  0  0
   11.0315  -17.5788   28.5571 O   0  0  0  0  0  0  0  0  0  0  0  0
  2  1  1  1
  3  2  1  0
  4  5  1  0
  4  2  1  0
  5  6  1  6
  7  5  1  0
  7  8  2  0
  9 10  1  0
 10 12  1  0
 11 10  2  0
 12 13  1  0
 14 13  1  6
 14 15  1  0
 15  7  1  0
 16 14  1  0
 17 16  2  0
 18 16  1  0
 19 20  1  1
 19 18  1  0
 20 21  1  0
 21 22  2  0
 21 29  1  0
 22 23  1  0
 23 24  1  0
 24 25  2  0
 25 26  1  0
 27 26  2  0
 28 27  1  0
 29 28  2  0
 29 24  1  0
 30 19  1  0
 31 30  2  0
 32 30  1  0
M  END
$$$$
