LQW.pdb
     RDKit          3D

 32 33  0  0  1  0  0  0  0  0999 V2000
    7.3876  -12.1261   21.8095 C   0  0  0  0  0  0  0  0  0  0  0  0
    7.2893  -13.4847   21.1787 C   0  0  1  0  0  0  0  0  0  0  0  0
    7.6650  -13.3385   19.7011 C   0  0  0  0  0  0  0  0  0  0  0  0
    8.1099  -14.5323   21.8408 C   0  0  0  0  0  0  0  0  0  0  0  0
    8.0030  -15.9118   21.3128 C   0  0  2  0  0  0  0  0  0  0  0  0
    6.6013  -16.3040   21.3660 N   0  0  0  0  0  0  0  0  0  0  0  0
    8.8596  -16.9326   21.9335 C   0  0  0  0  0  0  0  0  0  0  0  0
    8.3039  -17.9031   22.5535 O   0  0  0  0  0  0  0  0  0  0  0  0
   14.1805  -19.7851   19.8842 N   0  0  0  0  0  0  0  0  0  0  0  0
   13.6867  -18.4727   19.7317 C   0  0  0  0  0  0  0  0  0  0  0  0
   14.4047  -17.6209   19.1624 O   0  0  0  0  0  0  0  0  0  0  0  0
   12.3108  -18.0996   20.2481 C   0  0  0  0  0  0  0  0  0  0  0  0
   12.4234  -17.9714   21.7307 C   0  0  0  0  0  0  0  0  0  0  0  0
   11.1120  -17.9851   22.4867 C   0  0  2  0  0  0  0  0  0  0  0  0
   10.2517  -16.9311   21.8995 N   0  0  0  0  0  0  0  0  0  0  0  0
   11.2461  -17.7793   23.9390 C   0  0  0  0  0  0  0  0  0  0  0  0
   11.9317  -18.6025   24.6040 O   0  0  0  0  0  0  0  0  0  0  0  0
   10.6360  -16.6920   24.5984 N   0  0  0  0  0  0  0  0  0  0  0  0
   10.5955  -16.4065   25.9905 C   0  0  1  0  0  0  0  0  0  0  0  0
   10.0978  -15.0521   26.3387 C   0  0  0  0  0  0  0  0  0  0  0  0
    8.6582  -14.8798   26.0277 C   0  0  0  0  0  0  0  0  0  0  0  0
    7.7657  -15.8814   25.6448 C   0  0  0  0  0  0  0  0  0  0  0  0
    6.5866  -15.2736   25.4622 N   0  0  0  0  0  0  0  0  0  0  0  0
    6.6720  -13.9696   25.7007 C   0  0  0  0  0  0  0  0  0  0  0  0
    5.7786  -12.8980   25.6626 C   0  0  0  0  0  0  0  0  0  0  0  0
    6.1720  -11.6104   25.9710 C   0  0  0  0  0  0  0  0  0  0  0  0
    7.4717  -11.3418   26.3293 C   0  0  0  0  0  0  0  0  0  0  0  0
    8.3535  -12.4052   26.3659 C   0  0  0  0  0  0  0  0  0  0  0  0
    7.9552  -13.6913   26.0565 C   0  0  0  0  0  0  0  0  0  0  0  0
   10.0717  -17.5025   26.8591 C   0  0  0  0  0  0  0  0  0  0  0  0
   10.1831  -17.4199   28.1326 O   0  0  0  0  0  0  0  0  0  0  0  0
    9.4551  -18.6519   26.4184 O   0  0  0  0  0  0  0  0  0  0  0  0
  2  1  1  1
  3  2  1  0
  4  5  1  0
  4  2  1  0
  5  6  1  1
  7  5  1  0
  7  8  2  0
  9 10  1  0
 10 12  1  0
 11 10  2  0
 12 13  1  0
 14 13  1  6
 14 15  1  0
 15  7  1  0
 16 14  1  0
 17 16  2  0
 18 16  1  0
 19 20  1  6
 19 18  1  0
 20 21  1  0
 21 22  2  0
 21 29  1  0
 22 23  1  0
 23 24  1  0
 24 25  2  0
 25 26  1  0
 27 26  2  0
 28 27  1  0
 29 28  2  0
 29 24  1  0
 30 19  1  0
 31 30  2  0
 32 30  1  0
M  END
$$$$
