LQW.pdb
     RDKit          3D

 32 33  0  0  1  0  0  0  0  0999 V2000
    7.5635  -12.0626   19.9053 C   0  0  0  0  0  0  0  0  0  0  0  0
    7.8225  -13.4538   19.4045 C   0  0  1  0  0  0  0  0  0  0  0  0
    8.7752  -13.3471   18.2100 C   0  0  0  0  0  0  0  0  0  0  0  0
    8.3504  -14.3899   20.4312 C   0  0  0  0  0  0  0  0  0  0  0  0
    8.5990  -15.7879   20.0103 C   0  0  2  0  0  0  0  0  0  0  0  0
    7.3470  -16.3316   19.5020 N   0  0  0  0  0  0  0  0  0  0  0  0
    9.1988  -16.6882   21.0056 C   0  0  0  0  0  0  0  0  0  0  0  0
    8.4239  -17.3444   21.7828 O   0  0  0  0  0  0  0  0  0  0  0  0
   14.4625  -20.9479   21.9188 N   0  0  0  0  0  0  0  0  0  0  0  0
   13.3034  -20.3321   22.4354 C   0  0  0  0  0  0  0  0  0  0  0  0
   12.2568  -21.0096   22.5404 O   0  0  0  0  0  0  0  0  0  0  0  0
   13.3241  -18.8756   22.8562 C   0  0  0  0  0  0  0  0  0  0  0  0
   12.5346  -18.1190   21.8406 C   0  0  0  0  0  0  0  0  0  0  0  0
   11.1780  -17.6310   22.3023 C   0  0  2  0  0  0  0  0  0  0  0  0
   10.5662  -16.8910   21.1735 N   0  0  0  0  0  0  0  0  0  0  0  0
   11.2153  -16.7811   23.5047 C   0  0  0  0  0  0  0  0  0  0  0  0
   11.7980  -15.6650   23.4364 O   0  0  0  0  0  0  0  0  0  0  0  0
   10.6175  -17.1785   24.7188 N   0  0  0  0  0  0  0  0  0  0  0  0
   10.5003  -16.4476   25.9324 C   0  0  1  0  0  0  0  0  0  0  0  0
   10.0237  -15.0501   25.7793 C   0  0  0  0  0  0  0  0  0  0  0  0
    8.5459  -14.9451   25.8419 C   0  0  0  0  0  0  0  0  0  0  0  0
    7.6312  -15.9832   25.6627 C   0  0  0  0  0  0  0  0  0  0  0  0
    6.4183  -15.4325   25.7981 N   0  0  0  0  0  0  0  0  0  0  0  0
    6.5027  -14.1305   26.0477 C   0  0  0  0  0  0  0  0  0  0  0  0
    5.5817  -13.1049   26.2663 C   0  0  0  0  0  0  0  0  0  0  0  0
    5.9822  -11.8051   26.5064 C   0  0  0  0  0  0  0  0  0  0  0  0
    7.3170  -11.4778   26.5380 C   0  0  0  0  0  0  0  0  0  0  0  0
    8.2261  -12.4958   26.3212 C   0  0  0  0  0  0  0  0  0  0  0  0
    7.8205  -13.7944   26.0813 C   0  0  0  0  0  0  0  0  0  0  0  0
    9.8909  -17.1893   27.0763 C   0  0  0  0  0  0  0  0  0  0  0  0
    9.8827  -16.6684   28.2466 O   0  0  0  0  0  0  0  0  0  0  0  0
    9.3117  -18.4365   27.0080 O   0  0  0  0  0  0  0  0  0  0  0  0
  2  1  1  1
  3  2  1  0
  4  5  1  0
  4  2  1  0
  5  6  1  1
  7  5  1  0
  7  8  2  0
  9 10  1  0
 10 12  1  0
 11 10  2  0
 12 13  1  0
 14 13  1  6
 14 15  1  0
 15  7  1  0
 16 14  1  0
 17 16  2  0
 18 16  1  0
 19 20  1  6
 19 18  1  0
 20 21  1  0
 21 22  2  0
 21 29  1  0
 22 23  1  0
 23 24  1  0
 24 25  2  0
 25 26  1  0
 27 26  2  0
 28 27  1  0
 29 28  2  0
 29 24  1  0
 30 19  1  0
 31 30  2  0
 32 30  1  0
M  END
$$$$
