LQW.pdb
     RDKit          3D

 32 33  0  0  1  0  0  0  0  0999 V2000
    7.6058  -13.6351   18.2345 C   0  0  0  0  0  0  0  0  0  0  0  0
    7.5984  -14.1038   19.6606 C   0  0  1  0  0  0  0  0  0  0  0  0
    6.3981  -13.4546   20.3561 C   0  0  0  0  0  0  0  0  0  0  0  0
    7.5796  -15.5810   19.8235 C   0  0  0  0  0  0  0  0  0  0  0  0
    7.6893  -16.1127   21.2014 C   0  0  2  0  0  0  0  0  0  0  0  0
    7.2739  -15.0621   22.1208 N   0  0  0  0  0  0  0  0  0  0  0  0
    8.9876  -16.6768   21.5980 C   0  0  0  0  0  0  0  0  0  0  0  0
    9.3582  -17.7845   21.0776 O   0  0  0  0  0  0  0  0  0  0  0  0
   15.6357  -14.7317   23.2888 N   0  0  0  0  0  0  0  0  0  0  0  0
   14.5605  -15.0411   22.4297 C   0  0  0  0  0  0  0  0  0  0  0  0
   14.3733  -14.3293   21.4180 O   0  0  0  0  0  0  0  0  0  0  0  0
   13.6475  -16.2148   22.7259 C   0  0  0  0  0  0  0  0  0  0  0  0
   12.2550  -15.7673   22.4295 C   0  0  0  0  0  0  0  0  0  0  0  0
   11.1571  -16.6800   22.9324 C   0  0  2  0  0  0  0  0  0  0  0  0
    9.8643  -16.0926   22.5085 N   0  0  0  0  0  0  0  0  0  0  0  0
   11.1638  -16.8921   24.3900 C   0  0  0  0  0  0  0  0  0  0  0  0
   12.2446  -17.2286   24.9455 O   0  0  0  0  0  0  0  0  0  0  0  0
   10.0032  -16.7257   25.1740 N   0  0  0  0  0  0  0  0  0  0  0  0
    9.8329  -16.9491   26.5676 C   0  0  1  0  0  0  0  0  0  0  0  0
    8.5521  -16.4528   27.1304 C   0  0  0  0  0  0  0  0  0  0  0  0
    7.8580  -15.5129   26.2174 C   0  0  0  0  0  0  0  0  0  0  0  0
    6.9552  -15.8496   25.2084 C   0  0  0  0  0  0  0  0  0  0  0  0
    6.5900  -14.6933   24.6405 N   0  0  0  0  0  0  0  0  0  0  0  0
    7.1942  -13.6593   25.2155 C   0  0  0  0  0  0  0  0  0  0  0  0
    7.1803  -12.2767   25.0257 C   0  0  0  0  0  0  0  0  0  0  0  0
    7.9417  -11.4269   25.8040 C   0  0  0  0  0  0  0  0  0  0  0  0
    8.7465  -11.9233   26.8018 C   0  0  0  0  0  0  0  0  0  0  0  0
    8.7578  -13.2927   26.9868 C   0  0  0  0  0  0  0  0  0  0  0  0
    7.9945  -14.1386   26.2057 C   0  0  0  0  0  0  0  0  0  0  0  0
   10.2467  -18.2967   27.0605 C   0  0  0  0  0  0  0  0  0  0  0  0
   10.4889  -19.2379   26.2260 O   0  0  0  0  0  0  0  0  0  0  0  0
   10.3997  -18.6574   28.3803 O   0  0  0  0  0  0  0  0  0  0  0  0
  2  1  1  6
  3  2  1  0
  4  5  1  0
  4  2  1  0
  5  6  1  1
  7  5  1  0
  7  8  2  0
  9 10  1  0
 10 12  1  0
 11 10  2  0
 12 13  1  0
 14 13  1  1
 14 15  1  0
 15  7  1  0
 16 14  1  0
 17 16  2  0
 18 16  1  0
 19 20  1  6
 19 18  1  0
 20 21  1  0
 21 22  2  0
 21 29  1  0
 22 23  1  0
 23 24  1  0
 24 25  2  0
 25 26  1  0
 27 26  2  0
 28 27  1  0
 29 28  2  0
 29 24  1  0
 30 19  1  0
 31 30  2  0
 32 30  1  0
M  END
$$$$
