FHL.pdb
     RDKit          3D

 30 31  0  0  1  0  0  0  0  0999 V2000
    6.4488  -18.2186   21.9125 N   0  0  0  0  0  0  0  0  0  0  0  0
    7.0517  -16.9758   22.3562 C   0  0  1  0  0  0  0  0  0  0  0  0
    6.1454  -16.3835   23.3999 C   0  0  0  0  0  0  0  0  0  0  0  0
    6.5974  -15.0791   23.8977 C   0  0  0  0  0  0  0  0  0  0  0  0
    6.5559  -14.6928   25.2217 C   0  0  0  0  0  0  0  0  0  0  0  0
    7.0069  -13.4416   25.5827 C   0  0  0  0  0  0  0  0  0  0  0  0
    7.5098  -12.5292   24.6788 C   0  0  0  0  0  0  0  0  0  0  0  0
    7.5503  -12.9202   23.3490 C   0  0  0  0  0  0  0  0  0  0  0  0
    7.1000  -14.1722   22.9810 C   0  0  0  0  0  0  0  0  0  0  0  0
    8.3528  -17.2936   23.0457 C   0  0  0  0  0  0  0  0  0  0  0  0
    8.3859  -18.1857   23.9535 O   0  0  0  0  0  0  0  0  0  0  0  0
    9.5518  -16.6388   22.7269 N   0  0  0  0  0  0  0  0  0  0  0  0
   10.8480  -17.0012   23.2169 C   0  0  1  0  0  0  0  0  0  0  0  0
   11.9575  -16.6453   22.3000 C   0  0  0  0  0  0  0  0  0  0  0  0
   11.9922  -17.3628   21.0163 C   0  0  0  0  0  0  0  0  0  0  0  0
   11.4238  -18.5621   20.6866 C   0  0  0  0  0  0  0  0  0  0  0  0
   11.7147  -18.8836   19.3986 N   0  0  0  0  0  0  0  0  0  0  0  0
   12.4560  -17.8943   18.9350 C   0  0  0  0  0  0  0  0  0  0  0  0
   12.6406  -16.9660   19.8816 N   0  0  0  0  0  0  0  0  0  0  0  0
   11.0740  -16.3775   24.5848 C   0  0  0  0  0  0  0  0  0  0  0  0
   11.3898  -15.1632   24.6935 O   0  0  0  0  0  0  0  0  0  0  0  0
    8.6488  -14.0727   28.7061 C   0  0  0  0  0  0  0  0  0  0  0  0
    9.9455  -14.8326   28.5210 C   0  0  2  0  0  0  0  0  0  0  0  0
   11.1687  -14.0726   28.9288 C   0  0  0  0  0  0  0  0  0  0  0  0
   10.0335  -15.6091   27.2663 C   0  0  0  0  0  0  0  0  0  0  0  0
   11.1150  -16.6045   27.1060 C   0  0  2  0  0  0  0  0  0  0  0  0
   10.9282  -17.1659   25.7405 N   0  0  0  0  0  0  0  0  0  0  0  0
   11.1250  -17.7149   28.0849 C   0  0  0  0  0  0  0  0  0  0  0  0
   11.8568  -17.6315   29.1207 O   0  0  0  0  0  0  0  0  0  0  0  0
   10.3829  -18.8767   27.9768 O   0  0  0  0  0  0  0  0  0  0  0  0
  2  1  1  1
  2  3  1  0
  2 10  1  0
  3  4  1  0
  4  9  1  0
  5  4  2  0
  5  6  1  0
  6  7  2  0
  7  8  1  0
  9  8  2  0
 10 12  1  0
 10 11  2  0
 12 13  1  0
 13 20  1  0
 13 14  1  6
 14 15  1  0
 15 16  2  0
 16 17  1  0
 18 17  1  0
 19 15  1  0
 19 18  2  0
 20 21  2  0
 23 22  1  6
 23 24  1  0
 23 25  1  0
 26 25  1  1
 26 28  1  0
 27 20  1  0
 27 26  1  0
 28 29  2  0
 28 30  1  0
M  END
$$$$
