FHL.pdb
     RDKit          3D

 30 31  0  0  1  0  0  0  0  0999 V2000
    6.2622  -18.1006   22.0313 N   0  0  0  0  0  0  0  0  0  0  0  0
    6.9046  -16.8852   22.4953 C   0  0  1  0  0  0  0  0  0  0  0  0
    6.1346  -16.3980   23.6916 C   0  0  0  0  0  0  0  0  0  0  0  0
    6.6033  -15.1052   24.2043 C   0  0  0  0  0  0  0  0  0  0  0  0
    6.6532  -14.7684   25.5414 C   0  0  0  0  0  0  0  0  0  0  0  0
    7.1115  -13.5238   25.9158 C   0  0  0  0  0  0  0  0  0  0  0  0
    7.5339  -12.5705   25.0128 C   0  0  0  0  0  0  0  0  0  0  0  0
    7.4826  -12.9118   23.6698 C   0  0  0  0  0  0  0  0  0  0  0  0
    7.0245  -14.1569   23.2884 C   0  0  0  0  0  0  0  0  0  0  0  0
    8.2870  -17.2304   22.9841 C   0  0  0  0  0  0  0  0  0  0  0  0
    8.4460  -18.1898   23.8060 O   0  0  0  0  0  0  0  0  0  0  0  0
    9.4284  -16.5296   22.5670 N   0  0  0  0  0  0  0  0  0  0  0  0
   10.7693  -16.8068   22.9875 C   0  0  1  0  0  0  0  0  0  0  0  0
   11.8057  -16.3403   22.0354 C   0  0  0  0  0  0  0  0  0  0  0  0
   11.8799  -17.0605   20.7549 C   0  0  0  0  0  0  0  0  0  0  0  0
   11.0431  -18.0224   20.2604 C   0  0  0  0  0  0  0  0  0  0  0  0
   11.4808  -18.4496   19.0467 N   0  0  0  0  0  0  0  0  0  0  0  0
   12.5775  -17.7601   18.7919 C   0  0  0  0  0  0  0  0  0  0  0  0
   12.8438  -16.9180   19.7979 N   0  0  0  0  0  0  0  0  0  0  0  0
   11.0108  -16.2087   24.3642 C   0  0  0  0  0  0  0  0  0  0  0  0
   11.2929  -14.9883   24.4946 O   0  0  0  0  0  0  0  0  0  0  0  0
    8.2873  -14.1039   28.3533 C   0  0  0  0  0  0  0  0  0  0  0  0
    9.6150  -14.8261   28.2597 C   0  0  2  0  0  0  0  0  0  0  0  0
   10.7812  -14.0408   28.7729 C   0  0  0  0  0  0  0  0  0  0  0  0
    9.8221  -15.5794   27.0047 C   0  0  0  0  0  0  0  0  0  0  0  0
   10.9940  -16.4724   26.8821 C   0  0  2  0  0  0  0  0  0  0  0  0
   10.9176  -17.0282   25.5038 N   0  0  0  0  0  0  0  0  0  0  0  0
   11.0605  -17.5918   27.8486 C   0  0  0  0  0  0  0  0  0  0  0  0
   11.8089  -17.4942   28.8711 O   0  0  0  0  0  0  0  0  0  0  0  0
   10.3562  -18.7772   27.7419 O   0  0  0  0  0  0  0  0  0  0  0  0
  2  1  1  1
  2  3  1  0
  2 10  1  0
  3  4  1  0
  4  9  1  0
  5  4  2  0
  5  6  1  0
  6  7  2  0
  7  8  1  0
  9  8  2  0
 10 12  1  0
 10 11  2  0
 12 13  1  0
 13 20  1  0
 13 14  1  6
 14 15  1  0
 15 16  2  0
 16 17  1  0
 18 17  1  0
 19 15  1  0
 19 18  2  0
 20 21  2  0
 23 22  1  6
 23 24  1  0
 23 25  1  0
 26 25  1  1
 26 28  1  0
 27 20  1  0
 27 26  1  0
 28 29  2  0
 28 30  1  0
M  END
$$$$
