FHL.pdb
     RDKit          3D

 30 31  0  0  1  0  0  0  0  0999 V2000
    5.5996  -18.1256   22.9460 N   0  0  0  0  0  0  0  0  0  0  0  0
    6.2340  -16.8566   23.2495 C   0  0  1  0  0  0  0  0  0  0  0  0
    5.9252  -16.5311   24.6848 C   0  0  0  0  0  0  0  0  0  0  0  0
    6.4179  -15.2148   25.1072 C   0  0  0  0  0  0  0  0  0  0  0  0
    6.9283  -14.2615   24.2501 C   0  0  0  0  0  0  0  0  0  0  0  0
    7.3648  -13.0548   24.7525 C   0  0  0  0  0  0  0  0  0  0  0  0
    7.3215  -12.7337   26.0932 C   0  0  0  0  0  0  0  0  0  0  0  0
    6.8080  -13.6936   26.9521 C   0  0  0  0  0  0  0  0  0  0  0  0
    6.3692  -14.9044   26.4550 C   0  0  0  0  0  0  0  0  0  0  0  0
    7.7273  -17.0336   23.1597 C   0  0  0  0  0  0  0  0  0  0  0  0
    8.2661  -18.0969   23.6073 O   0  0  0  0  0  0  0  0  0  0  0  0
    8.5667  -16.0620   22.5946 N   0  0  0  0  0  0  0  0  0  0  0  0
    9.9850  -16.1845   22.4367 C   0  0  1  0  0  0  0  0  0  0  0  0
   10.5569  -15.2701   21.4192 C   0  0  0  0  0  0  0  0  0  0  0  0
    9.5992  -14.6653   20.4807 C   0  0  0  0  0  0  0  0  0  0  0  0
    8.2662  -14.9277   20.3252 C   0  0  0  0  0  0  0  0  0  0  0  0
    7.7487  -14.1646   19.3268 N   0  0  0  0  0  0  0  0  0  0  0  0
    8.7505  -13.4372   18.8680 C   0  0  0  0  0  0  0  0  0  0  0  0
    9.8747  -13.7145   19.5397 N   0  0  0  0  0  0  0  0  0  0  0  0
   10.6718  -15.9773   23.7770 C   0  0  0  0  0  0  0  0  0  0  0  0
   11.8595  -15.5621   23.8335 O   0  0  0  0  0  0  0  0  0  0  0  0
    8.9438  -13.3656   28.7294 C   0  0  0  0  0  0  0  0  0  0  0  0
    9.9487  -14.3806   28.2263 C   0  0  2  0  0  0  0  0  0  0  0  0
   11.3683  -14.0735   28.5877 C   0  0  0  0  0  0  0  0  0  0  0  0
    9.7032  -14.8648   26.8514 C   0  0  0  0  0  0  0  0  0  0  0  0
   10.5460  -15.9501   26.3055 C   0  0  2  0  0  0  0  0  0  0  0  0
    9.9723  -16.2522   24.9660 N   0  0  0  0  0  0  0  0  0  0  0  0
   10.5926  -17.1977   27.1008 C   0  0  0  0  0  0  0  0  0  0  0  0
    9.6082  -18.0008   27.0665 O   0  0  0  0  0  0  0  0  0  0  0  0
   11.6472  -17.5886   27.9056 O   0  0  0  0  0  0  0  0  0  0  0  0
  2  1  1  1
  2  3  1  0
  2 10  1  0
  3  4  1  0
  4  9  1  0
  5  4  2  0
  5  6  1  0
  6  7  2  0
  7  8  1  0
  9  8  2  0
 10 12  1  0
 10 11  2  0
 12 13  1  0
 13 20  1  0
 13 14  1  6
 14 15  1  0
 15 16  2  0
 16 17  1  0
 18 17  1  0
 19 15  1  0
 19 18  2  0
 20 21  2  0
 23 22  1  6
 23 24  1  0
 23 25  1  0
 26 25  1  1
 26 28  1  0
 27 20  1  0
 27 26  1  0
 28 29  2  0
 28 30  1  0
M  END
$$$$
