FHL.pdb
     RDKit          3D

 30 31  0  0  1  0  0  0  0  0999 V2000
    7.6117  -17.4785   18.3201 N   0  0  0  0  0  0  0  0  0  0  0  0
    8.5408  -17.5575   19.4316 C   0  0  1  0  0  0  0  0  0  0  0  0
    9.4595  -16.3708   19.3351 C   0  0  0  0  0  0  0  0  0  0  0  0
    8.7894  -15.0885   19.5809 C   0  0  0  0  0  0  0  0  0  0  0  0
    8.7506  -14.4509   20.8040 C   0  0  0  0  0  0  0  0  0  0  0  0
    8.0921  -13.2464   20.9258 C   0  0  0  0  0  0  0  0  0  0  0  0
    7.4535  -12.6239   19.8735 C   0  0  0  0  0  0  0  0  0  0  0  0
    7.4942  -13.2670   18.6457 C   0  0  0  0  0  0  0  0  0  0  0  0
    8.1523  -14.4737   18.5172 C   0  0  0  0  0  0  0  0  0  0  0  0
    7.7676  -17.4004   20.7148 C   0  0  0  0  0  0  0  0  0  0  0  0
    6.5885  -16.9206   20.6880 O   0  0  0  0  0  0  0  0  0  0  0  0
    8.2976  -17.7657   21.9612 N   0  0  0  0  0  0  0  0  0  0  0  0
    7.5845  -17.7404   23.2032 C   0  0  1  0  0  0  0  0  0  0  0  0
    7.5491  -19.0476   23.9019 C   0  0  0  0  0  0  0  0  0  0  0  0
    6.6415  -20.0588   23.3383 C   0  0  0  0  0  0  0  0  0  0  0  0
    5.8476  -19.9772   22.2279 C   0  0  0  0  0  0  0  0  0  0  0  0
    5.1423  -21.1277   22.0670 N   0  0  0  0  0  0  0  0  0  0  0  0
    5.4949  -21.9138   23.0673 C   0  0  0  0  0  0  0  0  0  0  0  0
    6.3933  -21.3013   23.8481 N   0  0  0  0  0  0  0  0  0  0  0  0
    8.1719  -16.6726   24.1121 C   0  0  0  0  0  0  0  0  0  0  0  0
    9.4183  -16.5122   24.1936 O   0  0  0  0  0  0  0  0  0  0  0  0
    5.5291  -12.3191   27.6814 C   0  0  0  0  0  0  0  0  0  0  0  0
    6.8208  -12.9349   27.1861 C   0  0  2  0  0  0  0  0  0  0  0  0
    7.8878  -11.9408   26.8490 C   0  0  0  0  0  0  0  0  0  0  0  0
    6.6477  -14.0663   26.2506 C   0  0  0  0  0  0  0  0  0  0  0  0
    7.8316  -14.8477   25.8336 C   0  0  2  0  0  0  0  0  0  0  0  0
    7.3130  -15.8556   24.8694 N   0  0  0  0  0  0  0  0  0  0  0  0
    8.5606  -15.5479   26.9151 C   0  0  0  0  0  0  0  0  0  0  0  0
    8.0566  -16.5906   27.4384 O   0  0  0  0  0  0  0  0  0  0  0  0
    9.7859  -15.1621   27.4271 O   0  0  0  0  0  0  0  0  0  0  0  0
  2  1  1  6
  2  3  1  0
  2 10  1  0
  3  4  1  0
  4  9  1  0
  5  4  2  0
  5  6  1  0
  6  7  2  0
  7  8  1  0
  9  8  2  0
 10 12  1  0
 10 11  2  0
 12 13  1  0
 13 20  1  0
 13 14  1  1
 14 15  1  0
 15 16  2  0
 16 17  1  0
 18 17  1  0
 19 15  1  0
 19 18  2  0
 20 21  2  0
 23 22  1  6
 23 24  1  0
 23 25  1  0
 26 25  1  1
 26 28  1  0
 27 20  1  0
 27 26  1  0
 28 29  2  0
 28 30  1  0
M  END
$$$$
