FHL.pdb
     RDKit          3D

 30 31  0  0  1  0  0  0  0  0999 V2000
    6.8168  -17.5554   20.3245 N   0  0  0  0  0  0  0  0  0  0  0  0
    7.5187  -16.4808   21.0010 C   0  0  1  0  0  0  0  0  0  0  0  0
    6.5156  -15.7563   21.8557 C   0  0  0  0  0  0  0  0  0  0  0  0
    7.0866  -14.6300   22.6035 C   0  0  0  0  0  0  0  0  0  0  0  0
    7.6266  -13.5014   22.0215 C   0  0  0  0  0  0  0  0  0  0  0  0
    8.1375  -12.4998   22.8183 C   0  0  0  0  0  0  0  0  0  0  0  0
    8.1420  -12.5580   24.1965 C   0  0  0  0  0  0  0  0  0  0  0  0
    7.5987  -13.6933   24.7784 C   0  0  0  0  0  0  0  0  0  0  0  0
    7.0853  -14.7001   23.9857 C   0  0  0  0  0  0  0  0  0  0  0  0
    8.5288  -17.0853   21.9410 C   0  0  0  0  0  0  0  0  0  0  0  0
    8.2089  -18.0933   22.6501 O   0  0  0  0  0  0  0  0  0  0  0  0
    9.8302  -16.5784   22.0729 N   0  0  0  0  0  0  0  0  0  0  0  0
   10.8450  -17.1166   22.9284 C   0  0  1  0  0  0  0  0  0  0  0  0
   12.1777  -17.2212   22.2870 C   0  0  0  0  0  0  0  0  0  0  0  0
   12.2832  -18.1645   21.1633 C   0  0  0  0  0  0  0  0  0  0  0  0
   11.8713  -19.4666   21.0929 C   0  0  0  0  0  0  0  0  0  0  0  0
   12.1788  -19.9935   19.8784 N   0  0  0  0  0  0  0  0  0  0  0  0
   12.7755  -19.0284   19.2034 C   0  0  0  0  0  0  0  0  0  0  0  0
   12.8536  -17.9180   19.9470 N   0  0  0  0  0  0  0  0  0  0  0  0
   10.9362  -16.2905   24.2015 C   0  0  0  0  0  0  0  0  0  0  0  0
   11.2279  -15.0663   24.1540 O   0  0  0  0  0  0  0  0  0  0  0  0
    8.0525  -13.4862   27.6277 C   0  0  0  0  0  0  0  0  0  0  0  0
    9.4051  -14.1650   27.6807 C   0  0  2  0  0  0  0  0  0  0  0  0
   10.5282  -13.2689   28.0997 C   0  0  0  0  0  0  0  0  0  0  0  0
    9.6765  -15.0911   26.5610 C   0  0  0  0  0  0  0  0  0  0  0  0
   10.7150  -16.1317   26.7185 C   0  0  2  0  0  0  0  0  0  0  0  0
   10.6916  -16.9011   25.4449 N   0  0  0  0  0  0  0  0  0  0  0  0
   10.5282  -17.0686   27.8494 C   0  0  0  0  0  0  0  0  0  0  0  0
    9.6491  -17.9828   27.7680 O   0  0  0  0  0  0  0  0  0  0  0  0
   11.2492  -17.0445   29.0292 O   0  0  0  0  0  0  0  0  0  0  0  0
  2  1  1  1
  2  3  1  0
  2 10  1  0
  3  4  1  0
  4  9  1  0
  5  4  2  0
  5  6  1  0
  6  7  2  0
  7  8  1  0
  9  8  2  0
 10 12  1  0
 10 11  2  0
 12 13  1  0
 13 20  1  0
 13 14  1  6
 14 15  1  0
 15 16  2  0
 16 17  1  0
 18 17  1  0
 19 15  1  0
 19 18  2  0
 20 21  2  0
 23 22  1  6
 23 24  1  0
 23 25  1  0
 26 25  1  6
 26 28  1  0
 27 20  1  0
 27 26  1  0
 28 29  2  0
 28 30  1  0
M  END
$$$$
