FHL.pdb
     RDKit          3D

 30 31  0  0  1  0  0  0  0  0999 V2000
    8.5966  -17.0618   17.3146 N   0  0  0  0  0  0  0  0  0  0  0  0
    8.7116  -16.0806   18.3772 C   0  0  1  0  0  0  0  0  0  0  0  0
    7.8002  -14.9352   18.0323 C   0  0  0  0  0  0  0  0  0  0  0  0
    7.5719  -14.0103   19.1486 C   0  0  0  0  0  0  0  0  0  0  0  0
    8.2790  -12.8429   19.3512 C   0  0  0  0  0  0  0  0  0  0  0  0
    7.9833  -12.0443   20.4346 C   0  0  0  0  0  0  0  0  0  0  0  0
    6.9989  -12.3483   21.3518 C   0  0  0  0  0  0  0  0  0  0  0  0
    6.2900  -13.5220   21.1457 C   0  0  0  0  0  0  0  0  0  0  0  0
    6.5815  -14.3263   20.0623 C   0  0  0  0  0  0  0  0  0  0  0  0
    8.1789  -16.6870   19.6491 C   0  0  0  0  0  0  0  0  0  0  0  0
    7.3852  -17.6809   19.5919 O   0  0  0  0  0  0  0  0  0  0  0  0
    8.5243  -16.1970   20.9174 N   0  0  0  0  0  0  0  0  0  0  0  0
    8.9107  -17.0010   22.0380 C   0  0  1  0  0  0  0  0  0  0  0  0
    9.9679  -17.9936   21.7287 C   0  0  0  0  0  0  0  0  0  0  0  0
   10.3268  -18.9173   22.8157 C   0  0  0  0  0  0  0  0  0  0  0  0
    9.9077  -18.9167   24.1174 C   0  0  0  0  0  0  0  0  0  0  0  0
   10.4973  -19.9312   24.8031 N   0  0  0  0  0  0  0  0  0  0  0  0
   11.2740  -20.5537   23.9358 C   0  0  0  0  0  0  0  0  0  0  0  0
   11.1939  -19.9693   22.7341 N   0  0  0  0  0  0  0  0  0  0  0  0
    9.3476  -16.1064   23.1870 C   0  0  0  0  0  0  0  0  0  0  0  0
   10.4264  -15.4597   23.1240 O   0  0  0  0  0  0  0  0  0  0  0  0
    6.2530  -12.4844   26.7869 C   0  0  0  0  0  0  0  0  0  0  0  0
    7.6128  -13.1049   26.5440 C   0  0  2  0  0  0  0  0  0  0  0  0
    8.7287  -12.1151   26.4210 C   0  0  0  0  0  0  0  0  0  0  0  0
    7.6162  -14.2320   25.5876 C   0  0  0  0  0  0  0  0  0  0  0  0
    8.8433  -15.0412   25.4276 C   0  0  2  0  0  0  0  0  0  0  0  0
    8.5372  -16.0003   24.3318 N   0  0  0  0  0  0  0  0  0  0  0  0
    9.2807  -15.7992   26.6216 C   0  0  0  0  0  0  0  0  0  0  0  0
    8.6187  -16.8176   26.9954 O   0  0  0  0  0  0  0  0  0  0  0  0
   10.3852  -15.4947   27.3961 O   0  0  0  0  0  0  0  0  0  0  0  0
  2  1  1  6
  2  3  1  0
  2 10  1  0
  3  4  1  0
  4  9  1  0
  5  4  2  0
  5  6  1  0
  6  7  2  0
  7  8  1  0
  9  8  2  0
 10 12  1  0
 10 11  2  0
 12 13  1  0
 13 20  1  0
 13 14  1  6
 14 15  1  0
 15 16  2  0
 16 17  1  0
 18 17  1  0
 19 15  1  0
 19 18  2  0
 20 21  2  0
 23 22  1  6
 23 24  1  0
 23 25  1  0
 26 25  1  1
 26 28  1  0
 27 20  1  0
 27 26  1  0
 28 29  2  0
 28 30  1  0
M  END
$$$$
