FHL.pdb
     RDKit          3D

 30 31  0  0  1  0  0  0  0  0999 V2000
    6.8876  -17.2867   20.5830 N   0  0  0  0  0  0  0  0  0  0  0  0
    7.4922  -16.2674   21.4200 C   0  0  1  0  0  0  0  0  0  0  0  0
    6.4233  -15.7510   22.3432 C   0  0  0  0  0  0  0  0  0  0  0  0
    6.9033  -14.7342   23.2862 C   0  0  0  0  0  0  0  0  0  0  0  0
    7.5645  -13.5802   22.9187 C   0  0  0  0  0  0  0  0  0  0  0  0
    7.9735  -12.6893   23.8873 C   0  0  0  0  0  0  0  0  0  0  0  0
    7.7569  -12.8857   25.2353 C   0  0  0  0  0  0  0  0  0  0  0  0
    7.0923  -14.0462   25.6016 C   0  0  0  0  0  0  0  0  0  0  0  0
    6.6800  -14.9426   24.6361 C   0  0  0  0  0  0  0  0  0  0  0  0
    8.5353  -16.9185   22.2903 C   0  0  0  0  0  0  0  0  0  0  0  0
    8.2477  -17.9762   22.9382 O   0  0  0  0  0  0  0  0  0  0  0  0
    9.8331  -16.4026   22.4216 N   0  0  0  0  0  0  0  0  0  0  0  0
   10.8948  -17.0127   23.1647 C   0  0  1  0  0  0  0  0  0  0  0  0
   12.2005  -17.0056   22.4623 C   0  0  0  0  0  0  0  0  0  0  0  0
   12.2833  -17.8213   21.2410 C   0  0  0  0  0  0  0  0  0  0  0  0
   11.6375  -18.9892   20.9424 C   0  0  0  0  0  0  0  0  0  0  0  0
   12.0116  -19.4341   19.7139 N   0  0  0  0  0  0  0  0  0  0  0  0
   12.8804  -18.5516   19.2562 C   0  0  0  0  0  0  0  0  0  0  0  0
   13.0650  -17.5717   20.1492 N   0  0  0  0  0  0  0  0  0  0  0  0
   11.0235  -16.3424   24.5232 C   0  0  0  0  0  0  0  0  0  0  0  0
   11.3180  -15.1212   24.6122 O   0  0  0  0  0  0  0  0  0  0  0  0
    8.5695  -13.8134   28.4705 C   0  0  0  0  0  0  0  0  0  0  0  0
    9.8664  -14.5813   28.3246 C   0  0  2  0  0  0  0  0  0  0  0  0
   11.0888  -13.8031   28.6992 C   0  0  0  0  0  0  0  0  0  0  0  0
    9.9573  -15.4159   27.1079 C   0  0  0  0  0  0  0  0  0  0  0  0
   10.9588  -16.5020   27.0490 C   0  0  2  0  0  0  0  0  0  0  0  0
   10.8106  -17.0951   25.6923 N   0  0  0  0  0  0  0  0  0  0  0  0
   10.8139  -17.5734   28.0603 C   0  0  0  0  0  0  0  0  0  0  0  0
   11.6258  -17.6286   29.0366 O   0  0  0  0  0  0  0  0  0  0  0  0
    9.8401  -18.5552   28.0445 O   0  0  0  0  0  0  0  0  0  0  0  0
  2  1  1  6
  2  3  1  0
  2 10  1  0
  3  4  1  0
  4  9  1  0
  5  4  2  0
  5  6  1  0
  6  7  2  0
  7  8  1  0
  9  8  2  0
 10 12  1  0
 10 11  2  0
 12 13  1  0
 13 20  1  0
 13 14  1  6
 14 15  1  0
 15 16  2  0
 16 17  1  0
 18 17  1  0
 19 15  1  0
 19 18  2  0
 20 21  2  0
 23 22  1  6
 23 24  1  0
 23 25  1  0
 26 25  1  1
 26 28  1  0
 27 20  1  0
 27 26  1  0
 28 29  2  0
 28 30  1  0
M  END
$$$$
