FHL.pdb
     RDKit          3D

 30 31  0  0  1  0  0  0  0  0999 V2000
    5.6498  -17.8764   24.1474 N   0  0  0  0  0  0  0  0  0  0  0  0
    6.3201  -16.5933   24.2433 C   0  0  1  0  0  0  0  0  0  0  0  0
    6.2979  -16.1811   25.6894 C   0  0  0  0  0  0  0  0  0  0  0  0
    6.2555  -14.7271   25.8845 C   0  0  0  0  0  0  0  0  0  0  0  0
    5.3259  -14.0720   26.6659 C   0  0  0  0  0  0  0  0  0  0  0  0
    5.3760  -12.6998   26.7814 C   0  0  0  0  0  0  0  0  0  0  0  0
    6.3224  -11.9216   26.1477 C   0  0  0  0  0  0  0  0  0  0  0  0
    7.2552  -12.5827   25.3631 C   0  0  0  0  0  0  0  0  0  0  0  0
    7.2103  -13.9572   25.2434 C   0  0  0  0  0  0  0  0  0  0  0  0
    7.7678  -16.7798   23.8708 C   0  0  0  0  0  0  0  0  0  0  0  0
    8.3019  -17.9318   23.9659 O   0  0  0  0  0  0  0  0  0  0  0  0
    8.5690  -15.7222   23.4155 N   0  0  0  0  0  0  0  0  0  0  0  0
    9.9063  -15.8515   22.9190 C   0  0  1  0  0  0  0  0  0  0  0  0
   10.3271  -14.7409   22.0313 C   0  0  0  0  0  0  0  0  0  0  0  0
    9.4123  -14.4122   20.9273 C   0  0  0  0  0  0  0  0  0  0  0  0
    8.2793  -15.0649   20.5269 C   0  0  0  0  0  0  0  0  0  0  0  0
    7.7361  -14.4465   19.4454 N   0  0  0  0  0  0  0  0  0  0  0  0
    8.5243  -13.4216   19.1781 C   0  0  0  0  0  0  0  0  0  0  0  0
    9.5394  -13.3737   20.0493 N   0  0  0  0  0  0  0  0  0  0  0  0
   10.8755  -15.9931   24.0816 C   0  0  0  0  0  0  0  0  0  0  0  0
   12.1104  -16.1302   23.8761 O   0  0  0  0  0  0  0  0  0  0  0  0
   11.9729  -13.4111   27.2236 C   0  0  0  0  0  0  0  0  0  0  0  0
   10.6598  -14.0444   27.6333 C   0  0  2  0  0  0  0  0  0  0  0  0
    9.9532  -13.3336   28.7448 C   0  0  0  0  0  0  0  0  0  0  0  0
   10.6782  -15.5213   27.6950 C   0  0  0  0  0  0  0  0  0  0  0  0
   11.2542  -16.2852   26.5677 C   0  0  2  0  0  0  0  0  0  0  0  0
   10.3866  -15.9703   25.4004 N   0  0  0  0  0  0  0  0  0  0  0  0
   11.3113  -17.7542   26.7416 C   0  0  0  0  0  0  0  0  0  0  0  0
   12.0686  -18.2515   27.6329 O   0  0  0  0  0  0  0  0  0  0  0  0
   10.5889  -18.6712   26.0003 O   0  0  0  0  0  0  0  0  0  0  0  0
  2  1  1  1
  2  3  1  0
  2 10  1  0
  3  4  1  0
  4  9  1  0
  5  4  2  0
  5  6  1  0
  6  7  2  0
  7  8  1  0
  9  8  2  0
 10 12  1  0
 10 11  2  0
 12 13  1  0
 13 20  1  0
 13 14  1  1
 14 15  1  0
 15 16  2  0
 16 17  1  0
 18 17  1  0
 19 15  1  0
 19 18  2  0
 20 21  2  0
 23 22  1  1
 23 24  1  0
 23 25  1  0
 26 25  1  1
 26 28  1  0
 27 20  1  0
 27 26  1  0
 28 29  2  0
 28 30  1  0
M  END
$$$$
