FHL.pdb
     RDKit          3D

 30 31  0  0  1  0  0  0  0  0999 V2000
    6.0381  -18.4438   23.0909 N   0  0  0  0  0  0  0  0  0  0  0  0
    6.6552  -17.1468   23.2964 C   0  0  1  0  0  0  0  0  0  0  0  0
    6.0461  -16.5501   24.5351 C   0  0  0  0  0  0  0  0  0  0  0  0
    6.3517  -15.1255   24.7115 C   0  0  0  0  0  0  0  0  0  0  0  0
    6.8041  -14.2949   23.7068 C   0  0  0  0  0  0  0  0  0  0  0  0
    7.0614  -12.9690   23.9806 C   0  0  0  0  0  0  0  0  0  0  0  0
    6.8901  -12.4076   25.2289 C   0  0  0  0  0  0  0  0  0  0  0  0
    6.4355  -13.2447   26.2365 C   0  0  0  0  0  0  0  0  0  0  0  0
    6.1759  -14.5739   25.9685 C   0  0  0  0  0  0  0  0  0  0  0  0
    8.1177  -17.3534   23.5921 C   0  0  0  0  0  0  0  0  0  0  0  0
    8.4830  -18.3266   24.3274 O   0  0  0  0  0  0  0  0  0  0  0  0
    9.1140  -16.5062   23.0845 N   0  0  0  0  0  0  0  0  0  0  0  0
   10.5230  -16.7563   23.1460 C   0  0  1  0  0  0  0  0  0  0  0  0
   11.2762  -16.2389   21.9784 C   0  0  0  0  0  0  0  0  0  0  0  0
   10.9220  -16.8153   20.6722 C   0  0  0  0  0  0  0  0  0  0  0  0
   10.4952  -18.0810   20.3788 C   0  0  0  0  0  0  0  0  0  0  0  0
   10.2982  -18.2138   19.0407 N   0  0  0  0  0  0  0  0  0  0  0  0
   10.6001  -17.0431   18.5103 C   0  0  0  0  0  0  0  0  0  0  0  0
   10.9781  -16.1824   19.4632 N   0  0  0  0  0  0  0  0  0  0  0  0
   11.0913  -16.1848   24.4351 C   0  0  0  0  0  0  0  0  0  0  0  0
   11.6743  -15.0685   24.4415 O   0  0  0  0  0  0  0  0  0  0  0  0
   10.9341  -14.9516   29.5739 C   0  0  0  0  0  0  0  0  0  0  0  0
   10.8410  -14.2176   28.2526 C   0  0  2  0  0  0  0  0  0  0  0  0
   10.0621  -12.9409   28.3106 C   0  0  0  0  0  0  0  0  0  0  0  0
   10.6085  -15.0849   27.0784 C   0  0  0  0  0  0  0  0  0  0  0  0
   11.3729  -16.3435   26.9461 C   0  0  2  0  0  0  0  0  0  0  0  0
   10.9637  -16.9114   25.6328 N   0  0  0  0  0  0  0  0  0  0  0  0
   11.1421  -17.3566   28.0006 C   0  0  0  0  0  0  0  0  0  0  0  0
   10.0245  -17.9592   28.0578 O   0  0  0  0  0  0  0  0  0  0  0  0
   12.0632  -17.7257   28.9637 O   0  0  0  0  0  0  0  0  0  0  0  0
  2  1  1  1
  2  3  1  0
  2 10  1  0
  3  4  1  0
  4  9  1  0
  5  4  2  0
  5  6  1  0
  6  7  2  0
  7  8  1  0
  9  8  2  0
 10 12  1  0
 10 11  2  0
 12 13  1  0
 13 20  1  0
 13 14  1  6
 14 15  1  0
 15 16  2  0
 16 17  1  0
 18 17  1  0
 19 15  1  0
 19 18  2  0
 20 21  2  0
 23 22  1  1
 23 24  1  0
 23 25  1  0
 26 25  1  1
 26 28  1  0
 27 20  1  0
 27 26  1  0
 28 29  2  0
 28 30  1  0
M  END
$$$$
