FHL.pdb
     RDKit          3D

 30 31  0  0  1  0  0  0  0  0999 V2000
    7.1387  -18.0328   20.4135 N   0  0  0  0  0  0  0  0  0  0  0  0
    7.7599  -16.9100   21.0907 C   0  0  1  0  0  0  0  0  0  0  0  0
    6.6806  -15.9015   21.3725 C   0  0  0  0  0  0  0  0  0  0  0  0
    7.0597  -14.5254   21.0313 C   0  0  0  0  0  0  0  0  0  0  0  0
    7.3772  -13.5519   21.9561 C   0  0  0  0  0  0  0  0  0  0  0  0
    7.7205  -12.2881   21.5272 C   0  0  0  0  0  0  0  0  0  0  0  0
    7.7674  -11.9279   20.1965 C   0  0  0  0  0  0  0  0  0  0  0  0
    7.4479  -12.9083   19.2694 C   0  0  0  0  0  0  0  0  0  0  0  0
    7.1032  -14.1762   19.6928 C   0  0  0  0  0  0  0  0  0  0  0  0
    8.2704  -17.3797   22.4279 C   0  0  0  0  0  0  0  0  0  0  0  0
    7.9671  -18.5430   22.8474 O   0  0  0  0  0  0  0  0  0  0  0  0
    9.0798  -16.5786   23.2469 N   0  0  0  0  0  0  0  0  0  0  0  0
    9.7423  -17.0174   24.4386 C   0  0  1  0  0  0  0  0  0  0  0  0
   10.6920  -18.1351   24.2208 C   0  0  0  0  0  0  0  0  0  0  0  0
   11.4380  -18.1131   22.9532 C   0  0  0  0  0  0  0  0  0  0  0  0
   11.9589  -17.0420   22.2812 C   0  0  0  0  0  0  0  0  0  0  0  0
   12.5562  -17.4519   21.1313 N   0  0  0  0  0  0  0  0  0  0  0  0
   12.4066  -18.7631   21.0907 C   0  0  0  0  0  0  0  0  0  0  0  0
   11.7396  -19.1904   22.1698 N   0  0  0  0  0  0  0  0  0  0  0  0
   10.4512  -15.8438   25.0953 C   0  0  0  0  0  0  0  0  0  0  0  0
   11.7079  -15.8133   25.1727 O   0  0  0  0  0  0  0  0  0  0  0  0
    8.4211  -11.8820   26.3126 C   0  0  0  0  0  0  0  0  0  0  0  0
    7.5568  -13.1093   26.5119 C   0  0  2  0  0  0  0  0  0  0  0  0
    6.1159  -12.8105   26.7850 C   0  0  0  0  0  0  0  0  0  0  0  0
    8.1785  -14.1786   27.3214 C   0  0  0  0  0  0  0  0  0  0  0  0
    9.5940  -14.5343   27.0853 C   0  0  2  0  0  0  0  0  0  0  0  0
    9.6945  -14.7810   25.6212 N   0  0  0  0  0  0  0  0  0  0  0  0
   10.0929  -15.7257   27.8087 C   0  0  0  0  0  0  0  0  0  0  0  0
    9.6576  -16.8778   27.4952 O   0  0  0  0  0  0  0  0  0  0  0  0
   11.0253  -15.7032   28.8297 O   0  0  0  0  0  0  0  0  0  0  0  0
  2  1  1  1
  2  3  1  0
  2 10  1  0
  3  4  1  0
  4  9  1  0
  5  4  2  0
  5  6  1  0
  6  7  2  0
  7  8  1  0
  9  8  2  0
 10 12  1  0
 10 11  2  0
 12 13  1  0
 13 20  1  0
 13 14  1  6
 14 15  1  0
 15 16  2  0
 16 17  1  0
 18 17  1  0
 19 15  1  0
 19 18  2  0
 20 21  2  0
 23 22  1  1
 23 24  1  0
 23 25  1  0
 26 25  1  1
 26 28  1  0
 27 20  1  0
 27 26  1  0
 28 29  2  0
 28 30  1  0
M  END
$$$$
