FHL.pdb
     RDKit          3D

 30 31  0  0  1  0  0  0  0  0999 V2000
    5.7735  -17.9981   22.5015 N   0  0  0  0  0  0  0  0  0  0  0  0
    6.7401  -17.1176   21.8726 C   0  0  1  0  0  0  0  0  0  0  0  0
    6.7239  -15.8181   22.6293 C   0  0  0  0  0  0  0  0  0  0  0  0
    7.1935  -14.6735   21.8399 C   0  0  0  0  0  0  0  0  0  0  0  0
    8.0344  -14.7703   20.7502 C   0  0  0  0  0  0  0  0  0  0  0  0
    8.4153  -13.6293   20.0778 C   0  0  0  0  0  0  0  0  0  0  0  0
    7.9968  -12.3649   20.4365 C   0  0  0  0  0  0  0  0  0  0  0  0
    7.1518  -12.2707   21.5319 C   0  0  0  0  0  0  0  0  0  0  0  0
    6.7667  -13.4100   22.2097 C   0  0  0  0  0  0  0  0  0  0  0  0
    8.1147  -17.7058   22.0561 C   0  0  0  0  0  0  0  0  0  0  0  0
    8.4813  -18.6922   21.3392 O   0  0  0  0  0  0  0  0  0  0  0  0
    9.0261  -17.2067   22.9985 N   0  0  0  0  0  0  0  0  0  0  0  0
   10.4470  -17.3798   22.9476 C   0  0  1  0  0  0  0  0  0  0  0  0
   11.0603  -16.9387   21.6718 C   0  0  0  0  0  0  0  0  0  0  0  0
   10.6997  -17.7171   20.4768 C   0  0  0  0  0  0  0  0  0  0  0  0
    9.8894  -18.8143   20.3783 C   0  0  0  0  0  0  0  0  0  0  0  0
    9.8377  -19.2482   19.0914 N   0  0  0  0  0  0  0  0  0  0  0  0
   10.6081  -18.4290   18.3997 C   0  0  0  0  0  0  0  0  0  0  0  0
   11.1400  -17.4992   19.2025 N   0  0  0  0  0  0  0  0  0  0  0  0
   11.0952  -16.6613   24.1201 C   0  0  0  0  0  0  0  0  0  0  0  0
   12.3426  -16.7017   24.2890 O   0  0  0  0  0  0  0  0  0  0  0  0
    8.6043  -13.5694   28.9131 C   0  0  0  0  0  0  0  0  0  0  0  0
    9.8199  -14.2873   28.3653 C   0  0  2  0  0  0  0  0  0  0  0  0
   11.1187  -13.5947   28.6364 C   0  0  0  0  0  0  0  0  0  0  0  0
    9.6426  -14.8615   27.0148 C   0  0  0  0  0  0  0  0  0  0  0  0
   10.7419  -15.6451   26.4119 C   0  0  2  0  0  0  0  0  0  0  0  0
   10.2923  -15.9436   25.0251 N   0  0  0  0  0  0  0  0  0  0  0  0
   11.0810  -16.9160   27.0912 C   0  0  0  0  0  0  0  0  0  0  0  0
   10.2365  -17.8657   27.1031 O   0  0  0  0  0  0  0  0  0  0  0  0
   12.2760  -17.1788   27.7355 O   0  0  0  0  0  0  0  0  0  0  0  0
  2  1  1  1
  2  3  1  0
  2 10  1  0
  3  4  1  0
  4  9  1  0
  5  4  2  0
  5  6  1  0
  6  7  2  0
  7  8  1  0
  9  8  2  0
 10 12  1  0
 10 11  2  0
 12 13  1  0
 13 20  1  0
 13 14  1  6
 14 15  1  0
 15 16  2  0
 16 17  1  0
 18 17  1  0
 19 15  1  0
 19 18  2  0
 20 21  2  0
 23 22  1  6
 23 24  1  0
 23 25  1  0
 26 25  1  1
 26 28  1  0
 27 20  1  0
 27 26  1  0
 28 29  2  0
 28 30  1  0
M  END
$$$$
