FHL.pdb
     RDKit          3D

 30 31  0  0  1  0  0  0  0  0999 V2000
    6.7556  -16.7558   25.6252 N   0  0  0  0  0  0  0  0  0  0  0  0
    6.3859  -16.8818   24.2279 C   0  0  1  0  0  0  0  0  0  0  0  0
    5.6220  -15.6425   23.8512 C   0  0  0  0  0  0  0  0  0  0  0  0
    6.0055  -14.4579   24.6280 C   0  0  0  0  0  0  0  0  0  0  0  0
    5.6608  -14.2453   25.9470 C   0  0  0  0  0  0  0  0  0  0  0  0
    6.0741  -13.0954   26.5843 C   0  0  0  0  0  0  0  0  0  0  0  0
    6.8302  -12.1197   25.9687 C   0  0  0  0  0  0  0  0  0  0  0  0
    7.1750  -12.3361   24.6432 C   0  0  0  0  0  0  0  0  0  0  0  0
    6.7641  -13.4859   23.9992 C   0  0  0  0  0  0  0  0  0  0  0  0
    7.6430  -16.8819   23.3977 C   0  0  0  0  0  0  0  0  0  0  0  0
    7.8044  -17.7650   22.4948 O   0  0  0  0  0  0  0  0  0  0  0  0
    8.6627  -15.9355   23.5779 N   0  0  0  0  0  0  0  0  0  0  0  0
    9.9765  -16.0171   23.0133 C   0  0  1  0  0  0  0  0  0  0  0  0
   10.3614  -14.8290   22.2141 C   0  0  0  0  0  0  0  0  0  0  0  0
    9.4889  -14.5043   21.0752 C   0  0  0  0  0  0  0  0  0  0  0  0
    8.4378  -15.2167   20.5676 C   0  0  0  0  0  0  0  0  0  0  0  0
    7.9102  -14.5764   19.4912 N   0  0  0  0  0  0  0  0  0  0  0  0
    8.6270  -13.4790   19.3330 C   0  0  0  0  0  0  0  0  0  0  0  0
    9.5824  -13.4067   20.2678 N   0  0  0  0  0  0  0  0  0  0  0  0
   10.9953  -16.2644   24.1143 C   0  0  0  0  0  0  0  0  0  0  0  0
   12.2226  -16.3532   23.8463 O   0  0  0  0  0  0  0  0  0  0  0  0
   10.3474  -14.2118   29.3235 C   0  0  0  0  0  0  0  0  0  0  0  0
   11.1096  -14.7054   28.1116 C   0  0  2  0  0  0  0  0  0  0  0  0
   11.1541  -13.7339   26.9740 C   0  0  0  0  0  0  0  0  0  0  0  0
   10.8707  -16.1226   27.7659 C   0  0  0  0  0  0  0  0  0  0  0  0
   11.5062  -16.6893   26.5572 C   0  0  2  0  0  0  0  0  0  0  0  0
   10.5613  -16.3947   25.4459 N   0  0  0  0  0  0  0  0  0  0  0  0
   11.7741  -18.1450   26.5870 C   0  0  0  0  0  0  0  0  0  0  0  0
   12.7400  -18.5910   27.2824 O   0  0  0  0  0  0  0  0  0  0  0  0
   11.0434  -19.1019   25.9069 O   0  0  0  0  0  0  0  0  0  0  0  0
  2  1  1  1
  2  3  1  0
  2 10  1  0
  3  4  1  0
  4  9  1  0
  5  4  2  0
  5  6  1  0
  6  7  2  0
  7  8  1  0
  9  8  2  0
 10 12  1  0
 10 11  2  0
 12 13  1  0
 13 20  1  0
 13 14  1  1
 14 15  1  0
 15 16  2  0
 16 17  1  0
 18 17  1  0
 19 15  1  0
 19 18  2  0
 20 21  2  0
 23 22  1  1
 23 24  1  0
 23 25  1  0
 26 25  1  1
 26 28  1  0
 27 20  1  0
 27 26  1  0
 28 29  2  0
 28 30  1  0
M  END
$$$$
