FHL.pdb
     RDKit          3D

 30 31  0  0  1  0  0  0  0  0999 V2000
    6.3840  -18.9898   21.6819 N   0  0  0  0  0  0  0  0  0  0  0  0
    6.6228  -17.6406   22.1591 C   0  0  1  0  0  0  0  0  0  0  0  0
    5.8929  -17.4897   23.4652 C   0  0  0  0  0  0  0  0  0  0  0  0
    6.1241  -16.1972   24.1207 C   0  0  0  0  0  0  0  0  0  0  0  0
    6.5030  -15.0455   23.4619 C   0  0  0  0  0  0  0  0  0  0  0  0
    6.6939  -13.8819   24.1750 C   0  0  0  0  0  0  0  0  0  0  0  0
    6.5251  -13.7960   25.5413 C   0  0  0  0  0  0  0  0  0  0  0  0
    6.1443  -14.9548   26.2006 C   0  0  0  0  0  0  0  0  0  0  0  0
    5.9514  -16.1237   25.4919 C   0  0  0  0  0  0  0  0  0  0  0  0
    8.0902  -17.4935   22.4662 C   0  0  0  0  0  0  0  0  0  0  0  0
    8.7192  -18.4513   23.0214 O   0  0  0  0  0  0  0  0  0  0  0  0
    8.8084  -16.3274   22.1624 N   0  0  0  0  0  0  0  0  0  0  0  0
   10.2308  -16.1846   22.2523 C   0  0  1  0  0  0  0  0  0  0  0  0
   10.7945  -15.1861   21.3123 C   0  0  0  0  0  0  0  0  0  0  0  0
    9.8420  -14.5654   20.3790 C   0  0  0  0  0  0  0  0  0  0  0  0
    9.3174  -13.3026   20.4000 C   0  0  0  0  0  0  0  0  0  0  0  0
    8.4518  -13.1344   19.3658 N   0  0  0  0  0  0  0  0  0  0  0  0
    8.4396  -14.2808   18.7111 C   0  0  0  0  0  0  0  0  0  0  0  0
    9.2634  -15.1601   19.2941 N   0  0  0  0  0  0  0  0  0  0  0  0
   10.6246  -15.8449   23.6808 C   0  0  0  0  0  0  0  0  0  0  0  0
   11.8205  -15.5782   23.9719 O   0  0  0  0  0  0  0  0  0  0  0  0
   10.3825  -12.9307   27.0884 C   0  0  0  0  0  0  0  0  0  0  0  0
    9.0458  -13.5134   26.6800 C   0  0  2  0  0  0  0  0  0  0  0  0
    7.8614  -12.7346   27.1606 C   0  0  0  0  0  0  0  0  0  0  0  0
    8.9569  -14.9857   26.7783 C   0  0  0  0  0  0  0  0  0  0  0  0
    9.9948  -15.8176   26.1328 C   0  0  2  0  0  0  0  0  0  0  0  0
    9.6419  -15.8281   24.6871 N   0  0  0  0  0  0  0  0  0  0  0  0
   10.0977  -17.2143   26.6125 C   0  0  0  0  0  0  0  0  0  0  0  0
    9.4515  -18.1318   26.0159 O   0  0  0  0  0  0  0  0  0  0  0  0
   10.8618  -17.6316   27.6869 O   0  0  0  0  0  0  0  0  0  0  0  0
  2  1  1  1
  2  3  1  0
  2 10  1  0
  3  4  1  0
  4  9  1  0
  5  4  2  0
  5  6  1  0
  6  7  2  0
  7  8  1  0
  9  8  2  0
 10 12  1  0
 10 11  2  0
 12 13  1  0
 13 20  1  0
 13 14  1  6
 14 15  1  0
 15 16  2  0
 16 17  1  0
 18 17  1  0
 19 15  1  0
 19 18  2  0
 20 21  2  0
 23 22  1  1
 23 24  1  0
 23 25  1  0
 26 25  1  1
 26 28  1  0
 27 20  1  0
 27 26  1  0
 28 29  2  0
 28 30  1  0
M  END
$$$$
