FHL.pdb
     RDKit          3D

 30 31  0  0  1  0  0  0  0  0999 V2000
    6.4828  -18.0573   20.5871 N   0  0  0  0  0  0  0  0  0  0  0  0
    7.3574  -16.9560   20.9436 C   0  0  1  0  0  0  0  0  0  0  0  0
    6.4862  -15.8223   21.4094 C   0  0  0  0  0  0  0  0  0  0  0  0
    7.0481  -14.4962   21.1274 C   0  0  0  0  0  0  0  0  0  0  0  0
    7.3348  -14.0236   19.8631 C   0  0  0  0  0  0  0  0  0  0  0  0
    7.8618  -12.7596   19.7096 C   0  0  0  0  0  0  0  0  0  0  0  0
    8.1269  -11.9170   20.7690 C   0  0  0  0  0  0  0  0  0  0  0  0
    7.8379  -12.3946   22.0382 C   0  0  0  0  0  0  0  0  0  0  0  0
    7.3097  -13.6599   22.1987 C   0  0  0  0  0  0  0  0  0  0  0  0
    8.1931  -17.3711   22.1262 C   0  0  0  0  0  0  0  0  0  0  0  0
    7.6615  -18.0334   23.0749 O   0  0  0  0  0  0  0  0  0  0  0  0
    9.5558  -17.0550   22.2316 N   0  0  0  0  0  0  0  0  0  0  0  0
   10.3913  -17.3593   23.3544 C   0  0  1  0  0  0  0  0  0  0  0  0
   11.7912  -17.6854   22.9902 C   0  0  0  0  0  0  0  0  0  0  0  0
   11.9828  -18.8911   22.1698 C   0  0  0  0  0  0  0  0  0  0  0  0
   11.9826  -20.2027   22.5568 C   0  0  0  0  0  0  0  0  0  0  0  0
   12.2204  -21.0094   21.4893 N   0  0  0  0  0  0  0  0  0  0  0  0
   12.3668  -20.2064   20.4516 C   0  0  0  0  0  0  0  0  0  0  0  0
   12.2300  -18.9288   20.8271 N   0  0  0  0  0  0  0  0  0  0  0  0
   10.3594  -16.2079   24.3467 C   0  0  0  0  0  0  0  0  0  0  0  0
   10.9069  -15.1075   24.0724 O   0  0  0  0  0  0  0  0  0  0  0  0
    6.7559  -12.7763   26.9145 C   0  0  0  0  0  0  0  0  0  0  0  0
    8.1232  -13.3680   27.1855 C   0  0  2  0  0  0  0  0  0  0  0  0
    9.1797  -12.3572   27.5052 C   0  0  0  0  0  0  0  0  0  0  0  0
    8.5107  -14.4701   26.2797 C   0  0  0  0  0  0  0  0  0  0  0  0
    9.6883  -15.2998   26.6126 C   0  0  2  0  0  0  0  0  0  0  0  0
    9.7107  -16.3746   25.5836 N   0  0  0  0  0  0  0  0  0  0  0  0
    9.6853  -15.9209   27.9564 C   0  0  0  0  0  0  0  0  0  0  0  0
    8.9605  -16.9420   28.1739 O   0  0  0  0  0  0  0  0  0  0  0  0
   10.4269  -15.4807   29.0374 O   0  0  0  0  0  0  0  0  0  0  0  0
  2  1  1  1
  2  3  1  0
  2 10  1  0
  3  4  1  0
  4  9  1  0
  5  4  2  0
  5  6  1  0
  6  7  2  0
  7  8  1  0
  9  8  2  0
 10 12  1  0
 10 11  2  0
 12 13  1  0
 13 20  1  0
 13 14  1  6
 14 15  1  0
 15 16  2  0
 16 17  1  0
 18 17  1  0
 19 15  1  0
 19 18  2  0
 20 21  2  0
 23 22  1  6
 23 24  1  0
 23 25  1  0
 26 25  1  6
 26 28  1  0
 27 20  1  0
 27 26  1  0
 28 29  2  0
 28 30  1  0
M  END
$$$$
