DDF.pdb
     RDKit          3D

 28 28  0  0  1  0  0  0  0  0999 V2000
   17.7003  -11.6611  -19.2566 N   0  0  0  0  0  0  0  0  0  0  0  0
   19.1008  -11.5197  -18.9914 C   0  0  1  0  0  0  0  0  0  0  0  0
   19.9147  -11.9872  -20.1826 C   0  0  0  0  0  0  0  0  0  0  0  0
   19.5065  -13.3726  -20.5140 C   0  0  0  0  0  0  0  0  0  0  0  0
   19.1697  -13.7496  -21.6715 O   0  0  0  0  0  0  0  0  0  0  0  0
   19.4991  -10.1487  -18.5733 C   0  0  0  0  0  0  0  0  0  0  0  0
   20.7406  -10.0044  -18.3425 O   0  0  0  0  0  0  0  0  0  0  0  0
   19.4757  -14.3536  -19.5287 O   0  0  0  0  0  0  0  0  0  0  0  0
   18.5634   -9.0836  -18.4432 N   0  0  0  0  0  0  0  0  0  0  0  0
   19.0525   -7.8055  -17.9775 C   0  0  1  0  0  0  0  0  0  0  0  0
   18.0454   -6.6858  -18.1952 C   0  0  0  0  0  0  0  0  0  0  0  0
   18.5809   -5.3636  -17.8206 C   0  0  0  0  0  0  0  0  0  0  0  0
   19.6941   -4.9683  -18.2340 O   0  0  0  0  0  0  0  0  0  0  0  0
   19.3311   -7.8090  -16.5170 C   0  0  0  0  0  0  0  0  0  0  0  0
   18.4891   -8.4008  -15.7908 O   0  0  0  0  0  0  0  0  0  0  0  0
   17.8303   -4.5633  -17.0015 O   0  0  0  0  0  0  0  0  0  0  0  0
   20.4852   -7.1758  -16.0037 N   0  0  0  0  0  0  0  0  0  0  0  0
   20.7575   -7.2067  -14.5615 C   0  0  1  0  0  0  0  0  0  0  0  0
   22.0124   -7.9992  -14.2987 C   0  0  0  0  0  0  0  0  0  0  0  0
   22.2664   -8.1099  -12.8607 C   0  0  0  0  0  0  0  0  0  0  0  0
   21.8229   -9.1956  -12.1418 C   0  0  0  0  0  0  0  0  0  0  0  0
   22.0708   -9.3250  -10.7942 C   0  0  0  0  0  0  0  0  0  0  0  0
   22.7826   -8.3466  -10.1315 C   0  0  0  0  0  0  0  0  0  0  0  0
   23.2291   -7.2612  -10.8375 C   0  0  0  0  0  0  0  0  0  0  0  0
   22.9679   -7.1507  -12.1959 C   0  0  0  0  0  0  0  0  0  0  0  0
   20.7856   -5.8363  -14.0103 C   0  0  0  0  0  0  0  0  0  0  0  0
   21.4139   -4.7884  -14.6221 O   0  0  0  0  0  0  0  0  0  0  0  0
   20.2033   -5.5945  -12.9091 O   0  0  0  0  0  0  0  0  0  0  0  0
  2  1  1  6
  3  2  1  0
  4  3  1  0
  5  4  2  0
  6  2  1  0
  7  6  2  0
  8  4  1  0
  9  6  1  0
 10 11  1  1
 10  9  1  0
 12 16  1  0
 12 11  1  0
 13 12  2  0
 14 10  1  0
 15 14  2  0
 17 14  1  0
 18 17  1  0
 18 19  1  6
 19 20  1  0
 20 21  2  0
 21 22  1  0
 23 22  2  0
 24 23  1  0
 25 20  1  0
 25 24  2  0
 26 18  1  0
 26 27  1  0
 28 26  2  0
M  END
$$$$
