DDF.pdb
     RDKit          3D

 28 28  0  0  1  0  0  0  0  0999 V2000
   25.1135  -21.2699  -15.8008 N   0  0  0  0  0  0  0  0  0  0  0  0
   25.6968  -20.0840  -15.2484 C   0  0  1  0  0  0  0  0  0  0  0  0
   25.4250  -18.8928  -16.1468 C   0  0  0  0  0  0  0  0  0  0  0  0
   25.8925  -19.2212  -17.5142 C   0  0  0  0  0  0  0  0  0  0  0  0
   25.1662  -19.1422  -18.5445 O   0  0  0  0  0  0  0  0  0  0  0  0
   25.2824  -19.8056  -13.8469 C   0  0  0  0  0  0  0  0  0  0  0  0
   25.4709  -18.6076  -13.4664 O   0  0  0  0  0  0  0  0  0  0  0  0
   27.1991  -19.6459  -17.7298 O   0  0  0  0  0  0  0  0  0  0  0  0
   24.7190  -20.8022  -13.0007 N   0  0  0  0  0  0  0  0  0  0  0  0
   24.2648  -20.3990  -11.6889 C   0  0  1  0  0  0  0  0  0  0  0  0
   22.9387  -21.0431  -11.3119 C   0  0  0  0  0  0  0  0  0  0  0  0
   21.8055  -20.4934  -12.0793 C   0  0  0  0  0  0  0  0  0  0  0  0
   20.7147  -21.1017  -12.1603 O   0  0  0  0  0  0  0  0  0  0  0  0
   25.2167  -20.7966  -10.6182 C   0  0  0  0  0  0  0  0  0  0  0  0
   25.6785  -21.9662  -10.6897 O   0  0  0  0  0  0  0  0  0  0  0  0
   21.9674  -19.2893  -12.7108 O   0  0  0  0  0  0  0  0  0  0  0  0
   25.5644  -19.8895   -9.5922 N   0  0  0  0  0  0  0  0  0  0  0  0
   26.3830  -20.3421   -8.4607 C   0  0  1  0  0  0  0  0  0  0  0  0
   27.2249  -19.1991   -7.9541 C   0  0  0  0  0  0  0  0  0  0  0  0
   27.9779  -19.5958   -6.7623 C   0  0  0  0  0  0  0  0  0  0  0  0
   28.9507  -20.5663   -6.8263 C   0  0  0  0  0  0  0  0  0  0  0  0
   29.6816  -20.9362   -5.7203 C   0  0  0  0  0  0  0  0  0  0  0  0
   29.4434  -20.3260   -4.5062 C   0  0  0  0  0  0  0  0  0  0  0  0
   28.4771  -19.3584   -4.4310 C   0  0  0  0  0  0  0  0  0  0  0  0
   27.7518  -19.0005   -5.5587 C   0  0  0  0  0  0  0  0  0  0  0  0
   25.5351  -20.9689   -7.4260 C   0  0  0  0  0  0  0  0  0  0  0  0
   25.9975  -21.8832   -6.5219 O   0  0  0  0  0  0  0  0  0  0  0  0
   24.3067  -20.6589   -7.3539 O   0  0  0  0  0  0  0  0  0  0  0  0
  2  1  1  6
  3  2  1  0
  4  3  1  0
  5  4  2  0
  6  2  1  0
  7  6  2  0
  8  4  1  0
  9  6  1  0
 10 11  1  1
 10  9  1  0
 12 16  1  0
 12 11  1  0
 13 12  2  0
 14 10  1  0
 15 14  2  0
 17 14  1  0
 18 17  1  0
 18 19  1  1
 19 20  1  0
 20 21  2  0
 21 22  1  0
 23 22  2  0
 24 23  1  0
 25 20  1  0
 25 24  2  0
 26 18  1  0
 26 27  1  0
 28 26  2  0
M  END
$$$$
