DDF.pdb
     RDKit          3D

 28 28  0  0  1  0  0  0  0  0999 V2000
   16.8610  -13.4285  -17.7422 N   0  0  0  0  0  0  0  0  0  0  0  0
   16.9691  -12.6085  -16.5728 C   0  0  1  0  0  0  0  0  0  0  0  0
   17.5467  -13.4056  -15.4192 C   0  0  0  0  0  0  0  0  0  0  0  0
   16.5400  -14.4047  -14.9898 C   0  0  0  0  0  0  0  0  0  0  0  0
   16.8312  -15.5346  -14.5064 O   0  0  0  0  0  0  0  0  0  0  0  0
   17.7296  -11.3483  -16.7893 C   0  0  0  0  0  0  0  0  0  0  0  0
   18.6491  -11.4274  -17.6631 O   0  0  0  0  0  0  0  0  0  0  0  0
   15.1813  -14.1311  -15.1047 O   0  0  0  0  0  0  0  0  0  0  0  0
   17.4482  -10.1496  -16.0747 N   0  0  0  0  0  0  0  0  0  0  0  0
   18.2760   -8.9940  -16.3379 C   0  0  1  0  0  0  0  0  0  0  0  0
   17.6822   -7.7143  -15.7677 C   0  0  0  0  0  0  0  0  0  0  0  0
   16.4151   -7.3390  -16.4225 C   0  0  0  0  0  0  0  0  0  0  0  0
   15.3273   -7.3641  -15.8040 O   0  0  0  0  0  0  0  0  0  0  0  0
   19.6228   -9.1153  -15.7197 C   0  0  0  0  0  0  0  0  0  0  0  0
   19.6713   -9.6853  -14.5976 O   0  0  0  0  0  0  0  0  0  0  0  0
   16.4476   -6.9566  -17.7369 O   0  0  0  0  0  0  0  0  0  0  0  0
   20.7651   -8.6101  -16.3802 N   0  0  0  0  0  0  0  0  0  0  0  0
   22.0908   -8.7572  -15.7670 C   0  0  1  0  0  0  0  0  0  0  0  0
   22.8998   -9.7652  -16.5424 C   0  0  0  0  0  0  0  0  0  0  0  0
   24.2591   -9.8648  -16.0065 C   0  0  0  0  0  0  0  0  0  0  0  0
   25.2839   -9.1057  -16.5220 C   0  0  0  0  0  0  0  0  0  0  0  0
   26.5624   -9.1721  -16.0166 C   0  0  0  0  0  0  0  0  0  0  0  0
   26.8397  -10.0191  -14.9636 C   0  0  0  0  0  0  0  0  0  0  0  0
   25.8267  -10.7795  -14.4425 C   0  0  0  0  0  0  0  0  0  0  0  0
   24.5447  -10.6971  -14.9673 C   0  0  0  0  0  0  0  0  0  0  0  0
   22.7457   -7.4404  -15.6272 C   0  0  0  0  0  0  0  0  0  0  0  0
   23.4850   -7.0759  -14.5373 O   0  0  0  0  0  0  0  0  0  0  0  0
   22.6284   -6.5833  -16.5556 O   0  0  0  0  0  0  0  0  0  0  0  0
  2  1  1  6
  3  2  1  0
  4  3  1  0
  5  4  2  0
  6  2  1  0
  7  6  2  0
  8  4  1  0
  9  6  1  0
 10 11  1  1
 10  9  1  0
 12 16  1  0
 12 11  1  0
 13 12  2  0
 14 10  1  0
 15 14  2  0
 17 14  1  0
 18 17  1  0
 18 19  1  6
 19 20  1  0
 20 21  2  0
 21 22  1  0
 23 22  2  0
 24 23  1  0
 25 20  1  0
 25 24  2  0
 26 18  1  0
 26 27  1  0
 28 26  2  0
M  END
$$$$
