DDF.pdb
     RDKit          3D

 28 28  0  0  1  0  0  0  0  0999 V2000
   29.0036  -21.7542  -15.3986 N   0  0  0  0  0  0  0  0  0  0  0  0
   27.6223  -21.7293  -15.7767 C   0  0  1  0  0  0  0  0  0  0  0  0
   27.1309  -23.1319  -16.0782 C   0  0  0  0  0  0  0  0  0  0  0  0
   26.1905  -23.0631  -17.2214 C   0  0  0  0  0  0  0  0  0  0  0  0
   25.2503  -23.8852  -17.4100 O   0  0  0  0  0  0  0  0  0  0  0  0
   26.7398  -21.0513  -14.7894 C   0  0  0  0  0  0  0  0  0  0  0  0
   26.2263  -19.9625  -15.1971 O   0  0  0  0  0  0  0  0  0  0  0  0
   26.3067  -22.0532  -18.1704 O   0  0  0  0  0  0  0  0  0  0  0  0
   26.4903  -21.5813  -13.4918 N   0  0  0  0  0  0  0  0  0  0  0  0
   25.5860  -20.8575  -12.6269 C   0  0  1  0  0  0  0  0  0  0  0  0
   24.1266  -21.1679  -12.9252 C   0  0  0  0  0  0  0  0  0  0  0  0
   23.2042  -20.5008  -11.9873 C   0  0  0  0  0  0  0  0  0  0  0  0
   23.5005  -19.4147  -11.4406 O   0  0  0  0  0  0  0  0  0  0  0  0
   25.7801  -21.2051  -11.1944 C   0  0  0  0  0  0  0  0  0  0  0  0
   25.7497  -22.4316  -10.9098 O   0  0  0  0  0  0  0  0  0  0  0  0
   22.0007  -21.0968  -11.7203 O   0  0  0  0  0  0  0  0  0  0  0  0
   25.9858  -20.1927  -10.2304 N   0  0  0  0  0  0  0  0  0  0  0  0
   26.4327  -20.5487   -8.8782 C   0  0  1  0  0  0  0  0  0  0  0  0
   27.3879  -19.5009   -8.3668 C   0  0  0  0  0  0  0  0  0  0  0  0
   27.8058  -19.8022   -6.9960 C   0  0  0  0  0  0  0  0  0  0  0  0
   28.6545  -20.8504   -6.7255 C   0  0  0  0  0  0  0  0  0  0  0  0
   29.0731  -21.1345   -5.4455 C   0  0  0  0  0  0  0  0  0  0  0  0
   28.6379  -20.3554   -4.3935 C   0  0  0  0  0  0  0  0  0  0  0  0
   27.7926  -19.3090   -4.6514 C   0  0  0  0  0  0  0  0  0  0  0  0
   27.3828  -19.0401   -5.9497 C   0  0  0  0  0  0  0  0  0  0  0  0
   25.2725  -20.7867   -7.9952 C   0  0  0  0  0  0  0  0  0  0  0  0
   24.0099  -20.3422   -8.2701 O   0  0  0  0  0  0  0  0  0  0  0  0
   25.4321  -21.4349   -6.9160 O   0  0  0  0  0  0  0  0  0  0  0  0
  2  1  1  1
  3  2  1  0
  4  3  1  0
  5  4  2  0
  6  2  1  0
  7  6  2  0
  8  4  1  0
  9  6  1  0
 10 11  1  6
 10  9  1  0
 12 16  1  0
 12 11  1  0
 13 12  2  0
 14 10  1  0
 15 14  2  0
 17 14  1  0
 18 17  1  0
 18 19  1  1
 19 20  1  0
 20 21  2  0
 21 22  1  0
 23 22  2  0
 24 23  1  0
 25 20  1  0
 25 24  2  0
 26 18  1  0
 26 27  1  0
 28 26  2  0
M  END
$$$$
