DDF.pdb
     RDKit          3D

 28 28  0  0  1  0  0  0  0  0999 V2000
   15.9575  -10.4275  -17.5386 N   0  0  0  0  0  0  0  0  0  0  0  0
   16.9479  -10.3609  -16.5059 C   0  0  1  0  0  0  0  0  0  0  0  0
   17.8585  -11.5720  -16.5671 C   0  0  0  0  0  0  0  0  0  0  0  0
   17.1031  -12.7509  -16.0818 C   0  0  0  0  0  0  0  0  0  0  0  0
   16.2049  -12.6954  -15.1955 O   0  0  0  0  0  0  0  0  0  0  0  0
   17.7334   -9.0975  -16.5055 C   0  0  0  0  0  0  0  0  0  0  0  0
   18.6532   -9.0448  -17.3812 O   0  0  0  0  0  0  0  0  0  0  0  0
   17.3598  -14.0155  -16.6003 O   0  0  0  0  0  0  0  0  0  0  0  0
   17.4740   -8.0326  -15.5970 N   0  0  0  0  0  0  0  0  0  0  0  0
   18.3135   -6.8581  -15.6726 C   0  0  1  0  0  0  0  0  0  0  0  0
   17.7457   -5.6886  -14.8820 C   0  0  0  0  0  0  0  0  0  0  0  0
   18.5200   -4.4480  -15.0740 C   0  0  0  0  0  0  0  0  0  0  0  0
   19.4387   -4.3755  -15.9207 O   0  0  0  0  0  0  0  0  0  0  0  0
   19.6675   -7.0982  -15.1072 C   0  0  0  0  0  0  0  0  0  0  0  0
   19.7126   -7.7319  -14.0197 O   0  0  0  0  0  0  0  0  0  0  0  0
   18.2133   -3.3606  -14.3004 O   0  0  0  0  0  0  0  0  0  0  0  0
   20.8198   -6.6297  -15.7774 N   0  0  0  0  0  0  0  0  0  0  0  0
   22.1534   -6.9928  -15.2825 C   0  0  1  0  0  0  0  0  0  0  0  0
   22.6999   -8.1410  -16.0918 C   0  0  0  0  0  0  0  0  0  0  0  0
   24.0639   -8.4704  -15.6727 C   0  0  0  0  0  0  0  0  0  0  0  0
   25.1547   -7.9387  -16.3203 C   0  0  0  0  0  0  0  0  0  0  0  0
   26.4427   -8.2218  -15.9263 C   0  0  0  0  0  0  0  0  0  0  0  0
   26.6622   -9.0609  -14.8536 C   0  0  0  0  0  0  0  0  0  0  0  0
   25.5832   -9.5960  -14.2013 C   0  0  0  0  0  0  0  0  0  0  0  0
   24.2928   -9.2972  -14.6153 C   0  0  0  0  0  0  0  0  0  0  0  0
   23.0343   -5.8073  -15.2501 C   0  0  0  0  0  0  0  0  0  0  0  0
   22.9807   -4.8005  -16.1725 O   0  0  0  0  0  0  0  0  0  0  0  0
   23.8970   -5.6959  -14.3262 O   0  0  0  0  0  0  0  0  0  0  0  0
  2  1  1  6
  3  2  1  0
  4  3  1  0
  5  4  2  0
  6  2  1  0
  7  6  2  0
  8  4  1  0
  9  6  1  0
 10 11  1  1
 10  9  1  0
 12 16  1  0
 12 11  1  0
 13 12  2  0
 14 10  1  0
 15 14  2  0
 17 14  1  0
 18 17  1  0
 18 19  1  6
 19 20  1  0
 20 21  2  0
 21 22  1  0
 23 22  2  0
 24 23  1  0
 25 20  1  0
 25 24  2  0
 26 18  1  0
 26 27  1  0
 28 26  2  0
M  END
$$$$
