DDF.pdb
     RDKit          3D

 28 28  0  0  1  0  0  0  0  0999 V2000
   35.3662  -36.7716    3.1365 N   0  0  0  0  0  0  0  0  0  0  0  0
   34.2930  -36.7424    4.0847 C   0  0  1  0  0  0  0  0  0  0  0  0
   34.5432  -35.6766    5.1342 C   0  0  0  0  0  0  0  0  0  0  0  0
   35.4761  -36.2258    6.1462 C   0  0  0  0  0  0  0  0  0  0  0  0
   35.9309  -37.4037    6.1186 O   0  0  0  0  0  0  0  0  0  0  0  0
   32.9486  -36.5839    3.4678 C   0  0  0  0  0  0  0  0  0  0  0  0
   32.9307  -35.8815    2.4086 O   0  0  0  0  0  0  0  0  0  0  0  0
   35.9071  -35.4388    7.2087 O   0  0  0  0  0  0  0  0  0  0  0  0
   31.7762  -37.1732    4.0200 N   0  0  0  0  0  0  0  0  0  0  0  0
   30.5264  -36.9790    3.3201 C   0  0  1  0  0  0  0  0  0  0  0  0
   29.6413  -38.2160    3.3613 C   0  0  0  0  0  0  0  0  0  0  0  0
   28.4484  -38.0858    2.5036 C   0  0  0  0  0  0  0  0  0  0  0  0
   28.2666  -37.0769    1.7858 O   0  0  0  0  0  0  0  0  0  0  0  0
   29.7113  -35.8887    3.9182 C   0  0  0  0  0  0  0  0  0  0  0  0
   29.6604  -35.8574    5.1762 O   0  0  0  0  0  0  0  0  0  0  0  0
   27.5297  -39.1011    2.5046 O   0  0  0  0  0  0  0  0  0  0  0  0
   29.0440  -34.9550    3.0939 N   0  0  0  0  0  0  0  0  0  0  0  0
   28.1779  -33.9340    3.6960 C   0  0  1  0  0  0  0  0  0  0  0  0
   28.1555  -32.7070    2.8209 C   0  0  0  0  0  0  0  0  0  0  0  0
   27.1664  -31.7412    3.3040 C   0  0  0  0  0  0  0  0  0  0  0  0
   27.3944  -30.9970    4.4382 C   0  0  0  0  0  0  0  0  0  0  0  0
   26.4845  -30.0705    4.8943 C   0  0  0  0  0  0  0  0  0  0  0  0
   25.3059  -29.8713    4.2056 C   0  0  0  0  0  0  0  0  0  0  0  0
   25.0685  -30.6068    3.0749 C   0  0  0  0  0  0  0  0  0  0  0  0
   25.9997  -31.5358    2.6326 C   0  0  0  0  0  0  0  0  0  0  0  0
   26.8405  -34.4927    3.9822 C   0  0  0  0  0  0  0  0  0  0  0  0
   26.1092  -35.2056    3.0743 O   0  0  0  0  0  0  0  0  0  0  0  0
   26.3206  -34.3125    5.1256 O   0  0  0  0  0  0  0  0  0  0  0  0
  2  1  1  6
  3  2  1  0
  4  3  1  0
  5  4  2  0
  6  2  1  0
  7  6  2  0
  8  4  1  0
  9  6  1  0
 10 11  1  1
 10  9  1  0
 12 16  1  0
 12 11  1  0
 13 12  2  0
 14 10  1  0
 15 14  2  0
 17 14  1  0
 18 17  1  0
 18 19  1  6
 19 20  1  0
 20 21  2  0
 21 22  1  0
 23 22  2  0
 24 23  1  0
 25 20  1  0
 25 24  2  0
 26 18  1  0
 26 27  1  0
 28 26  2  0
M  END
$$$$
