DDF.pdb
     RDKit          3D

 28 28  0  0  1  0  0  0  0  0999 V2000
   26.4174  -20.8998  -15.6257 N   0  0  0  0  0  0  0  0  0  0  0  0
   26.6850  -19.7004  -14.8898 C   0  0  1  0  0  0  0  0  0  0  0  0
   26.3563  -18.4805  -15.7285 C   0  0  0  0  0  0  0  0  0  0  0  0
   27.1476  -18.5455  -16.9798 C   0  0  0  0  0  0  0  0  0  0  0  0
   27.6589  -17.5369  -17.5426 O   0  0  0  0  0  0  0  0  0  0  0  0
   26.0067  -19.6417  -13.5670 C   0  0  0  0  0  0  0  0  0  0  0  0
   25.9532  -18.4819  -13.0497 O   0  0  0  0  0  0  0  0  0  0  0  0
   27.3697  -19.7645  -17.6113 O   0  0  0  0  0  0  0  0  0  0  0  0
   25.4606  -20.7932  -12.9325 N   0  0  0  0  0  0  0  0  0  0  0  0
   24.7833  -20.6127  -11.6682 C   0  0  1  0  0  0  0  0  0  0  0  0
   23.5710  -21.5212  -11.5258 C   0  0  0  0  0  0  0  0  0  0  0  0
   22.5205  -21.2207  -12.5166 C   0  0  0  0  0  0  0  0  0  0  0  0
   21.8017  -20.2009  -12.4180 O   0  0  0  0  0  0  0  0  0  0  0  0
   25.6588  -20.9364  -10.5108 C   0  0  0  0  0  0  0  0  0  0  0  0
   26.2947  -22.0214  -10.5798 O   0  0  0  0  0  0  0  0  0  0  0  0
   22.3414  -22.0872  -13.5615 O   0  0  0  0  0  0  0  0  0  0  0  0
   25.7513  -20.0546   -9.4107 N   0  0  0  0  0  0  0  0  0  0  0  0
   26.5550  -20.4262   -8.2397 C   0  0  1  0  0  0  0  0  0  0  0  0
   27.4446  -19.2741   -7.8483 C   0  0  0  0  0  0  0  0  0  0  0  0
   28.0635  -19.5146   -6.5430 C   0  0  0  0  0  0  0  0  0  0  0  0
   27.7014  -18.7793   -5.4382 C   0  0  0  0  0  0  0  0  0  0  0  0
   28.2583  -19.0063   -4.2002 C   0  0  0  0  0  0  0  0  0  0  0  0
   29.2077  -19.9953   -4.0469 C   0  0  0  0  0  0  0  0  0  0  0  0
   29.5757  -20.7336   -5.1403 C   0  0  0  0  0  0  0  0  0  0  0  0
   29.0014  -20.4881   -6.3795 C   0  0  0  0  0  0  0  0  0  0  0  0
   25.6861  -20.9125   -7.1484 C   0  0  0  0  0  0  0  0  0  0  0  0
   24.3411  -20.6783   -7.0919 O   0  0  0  0  0  0  0  0  0  0  0  0
   26.1935  -21.5850   -6.1994 O   0  0  0  0  0  0  0  0  0  0  0  0
  2  1  1  6
  3  2  1  0
  4  3  1  0
  5  4  2  0
  6  2  1  0
  7  6  2  0
  8  4  1  0
  9  6  1  0
 10 11  1  6
 10  9  1  0
 12 16  1  0
 12 11  1  0
 13 12  2  0
 14 10  1  0
 15 14  2  0
 17 14  1  0
 18 17  1  0
 18 19  1  1
 19 20  1  0
 20 21  2  0
 21 22  1  0
 23 22  2  0
 24 23  1  0
 25 20  1  0
 25 24  2  0
 26 18  1  0
 26 27  1  0
 28 26  2  0
M  END
$$$$
