DDF.pdb
     RDKit          3D

 28 28  0  0  1  0  0  0  0  0999 V2000
   18.3979  -10.8892  -17.8913 N   0  0  0  0  0  0  0  0  0  0  0  0
   19.6285  -10.7406  -17.1735 C   0  0  1  0  0  0  0  0  0  0  0  0
   20.5570  -11.9027  -17.4690 C   0  0  0  0  0  0  0  0  0  0  0  0
   19.9589  -13.1353  -16.9044 C   0  0  0  0  0  0  0  0  0  0  0  0
   19.2044  -13.1517  -15.8917 O   0  0  0  0  0  0  0  0  0  0  0  0
   20.3077   -9.4375  -17.4060 C   0  0  0  0  0  0  0  0  0  0  0  0
   21.5207   -9.3971  -17.0286 O   0  0  0  0  0  0  0  0  0  0  0  0
   20.2116  -14.3727  -17.4869 O   0  0  0  0  0  0  0  0  0  0  0  0
   19.6506   -8.3254  -18.0045 N   0  0  0  0  0  0  0  0  0  0  0  0
   20.3905   -7.0902  -18.1327 C   0  0  1  0  0  0  0  0  0  0  0  0
   19.7532   -6.1342  -19.1303 C   0  0  0  0  0  0  0  0  0  0  0  0
   19.7833   -6.6549  -20.5099 C   0  0  0  0  0  0  0  0  0  0  0  0
   18.7328   -6.8155  -21.1709 O   0  0  0  0  0  0  0  0  0  0  0  0
   20.4562   -6.3392  -16.8511 C   0  0  0  0  0  0  0  0  0  0  0  0
   19.4251   -6.3788  -16.1289 O   0  0  0  0  0  0  0  0  0  0  0  0
   20.9963   -6.9642  -21.0647 O   0  0  0  0  0  0  0  0  0  0  0  0
   21.6251   -5.6315  -16.4917 N   0  0  0  0  0  0  0  0  0  0  0  0
   21.6949   -4.9415  -15.1978 C   0  0  1  0  0  0  0  0  0  0  0  0
   22.9167   -5.3997  -14.4434 C   0  0  0  0  0  0  0  0  0  0  0  0
   22.8512   -6.8370  -14.1705 C   0  0  0  0  0  0  0  0  0  0  0  0
   22.0092   -7.3399  -13.2061 C   0  0  0  0  0  0  0  0  0  0  0  0
   21.9205   -8.6896  -12.9513 C   0  0  0  0  0  0  0  0  0  0  0  0
   22.6915   -9.5756  -13.6749 C   0  0  0  0  0  0  0  0  0  0  0  0
   23.5335   -9.0857  -14.6378 C   0  0  0  0  0  0  0  0  0  0  0  0
   23.6073   -7.7210  -14.8785 C   0  0  0  0  0  0  0  0  0  0  0  0
   21.6186   -3.4782  -15.3865 C   0  0  0  0  0  0  0  0  0  0  0  0
   21.5177   -2.5875  -14.3551 O   0  0  0  0  0  0  0  0  0  0  0  0
   21.6444   -2.9983  -16.5609 O   0  0  0  0  0  0  0  0  0  0  0  0
  2  1  1  6
  3  2  1  0
  4  3  1  0
  5  4  2  0
  6  2  1  0
  7  6  2  0
  8  4  1  0
  9  6  1  0
 10 11  1  6
 10  9  1  0
 12 16  1  0
 12 11  1  0
 13 12  2  0
 14 10  1  0
 15 14  2  0
 17 14  1  0
 18 17  1  0
 18 19  1  6
 19 20  1  0
 20 21  2  0
 21 22  1  0
 23 22  2  0
 24 23  1  0
 25 20  1  0
 25 24  2  0
 26 18  1  0
 26 27  1  0
 28 26  2  0
M  END
$$$$
