DDF.pdb
     RDKit          3D

 28 28  0  0  1  0  0  0  0  0999 V2000
   18.0329  -13.5290  -19.1436 N   0  0  0  0  0  0  0  0  0  0  0  0
   17.1144  -12.7281  -18.3909 C   0  0  1  0  0  0  0  0  0  0  0  0
   16.8743  -13.3412  -17.0248 C   0  0  0  0  0  0  0  0  0  0  0  0
   16.2073  -14.6514  -17.2101 C   0  0  0  0  0  0  0  0  0  0  0  0
   15.0956  -14.7996  -17.7910 O   0  0  0  0  0  0  0  0  0  0  0  0
   17.5148  -11.2999  -18.2762 C   0  0  0  0  0  0  0  0  0  0  0  0
   18.7625  -11.0880  -18.3939 O   0  0  0  0  0  0  0  0  0  0  0  0
   16.7985  -15.8172  -16.7352 O   0  0  0  0  0  0  0  0  0  0  0  0
   16.5744  -10.2546  -18.0532 N   0  0  0  0  0  0  0  0  0  0  0  0
   17.0745   -8.9010  -17.9655 C   0  0  1  0  0  0  0  0  0  0  0  0
   15.9741   -7.8647  -18.1403 C   0  0  0  0  0  0  0  0  0  0  0  0
   16.4942   -6.4846  -18.1490 C   0  0  0  0  0  0  0  0  0  0  0  0
   15.8833   -5.5523  -17.5798 O   0  0  0  0  0  0  0  0  0  0  0  0
   17.6837   -8.6121  -16.6403 C   0  0  0  0  0  0  0  0  0  0  0  0
   17.1228   -9.1383  -15.6429 O   0  0  0  0  0  0  0  0  0  0  0  0
   17.6735   -6.2354  -18.7988 O   0  0  0  0  0  0  0  0  0  0  0  0
   18.8284   -7.7901  -16.5392 N   0  0  0  0  0  0  0  0  0  0  0  0
   19.4355   -7.5379  -15.2265 C   0  0  1  0  0  0  0  0  0  0  0  0
   20.9026   -7.8804  -15.2715 C   0  0  0  0  0  0  0  0  0  0  0  0
   21.5326   -7.6428  -13.9710 C   0  0  0  0  0  0  0  0  0  0  0  0
   21.6938   -8.6626  -13.0621 C   0  0  0  0  0  0  0  0  0  0  0  0
   22.3022   -8.4607  -11.8441 C   0  0  0  0  0  0  0  0  0  0  0  0
   22.7684   -7.2059  -11.5107 C   0  0  0  0  0  0  0  0  0  0  0  0
   22.6131   -6.1830  -12.4083 C   0  0  0  0  0  0  0  0  0  0  0  0
   21.9968   -6.4086  -13.6310 C   0  0  0  0  0  0  0  0  0  0  0  0
   19.1538   -6.1574  -14.7823 C   0  0  0  0  0  0  0  0  0  0  0  0
   18.9606   -5.8086  -13.4753 O   0  0  0  0  0  0  0  0  0  0  0  0
   19.0806   -5.2277  -15.6428 O   0  0  0  0  0  0  0  0  0  0  0  0
  2  1  1  1
  3  2  1  0
  4  3  1  0
  5  4  2  0
  6  2  1  0
  7  6  2  0
  8  4  1  0
  9  6  1  0
 10 11  1  1
 10  9  1  0
 12 16  1  0
 12 11  1  0
 13 12  2  0
 14 10  1  0
 15 14  2  0
 17 14  1  0
 18 17  1  0
 18 19  1  6
 19 20  1  0
 20 21  2  0
 21 22  1  0
 23 22  2  0
 24 23  1  0
 25 20  1  0
 25 24  2  0
 26 18  1  0
 26 27  1  0
 28 26  2  0
M  END
$$$$
