DDF.pdb
     RDKit          3D

 28 28  0  0  1  0  0  0  0  0999 V2000
   44.1862  -13.3408   -7.5053 N   0  0  0  0  0  0  0  0  0  0  0  0
   43.6847  -12.2275   -8.2541 C   0  0  1  0  0  0  0  0  0  0  0  0
   42.9108  -12.7102   -9.4657 C   0  0  0  0  0  0  0  0  0  0  0  0
   43.8650  -13.3326  -10.4134 C   0  0  0  0  0  0  0  0  0  0  0  0
   45.0343  -12.9019  -10.6197 O   0  0  0  0  0  0  0  0  0  0  0  0
   42.8784  -11.2729   -7.4468 C   0  0  0  0  0  0  0  0  0  0  0  0
   41.9890  -11.8144   -6.7179 O   0  0  0  0  0  0  0  0  0  0  0  0
   43.5009  -14.4591  -11.1431 O   0  0  0  0  0  0  0  0  0  0  0  0
   43.0877   -9.8653   -7.4874 N   0  0  0  0  0  0  0  0  0  0  0  0
   42.2620   -9.0330   -6.6416 C   0  0  1  0  0  0  0  0  0  0  0  0
   43.0371   -7.8706   -6.0390 C   0  0  0  0  0  0  0  0  0  0  0  0
   42.2090   -7.0452   -5.1399 C   0  0  0  0  0  0  0  0  0  0  0  0
   41.5743   -7.5515   -4.1876 O   0  0  0  0  0  0  0  0  0  0  0  0
   41.1369   -8.4131   -7.3901 C   0  0  0  0  0  0  0  0  0  0  0  0
   41.3744   -8.0868   -8.5832 O   0  0  0  0  0  0  0  0  0  0  0  0
   42.1447   -5.6963   -5.3665 O   0  0  0  0  0  0  0  0  0  0  0  0
   39.8829   -8.2155   -6.7696 N   0  0  0  0  0  0  0  0  0  0  0  0
   38.7541   -7.6929   -7.5492 C   0  0  1  0  0  0  0  0  0  0  0  0
   37.5133   -8.4927   -7.2446 C   0  0  0  0  0  0  0  0  0  0  0  0
   37.6956   -9.8976   -7.6158 C   0  0  0  0  0  0  0  0  0  0  0  0
   37.7925  -10.2779   -8.9342 C   0  0  0  0  0  0  0  0  0  0  0  0
   37.9844  -11.5909   -9.2992 C   0  0  0  0  0  0  0  0  0  0  0  0
   38.0841  -12.5648   -8.3272 C   0  0  0  0  0  0  0  0  0  0  0  0
   37.9890  -12.1973   -7.0112 C   0  0  0  0  0  0  0  0  0  0  0  0
   37.7955  -10.8674   -6.6652 C   0  0  0  0  0  0  0  0  0  0  0  0
   38.6016   -6.2400   -7.3297 C   0  0  0  0  0  0  0  0  0  0  0  0
   39.3397   -5.5309   -6.4243 O   0  0  0  0  0  0  0  0  0  0  0  0
   37.7438   -5.5934   -8.0053 O   0  0  0  0  0  0  0  0  0  0  0  0
  2  1  1  1
  3  2  1  0
  4  3  1  0
  5  4  2  0
  6  2  1  0
  7  6  2  0
  8  4  1  0
  9  6  1  0
 10 11  1  6
 10  9  1  0
 12 16  1  0
 12 11  1  0
 13 12  2  0
 14 10  1  0
 15 14  2  0
 17 14  1  0
 18 17  1  0
 18 19  1  1
 19 20  1  0
 20 21  2  0
 21 22  1  0
 23 22  2  0
 24 23  1  0
 25 20  1  0
 25 24  2  0
 26 18  1  0
 26 27  1  0
 28 26  2  0
M  END
$$$$
