DDF.pdb
     RDKit          3D

 28 28  0  0  1  0  0  0  0  0999 V2000
   23.5895  -18.6581  -13.4351 N   0  0  0  0  0  0  0  0  0  0  0  0
   23.3140  -19.8337  -12.6645 C   0  0  1  0  0  0  0  0  0  0  0  0
   22.1779  -20.6210  -13.2884 C   0  0  0  0  0  0  0  0  0  0  0  0
   21.1225  -19.6686  -13.7067 C   0  0  0  0  0  0  0  0  0  0  0  0
   20.7629  -18.6706  -13.0213 O   0  0  0  0  0  0  0  0  0  0  0  0
   24.5042  -20.6967  -12.4365 C   0  0  0  0  0  0  0  0  0  0  0  0
   24.2368  -21.9161  -12.1971 O   0  0  0  0  0  0  0  0  0  0  0  0
   20.4583  -19.8388  -14.9167 O   0  0  0  0  0  0  0  0  0  0  0  0
   25.8360  -20.1959  -12.4839 N   0  0  0  0  0  0  0  0  0  0  0  0
   26.9144  -21.1100  -12.1819 C   0  0  1  0  0  0  0  0  0  0  0  0
   28.2002  -20.7498  -12.9116 C   0  0  0  0  0  0  0  0  0  0  0  0
   27.9722  -20.4298  -14.3332 C   0  0  0  0  0  0  0  0  0  0  0  0
   27.4823  -21.2692  -15.1216 O   0  0  0  0  0  0  0  0  0  0  0  0
   27.2651  -21.1073  -10.7370 C   0  0  0  0  0  0  0  0  0  0  0  0
   28.4915  -21.1865  -10.4613 O   0  0  0  0  0  0  0  0  0  0  0  0
   28.3095  -19.1815  -14.7836 O   0  0  0  0  0  0  0  0  0  0  0  0
   26.2555  -21.0186   -9.7525 N   0  0  0  0  0  0  0  0  0  0  0  0
   26.6192  -20.9949   -8.3304 C   0  0  1  0  0  0  0  0  0  0  0  0
   27.6144  -19.8911   -8.0792 C   0  0  0  0  0  0  0  0  0  0  0  0
   27.9679  -19.8222   -6.6597 C   0  0  0  0  0  0  0  0  0  0  0  0
   27.6184  -18.7358   -5.8919 C   0  0  0  0  0  0  0  0  0  0  0  0
   27.9249  -18.6644   -4.5520 C   0  0  0  0  0  0  0  0  0  0  0  0
   28.6017  -19.7036   -3.9477 C   0  0  0  0  0  0  0  0  0  0  0  0
   28.9546  -20.7904   -4.7028 C   0  0  0  0  0  0  0  0  0  0  0  0
   28.6356  -20.8419   -6.0524 C   0  0  0  0  0  0  0  0  0  0  0  0
   25.4085  -20.9160   -7.4875 C   0  0  0  0  0  0  0  0  0  0  0  0
   25.3471  -21.3888   -6.2068 O   0  0  0  0  0  0  0  0  0  0  0  0
   24.3550  -20.3865   -7.9565 O   0  0  0  0  0  0  0  0  0  0  0  0
  2  1  1  6
  3  2  1  0
  4  3  1  0
  5  4  2  0
  6  2  1  0
  7  6  2  0
  8  4  1  0
  9  6  1  0
 10 11  1  6
 10  9  1  0
 12 16  1  0
 12 11  1  0
 13 12  2  0
 14 10  1  0
 15 14  2  0
 17 14  1  0
 18 17  1  0
 18 19  1  6
 19 20  1  0
 20 21  2  0
 21 22  1  0
 23 22  2  0
 24 23  1  0
 25 20  1  0
 25 24  2  0
 26 18  1  0
 26 27  1  0
 28 26  2  0
M  END
$$$$
