DDF.pdb
     RDKit          3D

 28 28  0  0  1  0  0  0  0  0999 V2000
   16.9630  -12.7339  -14.4862 N   0  0  0  0  0  0  0  0  0  0  0  0
   16.0903  -11.6086  -14.3322 C   0  0  1  0  0  0  0  0  0  0  0  0
   14.6994  -12.0675  -13.9392 C   0  0  0  0  0  0  0  0  0  0  0  0
   14.1757  -12.9460  -15.0116 C   0  0  0  0  0  0  0  0  0  0  0  0
   14.0179  -12.5774  -16.2093 O   0  0  0  0  0  0  0  0  0  0  0  0
   16.6008  -10.5750  -13.3917 C   0  0  0  0  0  0  0  0  0  0  0  0
   17.0535  -11.0327  -12.2957 O   0  0  0  0  0  0  0  0  0  0  0  0
   13.8227  -14.2625  -14.7354 O   0  0  0  0  0  0  0  0  0  0  0  0
   16.5841   -9.1845  -13.6965 N   0  0  0  0  0  0  0  0  0  0  0  0
   16.9826   -8.2591  -12.6598 C   0  0  1  0  0  0  0  0  0  0  0  0
   17.5208   -6.9529  -13.2252 C   0  0  0  0  0  0  0  0  0  0  0  0
   18.8157   -7.1249  -13.9100 C   0  0  0  0  0  0  0  0  0  0  0  0
   19.8159   -7.5810  -13.3118 O   0  0  0  0  0  0  0  0  0  0  0  0
   15.8448   -7.8726  -11.7842 C   0  0  0  0  0  0  0  0  0  0  0  0
   14.7385   -7.6887  -12.3574 O   0  0  0  0  0  0  0  0  0  0  0  0
   18.9080   -6.7730  -15.2301 O   0  0  0  0  0  0  0  0  0  0  0  0
   16.0268   -7.7288  -10.3905 N   0  0  0  0  0  0  0  0  0  0  0  0
   14.9133   -7.2727   -9.5495 C   0  0  1  0  0  0  0  0  0  0  0  0
   15.0815   -7.8076   -8.1505 C   0  0  0  0  0  0  0  0  0  0  0  0
   13.9738   -7.3802   -7.2932 C   0  0  0  0  0  0  0  0  0  0  0  0
   14.0803   -6.2626   -6.4983 C   0  0  0  0  0  0  0  0  0  0  0  0
   13.0418   -5.8356   -5.7024 C   0  0  0  0  0  0  0  0  0  0  0  0
   11.8543   -6.5376   -5.6904 C   0  0  0  0  0  0  0  0  0  0  0  0
   11.7373   -7.6520   -6.4781 C   0  0  0  0  0  0  0  0  0  0  0  0
   12.7971   -8.0650   -7.2731 C   0  0  0  0  0  0  0  0  0  0  0  0
   14.7799   -5.8030   -9.6192 C   0  0  0  0  0  0  0  0  0  0  0  0
   13.5782   -5.1525   -9.6209 O   0  0  0  0  0  0  0  0  0  0  0  0
   15.8236   -5.0841   -9.6835 O   0  0  0  0  0  0  0  0  0  0  0  0
  2  1  1  1
  3  2  1  0
  4  3  1  0
  5  4  2  0
  6  2  1  0
  7  6  2  0
  8  4  1  0
  9  6  1  0
 10 11  1  6
 10  9  1  0
 12 16  1  0
 12 11  1  0
 13 12  2  0
 14 10  1  0
 15 14  2  0
 17 14  1  0
 18 17  1  0
 18 19  1  1
 19 20  1  0
 20 21  2  0
 21 22  1  0
 23 22  2  0
 24 23  1  0
 25 20  1  0
 25 24  2  0
 26 18  1  0
 26 27  1  0
 28 26  2  0
M  END
$$$$
