DDF.pdb
     RDKit          3D

 28 28  0  0  1  0  0  0  0  0999 V2000
   18.7753  -11.6183  -15.2401 N   0  0  0  0  0  0  0  0  0  0  0  0
   19.2353  -11.3830  -16.5760 C   0  0  1  0  0  0  0  0  0  0  0  0
   18.4346  -12.2087  -17.5644 C   0  0  0  0  0  0  0  0  0  0  0  0
   17.4463  -13.0143  -16.8093 C   0  0  0  0  0  0  0  0  0  0  0  0
   16.3256  -13.3681  -17.2720 O   0  0  0  0  0  0  0  0  0  0  0  0
   19.2501   -9.9466  -16.9635 C   0  0  0  0  0  0  0  0  0  0  0  0
   19.6899   -9.7178  -18.1339 O   0  0  0  0  0  0  0  0  0  0  0  0
   17.7203  -13.4309  -15.5110 O   0  0  0  0  0  0  0  0  0  0  0  0
   18.8061   -8.9119  -16.0924 N   0  0  0  0  0  0  0  0  0  0  0  0
   18.9684   -7.5432  -16.5284 C   0  0  1  0  0  0  0  0  0  0  0  0
   17.6583   -6.9243  -16.9930 C   0  0  0  0  0  0  0  0  0  0  0  0
   17.8285   -5.5438  -17.4837 C   0  0  0  0  0  0  0  0  0  0  0  0
   18.7264   -5.2478  -18.3037 O   0  0  0  0  0  0  0  0  0  0  0  0
   19.4584   -6.6604  -15.4371 C   0  0  0  0  0  0  0  0  0  0  0  0
   18.8583   -6.7534  -14.3336 O   0  0  0  0  0  0  0  0  0  0  0  0
   16.9761   -4.5769  -17.0217 O   0  0  0  0  0  0  0  0  0  0  0  0
   20.5398   -5.7781  -15.6570 N   0  0  0  0  0  0  0  0  0  0  0  0
   21.1309   -5.0483  -14.5286 C   0  0  1  0  0  0  0  0  0  0  0  0
   22.5521   -5.5039  -14.3179 C   0  0  0  0  0  0  0  0  0  0  0  0
   22.5966   -6.9256  -13.9695 C   0  0  0  0  0  0  0  0  0  0  0  0
   21.9750   -7.4001  -12.8378 C   0  0  0  0  0  0  0  0  0  0  0  0
   21.9898   -8.7359  -12.5067 C   0  0  0  0  0  0  0  0  0  0  0  0
   22.6424   -9.6368  -13.3226 C   0  0  0  0  0  0  0  0  0  0  0  0
   23.2648   -9.1753  -14.4520 C   0  0  0  0  0  0  0  0  0  0  0  0
   23.2375   -7.8241  -14.7671 C   0  0  0  0  0  0  0  0  0  0  0  0
   20.9897   -3.5907  -14.7236 C   0  0  0  0  0  0  0  0  0  0  0  0
   21.3447   -2.6646  -13.7837 O   0  0  0  0  0  0  0  0  0  0  0  0
   20.5134   -3.1503  -15.8143 O   0  0  0  0  0  0  0  0  0  0  0  0
  2  1  1  1
  3  2  1  0
  4  3  1  0
  5  4  2  0
  6  2  1  0
  7  6  2  0
  8  4  1  0
  9  6  1  0
 10 11  1  1
 10  9  1  0
 12 16  1  0
 12 11  1  0
 13 12  2  0
 14 10  1  0
 15 14  2  0
 17 14  1  0
 18 17  1  0
 18 19  1  6
 19 20  1  0
 20 21  2  0
 21 22  1  0
 23 22  2  0
 24 23  1  0
 25 20  1  0
 25 24  2  0
 26 18  1  0
 26 27  1  0
 28 26  2  0
M  END
$$$$
