DDF.pdb
     RDKit          3D

 28 28  0  0  1  0  0  0  0  0999 V2000
   19.8087  -12.2141  -16.7609 N   0  0  0  0  0  0  0  0  0  0  0  0
   21.0502  -11.8316  -17.3643 C   0  0  1  0  0  0  0  0  0  0  0  0
   21.3538  -12.7174  -18.5572 C   0  0  0  0  0  0  0  0  0  0  0  0
   21.1930  -14.1312  -18.1436 C   0  0  0  0  0  0  0  0  0  0  0  0
   20.1622  -14.5846  -17.5717 O   0  0  0  0  0  0  0  0  0  0  0  0
   21.1227  -10.3918  -17.7318 C   0  0  0  0  0  0  0  0  0  0  0  0
   22.2564  -10.0109  -18.1622 O   0  0  0  0  0  0  0  0  0  0  0  0
   22.2074  -15.0539  -18.3761 O   0  0  0  0  0  0  0  0  0  0  0  0
   20.0101   -9.5119  -17.6114 N   0  0  0  0  0  0  0  0  0  0  0  0
   20.2025   -8.1241  -17.9675 C   0  0  1  0  0  0  0  0  0  0  0  0
   18.9985   -7.5397  -18.6914 C   0  0  0  0  0  0  0  0  0  0  0  0
   19.2481   -6.1750  -19.1922 C   0  0  0  0  0  0  0  0  0  0  0  0
   20.3984   -5.6820  -19.2000 O   0  0  0  0  0  0  0  0  0  0  0  0
   20.4043   -7.2608  -16.7739 C   0  0  0  0  0  0  0  0  0  0  0  0
   19.5670   -7.3935  -15.8425 O   0  0  0  0  0  0  0  0  0  0  0  0
   18.1863   -5.4452  -19.6555 O   0  0  0  0  0  0  0  0  0  0  0  0
   21.4856   -6.3530  -16.7179 N   0  0  0  0  0  0  0  0  0  0  0  0
   21.7693   -5.6277  -15.4734 C   0  0  1  0  0  0  0  0  0  0  0  0
   23.1944   -5.8801  -15.0523 C   0  0  0  0  0  0  0  0  0  0  0  0
   23.4127   -7.3026  -14.7811 C   0  0  0  0  0  0  0  0  0  0  0  0
   22.6746   -7.9662  -13.8288 C   0  0  0  0  0  0  0  0  0  0  0  0
   22.8530   -9.3074  -13.5759 C   0  0  0  0  0  0  0  0  0  0  0  0
   23.7947  -10.0197  -14.2892 C   0  0  0  0  0  0  0  0  0  0  0  0
   24.5353   -9.3689  -15.2399 C   0  0  0  0  0  0  0  0  0  0  0  0
   24.3392   -8.0161  -15.4788 C   0  0  0  0  0  0  0  0  0  0  0  0
   21.4299   -4.1972  -15.6189 C   0  0  0  0  0  0  0  0  0  0  0  0
   21.4166   -3.3139  -14.5764 O   0  0  0  0  0  0  0  0  0  0  0  0
   21.1291   -3.7405  -16.7640 O   0  0  0  0  0  0  0  0  0  0  0  0
  2  1  1  6
  3  2  1  0
  4  3  1  0
  5  4  2  0
  6  2  1  0
  7  6  2  0
  8  4  1  0
  9  6  1  0
 10 11  1  1
 10  9  1  0
 12 16  1  0
 12 11  1  0
 13 12  2  0
 14 10  1  0
 15 14  2  0
 17 14  1  0
 18 17  1  0
 18 19  1  6
 19 20  1  0
 20 21  2  0
 21 22  1  0
 23 22  2  0
 24 23  1  0
 25 20  1  0
 25 24  2  0
 26 18  1  0
 26 27  1  0
 28 26  2  0
M  END
$$$$
