CDI.pdb
     RDKit          3D

 23 22  0  0  1  0  0  0  0  0999 V2000
    8.0127  -15.1981   18.5285 N   0  0  0  0  0  0  0  0  0  0  0  0
    8.5140  -14.6802   19.7685 C   0  0  1  0  0  0  0  0  0  0  0  0
    7.7585  -13.4047   20.0833 C   0  0  0  0  0  0  0  0  0  0  0  0
    8.0664  -12.1280   18.8316 S   0  0  0  0  0  0  0  0  0  0  0  0
    8.2803  -15.5990   20.9107 C   0  0  0  0  0  0  0  0  0  0  0  0
    7.6398  -16.6561   20.7026 O   0  0  0  0  0  0  0  0  0  0  0  0
    8.7578  -15.3079   22.1995 N   0  0  0  0  0  0  0  0  0  0  0  0
    8.9734  -16.3347   23.2214 C   0  0  1  0  0  0  0  0  0  0  0  0
    9.9112  -17.3199   22.5948 C   0  0  0  0  0  0  0  0  0  0  0  0
   10.2800  -18.3824   23.5362 C   0  0  0  0  0  0  0  0  0  0  0  0
   11.4686  -18.7625   23.6056 O   0  0  0  0  0  0  0  0  0  0  0  0
    9.4456  -15.6492   24.4235 C   0  0  0  0  0  0  0  0  0  0  0  0
   10.6105  -15.1171   24.3913 O   0  0  0  0  0  0  0  0  0  0  0  0
    9.3339  -18.9667   24.3452 O   0  0  0  0  0  0  0  0  0  0  0  0
    6.5210  -12.0453   26.6768 C   0  0  0  0  0  0  0  0  0  0  0  0
    7.6280  -12.8960   26.1503 C   0  0  0  0  0  0  0  0  0  0  0  0
    8.2169  -13.7501   27.2674 C   0  0  2  0  0  0  0  0  0  0  0  0
    8.8725  -12.8011   28.2472 C   0  0  0  0  0  0  0  0  0  0  0  0
    9.2533  -14.7149   26.7302 C   0  0  2  0  0  0  0  0  0  0  0  0
    8.7200  -15.5092   25.6497 N   0  0  0  0  0  0  0  0  0  0  0  0
    9.7002  -15.5478   27.8674 C   0  0  0  0  0  0  0  0  0  0  0  0
    9.3405  -16.7478   28.0164 O   0  0  0  0  0  0  0  0  0  0  0  0
   10.5490  -14.9773   28.8010 O   0  0  0  0  0  0  0  0  0  0  0  0
  2  1  1  6
  3  2  1  0
  3  4  1  0
  5  2  1  0
  6  5  2  0
  7  5  1  0
  8  9  1  6
  8  7  1  0
 10  9  1  0
 11 10  2  0
 12 20  1  0
 12  8  1  0
 13 12  2  0
 14 10  1  0
 15 16  1  0
 16 17  1  0
 17 18  1  1
 19 21  1  0
 19 17  1  0
 19 20  1  6
 21 23  1  0
 22 21  2  0
M  END
$$$$
