CDI.pdb
     RDKit          3D

 23 22  0  0  1  0  0  0  0  0999 V2000
    7.3358  -15.2758   18.0888 N   0  0  0  0  0  0  0  0  0  0  0  0
    8.1057  -14.6588   19.1299 C   0  0  1  0  0  0  0  0  0  0  0  0
    7.6080  -13.2376   19.3012 C   0  0  0  0  0  0  0  0  0  0  0  0
    8.4679  -12.3953   20.6587 S   0  0  0  0  0  0  0  0  0  0  0  0
    7.9317  -15.3256   20.4446 C   0  0  0  0  0  0  0  0  0  0  0  0
    6.8177  -15.8344   20.7110 O   0  0  0  0  0  0  0  0  0  0  0  0
    8.9783  -15.3949   21.3793 N   0  0  0  0  0  0  0  0  0  0  0  0
    8.8898  -16.1672   22.6206 C   0  0  1  0  0  0  0  0  0  0  0  0
    9.8163  -17.3278   22.4265 C   0  0  0  0  0  0  0  0  0  0  0  0
    9.9322  -18.1311   23.6481 C   0  0  0  0  0  0  0  0  0  0  0  0
    8.9274  -18.3083   24.3698 O   0  0  0  0  0  0  0  0  0  0  0  0
    9.2023  -15.2518   23.7171 C   0  0  0  0  0  0  0  0  0  0  0  0
   10.2971  -14.5900   23.6516 O   0  0  0  0  0  0  0  0  0  0  0  0
   11.1338  -18.6933   24.0105 O   0  0  0  0  0  0  0  0  0  0  0  0
    5.5649  -12.3664   26.8134 C   0  0  0  0  0  0  0  0  0  0  0  0
    6.4808  -13.5042   26.5085 C   0  0  0  0  0  0  0  0  0  0  0  0
    7.8597  -12.9841   26.1180 C   0  0  2  0  0  0  0  0  0  0  0  0
    7.6917  -12.2255   24.8192 C   0  0  0  0  0  0  0  0  0  0  0  0
    8.8363  -14.1234   25.9134 C   0  0  2  0  0  0  0  0  0  0  0  0
    8.3892  -15.0166   24.8717 N   0  0  0  0  0  0  0  0  0  0  0  0
    8.9790  -14.8107   27.2149 C   0  0  0  0  0  0  0  0  0  0  0  0
    9.4657  -14.2476   28.2334 O   0  0  0  0  0  0  0  0  0  0  0  0
    8.5569  -16.1262   27.3086 O   0  0  0  0  0  0  0  0  0  0  0  0
  2  1  1  6
  3  2  1  0
  3  4  1  0
  5  2  1  0
  6  5  2  0
  7  5  1  0
  8  9  1  6
  8  7  1  0
 10  9  1  0
 11 10  2  0
 12 20  1  0
 12  8  1  0
 13 12  2  0
 14 10  1  0
 15 16  1  0
 16 17  1  0
 17 18  1  6
 19 21  1  0
 19 17  1  0
 19 20  1  6
 21 23  1  0
 22 21  2  0
M  END
$$$$
