CDI.pdb
     RDKit          3D

 23 22  0  0  1  0  0  0  0  0999 V2000
    9.5670  -13.5420   18.7992 N   0  0  0  0  0  0  0  0  0  0  0  0
    8.3684  -13.3168   19.5541 C   0  0  1  0  0  0  0  0  0  0  0  0
    7.1870  -13.4934   18.6214 C   0  0  0  0  0  0  0  0  0  0  0  0
    7.6762  -13.2802   16.8874 S   0  0  0  0  0  0  0  0  0  0  0  0
    8.1876  -14.3002   20.6511 C   0  0  0  0  0  0  0  0  0  0  0  0
    7.0997  -14.3041   21.2736 O   0  0  0  0  0  0  0  0  0  0  0  0
    9.1991  -15.2119   20.9969 N   0  0  0  0  0  0  0  0  0  0  0  0
    9.0651  -16.1750   22.0921 C   0  0  1  0  0  0  0  0  0  0  0  0
   10.0670  -17.2477   21.7951 C   0  0  0  0  0  0  0  0  0  0  0  0
   10.2072  -18.1768   22.9212 C   0  0  0  0  0  0  0  0  0  0  0  0
   11.3466  -18.5330   23.2913 O   0  0  0  0  0  0  0  0  0  0  0  0
    9.2456  -15.4327   23.3389 C   0  0  0  0  0  0  0  0  0  0  0  0
   10.3266  -14.7611   23.4852 O   0  0  0  0  0  0  0  0  0  0  0  0
    9.0999  -18.6620   23.5766 O   0  0  0  0  0  0  0  0  0  0  0  0
    6.9011  -11.6233   27.2670 C   0  0  0  0  0  0  0  0  0  0  0  0
    7.8990  -12.7186   27.0915 C   0  0  0  0  0  0  0  0  0  0  0  0
    7.5706  -13.5404   25.8501 C   0  0  2  0  0  0  0  0  0  0  0  0
    6.2285  -14.1944   26.0982 C   0  0  0  0  0  0  0  0  0  0  0  0
    8.6156  -14.6100   25.6098 C   0  0  2  0  0  0  0  0  0  0  0  0
    8.3158  -15.3794   24.4262 N   0  0  0  0  0  0  0  0  0  0  0  0
    8.6620  -15.4509   26.8253 C   0  0  0  0  0  0  0  0  0  0  0  0
    8.2132  -16.6295   26.8564 O   0  0  0  0  0  0  0  0  0  0  0  0
    9.2240  -14.9127   27.9708 O   0  0  0  0  0  0  0  0  0  0  0  0
  2  1  1  6
  3  2  1  0
  3  4  1  0
  5  2  1  0
  6  5  2  0
  7  5  1  0
  8  9  1  6
  8  7  1  0
 10  9  1  0
 11 10  2  0
 12 20  1  0
 12  8  1  0
 13 12  2  0
 14 10  1  0
 15 16  1  0
 16 17  1  0
 17 18  1  1
 19 21  1  0
 19 17  1  0
 19 20  1  6
 21 23  1  0
 22 21  2  0
M  END
$$$$
