CDI.pdb
     RDKit          3D

 23 22  0  0  1  0  0  0  0  0999 V2000
    7.7690  -14.5158   17.9520 N   0  0  0  0  0  0  0  0  0  0  0  0
    8.4606  -14.1325   19.1487 C   0  0  1  0  0  0  0  0  0  0  0  0
    7.9508  -12.7683   19.5681 C   0  0  0  0  0  0  0  0  0  0  0  0
    8.7544  -11.4435   18.6244 S   0  0  0  0  0  0  0  0  0  0  0  0
    8.1919  -15.0485   20.2854 C   0  0  0  0  0  0  0  0  0  0  0  0
    7.1016  -15.6663   20.3069 O   0  0  0  0  0  0  0  0  0  0  0  0
    9.1246  -15.2314   21.3200 N   0  0  0  0  0  0  0  0  0  0  0  0
    8.9244  -16.1821   22.4160 C   0  0  1  0  0  0  0  0  0  0  0  0
    9.7729  -17.3659   22.0674 C   0  0  0  0  0  0  0  0  0  0  0  0
    9.6094  -18.4485   23.0433 C   0  0  0  0  0  0  0  0  0  0  0  0
    9.0876  -18.2075   24.1531 O   0  0  0  0  0  0  0  0  0  0  0  0
    9.2516  -15.4801   23.6562 C   0  0  0  0  0  0  0  0  0  0  0  0
   10.4506  -15.0545   23.8054 O   0  0  0  0  0  0  0  0  0  0  0  0
   10.0230  -19.7275   22.7529 O   0  0  0  0  0  0  0  0  0  0  0  0
    5.6322  -12.8234   27.1063 C   0  0  0  0  0  0  0  0  0  0  0  0
    6.4628  -13.8956   26.4843 C   0  0  0  0  0  0  0  0  0  0  0  0
    7.9083  -13.4316   26.3443 C   0  0  2  0  0  0  0  0  0  0  0  0
    7.9270  -12.3713   25.2645 C   0  0  0  0  0  0  0  0  0  0  0  0
    8.8140  -14.5768   25.9416 C   0  0  2  0  0  0  0  0  0  0  0  0
    8.3475  -15.2145   24.7340 N   0  0  0  0  0  0  0  0  0  0  0  0
    8.8620  -15.5135   27.0849 C   0  0  0  0  0  0  0  0  0  0  0  0
    9.3632  -15.2029   28.2001 O   0  0  0  0  0  0  0  0  0  0  0  0
    8.3313  -16.7810   26.9134 O   0  0  0  0  0  0  0  0  0  0  0  0
  2  1  1  6
  3  2  1  0
  3  4  1  0
  5  2  1  0
  6  5  2  0
  7  5  1  0
  8  9  1  6
  8  7  1  0
 10  9  1  0
 11 10  2  0
 12 20  1  0
 12  8  1  0
 13 12  2  0
 14 10  1  0
 15 16  1  0
 16 17  1  0
 17 18  1  6
 19 21  1  0
 19 17  1  0
 19 20  1  6
 21 23  1  0
 22 21  2  0
M  END
$$$$
