CDI.pdb
     RDKit          3D

 23 22  0  0  1  0  0  0  0  0999 V2000
    6.9953  -15.2888   18.8931 N   0  0  0  0  0  0  0  0  0  0  0  0
    8.0375  -14.7332   19.7070 C   0  0  1  0  0  0  0  0  0  0  0  0
    7.7367  -13.2624   19.9142 C   0  0  0  0  0  0  0  0  0  0  0  0
    8.9790  -12.4772   20.9780 S   0  0  0  0  0  0  0  0  0  0  0  0
    8.0972  -15.3438   21.0588 C   0  0  0  0  0  0  0  0  0  0  0  0
    7.0287  -15.4728   21.7012 O   0  0  0  0  0  0  0  0  0  0  0  0
    9.3117  -15.7724   21.6201 N   0  0  0  0  0  0  0  0  0  0  0  0
    9.3905  -16.5127   22.8814 C   0  0  1  0  0  0  0  0  0  0  0  0
   10.5486  -17.4476   22.7150 C   0  0  0  0  0  0  0  0  0  0  0  0
   10.4172  -18.2520   21.4957 C   0  0  0  0  0  0  0  0  0  0  0  0
    9.4522  -19.0367   21.3730 O   0  0  0  0  0  0  0  0  0  0  0  0
    9.4924  -15.5228   23.9527 C   0  0  0  0  0  0  0  0  0  0  0  0
   10.4619  -14.6868   23.9057 O   0  0  0  0  0  0  0  0  0  0  0  0
   11.3431  -18.1540   20.4836 O   0  0  0  0  0  0  0  0  0  0  0  0
    5.9234  -12.2608   26.0250 C   0  0  0  0  0  0  0  0  0  0  0  0
    7.1826  -12.9191   25.5693 C   0  0  0  0  0  0  0  0  0  0  0  0
    7.7712  -13.7693   26.6896 C   0  0  2  0  0  0  0  0  0  0  0  0
    8.2270  -12.8151   27.7724 C   0  0  0  0  0  0  0  0  0  0  0  0
    8.9545  -14.5773   26.1993 C   0  0  2  0  0  0  0  0  0  0  0  0
    8.5981  -15.3925   25.0630 N   0  0  0  0  0  0  0  0  0  0  0  0
    9.4282  -15.3884   27.3415 C   0  0  0  0  0  0  0  0  0  0  0  0
    9.1452  -16.6106   27.4736 O   0  0  0  0  0  0  0  0  0  0  0  0
   10.2148  -14.7708   28.2994 O   0  0  0  0  0  0  0  0  0  0  0  0
  2  1  1  6
  3  2  1  0
  3  4  1  0
  5  2  1  0
  6  5  2  0
  7  5  1  0
  8  9  1  6
  8  7  1  0
 10  9  1  0
 11 10  2  0
 12 20  1  0
 12  8  1  0
 13 12  2  0
 14 10  1  0
 15 16  1  0
 16 17  1  0
 17 18  1  1
 19 21  1  0
 19 17  1  0
 19 20  1  6
 21 23  1  0
 22 21  2  0
M  END
$$$$
