CDI.pdb
     RDKit          3D

 23 22  0  0  1  0  0  0  0  0999 V2000
    7.0481  -14.7975   18.9082 N   0  0  0  0  0  0  0  0  0  0  0  0
    8.1735  -14.5106   19.7499 C   0  0  1  0  0  0  0  0  0  0  0  0
    8.1284  -13.0384   20.1070 C   0  0  0  0  0  0  0  0  0  0  0  0
    8.4957  -11.9975   18.6672 S   0  0  0  0  0  0  0  0  0  0  0  0
    8.1348  -15.2551   21.0335 C   0  0  0  0  0  0  0  0  0  0  0  0
    7.0267  -15.4103   21.5982 O   0  0  0  0  0  0  0  0  0  0  0  0
    9.3007  -15.7800   21.6157 N   0  0  0  0  0  0  0  0  0  0  0  0
    9.2878  -16.5939   22.8332 C   0  0  1  0  0  0  0  0  0  0  0  0
   10.3343  -17.6426   22.6142 C   0  0  0  0  0  0  0  0  0  0  0  0
    9.8489  -18.7080   21.7309 C   0  0  0  0  0  0  0  0  0  0  0  0
    8.6984  -19.1689   21.8916 O   0  0  0  0  0  0  0  0  0  0  0  0
    9.4938  -15.6834   23.9586 C   0  0  0  0  0  0  0  0  0  0  0  0
   10.5384  -14.9421   23.9461 O   0  0  0  0  0  0  0  0  0  0  0  0
   10.6441  -19.2073   20.7260 O   0  0  0  0  0  0  0  0  0  0  0  0
    6.0655  -12.2623   25.9363 C   0  0  0  0  0  0  0  0  0  0  0  0
    7.2910  -12.9948   25.5027 C   0  0  0  0  0  0  0  0  0  0  0  0
    7.8429  -13.8307   26.6520 C   0  0  2  0  0  0  0  0  0  0  0  0
    8.3208  -12.8608   27.7110 C   0  0  0  0  0  0  0  0  0  0  0  0
    9.0033  -14.6901   26.1955 C   0  0  2  0  0  0  0  0  0  0  0  0
    8.6263  -15.5348   25.0877 N   0  0  0  0  0  0  0  0  0  0  0  0
    9.4498  -15.4731   27.3678 C   0  0  0  0  0  0  0  0  0  0  0  0
    9.9869  -14.9417   28.3780 O   0  0  0  0  0  0  0  0  0  0  0  0
    9.2653  -16.8454   27.3454 O   0  0  0  0  0  0  0  0  0  0  0  0
  2  1  1  6
  3  2  1  0
  3  4  1  0
  5  2  1  0
  6  5  2  0
  7  5  1  0
  8  9  1  6
  8  7  1  0
 10  9  1  0
 11 10  2  0
 12 20  1  0
 12  8  1  0
 13 12  2  0
 14 10  1  0
 15 16  1  0
 16 17  1  0
 17 18  1  1
 19 21  1  0
 19 17  1  0
 19 20  1  6
 21 23  1  0
 22 21  2  0
M  END
$$$$
