CDI.pdb
     RDKit          3D

 23 22  0  0  1  0  0  0  0  0999 V2000
    7.6962  -14.8910   17.7718 N   0  0  0  0  0  0  0  0  0  0  0  0
    8.3446  -14.3589   18.9353 C   0  0  1  0  0  0  0  0  0  0  0  0
    7.8074  -12.9620   19.1735 C   0  0  0  0  0  0  0  0  0  0  0  0
    8.4803  -12.2463   20.6988 S   0  0  0  0  0  0  0  0  0  0  0  0
    8.0486  -15.1374   20.1640 C   0  0  0  0  0  0  0  0  0  0  0  0
    6.8840  -15.5707   20.3278 O   0  0  0  0  0  0  0  0  0  0  0  0
    9.0365  -15.3925   21.1299 N   0  0  0  0  0  0  0  0  0  0  0  0
    8.8074  -16.2424   22.3004 C   0  0  1  0  0  0  0  0  0  0  0  0
    9.6481  -17.4604   22.0706 C   0  0  0  0  0  0  0  0  0  0  0  0
    9.6120  -18.3625   23.2264 C   0  0  0  0  0  0  0  0  0  0  0  0
    8.5226  -18.6034   23.7894 O   0  0  0  0  0  0  0  0  0  0  0  0
    9.1219  -15.4387   23.4807 C   0  0  0  0  0  0  0  0  0  0  0  0
   10.2843  -14.9048   23.5496 O   0  0  0  0  0  0  0  0  0  0  0  0
   10.7629  -18.9480   23.6996 O   0  0  0  0  0  0  0  0  0  0  0  0
    5.7606  -12.0585   26.0059 C   0  0  0  0  0  0  0  0  0  0  0  0
    6.9491  -12.7211   25.3936 C   0  0  0  0  0  0  0  0  0  0  0  0
    7.5951  -13.6764   26.3907 C   0  0  2  0  0  0  0  0  0  0  0  0
    8.1622  -12.8279   27.5083 C   0  0  0  0  0  0  0  0  0  0  0  0
    8.7117  -14.4695   25.7441 C   0  0  2  0  0  0  0  0  0  0  0  0
    8.2422  -15.1833   24.5810 N   0  0  0  0  0  0  0  0  0  0  0  0
    9.2512  -15.3794   26.7774 C   0  0  0  0  0  0  0  0  0  0  0  0
    8.9527  -16.6040   26.8305 O   0  0  0  0  0  0  0  0  0  0  0  0
   10.1196  -14.8553   27.7202 O   0  0  0  0  0  0  0  0  0  0  0  0
  2  1  1  6
  3  2  1  0
  3  4  1  0
  5  2  1  0
  6  5  2  0
  7  5  1  0
  8  9  1  6
  8  7  1  0
 10  9  1  0
 11 10  2  0
 12 20  1  0
 12  8  1  0
 13 12  2  0
 14 10  1  0
 15 16  1  0
 16 17  1  0
 17 18  1  1
 19 21  1  0
 19 17  1  0
 19 20  1  6
 21 23  1  0
 22 21  2  0
M  END
$$$$
