CDI.pdb
     RDKit          3D

 23 22  0  0  1  0  0  0  0  0999 V2000
    7.1902  -14.6454   18.0508 N   0  0  0  0  0  0  0  0  0  0  0  0
    8.0655  -14.2487   19.1155 C   0  0  1  0  0  0  0  0  0  0  0  0
    7.7832  -12.7949   19.4373 C   0  0  0  0  0  0  0  0  0  0  0  0
    8.7806  -12.2229   20.8407 S   0  0  0  0  0  0  0  0  0  0  0  0
    7.8276  -15.0094   20.3678 C   0  0  0  0  0  0  0  0  0  0  0  0
    6.6447  -15.2693   20.6906 O   0  0  0  0  0  0  0  0  0  0  0  0
    8.8892  -15.4360   21.1832 N   0  0  0  0  0  0  0  0  0  0  0  0
    8.6950  -16.2510   22.3845 C   0  0  1  0  0  0  0  0  0  0  0  0
    9.5513  -17.4624   22.1785 C   0  0  0  0  0  0  0  0  0  0  0  0
    9.4548  -18.3863   23.3134 C   0  0  0  0  0  0  0  0  0  0  0  0
    8.5475  -18.2344   24.1595 O   0  0  0  0  0  0  0  0  0  0  0  0
    9.0175  -15.4046   23.5323 C   0  0  0  0  0  0  0  0  0  0  0  0
   10.1444  -14.7955   23.5298 O   0  0  0  0  0  0  0  0  0  0  0  0
   10.3506  -19.4194   23.4592 O   0  0  0  0  0  0  0  0  0  0  0  0
    5.6225  -11.9741   25.8357 C   0  0  0  0  0  0  0  0  0  0  0  0
    6.8280  -12.6529   25.2767 C   0  0  0  0  0  0  0  0  0  0  0  0
    7.4754  -13.5390   26.3349 C   0  0  2  0  0  0  0  0  0  0  0  0
    7.9968  -12.6200   27.4186 C   0  0  0  0  0  0  0  0  0  0  0  0
    8.6250  -14.3351   25.7533 C   0  0  2  0  0  0  0  0  0  0  0  0
    8.1817  -15.1838   24.6735 N   0  0  0  0  0  0  0  0  0  0  0  0
    9.2208  -15.1095   26.8633 C   0  0  0  0  0  0  0  0  0  0  0  0
    9.9639  -14.5857   27.7380 O   0  0  0  0  0  0  0  0  0  0  0  0
    8.9445  -16.4644   26.9366 O   0  0  0  0  0  0  0  0  0  0  0  0
  2  1  1  6
  3  2  1  0
  3  4  1  0
  5  2  1  0
  6  5  2  0
  7  5  1  0
  8  9  1  6
  8  7  1  0
 10  9  1  0
 11 10  2  0
 12 20  1  0
 12  8  1  0
 13 12  2  0
 14 10  1  0
 15 16  1  0
 16 17  1  0
 17 18  1  1
 19 21  1  0
 19 17  1  0
 19 20  1  6
 21 23  1  0
 22 21  2  0
M  END
$$$$
