CDI.pdb
     RDKit          3D

 23 22  0  0  1  0  0  0  0  0999 V2000
    7.5197  -15.0370   18.0988 N   0  0  0  0  0  0  0  0  0  0  0  0
    8.2689  -14.4775   19.1864 C   0  0  1  0  0  0  0  0  0  0  0  0
    7.7309  -13.0873   19.4600 C   0  0  0  0  0  0  0  0  0  0  0  0
    8.5699  -12.3203   20.8739 S   0  0  0  0  0  0  0  0  0  0  0  0
    8.1102  -15.2444   20.4474 C   0  0  0  0  0  0  0  0  0  0  0  0
    7.0150  -15.8143   20.6634 O   0  0  0  0  0  0  0  0  0  0  0  0
    9.1506  -15.3405   21.3867 N   0  0  0  0  0  0  0  0  0  0  0  0
    9.1124  -16.2567   22.5287 C   0  0  1  0  0  0  0  0  0  0  0  0
   10.1166  -17.3213   22.2103 C   0  0  0  0  0  0  0  0  0  0  0  0
   10.2496  -18.2795   23.3127 C   0  0  0  0  0  0  0  0  0  0  0  0
   11.3681  -18.7733   23.5718 O   0  0  0  0  0  0  0  0  0  0  0  0
    9.3591  -15.4565   23.7274 C   0  0  0  0  0  0  0  0  0  0  0  0
   10.4614  -14.8078   23.7983 O   0  0  0  0  0  0  0  0  0  0  0  0
    9.1581  -18.6423   24.0666 O   0  0  0  0  0  0  0  0  0  0  0  0
    5.8057  -12.2406   25.9643 C   0  0  0  0  0  0  0  0  0  0  0  0
    7.0725  -12.8534   25.4684 C   0  0  0  0  0  0  0  0  0  0  0  0
    7.6803  -13.7529   26.5388 C   0  0  2  0  0  0  0  0  0  0  0  0
    8.1541  -12.8483   27.6559 C   0  0  0  0  0  0  0  0  0  0  0  0
    8.8555  -14.5365   25.9924 C   0  0  2  0  0  0  0  0  0  0  0  0
    8.4732  -15.3224   24.8440 N   0  0  0  0  0  0  0  0  0  0  0  0
    9.3680  -15.3753   27.0973 C   0  0  0  0  0  0  0  0  0  0  0  0
    9.0739  -16.5959   27.2194 O   0  0  0  0  0  0  0  0  0  0  0  0
   10.2051  -14.7865   28.0302 O   0  0  0  0  0  0  0  0  0  0  0  0
  2  1  1  6
  3  2  1  0
  3  4  1  0
  5  2  1  0
  6  5  2  0
  7  5  1  0
  8  9  1  6
  8  7  1  0
 10  9  1  0
 11 10  2  0
 12 20  1  0
 12  8  1  0
 13 12  2  0
 14 10  1  0
 15 16  1  0
 16 17  1  0
 17 18  1  1
 19 21  1  0
 19 17  1  0
 19 20  1  6
 21 23  1  0
 22 21  2  0
M  END
$$$$
