QPM.pdb
     RDKit          3D

 25 25  0  0  1  0  0  0  0  0999 V2000
    8.6119  -22.6416    0.0075 N   0  0  0  0  0  0  0  0  0  0  0  0
    9.6856  -22.3495   -0.8696 C   0  0  0  0  0  0  0  0  0  0  0  0
    9.5498  -21.4468   -1.7181 O   0  0  0  0  0  0  0  0  0  0  0  0
   10.9405  -23.1053   -0.7680 C   0  0  0  0  0  0  0  0  0  0  0  0
   12.0151  -22.5295    0.0625 C   0  0  0  0  0  0  0  0  0  0  0  0
   12.9252  -21.5219   -0.6026 C   0  0  2  0  0  0  0  0  0  0  0  0
   13.5152  -22.0070   -1.7929 N   0  0  0  0  0  0  0  0  0  0  0  0
   13.8890  -20.9335    0.3422 C   0  0  0  0  0  0  0  0  0  0  0  0
   15.1263  -21.1602   -0.0192 O   0  0  0  0  0  0  0  0  0  0  0  0
   13.6248  -20.2214    1.4857 N   0  0  0  0  0  0  0  0  0  0  0  0
   12.4374  -19.7964    2.1298 C   0  0  0  0  0  0  0  0  0  0  0  0
   12.7245  -18.2709    2.2060 C   0  0  0  0  0  0  0  0  0  0  0  0
   14.2057  -18.2887    2.6220 C   0  0  0  0  0  0  0  0  0  0  0  0
   14.6958  -19.6874    2.3558 C   0  0  1  0  0  0  0  0  0  0  0  0
   14.9186  -20.5124    3.5389 C   0  0  0  0  0  0  0  0  0  0  0  0
   14.3650  -21.6527    3.5513 O   0  0  0  0  0  0  0  0  0  0  0  0
   18.8929  -24.7133    2.8568 C   0  0  0  0  0  0  0  0  0  0  0  0
   19.6071  -23.3317    3.7776 S   0  0  0  0  0  0  0  0  0  0  0  0
   18.4697  -22.6937    5.0262 C   0  0  0  0  0  0  0  0  0  0  0  0
   17.5377  -21.7221    4.3754 C   0  0  0  0  0  0  0  0  0  0  0  0
   16.5878  -21.1334    5.3495 C   0  0  2  0  0  0  0  0  0  0  0  0
   15.6901  -20.1697    4.6785 N   0  0  0  0  0  0  0  0  0  0  0  0
   17.2581  -20.5027    6.4767 C   0  0  0  0  0  0  0  0  0  0  0  0
   17.5502  -19.2999    6.5443 O   0  0  0  0  0  0  0  0  0  0  0  0
   17.6298  -21.2659    7.6098 O   0  0  0  0  0  0  0  0  0  0  0  0
  2  1  1  0
  3  2  2  0
  4  2  1  0
  5  4  1  0
  6  7  1  6
  6  8  1  0
  6  5  1  0
  8  9  2  0
 10 11  1  0
 10  8  1  0
 11 12  1  0
 13 12  1  0
 14 13  1  0
 14 10  1  0
 14 15  1  1
 16 15  2  0
 18 17  1  0
 19 18  1  0
 20 19  1  0
 21 20  1  6
 21 22  1  0
 22 15  1  0
 23 25  1  0
 23 21  1  0
 24 23  2  0
M  END
$$$$
