QPM.pdb
     RDKit          3D

 25 25  0  0  1  0  0  0  0  0999 V2000
   22.7844  -20.2697  -12.0497 N   0  0  0  0  0  0  0  0  0  0  0  0
   22.0286  -20.7691  -13.1391 C   0  0  0  0  0  0  0  0  0  0  0  0
   21.0192  -21.4639  -12.9117 O   0  0  0  0  0  0  0  0  0  0  0  0
   22.4371  -20.4617  -14.5157 C   0  0  0  0  0  0  0  0  0  0  0  0
   23.8340  -20.0401  -14.7319 C   0  0  0  0  0  0  0  0  0  0  0  0
   24.8211  -21.1201  -15.1129 C   0  0  2  0  0  0  0  0  0  0  0  0
   24.2218  -22.2051  -15.7940 N   0  0  0  0  0  0  0  0  0  0  0  0
   25.6689  -21.5245  -13.9792 C   0  0  0  0  0  0  0  0  0  0  0  0
   25.4959  -22.7834  -13.6659 O   0  0  0  0  0  0  0  0  0  0  0  0
   26.5586  -20.7546  -13.2719 N   0  0  0  0  0  0  0  0  0  0  0  0
   26.9561  -19.3969  -13.3370 C   0  0  0  0  0  0  0  0  0  0  0  0
   28.4891  -19.5911  -13.5025 C   0  0  0  0  0  0  0  0  0  0  0  0
   28.7366  -20.7184  -12.4851 C   0  0  0  0  0  0  0  0  0  0  0  0
   27.3835  -21.3002  -12.1714 C   0  0  1  0  0  0  0  0  0  0  0  0
   26.8469  -20.9719  -10.8545 C   0  0  0  0  0  0  0  0  0  0  0  0
   25.8852  -20.1467  -10.8203 O   0  0  0  0  0  0  0  0  0  0  0  0
   29.6413  -19.1628   -5.5351 C   0  0  0  0  0  0  0  0  0  0  0  0
   28.2902  -20.1001   -4.7851 S   0  0  0  0  0  0  0  0  0  0  0  0
   26.9949  -20.4901   -5.9808 C   0  0  0  0  0  0  0  0  0  0  0  0
   27.6352  -20.8320   -7.2883 C   0  0  0  0  0  0  0  0  0  0  0  0
   26.6275  -21.1431   -8.3302 C   0  0  2  0  0  0  0  0  0  0  0  0
   27.2913  -21.4797   -9.6072 N   0  0  0  0  0  0  0  0  0  0  0  0
   25.6697  -20.0649   -8.5248 C   0  0  0  0  0  0  0  0  0  0  0  0
   25.9210  -18.9860   -9.0811 O   0  0  0  0  0  0  0  0  0  0  0  0
   24.3363  -20.1976   -8.0672 O   0  0  0  0  0  0  0  0  0  0  0  0
  2  1  1  0
  3  2  2  0
  4  2  1  0
  5  4  1  0
  6  7  1  1
  6  8  1  0
  6  5  1  0
  8  9  2  0
 10 11  1  0
 10  8  1  0
 11 12  1  0
 13 12  1  0
 14 13  1  0
 14 10  1  0
 14 15  1  1
 16 15  2  0
 18 17  1  0
 19 18  1  0
 20 19  1  0
 21 20  1  1
 21 22  1  0
 22 15  1  0
 23 25  1  0
 23 21  1  0
 24 23  2  0
M  END
$$$$
