QPM.pdb
     RDKit          3D

 25 25  0  0  1  0  0  0  0  0999 V2000
   18.4035  -16.4151  -13.5392 N   0  0  0  0  0  0  0  0  0  0  0  0
   17.9762  -17.2051  -14.6349 C   0  0  0  0  0  0  0  0  0  0  0  0
   17.5230  -18.3464  -14.4220 O   0  0  0  0  0  0  0  0  0  0  0  0
   18.0670  -16.6733  -16.0007 C   0  0  0  0  0  0  0  0  0  0  0  0
   18.5403  -15.2852  -16.1592 C   0  0  0  0  0  0  0  0  0  0  0  0
   18.4756  -14.6975  -17.5507 C   0  0  2  0  0  0  0  0  0  0  0  0
   19.0864  -15.5165  -18.5286 N   0  0  0  0  0  0  0  0  0  0  0  0
   18.9241  -13.2956  -17.5844 C   0  0  0  0  0  0  0  0  0  0  0  0
   19.9707  -13.1370  -18.3540 O   0  0  0  0  0  0  0  0  0  0  0  0
   18.3829  -12.2187  -16.9271 N   0  0  0  0  0  0  0  0  0  0  0  0
   17.2353  -12.0328  -16.1184 C   0  0  0  0  0  0  0  0  0  0  0  0
   16.5593  -10.8742  -16.9034 C   0  0  0  0  0  0  0  0  0  0  0  0
   17.7860   -9.9998  -17.2167 C   0  0  0  0  0  0  0  0  0  0  0  0
   18.9904  -10.8704  -16.9740 C   0  0  1  0  0  0  0  0  0  0  0  0
   19.7591  -10.5612  -15.7726 C   0  0  0  0  0  0  0  0  0  0  0  0
   19.9612  -11.5159  -14.9636 O   0  0  0  0  0  0  0  0  0  0  0  0
   26.8342  -10.6828  -14.9137 C   0  0  0  0  0  0  0  0  0  0  0  0
   25.2198  -10.6713  -15.7263 S   0  0  0  0  0  0  0  0  0  0  0  0
   23.9885   -9.7640  -14.7670 C   0  0  0  0  0  0  0  0  0  0  0  0
   22.6566   -9.9145  -15.4301 C   0  0  0  0  0  0  0  0  0  0  0  0
   21.5971   -9.1645  -14.7139 C   0  0  2  0  0  0  0  0  0  0  0  0
   20.3031   -9.3012  -15.4150 N   0  0  0  0  0  0  0  0  0  0  0  0
   21.9294   -7.7595  -14.5313 C   0  0  0  0  0  0  0  0  0  0  0  0
   21.9122   -6.9050  -15.4292 O   0  0  0  0  0  0  0  0  0  0  0  0
   22.3080   -7.2708  -13.2574 O   0  0  0  0  0  0  0  0  0  0  0  0
  2  1  1  0
  3  2  2  0
  4  2  1  0
  5  4  1  0
  6  7  1  6
  6  8  1  0
  6  5  1  0
  8  9  2  0
 10 11  1  0
 10  8  1  0
 11 12  1  0
 13 12  1  0
 14 13  1  0
 14 10  1  0
 14 15  1  1
 16 15  2  0
 18 17  1  0
 19 18  1  0
 20 19  1  0
 21 20  1  6
 21 22  1  0
 22 15  1  0
 23 25  1  0
 23 21  1  0
 24 23  2  0
M  END
$$$$
