QPM.pdb
     RDKit          3D

 25 25  0  0  1  0  0  0  0  0999 V2000
   17.0052  -28.3956    3.6146 N   0  0  0  0  0  0  0  0  0  0  0  0
   17.3556  -28.5655    2.2523 C   0  0  0  0  0  0  0  0  0  0  0  0
   17.5976  -29.7108    1.8246 O   0  0  0  0  0  0  0  0  0  0  0  0
   17.4256  -27.3989    1.3632 C   0  0  0  0  0  0  0  0  0  0  0  0
   17.1306  -26.0783    1.9505 C   0  0  0  0  0  0  0  0  0  0  0  0
   15.6741  -25.6837    2.0443 C   0  0  2  0  0  0  0  0  0  0  0  0
   15.0310  -25.6299    0.7858 N   0  0  0  0  0  0  0  0  0  0  0  0
   15.4757  -24.4781    2.8657 C   0  0  0  0  0  0  0  0  0  0  0  0
   15.1338  -23.4443    2.1395 O   0  0  0  0  0  0  0  0  0  0  0  0
   15.6092  -24.3505    4.2260 N   0  0  0  0  0  0  0  0  0  0  0  0
   15.9428  -25.2453    5.2718 C   0  0  0  0  0  0  0  0  0  0  0  0
   14.6990  -25.0440    6.1817 C   0  0  0  0  0  0  0  0  0  0  0  0
   14.5456  -23.5150    6.1061 C   0  0  0  0  0  0  0  0  0  0  0  0
   15.3771  -23.0709    4.9318 C   0  0  1  0  0  0  0  0  0  0  0  0
   16.6200  -22.3824    5.2647 C   0  0  0  0  0  0  0  0  0  0  0  0
   17.6904  -22.8863    4.8096 O   0  0  0  0  0  0  0  0  0  0  0  0
   18.3373  -16.3828    1.6829 C   0  0  0  0  0  0  0  0  0  0  0  0
   17.3961  -17.8018    2.2889 S   0  0  0  0  0  0  0  0  0  0  0  0
   17.9972  -18.3747    3.8920 C   0  0  0  0  0  0  0  0  0  0  0  0
   17.2084  -19.5783    4.2988 C   0  0  0  0  0  0  0  0  0  0  0  0
   17.6103  -20.0736    5.6370 C   0  0  2  0  0  0  0  0  0  0  0  0
   16.7550  -21.2072    6.0470 N   0  0  0  0  0  0  0  0  0  0  0  0
   17.5906  -19.0301    6.6512 C   0  0  0  0  0  0  0  0  0  0  0  0
   16.5819  -18.6652    7.2725 O   0  0  0  0  0  0  0  0  0  0  0  0
   18.7794  -18.3439    6.9987 O   0  0  0  0  0  0  0  0  0  0  0  0
  2  1  1  0
  3  2  2  0
  4  2  1  0
  5  4  1  0
  6  7  1  6
  6  8  1  0
  6  5  1  0
  8  9  2  0
 10 11  1  0
 10  8  1  0
 11 12  1  0
 13 12  1  0
 14 13  1  0
 14 10  1  0
 14 15  1  1
 16 15  2  0
 18 17  1  0
 19 18  1  0
 20 19  1  0
 21 20  1  6
 21 22  1  0
 22 15  1  0
 23 25  1  0
 23 21  1  0
 24 23  2  0
M  END
$$$$
