QPM.pdb
     RDKit          3D

 25 25  0  0  1  0  0  0  0  0999 V2000
   10.1495  -16.1759  -11.6268 N   0  0  0  0  0  0  0  0  0  0  0  0
   10.6090  -14.9856  -12.2427 C   0  0  0  0  0  0  0  0  0  0  0  0
   10.2593  -14.7311  -13.4116 O   0  0  0  0  0  0  0  0  0  0  0  0
   11.4832  -14.0677  -11.5012 C   0  0  0  0  0  0  0  0  0  0  0  0
   11.8233  -14.4273  -10.1116 C   0  0  0  0  0  0  0  0  0  0  0  0
   13.2935  -14.5024   -9.7671 C   0  0  2  0  0  0  0  0  0  0  0  0
   14.0395  -15.2808  -10.6825 N   0  0  0  0  0  0  0  0  0  0  0  0
   13.5173  -14.8645   -8.3577 C   0  0  0  0  0  0  0  0  0  0  0  0
   14.0881  -16.0363   -8.2402 O   0  0  0  0  0  0  0  0  0  0  0  0
   13.2022  -14.1363   -7.2375 N   0  0  0  0  0  0  0  0  0  0  0  0
   12.7219  -12.8221   -7.0192 C   0  0  0  0  0  0  0  0  0  0  0  0
   13.8329  -12.3034   -6.0641 C   0  0  0  0  0  0  0  0  0  0  0  0
   14.0092  -13.5305   -5.1528 C   0  0  0  0  0  0  0  0  0  0  0  0
   13.3484  -14.6788   -5.8687 C   0  0  1  0  0  0  0  0  0  0  0  0
   12.0782  -15.1249   -5.3052 C   0  0  0  0  0  0  0  0  0  0  0  0
   11.0338  -14.5365   -5.7172 O   0  0  0  0  0  0  0  0  0  0  0  0
   10.4341  -20.8176   -2.1177 C   0  0  0  0  0  0  0  0  0  0  0  0
    9.0520  -20.2234   -3.1195 S   0  0  0  0  0  0  0  0  0  0  0  0
    9.0740  -18.4272   -3.3007 C   0  0  0  0  0  0  0  0  0  0  0  0
   10.4426  -18.0043   -3.7301 C   0  0  0  0  0  0  0  0  0  0  0  0
   10.5552  -16.5300   -3.8370 C   0  0  2  0  0  0  0  0  0  0  0  0
   11.8909  -16.1488   -4.3420 N   0  0  0  0  0  0  0  0  0  0  0  0
   10.2757  -15.8529   -2.5796 C   0  0  0  0  0  0  0  0  0  0  0  0
   11.1349  -15.5011   -1.7583 O   0  0  0  0  0  0  0  0  0  0  0  0
    8.9439  -15.5453   -2.2101 O   0  0  0  0  0  0  0  0  0  0  0  0
  2  1  1  0
  3  2  2  0
  4  2  1  0
  5  4  1  0
  6  7  1  6
  6  8  1  0
  6  5  1  0
  8  9  2  0
 10 11  1  0
 10  8  1  0
 11 12  1  0
 13 12  1  0
 14 13  1  0
 14 10  1  0
 14 15  1  1
 16 15  2  0
 18 17  1  0
 19 18  1  0
 20 19  1  0
 21 20  1  1
 21 22  1  0
 22 15  1  0
 23 25  1  0
 23 21  1  0
 24 23  2  0
M  END
$$$$
