QPM.pdb
     RDKit          3D

 25 25  0  0  1  0  0  0  0  0999 V2000
   21.9746  -13.0869  -21.4241 N   0  0  0  0  0  0  0  0  0  0  0  0
   22.3548  -14.4269  -21.1648 C   0  0  0  0  0  0  0  0  0  0  0  0
   22.3366  -15.2555  -22.0956 O   0  0  0  0  0  0  0  0  0  0  0  0
   22.7678  -14.8223  -19.8122 C   0  0  0  0  0  0  0  0  0  0  0  0
   22.6369  -13.8169  -18.7407 C   0  0  0  0  0  0  0  0  0  0  0  0
   23.1461  -14.2088  -17.3721 C   0  0  2  0  0  0  0  0  0  0  0  0
   22.5492  -15.3906  -16.8748 N   0  0  0  0  0  0  0  0  0  0  0  0
   23.1168  -13.0830  -16.4238 C   0  0  0  0  0  0  0  0  0  0  0  0
   22.0312  -13.0895  -15.6928 O   0  0  0  0  0  0  0  0  0  0  0  0
   24.0573  -12.0979  -16.2516 N   0  0  0  0  0  0  0  0  0  0  0  0
   25.2983  -11.8019  -16.8663 C   0  0  0  0  0  0  0  0  0  0  0  0
   26.2041  -11.7733  -15.6037 C   0  0  0  0  0  0  0  0  0  0  0  0
   25.2958  -11.0036  -14.6291 C   0  0  0  0  0  0  0  0  0  0  0  0
   23.9171  -11.0331  -15.2339 C   0  0  1  0  0  0  0  0  0  0  0  0
   23.4524   -9.7725  -15.8039 C   0  0  0  0  0  0  0  0  0  0  0  0
   23.6995   -9.5764  -17.0316 O   0  0  0  0  0  0  0  0  0  0  0  0
   17.3373  -10.1268  -16.6264 C   0  0  0  0  0  0  0  0  0  0  0  0
   18.7781   -9.3258  -17.3674 S   0  0  0  0  0  0  0  0  0  0  0  0
   19.9746   -8.8030  -16.1205 C   0  0  0  0  0  0  0  0  0  0  0  0
   21.1107   -8.1121  -16.8047 C   0  0  0  0  0  0  0  0  0  0  0  0
   22.1157   -7.6133  -15.8357 C   0  0  2  0  0  0  0  0  0  0  0  0
   22.7534   -8.7418  -15.1254 N   0  0  0  0  0  0  0  0  0  0  0  0
   21.5557   -6.6657  -14.8837 C   0  0  0  0  0  0  0  0  0  0  0  0
   21.0873   -5.5569  -15.1801 O   0  0  0  0  0  0  0  0  0  0  0  0
   21.5143   -6.9749  -13.5026 O   0  0  0  0  0  0  0  0  0  0  0  0
  2  1  1  0
  3  2  2  0
  4  2  1  0
  5  4  1  0
  6  7  1  1
  6  8  1  0
  6  5  1  0
  8  9  2  0
 10 11  1  0
 10  8  1  0
 11 12  1  0
 13 12  1  0
 14 13  1  0
 14 10  1  0
 14 15  1  6
 16 15  2  0
 18 17  1  0
 19 18  1  0
 20 19  1  0
 21 20  1  6
 21 22  1  0
 22 15  1  0
 23 25  1  0
 23 21  1  0
 24 23  2  0
M  END
$$$$
