QPM.pdb
     RDKit          3D

 25 25  0  0  1  0  0  0  0  0999 V2000
   28.3111  -22.0102  -16.1999 N   0  0  0  0  0  0  0  0  0  0  0  0
   27.4630  -23.1416  -16.2900 C   0  0  0  0  0  0  0  0  0  0  0  0
   27.9606  -24.2821  -16.2214 O   0  0  0  0  0  0  0  0  0  0  0  0
   26.0154  -22.9600  -16.4579 C   0  0  0  0  0  0  0  0  0  0  0  0
   25.4871  -21.5863  -16.3600 C   0  0  0  0  0  0  0  0  0  0  0  0
   25.1289  -21.0903  -14.9775 C   0  0  2  0  0  0  0  0  0  0  0  0
   24.1688  -21.9008  -14.3280 N   0  0  0  0  0  0  0  0  0  0  0  0
   24.7998  -19.6553  -14.9686 C   0  0  0  0  0  0  0  0  0  0  0  0
   23.5511  -19.4435  -14.6386 O   0  0  0  0  0  0  0  0  0  0  0  0
   25.6253  -18.5968  -15.2563 N   0  0  0  0  0  0  0  0  0  0  0  0
   26.9874  -18.4815  -15.6263 C   0  0  0  0  0  0  0  0  0  0  0  0
   27.4716  -17.5181  -14.5070 C   0  0  0  0  0  0  0  0  0  0  0  0
   26.2974  -16.5245  -14.4703 C   0  0  0  0  0  0  0  0  0  0  0  0
   25.1647  -17.1917  -15.2048 C   0  0  1  0  0  0  0  0  0  0  0  0
   24.8674  -16.6518  -16.5277 C   0  0  0  0  0  0  0  0  0  0  0  0
   24.9411  -17.4586  -17.5026 O   0  0  0  0  0  0  0  0  0  0  0  0
   18.0320  -15.9951  -18.3886 C   0  0  0  0  0  0  0  0  0  0  0  0
   19.4687  -16.0751  -17.2949 S   0  0  0  0  0  0  0  0  0  0  0  0
   20.9427  -15.3729  -18.0655 C   0  0  0  0  0  0  0  0  0  0  0  0
   22.1137  -15.6080  -17.1656 C   0  0  0  0  0  0  0  0  0  0  0  0
   23.3495  -14.9838  -17.6956 C   0  0  2  0  0  0  0  0  0  0  0  0
   24.5057  -15.3157  -16.8365 N   0  0  0  0  0  0  0  0  0  0  0  0
   23.2288  -13.5417  -17.8493 C   0  0  0  0  0  0  0  0  0  0  0  0
   23.0858  -12.7393  -16.9153 O   0  0  0  0  0  0  0  0  0  0  0  0
   23.2705  -12.9507  -19.1353 O   0  0  0  0  0  0  0  0  0  0  0  0
  2  1  1  0
  3  2  2  0
  4  2  1  0
  5  4  1  0
  6  7  1  6
  6  8  1  0
  6  5  1  0
  8  9  2  0
 10 11  1  0
 10  8  1  0
 11 12  1  0
 13 12  1  0
 14 13  1  0
 14 10  1  0
 14 15  1  6
 16 15  2  0
 18 17  1  0
 19 18  1  0
 20 19  1  0
 21 20  1  1
 21 22  1  0
 22 15  1  0
 23 25  1  0
 23 21  1  0
 24 23  2  0
M  END
$$$$
