QPM.pdb
     RDKit          3D

 25 25  0  0  1  0  0  0  0  0999 V2000
   20.1489  -19.8686  -13.0092 N   0  0  0  0  0  0  0  0  0  0  0  0
   21.3925  -20.4304  -13.3904 C   0  0  0  0  0  0  0  0  0  0  0  0
   21.6483  -21.6098  -13.0794 O   0  0  0  0  0  0  0  0  0  0  0  0
   22.3591  -19.6241  -14.1467 C   0  0  0  0  0  0  0  0  0  0  0  0
   21.9325  -18.2794  -14.5777 C   0  0  0  0  0  0  0  0  0  0  0  0
   22.2085  -17.9049  -16.0162 C   0  0  2  0  0  0  0  0  0  0  0  0
   21.4911  -18.6958  -16.9437 N   0  0  0  0  0  0  0  0  0  0  0  0
   23.6502  -17.8146  -16.3013 C   0  0  0  0  0  0  0  0  0  0  0  0
   24.0002  -18.5913  -17.2948 O   0  0  0  0  0  0  0  0  0  0  0  0
   24.5916  -17.0457  -15.6633 N   0  0  0  0  0  0  0  0  0  0  0  0
   24.5563  -16.1584  -14.5602 C   0  0  0  0  0  0  0  0  0  0  0  0
   25.1458  -14.8902  -15.2382 C   0  0  0  0  0  0  0  0  0  0  0  0
   26.2886  -15.5188  -16.0543 C   0  0  0  0  0  0  0  0  0  0  0  0
   26.0056  -16.9973  -16.0961 C   0  0  1  0  0  0  0  0  0  0  0  0
   26.8730  -17.8281  -15.2671 C   0  0  0  0  0  0  0  0  0  0  0  0
   27.5687  -17.2302  -14.3922 O   0  0  0  0  0  0  0  0  0  0  0  0
   24.8248  -20.6599  -10.5023 C   0  0  0  0  0  0  0  0  0  0  0  0
   26.5505  -20.1510  -10.3304 S   0  0  0  0  0  0  0  0  0  0  0  0
   27.5080  -20.4999  -11.8207 C   0  0  0  0  0  0  0  0  0  0  0  0
   26.9234  -19.7266  -12.9594 C   0  0  0  0  0  0  0  0  0  0  0  0
   27.6047  -20.0326  -14.2401 C   0  0  2  0  0  0  0  0  0  0  0  0
   27.0198  -19.2368  -15.3397 N   0  0  0  0  0  0  0  0  0  0  0  0
   27.5744  -21.4502  -14.5676 C   0  0  0  0  0  0  0  0  0  0  0  0
   26.7619  -21.9819  -15.3380 O   0  0  0  0  0  0  0  0  0  0  0  0
   28.5166  -22.3394  -13.9963 O   0  0  0  0  0  0  0  0  0  0  0  0
  2  1  1  0
  3  2  2  0
  4  2  1  0
  5  4  1  0
  6  7  1  6
  6  8  1  0
  6  5  1  0
  8  9  2  0
 10 11  1  0
 10  8  1  0
 11 12  1  0
 13 12  1  0
 14 13  1  0
 14 10  1  0
 14 15  1  1
 16 15  2  0
 18 17  1  0
 19 18  1  0
 20 19  1  0
 21 20  1  1
 21 22  1  0
 22 15  1  0
 23 25  1  0
 23 21  1  0
 24 23  2  0
M  END
$$$$
