QPM.pdb
     RDKit          3D

 25 25  0  0  1  0  0  0  0  0999 V2000
   16.2496  -22.4467    3.7138 N   0  0  0  0  0  0  0  0  0  0  0  0
   16.4572  -22.1562    2.3427 C   0  0  0  0  0  0  0  0  0  0  0  0
   16.4263  -23.0851    1.5124 O   0  0  0  0  0  0  0  0  0  0  0  0
   16.7010  -20.7723    1.9162 C   0  0  0  0  0  0  0  0  0  0  0  0
   16.8040  -19.7448    2.9695 C   0  0  0  0  0  0  0  0  0  0  0  0
   15.5057  -19.2226    3.5419 C   0  0  2  0  0  0  0  0  0  0  0  0
   14.6189  -18.7357    2.5536 N   0  0  0  0  0  0  0  0  0  0  0  0
   15.7254  -18.2867    4.6571 C   0  0  0  0  0  0  0  0  0  0  0  0
   15.3882  -17.0626    4.3398 O   0  0  0  0  0  0  0  0  0  0  0  0
   16.2180  -18.5632    5.9083 N   0  0  0  0  0  0  0  0  0  0  0  0
   16.6063  -19.7512    6.5742 C   0  0  0  0  0  0  0  0  0  0  0  0
   15.7002  -19.6423    7.8322 C   0  0  0  0  0  0  0  0  0  0  0  0
   15.8578  -18.1468    8.1579 C   0  0  0  0  0  0  0  0  0  0  0  0
   16.4439  -17.5119    6.9246 C   0  0  1  0  0  0  0  0  0  0  0  0
   17.8466  -17.1216    7.0234 C   0  0  0  0  0  0  0  0  0  0  0  0
   18.5890  -17.4084    6.0367 O   0  0  0  0  0  0  0  0  0  0  0  0
   20.2833  -10.5672    5.4931 C   0  0  0  0  0  0  0  0  0  0  0  0
   19.1515  -11.9374    5.8221 S   0  0  0  0  0  0  0  0  0  0  0  0
   19.9230  -13.2224    6.8288 C   0  0  0  0  0  0  0  0  0  0  0  0
   18.9511  -14.3458    7.0012 C   0  0  0  0  0  0  0  0  0  0  0  0
   19.4703  -15.3868    7.9201 C   0  0  2  0  0  0  0  0  0  0  0  0
   18.4668  -16.4552    8.1108 N   0  0  0  0  0  0  0  0  0  0  0  0
   19.8852  -14.8449    9.2054 C   0  0  0  0  0  0  0  0  0  0  0  0
   19.1129  -14.5066   10.1141 O   0  0  0  0  0  0  0  0  0  0  0  0
   21.2587  -14.6671    9.5001 O   0  0  0  0  0  0  0  0  0  0  0  0
  2  1  1  0
  3  2  2  0
  4  2  1  0
  5  4  1  0
  6  7  1  6
  6  8  1  0
  6  5  1  0
  8  9  2  0
 10 11  1  0
 10  8  1  0
 11 12  1  0
 13 12  1  0
 14 13  1  0
 14 10  1  0
 14 15  1  1
 16 15  2  0
 18 17  1  0
 19 18  1  0
 20 19  1  0
 21 20  1  6
 21 22  1  0
 22 15  1  0
 23 25  1  0
 23 21  1  0
 24 23  2  0
M  END
$$$$
