QPM.pdb
     RDKit          3D

 25 25  0  0  1  0  0  0  0  0999 V2000
   21.2260  -22.1120  -14.5037 N   0  0  0  0  0  0  0  0  0  0  0  0
   21.6432  -22.9767  -15.5457 C   0  0  0  0  0  0  0  0  0  0  0  0
   21.0746  -22.9138  -16.6529 O   0  0  0  0  0  0  0  0  0  0  0  0
   22.7367  -23.9288  -15.3134 C   0  0  0  0  0  0  0  0  0  0  0  0
   23.8525  -23.4861  -14.4560 C   0  0  0  0  0  0  0  0  0  0  0  0
   25.1178  -23.0459  -15.1567 C   0  0  2  0  0  0  0  0  0  0  0  0
   25.7153  -24.0741  -15.9222 N   0  0  0  0  0  0  0  0  0  0  0  0
   26.0511  -22.3644  -14.2445 C   0  0  0  0  0  0  0  0  0  0  0  0
   27.0742  -23.1213  -13.9390 O   0  0  0  0  0  0  0  0  0  0  0  0
   25.9505  -21.0986  -13.7227 N   0  0  0  0  0  0  0  0  0  0  0  0
   25.0669  -20.0125  -13.9350 C   0  0  0  0  0  0  0  0  0  0  0  0
   26.1029  -18.9128  -14.2994 C   0  0  0  0  0  0  0  0  0  0  0  0
   27.1924  -19.2013  -13.2521 C   0  0  0  0  0  0  0  0  0  0  0  0
   26.8982  -20.5764  -12.7135 C   0  0  1  0  0  0  0  0  0  0  0  0
   26.3539  -20.6194  -11.3601 C   0  0  0  0  0  0  0  0  0  0  0  0
   25.1230  -20.9013  -11.2493 O   0  0  0  0  0  0  0  0  0  0  0  0
   28.8888  -18.3530   -5.9015 C   0  0  0  0  0  0  0  0  0  0  0  0
   27.7466  -19.5402   -5.1581 S   0  0  0  0  0  0  0  0  0  0  0  0
   26.7271  -20.3635   -6.4001 C   0  0  0  0  0  0  0  0  0  0  0  0
   27.3187  -20.1127   -7.7504 C   0  0  0  0  0  0  0  0  0  0  0  0
   26.5151  -20.7373   -8.8283 C   0  0  2  0  0  0  0  0  0  0  0  0
   27.0597  -20.3767  -10.1542 N   0  0  0  0  0  0  0  0  0  0  0  0
   25.1037  -20.3921   -8.7484 C   0  0  0  0  0  0  0  0  0  0  0  0
   24.5658  -19.4621   -9.3667 O   0  0  0  0  0  0  0  0  0  0  0  0
   24.2283  -21.1360   -7.9207 O   0  0  0  0  0  0  0  0  0  0  0  0
  2  1  1  0
  3  2  2  0
  4  2  1  0
  5  4  1  0
  6  7  1  1
  6  8  1  0
  6  5  1  0
  8  9  2  0
 10 11  1  0
 10  8  1  0
 11 12  1  0
 13 12  1  0
 14 13  1  0
 14 10  1  0
 14 15  1  1
 16 15  2  0
 18 17  1  0
 19 18  1  0
 20 19  1  0
 21 20  1  1
 21 22  1  0
 22 15  1  0
 23 25  1  0
 23 21  1  0
 24 23  2  0
M  END
$$$$
