QPM.pdb
     RDKit          3D

 25 25  0  0  1  0  0  0  0  0999 V2000
   27.0963  -16.0809  -19.0836 N   0  0  0  0  0  0  0  0  0  0  0  0
   25.7455  -16.0915  -18.6561 C   0  0  0  0  0  0  0  0  0  0  0  0
   24.8841  -15.5138  -19.3471 O   0  0  0  0  0  0  0  0  0  0  0  0
   25.3759  -16.7820  -17.4139 C   0  0  0  0  0  0  0  0  0  0  0  0
   26.4669  -17.3642  -16.6097 C   0  0  0  0  0  0  0  0  0  0  0  0
   26.8591  -18.7903  -16.9234 C   0  0  2  0  0  0  0  0  0  0  0  0
   26.2007  -19.3098  -18.0623 N   0  0  0  0  0  0  0  0  0  0  0  0
   26.7789  -19.6629  -15.7403 C   0  0  0  0  0  0  0  0  0  0  0  0
   25.8403  -20.5666  -15.8638 O   0  0  0  0  0  0  0  0  0  0  0  0
   27.5440  -19.6156  -14.6015 N   0  0  0  0  0  0  0  0  0  0  0  0
   28.5895  -18.7733  -14.1509 C   0  0  0  0  0  0  0  0  0  0  0  0
   29.6768  -19.8484  -13.8731 C   0  0  0  0  0  0  0  0  0  0  0  0
   28.8249  -20.9340  -13.1925 C   0  0  0  0  0  0  0  0  0  0  0  0
   27.3911  -20.5906  -13.4991 C   0  0  1  0  0  0  0  0  0  0  0  0
   26.6192  -20.0554  -12.3822 C   0  0  0  0  0  0  0  0  0  0  0  0
   26.4603  -18.7983  -12.3494 O   0  0  0  0  0  0  0  0  0  0  0  0
   21.5559  -20.7579  -14.0460 C   0  0  0  0  0  0  0  0  0  0  0  0
   21.0247  -21.0699  -12.3469 S   0  0  0  0  0  0  0  0  0  0  0  0
   22.2701  -20.5548  -11.1456 C   0  0  0  0  0  0  0  0  0  0  0  0
   23.6251  -20.8775  -11.6900 C   0  0  0  0  0  0  0  0  0  0  0  0
   24.7044  -20.4600  -10.7635 C   0  0  2  0  0  0  0  0  0  0  0  0
   26.0286  -20.7968  -11.3273 N   0  0  0  0  0  0  0  0  0  0  0  0
   24.5574  -21.0348   -9.4347 C   0  0  0  0  0  0  0  0  0  0  0  0
   25.0419  -22.1171   -9.0735 O   0  0  0  0  0  0  0  0  0  0  0  0
   23.8180  -20.3555   -8.4363 O   0  0  0  0  0  0  0  0  0  0  0  0
  2  1  1  0
  3  2  2  0
  4  2  1  0
  5  4  1  0
  6  7  1  6
  6  8  1  0
  6  5  1  0
  8  9  2  0
 10 11  1  0
 10  8  1  0
 11 12  1  0
 13 12  1  0
 14 13  1  0
 14 10  1  0
 14 15  1  1
 16 15  2  0
 18 17  1  0
 19 18  1  0
 20 19  1  0
 21 20  1  6
 21 22  1  0
 22 15  1  0
 23 25  1  0
 23 21  1  0
 24 23  2  0
M  END
$$$$
