QPM.pdb
     RDKit          3D

 25 25  0  0  1  0  0  0  0  0999 V2000
   19.8186  -17.6677  -14.2747 N   0  0  0  0  0  0  0  0  0  0  0  0
   19.4897  -18.3717  -13.0899 C   0  0  0  0  0  0  0  0  0  0  0  0
   18.3459  -18.2529  -12.6092 O   0  0  0  0  0  0  0  0  0  0  0  0
   20.4915  -19.2315  -12.4469 C   0  0  0  0  0  0  0  0  0  0  0  0
   21.8428  -19.2593  -13.0378 C   0  0  0  0  0  0  0  0  0  0  0  0
   22.3500  -20.6005  -13.5171 C   0  0  2  0  0  0  0  0  0  0  0  0
   21.3177  -21.5473  -13.7125 N   0  0  0  0  0  0  0  0  0  0  0  0
   23.4668  -21.0988  -12.6973 C   0  0  0  0  0  0  0  0  0  0  0  0
   23.0535  -21.8875  -11.7382 O   0  0  0  0  0  0  0  0  0  0  0  0
   24.8053  -20.8283  -12.8379 N   0  0  0  0  0  0  0  0  0  0  0  0
   25.5611  -20.0317  -13.7322 C   0  0  0  0  0  0  0  0  0  0  0  0
   26.5437  -21.1125  -14.2631 C   0  0  0  0  0  0  0  0  0  0  0  0
   26.8830  -21.8451  -12.9533 C   0  0  0  0  0  0  0  0  0  0  0  0
   25.8344  -21.4246  -11.9578 C   0  0  1  0  0  0  0  0  0  0  0  0
   26.2850  -20.5028  -10.9200 C   0  0  0  0  0  0  0  0  0  0  0  0
   25.4949  -19.5606  -10.6120 O   0  0  0  0  0  0  0  0  0  0  0  0
   28.3585  -19.1262   -4.8435 C   0  0  0  0  0  0  0  0  0  0  0  0
   27.1689  -19.1329   -6.2042 S   0  0  0  0  0  0  0  0  0  0  0  0
   26.5805  -20.7985   -6.5772 C   0  0  0  0  0  0  0  0  0  0  0  0
   26.4712  -20.9483   -8.0611 C   0  0  0  0  0  0  0  0  0  0  0  0
   27.6143  -20.3180   -8.7639 C   0  0  2  0  0  0  0  0  0  0  0  0
   27.5177  -20.5507  -10.2203 N   0  0  0  0  0  0  0  0  0  0  0  0
   28.9022  -20.7728   -8.2615 C   0  0  0  0  0  0  0  0  0  0  0  0
   29.3318  -21.9314   -8.3598 O   0  0  0  0  0  0  0  0  0  0  0  0
   29.7743  -19.8728   -7.6026 O   0  0  0  0  0  0  0  0  0  0  0  0
  2  1  1  0
  3  2  2  0
  4  2  1  0
  5  4  1  0
  6  7  1  1
  6  8  1  0
  6  5  1  0
  8  9  2  0
 10 11  1  0
 10  8  1  0
 11 12  1  0
 13 12  1  0
 14 13  1  0
 14 10  1  0
 14 15  1  1
 16 15  2  0
 18 17  1  0
 19 18  1  0
 20 19  1  0
 21 20  1  1
 21 22  1  0
 22 15  1  0
 23 25  1  0
 23 21  1  0
 24 23  2  0
M  END
$$$$
