TYV.pdb
     RDKit          3D

 27 27  0  0  1  0  0  0  0  0999 V2000
   28.5562  -18.9868  -16.1108 C   0  0  0  0  0  0  0  0  0  0  0  0
   27.8797  -19.5242  -14.8751 C   0  0  1  0  0  0  0  0  0  0  0  0
   26.6065  -19.9790  -15.1754 O   0  0  0  0  0  0  0  0  0  0  0  0
   28.7170  -20.5510  -14.1586 C   0  0  2  0  0  0  0  0  0  0  0  0
   28.8279  -21.7344  -14.9841 N   0  0  0  0  0  0  0  0  0  0  0  0
   28.2100  -20.9265  -12.8407 C   0  0  0  0  0  0  0  0  0  0  0  0
   27.5362  -21.9780  -12.7077 O   0  0  0  0  0  0  0  0  0  0  0  0
   26.7592  -20.8825   -4.0888 O   0  0  0  0  0  0  0  0  0  0  0  0
   27.1863  -20.5529   -5.3822 C   0  0  0  0  0  0  0  0  0  0  0  0
   26.3364  -19.9483   -6.2863 C   0  0  0  0  0  0  0  0  0  0  0  0
   26.7073  -19.6050   -7.5670 C   0  0  0  0  0  0  0  0  0  0  0  0
   27.9889  -19.8708   -7.9859 C   0  0  0  0  0  0  0  0  0  0  0  0
   28.4642  -19.5293   -9.3555 C   0  0  0  0  0  0  0  0  0  0  0  0
   27.8073  -20.4487  -10.3922 C   0  0  2  0  0  0  0  0  0  0  0  0
   28.4259  -20.1701  -11.6530 N   0  0  0  0  0  0  0  0  0  0  0  0
   26.3611  -20.1114  -10.3783 C   0  0  0  0  0  0  0  0  0  0  0  0
   25.9738  -18.9653  -10.7149 O   0  0  0  0  0  0  0  0  0  0  0  0
   28.8533  -20.4737   -7.0997 C   0  0  0  0  0  0  0  0  0  0  0  0
   28.4676  -20.8116   -5.8205 C   0  0  0  0  0  0  0  0  0  0  0  0
   22.0064  -21.3559  -11.6878 C   0  0  0  0  0  0  0  0  0  0  0  0
   23.4373  -21.6408  -11.3781 C   0  0  1  0  0  0  0  0  0  0  0  0
   24.2867  -21.4366  -12.5900 C   0  0  0  0  0  0  0  0  0  0  0  0
   23.9739  -20.7838  -10.2477 C   0  0  2  0  0  0  0  0  0  0  0  0
   25.3670  -21.0503   -9.9915 N   0  0  0  0  0  0  0  0  0  0  0  0
   23.1487  -20.9479   -9.0255 C   0  0  0  0  0  0  0  0  0  0  0  0
   23.2995  -21.9021   -8.2294 O   0  0  0  0  0  0  0  0  0  0  0  0
   22.1690  -20.0112   -8.7468 O   0  0  0  0  0  0  0  0  0  0  0  0
  2  1  1  6
  2  3  1  0
  4  2  1  0
  4  5  1  6
  6  4  1  0
  6  7  2  0
  8  9  1  0
  9 10  2  0
 10 11  1  0
 12 11  2  0
 12 13  1  0
 14 15  1  0
 14 13  1  1
 15  6  1  0
 16 14  1  0
 17 16  2  0
 18 12  1  0
 19  9  1  0
 19 18  2  0
 21 20  1  6
 21 22  1  0
 23 21  1  0
 23 24  1  1
 24 16  1  0
 25 27  1  0
 25 23  1  0
 26 25  2  0
M  END
$$$$
