TYV.pdb
     RDKit          3D

 27 27  0  0  1  0  0  0  0  0999 V2000
   17.6718  -10.3337  -15.3529 C   0  0  0  0  0  0  0  0  0  0  0  0
   16.2741  -10.6773  -14.9036 C   0  0  1  0  0  0  0  0  0  0  0  0
   15.9004  -11.9217  -15.3831 O   0  0  0  0  0  0  0  0  0  0  0  0
   16.0974  -10.5439  -13.4138 C   0  0  2  0  0  0  0  0  0  0  0  0
   14.7540  -10.9461  -13.0562 N   0  0  0  0  0  0  0  0  0  0  0  0
   16.3543   -9.2020  -12.8958 C   0  0  0  0  0  0  0  0  0  0  0  0
   15.6381   -8.2408  -13.2704 O   0  0  0  0  0  0  0  0  0  0  0  0
   12.1071   -7.3620   -8.4442 O   0  0  0  0  0  0  0  0  0  0  0  0
   13.4546   -7.3989   -8.8275 C   0  0  0  0  0  0  0  0  0  0  0  0
   14.1191   -8.5965   -8.9997 C   0  0  0  0  0  0  0  0  0  0  0  0
   15.4407   -8.6863   -9.3749 C   0  0  0  0  0  0  0  0  0  0  0  0
   16.1533   -7.5318   -9.5945 C   0  0  0  0  0  0  0  0  0  0  0  0
   17.5857   -7.5476  -10.0023 C   0  0  0  0  0  0  0  0  0  0  0  0
   17.7044   -7.5586  -11.5312 C   0  0  2  0  0  0  0  0  0  0  0  0
   17.3876   -8.8848  -11.9679 N   0  0  0  0  0  0  0  0  0  0  0  0
   19.1073   -7.1771  -11.8341 C   0  0  0  0  0  0  0  0  0  0  0  0
   20.0619   -7.8158  -11.3268 O   0  0  0  0  0  0  0  0  0  0  0  0
   15.5096   -6.3261   -9.4284 C   0  0  0  0  0  0  0  0  0  0  0  0
   14.1858   -6.2520   -9.0523 C   0  0  0  0  0  0  0  0  0  0  0  0
   22.5738   -6.0525  -14.7852 C   0  0  0  0  0  0  0  0  0  0  0  0
   21.1850   -6.4072  -14.3725 C   0  0  1  0  0  0  0  0  0  0  0  0
   21.0182   -7.8906  -14.3137 C   0  0  0  0  0  0  0  0  0  0  0  0
   20.8028   -5.8128  -13.0306 C   0  0  2  0  0  0  0  0  0  0  0  0
   19.4295   -6.0932  -12.6948 N   0  0  0  0  0  0  0  0  0  0  0  0
   21.0906   -4.3574  -12.9986 C   0  0  0  0  0  0  0  0  0  0  0  0
   20.2088   -3.4883  -13.1827 O   0  0  0  0  0  0  0  0  0  0  0  0
   22.3857   -3.9350  -12.7554 O   0  0  0  0  0  0  0  0  0  0  0  0
  2  1  1  1
  2  3  1  0
  4  2  1  0
  4  5  1  6
  6  4  1  0
  6  7  2  0
  8  9  1  0
  9 10  2  0
 10 11  1  0
 12 11  2  0
 12 13  1  0
 14 15  1  0
 14 13  1  1
 15  6  1  0
 16 14  1  0
 17 16  2  0
 18 12  1  0
 19  9  1  0
 19 18  2  0
 21 20  1  1
 21 22  1  0
 23 21  1  0
 23 24  1  6
 24 16  1  0
 25 27  1  0
 25 23  1  0
 26 25  2  0
M  END
$$$$
