TYV.pdb
     RDKit          3D

 27 27  0  0  1  0  0  0  0  0999 V2000
   26.7532  -20.7301  -18.6864 C   0  0  0  0  0  0  0  0  0  0  0  0
   27.6803  -21.9119  -18.8183 C   0  0  1  0  0  0  0  0  0  0  0  0
   28.5082  -21.7613  -19.9182 O   0  0  0  0  0  0  0  0  0  0  0  0
   28.4369  -22.1968  -17.5474 C   0  0  2  0  0  0  0  0  0  0  0  0
   29.1888  -23.4231  -17.7061 N   0  0  0  0  0  0  0  0  0  0  0  0
   27.5960  -22.2958  -16.3566 C   0  0  0  0  0  0  0  0  0  0  0  0
   26.8759  -23.3101  -16.1838 O   0  0  0  0  0  0  0  0  0  0  0  0
   24.0394  -20.6036   -8.4261 O   0  0  0  0  0  0  0  0  0  0  0  0
   24.7992  -20.5332   -9.6017 C   0  0  0  0  0  0  0  0  0  0  0  0
   24.4649  -19.6647  -10.6211 C   0  0  0  0  0  0  0  0  0  0  0  0
   25.1779  -19.5578  -11.7940 C   0  0  0  0  0  0  0  0  0  0  0  0
   26.2853  -20.3506  -11.9779 C   0  0  0  0  0  0  0  0  0  0  0  0
   27.1071  -20.2923  -13.2188 C   0  0  0  0  0  0  0  0  0  0  0  0
   26.6260  -21.3434  -14.2264 C   0  0  2  0  0  0  0  0  0  0  0  0
   27.5245  -21.3001  -15.3403 N   0  0  0  0  0  0  0  0  0  0  0  0
   25.2412  -20.9525  -14.5937 C   0  0  0  0  0  0  0  0  0  0  0  0
   25.0361  -19.9392  -15.3064 O   0  0  0  0  0  0  0  0  0  0  0  0
   26.6366  -21.2242  -10.9733 C   0  0  0  0  0  0  0  0  0  0  0  0
   25.9129  -21.3201   -9.8044 C   0  0  0  0  0  0  0  0  0  0  0  0
   20.6464  -21.5575  -15.6738 C   0  0  0  0  0  0  0  0  0  0  0  0
   22.0528  -22.0069  -15.4618 C   0  0  1  0  0  0  0  0  0  0  0  0
   22.8221  -21.9429  -16.7408 C   0  0  0  0  0  0  0  0  0  0  0  0
   22.7761  -21.1906  -14.4080 C   0  0  2  0  0  0  0  0  0  0  0  0
   24.1056  -21.6914  -14.1650 N   0  0  0  0  0  0  0  0  0  0  0  0
   21.9786  -21.1188  -13.1588 C   0  0  0  0  0  0  0  0  0  0  0  0
   22.0551  -21.9822  -12.2557 O   0  0  0  0  0  0  0  0  0  0  0  0
   21.1115  -20.0558  -12.9767 O   0  0  0  0  0  0  0  0  0  0  0  0
  2  1  1  1
  2  3  1  0
  4  2  1  0
  4  5  1  6
  6  4  1  0
  6  7  2  0
  8  9  1  0
  9 10  2  0
 10 11  1  0
 12 11  2  0
 12 13  1  0
 14 15  1  0
 14 13  1  1
 15  6  1  0
 16 14  1  0
 17 16  2  0
 18 12  1  0
 19  9  1  0
 19 18  2  0
 21 20  1  6
 21 22  1  0
 23 21  1  0
 23 24  1  1
 24 16  1  0
 25 27  1  0
 25 23  1  0
 26 25  2  0
M  END
$$$$
