TYV.pdb
     RDKit          3D

 27 27  0  0  1  0  0  0  0  0999 V2000
   43.6728   -9.7872   -4.1155 C   0  0  0  0  0  0  0  0  0  0  0  0
   44.5727  -10.4287   -5.1413 C   0  0  1  0  0  0  0  0  0  0  0  0
   45.6088  -11.1087   -4.5232 O   0  0  0  0  0  0  0  0  0  0  0  0
   43.8128  -11.2815   -6.1232 C   0  0  2  0  0  0  0  0  0  0  0  0
   44.7501  -11.9300   -7.0150 N   0  0  0  0  0  0  0  0  0  0  0  0
   42.8211  -10.5527   -6.9108 C   0  0  0  0  0  0  0  0  0  0  0  0
   43.1347  -10.0905   -8.0357 O   0  0  0  0  0  0  0  0  0  0  0  0
   35.5568   -5.5965   -8.1495 O   0  0  0  0  0  0  0  0  0  0  0  0
   36.4481   -6.6221   -7.8063 C   0  0  0  0  0  0  0  0  0  0  0  0
   36.5657   -7.0647   -6.5042 C   0  0  0  0  0  0  0  0  0  0  0  0
   37.4252   -8.0678   -6.1162 C   0  0  0  0  0  0  0  0  0  0  0  0
   38.2170   -8.6730   -7.0625 C   0  0  0  0  0  0  0  0  0  0  0  0
   39.1709   -9.7645   -6.7203 C   0  0  0  0  0  0  0  0  0  0  0  0
   40.6021   -9.3573   -7.0910 C   0  0  2  0  0  0  0  0  0  0  0  0
   41.4805  -10.3157   -6.4912 N   0  0  0  0  0  0  0  0  0  0  0  0
   40.7911   -7.9890   -6.5455 C   0  0  0  0  0  0  0  0  0  0  0  0
   40.6573   -7.7723   -5.3159 O   0  0  0  0  0  0  0  0  0  0  0  0
   38.1156   -8.2466   -8.3677 C   0  0  0  0  0  0  0  0  0  0  0  0
   37.2503   -7.2411   -8.7411 C   0  0  0  0  0  0  0  0  0  0  0  0
   43.6506   -5.8326   -6.2138 C   0  0  0  0  0  0  0  0  0  0  0  0
   42.6405   -5.0085   -6.9388 C   0  0  1  0  0  0  0  0  0  0  0  0
   42.9920   -4.9026   -8.3868 C   0  0  0  0  0  0  0  0  0  0  0  0
   41.2335   -5.5596   -6.8102 C   0  0  2  0  0  0  0  0  0  0  0  0
   41.1254   -6.8825   -7.3720 N   0  0  0  0  0  0  0  0  0  0  0  0
   40.2462   -4.6264   -7.4068 C   0  0  0  0  0  0  0  0  0  0  0  0
   39.7283   -4.8157   -8.5306 O   0  0  0  0  0  0  0  0  0  0  0  0
   39.8771   -3.4969   -6.6976 O   0  0  0  0  0  0  0  0  0  0  0  0
  2  1  1  1
  2  3  1  0
  4  2  1  0
  4  5  1  6
  6  4  1  0
  6  7  2  0
  8  9  1  0
  9 10  2  0
 10 11  1  0
 12 11  2  0
 12 13  1  0
 14 15  1  0
 14 13  1  1
 15  6  1  0
 16 14  1  0
 17 16  2  0
 18 12  1  0
 19  9  1  0
 19 18  2  0
 21 20  1  1
 21 22  1  0
 23 21  1  0
 23 24  1  6
 24 16  1  0
 25 27  1  0
 25 23  1  0
 26 25  2  0
M  END
$$$$
