TYV.pdb
     RDKit          3D

 27 27  0  0  1  0  0  0  0  0999 V2000
   28.4492  -19.7473  -18.3851 C   0  0  0  0  0  0  0  0  0  0  0  0
   27.5675  -20.1248  -17.2217 C   0  0  1  0  0  0  0  0  0  0  0  0
   26.2677  -20.3439  -17.6465 O   0  0  0  0  0  0  0  0  0  0  0  0
   28.1263  -21.2727  -16.4223 C   0  0  2  0  0  0  0  0  0  0  0  0
   28.1615  -22.4577  -17.2523 N   0  0  0  0  0  0  0  0  0  0  0  0
   27.3904  -21.5643  -15.1942 C   0  0  0  0  0  0  0  0  0  0  0  0
   26.4124  -22.3516  -15.2246 O   0  0  0  0  0  0  0  0  0  0  0  0
   24.4599  -20.7539   -6.8745 O   0  0  0  0  0  0  0  0  0  0  0  0
   25.2152  -20.6507   -8.0505 C   0  0  0  0  0  0  0  0  0  0  0  0
   25.8752  -19.4839   -8.3793 C   0  0  0  0  0  0  0  0  0  0  0  0
   26.6290  -19.3320   -9.5213 C   0  0  0  0  0  0  0  0  0  0  0  0
   26.7422  -20.3884  -10.3931 C   0  0  0  0  0  0  0  0  0  0  0  0
   27.5394  -20.3009  -11.6482 C   0  0  0  0  0  0  0  0  0  0  0  0
   26.8542  -21.0895  -12.7708 C   0  0  2  0  0  0  0  0  0  0  0  0
   27.7036  -21.0084  -13.9205 N   0  0  0  0  0  0  0  0  0  0  0  0
   25.5386  -20.4347  -12.9850 C   0  0  0  0  0  0  0  0  0  0  0  0
   25.4794  -19.2363  -13.3553 O   0  0  0  0  0  0  0  0  0  0  0  0
   26.0917  -21.5619  -10.0843 C   0  0  0  0  0  0  0  0  0  0  0  0
   25.3405  -21.6990   -8.9370 C   0  0  0  0  0  0  0  0  0  0  0  0
   21.0735  -20.2819  -14.5430 C   0  0  0  0  0  0  0  0  0  0  0  0
   22.4081  -20.9072  -14.3135 C   0  0  1  0  0  0  0  0  0  0  0  0
   23.3289  -20.6103  -15.4518 C   0  0  0  0  0  0  0  0  0  0  0  0
   23.0554  -20.4486  -13.0209 C   0  0  2  0  0  0  0  0  0  0  0  0
   24.3093  -21.1190  -12.7852 N   0  0  0  0  0  0  0  0  0  0  0  0
   22.1221  -20.6102  -11.8787 C   0  0  0  0  0  0  0  0  0  0  0  0
   22.1413  -21.6090  -11.1244 O   0  0  0  0  0  0  0  0  0  0  0  0
   21.1883  -19.6197  -11.6301 O   0  0  0  0  0  0  0  0  0  0  0  0
  2  1  1  6
  2  3  1  0
  4  2  1  0
  4  5  1  6
  6  4  1  0
  6  7  2  0
  8  9  1  0
  9 10  2  0
 10 11  1  0
 12 11  2  0
 12 13  1  0
 14 15  1  0
 14 13  1  1
 15  6  1  0
 16 14  1  0
 17 16  2  0
 18 12  1  0
 19  9  1  0
 19 18  2  0
 21 20  1  6
 21 22  1  0
 23 21  1  0
 23 24  1  1
 24 16  1  0
 25 27  1  0
 25 23  1  0
 26 25  2  0
M  END
$$$$
