TYV.pdb
     RDKit          3D

 27 27  0  0  1  0  0  0  0  0999 V2000
   27.6547  -20.4557  -18.4954 C   0  0  0  0  0  0  0  0  0  0  0  0
   26.8032  -20.6508  -17.2665 C   0  0  1  0  0  0  0  0  0  0  0  0
   25.4713  -20.8004  -17.6153 O   0  0  0  0  0  0  0  0  0  0  0  0
   27.3084  -21.7623  -16.3845 C   0  0  2  0  0  0  0  0  0  0  0  0
   27.1831  -23.0214  -17.0870 N   0  0  0  0  0  0  0  0  0  0  0  0
   26.6317  -21.8597  -15.0931 C   0  0  0  0  0  0  0  0  0  0  0  0
   25.6163  -22.5892  -14.9742 O   0  0  0  0  0  0  0  0  0  0  0  0
   24.6310  -20.6291   -6.5645 O   0  0  0  0  0  0  0  0  0  0  0  0
   25.2509  -20.5799   -7.8205 C   0  0  0  0  0  0  0  0  0  0  0  0
   26.0392  -19.5088   -8.1901 C   0  0  0  0  0  0  0  0  0  0  0  0
   26.6691  -19.4131   -9.4106 C   0  0  0  0  0  0  0  0  0  0  0  0
   26.5164  -20.4292  -10.3233 C   0  0  0  0  0  0  0  0  0  0  0  0
   27.1658  -20.3977  -11.6634 C   0  0  0  0  0  0  0  0  0  0  0  0
   26.3131  -21.1575  -12.6867 C   0  0  2  0  0  0  0  0  0  0  0  0
   27.0451  -21.1701  -13.9171 N   0  0  0  0  0  0  0  0  0  0  0  0
   25.0353  -20.4078  -12.7897 C   0  0  0  0  0  0  0  0  0  0  0  0
   25.0251  -19.2273  -13.2175 O   0  0  0  0  0  0  0  0  0  0  0  0
   25.7341  -21.5073   -9.9749 C   0  0  0  0  0  0  0  0  0  0  0  0
   25.1097  -21.5891   -8.7490 C   0  0  0  0  0  0  0  0  0  0  0  0
   23.2704  -19.4129  -14.8362 C   0  0  0  0  0  0  0  0  0  0  0  0
   22.1950  -20.0681  -14.0369 C   0  0  1  0  0  0  0  0  0  0  0  0
   21.8608  -21.4081  -14.6065 C   0  0  0  0  0  0  0  0  0  0  0  0
   22.5674  -20.2304  -12.5757 C   0  0  2  0  0  0  0  0  0  0  0  0
   23.7887  -20.9790  -12.4166 N   0  0  0  0  0  0  0  0  0  0  0  0
   21.4483  -20.8349  -11.8114 C   0  0  0  0  0  0  0  0  0  0  0  0
   21.5196  -21.9707  -11.2902 O   0  0  0  0  0  0  0  0  0  0  0  0
   20.2731  -20.1194  -11.6640 O   0  0  0  0  0  0  0  0  0  0  0  0
  2  1  1  6
  2  3  1  0
  4  2  1  0
  4  5  1  6
  6  4  1  0
  6  7  2  0
  8  9  1  0
  9 10  2  0
 10 11  1  0
 12 11  2  0
 12 13  1  0
 14 15  1  0
 14 13  1  1
 15  6  1  0
 16 14  1  0
 17 16  2  0
 18 12  1  0
 19  9  1  0
 19 18  2  0
 21 20  1  6
 21 22  1  0
 23 21  1  0
 23 24  1  6
 24 16  1  0
 25 27  1  0
 25 23  1  0
 26 25  2  0
M  END
$$$$
