TYV.pdb
     RDKit          3D

 27 27  0  0  1  0  0  0  0  0999 V2000
   27.6991  -20.4694  -18.3882 C   0  0  0  0  0  0  0  0  0  0  0  0
   28.4756  -21.7592  -18.4724 C   0  0  1  0  0  0  0  0  0  0  0  0
   29.4720  -21.6664  -19.4297 O   0  0  0  0  0  0  0  0  0  0  0  0
   28.9893  -22.2124  -17.1309 C   0  0  2  0  0  0  0  0  0  0  0  0
   29.5919  -23.5208  -17.2696 N   0  0  0  0  0  0  0  0  0  0  0  0
   27.9730  -22.2569  -16.0820 C   0  0  0  0  0  0  0  0  0  0  0  0
   27.1749  -23.2251  -16.0269 O   0  0  0  0  0  0  0  0  0  0  0  0
   23.6145  -20.5750   -8.5661 O   0  0  0  0  0  0  0  0  0  0  0  0
   24.5083  -20.5174   -9.6440 C   0  0  0  0  0  0  0  0  0  0  0  0
   24.2285  -19.7681  -10.7690 C   0  0  0  0  0  0  0  0  0  0  0  0
   25.0724  -19.6789  -11.8531 C   0  0  0  0  0  0  0  0  0  0  0  0
   26.2624  -20.3661  -11.8324 C   0  0  0  0  0  0  0  0  0  0  0  0
   27.2269  -20.3192  -12.9664 C   0  0  0  0  0  0  0  0  0  0  0  0
   26.7811  -21.2689  -14.0848 C   0  0  2  0  0  0  0  0  0  0  0  0
   27.8087  -21.2560  -15.0817 N   0  0  0  0  0  0  0  0  0  0  0  0
   25.4912  -20.7308  -14.5868 C   0  0  0  0  0  0  0  0  0  0  0  0
   25.4646  -19.6696  -15.2575 O   0  0  0  0  0  0  0  0  0  0  0  0
   26.5614  -21.1198  -10.7196 C   0  0  0  0  0  0  0  0  0  0  0  0
   25.7064  -21.1995   -9.6417 C   0  0  0  0  0  0  0  0  0  0  0  0
   22.3907  -23.0333  -15.8752 C   0  0  0  0  0  0  0  0  0  0  0  0
   22.5703  -21.5709  -16.1071 C   0  0  1  0  0  0  0  0  0  0  0  0
   21.3002  -20.9584  -16.6007 C   0  0  0  0  0  0  0  0  0  0  0  0
   23.0252  -20.8320  -14.8633 C   0  0  2  0  0  0  0  0  0  0  0  0
   24.2509  -21.3779  -14.3370 N   0  0  0  0  0  0  0  0  0  0  0  0
   21.9495  -20.8098  -13.8414 C   0  0  0  0  0  0  0  0  0  0  0  0
   21.8989  -21.6256  -12.8934 O   0  0  0  0  0  0  0  0  0  0  0  0
   20.9569  -19.8500  -13.9330 O   0  0  0  0  0  0  0  0  0  0  0  0
  2  1  1  1
  2  3  1  0
  4  2  1  0
  4  5  1  6
  6  4  1  0
  6  7  2  0
  8  9  1  0
  9 10  2  0
 10 11  1  0
 12 11  2  0
 12 13  1  0
 14 15  1  0
 14 13  1  1
 15  6  1  0
 16 14  1  0
 17 16  2  0
 18 12  1  0
 19  9  1  0
 19 18  2  0
 21 20  1  1
 21 22  1  0
 23 21  1  0
 23 24  1  1
 24 16  1  0
 25 27  1  0
 25 23  1  0
 26 25  2  0
M  END
$$$$
