TYV.pdb
     RDKit          3D

 27 27  0  0  1  0  0  0  0  0999 V2000
   27.6787  -19.4935  -19.6382 C   0  0  0  0  0  0  0  0  0  0  0  0
   26.7771  -19.2941  -18.4462 C   0  0  1  0  0  0  0  0  0  0  0  0
   25.4490  -19.4421  -18.8097 O   0  0  0  0  0  0  0  0  0  0  0  0
   27.1666  -20.1596  -17.2766 C   0  0  2  0  0  0  0  0  0  0  0  0
   27.0088  -21.5512  -17.6411 N   0  0  0  0  0  0  0  0  0  0  0  0
   26.4132  -19.8917  -16.0536 C   0  0  0  0  0  0  0  0  0  0  0  0
   26.4326  -18.7424  -15.5477 O   0  0  0  0  0  0  0  0  0  0  0  0
   19.9171  -18.0684  -17.1819 O   0  0  0  0  0  0  0  0  0  0  0  0
   20.8187  -18.8705  -16.4693 C   0  0  0  0  0  0  0  0  0  0  0  0
   20.8210  -18.8956  -15.0892 C   0  0  0  0  0  0  0  0  0  0  0  0
   21.6852  -19.6655  -14.3436 C   0  0  0  0  0  0  0  0  0  0  0  0
   22.6024  -20.4584  -14.9909 C   0  0  0  0  0  0  0  0  0  0  0  0
   23.5696  -21.3184  -14.2539 C   0  0  0  0  0  0  0  0  0  0  0  0
   24.9286  -20.6168  -14.1416 C   0  0  2  0  0  0  0  0  0  0  0  0
   25.6310  -20.8628  -15.3646 N   0  0  0  0  0  0  0  0  0  0  0  0
   25.6029  -21.2200  -12.9640 C   0  0  0  0  0  0  0  0  0  0  0  0
   25.9043  -22.4390  -12.9611 O   0  0  0  0  0  0  0  0  0  0  0  0
   22.6173  -20.4483  -16.3676 C   0  0  0  0  0  0  0  0  0  0  0  0
   21.7457  -19.6722  -17.1006 C   0  0  0  0  0  0  0  0  0  0  0  0
   28.6858  -21.3222   -9.3695 C   0  0  0  0  0  0  0  0  0  0  0  0
   28.0108  -20.6737  -10.5308 C   0  0  1  0  0  0  0  0  0  0  0  0
   28.7377  -20.9820  -11.7989 C   0  0  0  0  0  0  0  0  0  0  0  0
   26.5613  -21.0954  -10.6762 C   0  0  2  0  0  0  0  0  0  0  0  0
   25.9326  -20.4621  -11.8080 N   0  0  0  0  0  0  0  0  0  0  0  0
   25.8120  -20.8458   -9.4200 C   0  0  0  0  0  0  0  0  0  0  0  0
   26.0969  -21.4077   -8.3383 O   0  0  0  0  0  0  0  0  0  0  0  0
   24.7524  -19.9560   -9.4365 O   0  0  0  0  0  0  0  0  0  0  0  0
  2  1  1  6
  2  3  1  0
  4  2  1  0
  4  5  1  6
  6  4  1  0
  6  7  2  0
  8  9  1  0
  9 10  2  0
 10 11  1  0
 12 11  2  0
 12 13  1  0
 14 15  1  0
 14 13  1  6
 15  6  1  0
 16 14  1  0
 17 16  2  0
 18 12  1  0
 19  9  1  0
 19 18  2  0
 21 20  1  1
 21 22  1  0
 23 21  1  0
 23 24  1  6
 24 16  1  0
 25 27  1  0
 25 23  1  0
 26 25  2  0
M  END
$$$$
