TYV.pdb
     RDKit          3D

 27 27  0  0  1  0  0  0  0  0999 V2000
   26.3652  -19.7059  -18.1534 C   0  0  0  0  0  0  0  0  0  0  0  0
   27.1580  -20.9425  -18.4939 C   0  0  1  0  0  0  0  0  0  0  0  0
   27.8839  -20.7507  -19.6576 O   0  0  0  0  0  0  0  0  0  0  0  0
   28.0058  -21.4196  -17.3440 C   0  0  2  0  0  0  0  0  0  0  0  0
   28.6672  -22.6508  -17.7194 N   0  0  0  0  0  0  0  0  0  0  0  0
   27.2689  -21.6266  -16.0993 C   0  0  0  0  0  0  0  0  0  0  0  0
   26.4760  -22.5953  -15.9972 O   0  0  0  0  0  0  0  0  0  0  0  0
   24.4552  -20.4919   -7.7444 O   0  0  0  0  0  0  0  0  0  0  0  0
   25.1635  -20.4081   -8.9507 C   0  0  0  0  0  0  0  0  0  0  0  0
   25.9246  -21.4638   -9.4107 C   0  0  0  0  0  0  0  0  0  0  0  0
   26.6381  -21.4314  -10.5877 C   0  0  0  0  0  0  0  0  0  0  0  0
   26.6028  -20.2951  -11.3599 C   0  0  0  0  0  0  0  0  0  0  0  0
   27.3477  -20.1843  -12.6450 C   0  0  0  0  0  0  0  0  0  0  0  0
   26.6174  -20.9538  -13.7523 C   0  0  2  0  0  0  0  0  0  0  0  0
   27.3810  -20.7893  -14.9523 N   0  0  0  0  0  0  0  0  0  0  0  0
   25.2655  -20.3465  -13.8476 C   0  0  0  0  0  0  0  0  0  0  0  0
   25.1327  -19.1435  -14.1820 O   0  0  0  0  0  0  0  0  0  0  0  0
   25.8496  -19.2300  -10.9196 C   0  0  0  0  0  0  0  0  0  0  0  0
   25.1405  -19.2772   -9.7388 C   0  0  0  0  0  0  0  0  0  0  0  0
   22.6883  -20.2734  -16.0434 C   0  0  0  0  0  0  0  0  0  0  0  0
   21.9958  -20.7126  -14.7974 C   0  0  1  0  0  0  0  0  0  0  0  0
   21.6928  -22.1744  -14.8535 C   0  0  0  0  0  0  0  0  0  0  0  0
   22.8015  -20.4219  -13.5459 C   0  0  2  0  0  0  0  0  0  0  0  0
   24.0821  -21.0829  -13.5705 N   0  0  0  0  0  0  0  0  0  0  0  0
   22.0268  -20.7689  -12.3288 C   0  0  0  0  0  0  0  0  0  0  0  0
   22.3089  -21.7487  -11.6027 O   0  0  0  0  0  0  0  0  0  0  0  0
   20.9456  -19.9812  -11.9747 O   0  0  0  0  0  0  0  0  0  0  0  0
  2  1  1  1
  2  3  1  0
  4  2  1  0
  4  5  1  6
  6  4  1  0
  6  7  2  0
  8  9  1  0
  9 10  2  0
 10 11  1  0
 12 11  2  0
 12 13  1  0
 14 15  1  0
 14 13  1  1
 15  6  1  0
 16 14  1  0
 17 16  2  0
 18 12  1  0
 19  9  1  0
 19 18  2  0
 21 20  1  6
 21 22  1  0
 23 21  1  0
 23 24  1  6
 24 16  1  0
 25 27  1  0
 25 23  1  0
 26 25  2  0
M  END
$$$$
