TYV.pdb
     RDKit          3D

 27 27  0  0  1  0  0  0  0  0999 V2000
   28.6109  -22.9012  -17.2352 C   0  0  0  0  0  0  0  0  0  0  0  0
   28.6109  -24.3991  -17.4080 C   0  0  1  0  0  0  0  0  0  0  0  0
   29.9072  -24.8841  -17.4550 O   0  0  0  0  0  0  0  0  0  0  0  0
   27.7582  -25.0986  -16.3820 C   0  0  2  0  0  0  0  0  0  0  0  0
   27.7292  -26.5157  -16.6739 N   0  0  0  0  0  0  0  0  0  0  0  0
   26.3894  -24.5949  -16.2939 C   0  0  0  0  0  0  0  0  0  0  0  0
   25.5506  -24.9102  -17.1739 O   0  0  0  0  0  0  0  0  0  0  0  0
   19.0240  -20.8646  -13.1009 O   0  0  0  0  0  0  0  0  0  0  0  0
   20.3376  -21.3259  -13.2616 C   0  0  0  0  0  0  0  0  0  0  0  0
   21.4056  -20.4522  -13.2966 C   0  0  0  0  0  0  0  0  0  0  0  0
   22.7130  -20.8546  -13.4522 C   0  0  0  0  0  0  0  0  0  0  0  0
   22.9893  -22.1947  -13.5812 C   0  0  0  0  0  0  0  0  0  0  0  0
   24.3773  -22.7069  -13.7529 C   0  0  0  0  0  0  0  0  0  0  0  0
   24.5821  -23.2222  -15.1826 C   0  0  2  0  0  0  0  0  0  0  0  0
   25.9128  -23.7457  -15.2542 N   0  0  0  0  0  0  0  0  0  0  0  0
   24.3808  -22.0497  -16.0716 C   0  0  0  0  0  0  0  0  0  0  0  0
   25.1970  -21.0957  -16.0577 O   0  0  0  0  0  0  0  0  0  0  0  0
   21.9384  -23.0836  -13.5490 C   0  0  0  0  0  0  0  0  0  0  0  0
   20.6345  -22.6657  -13.3926 C   0  0  0  0  0  0  0  0  0  0  0  0
   22.7768  -19.9070  -20.0961 C   0  0  0  0  0  0  0  0  0  0  0  0
   23.0298  -21.1059  -19.2456 C   0  0  1  0  0  0  0  0  0  0  0  0
   24.3035  -21.7749  -19.6481 C   0  0  0  0  0  0  0  0  0  0  0  0
   23.0916  -20.7729  -17.7673 C   0  0  2  0  0  0  0  0  0  0  0  0
   23.2774  -21.9537  -16.9619 N   0  0  0  0  0  0  0  0  0  0  0  0
   21.8919  -20.0058  -17.3500 C   0  0  0  0  0  0  0  0  0  0  0  0
   21.8714  -18.7552  -17.2992 O   0  0  0  0  0  0  0  0  0  0  0  0
   20.7435  -20.6943  -17.0008 O   0  0  0  0  0  0  0  0  0  0  0  0
  2  1  1  1
  2  3  1  0
  4  2  1  0
  4  5  1  6
  6  4  1  0
  6  7  2  0
  8  9  1  0
  9 10  2  0
 10 11  1  0
 12 11  2  0
 12 13  1  0
 14 15  1  0
 14 13  1  1
 15  6  1  0
 16 14  1  0
 17 16  2  0
 18 12  1  0
 19  9  1  0
 19 18  2  0
 21 20  1  6
 21 22  1  0
 23 21  1  0
 23 24  1  1
 24 16  1  0
 25 27  1  0
 25 23  1  0
 26 25  2  0
M  END
$$$$
