TYV.pdb
     RDKit          3D

 27 27  0  0  1  0  0  0  0  0999 V2000
   17.7475  -12.9406  -16.3654 C   0  0  0  0  0  0  0  0  0  0  0  0
   18.6523  -13.7112  -17.2934 C   0  0  1  0  0  0  0  0  0  0  0  0
   18.1833  -15.0022  -17.4701 O   0  0  0  0  0  0  0  0  0  0  0  0
   18.8949  -12.9905  -18.5936 C   0  0  2  0  0  0  0  0  0  0  0  0
   19.6970  -13.8281  -19.4593 N   0  0  0  0  0  0  0  0  0  0  0  0
   19.5405  -11.6879  -18.4473 C   0  0  0  0  0  0  0  0  0  0  0  0
   20.7865  -11.6214  -18.3051 O   0  0  0  0  0  0  0  0  0  0  0  0
   20.6767   -2.8860  -18.0460 O   0  0  0  0  0  0  0  0  0  0  0  0
   20.1278   -4.1667  -18.1960 C   0  0  0  0  0  0  0  0  0  0  0  0
   20.5784   -5.0304  -19.1739 C   0  0  0  0  0  0  0  0  0  0  0  0
   20.0727   -6.2971  -19.3621 C   0  0  0  0  0  0  0  0  0  0  0  0
   19.0644   -6.7432  -18.5416 C   0  0  0  0  0  0  0  0  0  0  0  0
   18.4665   -8.1000  -18.6831 C   0  0  0  0  0  0  0  0  0  0  0  0
   19.4632   -9.1719  -18.2256 C   0  0  2  0  0  0  0  0  0  0  0  0
   18.8465  -10.4438  -18.4533 N   0  0  0  0  0  0  0  0  0  0  0  0
   19.7137   -8.9079  -16.7858 C   0  0  0  0  0  0  0  0  0  0  0  0
   18.8319   -9.1678  -15.9305 O   0  0  0  0  0  0  0  0  0  0  0  0
   18.6000   -5.8974  -17.5594 C   0  0  0  0  0  0  0  0  0  0  0  0
   19.1162   -4.6318  -17.3830 C   0  0  0  0  0  0  0  0  0  0  0  0
   22.6081   -8.6586  -12.9424 C   0  0  0  0  0  0  0  0  0  0  0  0
   22.3695   -8.8757  -14.3986 C   0  0  1  0  0  0  0  0  0  0  0  0
   22.2195  -10.3324  -14.6939 C   0  0  0  0  0  0  0  0  0  0  0  0
   21.1456   -8.1390  -14.9080 C   0  0  2  0  0  0  0  0  0  0  0  0
   20.9382   -8.3599  -16.3171 N   0  0  0  0  0  0  0  0  0  0  0  0
   21.2290   -6.6933  -14.5844 C   0  0  0  0  0  0  0  0  0  0  0  0
   21.8905   -5.8824  -15.2712 O   0  0  0  0  0  0  0  0  0  0  0  0
   20.5498   -6.2132  -13.4784 O   0  0  0  0  0  0  0  0  0  0  0  0
  2  1  1  1
  2  3  1  0
  4  2  1  0
  4  5  1  6
  6  4  1  0
  6  7  2  0
  8  9  1  0
  9 10  2  0
 10 11  1  0
 12 11  2  0
 12 13  1  0
 14 15  1  0
 14 13  1  1
 15  6  1  0
 16 14  1  0
 17 16  2  0
 18 12  1  0
 19  9  1  0
 19 18  2  0
 21 20  1  1
 21 22  1  0
 23 21  1  0
 23 24  1  6
 24 16  1  0
 25 27  1  0
 25 23  1  0
 26 25  2  0
M  END
$$$$
