PSG.pdb
     RDKit          3D

 18 18  0  0  1  0  0  0  0  0999 V2000
   26.4514  -12.2031  -17.3651 N   0  0  0  0  0  0  0  0  0  0  0  0
   27.5634  -12.9398  -16.7601 C   0  0  0  0  0  0  0  0  0  0  0  0
   28.1967  -11.9947  -15.7731 C   0  0  0  0  0  0  0  0  0  0  0  0
   27.2192  -10.8297  -15.6917 C   0  0  0  0  0  0  0  0  0  0  0  0
   25.9462  -11.4300  -16.2215 C   0  0  1  0  0  0  0  0  0  0  0  0
   25.0056  -10.4115  -16.7321 C   0  0  0  0  0  0  0  0  0  0  0  0
   25.0229   -9.9469  -17.8946 O   0  0  0  0  0  0  0  0  0  0  0  0
   20.7948   -8.4608  -17.0324 O   0  0  0  0  0  0  0  0  0  0  0  0
   21.6477   -9.4180  -16.5019 C   0  0  0  0  0  0  0  0  0  0  0  0
   23.0412   -8.9128  -16.2953 C   0  0  2  0  0  0  0  0  0  0  0  0
   23.9927   -9.8886  -15.8902 N   0  0  0  0  0  0  0  0  0  0  0  0
   23.0264   -7.7512  -15.3901 C   0  0  0  0  0  0  0  0  0  0  0  0
   23.0056   -7.9697  -14.1311 O   0  0  0  0  0  0  0  0  0  0  0  0
   23.0337   -6.4145  -15.8266 N   0  0  0  0  0  0  0  0  0  0  0  0
   23.1041   -5.3085  -14.8956 C   0  0  0  0  0  0  0  0  0  0  0  0
   21.7558   -4.7991  -14.6301 C   0  0  0  0  0  0  0  0  0  0  0  0
   20.7636   -5.3108  -15.1798 O   0  0  0  0  0  0  0  0  0  0  0  0
   21.5385   -3.7366  -13.7633 O   0  0  0  0  0  0  0  0  0  0  0  0
  1  5  1  0
  2  1  1  0
  2  3  1  0
  3  4  1  0
  5  4  1  0
  5  6  1  6
  6  7  2  0
  8  9  1  0
 10  9  1  1
 11 10  1  0
 11  6  1  0
 12 10  1  0
 12 14  1  0
 13 12  2  0
 15 14  1  0
 15 16  1  0
 16 18  1  0
 17 16  2  0
M  END
$$$$
