PSG.pdb
     RDKit          3D

 18 18  0  0  1  0  0  0  0  0999 V2000
   17.3196  -10.8490  -15.0028 N   0  0  0  0  0  0  0  0  0  0  0  0
   16.0323  -11.0333  -15.6768 C   0  0  0  0  0  0  0  0  0  0  0  0
   15.4654   -9.6513  -15.8697 C   0  0  0  0  0  0  0  0  0  0  0  0
   16.6169   -8.7218  -15.5103 C   0  0  0  0  0  0  0  0  0  0  0  0
   17.8168   -9.6195  -15.6369 C   0  0  1  0  0  0  0  0  0  0  0  0
   18.9754   -9.1348  -14.8587 C   0  0  0  0  0  0  0  0  0  0  0  0
   19.0546   -9.1625  -13.6095 O   0  0  0  0  0  0  0  0  0  0  0  0
   22.8010   -8.6351  -16.6517 O   0  0  0  0  0  0  0  0  0  0  0  0
   22.5549   -8.7756  -15.2936 C   0  0  0  0  0  0  0  0  0  0  0  0
   21.2755   -8.1322  -14.8591 C   0  0  2  0  0  0  0  0  0  0  0  0
   20.1036   -8.5904  -15.5212 N   0  0  0  0  0  0  0  0  0  0  0  0
   21.4032   -6.6663  -14.9203 C   0  0  0  0  0  0  0  0  0  0  0  0
   20.9920   -6.0699  -15.9732 O   0  0  0  0  0  0  0  0  0  0  0  0
   21.9507   -5.8813  -13.8901 N   0  0  0  0  0  0  0  0  0  0  0  0
   22.0836   -4.4454  -14.0137 C   0  0  0  0  0  0  0  0  0  0  0  0
   20.8376   -3.7957  -13.5975 C   0  0  0  0  0  0  0  0  0  0  0  0
   19.8935   -4.4657  -13.1411 O   0  0  0  0  0  0  0  0  0  0  0  0
   20.6667   -2.4216  -13.6965 O   0  0  0  0  0  0  0  0  0  0  0  0
  1  5  1  0
  2  1  1  0
  2  3  1  0
  3  4  1  0
  5  4  1  0
  5  6  1  1
  6  7  2  0
  8  9  1  0
 10  9  1  6
 11 10  1  0
 11  6  1  0
 12 10  1  0
 12 14  1  0
 13 12  2  0
 15 14  1  0
 15 16  1  0
 16 18  1  0
 17 16  2  0
M  END
$$$$
