PSG.pdb
     RDKit          3D

 18 18  0  0  1  0  0  0  0  0999 V2000
   18.8199  -10.1450  -14.6721 N   0  0  0  0  0  0  0  0  0  0  0  0
   18.5282  -11.1995  -15.6459 C   0  0  0  0  0  0  0  0  0  0  0  0
   18.1281  -10.4918  -16.9138 C   0  0  0  0  0  0  0  0  0  0  0  0
   18.4723   -9.0318  -16.6511 C   0  0  0  0  0  0  0  0  0  0  0  0
   19.4558   -9.1240  -15.5171 C   0  0  1  0  0  0  0  0  0  0  0  0
   19.5466   -7.8715  -14.7386 C   0  0  0  0  0  0  0  0  0  0  0  0
   18.7074   -7.5018  -13.8863 O   0  0  0  0  0  0  0  0  0  0  0  0
   22.1914   -4.0679  -13.3034 O   0  0  0  0  0  0  0  0  0  0  0  0
   22.1421   -5.3021  -13.9352 C   0  0  0  0  0  0  0  0  0  0  0  0
   20.7535   -5.7134  -14.3126 C   0  0  2  0  0  0  0  0  0  0  0  0
   20.6390   -6.9893  -14.9297 N   0  0  0  0  0  0  0  0  0  0  0  0
   20.1161   -4.6559  -15.1153 C   0  0  0  0  0  0  0  0  0  0  0  0
   20.4051   -4.5873  -16.3584 O   0  0  0  0  0  0  0  0  0  0  0  0
   19.2078   -3.7157  -14.5974 N   0  0  0  0  0  0  0  0  0  0  0  0
   18.6649   -2.6503  -15.4129 C   0  0  0  0  0  0  0  0  0  0  0  0
   17.7696   -1.8167  -14.6056 C   0  0  0  0  0  0  0  0  0  0  0  0
   17.5067   -2.1223  -13.4283 O   0  0  0  0  0  0  0  0  0  0  0  0
   17.1876   -0.6663  -15.1204 O   0  0  0  0  0  0  0  0  0  0  0  0
  1  5  1  0
  2  1  1  0
  2  3  1  0
  3  4  1  0
  5  4  1  0
  5  6  1  1
  6  7  2  0
  8  9  1  0
 10  9  1  6
 11 10  1  0
 11  6  1  0
 12 10  1  0
 12 14  1  0
 13 12  2  0
 15 14  1  0
 15 16  1  0
 16 18  1  0
 17 16  2  0
M  END
$$$$
