PSG.pdb
     RDKit          3D

 18 18  0  0  1  0  0  0  0  0999 V2000
   26.5040  -10.0935  -15.9448 N   0  0  0  0  0  0  0  0  0  0  0  0
   27.5749  -11.0897  -15.8665 C   0  0  0  0  0  0  0  0  0  0  0  0
   26.9889  -12.3691  -16.4036 C   0  0  0  0  0  0  0  0  0  0  0  0
   25.6574  -11.9449  -17.0087 C   0  0  0  0  0  0  0  0  0  0  0  0
   25.8403  -10.4648  -17.2028 C   0  0  1  0  0  0  0  0  0  0  0  0
   24.5565   -9.7375  -17.2796 C   0  0  0  0  0  0  0  0  0  0  0  0
   23.7008   -9.8987  -18.1792 O   0  0  0  0  0  0  0  0  0  0  0  0
   22.5400   -8.2524  -13.9516 O   0  0  0  0  0  0  0  0  0  0  0  0
   22.0262   -8.3641  -15.2355 C   0  0  0  0  0  0  0  0  0  0  0  0
   23.0200   -8.0137  -16.2982 C   0  0  2  0  0  0  0  0  0  0  0  0
   24.2184   -8.7788  -16.2923 N   0  0  0  0  0  0  0  0  0  0  0  0
   23.2922   -6.5666  -16.2753 C   0  0  0  0  0  0  0  0  0  0  0  0
   24.3877   -6.1685  -15.7512 O   0  0  0  0  0  0  0  0  0  0  0  0
   22.4194   -5.5943  -16.7954 N   0  0  0  0  0  0  0  0  0  0  0  0
   22.7595   -4.1875  -16.7984 C   0  0  0  0  0  0  0  0  0  0  0  0
   22.4364   -3.5978  -15.4962 C   0  0  0  0  0  0  0  0  0  0  0  0
   22.5346   -2.3710  -15.3124 O   0  0  0  0  0  0  0  0  0  0  0  0
   22.0129   -4.3795  -14.4299 O   0  0  0  0  0  0  0  0  0  0  0  0
  1  5  1  0
  2  1  1  0
  2  3  1  0
  3  4  1  0
  5  4  1  0
  5  6  1  1
  6  7  2  0
  8  9  1  0
 10  9  1  1
 11 10  1  0
 11  6  1  0
 12 10  1  0
 12 14  1  0
 13 12  2  0
 15 14  1  0
 15 16  1  0
 16 18  1  0
 17 16  2  0
M  END
$$$$
