PSG.pdb
     RDKit          3D

 18 18  0  0  1  0  0  0  0  0999 V2000
   23.0673  -11.5962  -17.1286 N   0  0  0  0  0  0  0  0  0  0  0  0
   23.3508  -12.9571  -17.5903 C   0  0  0  0  0  0  0  0  0  0  0  0
   22.8474  -13.0255  -19.0082 C   0  0  0  0  0  0  0  0  0  0  0  0
   22.5285  -11.5788  -19.3615 C   0  0  0  0  0  0  0  0  0  0  0  0
   23.3225  -10.8082  -18.3430 C   0  0  1  0  0  0  0  0  0  0  0  0
   22.7991   -9.4437  -18.1265 C   0  0  0  0  0  0  0  0  0  0  0  0
   22.9353   -8.4940  -18.9308 O   0  0  0  0  0  0  0  0  0  0  0  0
   19.3214   -6.7449  -16.4405 O   0  0  0  0  0  0  0  0  0  0  0  0
   19.9249   -7.9810  -16.6209 C   0  0  0  0  0  0  0  0  0  0  0  0
   21.4163   -7.8982  -16.7140 C   0  0  2  0  0  0  0  0  0  0  0  0
   22.0851   -9.1319  -16.9427 N   0  0  0  0  0  0  0  0  0  0  0  0
   21.9553   -7.1907  -15.5403 C   0  0  0  0  0  0  0  0  0  0  0  0
   22.1763   -7.8673  -14.4788 O   0  0  0  0  0  0  0  0  0  0  0  0
   22.2421   -5.8142  -15.5156 N   0  0  0  0  0  0  0  0  0  0  0  0
   22.8689   -5.1861  -14.3721 C   0  0  0  0  0  0  0  0  0  0  0  0
   21.8431   -4.5934  -13.5094 C   0  0  0  0  0  0  0  0  0  0  0  0
   20.6389   -4.6600  -13.8162 O   0  0  0  0  0  0  0  0  0  0  0  0
   22.1745   -3.9420  -12.3291 O   0  0  0  0  0  0  0  0  0  0  0  0
  1  5  1  0
  2  1  1  0
  2  3  1  0
  3  4  1  0
  5  4  1  0
  5  6  1  1
  6  7  2  0
  8  9  1  0
 10  9  1  1
 11 10  1  0
 11  6  1  0
 12 10  1  0
 12 14  1  0
 13 12  2  0
 15 14  1  0
 15 16  1  0
 16 18  1  0
 17 16  2  0
M  END
$$$$
