PSG.pdb
     RDKit          3D

 18 18  0  0  1  0  0  0  0  0999 V2000
   21.2541  -10.9347  -18.6923 N   0  0  0  0  0  0  0  0  0  0  0  0
   20.6923  -11.9245  -19.6144 C   0  0  0  0  0  0  0  0  0  0  0  0
   19.5027  -12.5192  -18.9075 C   0  0  0  0  0  0  0  0  0  0  0  0
   19.3043  -11.6234  -17.6920 C   0  0  0  0  0  0  0  0  0  0  0  0
   20.0414  -10.3716  -18.0814 C   0  0  1  0  0  0  0  0  0  0  0  0
   20.4459   -9.5623  -16.9135 C   0  0  0  0  0  0  0  0  0  0  0  0
   19.6529   -9.0833  -16.0714 O   0  0  0  0  0  0  0  0  0  0  0  0
   23.5709  -10.1654  -14.3953 O   0  0  0  0  0  0  0  0  0  0  0  0
   23.6192   -8.9338  -15.0322 C   0  0  0  0  0  0  0  0  0  0  0  0
   22.2964   -8.5075  -15.5873 C   0  0  2  0  0  0  0  0  0  0  0  0
   21.8145   -9.2772  -16.6814 N   0  0  0  0  0  0  0  0  0  0  0  0
   22.3209   -7.0680  -15.8971 C   0  0  0  0  0  0  0  0  0  0  0  0
   22.5879   -6.7149  -17.0960 O   0  0  0  0  0  0  0  0  0  0  0  0
   22.0682   -6.0565  -14.9534 N   0  0  0  0  0  0  0  0  0  0  0  0
   22.0555   -4.6566  -15.3207 C   0  0  0  0  0  0  0  0  0  0  0  0
   20.9064   -3.9926  -14.6990 C   0  0  0  0  0  0  0  0  0  0  0  0
   20.0898   -4.6402  -14.0191 O   0  0  0  0  0  0  0  0  0  0  0  0
   20.6892   -2.6292  -14.8447 O   0  0  0  0  0  0  0  0  0  0  0  0
  1  5  1  0
  2  1  1  0
  2  3  1  0
  3  4  1  0
  5  4  1  0
  5  6  1  1
  6  7  2  0
  8  9  1  0
 10  9  1  6
 11 10  1  0
 11  6  1  0
 12 10  1  0
 12 14  1  0
 13 12  2  0
 15 14  1  0
 15 16  1  0
 16 18  1  0
 17 16  2  0
M  END
$$$$
