PSG.pdb
     RDKit          3D

 18 18  0  0  1  0  0  0  0  0999 V2000
   24.1547  -11.7482  -15.5845 N   0  0  0  0  0  0  0  0  0  0  0  0
   24.8941  -12.9759  -15.8868 C   0  0  0  0  0  0  0  0  0  0  0  0
   24.3860  -13.4452  -17.2247 C   0  0  0  0  0  0  0  0  0  0  0  0
   23.5449  -12.2822  -17.7337 C   0  0  0  0  0  0  0  0  0  0  0  0
   24.0485  -11.1272  -16.9126 C   0  0  1  0  0  0  0  0  0  0  0  0
   23.0734  -10.0205  -16.8282 C   0  0  0  0  0  0  0  0  0  0  0  0
   22.7175   -9.3111  -17.7964 O   0  0  0  0  0  0  0  0  0  0  0  0
   20.3423   -9.6491  -13.5241 O   0  0  0  0  0  0  0  0  0  0  0  0
   20.1854   -9.1608  -14.8132 C   0  0  0  0  0  0  0  0  0  0  0  0
   21.4695   -8.6957  -15.4253 C   0  0  2  0  0  0  0  0  0  0  0  0
   22.4672   -9.6954  -15.5892 N   0  0  0  0  0  0  0  0  0  0  0  0
   21.9806   -7.5244  -14.6934 C   0  0  0  0  0  0  0  0  0  0  0  0
   22.9730   -7.6928  -13.9060 O   0  0  0  0  0  0  0  0  0  0  0  0
   21.4430   -6.2301  -14.8080 N   0  0  0  0  0  0  0  0  0  0  0  0
   21.9437   -5.1238  -14.0204 C   0  0  0  0  0  0  0  0  0  0  0  0
   21.2128   -3.9009  -14.3645 C   0  0  0  0  0  0  0  0  0  0  0  0
   20.3712   -3.9006  -15.2812 O   0  0  0  0  0  0  0  0  0  0  0  0
   21.4307   -2.7093  -13.6864 O   0  0  0  0  0  0  0  0  0  0  0  0
  1  5  1  0
  2  1  1  0
  2  3  1  0
  3  4  1  0
  5  4  1  0
  5  6  1  1
  6  7  2  0
  8  9  1  0
 10  9  1  1
 11 10  1  0
 11  6  1  0
 12 10  1  0
 12 14  1  0
 13 12  2  0
 15 14  1  0
 15 16  1  0
 16 18  1  0
 17 16  2  0
M  END
$$$$
