PSG.pdb
     RDKit          3D

 18 18  0  0  1  0  0  0  0  0999 V2000
   30.3803  -20.8786   -9.8820 N   0  0  0  0  0  0  0  0  0  0  0  0
   31.8243  -21.0962   -9.7693 C   0  0  0  0  0  0  0  0  0  0  0  0
   32.0940  -22.4257  -10.4237 C   0  0  0  0  0  0  0  0  0  0  0  0
   30.7823  -22.7750  -11.1142 C   0  0  0  0  0  0  0  0  0  0  0  0
   30.0949  -21.4408  -11.2099 C   0  0  1  0  0  0  0  0  0  0  0  0
   28.6296  -21.5641  -11.3539 C   0  0  0  0  0  0  0  0  0  0  0  0
   28.0542  -22.1189  -12.3175 O   0  0  0  0  0  0  0  0  0  0  0  0
   25.7941  -19.6138   -8.6391 O   0  0  0  0  0  0  0  0  0  0  0  0
   25.6779  -20.9337   -9.0505 C   0  0  0  0  0  0  0  0  0  0  0  0
   26.3554  -21.2031  -10.3575 C   0  0  2  0  0  0  0  0  0  0  0  0
   27.7673  -21.0352  -10.3616 N   0  0  0  0  0  0  0  0  0  0  0  0
   25.7071  -20.4288  -11.4294 C   0  0  0  0  0  0  0  0  0  0  0  0
   26.2074  -19.2943  -11.7391 O   0  0  0  0  0  0  0  0  0  0  0  0
   24.5699  -20.8616  -12.1341 N   0  0  0  0  0  0  0  0  0  0  0  0
   23.9888  -20.0752  -13.2013 C   0  0  0  0  0  0  0  0  0  0  0  0
   22.5345  -20.2565  -13.2137 C   0  0  0  0  0  0  0  0  0  0  0  0
   21.9843  -21.0340  -12.4129 O   0  0  0  0  0  0  0  0  0  0  0  0
   21.7251  -19.5735  -14.1114 O   0  0  0  0  0  0  0  0  0  0  0  0
  1  5  1  0
  2  1  1  0
  2  3  1  0
  3  4  1  0
  5  4  1  0
  5  6  1  1
  6  7  2  0
  8  9  1  0
 10  9  1  1
 11 10  1  0
 11  6  1  0
 12 10  1  0
 12 14  1  0
 13 12  2  0
 15 14  1  0
 15 16  1  0
 16 18  1  0
 17 16  2  0
M  END
$$$$
