PSG.pdb
     RDKit          3D

 18 18  0  0  1  0  0  0  0  0999 V2000
   27.7016  -20.3717  -15.7424 N   0  0  0  0  0  0  0  0  0  0  0  0
   28.4098  -19.2683  -16.3952 C   0  0  0  0  0  0  0  0  0  0  0  0
   27.9808  -18.0178  -15.6735 C   0  0  0  0  0  0  0  0  0  0  0  0
   27.2271  -18.5305  -14.4536 C   0  0  0  0  0  0  0  0  0  0  0  0
   27.7171  -19.9474  -14.3351 C   0  0  1  0  0  0  0  0  0  0  0  0
   26.7847  -20.8113  -13.5820 C   0  0  0  0  0  0  0  0  0  0  0  0
   26.1485  -21.7703  -14.0750 O   0  0  0  0  0  0  0  0  0  0  0  0
   25.6276  -19.7791   -9.4967 O   0  0  0  0  0  0  0  0  0  0  0  0
   25.6176  -21.0819   -9.9738 C   0  0  0  0  0  0  0  0  0  0  0  0
   25.4880  -21.1610  -11.4626 C   0  0  2  0  0  0  0  0  0  0  0  0
   26.5566  -20.5839  -12.2020 N   0  0  0  0  0  0  0  0  0  0  0  0
   24.1800  -20.6304  -11.8828 C   0  0  0  0  0  0  0  0  0  0  0  0
   24.1446  -19.4696  -12.4162 O   0  0  0  0  0  0  0  0  0  0  0  0
   22.9657  -21.3236  -11.7328 N   0  0  0  0  0  0  0  0  0  0  0  0
   21.6950  -20.7176  -12.0687 C   0  0  0  0  0  0  0  0  0  0  0  0
   21.2953  -21.1230  -13.4192 C   0  0  0  0  0  0  0  0  0  0  0  0
   22.1373  -21.5515  -14.2292 O   0  0  0  0  0  0  0  0  0  0  0  0
   19.9747  -21.0444  -13.8402 O   0  0  0  0  0  0  0  0  0  0  0  0
  1  5  1  0
  2  1  1  0
  2  3  1  0
  3  4  1  0
  5  4  1  0
  5  6  1  1
  6  7  2  0
  8  9  1  0
 10  9  1  1
 11 10  1  0
 11  6  1  0
 12 10  1  0
 12 14  1  0
 13 12  2  0
 15 14  1  0
 15 16  1  0
 16 18  1  0
 17 16  2  0
M  END
$$$$
