PSG.pdb
     RDKit          3D

 18 18  0  0  1  0  0  0  0  0999 V2000
   28.0924  -20.0503  -16.2971 N   0  0  0  0  0  0  0  0  0  0  0  0
   28.8120  -19.8885  -17.5625 C   0  0  0  0  0  0  0  0  0  0  0  0
   28.3788  -18.5567  -18.1167 C   0  0  0  0  0  0  0  0  0  0  0  0
   27.6090  -17.9089  -16.9734 C   0  0  0  0  0  0  0  0  0  0  0  0
   28.0928  -18.6765  -15.7740 C   0  0  1  0  0  0  0  0  0  0  0  0
   27.1487  -18.6143  -14.6393 C   0  0  0  0  0  0  0  0  0  0  0  0
   26.8231  -17.5631  -14.0422 O   0  0  0  0  0  0  0  0  0  0  0  0
   23.2284  -20.3768  -12.6387 O   0  0  0  0  0  0  0  0  0  0  0  0
   24.2177  -20.4382  -13.6094 C   0  0  0  0  0  0  0  0  0  0  0  0
   25.5085  -19.8197  -13.1722 C   0  0  2  0  0  0  0  0  0  0  0  0
   26.5393  -19.7969  -14.1513 N   0  0  0  0  0  0  0  0  0  0  0  0
   25.9604  -20.4354  -11.9130 C   0  0  0  0  0  0  0  0  0  0  0  0
   26.5610  -21.5617  -11.9755 O   0  0  0  0  0  0  0  0  0  0  0  0
   25.7715  -19.8592  -10.6443 N   0  0  0  0  0  0  0  0  0  0  0  0
   26.2335  -20.5076   -9.4356 C   0  0  0  0  0  0  0  0  0  0  0  0
   25.0905  -21.0579   -8.7017 C   0  0  0  0  0  0  0  0  0  0  0  0
   23.9473  -21.0299   -9.1925 O   0  0  0  0  0  0  0  0  0  0  0  0
   25.2403  -21.6252   -7.4435 O   0  0  0  0  0  0  0  0  0  0  0  0
  1  5  1  0
  2  1  1  0
  2  3  1  0
  3  4  1  0
  5  4  1  0
  5  6  1  1
  6  7  2  0
  8  9  1  0
 10  9  1  6
 11 10  1  0
 11  6  1  0
 12 10  1  0
 12 14  1  0
 13 12  2  0
 15 14  1  0
 15 16  1  0
 16 18  1  0
 17 16  2  0
M  END
$$$$
