PSG.pdb
     RDKit          3D

 18 18  0  0  1  0  0  0  0  0999 V2000
   20.4740  -11.6026  -17.5943 N   0  0  0  0  0  0  0  0  0  0  0  0
   19.6922  -12.4343  -18.5122 C   0  0  0  0  0  0  0  0  0  0  0  0
   19.0385  -13.4892  -17.6588 C   0  0  0  0  0  0  0  0  0  0  0  0
   19.2937  -13.0254  -16.2308 C   0  0  0  0  0  0  0  0  0  0  0  0
   19.6047  -11.5649  -16.4095 C   0  0  1  0  0  0  0  0  0  0  0  0
   20.3822  -11.0064  -15.2841 C   0  0  0  0  0  0  0  0  0  0  0  0
   19.9462  -10.8669  -14.1188 O   0  0  0  0  0  0  0  0  0  0  0  0
   24.6197  -10.6382  -15.6360 O   0  0  0  0  0  0  0  0  0  0  0  0
   23.9458  -10.7943  -14.4334 C   0  0  0  0  0  0  0  0  0  0  0  0
   22.5882  -10.1646  -14.4351 C   0  0  2  0  0  0  0  0  0  0  0  0
   21.7202  -10.5830  -15.4807 N   0  0  0  0  0  0  0  0  0  0  0  0
   22.7134   -8.6983  -14.3789 C   0  0  0  0  0  0  0  0  0  0  0  0
   23.4492   -8.1918  -13.4649 O   0  0  0  0  0  0  0  0  0  0  0  0
   22.0723   -7.8200  -15.2704 N   0  0  0  0  0  0  0  0  0  0  0  0
   22.3243   -6.3949  -15.2507 C   0  0  0  0  0  0  0  0  0  0  0  0
   21.4511   -5.7518  -14.2647 C   0  0  0  0  0  0  0  0  0  0  0  0
   21.5022   -4.5228  -14.0767 O   0  0  0  0  0  0  0  0  0  0  0  0
   20.5435   -6.4840  -13.5115 O   0  0  0  0  0  0  0  0  0  0  0  0
  1  5  1  0
  2  1  1  0
  2  3  1  0
  3  4  1  0
  5  4  1  0
  5  6  1  1
  6  7  2  0
  8  9  1  0
 10  9  1  6
 11 10  1  0
 11  6  1  0
 12 10  1  0
 12 14  1  0
 13 12  2  0
 15 14  1  0
 15 16  1  0
 16 18  1  0
 17 16  2  0
M  END
$$$$
