PSG.pdb
     RDKit          3D

 18 18  0  0  1  0  0  0  0  0999 V2000
   23.8052  -12.1824  -14.9525 N   0  0  0  0  0  0  0  0  0  0  0  0
   24.2725  -13.5683  -14.8738 C   0  0  0  0  0  0  0  0  0  0  0  0
   23.9636  -14.1850  -16.2128 C   0  0  0  0  0  0  0  0  0  0  0  0
   23.5576  -13.0033  -17.0835 C   0  0  0  0  0  0  0  0  0  0  0  0
   24.1384  -11.8318  -16.3406 C   0  0  1  0  0  0  0  0  0  0  0  0
   23.4653  -10.5584  -16.6696 C   0  0  0  0  0  0  0  0  0  0  0  0
   23.5350   -9.9834  -17.7795 O   0  0  0  0  0  0  0  0  0  0  0  0
   19.8074   -7.7003  -16.4312 O   0  0  0  0  0  0  0  0  0  0  0  0
   20.4581   -8.8711  -16.0698 C   0  0  0  0  0  0  0  0  0  0  0  0
   21.9398   -8.7038  -15.9420 C   0  0  2  0  0  0  0  0  0  0  0  0
   22.6723   -9.8979  -15.6984 N   0  0  0  0  0  0  0  0  0  0  0  0
   22.2446   -7.6602  -14.9487 C   0  0  0  0  0  0  0  0  0  0  0  0
   22.2411   -7.9862  -13.7130 O   0  0  0  0  0  0  0  0  0  0  0  0
   22.5398   -6.3251  -15.2768 N   0  0  0  0  0  0  0  0  0  0  0  0
   22.8566   -5.3425  -14.2623 C   0  0  0  0  0  0  0  0  0  0  0  0
   21.7287   -4.4214  -14.0966 C   0  0  0  0  0  0  0  0  0  0  0  0
   20.6804   -4.5770  -14.7487 O   0  0  0  0  0  0  0  0  0  0  0  0
   21.7883   -3.3516  -13.2138 O   0  0  0  0  0  0  0  0  0  0  0  0
  1  5  1  0
  2  1  1  0
  2  3  1  0
  3  4  1  0
  5  4  1  0
  5  6  1  6
  6  7  2  0
  8  9  1  0
 10  9  1  1
 11 10  1  0
 11  6  1  0
 12 10  1  0
 12 14  1  0
 13 12  2  0
 15 14  1  0
 15 16  1  0
 16 18  1  0
 17 16  2  0
M  END
$$$$
