PSG.pdb
     RDKit          3D

 18 18  0  0  1  0  0  0  0  0999 V2000
   28.1002  -34.4482   -4.8897 N   0  0  0  0  0  0  0  0  0  0  0  0
   27.3370  -34.4680   -6.1397 C   0  0  0  0  0  0  0  0  0  0  0  0
   28.2922  -34.9510   -7.1993 C   0  0  0  0  0  0  0  0  0  0  0  0
   29.5062  -35.4328   -6.4161 C   0  0  0  0  0  0  0  0  0  0  0  0
   28.9464  -35.6412   -5.0359 C   0  0  1  0  0  0  0  0  0  0  0  0
   29.9865  -35.6008   -3.9874 C   0  0  0  0  0  0  0  0  0  0  0  0
   30.9624  -36.3825   -3.9236 O   0  0  0  0  0  0  0  0  0  0  0  0
   29.4621  -33.0379   -0.6275 O   0  0  0  0  0  0  0  0  0  0  0  0
   30.7571  -33.3019   -1.0495 C   0  0  0  0  0  0  0  0  0  0  0  0
   30.8605  -34.5355   -1.8906 C   0  0  2  0  0  0  0  0  0  0  0  0
   29.9249  -34.6299   -2.9571 N   0  0  0  0  0  0  0  0  0  0  0  0
   30.8386  -35.7326   -1.0331 C   0  0  0  0  0  0  0  0  0  0  0  0
   29.8700  -36.5547   -1.1721 O   0  0  0  0  0  0  0  0  0  0  0  0
   31.8192  -36.0271   -0.0693 N   0  0  0  0  0  0  0  0  0  0  0  0
   31.6976  -37.1622    0.8205 C   0  0  0  0  0  0  0  0  0  0  0  0
   32.9064  -37.2793    1.6409 C   0  0  0  0  0  0  0  0  0  0  0  0
   33.8508  -36.4817    1.4981 O   0  0  0  0  0  0  0  0  0  0  0  0
   33.0405  -38.2755    2.5984 O   0  0  0  0  0  0  0  0  0  0  0  0
  1  5  1  0
  2  1  1  0
  2  3  1  0
  3  4  1  0
  5  4  1  0
  5  6  1  1
  6  7  2  0
  8  9  1  0
 10  9  1  1
 11 10  1  0
 11  6  1  0
 12 10  1  0
 12 14  1  0
 13 12  2  0
 15 14  1  0
 15 16  1  0
 16 18  1  0
 17 16  2  0
M  END
$$$$
