PSG.pdb
     RDKit          3D

 18 18  0  0  1  0  0  0  0  0999 V2000
   24.6330  -11.8719  -15.5911 N   0  0  0  0  0  0  0  0  0  0  0  0
   25.5997  -12.9528  -15.7977 C   0  0  0  0  0  0  0  0  0  0  0  0
   26.4842  -12.5047  -16.9315 C   0  0  0  0  0  0  0  0  0  0  0  0
   26.1143  -11.0419  -17.1381 C   0  0  0  0  0  0  0  0  0  0  0  0
   25.4590  -10.6803  -15.8336 C   0  0  1  0  0  0  0  0  0  0  0  0
   24.5615   -9.5126  -15.9516 C   0  0  0  0  0  0  0  0  0  0  0  0
   24.9449   -8.3398  -16.1635 O   0  0  0  0  0  0  0  0  0  0  0  0
   20.2441   -9.8477  -15.3670 O   0  0  0  0  0  0  0  0  0  0  0  0
   20.8250   -9.0799  -16.3659 C   0  0  0  0  0  0  0  0  0  0  0  0
   22.2132   -8.6325  -16.0302 C   0  0  2  0  0  0  0  0  0  0  0  0
   23.1593   -9.6736  -15.8243 N   0  0  0  0  0  0  0  0  0  0  0  0
   22.1784   -7.6903  -14.8989 C   0  0  0  0  0  0  0  0  0  0  0  0
   22.3009   -8.1632  -13.7179 O   0  0  0  0  0  0  0  0  0  0  0  0
   22.0185   -6.3002  -15.0384 N   0  0  0  0  0  0  0  0  0  0  0  0
   21.9446   -5.4219  -13.8903 C   0  0  0  0  0  0  0  0  0  0  0  0
   21.9156   -4.0261  -14.3364 C   0  0  0  0  0  0  0  0  0  0  0  0
   21.8851   -3.0958  -13.5106 O   0  0  0  0  0  0  0  0  0  0  0  0
   21.9212   -3.6943  -15.6844 O   0  0  0  0  0  0  0  0  0  0  0  0
  1  5  1  0
  2  1  1  0
  2  3  1  0
  3  4  1  0
  5  4  1  0
  5  6  1  6
  6  7  2  0
  8  9  1  0
 10  9  1  1
 11 10  1  0
 11  6  1  0
 12 10  1  0
 12 14  1  0
 13 12  2  0
 15 14  1  0
 15 16  1  0
 16 18  1  0
 17 16  2  0
M  END
$$$$
