PSG.pdb
     RDKit          3D

 18 18  0  0  1  0  0  0  0  0999 V2000
   19.1684  -11.5451  -17.2718 N   0  0  0  0  0  0  0  0  0  0  0  0
   18.1188  -12.4611  -17.7244 C   0  0  0  0  0  0  0  0  0  0  0  0
   17.4946  -13.0240  -16.4746 C   0  0  0  0  0  0  0  0  0  0  0  0
   18.0761  -12.1752  -15.3518 C   0  0  0  0  0  0  0  0  0  0  0  0
   18.5511  -10.9475  -16.0791 C   0  0  1  0  0  0  0  0  0  0  0  0
   19.5969  -10.2144  -15.3362 C   0  0  0  0  0  0  0  0  0  0  0  0
   19.4489   -9.7314  -14.1906 O   0  0  0  0  0  0  0  0  0  0  0  0
   23.6683  -10.9818  -15.0764 O   0  0  0  0  0  0  0  0  0  0  0  0
   23.3180   -9.7676  -15.6491 C   0  0  0  0  0  0  0  0  0  0  0  0
   21.9398   -9.3186  -15.2765 C   0  0  2  0  0  0  0  0  0  0  0  0
   20.8758  -10.0146  -15.9129 N   0  0  0  0  0  0  0  0  0  0  0  0
   21.8222   -7.8605  -15.4474 C   0  0  0  0  0  0  0  0  0  0  0  0
   21.5110   -7.4134  -16.6035 O   0  0  0  0  0  0  0  0  0  0  0  0
   22.0315   -6.9288  -14.4152 N   0  0  0  0  0  0  0  0  0  0  0  0
   21.8354   -5.5091  -14.6179 C   0  0  0  0  0  0  0  0  0  0  0  0
   22.0223   -4.7981  -13.3500 C   0  0  0  0  0  0  0  0  0  0  0  0
   21.9482   -3.5569  -13.3008 O   0  0  0  0  0  0  0  0  0  0  0  0
   22.2864   -5.4774  -12.1684 O   0  0  0  0  0  0  0  0  0  0  0  0
  1  5  1  0
  2  1  1  0
  2  3  1  0
  3  4  1  0
  5  4  1  0
  5  6  1  1
  6  7  2  0
  8  9  1  0
 10  9  1  6
 11 10  1  0
 11  6  1  0
 12 10  1  0
 12 14  1  0
 13 12  2  0
 15 14  1  0
 15 16  1  0
 16 18  1  0
 17 16  2  0
M  END
$$$$
