PIR.pdb
     RDKit          3D

 27 27  0  0  1  0  0  0  0  0999 V2000
    6.6534  -14.3275   20.7522 N   0  0  0  0  0  0  0  0  0  0  0  0
    5.9064  -13.4368   19.9176 C   0  0  0  0  0  0  0  0  0  0  0  0
    6.9128  -12.6410   19.1345 C   0  0  0  0  0  0  0  0  0  0  0  0
    8.0682  -12.5387   20.1245 C   0  0  0  0  0  0  0  0  0  0  0  0
    8.0239  -13.9213   20.7370 C   0  0  1  0  0  0  0  0  0  0  0  0
    8.6531  -13.9353   22.0883 C   0  0  0  0  0  0  0  0  0  0  0  0
    9.8832  -13.8289   22.2700 O   0  0  0  0  0  0  0  0  0  0  0  0
    5.8435  -11.5378   26.0730 C   0  0  0  0  0  0  0  0  0  0  0  0
    6.9372  -12.0970   25.2111 C   0  0  0  0  0  0  0  0  0  0  0  0
    7.2427  -13.5432   25.5341 C   0  0  2  0  0  0  0  0  0  0  0  0
    7.7722  -13.5495   26.9714 C   0  0  0  0  0  0  0  0  0  0  0  0
    8.2850  -14.0827   24.5826 C   0  0  2  0  0  0  0  0  0  0  0  0
    7.8193  -14.0765   23.2321 N   0  0  0  0  0  0  0  0  0  0  0  0
    8.6824  -15.4687   24.9248 C   0  0  0  0  0  0  0  0  0  0  0  0
    7.7824  -16.3375   25.0317 O   0  0  0  0  0  0  0  0  0  0  0  0
   15.1124  -21.1019   22.3449 N   0  0  0  0  0  0  0  0  0  0  0  0
   14.3255  -21.7261   23.3574 C   0  0  0  0  0  0  0  0  0  0  0  0
   14.5547  -22.9492   23.6518 N   0  0  0  0  0  0  0  0  0  0  0  0
   13.3045  -21.0293   24.0398 N   0  0  0  0  0  0  0  0  0  0  0  0
   12.9193  -19.6515   23.6862 C   0  0  0  0  0  0  0  0  0  0  0  0
   12.0015  -19.1011   24.7200 C   0  0  0  0  0  0  0  0  0  0  0  0
   11.4989  -17.7282   24.5190 C   0  0  0  0  0  0  0  0  0  0  0  0
   10.3427  -17.2776   25.3362 C   0  0  2  0  0  0  0  0  0  0  0  0
   10.0237  -15.8749   25.1397 N   0  0  0  0  0  0  0  0  0  0  0  0
   10.4143  -17.6148   26.7754 C   0  0  0  0  0  0  0  0  0  0  0  0
   10.2528  -18.9393   27.2014 O   0  0  0  0  0  0  0  0  0  0  0  0
   10.6185  -16.7583   27.6713 O   0  0  0  0  0  0  0  0  0  0  0  0
  1  5  1  0
  2  3  1  0
  2  1  1  0
  3  4  1  0
  5  4  1  0
  5  6  1  1
  6 13  1  0
  6  7  2  0
  9 10  1  0
  9  8  1  0
 10 12  1  0
 10 11  1  1
 12 14  1  0
 12 13  1  6
 14 15  2  0
 14 24  1  0
 16 17  1  0
 17 19  1  0
 18 17  2  0
 19 20  1  0
 21 20  1  0
 22 21  1  0
 23 25  1  0
 23 22  1  1
 24 23  1  0
 25 26  1  0
 27 25  2  0
M  END
$$$$
