PIR.pdb
     RDKit          3D

 27 27  0  0  1  0  0  0  0  0999 V2000
    6.9559  -14.2050   20.7933 N   0  0  0  0  0  0  0  0  0  0  0  0
    6.3429  -13.2746   19.8952 C   0  0  0  0  0  0  0  0  0  0  0  0
    7.4623  -12.5667   19.1845 C   0  0  0  0  0  0  0  0  0  0  0  0
    8.5434  -12.5344   20.2596 C   0  0  0  0  0  0  0  0  0  0  0  0
    8.3500  -13.9007   20.8799 C   0  0  1  0  0  0  0  0  0  0  0  0
    8.8717  -13.9403   22.2757 C   0  0  0  0  0  0  0  0  0  0  0  0
   10.0840  -13.8409   22.5549 O   0  0  0  0  0  0  0  0  0  0  0  0
    5.9116  -11.3443   25.8634 C   0  0  0  0  0  0  0  0  0  0  0  0
    7.0467  -12.0091   25.1413 C   0  0  0  0  0  0  0  0  0  0  0  0
    7.2500  -13.4419   25.5829 C   0  0  2  0  0  0  0  0  0  0  0  0
    7.7031  -13.3706   27.0443 C   0  0  0  0  0  0  0  0  0  0  0  0
    8.3067  -14.1065   24.7318 C   0  0  2  0  0  0  0  0  0  0  0  0
    7.9509  -14.0989   23.3483 N   0  0  0  0  0  0  0  0  0  0  0  0
    8.5410  -15.5124   25.1378 C   0  0  0  0  0  0  0  0  0  0  0  0
    7.8251  -16.4077   24.6257 O   0  0  0  0  0  0  0  0  0  0  0  0
   13.7526  -21.3194   23.5864 N   0  0  0  0  0  0  0  0  0  0  0  0
   12.7702  -21.0640   22.5846 C   0  0  0  0  0  0  0  0  0  0  0  0
   12.4269  -22.0132   21.7996 N   0  0  0  0  0  0  0  0  0  0  0  0
   12.1699  -19.7942   22.4397 N   0  0  0  0  0  0  0  0  0  0  0  0
   12.5859  -18.6301   23.2418 C   0  0  0  0  0  0  0  0  0  0  0  0
   11.7645  -18.5484   24.4798 C   0  0  0  0  0  0  0  0  0  0  0  0
   10.9675  -17.3235   24.6854 C   0  0  0  0  0  0  0  0  0  0  0  0
   10.1876  -17.1968   25.9436 C   0  0  2  0  0  0  0  0  0  0  0  0
    9.5292  -15.9094   26.0737 N   0  0  0  0  0  0  0  0  0  0  0  0
   10.9179  -17.5531   27.1804 C   0  0  0  0  0  0  0  0  0  0  0  0
   11.3510  -18.8680   27.3933 O   0  0  0  0  0  0  0  0  0  0  0  0
   11.1843  -16.7216   28.0835 O   0  0  0  0  0  0  0  0  0  0  0  0
  1  5  1  0
  2  3  1  0
  2  1  1  0
  3  4  1  0
  5  4  1  0
  5  6  1  1
  6 13  1  0
  6  7  2  0
  9 10  1  0
  9  8  1  0
 10 12  1  0
 10 11  1  1
 12 14  1  0
 12 13  1  6
 14 15  2  0
 14 24  1  0
 16 17  1  0
 17 19  1  0
 18 17  2  0
 19 20  1  0
 21 20  1  0
 22 21  1  0
 23 25  1  0
 23 22  1  6
 24 23  1  0
 25 26  1  0
 27 25  2  0
M  END
$$$$
