PIR.pdb
     RDKit          3D

 27 27  0  0  1  0  0  0  0  0999 V2000
    6.7347  -14.7190   21.1207 N   0  0  0  0  0  0  0  0  0  0  0  0
    5.9911  -13.9197   20.1955 C   0  0  0  0  0  0  0  0  0  0  0  0
    6.9991  -13.1374   19.4010 C   0  0  0  0  0  0  0  0  0  0  0  0
    8.1046  -12.9190   20.4285 C   0  0  0  0  0  0  0  0  0  0  0  0
    8.0875  -14.2572   21.1340 C   0  0  1  0  0  0  0  0  0  0  0  0
    8.6562  -14.1521   22.5079 C   0  0  0  0  0  0  0  0  0  0  0  0
    9.8665  -13.9461   22.7322 O   0  0  0  0  0  0  0  0  0  0  0  0
    5.7333  -11.5935   26.2598 C   0  0  0  0  0  0  0  0  0  0  0  0
    6.8776  -12.1945   25.4974 C   0  0  0  0  0  0  0  0  0  0  0  0
    7.1229  -13.6399   25.8714 C   0  0  2  0  0  0  0  0  0  0  0  0
    7.5755  -13.6240   27.3346 C   0  0  0  0  0  0  0  0  0  0  0  0
    8.1975  -14.2329   24.9903 C   0  0  2  0  0  0  0  0  0  0  0  0
    7.7852  -14.2924   23.6238 N   0  0  0  0  0  0  0  0  0  0  0  0
    8.5704  -15.6021   25.4173 C   0  0  0  0  0  0  0  0  0  0  0  0
    7.7259  -16.5206   25.2775 O   0  0  0  0  0  0  0  0  0  0  0  0
   14.2223  -16.4321   21.8956 N   0  0  0  0  0  0  0  0  0  0  0  0
   14.9955  -16.5720   23.0858 C   0  0  0  0  0  0  0  0  0  0  0  0
   16.1019  -15.9383   23.1820 N   0  0  0  0  0  0  0  0  0  0  0  0
   14.5705  -17.3895   24.1559 N   0  0  0  0  0  0  0  0  0  0  0  0
   13.2512  -18.0459   24.1697 C   0  0  0  0  0  0  0  0  0  0  0  0
   12.3676  -17.3861   25.1687 C   0  0  0  0  0  0  0  0  0  0  0  0
   11.0407  -17.9881   25.4028 C   0  0  0  0  0  0  0  0  0  0  0  0
   10.1207  -17.3108   26.3527 C   0  0  2  0  0  0  0  0  0  0  0  0
    9.8288  -15.9391   25.9767 N   0  0  0  0  0  0  0  0  0  0  0  0
   10.5005  -17.4064   27.7798 C   0  0  0  0  0  0  0  0  0  0  0  0
   10.6577  -18.6580   28.3886 O   0  0  0  0  0  0  0  0  0  0  0  0
   10.6987  -16.4006   28.5058 O   0  0  0  0  0  0  0  0  0  0  0  0
  1  5  1  0
  2  3  1  0
  2  1  1  0
  3  4  1  0
  5  4  1  0
  5  6  1  1
  6 13  1  0
  6  7  2  0
  9 10  1  0
  9  8  1  0
 10 12  1  0
 10 11  1  1
 12 14  1  0
 12 13  1  6
 14 15  2  0
 14 24  1  0
 16 17  1  0
 17 19  1  0
 18 17  2  0
 19 20  1  0
 21 20  1  0
 22 21  1  0
 23 25  1  0
 23 22  1  6
 24 23  1  0
 25 26  1  0
 27 25  2  0
M  END
$$$$
