PIR.pdb
     RDKit          3D

 27 27  0  0  1  0  0  0  0  0999 V2000
    9.2744  -18.1573   16.9784 N   0  0  0  0  0  0  0  0  0  0  0  0
    9.2784  -19.5355   16.5931 C   0  0  0  0  0  0  0  0  0  0  0  0
    8.2207  -20.2126   17.4190 C   0  0  0  0  0  0  0  0  0  0  0  0
    8.2816  -19.4160   18.7179 C   0  0  0  0  0  0  0  0  0  0  0  0
    8.4984  -18.0220   18.1713 C   0  0  1  0  0  0  0  0  0  0  0  0
    9.1357  -17.1357   19.1863 C   0  0  0  0  0  0  0  0  0  0  0  0
   10.3709  -17.0604   19.3481 O   0  0  0  0  0  0  0  0  0  0  0  0
    7.3235  -12.0782   20.1525 C   0  0  0  0  0  0  0  0  0  0  0  0
    8.1827  -13.3063   20.0790 C   0  0  0  0  0  0  0  0  0  0  0  0
    7.9265  -14.2580   21.2270 C   0  0  2  0  0  0  0  0  0  0  0  0
    8.3115  -13.4954   22.4984 C   0  0  0  0  0  0  0  0  0  0  0  0
    8.7742  -15.4995   21.0762 C   0  0  2  0  0  0  0  0  0  0  0  0
    8.3040  -16.3330   20.0156 N   0  0  0  0  0  0  0  0  0  0  0  0
    8.7988  -16.3073   22.3183 C   0  0  0  0  0  0  0  0  0  0  0  0
    7.7101  -16.7404   22.7692 O   0  0  0  0  0  0  0  0  0  0  0  0
   15.3112  -18.4869   22.7992 N   0  0  0  0  0  0  0  0  0  0  0  0
   14.6193  -19.2143   21.7861 C   0  0  0  0  0  0  0  0  0  0  0  0
   15.0761  -19.1971   20.5919 N   0  0  0  0  0  0  0  0  0  0  0  0
   13.4476  -19.9498   22.0688 N   0  0  0  0  0  0  0  0  0  0  0  0
   12.8232  -19.9541   23.4035 C   0  0  0  0  0  0  0  0  0  0  0  0
   12.1018  -18.6725   23.6295 C   0  0  0  0  0  0  0  0  0  0  0  0
   10.6798  -18.7535   24.0156 C   0  0  0  0  0  0  0  0  0  0  0  0
    9.9290  -17.4845   24.1985 C   0  0  2  0  0  0  0  0  0  0  0  0
    9.9829  -16.6222   23.0316 N   0  0  0  0  0  0  0  0  0  0  0  0
   10.2441  -16.7344   25.4346 C   0  0  0  0  0  0  0  0  0  0  0  0
   10.1319  -17.3528   26.6864 O   0  0  0  0  0  0  0  0  0  0  0  0
   10.6198  -15.5357   25.4328 O   0  0  0  0  0  0  0  0  0  0  0  0
  1  5  1  0
  2  3  1  0
  2  1  1  0
  3  4  1  0
  5  4  1  0
  5  6  1  1
  6 13  1  0
  6  7  2  0
  9 10  1  0
  9  8  1  0
 10 12  1  0
 10 11  1  1
 12 14  1  0
 12 13  1  6
 14 15  2  0
 14 24  1  0
 16 17  1  0
 17 19  1  0
 18 17  2  0
 19 20  1  0
 21 20  1  0
 22 21  1  0
 23 25  1  0
 23 22  1  6
 24 23  1  0
 25 26  1  0
 27 25  2  0
M  END
$$$$
