PIR.pdb
     RDKit          3D

 27 27  0  0  1  0  0  0  0  0999 V2000
    6.7515  -14.7128   20.8565 N   0  0  0  0  0  0  0  0  0  0  0  0
    6.1159  -13.8980   19.8667 C   0  0  0  0  0  0  0  0  0  0  0  0
    7.2102  -13.1310   19.1784 C   0  0  0  0  0  0  0  0  0  0  0  0
    8.2132  -12.9349   20.3103 C   0  0  0  0  0  0  0  0  0  0  0  0
    8.1042  -14.2748   21.0044 C   0  0  1  0  0  0  0  0  0  0  0  0
    8.5373  -14.1838   22.4279 C   0  0  0  0  0  0  0  0  0  0  0  0
    9.7332  -14.0964   22.7737 O   0  0  0  0  0  0  0  0  0  0  0  0
    5.7991  -10.9169   25.5580 C   0  0  0  0  0  0  0  0  0  0  0  0
    6.8388  -11.8146   24.9538 C   0  0  0  0  0  0  0  0  0  0  0  0
    6.8118  -13.2069   25.5454 C   0  0  2  0  0  0  0  0  0  0  0  0
    7.1755  -13.0418   27.0241 C   0  0  0  0  0  0  0  0  0  0  0  0
    7.8182  -14.0914   24.8473 C   0  0  2  0  0  0  0  0  0  0  0  0
    7.5467  -14.1967   23.4488 N   0  0  0  0  0  0  0  0  0  0  0  0
    7.8402  -15.4601   25.4150 C   0  0  0  0  0  0  0  0  0  0  0  0
    6.7476  -16.0590   25.5687 O   0  0  0  0  0  0  0  0  0  0  0  0
    6.2329  -23.8640   25.7462 N   0  0  0  0  0  0  0  0  0  0  0  0
    6.9706  -22.7281   25.2996 C   0  0  0  0  0  0  0  0  0  0  0  0
    6.9651  -22.4383   24.0542 N   0  0  0  0  0  0  0  0  0  0  0  0
    7.7034  -21.9192   26.1955 N   0  0  0  0  0  0  0  0  0  0  0  0
    7.5577  -20.4533   26.2325 C   0  0  0  0  0  0  0  0  0  0  0  0
    8.3842  -19.8349   25.1607 C   0  0  0  0  0  0  0  0  0  0  0  0
    8.3473  -18.3646   25.0388 C   0  0  0  0  0  0  0  0  0  0  0  0
    8.9938  -17.5558   26.1043 C   0  0  2  0  0  0  0  0  0  0  0  0
    9.0259  -16.1373   25.7967 N   0  0  0  0  0  0  0  0  0  0  0  0
   10.3201  -18.0382   26.5493 C   0  0  0  0  0  0  0  0  0  0  0  0
   11.4450  -17.2095   26.4503 O   0  0  0  0  0  0  0  0  0  0  0  0
   10.5082  -19.1843   27.0278 O   0  0  0  0  0  0  0  0  0  0  0  0
  1  5  1  0
  2  3  1  0
  2  1  1  0
  3  4  1  0
  5  4  1  0
  5  6  1  1
  6 13  1  0
  6  7  2  0
  9 10  1  0
  9  8  1  0
 10 12  1  0
 10 11  1  1
 12 14  1  0
 12 13  1  6
 14 15  2  0
 14 24  1  0
 16 17  1  0
 17 19  1  0
 18 17  2  0
 19 20  1  0
 21 20  1  0
 22 21  1  0
 23 25  1  0
 23 22  1  6
 24 23  1  0
 25 26  1  0
 27 25  2  0
M  END
$$$$
