PIR.pdb
     RDKit          3D

 27 27  0  0  1  0  0  0  0  0999 V2000
    5.3438  -19.8099   25.5843 N   0  0  0  0  0  0  0  0  0  0  0  0
    5.9224  -21.0954   25.8303 C   0  0  0  0  0  0  0  0  0  0  0  0
    6.9740  -20.8952   26.8856 C   0  0  0  0  0  0  0  0  0  0  0  0
    7.4712  -19.4890   26.5677 C   0  0  0  0  0  0  0  0  0  0  0  0
    6.1666  -18.8165   26.2005 C   0  0  1  0  0  0  0  0  0  0  0  0
    6.3965  -17.6267   25.3325 C   0  0  0  0  0  0  0  0  0  0  0  0
    6.2970  -17.6590   24.0889 O   0  0  0  0  0  0  0  0  0  0  0  0
    5.9312  -12.5469   27.5836 C   0  0  0  0  0  0  0  0  0  0  0  0
    5.9268  -13.6105   26.5250 C   0  0  0  0  0  0  0  0  0  0  0  0
    7.3241  -14.0346   26.1288 C   0  0  2  0  0  0  0  0  0  0  0  0
    7.9233  -12.8477   25.3683 C   0  0  0  0  0  0  0  0  0  0  0  0
    7.2682  -15.2578   25.2439 C   0  0  2  0  0  0  0  0  0  0  0  0
    6.7470  -16.3900   25.9419 N   0  0  0  0  0  0  0  0  0  0  0  0
    8.6043  -15.6199   24.7148 C   0  0  0  0  0  0  0  0  0  0  0  0
    9.4777  -16.0183   25.5240 O   0  0  0  0  0  0  0  0  0  0  0  0
    6.9606  -13.1082   18.5622 N   0  0  0  0  0  0  0  0  0  0  0  0
    8.1979  -13.4556   17.9437 C   0  0  0  0  0  0  0  0  0  0  0  0
    8.6029  -12.7693   16.9437 N   0  0  0  0  0  0  0  0  0  0  0  0
    8.9830  -14.5339   18.4070 N   0  0  0  0  0  0  0  0  0  0  0  0
    8.7130  -15.2117   19.6874 C   0  0  0  0  0  0  0  0  0  0  0  0
    9.9553  -15.2635   20.5048 C   0  0  0  0  0  0  0  0  0  0  0  0
   10.1368  -16.4305   21.3897 C   0  0  0  0  0  0  0  0  0  0  0  0
   10.1569  -16.2017   22.8576 C   0  0  2  0  0  0  0  0  0  0  0  0
    8.9576  -15.5433   23.3439 N   0  0  0  0  0  0  0  0  0  0  0  0
   11.3771  -15.5475   23.3802 C   0  0  0  0  0  0  0  0  0  0  0  0
   12.6397  -16.0996   23.1291 O   0  0  0  0  0  0  0  0  0  0  0  0
   11.3520  -14.4905   24.0585 O   0  0  0  0  0  0  0  0  0  0  0  0
  1  5  1  0
  2  3  1  0
  2  1  1  0
  3  4  1  0
  5  4  1  0
  5  6  1  6
  6 13  1  0
  6  7  2  0
  9 10  1  0
  9  8  1  0
 10 12  1  0
 10 11  1  6
 12 14  1  0
 12 13  1  1
 14 15  2  0
 14 24  1  0
 16 17  1  0
 17 19  1  0
 18 17  2  0
 19 20  1  0
 21 20  1  0
 22 21  1  0
 23 25  1  0
 23 22  1  6
 24 23  1  0
 25 26  1  0
 27 25  2  0
M  END
$$$$
