PIR.pdb
     RDKit          3D

 27 27  0  0  1  0  0  0  0  0999 V2000
    6.7605  -14.4865   21.0879 N   0  0  0  0  0  0  0  0  0  0  0  0
    6.2679  -13.5471   20.1274 C   0  0  0  0  0  0  0  0  0  0  0  0
    7.4638  -13.0500   19.3644 C   0  0  0  0  0  0  0  0  0  0  0  0
    8.5528  -13.0894   20.4312 C   0  0  0  0  0  0  0  0  0  0  0  0
    8.1840  -14.3694   21.1483 C   0  0  1  0  0  0  0  0  0  0  0  0
    8.7132  -14.3810   22.5418 C   0  0  0  0  0  0  0  0  0  0  0  0
    9.9316  -14.4165   22.8094 O   0  0  0  0  0  0  0  0  0  0  0  0
    5.9674  -11.2648   25.8908 C   0  0  0  0  0  0  0  0  0  0  0  0
    7.0693  -12.0567   25.2501 C   0  0  0  0  0  0  0  0  0  0  0  0
    7.1639  -13.4626   25.8012 C   0  0  2  0  0  0  0  0  0  0  0  0
    7.6303  -13.3141   27.2526 C   0  0  0  0  0  0  0  0  0  0  0  0
    8.1606  -14.2710   25.0039 C   0  0  2  0  0  0  0  0  0  0  0  0
    7.7926  -14.3507   23.6259 N   0  0  0  0  0  0  0  0  0  0  0  0
    8.2953  -15.6522   25.5237 C   0  0  0  0  0  0  0  0  0  0  0  0
    7.4323  -16.5010   25.1905 O   0  0  0  0  0  0  0  0  0  0  0  0
   10.2266  -21.5540   21.0575 N   0  0  0  0  0  0  0  0  0  0  0  0
   11.4886  -21.0596   21.5012 C   0  0  0  0  0  0  0  0  0  0  0  0
   12.5424  -21.3881   20.8558 N   0  0  0  0  0  0  0  0  0  0  0  0
   11.6019  -20.2196   22.6305 N   0  0  0  0  0  0  0  0  0  0  0  0
   10.4553  -19.9171   23.5054 C   0  0  0  0  0  0  0  0  0  0  0  0
   10.9032  -19.0935   24.6608 C   0  0  0  0  0  0  0  0  0  0  0  0
   10.2179  -17.8053   24.8817 C   0  0  0  0  0  0  0  0  0  0  0  0
    9.8761  -17.4223   26.2759 C   0  0  2  0  0  0  0  0  0  0  0  0
    9.3446  -16.0751   26.3783 N   0  0  0  0  0  0  0  0  0  0  0  0
   10.9412  -17.6560   27.2764 C   0  0  0  0  0  0  0  0  0  0  0  0
   11.2732  -18.9597   27.6661 O   0  0  0  0  0  0  0  0  0  0  0  0
   11.5903  -16.7264   27.8173 O   0  0  0  0  0  0  0  0  0  0  0  0
  1  5  1  0
  2  3  1  0
  2  1  1  0
  3  4  1  0
  5  4  1  0
  5  6  1  1
  6 13  1  0
  6  7  2  0
  9 10  1  0
  9  8  1  0
 10 12  1  0
 10 11  1  1
 12 14  1  0
 12 13  1  6
 14 15  2  0
 14 24  1  0
 16 17  1  0
 17 19  1  0
 18 17  2  0
 19 20  1  0
 21 20  1  0
 22 21  1  0
 23 25  1  0
 23 22  1  6
 24 23  1  0
 25 26  1  0
 27 25  2  0
M  END
$$$$
