PIR.pdb
     RDKit          3D

 27 27  0  0  1  0  0  0  0  0999 V2000
    6.8989  -14.5049   20.9062 N   0  0  0  0  0  0  0  0  0  0  0  0
    6.4310  -13.6139   19.8889 C   0  0  0  0  0  0  0  0  0  0  0  0
    7.6525  -12.9966   19.2674 C   0  0  0  0  0  0  0  0  0  0  0  0
    8.6082  -12.9335   20.4541 C   0  0  0  0  0  0  0  0  0  0  0  0
    8.2869  -14.2476   21.1314 C   0  0  1  0  0  0  0  0  0  0  0  0
    8.6486  -14.2141   22.5771 C   0  0  0  0  0  0  0  0  0  0  0  0
    9.8256  -14.2694   22.9882 O   0  0  0  0  0  0  0  0  0  0  0  0
    6.0707  -10.8503   25.8198 C   0  0  0  0  0  0  0  0  0  0  0  0
    7.0450  -11.8031   25.1916 C   0  0  0  0  0  0  0  0  0  0  0  0
    6.8561  -13.2236   25.6770 C   0  0  2  0  0  0  0  0  0  0  0  0
    7.1629  -13.1988   27.1775 C   0  0  0  0  0  0  0  0  0  0  0  0
    7.8051  -14.1530   24.9571 C   0  0  2  0  0  0  0  0  0  0  0  0
    7.6086  -14.1147   23.5426 N   0  0  0  0  0  0  0  0  0  0  0  0
    7.6504  -15.5574   25.4041 C   0  0  0  0  0  0  0  0  0  0  0  0
    6.4947  -16.0465   25.4428 O   0  0  0  0  0  0  0  0  0  0  0  0
    7.1778  -22.2343   21.5062 N   0  0  0  0  0  0  0  0  0  0  0  0
    6.3190  -21.3205   22.1854 C   0  0  0  0  0  0  0  0  0  0  0  0
    5.1931  -21.0222   21.6579 N   0  0  0  0  0  0  0  0  0  0  0  0
    6.6802  -20.7402   23.4210 N   0  0  0  0  0  0  0  0  0  0  0  0
    7.9849  -20.9923   24.0581 C   0  0  0  0  0  0  0  0  0  0  0  0
    8.1481  -20.1096   25.2448 C   0  0  0  0  0  0  0  0  0  0  0  0
    8.3328  -18.6666   24.9964 C   0  0  0  0  0  0  0  0  0  0  0  0
    8.5008  -17.7688   26.1683 C   0  0  2  0  0  0  0  0  0  0  0  0
    8.7334  -16.3858   25.7925 N   0  0  0  0  0  0  0  0  0  0  0  0
    9.4827  -18.2224   27.1783 C   0  0  0  0  0  0  0  0  0  0  0  0
   10.4559  -17.3410   27.6660 O   0  0  0  0  0  0  0  0  0  0  0  0
    9.4992  -19.3892   27.6434 O   0  0  0  0  0  0  0  0  0  0  0  0
  1  5  1  0
  2  3  1  0
  2  1  1  0
  3  4  1  0
  5  4  1  0
  5  6  1  1
  6 13  1  0
  6  7  2  0
  9 10  1  0
  9  8  1  0
 10 12  1  0
 10 11  1  1
 12 14  1  0
 12 13  1  6
 14 15  2  0
 14 24  1  0
 16 17  1  0
 17 19  1  0
 18 17  2  0
 19 20  1  0
 21 20  1  0
 22 21  1  0
 23 25  1  0
 23 22  1  6
 24 23  1  0
 25 26  1  0
 27 25  2  0
M  END
$$$$
