PIR.pdb
     RDKit          3D

 27 27  0  0  1  0  0  0  0  0999 V2000
    9.5260  -17.7979   26.9055 N   0  0  0  0  0  0  0  0  0  0  0  0
   10.2523  -18.3556   28.0051 C   0  0  0  0  0  0  0  0  0  0  0  0
    9.3829  -19.4346   28.5875 C   0  0  0  0  0  0  0  0  0  0  0  0
    7.9854  -18.8765   28.3403 C   0  0  0  0  0  0  0  0  0  0  0  0
    8.1763  -18.2643   26.9700 C   0  0  1  0  0  0  0  0  0  0  0  0
    7.1738  -17.1917   26.7120 C   0  0  0  0  0  0  0  0  0  0  0  0
    5.9414  -17.3830   26.7589 O   0  0  0  0  0  0  0  0  0  0  0  0
    7.8095  -11.8661   27.5783 C   0  0  0  0  0  0  0  0  0  0  0  0
    7.2724  -13.2277   27.2473 C   0  0  0  0  0  0  0  0  0  0  0  0
    7.3798  -13.5463   25.7722 C   0  0  2  0  0  0  0  0  0  0  0  0
    6.4285  -12.5777   25.0630 C   0  0  0  0  0  0  0  0  0  0  0  0
    6.9687  -14.9772   25.5149 C   0  0  2  0  0  0  0  0  0  0  0  0
    7.6344  -15.8835   26.3959 N   0  0  0  0  0  0  0  0  0  0  0  0
    7.2580  -15.3946   24.1226 C   0  0  0  0  0  0  0  0  0  0  0  0
    6.3029  -15.4645   23.3108 O   0  0  0  0  0  0  0  0  0  0  0  0
    8.2637  -15.6288   16.4475 N   0  0  0  0  0  0  0  0  0  0  0  0
    8.3664  -14.2550   16.8163 C   0  0  0  0  0  0  0  0  0  0  0  0
    7.9988  -13.3613   15.9789 N   0  0  0  0  0  0  0  0  0  0  0  0
    8.8617  -13.8596   18.0781 N   0  0  0  0  0  0  0  0  0  0  0  0
    8.0889  -14.0410   19.3196 C   0  0  0  0  0  0  0  0  0  0  0  0
    8.9074  -13.6261   20.4910 C   0  0  0  0  0  0  0  0  0  0  0  0
    8.4736  -14.0942   21.8216 C   0  0  0  0  0  0  0  0  0  0  0  0
    8.9281  -15.4335   22.2768 C   0  0  2  0  0  0  0  0  0  0  0  0
    8.5542  -15.7212   23.6499 N   0  0  0  0  0  0  0  0  0  0  0  0
   10.3572  -15.7332   22.0361 C   0  0  0  0  0  0  0  0  0  0  0  0
   10.8051  -16.0628   20.7506 O   0  0  0  0  0  0  0  0  0  0  0  0
   11.2254  -15.7095   22.9437 O   0  0  0  0  0  0  0  0  0  0  0  0
  1  5  1  0
  2  3  1  0
  2  1  1  0
  3  4  1  0
  5  4  1  0
  5  6  1  1
  6 13  1  0
  6  7  2  0
  9 10  1  0
  9  8  1  0
 10 12  1  0
 10 11  1  6
 12 14  1  0
 12 13  1  1
 14 15  2  0
 14 24  1  0
 16 17  1  0
 17 19  1  0
 18 17  2  0
 19 20  1  0
 21 20  1  0
 22 21  1  0
 23 25  1  0
 23 22  1  1
 24 23  1  0
 25 26  1  0
 27 25  2  0
M  END
$$$$
