PIR.pdb
     RDKit          3D

 27 27  0  0  1  0  0  0  0  0999 V2000
    6.9071  -14.4909   20.8083 N   0  0  0  0  0  0  0  0  0  0  0  0
    6.2100  -13.6385   19.8943 C   0  0  0  0  0  0  0  0  0  0  0  0
    7.2593  -12.8535   19.1581 C   0  0  0  0  0  0  0  0  0  0  0  0
    8.3404  -12.7025   20.2229 C   0  0  0  0  0  0  0  0  0  0  0  0
    8.2701  -14.0653   20.8761 C   0  0  1  0  0  0  0  0  0  0  0  0
    8.8022  -14.0266   22.2680 C   0  0  0  0  0  0  0  0  0  0  0  0
    9.9958  -13.7799   22.5363 O   0  0  0  0  0  0  0  0  0  0  0  0
    5.7970  -11.5208   25.8800 C   0  0  0  0  0  0  0  0  0  0  0  0
    6.9382  -12.1555   25.1406 C   0  0  0  0  0  0  0  0  0  0  0  0
    7.1682  -13.5912   25.5591 C   0  0  2  0  0  0  0  0  0  0  0  0
    7.5703  -13.5387   27.0361 C   0  0  0  0  0  0  0  0  0  0  0  0
    8.2714  -14.2071   24.7307 C   0  0  2  0  0  0  0  0  0  0  0  0
    7.9143  -14.2822   23.3496 N   0  0  0  0  0  0  0  0  0  0  0  0
    8.6128  -15.5736   25.1915 C   0  0  0  0  0  0  0  0  0  0  0  0
    7.7137  -16.4498   25.1754 O   0  0  0  0  0  0  0  0  0  0  0  0
   13.5450  -18.3443   21.6365 N   0  0  0  0  0  0  0  0  0  0  0  0
   13.5582  -19.7228   22.0021 C   0  0  0  0  0  0  0  0  0  0  0  0
   13.5300  -20.6072   21.0791 N   0  0  0  0  0  0  0  0  0  0  0  0
   13.6017  -20.1326   23.3527 N   0  0  0  0  0  0  0  0  0  0  0  0
   13.3307  -19.2061   24.4661 C   0  0  0  0  0  0  0  0  0  0  0  0
   11.8623  -19.0612   24.6585 C   0  0  0  0  0  0  0  0  0  0  0  0
   11.3106  -17.6924   24.6624 C   0  0  0  0  0  0  0  0  0  0  0  0
   10.2839  -17.3527   25.6812 C   0  0  2  0  0  0  0  0  0  0  0  0
    9.8990  -15.9531   25.6515 N   0  0  0  0  0  0  0  0  0  0  0  0
   10.5884  -17.7960   27.0599 C   0  0  0  0  0  0  0  0  0  0  0  0
   10.8476  -19.1459   27.3289 O   0  0  0  0  0  0  0  0  0  0  0  0
   10.6315  -17.0105   28.0393 O   0  0  0  0  0  0  0  0  0  0  0  0
  1  5  1  0
  2  3  1  0
  2  1  1  0
  3  4  1  0
  5  4  1  0
  5  6  1  1
  6 13  1  0
  6  7  2  0
  9 10  1  0
  9  8  1  0
 10 12  1  0
 10 11  1  1
 12 14  1  0
 12 13  1  6
 14 15  2  0
 14 24  1  0
 16 17  1  0
 17 19  1  0
 18 17  2  0
 19 20  1  0
 21 20  1  0
 22 21  1  0
 23 25  1  0
 23 22  1  6
 24 23  1  0
 25 26  1  0
 27 25  2  0
M  END
$$$$
