PIR.pdb
     RDKit          3D

 27 27  0  0  1  0  0  0  0  0999 V2000
    7.1331  -14.8804   20.8985 N   0  0  0  0  0  0  0  0  0  0  0  0
    6.6221  -14.1238   19.7966 C   0  0  0  0  0  0  0  0  0  0  0  0
    7.7975  -13.4151   19.1838 C   0  0  0  0  0  0  0  0  0  0  0  0
    8.6769  -13.1580   20.4028 C   0  0  0  0  0  0  0  0  0  0  0  0
    8.4699  -14.4490   21.1639 C   0  0  1  0  0  0  0  0  0  0  0  0
    8.7496  -14.2715   22.6173 C   0  0  0  0  0  0  0  0  0  0  0  0
    9.8755  -13.9718   23.0645 O   0  0  0  0  0  0  0  0  0  0  0  0
    5.3900  -11.4719   25.6229 C   0  0  0  0  0  0  0  0  0  0  0  0
    6.5976  -12.2011   25.1114 C   0  0  0  0  0  0  0  0  0  0  0  0
    6.6503  -13.6354   25.5904 C   0  0  2  0  0  0  0  0  0  0  0  0
    6.8111  -13.5642   27.1119 C   0  0  0  0  0  0  0  0  0  0  0  0
    7.8243  -14.3526   24.9659 C   0  0  2  0  0  0  0  0  0  0  0  0
    7.6882  -14.4505   23.5473 N   0  0  0  0  0  0  0  0  0  0  0  0
    7.9876  -15.7225   25.5070 C   0  0  0  0  0  0  0  0  0  0  0  0
    7.1129  -16.5801   25.2319 O   0  0  0  0  0  0  0  0  0  0  0  0
   11.9441  -20.1924   20.4967 N   0  0  0  0  0  0  0  0  0  0  0  0
   12.6595  -20.4708   21.6987 C   0  0  0  0  0  0  0  0  0  0  0  0
   13.7751  -21.0911   21.6242 N   0  0  0  0  0  0  0  0  0  0  0  0
   12.1680  -20.0793   22.9632 N   0  0  0  0  0  0  0  0  0  0  0  0
   10.8038  -19.5542   23.1499 C   0  0  0  0  0  0  0  0  0  0  0  0
   10.6110  -19.1368   24.5650 C   0  0  0  0  0  0  0  0  0  0  0  0
    9.9632  -17.8327   24.8053 C   0  0  0  0  0  0  0  0  0  0  0  0
    9.6228  -17.4656   26.2042 C   0  0  2  0  0  0  0  0  0  0  0  0
    9.0769  -16.1252   26.3202 N   0  0  0  0  0  0  0  0  0  0  0  0
   10.6943  -17.6962   27.1985 C   0  0  0  0  0  0  0  0  0  0  0  0
   10.9120  -18.9775   27.7208 O   0  0  0  0  0  0  0  0  0  0  0  0
   11.4484  -16.7837   27.6185 O   0  0  0  0  0  0  0  0  0  0  0  0
  1  5  1  0
  2  3  1  0
  2  1  1  0
  3  4  1  0
  5  4  1  0
  5  6  1  1
  6 13  1  0
  6  7  2  0
  9 10  1  0
  9  8  1  0
 10 12  1  0
 10 11  1  1
 12 14  1  0
 12 13  1  6
 14 15  2  0
 14 24  1  0
 16 17  1  0
 17 19  1  0
 18 17  2  0
 19 20  1  0
 21 20  1  0
 22 21  1  0
 23 25  1  0
 23 22  1  6
 24 23  1  0
 25 26  1  0
 27 25  2  0
M  END
$$$$
