PIR.pdb
     RDKit          3D

 27 27  0  0  1  0  0  0  0  0999 V2000
    6.9172  -14.2681   21.0158 N   0  0  0  0  0  0  0  0  0  0  0  0
    6.1911  -13.3906   20.1493 C   0  0  0  0  0  0  0  0  0  0  0  0
    7.2157  -12.6455   19.3405 C   0  0  0  0  0  0  0  0  0  0  0  0
    8.3723  -12.5345   20.3282 C   0  0  0  0  0  0  0  0  0  0  0  0
    8.2965  -13.8935   20.9885 C   0  0  1  0  0  0  0  0  0  0  0  0
    8.9241  -13.8742   22.3405 C   0  0  0  0  0  0  0  0  0  0  0  0
   10.1509  -13.7345   22.5221 O   0  0  0  0  0  0  0  0  0  0  0  0
    6.4014  -11.3305   26.3737 C   0  0  0  0  0  0  0  0  0  0  0  0
    7.4525  -11.9782   25.5207 C   0  0  0  0  0  0  0  0  0  0  0  0
    7.5862  -13.4597   25.7969 C   0  0  2  0  0  0  0  0  0  0  0  0
    8.1010  -13.5739   27.2350 C   0  0  0  0  0  0  0  0  0  0  0  0
    8.5658  -14.0854   24.8317 C   0  0  2  0  0  0  0  0  0  0  0  0
    8.0927  -14.0218   23.4853 N   0  0  0  0  0  0  0  0  0  0  0  0
    8.8332  -15.5062   25.1575 C   0  0  0  0  0  0  0  0  0  0  0  0
    7.8744  -16.3159   25.1239 O   0  0  0  0  0  0  0  0  0  0  0  0
   12.5125  -21.7258   21.4080 N   0  0  0  0  0  0  0  0  0  0  0  0
   12.8604  -22.0950   22.7408 C   0  0  0  0  0  0  0  0  0  0  0  0
   12.9169  -23.3361   23.0434 N   0  0  0  0  0  0  0  0  0  0  0  0
   13.1431  -21.1276   23.7298 N   0  0  0  0  0  0  0  0  0  0  0  0
   12.8176  -19.7014   23.5524 C   0  0  0  0  0  0  0  0  0  0  0  0
   11.7868  -19.2900   24.5435 C   0  0  0  0  0  0  0  0  0  0  0  0
   11.3698  -17.8744   24.5405 C   0  0  0  0  0  0  0  0  0  0  0  0
   10.3554  -17.4396   25.5352 C   0  0  2  0  0  0  0  0  0  0  0  0
   10.1123  -16.0085   25.5066 N   0  0  0  0  0  0  0  0  0  0  0  0
   10.5779  -17.9182   26.9177 C   0  0  0  0  0  0  0  0  0  0  0  0
   10.5723  -19.2898   27.2020 O   0  0  0  0  0  0  0  0  0  0  0  0
   10.7794  -17.1453   27.8872 O   0  0  0  0  0  0  0  0  0  0  0  0
  1  5  1  0
  2  3  1  0
  2  1  1  0
  3  4  1  0
  5  4  1  0
  5  6  1  1
  6 13  1  0
  6  7  2  0
  9 10  1  0
  9  8  1  0
 10 12  1  0
 10 11  1  1
 12 14  1  0
 12 13  1  6
 14 15  2  0
 14 24  1  0
 16 17  1  0
 17 19  1  0
 18 17  2  0
 19 20  1  0
 21 20  1  0
 22 21  1  0
 23 25  1  0
 23 22  1  6
 24 23  1  0
 25 26  1  0
 27 25  2  0
M  END
$$$$
