PIR.pdb
     RDKit          3D

 27 27  0  0  1  0  0  0  0  0999 V2000
    6.7687  -14.5961   20.8632 N   0  0  0  0  0  0  0  0  0  0  0  0
    5.9079  -13.8288   20.0158 C   0  0  0  0  0  0  0  0  0  0  0  0
    6.7898  -12.8663   19.2707 C   0  0  0  0  0  0  0  0  0  0  0  0
    7.8847  -12.5892   20.2953 C   0  0  0  0  0  0  0  0  0  0  0  0
    8.0530  -13.9690   20.8924 C   0  0  1  0  0  0  0  0  0  0  0  0
    8.6385  -13.8987   22.2615 C   0  0  0  0  0  0  0  0  0  0  0  0
    9.8514  -13.6974   22.4761 O   0  0  0  0  0  0  0  0  0  0  0  0
    5.7800  -11.5019   26.2310 C   0  0  0  0  0  0  0  0  0  0  0  0
    6.8891  -12.0616   25.3894 C   0  0  0  0  0  0  0  0  0  0  0  0
    7.1392  -13.5277   25.6669 C   0  0  2  0  0  0  0  0  0  0  0  0
    7.5960  -13.6067   27.1268 C   0  0  0  0  0  0  0  0  0  0  0  0
    8.2127  -14.0587   24.7459 C   0  0  2  0  0  0  0  0  0  0  0  0
    7.7814  -14.0682   23.3841 N   0  0  0  0  0  0  0  0  0  0  0  0
    8.6208  -15.4367   25.1077 C   0  0  0  0  0  0  0  0  0  0  0  0
    7.7436  -16.3348   25.1173 O   0  0  0  0  0  0  0  0  0  0  0  0
   14.9906  -20.4798   21.7546 N   0  0  0  0  0  0  0  0  0  0  0  0
   14.2840  -21.2434   22.7302 C   0  0  0  0  0  0  0  0  0  0  0  0
   14.5340  -22.4928   22.8367 N   0  0  0  0  0  0  0  0  0  0  0  0
   13.3197  -20.6554   23.5777 N   0  0  0  0  0  0  0  0  0  0  0  0
   12.9192  -19.2427   23.4543 C   0  0  0  0  0  0  0  0  0  0  0  0
   12.0781  -18.8511   24.6176 C   0  0  0  0  0  0  0  0  0  0  0  0
   11.5431  -17.4758   24.6354 C   0  0  0  0  0  0  0  0  0  0  0  0
   10.3403  -17.2015   25.4633 C   0  0  2  0  0  0  0  0  0  0  0  0
    9.9480  -15.8038   25.4452 N   0  0  0  0  0  0  0  0  0  0  0  0
   10.3894  -17.7269   26.8459 C   0  0  0  0  0  0  0  0  0  0  0  0
   10.1479  -16.8795   27.9347 O   0  0  0  0  0  0  0  0  0  0  0  0
   10.6424  -18.9275   27.1149 O   0  0  0  0  0  0  0  0  0  0  0  0
  1  5  1  0
  2  3  1  0
  2  1  1  0
  3  4  1  0
  5  4  1  0
  5  6  1  1
  6 13  1  0
  6  7  2  0
  9 10  1  0
  9  8  1  0
 10 12  1  0
 10 11  1  1
 12 14  1  0
 12 13  1  6
 14 15  2  0
 14 24  1  0
 16 17  1  0
 17 19  1  0
 18 17  2  0
 19 20  1  0
 21 20  1  0
 22 21  1  0
 23 25  1  0
 23 22  1  1
 24 23  1  0
 25 26  1  0
 27 25  2  0
M  END
$$$$
