PIR.pdb
     RDKit          3D

 27 27  0  0  1  0  0  0  0  0999 V2000
    7.7450  -18.1363   17.8875 N   0  0  0  0  0  0  0  0  0  0  0  0
    7.0800  -18.1528   16.6204 C   0  0  0  0  0  0  0  0  0  0  0  0
    8.1461  -17.9710   15.5765 C   0  0  0  0  0  0  0  0  0  0  0  0
    9.1440  -17.0751   16.3025 C   0  0  0  0  0  0  0  0  0  0  0  0
    9.0823  -17.6704   17.6919 C   0  0  1  0  0  0  0  0  0  0  0  0
    9.5147  -16.6844   18.7229 C   0  0  0  0  0  0  0  0  0  0  0  0
   10.7089  -16.3777   18.9163 O   0  0  0  0  0  0  0  0  0  0  0  0
    6.3438  -12.3475   19.7129 C   0  0  0  0  0  0  0  0  0  0  0  0
    7.5439  -13.2433   19.6171 C   0  0  0  0  0  0  0  0  0  0  0  0
    7.6650  -14.1729   20.8047 C   0  0  2  0  0  0  0  0  0  0  0  0
    7.9421  -13.2750   22.0142 C   0  0  0  0  0  0  0  0  0  0  0  0
    8.8024  -15.1449   20.5942 C   0  0  2  0  0  0  0  0  0  0  0  0
    8.5257  -16.0577   19.5308 N   0  0  0  0  0  0  0  0  0  0  0  0
    9.0884  -15.9352   21.8148 C   0  0  0  0  0  0  0  0  0  0  0  0
    8.2464  -16.7914   22.1811 O   0  0  0  0  0  0  0  0  0  0  0  0
   11.1093  -23.5721   22.7679 N   0  0  0  0  0  0  0  0  0  0  0  0
   11.9832  -22.9647   23.7173 C   0  0  0  0  0  0  0  0  0  0  0  0
   12.8845  -23.6808   24.2740 N   0  0  0  0  0  0  0  0  0  0  0  0
   11.8779  -21.5979   24.0556 N   0  0  0  0  0  0  0  0  0  0  0  0
   11.5948  -20.5574   23.0512 C   0  0  0  0  0  0  0  0  0  0  0  0
   11.3360  -19.2575   23.7275 C   0  0  0  0  0  0  0  0  0  0  0  0
   10.9495  -18.1154   22.8766 C   0  0  0  0  0  0  0  0  0  0  0  0
   10.6560  -16.8168   23.5362 C   0  0  2  0  0  0  0  0  0  0  0  0
   10.2607  -15.7822   22.5973 N   0  0  0  0  0  0  0  0  0  0  0  0
   11.6990  -16.3279   24.4651 C   0  0  0  0  0  0  0  0  0  0  0  0
   11.9923  -17.0366   25.6371 O   0  0  0  0  0  0  0  0  0  0  0  0
   12.3623  -15.2806   24.2620 O   0  0  0  0  0  0  0  0  0  0  0  0
  1  5  1  0
  2  3  1  0
  2  1  1  0
  3  4  1  0
  5  4  1  0
  5  6  1  1
  6 13  1  0
  6  7  2  0
  9 10  1  0
  9  8  1  0
 10 12  1  0
 10 11  1  1
 12 14  1  0
 12 13  1  6
 14 15  2  0
 14 24  1  0
 16 17  1  0
 17 19  1  0
 18 17  2  0
 19 20  1  0
 21 20  1  0
 22 21  1  0
 23 25  1  0
 23 22  1  6
 24 23  1  0
 25 26  1  0
 27 25  2  0
M  END
$$$$
