PIR.pdb
     RDKit          3D

 27 27  0  0  1  0  0  0  0  0999 V2000
    9.1293  -17.7371   27.4570 N   0  0  0  0  0  0  0  0  0  0  0  0
    9.0928  -18.3767   28.7366 C   0  0  0  0  0  0  0  0  0  0  0  0
    8.2119  -19.5851   28.5847 C   0  0  0  0  0  0  0  0  0  0  0  0
    7.2029  -19.1071   27.5460 C   0  0  0  0  0  0  0  0  0  0  0  0
    8.1092  -18.3089   26.6348 C   0  0  1  0  0  0  0  0  0  0  0  0
    7.3406  -17.2908   25.8634 C   0  0  0  0  0  0  0  0  0  0  0  0
    6.3453  -17.5715   25.1648 O   0  0  0  0  0  0  0  0  0  0  0  0
    5.8795  -12.6525   27.8627 C   0  0  0  0  0  0  0  0  0  0  0  0
    5.9945  -13.8304   26.9401 C   0  0  0  0  0  0  0  0  0  0  0  0
    7.0235  -13.6119   25.8526 C   0  0  2  0  0  0  0  0  0  0  0  0
    6.4448  -12.5275   24.9387 C   0  0  0  0  0  0  0  0  0  0  0  0
    7.2485  -14.8912   25.0809 C   0  0  2  0  0  0  0  0  0  0  0  0
    7.7541  -15.9309   25.9199 N   0  0  0  0  0  0  0  0  0  0  0  0
    8.1999  -14.7019   23.9606 C   0  0  0  0  0  0  0  0  0  0  0  0
    9.3537  -14.2822   24.2231 O   0  0  0  0  0  0  0  0  0  0  0  0
   11.6184  -20.3506   24.6414 N   0  0  0  0  0  0  0  0  0  0  0  0
   12.3544  -19.9819   23.4768 C   0  0  0  0  0  0  0  0  0  0  0  0
   13.6321  -20.0029   23.5210 N   0  0  0  0  0  0  0  0  0  0  0  0
   11.7091  -19.5965   22.2814 N   0  0  0  0  0  0  0  0  0  0  0  0
   10.2624  -19.3229   22.2202 C   0  0  0  0  0  0  0  0  0  0  0  0
   10.0266  -17.9693   21.6491 C   0  0  0  0  0  0  0  0  0  0  0  0
    9.1313  -17.0646   22.3960 C   0  0  0  0  0  0  0  0  0  0  0  0
    8.7849  -15.7564   21.7826 C   0  0  2  0  0  0  0  0  0  0  0  0
    7.8847  -14.9673   22.6040 N   0  0  0  0  0  0  0  0  0  0  0  0
    8.3160  -15.8185   20.3804 C   0  0  0  0  0  0  0  0  0  0  0  0
    9.1922  -16.2012   19.3568 O   0  0  0  0  0  0  0  0  0  0  0  0
    7.1400  -15.5405   20.0373 O   0  0  0  0  0  0  0  0  0  0  0  0
  1  5  1  0
  2  3  1  0
  2  1  1  0
  3  4  1  0
  5  4  1  0
  5  6  1  1
  6 13  1  0
  6  7  2  0
  9 10  1  0
  9  8  1  0
 10 12  1  0
 10 11  1  6
 12 14  1  0
 12 13  1  1
 14 15  2  0
 14 24  1  0
 16 17  1  0
 17 19  1  0
 18 17  2  0
 19 20  1  0
 21 20  1  0
 22 21  1  0
 23 25  1  0
 23 22  1  1
 24 23  1  0
 25 26  1  0
 27 25  2  0
M  END
$$$$
