DWY.pdb
     RDKit          3D

 35 37  0  0  1  0  0  0  0  0999 V2000
   27.9635  -22.0312  -16.7511 N   0  0  0  0  0  0  0  0  0  0  0  0
   27.0387  -23.1113  -16.6075 C   0  0  1  0  0  0  0  0  0  0  0  0
   27.8024  -24.3714  -16.2997 C   0  0  0  0  0  0  0  0  0  0  0  0
   28.6937  -24.6703  -17.4425 C   0  0  0  0  0  0  0  0  0  0  0  0
   29.3745  -25.7207  -17.4819 O   0  0  0  0  0  0  0  0  0  0  0  0
   26.0323  -22.8080  -15.5435 C   0  0  0  0  0  0  0  0  0  0  0  0
   25.2244  -23.7053  -15.2080 O   0  0  0  0  0  0  0  0  0  0  0  0
   28.7784  -23.7727  -18.4900 O   0  0  0  0  0  0  0  0  0  0  0  0
   25.9937  -21.5361  -14.9298 N   0  0  0  0  0  0  0  0  0  0  0  0
   25.1587  -21.1932  -13.8342 C   0  0  1  0  0  0  0  0  0  0  0  0
   25.6847  -20.1057  -12.9106 C   0  0  0  0  0  0  0  0  0  0  0  0
   26.8744  -20.5182  -12.1348 C   0  0  0  0  0  0  0  0  0  0  0  0
   28.1795  -20.6876  -12.5036 C   0  0  0  0  0  0  0  0  0  0  0  0
   28.8858  -21.0684  -11.4228 N   0  0  0  0  0  0  0  0  0  0  0  0
   28.0915  -21.1570  -10.3460 C   0  0  0  0  0  0  0  0  0  0  0  0
   28.2836  -21.4894   -9.0227 C   0  0  0  0  0  0  0  0  0  0  0  0
   27.2367  -21.4891   -8.1066 C   0  0  0  0  0  0  0  0  0  0  0  0
   25.9886  -21.1507   -8.5311 C   0  0  0  0  0  0  0  0  0  0  0  0
   25.7979  -20.8140   -9.8759 C   0  0  0  0  0  0  0  0  0  0  0  0
   26.8285  -20.8173  -10.7661 C   0  0  0  0  0  0  0  0  0  0  0  0
   23.7455  -21.0103  -14.1044 C   0  0  0  0  0  0  0  0  0  0  0  0
   23.4142  -20.2416  -15.0546 O   0  0  0  0  0  0  0  0  0  0  0  0
   16.8964  -23.4470   -9.5155 O   0  0  0  0  0  0  0  0  0  0  0  0
   17.8077  -23.2754  -10.5488 C   0  0  0  0  0  0  0  0  0  0  0  0
   17.4503  -22.6533  -11.7298 C   0  0  0  0  0  0  0  0  0  0  0  0
   18.3442  -22.4745  -12.7671 C   0  0  0  0  0  0  0  0  0  0  0  0
   19.6613  -22.9246  -12.6540 C   0  0  0  0  0  0  0  0  0  0  0  0
   20.6088  -22.7354  -13.7741 C   0  0  0  0  0  0  0  0  0  0  0  0
   21.2882  -21.4060  -13.7455 C   0  0  2  0  0  0  0  0  0  0  0  0
   22.6820  -21.6234  -13.3905 N   0  0  0  0  0  0  0  0  0  0  0  0
   20.6544  -20.3857  -12.9101 C   0  0  0  0  0  0  0  0  0  0  0  0
   21.1612  -20.0991  -11.7971 O   0  0  0  0  0  0  0  0  0  0  0  0
   20.0092  -23.5414  -11.4795 C   0  0  0  0  0  0  0  0  0  0  0  0
   19.1117  -23.7276  -10.4222 C   0  0  0  0  0  0  0  0  0  0  0  0
   19.5067  -19.6893  -13.2571 O   0  0  0  0  0  0  0  0  0  0  0  0
  2  3  1  0
  2  1  1  1
  4  3  1  0
  5  4  2  0
  6  7  2  0
  6  2  1  0
  8  4  1  0
  9  6  1  0
 10  9  1  0
 10 11  1  6
 12 11  1  0
 13 12  2  0
 14 13  1  0
 15 14  1  0
 15 20  2  0
 16 15  1  0
 17 16  2  0
 17 18  1  0
 18 19  2  0
 19 20  1  0
 20 12  1  0
 21 30  1  0
 21 10  1  0
 22 21  2  0
 23 24  1  0
 24 34  2  0
 25 26  2  0
 25 24  1  0
 26 27  1  0
 27 28  1  0
 27 33  2  0
 29 28  1  1
 29 31  1  0
 29 30  1  0
 31 35  1  0
 32 31  2  0
 34 33  1  0
M  END
$$$$
