DWY.pdb
     RDKit          3D

 35 37  0  0  1  0  0  0  0  0999 V2000
   20.4482  -11.1204  -17.1047 N   0  0  0  0  0  0  0  0  0  0  0  0
   20.0918   -9.7563  -16.8708 C   0  0  1  0  0  0  0  0  0  0  0  0
   18.8550   -9.4310  -17.6647 C   0  0  0  0  0  0  0  0  0  0  0  0
   19.2043   -9.4433  -19.1026 C   0  0  0  0  0  0  0  0  0  0  0  0
   20.3872   -9.5927  -19.4857 O   0  0  0  0  0  0  0  0  0  0  0  0
   19.8859   -9.5064  -15.4106 C   0  0  0  0  0  0  0  0  0  0  0  0
   19.3593  -10.4065  -14.7159 O   0  0  0  0  0  0  0  0  0  0  0  0
   18.2054   -9.2867  -20.0449 O   0  0  0  0  0  0  0  0  0  0  0  0
   20.2773   -8.2806  -14.8273 N   0  0  0  0  0  0  0  0  0  0  0  0
   20.0931   -7.9412  -13.4613 C   0  0  1  0  0  0  0  0  0  0  0  0
   20.9704   -6.8188  -12.9296 C   0  0  0  0  0  0  0  0  0  0  0  0
   20.7795   -6.5569  -11.4866 C   0  0  0  0  0  0  0  0  0  0  0  0
   20.9835   -7.3468  -10.3901 C   0  0  0  0  0  0  0  0  0  0  0  0
   20.6676   -6.6420   -9.2876 N   0  0  0  0  0  0  0  0  0  0  0  0
   20.2603   -5.4074   -9.6162 C   0  0  0  0  0  0  0  0  0  0  0  0
   19.8350   -4.3047   -8.9077 C   0  0  0  0  0  0  0  0  0  0  0  0
   19.4691   -3.1217   -9.5416 C   0  0  0  0  0  0  0  0  0  0  0  0
   19.5336   -3.0534  -10.8994 C   0  0  0  0  0  0  0  0  0  0  0  0
   19.9658   -4.1755  -11.6150 C   0  0  0  0  0  0  0  0  0  0  0  0
   20.3218   -5.3300  -10.9863 C   0  0  0  0  0  0  0  0  0  0  0  0
   18.7294   -7.8083  -12.9852 C   0  0  0  0  0  0  0  0  0  0  0  0
   17.9309   -7.0892  -13.6551 O   0  0  0  0  0  0  0  0  0  0  0  0
   10.9846   -9.7401   -9.0831 O   0  0  0  0  0  0  0  0  0  0  0  0
   12.3295   -9.6517   -9.4164 C   0  0  0  0  0  0  0  0  0  0  0  0
   12.8530  -10.3435  -10.4919 C   0  0  0  0  0  0  0  0  0  0  0  0
   14.1879  -10.2665  -10.8371 C   0  0  0  0  0  0  0  0  0  0  0  0
   15.0673   -9.4731  -10.0972 C   0  0  0  0  0  0  0  0  0  0  0  0
   16.4971   -9.4038  -10.4704 C   0  0  0  0  0  0  0  0  0  0  0  0
   16.7850   -8.3458  -11.4840 C   0  0  2  0  0  0  0  0  0  0  0  0
   18.1986   -8.4198  -11.8187 N   0  0  0  0  0  0  0  0  0  0  0  0
   16.3691   -6.9900  -11.1240 C   0  0  0  0  0  0  0  0  0  0  0  0
   17.0195   -6.3565  -10.2561 O   0  0  0  0  0  0  0  0  0  0  0  0
   14.5412   -8.7894   -9.0310 C   0  0  0  0  0  0  0  0  0  0  0  0
   13.1904   -8.8601   -8.6726 C   0  0  0  0  0  0  0  0  0  0  0  0
   15.2841   -6.3286  -11.6789 O   0  0  0  0  0  0  0  0  0  0  0  0
  2  3  1  0
  2  1  1  1
  4  3  1  0
  5  4  2  0
  6  7  2  0
  6  2  1  0
  8  4  1  0
  9  6  1  0
 10  9  1  0
 10 11  1  6
 12 11  1  0
 13 12  2  0
 14 13  1  0
 15 14  1  0
 15 20  2  0
 16 15  1  0
 17 16  2  0
 17 18  1  0
 18 19  2  0
 19 20  1  0
 20 12  1  0
 21 30  1  0
 21 10  1  0
 22 21  2  0
 23 24  1  0
 24 34  2  0
 25 26  2  0
 25 24  1  0
 26 27  1  0
 27 28  1  0
 27 33  2  0
 29 28  1  1
 29 31  1  0
 29 30  1  0
 31 35  1  0
 32 31  2  0
 34 33  1  0
M  END
$$$$
