DWY.pdb
     RDKit          3D

 35 37  0  0  1  0  0  0  0  0999 V2000
   21.9678  -17.1706  -17.6370 N   0  0  0  0  0  0  0  0  0  0  0  0
   22.5071  -16.1428  -18.4709 C   0  0  1  0  0  0  0  0  0  0  0  0
   21.3949  -15.5422  -19.2881 C   0  0  0  0  0  0  0  0  0  0  0  0
   20.7653  -16.6181  -20.0854 C   0  0  0  0  0  0  0  0  0  0  0  0
   21.4526  -17.4150  -20.7643 O   0  0  0  0  0  0  0  0  0  0  0  0
   23.2033  -15.1055  -17.6485 C   0  0  0  0  0  0  0  0  0  0  0  0
   22.7013  -14.7746  -16.5490 O   0  0  0  0  0  0  0  0  0  0  0  0
   19.3893  -16.7484  -20.0825 O   0  0  0  0  0  0  0  0  0  0  0  0
   24.4020  -14.5113  -18.1025 N   0  0  0  0  0  0  0  0  0  0  0  0
   25.1101  -13.4928  -17.4123 C   0  0  1  0  0  0  0  0  0  0  0  0
   26.6132  -13.4551  -17.6399 C   0  0  0  0  0  0  0  0  0  0  0  0
   27.2906  -12.3603  -16.9119 C   0  0  0  0  0  0  0  0  0  0  0  0
   27.2710  -12.0050  -15.5923 C   0  0  0  0  0  0  0  0  0  0  0  0
   28.0656  -10.9316  -15.4241 N   0  0  0  0  0  0  0  0  0  0  0  0
   28.6140  -10.5619  -16.5907 C   0  0  0  0  0  0  0  0  0  0  0  0
   29.4796   -9.5644  -16.9836 C   0  0  0  0  0  0  0  0  0  0  0  0
   29.8881   -9.4261  -18.3062 C   0  0  0  0  0  0  0  0  0  0  0  0
   29.4185  -10.3015  -19.2366 C   0  0  0  0  0  0  0  0  0  0  0  0
   28.5395  -11.3129  -18.8334 C   0  0  0  0  0  0  0  0  0  0  0  0
   28.1445  -11.4407  -17.5363 C   0  0  0  0  0  0  0  0  0  0  0  0
   24.5452  -12.1570  -17.4324 C   0  0  0  0  0  0  0  0  0  0  0  0
   24.0937  -11.7165  -18.5305 O   0  0  0  0  0  0  0  0  0  0  0  0
   21.5637   -4.1049  -15.1200 O   0  0  0  0  0  0  0  0  0  0  0  0
   22.0794   -5.3940  -15.1140 C   0  0  0  0  0  0  0  0  0  0  0  0
   21.2559   -6.5006  -15.1954 C   0  0  0  0  0  0  0  0  0  0  0  0
   21.7523   -7.7892  -15.1908 C   0  0  0  0  0  0  0  0  0  0  0  0
   23.1269   -8.0195  -15.1023 C   0  0  0  0  0  0  0  0  0  0  0  0
   23.6480   -9.4039  -15.0901 C   0  0  0  0  0  0  0  0  0  0  0  0
   24.0009   -9.9066  -16.4512 C   0  0  2  0  0  0  0  0  0  0  0  0
   24.4503  -11.2835  -16.3169 N   0  0  0  0  0  0  0  0  0  0  0  0
   24.9458   -9.0846  -17.2076 C   0  0  0  0  0  0  0  0  0  0  0  0
   26.1783   -9.2226  -17.0089 O   0  0  0  0  0  0  0  0  0  0  0  0
   23.9384   -6.9168  -15.0217 C   0  0  0  0  0  0  0  0  0  0  0  0
   23.4460   -5.6070  -15.0255 C   0  0  0  0  0  0  0  0  0  0  0  0
   24.5808   -8.1385  -18.1532 O   0  0  0  0  0  0  0  0  0  0  0  0
  2  3  1  0
  2  1  1  1
  4  3  1  0
  5  4  2  0
  6  7  2  0
  6  2  1  0
  8  4  1  0
  9  6  1  0
 10  9  1  0
 10 11  1  6
 12 11  1  0
 13 12  2  0
 14 13  1  0
 15 14  1  0
 15 20  2  0
 16 15  1  0
 17 16  2  0
 17 18  1  0
 18 19  2  0
 19 20  1  0
 20 12  1  0
 21 30  1  0
 21 10  1  0
 22 21  2  0
 23 24  1  0
 24 34  2  0
 25 26  2  0
 25 24  1  0
 26 27  1  0
 27 28  1  0
 27 33  2  0
 29 28  1  1
 29 31  1  0
 29 30  1  0
 31 35  1  0
 32 31  2  0
 34 33  1  0
M  END
$$$$
