DWY.pdb
     RDKit          3D

 35 37  0  0  1  0  0  0  0  0999 V2000
   28.1670  -22.3518  -15.9598 N   0  0  0  0  0  0  0  0  0  0  0  0
   28.2132  -21.2339  -15.0706 C   0  0  1  0  0  0  0  0  0  0  0  0
   27.6811  -20.0197  -15.7836 C   0  0  0  0  0  0  0  0  0  0  0  0
   28.6274  -19.6569  -16.8618 C   0  0  0  0  0  0  0  0  0  0  0  0
   28.3001  -19.7273  -18.0685 O   0  0  0  0  0  0  0  0  0  0  0  0
   27.4393  -21.5184  -13.8228 C   0  0  0  0  0  0  0  0  0  0  0  0
   26.3179  -22.0683  -13.9241 O   0  0  0  0  0  0  0  0  0  0  0  0
   29.9003  -19.2309  -16.5325 O   0  0  0  0  0  0  0  0  0  0  0  0
   27.9625  -21.1741  -12.5564 N   0  0  0  0  0  0  0  0  0  0  0  0
   27.2006  -21.1008  -11.3608 C   0  0  1  0  0  0  0  0  0  0  0  0
   27.9622  -20.6926  -10.1096 C   0  0  0  0  0  0  0  0  0  0  0  0
   27.1066  -20.5918   -8.9074 C   0  0  0  0  0  0  0  0  0  0  0  0
   25.7536  -20.7028   -8.7494 C   0  0  0  0  0  0  0  0  0  0  0  0
   25.4578  -20.5381   -7.4466 N   0  0  0  0  0  0  0  0  0  0  0  0
   26.5720  -20.3216   -6.7325 C   0  0  0  0  0  0  0  0  0  0  0  0
   26.8433  -20.0997   -5.3999 C   0  0  0  0  0  0  0  0  0  0  0  0
   28.1409  -19.9062   -4.9374 C   0  0  0  0  0  0  0  0  0  0  0  0
   29.1700  -19.9374   -5.8276 C   0  0  0  0  0  0  0  0  0  0  0  0
   28.8902  -20.1629   -7.1800 C   0  0  0  0  0  0  0  0  0  0  0  0
   27.6165  -20.3510   -7.6242 C   0  0  0  0  0  0  0  0  0  0  0  0
   25.9140  -20.4347  -11.4297 C   0  0  0  0  0  0  0  0  0  0  0  0
   25.8991  -19.1854  -11.6359 O   0  0  0  0  0  0  0  0  0  0  0  0
   18.5498  -17.9298  -15.0629 O   0  0  0  0  0  0  0  0  0  0  0  0
   19.7246  -18.4980  -14.5889 C   0  0  0  0  0  0  0  0  0  0  0  0
   20.8451  -17.7307  -14.3335 C   0  0  0  0  0  0  0  0  0  0  0  0
   22.0210  -18.2798  -13.8618 C   0  0  0  0  0  0  0  0  0  0  0  0
   22.1175  -19.6524  -13.6234 C   0  0  0  0  0  0  0  0  0  0  0  0
   23.3843  -20.2319  -13.1258 C   0  0  0  0  0  0  0  0  0  0  0  0
   23.4087  -20.3937  -11.6415 C   0  0  2  0  0  0  0  0  0  0  0  0
   24.6493  -21.0641  -11.2849 N   0  0  0  0  0  0  0  0  0  0  0  0
   22.2369  -21.0429  -11.0533 C   0  0  0  0  0  0  0  0  0  0  0  0
   22.1638  -22.2968  -11.0510 O   0  0  0  0  0  0  0  0  0  0  0  0
   21.0019  -20.4081  -13.8793 C   0  0  0  0  0  0  0  0  0  0  0  0
   19.8054  -19.8621  -14.3572 C   0  0  0  0  0  0  0  0  0  0  0  0
   21.1697  -20.3670  -10.4814 O   0  0  0  0  0  0  0  0  0  0  0  0
  2  3  1  0
  2  1  1  6
  4  3  1  0
  5  4  2  0
  6  7  2  0
  6  2  1  0
  8  4  1  0
  9  6  1  0
 10  9  1  0
 10 11  1  1
 12 11  1  0
 13 12  2  0
 14 13  1  0
 15 14  1  0
 15 20  2  0
 16 15  1  0
 17 16  2  0
 17 18  1  0
 18 19  2  0
 19 20  1  0
 20 12  1  0
 21 30  1  0
 21 10  1  0
 22 21  2  0
 23 24  1  0
 24 34  2  0
 25 26  2  0
 25 24  1  0
 26 27  1  0
 27 28  1  0
 27 33  2  0
 29 28  1  6
 29 31  1  0
 29 30  1  0
 31 35  1  0
 32 31  2  0
 34 33  1  0
M  END
$$$$
