DWY.pdb
     RDKit          3D

 35 37  0  0  1  0  0  0  0  0999 V2000
   27.9459  -22.1975  -16.2709 N   0  0  0  0  0  0  0  0  0  0  0  0
   27.9323  -21.0789  -15.3815 C   0  0  1  0  0  0  0  0  0  0  0  0
   27.3447  -19.8922  -16.0973 C   0  0  0  0  0  0  0  0  0  0  0  0
   28.2495  -19.5189  -17.2070 C   0  0  0  0  0  0  0  0  0  0  0  0
   29.4761  -19.3489  -17.0200 O   0  0  0  0  0  0  0  0  0  0  0  0
   27.1670  -21.4014  -14.1377 C   0  0  0  0  0  0  0  0  0  0  0  0
   26.0177  -21.8885  -14.2492 O   0  0  0  0  0  0  0  0  0  0  0  0
   27.7324  -19.3536  -18.4780 O   0  0  0  0  0  0  0  0  0  0  0  0
   27.7286  -21.1618  -12.8637 N   0  0  0  0  0  0  0  0  0  0  0  0
   27.0539  -21.3688  -11.6319 C   0  0  1  0  0  0  0  0  0  0  0  0
   27.9217  -21.3372  -10.3836 C   0  0  0  0  0  0  0  0  0  0  0  0
   27.1768  -20.9726   -9.1591 C   0  0  0  0  0  0  0  0  0  0  0  0
   25.8364  -20.9302   -8.8958 C   0  0  0  0  0  0  0  0  0  0  0  0
   25.6609  -20.5399   -7.6195 N   0  0  0  0  0  0  0  0  0  0  0  0
   26.8430  -20.3217   -7.0251 C   0  0  0  0  0  0  0  0  0  0  0  0
   27.2379  -19.9237   -5.7664 C   0  0  0  0  0  0  0  0  0  0  0  0
   28.5801  -19.7841   -5.4283 C   0  0  0  0  0  0  0  0  0  0  0  0
   29.5282  -20.0486   -6.3683 C   0  0  0  0  0  0  0  0  0  0  0  0
   29.1228  -20.4523   -7.6453 C   0  0  0  0  0  0  0  0  0  0  0  0
   27.8064  -20.5860   -7.9679 C   0  0  0  0  0  0  0  0  0  0  0  0
   25.8118  -20.6496  -11.4228 C   0  0  0  0  0  0  0  0  0  0  0  0
   25.8585  -19.3861  -11.3516 O   0  0  0  0  0  0  0  0  0  0  0  0
   19.3739  -17.6117  -15.9289 O   0  0  0  0  0  0  0  0  0  0  0  0
   20.4061  -18.2849  -15.2893 C   0  0  0  0  0  0  0  0  0  0  0  0
   21.4178  -17.6038  -14.6396 C   0  0  0  0  0  0  0  0  0  0  0  0
   22.4514  -18.2577  -13.9986 C   0  0  0  0  0  0  0  0  0  0  0  0
   22.5086  -19.6530  -13.9861 C   0  0  0  0  0  0  0  0  0  0  0  0
   23.6244  -20.3438  -13.3035 C   0  0  0  0  0  0  0  0  0  0  0  0
   23.3370  -20.6394  -11.8682 C   0  0  2  0  0  0  0  0  0  0  0  0
   24.5277  -21.2408  -11.2883 N   0  0  0  0  0  0  0  0  0  0  0  0
   22.1331  -21.4297  -11.6104 C   0  0  0  0  0  0  0  0  0  0  0  0
   21.1806  -20.9118  -10.9760 O   0  0  0  0  0  0  0  0  0  0  0  0
   21.5015  -20.3226  -14.6329 C   0  0  0  0  0  0  0  0  0  0  0  0
   20.4495  -19.6701  -15.2854 C   0  0  0  0  0  0  0  0  0  0  0  0
   21.9526  -22.7416  -12.0212 O   0  0  0  0  0  0  0  0  0  0  0  0
  2  3  1  0
  2  1  1  6
  4  3  1  0
  5  4  2  0
  6  7  2  0
  6  2  1  0
  8  4  1  0
  9  6  1  0
 10  9  1  0
 10 11  1  1
 12 11  1  0
 13 12  2  0
 14 13  1  0
 15 14  1  0
 15 20  2  0
 16 15  1  0
 17 16  2  0
 17 18  1  0
 18 19  2  0
 19 20  1  0
 20 12  1  0
 21 30  1  0
 21 10  1  0
 22 21  2  0
 23 24  1  0
 24 34  2  0
 25 26  2  0
 25 24  1  0
 26 27  1  0
 27 28  1  0
 27 33  2  0
 29 28  1  6
 29 31  1  0
 29 30  1  0
 31 35  1  0
 32 31  2  0
 34 33  1  0
M  END
$$$$
