DWY.pdb
     RDKit          3D

 35 37  0  0  1  0  0  0  0  0999 V2000
   27.7562  -21.9760  -16.6163 N   0  0  0  0  0  0  0  0  0  0  0  0
   27.3477  -20.8630  -15.8183 C   0  0  1  0  0  0  0  0  0  0  0  0
   27.1686  -19.6625  -16.7085 C   0  0  0  0  0  0  0  0  0  0  0  0
   28.4888  -19.2884  -17.2623 C   0  0  0  0  0  0  0  0  0  0  0  0
   29.5305  -19.3588  -16.5706 O   0  0  0  0  0  0  0  0  0  0  0  0
   26.0925  -21.1811  -15.0699 C   0  0  0  0  0  0  0  0  0  0  0  0
   24.9997  -21.1295  -15.6811 O   0  0  0  0  0  0  0  0  0  0  0  0
   28.5769  -18.8514  -18.5705 O   0  0  0  0  0  0  0  0  0  0  0  0
   26.1385  -21.5325  -13.7023 N   0  0  0  0  0  0  0  0  0  0  0  0
   24.9982  -21.7713  -12.8911 C   0  0  1  0  0  0  0  0  0  0  0  0
   25.2730  -22.3264  -11.5024 C   0  0  0  0  0  0  0  0  0  0  0  0
   26.0057  -21.3854  -10.6277 C   0  0  0  0  0  0  0  0  0  0  0  0
   25.5627  -20.4395   -9.7463 C   0  0  0  0  0  0  0  0  0  0  0  0
   26.6299  -19.8434   -9.1828 N   0  0  0  0  0  0  0  0  0  0  0  0
   27.7695  -20.3635   -9.6614 C   0  0  0  0  0  0  0  0  0  0  0  0
   29.1099  -20.1366   -9.4366 C   0  0  0  0  0  0  0  0  0  0  0  0
   30.0976  -20.8581  -10.0992 C   0  0  0  0  0  0  0  0  0  0  0  0
   29.7277  -21.8145  -10.9942 C   0  0  0  0  0  0  0  0  0  0  0  0
   28.3654  -22.0417  -11.2196 C   0  0  0  0  0  0  0  0  0  0  0  0
   27.4050  -21.3303  -10.5666 C   0  0  0  0  0  0  0  0  0  0  0  0
   23.9818  -20.7374  -12.8486 C   0  0  0  0  0  0  0  0  0  0  0  0
   24.2035  -19.7114  -12.1402 O   0  0  0  0  0  0  0  0  0  0  0  0
   17.7013  -14.8350  -14.3171 O   0  0  0  0  0  0  0  0  0  0  0  0
   18.7034  -15.7955  -14.3474 C   0  0  0  0  0  0  0  0  0  0  0  0
   19.8503  -15.6655  -13.5876 C   0  0  0  0  0  0  0  0  0  0  0  0
   20.8563  -16.6113  -13.6060 C   0  0  0  0  0  0  0  0  0  0  0  0
   20.7451  -17.7498  -14.4071 C   0  0  0  0  0  0  0  0  0  0  0  0
   21.8320  -18.7530  -14.4258 C   0  0  0  0  0  0  0  0  0  0  0  0
   21.7152  -19.7602  -13.3295 C   0  0  2  0  0  0  0  0  0  0  0  0
   22.7412  -20.7700  -13.5388 N   0  0  0  0  0  0  0  0  0  0  0  0
   20.3878  -20.3466  -13.1433 C   0  0  0  0  0  0  0  0  0  0  0  0
   20.0988  -21.4166  -13.7343 O   0  0  0  0  0  0  0  0  0  0  0  0
   19.6045  -17.8723  -15.1587 C   0  0  0  0  0  0  0  0  0  0  0  0
   18.5790  -16.9202  -15.1476 C   0  0  0  0  0  0  0  0  0  0  0  0
   19.3942  -19.8015  -12.3444 O   0  0  0  0  0  0  0  0  0  0  0  0
  2  3  1  0
  2  1  1  6
  4  3  1  0
  5  4  2  0
  6  7  2  0
  6  2  1  0
  8  4  1  0
  9  6  1  0
 10  9  1  0
 10 11  1  1
 12 11  1  0
 13 12  2  0
 14 13  1  0
 15 14  1  0
 15 20  2  0
 16 15  1  0
 17 16  2  0
 17 18  1  0
 18 19  2  0
 19 20  1  0
 20 12  1  0
 21 30  1  0
 21 10  1  0
 22 21  2  0
 23 24  1  0
 24 34  2  0
 25 26  2  0
 25 24  1  0
 26 27  1  0
 27 28  1  0
 27 33  2  0
 29 28  1  6
 29 31  1  0
 29 30  1  0
 31 35  1  0
 32 31  2  0
 34 33  1  0
M  END
$$$$
