DWY.pdb
     RDKit          3D

 35 37  0  0  1  0  0  0  0  0999 V2000
   20.3754  -11.9908  -16.1643 N   0  0  0  0  0  0  0  0  0  0  0  0
   20.1218  -10.8955  -17.0466 C   0  0  1  0  0  0  0  0  0  0  0  0
   18.7440  -11.0488  -17.6331 C   0  0  0  0  0  0  0  0  0  0  0  0
   18.7245  -12.2678  -18.4718 C   0  0  0  0  0  0  0  0  0  0  0  0
   18.2376  -13.3420  -18.0507 O   0  0  0  0  0  0  0  0  0  0  0  0
   20.2682   -9.5923  -16.3275 C   0  0  0  0  0  0  0  0  0  0  0  0
   19.4197   -9.2884  -15.4568 O   0  0  0  0  0  0  0  0  0  0  0  0
   19.2543  -12.2223  -19.7475 O   0  0  0  0  0  0  0  0  0  0  0  0
   21.3411   -8.7223  -16.6240 N   0  0  0  0  0  0  0  0  0  0  0  0
   21.5715   -7.4767  -15.9833 C   0  0  1  0  0  0  0  0  0  0  0  0
   23.0105   -7.1884  -15.5854 C   0  0  0  0  0  0  0  0  0  0  0  0
   23.6862   -8.3396  -14.9486 C   0  0  0  0  0  0  0  0  0  0  0  0
   23.3117   -9.1463  -13.9109 C   0  0  0  0  0  0  0  0  0  0  0  0
   24.2751  -10.0649  -13.7108 N   0  0  0  0  0  0  0  0  0  0  0  0
   25.2789   -9.8949  -14.5836 C   0  0  0  0  0  0  0  0  0  0  0  0
   26.4764  -10.5336  -14.8223 C   0  0  0  0  0  0  0  0  0  0  0  0
   27.3390  -10.1217  -15.8329 C   0  0  0  0  0  0  0  0  0  0  0  0
   26.9887   -9.0580  -16.6065 C   0  0  0  0  0  0  0  0  0  0  0  0
   25.7720   -8.4122  -16.3606 C   0  0  0  0  0  0  0  0  0  0  0  0
   24.9335   -8.8219  -15.3686 C   0  0  0  0  0  0  0  0  0  0  0  0
   20.9444   -6.3034  -16.5611 C   0  0  0  0  0  0  0  0  0  0  0  0
   21.0214   -6.1420  -17.8148 O   0  0  0  0  0  0  0  0  0  0  0  0
   15.6908   -0.7840  -20.3298 O   0  0  0  0  0  0  0  0  0  0  0  0
   16.4134   -1.7531  -19.6467 C   0  0  0  0  0  0  0  0  0  0  0  0
   17.6892   -2.1113  -20.0385 C   0  0  0  0  0  0  0  0  0  0  0  0
   18.4214   -3.0727  -19.3703 C   0  0  0  0  0  0  0  0  0  0  0  0
   17.8867   -3.7255  -18.2575 C   0  0  0  0  0  0  0  0  0  0  0  0
   18.6761   -4.7597  -17.5536 C   0  0  0  0  0  0  0  0  0  0  0  0
   19.5775   -4.1934  -16.5063 C   0  0  2  0  0  0  0  0  0  0  0  0
   20.2408   -5.3030  -15.8395 N   0  0  0  0  0  0  0  0  0  0  0  0
   18.9514   -3.2700  -15.5599 C   0  0  0  0  0  0  0  0  0  0  0  0
   18.3334   -3.7301  -14.5679 O   0  0  0  0  0  0  0  0  0  0  0  0
   16.6200   -3.3653  -17.8743 C   0  0  0  0  0  0  0  0  0  0  0  0
   15.8694   -2.3925  -18.5439 C   0  0  0  0  0  0  0  0  0  0  0  0
   18.9859   -1.8884  -15.6720 O   0  0  0  0  0  0  0  0  0  0  0  0
  2  3  1  0
  2  1  1  1
  4  3  1  0
  5  4  2  0
  6  7  2  0
  6  2  1  0
  8  4  1  0
  9  6  1  0
 10  9  1  0
 10 11  1  6
 12 11  1  0
 13 12  2  0
 14 13  1  0
 15 14  1  0
 15 20  2  0
 16 15  1  0
 17 16  2  0
 17 18  1  0
 18 19  2  0
 19 20  1  0
 20 12  1  0
 21 30  1  0
 21 10  1  0
 22 21  2  0
 23 24  1  0
 24 34  2  0
 25 26  2  0
 25 24  1  0
 26 27  1  0
 27 28  1  0
 27 33  2  0
 29 28  1  6
 29 31  1  0
 29 30  1  0
 31 35  1  0
 32 31  2  0
 34 33  1  0
M  END
$$$$
