DWY.pdb
     RDKit          3D

 35 37  0  0  1  0  0  0  0  0999 V2000
   28.1279  -23.6236  -17.3366 N   0  0  0  0  0  0  0  0  0  0  0  0
   27.0759  -22.6618  -17.4392 C   0  0  1  0  0  0  0  0  0  0  0  0
   26.0815  -23.1324  -18.4667 C   0  0  0  0  0  0  0  0  0  0  0  0
   26.7324  -23.1062  -19.7953 C   0  0  0  0  0  0  0  0  0  0  0  0
   27.5646  -22.2204  -20.0972 O   0  0  0  0  0  0  0  0  0  0  0  0
   26.4268  -22.4441  -16.1095 C   0  0  0  0  0  0  0  0  0  0  0  0
   26.4496  -23.3748  -15.2707 O   0  0  0  0  0  0  0  0  0  0  0  0
   26.4167  -24.0791  -20.7249 O   0  0  0  0  0  0  0  0  0  0  0  0
   25.8010  -21.2143  -15.8060 N   0  0  0  0  0  0  0  0  0  0  0  0
   25.2561  -20.8766  -14.5394 C   0  0  1  0  0  0  0  0  0  0  0  0
   25.8231  -19.6283  -13.8817 C   0  0  0  0  0  0  0  0  0  0  0  0
   27.2516  -19.7521  -13.5194 C   0  0  0  0  0  0  0  0  0  0  0  0
   28.3851  -19.3305  -14.1559 C   0  0  0  0  0  0  0  0  0  0  0  0
   29.4513  -19.6802  -13.4124 N   0  0  0  0  0  0  0  0  0  0  0  0
   29.0626  -20.3211  -12.3005 C   0  0  0  0  0  0  0  0  0  0  0  0
   29.7155  -20.8778  -11.2223 C   0  0  0  0  0  0  0  0  0  0  0  0
   29.0242  -21.4921  -10.1830 C   0  0  0  0  0  0  0  0  0  0  0  0
   27.6651  -21.5437  -10.2344 C   0  0  0  0  0  0  0  0  0  0  0  0
   27.0060  -20.9773  -11.3312 C   0  0  0  0  0  0  0  0  0  0  0  0
   27.6908  -20.3781  -12.3446 C   0  0  0  0  0  0  0  0  0  0  0  0
   23.8136  -20.9322  -14.3978 C   0  0  0  0  0  0  0  0  0  0  0  0
   23.1041  -20.4124  -15.3088 O   0  0  0  0  0  0  0  0  0  0  0  0
   15.6260  -23.2938  -11.8880 O   0  0  0  0  0  0  0  0  0  0  0  0
   16.9974  -23.0855  -11.9502 C   0  0  0  0  0  0  0  0  0  0  0  0
   17.8081  -23.8580  -12.7598 C   0  0  0  0  0  0  0  0  0  0  0  0
   19.1734  -23.6641  -12.8334 C   0  0  0  0  0  0  0  0  0  0  0  0
   19.7895  -22.6635  -12.0789 C   0  0  0  0  0  0  0  0  0  0  0  0
   21.2538  -22.4692  -12.1589 C   0  0  0  0  0  0  0  0  0  0  0  0
   21.6593  -21.5304  -13.2470 C   0  0  2  0  0  0  0  0  0  0  0  0
   23.1123  -21.5250  -13.3146 N   0  0  0  0  0  0  0  0  0  0  0  0
   21.1016  -20.1804  -13.1628 C   0  0  0  0  0  0  0  0  0  0  0  0
   21.7041  -19.3059  -12.4920 O   0  0  0  0  0  0  0  0  0  0  0  0
   18.9790  -21.9007  -11.2775 C   0  0  0  0  0  0  0  0  0  0  0  0
   17.5948  -22.0885  -11.1953 C   0  0  0  0  0  0  0  0  0  0  0  0
   19.9283  -19.7761  -13.7811 O   0  0  0  0  0  0  0  0  0  0  0  0
  2  3  1  0
  2  1  1  1
  4  3  1  0
  5  4  2  0
  6  7  2  0
  6  2  1  0
  8  4  1  0
  9  6  1  0
 10  9  1  0
 10 11  1  6
 12 11  1  0
 13 12  2  0
 14 13  1  0
 15 14  1  0
 15 20  2  0
 16 15  1  0
 17 16  2  0
 17 18  1  0
 18 19  2  0
 19 20  1  0
 20 12  1  0
 21 30  1  0
 21 10  1  0
 22 21  2  0
 23 24  1  0
 24 34  2  0
 25 26  2  0
 25 24  1  0
 26 27  1  0
 27 28  1  0
 27 33  2  0
 29 28  1  1
 29 31  1  0
 29 30  1  0
 31 35  1  0
 32 31  2  0
 34 33  1  0
M  END
$$$$
