DWY.pdb
     RDKit          3D

 35 37  0  0  1  0  0  0  0  0999 V2000
   25.7118  -12.5135  -20.5260 N   0  0  0  0  0  0  0  0  0  0  0  0
   24.5032  -11.7923  -20.7743 C   0  0  1  0  0  0  0  0  0  0  0  0
   23.3374  -12.6080  -20.2830 C   0  0  0  0  0  0  0  0  0  0  0  0
   23.1749  -13.7779  -21.1744 C   0  0  0  0  0  0  0  0  0  0  0  0
   23.7312  -13.8266  -22.2954 O   0  0  0  0  0  0  0  0  0  0  0  0
   24.5452  -10.4484  -20.1194 C   0  0  0  0  0  0  0  0  0  0  0  0
   24.8567  -10.3806  -18.9074 O   0  0  0  0  0  0  0  0  0  0  0  0
   22.3930  -14.8408  -20.7634 O   0  0  0  0  0  0  0  0  0  0  0  0
   24.2399   -9.2799  -20.8524 N   0  0  0  0  0  0  0  0  0  0  0  0
   24.1728   -7.9742  -20.2993 C   0  0  1  0  0  0  0  0  0  0  0  0
   23.9826   -6.8388  -21.2928 C   0  0  0  0  0  0  0  0  0  0  0  0
   24.0936   -5.4972  -20.6804 C   0  0  0  0  0  0  0  0  0  0  0  0
   24.9170   -5.0161  -19.7014 C   0  0  0  0  0  0  0  0  0  0  0  0
   24.6317   -3.7162  -19.4998 N   0  0  0  0  0  0  0  0  0  0  0  0
   23.6443   -3.3170  -20.3147 C   0  0  0  0  0  0  0  0  0  0  0  0
   22.9814   -2.1277  -20.5265 C   0  0  0  0  0  0  0  0  0  0  0  0
   21.9697   -2.0101  -21.4741 C   0  0  0  0  0  0  0  0  0  0  0  0
   21.6266   -3.1013  -22.2117 C   0  0  0  0  0  0  0  0  0  0  0  0
   22.3023   -4.3071  -21.9933 C   0  0  0  0  0  0  0  0  0  0  0  0
   23.2913   -4.4134  -21.0631 C   0  0  0  0  0  0  0  0  0  0  0  0
   23.3380   -7.7883  -19.1278 C   0  0  0  0  0  0  0  0  0  0  0  0
   22.1062   -8.0661  -19.2226 O   0  0  0  0  0  0  0  0  0  0  0  0
   19.4831   -8.6114  -11.4860 O   0  0  0  0  0  0  0  0  0  0  0  0
   20.4143   -8.5164  -12.5115 C   0  0  0  0  0  0  0  0  0  0  0  0
   20.3982   -7.4623  -13.4049 C   0  0  0  0  0  0  0  0  0  0  0  0
   21.3167   -7.3527  -14.4302 C   0  0  0  0  0  0  0  0  0  0  0  0
   22.3091   -8.3204  -14.6001 C   0  0  0  0  0  0  0  0  0  0  0  0
   23.2834   -8.1979  -15.7064 C   0  0  0  0  0  0  0  0  0  0  0  0
   22.8807   -7.1872  -16.7293 C   0  0  2  0  0  0  0  0  0  0  0  0
   23.7815   -7.3160  -17.8641 N   0  0  0  0  0  0  0  0  0  0  0  0
   22.7789   -5.8072  -16.2541 C   0  0  0  0  0  0  0  0  0  0  0  0
   21.8719   -5.5013  -15.4408 O   0  0  0  0  0  0  0  0  0  0  0  0
   22.3191   -9.3639  -13.7101 C   0  0  0  0  0  0  0  0  0  0  0  0
   21.3934   -9.4848  -12.6677 C   0  0  0  0  0  0  0  0  0  0  0  0
   23.6268   -4.7800  -16.6394 O   0  0  0  0  0  0  0  0  0  0  0  0
  2  3  1  0
  2  1  1  1
  4  3  1  0
  5  4  2  0
  6  7  2  0
  6  2  1  0
  8  4  1  0
  9  6  1  0
 10  9  1  0
 10 11  1  6
 12 11  1  0
 13 12  2  0
 14 13  1  0
 15 14  1  0
 15 20  2  0
 16 15  1  0
 17 16  2  0
 17 18  1  0
 18 19  2  0
 19 20  1  0
 20 12  1  0
 21 30  1  0
 21 10  1  0
 22 21  2  0
 23 24  1  0
 24 34  2  0
 25 26  2  0
 25 24  1  0
 26 27  1  0
 27 28  1  0
 27 33  2  0
 29 28  1  1
 29 31  1  0
 29 30  1  0
 31 35  1  0
 32 31  2  0
 34 33  1  0
M  END
$$$$
