DWY.pdb
     RDKit          3D

 35 37  0  0  1  0  0  0  0  0999 V2000
   28.9839  -21.1705  -17.5362 N   0  0  0  0  0  0  0  0  0  0  0  0
   28.2932  -22.3907  -17.2594 C   0  0  1  0  0  0  0  0  0  0  0  0
   29.2879  -23.5201  -17.2312 C   0  0  0  0  0  0  0  0  0  0  0  0
   29.8699  -23.6661  -18.5839 C   0  0  0  0  0  0  0  0  0  0  0  0
   29.4390  -23.0029  -19.5549 O   0  0  0  0  0  0  0  0  0  0  0  0
   27.5410  -22.2921  -15.9705 C   0  0  0  0  0  0  0  0  0  0  0  0
   27.0466  -23.3351  -15.4826 O   0  0  0  0  0  0  0  0  0  0  0  0
   30.9114  -24.5528  -18.7824 O   0  0  0  0  0  0  0  0  0  0  0  0
   27.3914  -21.0485  -15.3170 N   0  0  0  0  0  0  0  0  0  0  0  0
   26.7047  -20.8591  -14.0891 C   0  0  1  0  0  0  0  0  0  0  0  0
   27.2585  -19.7763  -13.1763 C   0  0  0  0  0  0  0  0  0  0  0  0
   27.9933  -20.3106  -12.0093 C   0  0  0  0  0  0  0  0  0  0  0  0
   29.2647  -20.7973  -11.8874 C   0  0  0  0  0  0  0  0  0  0  0  0
   29.4663  -21.1573  -10.6061 N   0  0  0  0  0  0  0  0  0  0  0  0
   28.3689  -20.9248   -9.8713 C   0  0  0  0  0  0  0  0  0  0  0  0
   28.0336  -21.0970   -8.5459 C   0  0  0  0  0  0  0  0  0  0  0  0
   26.7792  -20.7491   -8.0552 C   0  0  0  0  0  0  0  0  0  0  0  0
   25.8589  -20.2242   -8.9096 C   0  0  0  0  0  0  0  0  0  0  0  0
   26.2035  -20.0512  -10.2548 C   0  0  0  0  0  0  0  0  0  0  0  0
   27.4339  -20.3949  -10.7268 C   0  0  0  0  0  0  0  0  0  0  0  0
   25.2558  -20.8121  -14.1356 C   0  0  0  0  0  0  0  0  0  0  0  0
   24.7105  -19.9493  -14.8851 O   0  0  0  0  0  0  0  0  0  0  0  0
   16.6273  -22.7276  -13.3320 O   0  0  0  0  0  0  0  0  0  0  0  0
   18.0151  -22.7565  -13.3031 C   0  0  0  0  0  0  0  0  0  0  0  0
   18.7132  -22.6899  -12.1124 C   0  0  0  0  0  0  0  0  0  0  0  0
   20.0930  -22.7176  -12.0659 C   0  0  0  0  0  0  0  0  0  0  0  0
   20.8406  -22.8154  -13.2414 C   0  0  0  0  0  0  0  0  0  0  0  0
   22.3185  -22.8361  -13.1813 C   0  0  0  0  0  0  0  0  0  0  0  0
   22.9328  -21.5055  -13.4674 C   0  0  2  0  0  0  0  0  0  0  0  0
   24.3782  -21.6577  -13.4068 N   0  0  0  0  0  0  0  0  0  0  0  0
   22.4558  -20.3944  -12.6437 C   0  0  0  0  0  0  0  0  0  0  0  0
   23.0325  -20.1416  -11.5569 O   0  0  0  0  0  0  0  0  0  0  0  0
   20.1415  -22.8808  -14.4195 C   0  0  0  0  0  0  0  0  0  0  0  0
   18.7437  -22.8537  -14.4781 C   0  0  0  0  0  0  0  0  0  0  0  0
   21.3881  -19.5740  -12.9748 O   0  0  0  0  0  0  0  0  0  0  0  0
  2  3  1  0
  2  1  1  1
  4  3  1  0
  5  4  2  0
  6  7  2  0
  6  2  1  0
  8  4  1  0
  9  6  1  0
 10  9  1  0
 10 11  1  6
 12 11  1  0
 13 12  2  0
 14 13  1  0
 15 14  1  0
 15 20  2  0
 16 15  1  0
 17 16  2  0
 17 18  1  0
 18 19  2  0
 19 20  1  0
 20 12  1  0
 21 30  1  0
 21 10  1  0
 22 21  2  0
 23 24  1  0
 24 34  2  0
 25 26  2  0
 25 24  1  0
 26 27  1  0
 27 28  1  0
 27 33  2  0
 29 28  1  1
 29 31  1  0
 29 30  1  0
 31 35  1  0
 32 31  2  0
 34 33  1  0
M  END
$$$$
