DWY.pdb
     RDKit          3D

 35 37  0  0  1  0  0  0  0  0999 V2000
   29.0941  -23.5091  -17.4775 N   0  0  0  0  0  0  0  0  0  0  0  0
   28.4319  -22.2542  -17.3062 C   0  0  1  0  0  0  0  0  0  0  0  0
   27.5444  -22.0032  -18.4958 C   0  0  0  0  0  0  0  0  0  0  0  0
   28.4013  -21.7913  -19.6834 C   0  0  0  0  0  0  0  0  0  0  0  0
   28.4325  -22.6198  -20.6220 O   0  0  0  0  0  0  0  0  0  0  0  0
   27.6530  -22.2372  -16.0295 C   0  0  0  0  0  0  0  0  0  0  0  0
   26.8964  -23.2032  -15.7748 O   0  0  0  0  0  0  0  0  0  0  0  0
   29.1850  -20.6555  -19.7609 O   0  0  0  0  0  0  0  0  0  0  0  0
   27.7682  -21.1542  -15.1296 N   0  0  0  0  0  0  0  0  0  0  0  0
   27.0649  -21.0466  -13.9012 C   0  0  1  0  0  0  0  0  0  0  0  0
   27.6492  -20.0821  -12.8812 C   0  0  0  0  0  0  0  0  0  0  0  0
   26.9620  -20.1234  -11.5723 C   0  0  0  0  0  0  0  0  0  0  0  0
   25.6969  -19.7603  -11.2040 C   0  0  0  0  0  0  0  0  0  0  0  0
   25.5469  -19.9994   -9.8878 N   0  0  0  0  0  0  0  0  0  0  0  0
   26.6726  -20.5109   -9.3688 C   0  0  0  0  0  0  0  0  0  0  0  0
   27.0608  -20.9291   -8.1146 C   0  0  0  0  0  0  0  0  0  0  0  0
   28.3335  -21.4352   -7.8711 C   0  0  0  0  0  0  0  0  0  0  0  0
   29.2186  -21.5188   -8.9017 C   0  0  0  0  0  0  0  0  0  0  0  0
   28.8204  -21.0928  -10.1737 C   0  0  0  0  0  0  0  0  0  0  0  0
   27.5723  -20.5982  -10.4032 C   0  0  0  0  0  0  0  0  0  0  0  0
   25.6211  -20.9247  -13.9680 C   0  0  0  0  0  0  0  0  0  0  0  0
   25.1336  -19.9583  -14.6252 O   0  0  0  0  0  0  0  0  0  0  0  0
   16.9067  -22.6386  -13.4807 O   0  0  0  0  0  0  0  0  0  0  0  0
   18.2905  -22.6984  -13.3850 C   0  0  0  0  0  0  0  0  0  0  0  0
   19.0833  -22.8838  -14.5015 C   0  0  0  0  0  0  0  0  0  0  0  0
   20.4607  -22.9454  -14.4239 C   0  0  0  0  0  0  0  0  0  0  0  0
   21.1082  -22.8203  -13.1929 C   0  0  0  0  0  0  0  0  0  0  0  0
   22.5837  -22.8959  -13.1195 C   0  0  0  0  0  0  0  0  0  0  0  0
   23.2522  -21.6084  -13.4736 C   0  0  2  0  0  0  0  0  0  0  0  0
   24.6888  -21.8029  -13.3546 N   0  0  0  0  0  0  0  0  0  0  0  0
   22.7884  -20.4289  -12.7426 C   0  0  0  0  0  0  0  0  0  0  0  0
   22.0922  -19.5697  -13.3383 O   0  0  0  0  0  0  0  0  0  0  0  0
   20.3153  -22.6368  -12.0890 C   0  0  0  0  0  0  0  0  0  0  0  0
   18.9191  -22.5726  -12.1562 C   0  0  0  0  0  0  0  0  0  0  0  0
   23.0627  -20.1751  -11.4074 O   0  0  0  0  0  0  0  0  0  0  0  0
  2  3  1  0
  2  1  1  6
  4  3  1  0
  5  4  2  0
  6  7  2  0
  6  2  1  0
  8  4  1  0
  9  6  1  0
 10  9  1  0
 10 11  1  6
 12 11  1  0
 13 12  2  0
 14 13  1  0
 15 14  1  0
 15 20  2  0
 16 15  1  0
 17 16  2  0
 17 18  1  0
 18 19  2  0
 19 20  1  0
 20 12  1  0
 21 30  1  0
 21 10  1  0
 22 21  2  0
 23 24  1  0
 24 34  2  0
 25 26  2  0
 25 24  1  0
 26 27  1  0
 27 28  1  0
 27 33  2  0
 29 28  1  1
 29 31  1  0
 29 30  1  0
 31 35  1  0
 32 31  2  0
 34 33  1  0
M  END
$$$$
