ADR.pdb
     RDKit          3D

 25 24  0  0  1  0  0  0  0  0999 V2000
    9.2227  -19.0065   17.4385 C   0  0  0  0  0  0  0  0  0  0  0  0
    9.8403  -17.6953   17.9441 C   0  0  2  0  0  0  0  0  0  0  0  0
   10.9929  -17.4049   17.1128 N   0  0  0  0  0  0  0  0  0  0  0  0
   10.2042  -17.8066   19.3746 C   0  0  0  0  0  0  0  0  0  0  0  0
    9.3052  -18.0047   20.2257 O   0  0  0  0  0  0  0  0  0  0  0  0
   11.5484  -17.6993   19.8532 N   0  0  0  0  0  0  0  0  0  0  0  0
   11.8731  -17.8630   21.2567 C   0  0  1  0  0  0  0  0  0  0  0  0
   13.3438  -18.0531   21.3875 C   0  0  0  0  0  0  0  0  0  0  0  0
   13.8381  -19.2962   20.7542 C   0  0  0  0  0  0  0  0  0  0  0  0
   14.6751  -19.2901   19.8402 O   0  0  0  0  0  0  0  0  0  0  0  0
   11.3492  -16.7131   22.0027 C   0  0  0  0  0  0  0  0  0  0  0  0
   11.9095  -15.5750   21.8545 O   0  0  0  0  0  0  0  0  0  0  0  0
   13.3544  -20.5318   21.1894 O   0  0  0  0  0  0  0  0  0  0  0  0
    8.5875  -11.5969   19.7039 N   0  0  0  0  0  0  0  0  0  0  0  0
    8.4627  -13.0023   19.4892 C   0  0  0  0  0  0  0  0  0  0  0  0
    9.1742  -13.5261   18.5573 N   0  0  0  0  0  0  0  0  0  0  0  0
    7.5763  -13.7564   20.2990 N   0  0  0  0  0  0  0  0  0  0  0  0
    7.3955  -13.4269   21.6718 C   0  0  0  0  0  0  0  0  0  0  0  0
    8.6040  -13.7460   22.5463 C   0  0  0  0  0  0  0  0  0  0  0  0
    8.5252  -15.2023   22.8576 C   0  0  0  0  0  0  0  0  0  0  0  0
    9.7099  -15.7259   23.5937 C   0  0  2  0  0  0  0  0  0  0  0  0
   10.2466  -16.8969   22.8585 N   0  0  0  0  0  0  0  0  0  0  0  0
    9.3477  -16.2068   24.9468 C   0  0  0  0  0  0  0  0  0  0  0  0
    9.2049  -17.4284   25.1499 O   0  0  0  0  0  0  0  0  0  0  0  0
    9.1538  -15.3586   26.0250 O   0  0  0  0  0  0  0  0  0  0  0  0
  2  1  1  6
  3  2  1  0
  4  2  1  0
  4  5  2  0
  6  4  1  0
  7  6  1  0
  7 11  1  0
  7  8  1  6
  9  8  1  0
 10  9  2  0
 11 12  2  0
 13  9  1  0
 15 14  1  0
 16 15  2  0
 17 15  1  0
 18 17  1  0
 19 18  1  0
 20 19  1  0
 21 20  1  6
 22 11  1  0
 22 21  1  0
 23 25  1  0
 23 21  1  0
 24 23  2  0
M  END
$$$$
