ADR.pdb
     RDKit          3D

 25 24  0  0  1  0  0  0  0  0999 V2000
    8.6583  -20.6105   15.5827 C   0  0  0  0  0  0  0  0  0  0  0  0
    8.7651  -19.5965   16.7302 C   0  0  2  0  0  0  0  0  0  0  0  0
   10.0285  -18.8995   16.5825 N   0  0  0  0  0  0  0  0  0  0  0  0
    8.6588  -20.2771   18.0404 C   0  0  0  0  0  0  0  0  0  0  0  0
    8.7948  -21.5220   18.1012 O   0  0  0  0  0  0  0  0  0  0  0  0
    8.4049  -19.5844   19.2664 N   0  0  0  0  0  0  0  0  0  0  0  0
    8.6839  -20.1880   20.5547 C   0  0  1  0  0  0  0  0  0  0  0  0
   10.1379  -20.4983   20.6317 C   0  0  0  0  0  0  0  0  0  0  0  0
   10.5487  -21.0901   21.9245 C   0  0  0  0  0  0  0  0  0  0  0  0
   10.0568  -22.1404   22.3619 O   0  0  0  0  0  0  0  0  0  0  0  0
    8.2062  -19.2907   21.6131 C   0  0  0  0  0  0  0  0  0  0  0  0
    8.5446  -18.0597   21.5770 O   0  0  0  0  0  0  0  0  0  0  0  0
   11.5255  -20.4555   22.6946 O   0  0  0  0  0  0  0  0  0  0  0  0
    1.9714  -21.1501   20.7672 N   0  0  0  0  0  0  0  0  0  0  0  0
    1.2494  -19.9482   21.0340 C   0  0  0  0  0  0  0  0  0  0  0  0
    0.1984  -19.7187   20.3328 N   0  0  0  0  0  0  0  0  0  0  0  0
    1.7082  -19.0683   22.0467 N   0  0  0  0  0  0  0  0  0  0  0  0
    3.1005  -18.8262   22.2162 C   0  0  0  0  0  0  0  0  0  0  0  0
    3.7087  -19.5428   23.4176 C   0  0  0  0  0  0  0  0  0  0  0  0
    5.0142  -20.0990   22.9592 C   0  0  0  0  0  0  0  0  0  0  0  0
    6.1276  -19.1091   22.9693 C   0  0  2  0  0  0  0  0  0  0  0  0
    7.3907  -19.8113   22.6356 N   0  0  0  0  0  0  0  0  0  0  0  0
    6.3187  -18.5109   24.3105 C   0  0  0  0  0  0  0  0  0  0  0  0
    5.4335  -17.7758   24.7903 O   0  0  0  0  0  0  0  0  0  0  0  0
    7.4500  -18.7256   25.0812 O   0  0  0  0  0  0  0  0  0  0  0  0
  2  1  1  6
  3  2  1  0
  4  2  1  0
  4  5  2  0
  6  4  1  0
  7  6  1  0
  7 11  1  0
  7  8  1  1
  9  8  1  0
 10  9  2  0
 11 12  2  0
 13  9  1  0
 15 14  1  0
 16 15  2  0
 17 15  1  0
 18 17  1  0
 19 18  1  0
 20 19  1  0
 21 20  1  1
 22 11  1  0
 22 21  1  0
 23 25  1  0
 23 21  1  0
 24 23  2  0
M  END
$$$$
