ADR.pdb
     RDKit          3D

 25 24  0  0  1  0  0  0  0  0999 V2000
    8.0695  -12.5241   20.3584 C   0  0  0  0  0  0  0  0  0  0  0  0
    7.7282  -13.7486   19.4978 C   0  0  2  0  0  0  0  0  0  0  0  0
    6.2961  -13.9608   19.5864 N   0  0  0  0  0  0  0  0  0  0  0  0
    8.4918  -14.9336   19.9491 C   0  0  0  0  0  0  0  0  0  0  0  0
    7.9803  -15.7144   20.7861 O   0  0  0  0  0  0  0  0  0  0  0  0
    9.8058  -15.2471   19.4772 N   0  0  0  0  0  0  0  0  0  0  0  0
   10.4850  -16.4669   19.8678 C   0  0  1  0  0  0  0  0  0  0  0  0
   11.5353  -16.7728   18.8580 C   0  0  0  0  0  0  0  0  0  0  0  0
   12.1496  -18.1083   19.0297 C   0  0  0  0  0  0  0  0  0  0  0  0
   11.6746  -18.9671   19.7866 O   0  0  0  0  0  0  0  0  0  0  0  0
   10.9959  -16.3096   21.2344 C   0  0  0  0  0  0  0  0  0  0  0  0
   11.4979  -15.1870   21.5794 O   0  0  0  0  0  0  0  0  0  0  0  0
   13.3086  -18.4310   18.3206 O   0  0  0  0  0  0  0  0  0  0  0  0
    8.4937  -13.5889   27.8894 N   0  0  0  0  0  0  0  0  0  0  0  0
    9.6070  -14.3001   28.4294 C   0  0  0  0  0  0  0  0  0  0  0  0
   10.1514  -13.8314   29.4937 N   0  0  0  0  0  0  0  0  0  0  0  0
   10.0621  -15.4783   27.7851 N   0  0  0  0  0  0  0  0  0  0  0  0
    9.8337  -15.6744   26.3939 C   0  0  0  0  0  0  0  0  0  0  0  0
   10.4613  -16.9497   25.8403 C   0  0  0  0  0  0  0  0  0  0  0  0
   10.1677  -16.9627   24.3782 C   0  0  0  0  0  0  0  0  0  0  0  0
   11.3645  -17.2082   23.5256 C   0  0  2  0  0  0  0  0  0  0  0  0
   10.9183  -17.3979   22.1239 N   0  0  0  0  0  0  0  0  0  0  0  0
   12.0715  -18.4497   23.9153 C   0  0  0  0  0  0  0  0  0  0  0  0
   12.7213  -18.4820   24.9787 O   0  0  0  0  0  0  0  0  0  0  0  0
   12.0523  -19.6042   23.1496 O   0  0  0  0  0  0  0  0  0  0  0  0
  2  1  1  1
  3  2  1  0
  4  2  1  0
  4  5  2  0
  6  4  1  0
  7  6  1  0
  7 11  1  0
  7  8  1  6
  9  8  1  0
 10  9  2  0
 11 12  2  0
 13  9  1  0
 15 14  1  0
 16 15  2  0
 17 15  1  0
 18 17  1  0
 19 18  1  0
 20 19  1  0
 21 20  1  1
 22 11  1  0
 22 21  1  0
 23 25  1  0
 23 21  1  0
 24 23  2  0
M  END
$$$$
