ADR.pdb
     RDKit          3D

 25 24  0  0  1  0  0  0  0  0999 V2000
    8.3130  -13.3496   19.8122 C   0  0  0  0  0  0  0  0  0  0  0  0
    8.2196  -13.7573   18.3352 C   0  0  2  0  0  0  0  0  0  0  0  0
    6.8133  -13.8133   17.9845 N   0  0  0  0  0  0  0  0  0  0  0  0
    8.8985  -15.0526   18.1069 C   0  0  0  0  0  0  0  0  0  0  0  0
    8.2285  -16.1121   18.1287 O   0  0  0  0  0  0  0  0  0  0  0  0
   10.3027  -15.1697   17.8577 N   0  0  0  0  0  0  0  0  0  0  0  0
   10.9412  -16.4598   17.6850 C   0  0  1  0  0  0  0  0  0  0  0  0
   11.7516  -16.4282   16.4366 C   0  0  0  0  0  0  0  0  0  0  0  0
   12.3023  -17.7480   16.0555 C   0  0  0  0  0  0  0  0  0  0  0  0
   12.7261  -18.5590   16.8915 O   0  0  0  0  0  0  0  0  0  0  0  0
   11.7137  -16.7729   18.8928 C   0  0  0  0  0  0  0  0  0  0  0  0
   12.8741  -16.2581   19.0330 O   0  0  0  0  0  0  0  0  0  0  0  0
   12.3547  -18.1108   14.7080 O   0  0  0  0  0  0  0  0  0  0  0  0
   10.3679  -21.1858   17.9509 N   0  0  0  0  0  0  0  0  0  0  0  0
    9.1591  -21.6840   18.5232 C   0  0  0  0  0  0  0  0  0  0  0  0
    8.3710  -22.3505   17.7593 N   0  0  0  0  0  0  0  0  0  0  0  0
    8.8780  -21.4323   19.8899 N   0  0  0  0  0  0  0  0  0  0  0  0
    9.7882  -20.6838   20.6882 C   0  0  0  0  0  0  0  0  0  0  0  0
   11.2511  -21.0548   20.4664 C   0  0  0  0  0  0  0  0  0  0  0  0
   11.8557  -19.9352   19.6885 C   0  0  0  0  0  0  0  0  0  0  0  0
   12.0128  -18.6756   20.4685 C   0  0  2  0  0  0  0  0  0  0  0  0
   11.1551  -17.6299   19.8598 N   0  0  0  0  0  0  0  0  0  0  0  0
   13.4022  -18.1660   20.4151 C   0  0  0  0  0  0  0  0  0  0  0  0
   13.8228  -17.6286   19.3717 O   0  0  0  0  0  0  0  0  0  0  0  0
   14.2824  -18.2533   21.4816 O   0  0  0  0  0  0  0  0  0  0  0  0
  2  1  1  1
  3  2  1  0
  4  2  1  0
  4  5  2  0
  6  4  1  0
  7  6  1  0
  7 11  1  0
  7  8  1  6
  9  8  1  0
 10  9  2  0
 11 12  2  0
 13  9  1  0
 15 14  1  0
 16 15  2  0
 17 15  1  0
 18 17  1  0
 19 18  1  0
 20 19  1  0
 21 20  1  6
 22 11  1  0
 22 21  1  0
 23 25  1  0
 23 21  1  0
 24 23  2  0
M  END
$$$$
