ADR.pdb
     RDKit          3D

 25 24  0  0  1  0  0  0  0  0999 V2000
    8.7890  -18.3386   15.9976 C   0  0  0  0  0  0  0  0  0  0  0  0
    9.8998  -17.6499   16.8029 C   0  0  2  0  0  0  0  0  0  0  0  0
   11.1652  -17.9829   16.1770 N   0  0  0  0  0  0  0  0  0  0  0  0
    9.8559  -18.0725   18.2208 C   0  0  0  0  0  0  0  0  0  0  0  0
    8.8267  -17.8459   18.9000 O   0  0  0  0  0  0  0  0  0  0  0  0
   10.9405  -18.7377   18.8755 N   0  0  0  0  0  0  0  0  0  0  0  0
   10.8920  -19.0675   20.2865 C   0  0  1  0  0  0  0  0  0  0  0  0
   11.8141  -20.2079   20.5421 C   0  0  0  0  0  0  0  0  0  0  0  0
   11.2717  -21.5153   20.1097 C   0  0  0  0  0  0  0  0  0  0  0  0
   10.0754  -21.6802   19.8306 O   0  0  0  0  0  0  0  0  0  0  0  0
   11.1985  -17.8630   21.0666 C   0  0  0  0  0  0  0  0  0  0  0  0
   12.2543  -17.2004   20.7884 O   0  0  0  0  0  0  0  0  0  0  0  0
   12.1246  -22.6162   20.0067 O   0  0  0  0  0  0  0  0  0  0  0  0
    6.9184  -13.1151   19.9482 N   0  0  0  0  0  0  0  0  0  0  0  0
    8.0285  -13.2072   19.0560 C   0  0  0  0  0  0  0  0  0  0  0  0
    7.7870  -13.1271   17.7973 N   0  0  0  0  0  0  0  0  0  0  0  0
    9.3343  -13.3780   19.5813 N   0  0  0  0  0  0  0  0  0  0  0  0
    9.5228  -13.7174   20.9507 C   0  0  0  0  0  0  0  0  0  0  0  0
    8.9354  -15.0713   21.3363 C   0  0  0  0  0  0  0  0  0  0  0  0
    9.3820  -15.3411   22.7334 C   0  0  0  0  0  0  0  0  0  0  0  0
   10.5904  -16.2079   22.8227 C   0  0  2  0  0  0  0  0  0  0  0  0
   10.3221  -17.4733   22.0971 N   0  0  0  0  0  0  0  0  0  0  0  0
   10.8969  -16.5807   24.2227 C   0  0  0  0  0  0  0  0  0  0  0  0
   10.4907  -17.6693   24.6746 O   0  0  0  0  0  0  0  0  0  0  0  0
   11.6257  -15.7718   25.0796 O   0  0  0  0  0  0  0  0  0  0  0  0
  2  1  1  6
  3  2  1  0
  4  2  1  0
  4  5  2  0
  6  4  1  0
  7  6  1  0
  7 11  1  0
  7  8  1  6
  9  8  1  0
 10  9  2  0
 11 12  2  0
 13  9  1  0
 15 14  1  0
 16 15  2  0
 17 15  1  0
 18 17  1  0
 19 18  1  0
 20 19  1  0
 21 20  1  1
 22 11  1  0
 22 21  1  0
 23 25  1  0
 23 21  1  0
 24 23  2  0
M  END
$$$$
