ADR.pdb
     RDKit          3D

 25 24  0  0  1  0  0  0  0  0999 V2000
    9.4564  -18.4120   16.5745 C   0  0  0  0  0  0  0  0  0  0  0  0
    9.8666  -17.0837   17.2255 C   0  0  2  0  0  0  0  0  0  0  0  0
   10.9061  -16.4953   16.4027 N   0  0  0  0  0  0  0  0  0  0  0  0
   10.3204  -17.3022   18.6174 C   0  0  0  0  0  0  0  0  0  0  0  0
    9.5375  -17.8236   19.4463 O   0  0  0  0  0  0  0  0  0  0  0  0
   11.6260  -16.9464   19.0823 N   0  0  0  0  0  0  0  0  0  0  0  0
   12.0544  -17.2259   20.4389 C   0  0  1  0  0  0  0  0  0  0  0  0
   13.5421  -17.2728   20.4696 C   0  0  0  0  0  0  0  0  0  0  0  0
   14.1139  -18.4060   19.7086 C   0  0  0  0  0  0  0  0  0  0  0  0
   13.6460  -19.5521   19.7692 O   0  0  0  0  0  0  0  0  0  0  0  0
   11.4680  -16.2254   21.3380 C   0  0  0  0  0  0  0  0  0  0  0  0
   11.4392  -15.0039   20.9660 O   0  0  0  0  0  0  0  0  0  0  0  0
   15.2226  -18.1954   18.8861 O   0  0  0  0  0  0  0  0  0  0  0  0
    9.7773  -12.4902   19.3895 N   0  0  0  0  0  0  0  0  0  0  0  0
    8.4672  -12.9794   19.1044 C   0  0  0  0  0  0  0  0  0  0  0  0
    8.2117  -13.3217   17.8934 N   0  0  0  0  0  0  0  0  0  0  0  0
    7.5133  -13.0710   20.1493 N   0  0  0  0  0  0  0  0  0  0  0  0
    7.6077  -14.1035   21.1245 C   0  0  0  0  0  0  0  0  0  0  0  0
    8.9828  -14.2118   21.7759 C   0  0  0  0  0  0  0  0  0  0  0  0
    8.9104  -15.3616   22.7228 C   0  0  0  0  0  0  0  0  0  0  0  0
   10.2004  -15.6630   23.4043 C   0  0  2  0  0  0  0  0  0  0  0  0
   10.9554  -16.6395   22.5820 N   0  0  0  0  0  0  0  0  0  0  0  0
    9.9887  -16.2979   24.7254 C   0  0  0  0  0  0  0  0  0  0  0  0
   10.0645  -17.5375   24.8336 O   0  0  0  0  0  0  0  0  0  0  0  0
    9.7049  -15.5781   25.8747 O   0  0  0  0  0  0  0  0  0  0  0  0
  2  1  1  6
  3  2  1  0
  4  2  1  0
  4  5  2  0
  6  4  1  0
  7  6  1  0
  7 11  1  0
  7  8  1  6
  9  8  1  0
 10  9  2  0
 11 12  2  0
 13  9  1  0
 15 14  1  0
 16 15  2  0
 17 15  1  0
 18 17  1  0
 19 18  1  0
 20 19  1  0
 21 20  1  6
 22 11  1  0
 22 21  1  0
 23 25  1  0
 23 21  1  0
 24 23  2  0
M  END
$$$$
