ADR.pdb
     RDKit          3D

 25 24  0  0  1  0  0  0  0  0999 V2000
    8.1594  -13.0919   18.9756 C   0  0  0  0  0  0  0  0  0  0  0  0
    9.2807  -14.1379   18.9063 C   0  0  2  0  0  0  0  0  0  0  0  0
    9.4670  -14.4884   17.5112 N   0  0  0  0  0  0  0  0  0  0  0  0
    8.9453  -15.3189   19.7331 C   0  0  0  0  0  0  0  0  0  0  0  0
    8.7492  -15.1748   20.9630 O   0  0  0  0  0  0  0  0  0  0  0  0
    8.8292  -16.6422   19.2011 N   0  0  0  0  0  0  0  0  0  0  0  0
    8.5002  -17.7759   20.0428 C   0  0  1  0  0  0  0  0  0  0  0  0
    7.7794  -18.7870   19.2215 C   0  0  0  0  0  0  0  0  0  0  0  0
    6.5897  -18.2457   18.5274 C   0  0  0  0  0  0  0  0  0  0  0  0
    6.6025  -17.9370   17.3270 O   0  0  0  0  0  0  0  0  0  0  0  0
    9.7303  -18.2774   20.6663 C   0  0  0  0  0  0  0  0  0  0  0  0
   10.5611  -18.9327   19.9511 O   0  0  0  0  0  0  0  0  0  0  0  0
    5.3989  -18.0689   19.2350 O   0  0  0  0  0  0  0  0  0  0  0  0
   11.8599  -13.4062   19.8769 N   0  0  0  0  0  0  0  0  0  0  0  0
   13.1023  -14.0148   19.5263 C   0  0  0  0  0  0  0  0  0  0  0  0
   13.9527  -13.3002   18.8820 N   0  0  0  0  0  0  0  0  0  0  0  0
   13.3499  -15.3607   19.8973 N   0  0  0  0  0  0  0  0  0  0  0  0
   13.4254  -15.7289   21.2701 C   0  0  0  0  0  0  0  0  0  0  0  0
   12.1281  -16.3086   21.8248 C   0  0  0  0  0  0  0  0  0  0  0  0
   12.3609  -17.7714   21.9975 C   0  0  0  0  0  0  0  0  0  0  0  0
   11.2267  -18.4898   22.6433 C   0  0  2  0  0  0  0  0  0  0  0  0
    9.9587  -18.0228   22.0318 N   0  0  0  0  0  0  0  0  0  0  0  0
   11.1354  -18.1850   24.0896 C   0  0  0  0  0  0  0  0  0  0  0  0
   10.1687  -17.5272   24.5219 O   0  0  0  0  0  0  0  0  0  0  0  0
   12.0834  -18.5979   25.0118 O   0  0  0  0  0  0  0  0  0  0  0  0
  2  1  1  6
  3  2  1  0
  4  2  1  0
  4  5  2  0
  6  4  1  0
  7  6  1  0
  7 11  1  0
  7  8  1  6
  9  8  1  0
 10  9  2  0
 11 12  2  0
 13  9  1  0
 15 14  1  0
 16 15  2  0
 17 15  1  0
 18 17  1  0
 19 18  1  0
 20 19  1  0
 21 20  1  6
 22 11  1  0
 22 21  1  0
 23 25  1  0
 23 21  1  0
 24 23  2  0
M  END
$$$$
