ADR.pdb
     RDKit          3D

 25 24  0  0  1  0  0  0  0  0999 V2000
   10.0454  -19.6544   17.3281 C   0  0  0  0  0  0  0  0  0  0  0  0
   10.2530  -18.3181   18.0546 C   0  0  2  0  0  0  0  0  0  0  0  0
   11.2985  -17.5968   17.3543 N   0  0  0  0  0  0  0  0  0  0  0  0
   10.5946  -18.5443   19.4770 C   0  0  0  0  0  0  0  0  0  0  0  0
    9.7318  -19.0251   20.2492 O   0  0  0  0  0  0  0  0  0  0  0  0
   11.8771  -18.2407   20.0342 N   0  0  0  0  0  0  0  0  0  0  0  0
   12.1465  -18.3869   21.4512 C   0  0  1  0  0  0  0  0  0  0  0  0
   13.6118  -18.5669   21.6425 C   0  0  0  0  0  0  0  0  0  0  0  0
   14.0114  -18.6973   23.0616 C   0  0  0  0  0  0  0  0  0  0  0  0
   13.3594  -19.3641   23.8780 O   0  0  0  0  0  0  0  0  0  0  0  0
   11.5870  -17.2320   22.1627 C   0  0  0  0  0  0  0  0  0  0  0  0
   12.0416  -16.0674   21.9013 O   0  0  0  0  0  0  0  0  0  0  0  0
   15.1631  -18.0517   23.5163 O   0  0  0  0  0  0  0  0  0  0  0  0
    8.4696  -13.7135   18.5662 N   0  0  0  0  0  0  0  0  0  0  0  0
    8.4859  -12.7873   19.6519 C   0  0  0  0  0  0  0  0  0  0  0  0
    8.8339  -11.5781   19.3957 N   0  0  0  0  0  0  0  0  0  0  0  0
    8.1215  -13.2263   20.9498 N   0  0  0  0  0  0  0  0  0  0  0  0
    8.3701  -14.5682   21.3543 C   0  0  0  0  0  0  0  0  0  0  0  0
    7.9792  -14.8584   22.7998 C   0  0  0  0  0  0  0  0  0  0  0  0
    8.4761  -16.2316   23.1025 C   0  0  0  0  0  0  0  0  0  0  0  0
    9.8555  -16.2627   23.6646 C   0  0  2  0  0  0  0  0  0  0  0  0
   10.5676  -17.4402   23.1111 N   0  0  0  0  0  0  0  0  0  0  0  0
    9.8455  -16.4288   25.1361 C   0  0  0  0  0  0  0  0  0  0  0  0
    9.2780  -15.5783   25.8494 O   0  0  0  0  0  0  0  0  0  0  0  0
   10.4437  -17.4990   25.7815 O   0  0  0  0  0  0  0  0  0  0  0  0
  2  1  1  6
  3  2  1  0
  4  2  1  0
  4  5  2  0
  6  4  1  0
  7  6  1  0
  7 11  1  0
  7  8  1  6
  9  8  1  0
 10  9  2  0
 11 12  2  0
 13  9  1  0
 15 14  1  0
 16 15  2  0
 17 15  1  0
 18 17  1  0
 19 18  1  0
 20 19  1  0
 21 20  1  6
 22 11  1  0
 22 21  1  0
 23 25  1  0
 23 21  1  0
 24 23  2  0
M  END
$$$$
