ADR.pdb
     RDKit          3D

 25 24  0  0  1  0  0  0  0  0999 V2000
    9.9133  -19.5498   17.2077 C   0  0  0  0  0  0  0  0  0  0  0  0
   10.3965  -18.1983   17.7522 C   0  0  2  0  0  0  0  0  0  0  0  0
   11.5500  -17.7978   16.9694 N   0  0  0  0  0  0  0  0  0  0  0  0
   10.7150  -18.2998   19.1942 C   0  0  0  0  0  0  0  0  0  0  0  0
    9.8033  -18.5774   20.0088 O   0  0  0  0  0  0  0  0  0  0  0  0
   12.0283  -18.0956   19.7242 N   0  0  0  0  0  0  0  0  0  0  0  0
   12.2949  -18.1640   21.1477 C   0  0  1  0  0  0  0  0  0  0  0  0
   13.7662  -18.2592   21.3539 C   0  0  0  0  0  0  0  0  0  0  0  0
   14.1507  -18.5221   22.7587 C   0  0  0  0  0  0  0  0  0  0  0  0
   13.3144  -18.6593   23.6631 O   0  0  0  0  0  0  0  0  0  0  0  0
   11.6717  -17.0087   21.8037 C   0  0  0  0  0  0  0  0  0  0  0  0
   11.6129  -15.8994   21.1733 O   0  0  0  0  0  0  0  0  0  0  0  0
   15.5018  -18.6223   23.0971 O   0  0  0  0  0  0  0  0  0  0  0  0
    9.7659  -12.8358   19.8618 N   0  0  0  0  0  0  0  0  0  0  0  0
    8.5077  -13.2326   19.3174 C   0  0  0  0  0  0  0  0  0  0  0  0
    8.0590  -12.5690   18.3138 N   0  0  0  0  0  0  0  0  0  0  0  0
    7.8123  -14.3267   19.8916 N   0  0  0  0  0  0  0  0  0  0  0  0
    7.8672  -14.5608   21.2945 C   0  0  0  0  0  0  0  0  0  0  0  0
    9.2754  -14.8169   21.8217 C   0  0  0  0  0  0  0  0  0  0  0  0
    9.1421  -15.8412   22.8974 C   0  0  0  0  0  0  0  0  0  0  0  0
   10.3826  -16.0386   23.6984 C   0  0  2  0  0  0  0  0  0  0  0  0
   11.1580  -17.1556   23.1060 N   0  0  0  0  0  0  0  0  0  0  0  0
   10.0790  -16.4290   25.0943 C   0  0  0  0  0  0  0  0  0  0  0  0
    9.9843  -17.6361   25.3909 O   0  0  0  0  0  0  0  0  0  0  0  0
    9.8898  -15.5098   26.1136 O   0  0  0  0  0  0  0  0  0  0  0  0
  2  1  1  6
  3  2  1  0
  4  2  1  0
  4  5  2  0
  6  4  1  0
  7  6  1  0
  7 11  1  0
  7  8  1  6
  9  8  1  0
 10  9  2  0
 11 12  2  0
 13  9  1  0
 15 14  1  0
 16 15  2  0
 17 15  1  0
 18 17  1  0
 19 18  1  0
 20 19  1  0
 21 20  1  6
 22 11  1  0
 22 21  1  0
 23 25  1  0
 23 21  1  0
 24 23  2  0
M  END
$$$$
