ADR.pdb
     RDKit          3D

 25 24  0  0  1  0  0  0  0  0999 V2000
    8.8037  -14.0890   17.5016 C   0  0  0  0  0  0  0  0  0  0  0  0
    9.9273  -14.8440   16.7779 C   0  0  2  0  0  0  0  0  0  0  0  0
    9.3156  -15.9203   16.0221 N   0  0  0  0  0  0  0  0  0  0  0  0
   10.9269  -15.3473   17.7467 C   0  0  0  0  0  0  0  0  0  0  0  0
   10.7485  -16.4610   18.2940 O   0  0  0  0  0  0  0  0  0  0  0  0
   12.1086  -14.6233   18.1028 N   0  0  0  0  0  0  0  0  0  0  0  0
   13.0920  -15.1713   19.0164 C   0  0  1  0  0  0  0  0  0  0  0  0
   14.4113  -14.5437   18.7305 C   0  0  0  0  0  0  0  0  0  0  0  0
   15.5420  -15.2031   19.4213 C   0  0  0  0  0  0  0  0  0  0  0  0
   15.4018  -16.2381   20.0886 O   0  0  0  0  0  0  0  0  0  0  0  0
   12.6219  -14.9767   20.3928 C   0  0  0  0  0  0  0  0  0  0  0  0
   12.6878  -13.8096   20.9075 O   0  0  0  0  0  0  0  0  0  0  0  0
   16.8222  -14.6529   19.3294 O   0  0  0  0  0  0  0  0  0  0  0  0
    7.7858  -12.2320   21.7598 N   0  0  0  0  0  0  0  0  0  0  0  0
    7.3916  -12.9631   20.5992 C   0  0  0  0  0  0  0  0  0  0  0  0
    7.1526  -12.2948   19.5291 N   0  0  0  0  0  0  0  0  0  0  0  0
    7.2826  -14.3751   20.6671 N   0  0  0  0  0  0  0  0  0  0  0  0
    8.0242  -15.1107   21.6341 C   0  0  0  0  0  0  0  0  0  0  0  0
    9.5353  -14.9467   21.5068 C   0  0  0  0  0  0  0  0  0  0  0  0
   10.1449  -15.8860   22.4918 C   0  0  0  0  0  0  0  0  0  0  0  0
   11.6347  -15.8737   22.4937 C   0  0  2  0  0  0  0  0  0  0  0  0
   12.1132  -16.0793   21.1049 N   0  0  0  0  0  0  0  0  0  0  0  0
   12.1922  -16.9830   23.3009 C   0  0  0  0  0  0  0  0  0  0  0  0
   12.7173  -17.9588   22.7297 O   0  0  0  0  0  0  0  0  0  0  0  0
   12.1639  -17.0001   24.6861 O   0  0  0  0  0  0  0  0  0  0  0  0
  2  1  1  1
  3  2  1  0
  4  2  1  0
  4  5  2  0
  6  4  1  0
  7  6  1  0
  7 11  1  0
  7  8  1  1
  9  8  1  0
 10  9  2  0
 11 12  2  0
 13  9  1  0
 15 14  1  0
 16 15  2  0
 17 15  1  0
 18 17  1  0
 19 18  1  0
 20 19  1  0
 21 20  1  6
 22 11  1  0
 22 21  1  0
 23 25  1  0
 23 21  1  0
 24 23  2  0
M  END
$$$$
