ADR.pdb
     RDKit          3D

 25 24  0  0  1  0  0  0  0  0999 V2000
    9.1868  -20.0225   14.1027 C   0  0  0  0  0  0  0  0  0  0  0  0
   10.2521  -19.1117   14.7289 C   0  0  2  0  0  0  0  0  0  0  0  0
   11.4943  -19.3353   14.0144 N   0  0  0  0  0  0  0  0  0  0  0  0
   10.3895  -19.3875   16.1767 C   0  0  0  0  0  0  0  0  0  0  0  0
    9.5085  -18.9771   16.9688 O   0  0  0  0  0  0  0  0  0  0  0  0
   11.4905  -20.1093   16.7372 N   0  0  0  0  0  0  0  0  0  0  0  0
   11.5961  -20.3524   18.1626 C   0  0  1  0  0  0  0  0  0  0  0  0
   12.3378  -21.6253   18.3762 C   0  0  0  0  0  0  0  0  0  0  0  0
   13.8080  -21.4567   18.3978 C   0  0  0  0  0  0  0  0  0  0  0  0
   14.3858  -20.7615   19.2457 O   0  0  0  0  0  0  0  0  0  0  0  0
   12.2156  -19.1842   18.7991 C   0  0  0  0  0  0  0  0  0  0  0  0
   13.1018  -18.5284   18.1542 O   0  0  0  0  0  0  0  0  0  0  0  0
   14.5902  -22.0971   17.4344 O   0  0  0  0  0  0  0  0  0  0  0  0
    8.1544  -12.8317   18.9503 N   0  0  0  0  0  0  0  0  0  0  0  0
    7.9336  -13.1895   20.3142 C   0  0  0  0  0  0  0  0  0  0  0  0
    7.0453  -12.5291   20.9650 N   0  0  0  0  0  0  0  0  0  0  0  0
    8.6868  -14.2436   20.8903 N   0  0  0  0  0  0  0  0  0  0  0  0
    9.7067  -14.8952   20.1413 C   0  0  0  0  0  0  0  0  0  0  0  0
   10.3410  -16.0793   20.8641 C   0  0  0  0  0  0  0  0  0  0  0  0
   11.5824  -16.4167   20.1098 C   0  0  0  0  0  0  0  0  0  0  0  0
   12.3426  -17.5628   20.6826 C   0  0  2  0  0  0  0  0  0  0  0  0
   11.8165  -18.8209   20.0992 N   0  0  0  0  0  0  0  0  0  0  0  0
   12.1574  -17.6673   22.1482 C   0  0  0  0  0  0  0  0  0  0  0  0
   11.4922  -18.6099   22.6206 O   0  0  0  0  0  0  0  0  0  0  0  0
   12.6929  -16.7577   23.0458 O   0  0  0  0  0  0  0  0  0  0  0  0
  2  1  1  6
  3  2  1  0
  4  2  1  0
  4  5  2  0
  6  4  1  0
  7  6  1  0
  7 11  1  0
  7  8  1  6
  9  8  1  0
 10  9  2  0
 11 12  2  0
 13  9  1  0
 15 14  1  0
 16 15  2  0
 17 15  1  0
 18 17  1  0
 19 18  1  0
 20 19  1  0
 21 20  1  6
 22 11  1  0
 22 21  1  0
 23 25  1  0
 23 21  1  0
 24 23  2  0
M  END
$$$$
