IIL.pdb
     RDKit          3D

 25 24  0  0  1  0  0  0  0  0999 V2000
   38.3398   -7.1450   -8.7197 C   0  0  0  0  0  0  0  0  0  0  0  0
   38.0891   -8.6221   -8.4810 C   0  0  0  0  0  0  0  0  0  0  0  0
   39.2969   -9.1983   -7.8226 C   0  0  2  0  0  0  0  0  0  0  0  0
   40.4816   -8.9701   -8.7459 C   0  0  0  0  0  0  0  0  0  0  0  0
   39.2272  -10.6575   -7.5281 C   0  0  2  0  0  0  0  0  0  0  0  0
   38.0914  -10.9171   -6.6764 N   0  0  0  0  0  0  0  0  0  0  0  0
   40.4586  -11.2345   -6.9567 C   0  0  0  0  0  0  0  0  0  0  0  0
   40.7305  -11.1392   -5.7394 O   0  0  0  0  0  0  0  0  0  0  0  0
   42.3864  -15.9223   -9.2566 C   0  0  0  0  0  0  0  0  0  0  0  0
   42.0508  -14.8311   -8.2737 C   0  0  0  0  0  0  0  0  0  0  0  0
   42.9800  -13.6944   -8.1943 C   0  0  2  0  0  0  0  0  0  0  0  0
   44.3600  -14.2391   -7.7844 C   0  0  0  0  0  0  0  0  0  0  0  0
   42.6053  -12.4989   -7.4055 C   0  0  2  0  0  0  0  0  0  0  0  0
   41.3621  -11.9172   -7.8115 N   0  0  0  0  0  0  0  0  0  0  0  0
   43.7040  -11.5058   -7.2811 C   0  0  0  0  0  0  0  0  0  0  0  0
   44.0128  -10.6976   -8.1992 O   0  0  0  0  0  0  0  0  0  0  0  0
   48.0511   -9.2226   -4.0527 C   0  0  0  0  0  0  0  0  0  0  0  0
   46.6827   -8.7213   -4.4265 C   0  0  1  0  0  0  0  0  0  0  0  0
   46.7525   -7.6691   -5.5208 C   0  0  0  0  0  0  0  0  0  0  0  0
   45.6507   -9.7446   -4.6607 C   0  0  0  0  0  0  0  0  0  0  0  0
   45.5621  -10.4202   -5.9709 C   0  0  2  0  0  0  0  0  0  0  0  0
   44.4974  -11.3920   -6.1044 N   0  0  0  0  0  0  0  0  0  0  0  0
   46.8151  -11.0954   -6.3968 C   0  0  0  0  0  0  0  0  0  0  0  0
   47.7258  -10.4883   -7.0146 O   0  0  0  0  0  0  0  0  0  0  0  0
   47.0644  -12.4351   -6.1431 O   0  0  0  0  0  0  0  0  0  0  0  0
  2  1  1  0
  3  5  1  0
  3  2  1  0
  3  4  1  6
  5  6  1  1
  7  5  1  0
  7  8  2  0
 10  9  1  0
 11 10  1  0
 11 13  1  0
 11 12  1  1
 13 14  1  6
 14  7  1  0
 15 13  1  0
 16 15  2  0
 18 17  1  6
 18 20  1  0
 19 18  1  0
 21 20  1  1
 21 22  1  0
 21 23  1  0
 22 15  1  0
 23 25  1  0
 24 23  2  0
M  END
$$$$
