IIL.pdb
     RDKit          3D

 25 24  0  0  1  0  0  0  0  0999 V2000
   28.4610  -17.7027  -17.2214 C   0  0  0  0  0  0  0  0  0  0  0  0
   28.9442  -18.8157  -16.3108 C   0  0  0  0  0  0  0  0  0  0  0  0
   27.7759  -19.3209  -15.5335 C   0  0  2  0  0  0  0  0  0  0  0  0
   27.2009  -18.1536  -14.7495 C   0  0  0  0  0  0  0  0  0  0  0  0
   28.0787  -20.4116  -14.5643 C   0  0  2  0  0  0  0  0  0  0  0  0
   28.7067  -21.5076  -15.2625 N   0  0  0  0  0  0  0  0  0  0  0  0
   26.9229  -20.8801  -13.7767 C   0  0  0  0  0  0  0  0  0  0  0  0
   26.1448  -21.7614  -14.2043 O   0  0  0  0  0  0  0  0  0  0  0  0
   27.3956  -20.1965   -8.2787 C   0  0  0  0  0  0  0  0  0  0  0  0
   27.0120  -20.8125   -9.5988 C   0  0  0  0  0  0  0  0  0  0  0  0
   25.7839  -20.3155  -10.2364 C   0  0  2  0  0  0  0  0  0  0  0  0
   24.5901  -20.7526   -9.3689 C   0  0  0  0  0  0  0  0  0  0  0  0
   25.5465  -20.5848  -11.6727 C   0  0  2  0  0  0  0  0  0  0  0  0
   26.6853  -20.3154  -12.4970 N   0  0  0  0  0  0  0  0  0  0  0  0
   24.2927  -19.9754  -12.1881 C   0  0  0  0  0  0  0  0  0  0  0  0
   24.2528  -18.8471  -12.7508 O   0  0  0  0  0  0  0  0  0  0  0  0
   20.5780  -22.0851  -15.7249 C   0  0  0  0  0  0  0  0  0  0  0  0
   21.6523  -21.0352  -15.6399 C   0  0  1  0  0  0  0  0  0  0  0  0
   21.0995  -19.6464  -15.9140 C   0  0  0  0  0  0  0  0  0  0  0  0
   22.5353  -21.0941  -14.4636 C   0  0  0  0  0  0  0  0  0  0  0  0
   22.0545  -20.6144  -13.1523 C   0  0  2  0  0  0  0  0  0  0  0  0
   23.0311  -20.6268  -12.0836 N   0  0  0  0  0  0  0  0  0  0  0  0
   20.8532  -21.3254  -12.6438 C   0  0  0  0  0  0  0  0  0  0  0  0
   20.9114  -22.4940  -12.1850 O   0  0  0  0  0  0  0  0  0  0  0  0
   19.5917  -20.7512  -12.6406 O   0  0  0  0  0  0  0  0  0  0  0  0
  2  1  1  0
  3  5  1  0
  3  2  1  0
  3  4  1  1
  5  6  1  6
  7  5  1  0
  7  8  2  0
 10  9  1  0
 11 10  1  0
 11 13  1  0
 11 12  1  1
 13 14  1  6
 14  7  1  0
 15 13  1  0
 16 15  2  0
 18 17  1  1
 18 20  1  0
 19 18  1  0
 21 20  1  6
 21 22  1  0
 21 23  1  0
 22 15  1  0
 23 25  1  0
 24 23  2  0
M  END
$$$$
