IIL.pdb
     RDKit          3D

 25 24  0  0  1  0  0  0  0  0999 V2000
   28.2194  -17.6014  -17.4008 C   0  0  0  0  0  0  0  0  0  0  0  0
   28.7849  -18.6334  -16.4433 C   0  0  0  0  0  0  0  0  0  0  0  0
   27.6463  -19.2701  -15.7203 C   0  0  2  0  0  0  0  0  0  0  0  0
   26.8773  -18.1710  -15.0071 C   0  0  0  0  0  0  0  0  0  0  0  0
   28.0279  -20.2892  -14.7022 C   0  0  2  0  0  0  0  0  0  0  0  0
   28.8304  -21.3115  -15.3300 N   0  0  0  0  0  0  0  0  0  0  0  0
   26.8968  -20.8839  -13.9656 C   0  0  0  0  0  0  0  0  0  0  0  0
   26.2086  -21.8111  -14.4467 O   0  0  0  0  0  0  0  0  0  0  0  0
   27.3689  -20.7569   -8.4123 C   0  0  0  0  0  0  0  0  0  0  0  0
   26.9884  -21.2575   -9.7813 C   0  0  0  0  0  0  0  0  0  0  0  0
   25.7823  -20.6798  -10.3925 C   0  0  2  0  0  0  0  0  0  0  0  0
   24.5728  -21.0940   -9.5355 C   0  0  0  0  0  0  0  0  0  0  0  0
   25.5271  -20.8825  -11.8367 C   0  0  2  0  0  0  0  0  0  0  0  0
   26.5786  -20.3905  -12.6739 N   0  0  0  0  0  0  0  0  0  0  0  0
   24.1771  -20.4331  -12.2662 C   0  0  0  0  0  0  0  0  0  0  0  0
   23.8568  -19.2184  -12.3807 O   0  0  0  0  0  0  0  0  0  0  0  0
   20.6351  -19.8094  -16.1627 C   0  0  0  0  0  0  0  0  0  0  0  0
   20.5478  -21.1071  -15.4065 C   0  0  1  0  0  0  0  0  0  0  0  0
   20.0166  -22.2297  -16.2823 C   0  0  0  0  0  0  0  0  0  0  0  0
   21.7311  -21.4874  -14.6177 C   0  0  0  0  0  0  0  0  0  0  0  0
   21.9180  -20.9471  -13.2560 C   0  0  2  0  0  0  0  0  0  0  0  0
   23.1350  -21.3499  -12.5834 N   0  0  0  0  0  0  0  0  0  0  0  0
   20.7973  -21.2356  -12.3244 C   0  0  0  0  0  0  0  0  0  0  0  0
   20.7497  -22.2892  -11.6408 O   0  0  0  0  0  0  0  0  0  0  0  0
   19.7323  -20.3666  -12.1462 O   0  0  0  0  0  0  0  0  0  0  0  0
  2  1  1  0
  3  5  1  0
  3  2  1  0
  3  4  1  1
  5  6  1  6
  7  5  1  0
  7  8  2  0
 10  9  1  0
 11 10  1  0
 11 13  1  0
 11 12  1  1
 13 14  1  6
 14  7  1  0
 15 13  1  0
 16 15  2  0
 18 17  1  6
 18 20  1  0
 19 18  1  0
 21 20  1  6
 21 22  1  0
 21 23  1  0
 22 15  1  0
 23 25  1  0
 24 23  2  0
M  END
$$$$
