IIL.pdb
     RDKit          3D

 25 24  0  0  1  0  0  0  0  0999 V2000
   30.0100  -17.1068  -16.6138 C   0  0  0  0  0  0  0  0  0  0  0  0
   28.5827  -16.7936  -16.2062 C   0  0  0  0  0  0  0  0  0  0  0  0
   28.0240  -17.9898  -15.5124 C   0  0  2  0  0  0  0  0  0  0  0  0
   28.1955  -19.1837  -16.4361 C   0  0  0  0  0  0  0  0  0  0  0  0
   26.5810  -17.9009  -15.1510 C   0  0  2  0  0  0  0  0  0  0  0  0
   26.3787  -16.7714  -14.2755 N   0  0  0  0  0  0  0  0  0  0  0  0
   26.0108  -19.1299  -14.5678 C   0  0  0  0  0  0  0  0  0  0  0  0
   26.0275  -20.2213  -15.1790 O   0  0  0  0  0  0  0  0  0  0  0  0
   26.6908  -20.4732   -9.3208 C   0  0  0  0  0  0  0  0  0  0  0  0
   26.3997  -20.5328  -10.7977 C   0  0  0  0  0  0  0  0  0  0  0  0
   25.0095  -20.2980  -11.2148 C   0  0  2  0  0  0  0  0  0  0  0  0
   24.1297  -21.3761  -10.5571 C   0  0  0  0  0  0  0  0  0  0  0  0
   24.6961  -20.1356  -12.6526 C   0  0  2  0  0  0  0  0  0  0  0  0
   25.4255  -19.0739  -13.2766 N   0  0  0  0  0  0  0  0  0  0  0  0
   23.2381  -20.0915  -12.9374 C   0  0  0  0  0  0  0  0  0  0  0  0
   22.5054  -19.1079  -12.6424 O   0  0  0  0  0  0  0  0  0  0  0  0
   20.9441  -21.4001  -17.7953 C   0  0  0  0  0  0  0  0  0  0  0  0
   21.2632  -20.8084  -16.4493 C   0  0  1  0  0  0  0  0  0  0  0  0
   20.9170  -19.3297  -16.3926 C   0  0  0  0  0  0  0  0  0  0  0  0
   20.8016  -21.5651  -15.2741 C   0  0  0  0  0  0  0  0  0  0  0  0
   21.1485  -21.1049  -13.9144 C   0  0  2  0  0  0  0  0  0  0  0  0
   22.5535  -21.1672  -13.5709 N   0  0  0  0  0  0  0  0  0  0  0  0
   20.4101  -21.7977  -12.8272 C   0  0  0  0  0  0  0  0  0  0  0  0
   20.9024  -22.7664  -12.1955 O   0  0  0  0  0  0  0  0  0  0  0  0
   19.1334  -21.4250  -12.4369 O   0  0  0  0  0  0  0  0  0  0  0  0
  2  1  1  0
  3  5  1  0
  3  2  1  0
  3  4  1  6
  5  6  1  1
  7  5  1  0
  7  8  2  0
 10  9  1  0
 11 10  1  0
 11 13  1  0
 11 12  1  6
 13 14  1  1
 14  7  1  0
 15 13  1  0
 16 15  2  0
 18 17  1  6
 18 20  1  0
 19 18  1  0
 21 20  1  6
 21 22  1  0
 21 23  1  0
 22 15  1  0
 23 25  1  0
 24 23  2  0
M  END
$$$$
