IIL.pdb
     RDKit          3D

 25 24  0  0  1  0  0  0  0  0999 V2000
   29.4838  -16.5168  -17.8281 C   0  0  0  0  0  0  0  0  0  0  0  0
   28.2093  -16.3101  -17.0316 C   0  0  0  0  0  0  0  0  0  0  0  0
   27.8561  -17.6021  -16.3755 C   0  0  2  0  0  0  0  0  0  0  0  0
   27.7301  -18.6552  -17.4632 C   0  0  0  0  0  0  0  0  0  0  0  0
   26.5829  -17.5966  -15.6012 C   0  0  2  0  0  0  0  0  0  0  0  0
   26.6767  -16.6247  -14.5384 N   0  0  0  0  0  0  0  0  0  0  0  0
   26.1690  -18.9124  -15.0787 C   0  0  0  0  0  0  0  0  0  0  0  0
   25.9388  -19.8817  -15.8352 O   0  0  0  0  0  0  0  0  0  0  0  0
   28.4289  -20.6329  -10.6334 C   0  0  0  0  0  0  0  0  0  0  0  0
   27.6100  -20.9433  -11.8591 C   0  0  0  0  0  0  0  0  0  0  0  0
   26.1750  -20.6280  -11.8015 C   0  0  2  0  0  0  0  0  0  0  0  0
   25.4648  -21.7858  -11.0777 C   0  0  0  0  0  0  0  0  0  0  0  0
   25.4635  -20.2354  -13.0390 C   0  0  2  0  0  0  0  0  0  0  0  0
   26.0270  -19.0849  -13.6776 N   0  0  0  0  0  0  0  0  0  0  0  0
   23.9895  -20.1488  -12.8700 C   0  0  0  0  0  0  0  0  0  0  0  0
   23.4170  -19.1983  -12.2699 O   0  0  0  0  0  0  0  0  0  0  0  0
   19.1424  -19.8347  -15.0172 C   0  0  0  0  0  0  0  0  0  0  0  0
   19.5258  -21.2633  -14.7420 C   0  0  1  0  0  0  0  0  0  0  0  0
   18.8538  -22.2194  -15.7135 C   0  0  0  0  0  0  0  0  0  0  0  0
   20.9605  -21.5322  -14.5511 C   0  0  0  0  0  0  0  0  0  0  0  0
   21.6666  -20.9829  -13.3760 C   0  0  2  0  0  0  0  0  0  0  0  0
   23.1054  -21.1424  -13.3783 N   0  0  0  0  0  0  0  0  0  0  0  0
   21.1795  -21.5021  -12.0721 C   0  0  0  0  0  0  0  0  0  0  0  0
   21.6948  -22.5047  -11.5163 O   0  0  0  0  0  0  0  0  0  0  0  0
   20.1282  -20.9190  -11.3822 O   0  0  0  0  0  0  0  0  0  0  0  0
  2  1  1  0
  3  5  1  0
  3  2  1  0
  3  4  1  6
  5  6  1  1
  7  5  1  0
  7  8  2  0
 10  9  1  0
 11 10  1  0
 11 13  1  0
 11 12  1  6
 13 14  1  1
 14  7  1  0
 15 13  1  0
 16 15  2  0
 18 17  1  6
 18 20  1  0
 19 18  1  0
 21 20  1  6
 21 22  1  0
 21 23  1  0
 22 15  1  0
 23 25  1  0
 24 23  2  0
M  END
$$$$
