IIL.pdb
     RDKit          3D

 25 24  0  0  1  0  0  0  0  0999 V2000
   26.7606  -17.4097  -18.4413 C   0  0  0  0  0  0  0  0  0  0  0  0
   27.8743  -18.3313  -17.9813 C   0  0  0  0  0  0  0  0  0  0  0  0
   27.3938  -19.0799  -16.7842 C   0  0  2  0  0  0  0  0  0  0  0  0
   26.9942  -18.0615  -15.7301 C   0  0  0  0  0  0  0  0  0  0  0  0
   28.3886  -20.0025  -16.1678 C   0  0  2  0  0  0  0  0  0  0  0  0
   28.7957  -20.9842  -17.1443 N   0  0  0  0  0  0  0  0  0  0  0  0
   27.9429  -20.6516  -14.9205 C   0  0  0  0  0  0  0  0  0  0  0  0
   27.1636  -21.6302  -14.9261 O   0  0  0  0  0  0  0  0  0  0  0  0
   31.5381  -21.4989  -10.9698 C   0  0  0  0  0  0  0  0  0  0  0  0
   30.3244  -21.5755  -11.8588 C   0  0  0  0  0  0  0  0  0  0  0  0
   29.1458  -20.7977  -11.4491 C   0  0  2  0  0  0  0  0  0  0  0  0
   28.6799  -21.3295  -10.0819 C   0  0  0  0  0  0  0  0  0  0  0  0
   28.0142  -20.6365  -12.3901 C   0  0  2  0  0  0  0  0  0  0  0  0
   28.4105  -20.1524  -13.6774 N   0  0  0  0  0  0  0  0  0  0  0  0
   26.8669  -19.8901  -11.8109 C   0  0  0  0  0  0  0  0  0  0  0  0
   26.6161  -18.6850  -12.0868 O   0  0  0  0  0  0  0  0  0  0  0  0
   21.9673  -19.1546  -12.3670 C   0  0  0  0  0  0  0  0  0  0  0  0
   22.5199  -20.5352  -12.5960 C   0  0  1  0  0  0  0  0  0  0  0  0
   22.0713  -21.1022  -13.9327 C   0  0  0  0  0  0  0  0  0  0  0  0
   23.9565  -20.7186  -12.3326 C   0  0  0  0  0  0  0  0  0  0  0  0
   24.5207  -20.3524  -11.0178 C   0  0  2  0  0  0  0  0  0  0  0  0
   25.9567  -20.4862  -10.8926 N   0  0  0  0  0  0  0  0  0  0  0  0
   23.9204  -21.0807   -9.8704 C   0  0  0  0  0  0  0  0  0  0  0  0
   24.3801  -22.1755   -9.4583 O   0  0  0  0  0  0  0  0  0  0  0  0
   22.8174  -20.6049   -9.1790 O   0  0  0  0  0  0  0  0  0  0  0  0
  2  1  1  0
  3  5  1  0
  3  2  1  0
  3  4  1  1
  5  6  1  6
  7  5  1  0
  7  8  2  0
 10  9  1  0
 11 10  1  0
 11 13  1  0
 11 12  1  1
 13 14  1  6
 14  7  1  0
 15 13  1  0
 16 15  2  0
 18 17  1  6
 18 20  1  0
 19 18  1  0
 21 20  1  6
 21 22  1  0
 21 23  1  0
 22 15  1  0
 23 25  1  0
 24 23  2  0
M  END
$$$$
