IIL.pdb
     RDKit          3D

 25 24  0  0  1  0  0  0  0  0999 V2000
   27.1454  -16.9044  -17.9653 C   0  0  0  0  0  0  0  0  0  0  0  0
   26.8603  -18.2599  -17.3466 C   0  0  0  0  0  0  0  0  0  0  0  0
   26.1484  -18.0408  -16.0544 C   0  0  2  0  0  0  0  0  0  0  0  0
   27.0595  -17.2216  -15.1562 C   0  0  0  0  0  0  0  0  0  0  0  0
   25.7769  -19.2793  -15.3135 C   0  0  2  0  0  0  0  0  0  0  0  0
   25.0020  -20.1365  -16.1781 N   0  0  0  0  0  0  0  0  0  0  0  0
   25.0800  -19.0509  -14.0337 C   0  0  0  0  0  0  0  0  0  0  0  0
   24.7946  -17.9010  -13.6321 O   0  0  0  0  0  0  0  0  0  0  0  0
   20.3080  -20.4216  -13.2783 C   0  0  0  0  0  0  0  0  0  0  0  0
   21.7249  -19.9208  -13.1728 C   0  0  0  0  0  0  0  0  0  0  0  0
   22.5774  -20.5390  -12.1467 C   0  0  2  0  0  0  0  0  0  0  0  0
   21.8256  -20.4745  -10.8052 C   0  0  0  0  0  0  0  0  0  0  0  0
   23.9857  -20.1038  -12.0083 C   0  0  2  0  0  0  0  0  0  0  0  0
   24.7228  -20.1669  -13.2337 N   0  0  0  0  0  0  0  0  0  0  0  0
   24.6912  -20.7421  -10.8665 C   0  0  0  0  0  0  0  0  0  0  0  0
   25.0523  -21.9508  -10.8654 O   0  0  0  0  0  0  0  0  0  0  0  0
   28.0655  -18.3074   -6.8463 C   0  0  0  0  0  0  0  0  0  0  0  0
   27.5037  -19.3338   -7.7921 C   0  0  1  0  0  0  0  0  0  0  0  0
   28.5098  -20.4349   -8.0837 C   0  0  0  0  0  0  0  0  0  0  0  0
   26.1542  -19.8369   -7.4879 C   0  0  0  0  0  0  0  0  0  0  0  0
   25.4449  -20.6897   -8.4630 C   0  0  2  0  0  0  0  0  0  0  0  0
   25.0151  -20.0292   -9.6774 N   0  0  0  0  0  0  0  0  0  0  0  0
   24.2564  -21.3903   -7.9120 C   0  0  0  0  0  0  0  0  0  0  0  0
   23.0911  -20.9393   -8.0475 O   0  0  0  0  0  0  0  0  0  0  0  0
   24.3507  -22.5840   -7.2139 O   0  0  0  0  0  0  0  0  0  0  0  0
  2  1  1  0
  3  5  1  0
  3  2  1  0
  3  4  1  1
  5  6  1  6
  7  5  1  0
  7  8  2  0
 10  9  1  0
 11 10  1  0
 11 13  1  0
 11 12  1  1
 13 14  1  6
 14  7  1  0
 15 13  1  0
 16 15  2  0
 18 17  1  1
 18 20  1  0
 19 18  1  0
 21 20  1  1
 21 22  1  0
 21 23  1  0
 22 15  1  0
 23 25  1  0
 24 23  2  0
M  END
$$$$
