IIL.pdb
     RDKit          3D

 25 24  0  0  1  0  0  0  0  0999 V2000
   25.6449  -16.4473  -17.6239 C   0  0  0  0  0  0  0  0  0  0  0  0
   26.8467  -17.3617  -17.4786 C   0  0  0  0  0  0  0  0  0  0  0  0
   26.6164  -18.2490  -16.3021 C   0  0  2  0  0  0  0  0  0  0  0  0
   26.4892  -17.3655  -15.0728 C   0  0  0  0  0  0  0  0  0  0  0  0
   27.6925  -19.2446  -16.0344 C   0  0  2  0  0  0  0  0  0  0  0  0
   27.8795  -20.0689  -17.2042 N   0  0  0  0  0  0  0  0  0  0  0  0
   27.4855  -20.0734  -14.8319 C   0  0  0  0  0  0  0  0  0  0  0  0
   26.7658  -21.0964  -14.8497 O   0  0  0  0  0  0  0  0  0  0  0  0
   31.5291  -21.8112  -11.7849 C   0  0  0  0  0  0  0  0  0  0  0  0
   30.1905  -21.5814  -12.4367 C   0  0  0  0  0  0  0  0  0  0  0  0
   29.2335  -20.7295  -11.7154 C   0  0  2  0  0  0  0  0  0  0  0  0
   29.0146  -21.3405  -10.3198 C   0  0  0  0  0  0  0  0  0  0  0  0
   27.9529  -20.3616  -12.3607 C   0  0  2  0  0  0  0  0  0  0  0  0
   28.1202  -19.7003  -13.6190 N   0  0  0  0  0  0  0  0  0  0  0  0
   27.0135  -19.6578  -11.4491 C   0  0  0  0  0  0  0  0  0  0  0  0
   26.7313  -18.4331  -11.5581 O   0  0  0  0  0  0  0  0  0  0  0  0
   22.1245  -18.9879  -10.8457 C   0  0  0  0  0  0  0  0  0  0  0  0
   22.6226  -20.3473  -11.2549 C   0  0  1  0  0  0  0  0  0  0  0  0
   21.8839  -20.8689  -12.4762 C   0  0  0  0  0  0  0  0  0  0  0  0
   24.0829  -20.5136  -11.3364 C   0  0  0  0  0  0  0  0  0  0  0  0
   24.9271  -20.2307  -10.1581 C   0  0  2  0  0  0  0  0  0  0  0  0
   26.3557  -20.3207  -10.3743 N   0  0  0  0  0  0  0  0  0  0  0  0
   24.6194  -21.0680   -8.9701 C   0  0  0  0  0  0  0  0  0  0  0  0
   24.1016  -20.5893   -7.9298 O   0  0  0  0  0  0  0  0  0  0  0  0
   24.8813  -22.4285   -8.9279 O   0  0  0  0  0  0  0  0  0  0  0  0
  2  1  1  0
  3  5  1  0
  3  2  1  0
  3  4  1  1
  5  6  1  6
  7  5  1  0
  7  8  2  0
 10  9  1  0
 11 10  1  0
 11 13  1  0
 11 12  1  1
 13 14  1  6
 14  7  1  0
 15 13  1  0
 16 15  2  0
 18 17  1  6
 18 20  1  0
 19 18  1  0
 21 20  1  6
 21 22  1  0
 21 23  1  0
 22 15  1  0
 23 25  1  0
 24 23  2  0
M  END
$$$$
