IIL.pdb
     RDKit          3D

 25 24  0  0  1  0  0  0  0  0999 V2000
   17.2113  -16.9730  -17.2884 C   0  0  0  0  0  0  0  0  0  0  0  0
   17.5510  -15.5722  -17.7614 C   0  0  0  0  0  0  0  0  0  0  0  0
   18.1131  -14.8148  -16.6061 C   0  0  2  0  0  0  0  0  0  0  0  0
   17.0391  -14.7398  -15.5342 C   0  0  0  0  0  0  0  0  0  0  0  0
   18.5488  -13.4221  -16.9083 C   0  0  2  0  0  0  0  0  0  0  0  0
   19.4614  -13.4412  -18.0263 N   0  0  0  0  0  0  0  0  0  0  0  0
   19.1289  -12.6918  -15.7655 C   0  0  0  0  0  0  0  0  0  0  0  0
   18.9419  -13.0570  -14.5837 O   0  0  0  0  0  0  0  0  0  0  0  0
   24.3247  -11.2157  -15.5668 C   0  0  0  0  0  0  0  0  0  0  0  0
   22.8732  -11.5558  -15.3504 C   0  0  0  0  0  0  0  0  0  0  0  0
   21.9359  -10.4308  -15.2174 C   0  0  2  0  0  0  0  0  0  0  0  0
   22.4983   -9.4695  -14.1550 C   0  0  0  0  0  0  0  0  0  0  0  0
   20.4958  -10.7013  -15.0057 C   0  0  2  0  0  0  0  0  0  0  0  0
   19.9217  -11.5414  -16.0123 N   0  0  0  0  0  0  0  0  0  0  0  0
   19.6980   -9.4758  -14.7400 C   0  0  0  0  0  0  0  0  0  0  0  0
   19.2034   -8.7611  -15.6542 O   0  0  0  0  0  0  0  0  0  0  0  0
   16.0643   -9.0220  -10.3996 C   0  0  0  0  0  0  0  0  0  0  0  0
   16.6150   -8.8011  -11.7822 C   0  0  1  0  0  0  0  0  0  0  0  0
   15.5191   -8.4314  -12.7679 C   0  0  0  0  0  0  0  0  0  0  0  0
   17.8091   -7.9462  -11.8837 C   0  0  0  0  0  0  0  0  0  0  0  0
   18.5683   -7.8823  -13.1487 C   0  0  2  0  0  0  0  0  0  0  0  0
   19.4302   -9.0133  -13.4204 N   0  0  0  0  0  0  0  0  0  0  0  0
   19.4015   -6.6617  -13.3010 C   0  0  0  0  0  0  0  0  0  0  0  0
   20.6255   -6.6471  -13.0159 O   0  0  0  0  0  0  0  0  0  0  0  0
   18.8884   -5.4609  -13.7657 O   0  0  0  0  0  0  0  0  0  0  0  0
  2  1  1  0
  3  5  1  0
  3  2  1  0
  3  4  1  1
  5  6  1  6
  7  5  1  0
  7  8  2  0
 10  9  1  0
 11 10  1  0
 11 13  1  0
 11 12  1  1
 13 14  1  6
 14  7  1  0
 15 13  1  0
 16 15  2  0
 18 17  1  1
 18 20  1  0
 19 18  1  0
 21 20  1  1
 21 22  1  0
 21 23  1  0
 22 15  1  0
 23 25  1  0
 24 23  2  0
M  END
$$$$
