IIL.pdb
     RDKit          3D

 25 24  0  0  1  0  0  0  0  0999 V2000
   19.6644  -20.3456  -12.6995 C   0  0  0  0  0  0  0  0  0  0  0  0
   21.0098  -20.3470  -13.4006 C   0  0  0  0  0  0  0  0  0  0  0  0
   22.0322  -20.8605  -12.4438 C   0  0  2  0  0  0  0  0  0  0  0  0
   21.9836  -19.9882  -11.2010 C   0  0  0  0  0  0  0  0  0  0  0  0
   23.4351  -20.8545  -12.9464 C   0  0  2  0  0  0  0  0  0  0  0  0
   23.5003  -21.5943  -14.1839 N   0  0  0  0  0  0  0  0  0  0  0  0
   24.4406  -21.3443  -11.9847 C   0  0  0  0  0  0  0  0  0  0  0  0
   24.4518  -22.5300  -11.5861 O   0  0  0  0  0  0  0  0  0  0  0  0
   29.1891  -21.6575  -13.3707 C   0  0  0  0  0  0  0  0  0  0  0  0
   27.8849  -21.6887  -12.6174 C   0  0  0  0  0  0  0  0  0  0  0  0
   27.8110  -20.9036  -11.3765 C   0  0  2  0  0  0  0  0  0  0  0  0
   28.9501  -21.3704  -10.4526 C   0  0  0  0  0  0  0  0  0  0  0  0
   26.5236  -20.8018  -10.6524 C   0  0  2  0  0  0  0  0  0  0  0  0
   25.4238  -20.4455  -11.4964 N   0  0  0  0  0  0  0  0  0  0  0  0
   26.6048  -19.9796   -9.4170 C   0  0  0  0  0  0  0  0  0  0  0  0
   25.6579  -19.2548   -9.0055 O   0  0  0  0  0  0  0  0  0  0  0  0
   25.7885  -21.3077   -4.2110 C   0  0  0  0  0  0  0  0  0  0  0  0
   26.6591  -20.3256   -4.9466 C   0  0  1  0  0  0  0  0  0  0  0  0
   27.9402  -20.0332   -4.1830 C   0  0  0  0  0  0  0  0  0  0  0  0
   26.8757  -20.5857   -6.3792 C   0  0  0  0  0  0  0  0  0  0  0  0
   27.7186  -19.6733   -7.1780 C   0  0  2  0  0  0  0  0  0  0  0  0
   27.7692  -19.9489   -8.5983 N   0  0  0  0  0  0  0  0  0  0  0  0
   29.1251  -19.5732   -6.7101 C   0  0  0  0  0  0  0  0  0  0  0  0
   29.9798  -20.4587   -6.9648 O   0  0  0  0  0  0  0  0  0  0  0  0
   29.5889  -18.5010   -5.9641 O   0  0  0  0  0  0  0  0  0  0  0  0
  2  1  1  0
  3  5  1  0
  3  2  1  0
  3  4  1  1
  5  6  1  6
  7  5  1  0
  7  8  2  0
 10  9  1  0
 11 10  1  0
 11 13  1  0
 11 12  1  1
 13 14  1  6
 14  7  1  0
 15 13  1  0
 16 15  2  0
 18 17  1  1
 18 20  1  0
 19 18  1  0
 21 20  1  1
 21 22  1  0
 21 23  1  0
 22 15  1  0
 23 25  1  0
 24 23  2  0
M  END
$$$$
