IIL.pdb
     RDKit          3D

 25 24  0  0  1  0  0  0  0  0999 V2000
   24.3209  -14.1959  -15.3439 C   0  0  0  0  0  0  0  0  0  0  0  0
   24.9734  -15.3213  -16.1245 C   0  0  0  0  0  0  0  0  0  0  0  0
   25.0885  -16.5054  -15.2250 C   0  0  2  0  0  0  0  0  0  0  0  0
   25.9185  -16.0940  -14.0209 C   0  0  0  0  0  0  0  0  0  0  0  0
   25.7328  -17.7052  -15.8301 C   0  0  2  0  0  0  0  0  0  0  0  0
   25.0869  -18.0103  -17.0842 N   0  0  0  0  0  0  0  0  0  0  0  0
   25.7771  -18.8926  -14.9562 C   0  0  0  0  0  0  0  0  0  0  0  0
   24.7853  -19.6400  -14.8053 O   0  0  0  0  0  0  0  0  0  0  0  0
   29.8872  -22.2534  -15.4851 C   0  0  0  0  0  0  0  0  0  0  0  0
   28.5799  -21.5789  -15.1602 C   0  0  0  0  0  0  0  0  0  0  0  0
   28.3921  -21.1167  -13.7772 C   0  0  2  0  0  0  0  0  0  0  0  0
   28.5830  -22.3259  -12.8442 C   0  0  0  0  0  0  0  0  0  0  0  0
   27.1834  -20.3375  -13.4256 C   0  0  2  0  0  0  0  0  0  0  0  0
   26.9786  -19.1969  -14.2657 N   0  0  0  0  0  0  0  0  0  0  0  0
   27.0848  -20.0232  -11.9763 C   0  0  0  0  0  0  0  0  0  0  0  0
   28.0874  -19.7692  -11.2541 O   0  0  0  0  0  0  0  0  0  0  0  0
   27.6082  -18.6973   -7.2873 C   0  0  0  0  0  0  0  0  0  0  0  0
   27.3457  -19.7024   -8.3757 C   0  0  1  0  0  0  0  0  0  0  0  0
   28.0207  -21.0321   -8.0832 C   0  0  0  0  0  0  0  0  0  0  0  0
   25.9489  -19.8381   -8.8202 C   0  0  0  0  0  0  0  0  0  0  0  0
   25.6276  -20.6423  -10.0164 C   0  0  2  0  0  0  0  0  0  0  0  0
   25.8385  -19.9850  -11.2889 N   0  0  0  0  0  0  0  0  0  0  0  0
   24.2437  -21.1823  -10.0367 C   0  0  0  0  0  0  0  0  0  0  0  0
   23.4632  -20.9871  -11.0023 O   0  0  0  0  0  0  0  0  0  0  0  0
   23.7209  -21.9350   -8.9969 O   0  0  0  0  0  0  0  0  0  0  0  0
  2  1  1  0
  3  5  1  0
  3  2  1  0
  3  4  1  1
  5  6  1  6
  7  5  1  0
  7  8  2  0
 10  9  1  0
 11 10  1  0
 11 13  1  0
 11 12  1  1
 13 14  1  6
 14  7  1  0
 15 13  1  0
 16 15  2  0
 18 17  1  1
 18 20  1  0
 19 18  1  0
 21 20  1  1
 21 22  1  0
 21 23  1  0
 22 15  1  0
 23 25  1  0
 24 23  2  0
M  END
$$$$
