CET.pdb
     RDKit          3D

 23 22  0  0  1  0  0  0  0  0999 V2000
   -4.2880  -26.3878   27.5669 N   0  0  0  0  0  0  0  0  0  0  0  0
   -3.9167  -25.8153   28.8354 C   0  0  1  0  0  0  0  0  0  0  0  0
   -2.4502  -25.4372   28.7445 C   0  0  0  0  0  0  0  0  0  0  0  0
   -1.5139  -26.8775   28.1854 S   0  0  0  0  0  0  0  0  0  0  0  0
   -4.7386  -24.5895   29.1444 C   0  0  0  0  0  0  0  0  0  0  0  0
   -4.4629  -24.0112   30.2229 O   0  0  0  0  0  0  0  0  0  0  0  0
   -5.7432  -24.1646   28.2394 N   0  0  0  0  0  0  0  0  0  0  0  0
   -6.5624  -23.0181   28.5396 C   0  0  1  0  0  0  0  0  0  0  0  0
   -6.4316  -22.0567   27.4059 C   0  0  0  0  0  0  0  0  0  0  0  0
   -5.0780  -21.5541   27.1027 C   0  0  0  0  0  0  0  0  0  0  0  0
   -4.9921  -20.6058   25.9725 C   0  0  0  0  0  0  0  0  0  0  0  0
   -5.9720  -20.3387   25.2741 O   0  0  0  0  0  0  0  0  0  0  0  0
   -7.9116  -23.4269   28.9049 C   0  0  0  0  0  0  0  0  0  0  0  0
   -8.6867  -24.0482   28.1302 O   0  0  0  0  0  0  0  0  0  0  0  0
   -3.7827  -19.9682   25.6482 O   0  0  0  0  0  0  0  0  0  0  0  0
   -9.1649  -26.0117   30.9181 C   0  0  0  0  0  0  0  0  0  0  0  0
   -9.6806  -24.7630   31.5773 C   0  0  1  0  0  0  0  0  0  0  0  0
   -9.0210  -24.5692   32.7642 O   0  0  0  0  0  0  0  0  0  0  0  0
   -9.7261  -23.5858   30.6695 C   0  0  2  0  0  0  0  0  0  0  0  0
   -8.4360  -23.1359   30.1880 N   0  0  0  0  0  0  0  0  0  0  0  0
  -10.4194  -22.4323   31.2950 C   0  0  0  0  0  0  0  0  0  0  0  0
  -11.6345  -22.5119   31.6553 O   0  0  0  0  0  0  0  0  0  0  0  0
   -9.7454  -21.2531   31.4896 O   0  0  0  0  0  0  0  0  0  0  0  0
  2  1  1  6
  3  2  1  0
  3  4  1  0
  5  2  1  0
  6  5  2  0
  7  5  1  0
  8 13  1  0
  8  7  1  0
  8  9  1  6
 10  9  1  0
 11 10  1  0
 12 11  2  0
 13 14  2  0
 15 11  1  0
 17 16  1  6
 17 19  1  0
 17 18  1  0
 19 20  1  1
 20 13  1  0
 21 23  1  0
 21 19  1  0
 22 21  2  0
M  END
$$$$
