CET.pdb
     RDKit          3D

 23 22  0  0  1  0  0  0  0  0999 V2000
    5.1368  -13.5332   26.0153 N   0  0  0  0  0  0  0  0  0  0  0  0
    6.4408  -13.2053   25.4987 C   0  0  1  0  0  0  0  0  0  0  0  0
    7.0529  -12.1858   26.4409 C   0  0  0  0  0  0  0  0  0  0  0  0
    6.1952  -10.6103   26.2266 S   0  0  0  0  0  0  0  0  0  0  0  0
    7.3242  -14.4253   25.4278 C   0  0  0  0  0  0  0  0  0  0  0  0
    7.2536  -15.2019   26.4103 O   0  0  0  0  0  0  0  0  0  0  0  0
    8.1589  -14.6299   24.3008 N   0  0  0  0  0  0  0  0  0  0  0  0
    9.0186  -15.7835   24.2255 C   0  0  1  0  0  0  0  0  0  0  0  0
    9.4232  -15.9565   22.7997 C   0  0  0  0  0  0  0  0  0  0  0  0
   10.3472  -17.0648   22.4922 C   0  0  0  0  0  0  0  0  0  0  0  0
   10.6365  -17.2699   21.0575 C   0  0  0  0  0  0  0  0  0  0  0  0
    9.7356  -17.4072   20.2275 O   0  0  0  0  0  0  0  0  0  0  0  0
   10.0895  -15.6965   25.2086 C   0  0  0  0  0  0  0  0  0  0  0  0
   10.9908  -14.8166   25.1833 O   0  0  0  0  0  0  0  0  0  0  0  0
   11.9575  -17.3167   20.5812 O   0  0  0  0  0  0  0  0  0  0  0  0
   10.7927  -14.5611   28.5197 C   0  0  0  0  0  0  0  0  0  0  0  0
   10.9238  -16.0580   28.5635 C   0  0  1  0  0  0  0  0  0  0  0  0
    9.8377  -16.5914   29.2094 O   0  0  0  0  0  0  0  0  0  0  0  0
   11.2482  -16.6660   27.2456 C   0  0  2  0  0  0  0  0  0  0  0  0
   10.1745  -16.6261   26.2739 N   0  0  0  0  0  0  0  0  0  0  0  0
   11.7019  -18.0723   27.3826 C   0  0  0  0  0  0  0  0  0  0  0  0
   11.0994  -19.0188   26.7877 O   0  0  0  0  0  0  0  0  0  0  0  0
   12.7894  -18.3666   28.1660 O   0  0  0  0  0  0  0  0  0  0  0  0
  2  1  1  1
  3  2  1  0
  3  4  1  0
  5  2  1  0
  6  5  2  0
  7  5  1  0
  8 13  1  0
  8  7  1  0
  8  9  1  6
 10  9  1  0
 11 10  1  0
 12 11  2  0
 13 14  2  0
 15 11  1  0
 17 16  1  6
 17 19  1  0
 17 18  1  0
 19 20  1  6
 20 13  1  0
 21 23  1  0
 21 19  1  0
 22 21  2  0
M  END
$$$$
