CET.pdb
     RDKit          3D

 23 22  0  0  1  0  0  0  0  0999 V2000
    6.7216  -15.5104   18.9187 N   0  0  0  0  0  0  0  0  0  0  0  0
    7.6700  -14.7280   19.6691 C   0  0  1  0  0  0  0  0  0  0  0  0
    7.1383  -13.3079   19.7209 C   0  0  0  0  0  0  0  0  0  0  0  0
    8.2632  -12.3038   20.7161 S   0  0  0  0  0  0  0  0  0  0  0  0
    7.8321  -15.2605   21.0704 C   0  0  0  0  0  0  0  0  0  0  0  0
    6.7682  -15.5752   21.6558 O   0  0  0  0  0  0  0  0  0  0  0  0
    9.1256  -15.3764   21.6381 N   0  0  0  0  0  0  0  0  0  0  0  0
    9.3034  -15.9608   22.9429 C   0  0  1  0  0  0  0  0  0  0  0  0
   10.5214  -16.8215   22.8932 C   0  0  0  0  0  0  0  0  0  0  0  0
   10.8992  -17.5250   24.1337 C   0  0  0  0  0  0  0  0  0  0  0  0
   12.1826  -18.2560   24.0826 C   0  0  0  0  0  0  0  0  0  0  0  0
   13.0841  -17.9301   23.3077 O   0  0  0  0  0  0  0  0  0  0  0  0
    9.2608  -14.9381   23.9788 C   0  0  0  0  0  0  0  0  0  0  0  0
    9.8772  -13.8420   23.9035 O   0  0  0  0  0  0  0  0  0  0  0  0
   12.4264  -19.3574   24.9203 O   0  0  0  0  0  0  0  0  0  0  0  0
    6.9949  -12.3845   25.4001 C   0  0  0  0  0  0  0  0  0  0  0  0
    7.1928  -13.4601   26.4315 C   0  0  1  0  0  0  0  0  0  0  0  0
    6.0612  -14.2314   26.5078 O   0  0  0  0  0  0  0  0  0  0  0  0
    8.4689  -14.2078   26.2746 C   0  0  2  0  0  0  0  0  0  0  0  0
    8.5022  -15.1314   25.1591 N   0  0  0  0  0  0  0  0  0  0  0  0
    8.8286  -14.9513   27.5076 C   0  0  0  0  0  0  0  0  0  0  0  0
    8.9540  -16.2150   27.5006 O   0  0  0  0  0  0  0  0  0  0  0  0
    9.0289  -14.2711   28.6823 O   0  0  0  0  0  0  0  0  0  0  0  0
  2  1  1  6
  3  2  1  0
  3  4  1  0
  5  2  1  0
  6  5  2  0
  7  5  1  0
  8 13  1  0
  8  7  1  0
  8  9  1  6
 10  9  1  0
 11 10  1  0
 12 11  2  0
 13 14  2  0
 15 11  1  0
 17 16  1  6
 17 19  1  0
 17 18  1  0
 19 20  1  6
 20 13  1  0
 21 23  1  0
 21 19  1  0
 22 21  2  0
M  END
$$$$
