CET.pdb
     RDKit          3D

 23 22  0  0  1  0  0  0  0  0999 V2000
    7.3709  -14.8906   18.2835 N   0  0  0  0  0  0  0  0  0  0  0  0
    8.4933  -14.5088   19.1016 C   0  0  1  0  0  0  0  0  0  0  0  0
    8.1570  -13.1678   19.7265 C   0  0  0  0  0  0  0  0  0  0  0  0
    8.1239  -11.9144   18.4259 S   0  0  0  0  0  0  0  0  0  0  0  0
    8.7503  -15.5240   20.1866 C   0  0  0  0  0  0  0  0  0  0  0  0
    7.7459  -16.1686   20.5730 O   0  0  0  0  0  0  0  0  0  0  0  0
   10.0607  -15.6961   20.6985 N   0  0  0  0  0  0  0  0  0  0  0  0
   10.3350  -16.7109   21.6835 C   0  0  1  0  0  0  0  0  0  0  0  0
   11.6311  -17.3563   21.3223 C   0  0  0  0  0  0  0  0  0  0  0  0
   12.1655  -18.3632   22.2590 C   0  0  0  0  0  0  0  0  0  0  0  0
   13.4676  -18.9519   21.8821 C   0  0  0  0  0  0  0  0  0  0  0  0
   14.1412  -19.6028   22.6833 O   0  0  0  0  0  0  0  0  0  0  0  0
   10.2211  -16.1696   23.0307 C   0  0  0  0  0  0  0  0  0  0  0  0
   10.8864  -15.1835   23.4455 O   0  0  0  0  0  0  0  0  0  0  0  0
   13.9913  -18.7915   20.5882 O   0  0  0  0  0  0  0  0  0  0  0  0
    7.3472  -14.4788   24.7495 C   0  0  0  0  0  0  0  0  0  0  0  0
    7.6828  -15.7287   25.5143 C   0  0  1  0  0  0  0  0  0  0  0  0
    6.6975  -16.6620   25.3160 O   0  0  0  0  0  0  0  0  0  0  0  0
    9.0733  -16.2073   25.2918 C   0  0  2  0  0  0  0  0  0  0  0  0
    9.3305  -16.7434   23.9708 N   0  0  0  0  0  0  0  0  0  0  0  0
    9.4744  -17.2248   26.2950 C   0  0  0  0  0  0  0  0  0  0  0  0
    9.7826  -18.4064   25.9463 O   0  0  0  0  0  0  0  0  0  0  0  0
    9.5136  -16.8941   27.6261 O   0  0  0  0  0  0  0  0  0  0  0  0
  2  1  1  1
  3  2  1  0
  3  4  1  0
  5  2  1  0
  6  5  2  0
  7  5  1  0
  8 13  1  0
  8  7  1  0
  8  9  1  6
 10  9  1  0
 11 10  1  0
 12 11  2  0
 13 14  2  0
 15 11  1  0
 17 16  1  6
 17 19  1  0
 17 18  1  0
 19 20  1  6
 20 13  1  0
 21 23  1  0
 21 19  1  0
 22 21  2  0
M  END
$$$$
