CET.pdb
     RDKit          3D

 23 22  0  0  1  0  0  0  0  0999 V2000
    7.8311  -15.1842   18.1769 N   0  0  0  0  0  0  0  0  0  0  0  0
    8.8073  -14.5430   19.0200 C   0  0  1  0  0  0  0  0  0  0  0  0
    8.1409  -13.3243   19.6305 C   0  0  0  0  0  0  0  0  0  0  0  0
    7.9079  -12.0830   18.3388 S   0  0  0  0  0  0  0  0  0  0  0  0
    9.2761  -15.4671   20.1154 C   0  0  0  0  0  0  0  0  0  0  0  0
    8.3926  -16.2026   20.6175 O   0  0  0  0  0  0  0  0  0  0  0  0
   10.6371  -15.4625   20.5108 N   0  0  0  0  0  0  0  0  0  0  0  0
   11.1041  -16.3559   21.5400 C   0  0  1  0  0  0  0  0  0  0  0  0
   12.5679  -16.5602   21.3347 C   0  0  0  0  0  0  0  0  0  0  0  0
   13.2636  -17.4471   22.2866 C   0  0  0  0  0  0  0  0  0  0  0  0
   14.7246  -17.5609   22.0958 C   0  0  0  0  0  0  0  0  0  0  0  0
   15.2245  -18.4858   21.4523 O   0  0  0  0  0  0  0  0  0  0  0  0
   10.6808  -15.8969   22.8557 C   0  0  0  0  0  0  0  0  0  0  0  0
   10.8808  -14.7298   23.2857 O   0  0  0  0  0  0  0  0  0  0  0  0
   15.6059  -16.6136   22.6437 O   0  0  0  0  0  0  0  0  0  0  0  0
    7.5791  -14.9452   24.2719 C   0  0  0  0  0  0  0  0  0  0  0  0
    8.0159  -16.1363   25.0783 C   0  0  1  0  0  0  0  0  0  0  0  0
    7.2318  -17.2151   24.7579 O   0  0  0  0  0  0  0  0  0  0  0  0
    9.4831  -16.3760   25.0392 C   0  0  2  0  0  0  0  0  0  0  0  0
   10.0037  -16.7668   23.7450 N   0  0  0  0  0  0  0  0  0  0  0  0
    9.9040  -17.3903   26.0375 C   0  0  0  0  0  0  0  0  0  0  0  0
   10.4650  -18.4719   25.6798 O   0  0  0  0  0  0  0  0  0  0  0  0
    9.6851  -17.1664   27.3735 O   0  0  0  0  0  0  0  0  0  0  0  0
  2  1  1  6
  3  2  1  0
  3  4  1  0
  5  2  1  0
  6  5  2  0
  7  5  1  0
  8 13  1  0
  8  7  1  0
  8  9  1  1
 10  9  1  0
 11 10  1  0
 12 11  2  0
 13 14  2  0
 15 11  1  0
 17 16  1  6
 17 19  1  0
 17 18  1  0
 19 20  1  6
 20 13  1  0
 21 23  1  0
 21 19  1  0
 22 21  2  0
M  END
$$$$
