CET.pdb
     RDKit          3D

 23 22  0  0  1  0  0  0  0  0999 V2000
    7.1071  -15.9716   18.6021 N   0  0  0  0  0  0  0  0  0  0  0  0
    7.9787  -15.1867   19.4383 C   0  0  1  0  0  0  0  0  0  0  0  0
    7.1831  -13.9844   19.9112 C   0  0  0  0  0  0  0  0  0  0  0  0
    8.2492  -12.9535   20.9430 S   0  0  0  0  0  0  0  0  0  0  0  0
    8.4554  -15.9798   20.6288 C   0  0  0  0  0  0  0  0  0  0  0  0
    7.5664  -16.6104   21.2497 O   0  0  0  0  0  0  0  0  0  0  0  0
    9.8293  -15.9765   20.9770 N   0  0  0  0  0  0  0  0  0  0  0  0
   10.3110  -16.7871   22.0663 C   0  0  1  0  0  0  0  0  0  0  0  0
   11.7355  -17.1295   21.7826 C   0  0  0  0  0  0  0  0  0  0  0  0
   12.4427  -17.9496   22.7845 C   0  0  0  0  0  0  0  0  0  0  0  0
   13.8303  -18.3199   22.4358 C   0  0  0  0  0  0  0  0  0  0  0  0
   14.6856  -18.5181   23.3010 O   0  0  0  0  0  0  0  0  0  0  0  0
   10.0276  -16.1549   23.3472 C   0  0  0  0  0  0  0  0  0  0  0  0
   10.3665  -14.9760   23.6341 O   0  0  0  0  0  0  0  0  0  0  0  0
   14.2308  -18.4612   21.0964 O   0  0  0  0  0  0  0  0  0  0  0  0
    7.3168  -14.6039   24.9113 C   0  0  0  0  0  0  0  0  0  0  0  0
    7.6024  -15.7976   25.7792 C   0  0  1  0  0  0  0  0  0  0  0  0
    6.6182  -16.7361   25.6006 O   0  0  0  0  0  0  0  0  0  0  0  0
    8.9969  -16.3005   25.6598 C   0  0  2  0  0  0  0  0  0  0  0  0
    9.3370  -16.8560   24.3659 N   0  0  0  0  0  0  0  0  0  0  0  0
    9.3102  -17.3122   26.6994 C   0  0  0  0  0  0  0  0  0  0  0  0
    9.6451  -18.4962   26.3851 O   0  0  0  0  0  0  0  0  0  0  0  0
    9.2372  -16.9735   28.0271 O   0  0  0  0  0  0  0  0  0  0  0  0
  2  1  1  6
  3  2  1  0
  3  4  1  0
  5  2  1  0
  6  5  2  0
  7  5  1  0
  8 13  1  0
  8  7  1  0
  8  9  1  6
 10  9  1  0
 11 10  1  0
 12 11  2  0
 13 14  2  0
 15 11  1  0
 17 16  1  6
 17 19  1  0
 17 18  1  0
 19 20  1  6
 20 13  1  0
 21 23  1  0
 21 19  1  0
 22 21  2  0
M  END
$$$$
