CET.pdb
     RDKit          3D

 23 22  0  0  1  0  0  0  0  0999 V2000
    6.6006  -15.3912   18.9355 N   0  0  0  0  0  0  0  0  0  0  0  0
    7.5785  -14.6339   19.6738 C   0  0  1  0  0  0  0  0  0  0  0  0
    7.0313  -13.2276   19.8307 C   0  0  0  0  0  0  0  0  0  0  0  0
    8.1982  -12.2577   20.8113 S   0  0  0  0  0  0  0  0  0  0  0  0
    7.8253  -15.2370   21.0335 C   0  0  0  0  0  0  0  0  0  0  0  0
    6.8033  -15.6352   21.6421 O   0  0  0  0  0  0  0  0  0  0  0  0
    9.1461  -15.3228   21.5404 N   0  0  0  0  0  0  0  0  0  0  0  0
    9.4035  -15.9477   22.8128 C   0  0  1  0  0  0  0  0  0  0  0  0
   10.6183  -16.8012   22.6625 C   0  0  0  0  0  0  0  0  0  0  0  0
   11.0478  -17.5742   23.8434 C   0  0  0  0  0  0  0  0  0  0  0  0
   12.3137  -18.3205   23.6868 C   0  0  0  0  0  0  0  0  0  0  0  0
   12.3285  -19.5197   23.4022 O   0  0  0  0  0  0  0  0  0  0  0  0
    9.4209  -14.9586   23.8816 C   0  0  0  0  0  0  0  0  0  0  0  0
   10.1567  -13.9361   23.8747 O   0  0  0  0  0  0  0  0  0  0  0  0
   13.5568  -17.6882   23.8573 O   0  0  0  0  0  0  0  0  0  0  0  0
    7.1985  -12.3182   25.2277 C   0  0  0  0  0  0  0  0  0  0  0  0
    7.3375  -13.3803   26.2824 C   0  0  1  0  0  0  0  0  0  0  0  0
    6.1677  -14.0910   26.3697 O   0  0  0  0  0  0  0  0  0  0  0  0
    8.5742  -14.1954   26.1470 C   0  0  2  0  0  0  0  0  0  0  0  0
    8.5870  -15.1023   25.0174 N   0  0  0  0  0  0  0  0  0  0  0  0
    8.8582  -14.9766   27.3764 C   0  0  0  0  0  0  0  0  0  0  0  0
    8.9305  -16.2441   27.3482 O   0  0  0  0  0  0  0  0  0  0  0  0
    9.0451  -14.3276   28.5709 O   0  0  0  0  0  0  0  0  0  0  0  0
  2  1  1  1
  3  2  1  0
  3  4  1  0
  5  2  1  0
  6  5  2  0
  7  5  1  0
  8 13  1  0
  8  7  1  0
  8  9  1  6
 10  9  1  0
 11 10  1  0
 12 11  2  0
 13 14  2  0
 15 11  1  0
 17 16  1  6
 17 19  1  0
 17 18  1  0
 19 20  1  6
 20 13  1  0
 21 23  1  0
 21 19  1  0
 22 21  2  0
M  END
$$$$
