CET.pdb
     RDKit          3D

 23 22  0  0  1  0  0  0  0  0999 V2000
    6.6700  -14.3332   19.2346 N   0  0  0  0  0  0  0  0  0  0  0  0
    8.0083  -14.3488   19.7672 C   0  0  1  0  0  0  0  0  0  0  0  0
    8.5006  -12.9137   19.7844 C   0  0  0  0  0  0  0  0  0  0  0  0
    7.5698  -11.9967   21.0320 S   0  0  0  0  0  0  0  0  0  0  0  0
    8.0344  -14.9110   21.1660 C   0  0  0  0  0  0  0  0  0  0  0  0
    6.9494  -14.8519   21.7929 O   0  0  0  0  0  0  0  0  0  0  0  0
    9.2339  -15.4578   21.6867 N   0  0  0  0  0  0  0  0  0  0  0  0
    9.2582  -16.0558   22.9971 C   0  0  1  0  0  0  0  0  0  0  0  0
   10.3390  -17.0846   23.0072 C   0  0  0  0  0  0  0  0  0  0  0  0
   10.5536  -17.8228   24.2664 C   0  0  0  0  0  0  0  0  0  0  0  0
   11.7078  -18.7458   24.2717 C   0  0  0  0  0  0  0  0  0  0  0  0
   12.8550  -18.3483   24.4839 O   0  0  0  0  0  0  0  0  0  0  0  0
    9.3121  -15.0330   24.0324 C   0  0  0  0  0  0  0  0  0  0  0  0
   10.1125  -14.0604   24.0119 O   0  0  0  0  0  0  0  0  0  0  0  0
   11.5410  -20.1205   24.0335 O   0  0  0  0  0  0  0  0  0  0  0  0
    6.8839  -12.3683   25.2593 C   0  0  0  0  0  0  0  0  0  0  0  0
    7.1303  -13.3661   26.3563 C   0  0  1  0  0  0  0  0  0  0  0  0
    6.0156  -14.1485   26.5189 O   0  0  0  0  0  0  0  0  0  0  0  0
    8.4149  -14.1021   26.2141 C   0  0  2  0  0  0  0  0  0  0  0  0
    8.4417  -15.0832   25.1487 N   0  0  0  0  0  0  0  0  0  0  0  0
    8.8096  -14.7735   27.4774 C   0  0  0  0  0  0  0  0  0  0  0  0
    8.9212  -16.0368   27.5438 O   0  0  0  0  0  0  0  0  0  0  0  0
    9.0581  -14.0254   28.6006 O   0  0  0  0  0  0  0  0  0  0  0  0
  2  1  1  1
  3  2  1  0
  3  4  1  0
  5  2  1  0
  6  5  2  0
  7  5  1  0
  8 13  1  0
  8  7  1  0
  8  9  1  6
 10  9  1  0
 11 10  1  0
 12 11  2  0
 13 14  2  0
 15 11  1  0
 17 16  1  6
 17 19  1  0
 17 18  1  0
 19 20  1  6
 20 13  1  0
 21 23  1  0
 21 19  1  0
 22 21  2  0
M  END
$$$$
