CET.pdb
     RDKit          3D

 23 22  0  0  1  0  0  0  0  0999 V2000
    7.2562  -14.8112   18.7244 N   0  0  0  0  0  0  0  0  0  0  0  0
    8.1205  -14.2179   19.7122 C   0  0  1  0  0  0  0  0  0  0  0  0
    7.5446  -12.8559   20.0517 C   0  0  0  0  0  0  0  0  0  0  0  0
    8.0030  -11.6916   18.7486 S   0  0  0  0  0  0  0  0  0  0  0  0
    8.1899  -15.0643   20.9582 C   0  0  0  0  0  0  0  0  0  0  0  0
    7.1179  -15.6233   21.2926 O   0  0  0  0  0  0  0  0  0  0  0  0
    9.4126  -15.1845   21.6648 N   0  0  0  0  0  0  0  0  0  0  0  0
    9.4896  -15.9746   22.8669 C   0  0  1  0  0  0  0  0  0  0  0  0
   10.5878  -16.9689   22.6878 C   0  0  0  0  0  0  0  0  0  0  0  0
   10.8705  -17.8706   23.8208 C   0  0  0  0  0  0  0  0  0  0  0  0
   12.0032  -18.7994   23.6248 C   0  0  0  0  0  0  0  0  0  0  0  0
   13.1716  -18.4068   23.6270 O   0  0  0  0  0  0  0  0  0  0  0  0
    9.5591  -15.1207   24.0446 C   0  0  0  0  0  0  0  0  0  0  0  0
   10.4300  -14.2250   24.2070 O   0  0  0  0  0  0  0  0  0  0  0  0
   11.7908  -20.1742   23.4271 O   0  0  0  0  0  0  0  0  0  0  0  0
    7.1094  -12.5444   25.4729 C   0  0  0  0  0  0  0  0  0  0  0  0
    7.2979  -13.6681   26.4536 C   0  0  1  0  0  0  0  0  0  0  0  0
    6.1645  -14.4399   26.4848 O   0  0  0  0  0  0  0  0  0  0  0  0
    8.5739  -14.4100   26.2707 C   0  0  2  0  0  0  0  0  0  0  0  0
    8.6234  -15.2600   25.0987 N   0  0  0  0  0  0  0  0  0  0  0  0
    8.9095  -15.2331   27.4591 C   0  0  0  0  0  0  0  0  0  0  0  0
    8.9876  -16.4982   27.3821 O   0  0  0  0  0  0  0  0  0  0  0  0
    9.1387  -14.6263   28.6684 O   0  0  0  0  0  0  0  0  0  0  0  0
  2  1  1  6
  3  2  1  0
  3  4  1  0
  5  2  1  0
  6  5  2  0
  7  5  1  0
  8 13  1  0
  8  7  1  0
  8  9  1  6
 10  9  1  0
 11 10  1  0
 12 11  2  0
 13 14  2  0
 15 11  1  0
 17 16  1  6
 17 19  1  0
 17 18  1  0
 19 20  1  6
 20 13  1  0
 21 23  1  0
 21 19  1  0
 22 21  2  0
M  END
$$$$
