CET.pdb
     RDKit          3D

 23 22  0  0  1  0  0  0  0  0999 V2000
    6.7663  -15.7021   19.1194 N   0  0  0  0  0  0  0  0  0  0  0  0
    7.7146  -14.9138   19.8638 C   0  0  1  0  0  0  0  0  0  0  0  0
    7.2291  -13.4769   19.8281 C   0  0  0  0  0  0  0  0  0  0  0  0
    8.3613  -12.4582   20.7999 S   0  0  0  0  0  0  0  0  0  0  0  0
    7.8120  -15.3812   21.2940 C   0  0  0  0  0  0  0  0  0  0  0  0
    6.7194  -15.6363   21.8551 O   0  0  0  0  0  0  0  0  0  0  0  0
    9.0809  -15.5057   21.9130 N   0  0  0  0  0  0  0  0  0  0  0  0
    9.1944  -16.0157   23.2556 C   0  0  1  0  0  0  0  0  0  0  0  0
   10.2846  -17.0346   23.2640 C   0  0  0  0  0  0  0  0  0  0  0  0
   10.5811  -17.6921   24.5511 C   0  0  0  0  0  0  0  0  0  0  0  0
   11.6830  -18.6765   24.5213 C   0  0  0  0  0  0  0  0  0  0  0  0
   11.8203  -19.4680   23.5865 O   0  0  0  0  0  0  0  0  0  0  0  0
    9.3027  -14.9265   24.2161 C   0  0  0  0  0  0  0  0  0  0  0  0
   10.0689  -13.9377   24.0670 O   0  0  0  0  0  0  0  0  0  0  0  0
   12.6223  -18.7487   25.5638 O   0  0  0  0  0  0  0  0  0  0  0  0
    7.0900  -12.1262   25.3877 C   0  0  0  0  0  0  0  0  0  0  0  0
    7.3065  -13.0877   26.5228 C   0  0  1  0  0  0  0  0  0  0  0  0
    6.1640  -13.8195   26.7237 O   0  0  0  0  0  0  0  0  0  0  0  0
    8.5609  -13.8777   26.4027 C   0  0  2  0  0  0  0  0  0  0  0  0
    8.5294  -14.9253   25.4028 N   0  0  0  0  0  0  0  0  0  0  0  0
    8.9601  -14.4808   27.6987 C   0  0  0  0  0  0  0  0  0  0  0  0
    9.0569  -15.7395   27.8362 O   0  0  0  0  0  0  0  0  0  0  0  0
    9.2290  -13.6729   28.7747 O   0  0  0  0  0  0  0  0  0  0  0  0
  2  1  1  6
  3  2  1  0
  3  4  1  0
  5  2  1  0
  6  5  2  0
  7  5  1  0
  8 13  1  0
  8  7  1  0
  8  9  1  6
 10  9  1  0
 11 10  1  0
 12 11  2  0
 13 14  2  0
 15 11  1  0
 17 16  1  6
 17 19  1  0
 17 18  1  0
 19 20  1  6
 20 13  1  0
 21 23  1  0
 21 19  1  0
 22 21  2  0
M  END
$$$$
