CET.pdb
     RDKit          3D

 23 22  0  0  1  0  0  0  0  0999 V2000
    7.0002  -14.8009   18.9066 N   0  0  0  0  0  0  0  0  0  0  0  0
    8.2623  -14.6146   19.5754 C   0  0  1  0  0  0  0  0  0  0  0  0
    8.5730  -13.1299   19.5407 C   0  0  0  0  0  0  0  0  0  0  0  0
    7.4442  -12.2751   20.6628 S   0  0  0  0  0  0  0  0  0  0  0  0
    8.1987  -15.0863   21.0061 C   0  0  0  0  0  0  0  0  0  0  0  0
    7.0465  -15.1842   21.4925 O   0  0  0  0  0  0  0  0  0  0  0  0
    9.3941  -15.3852   21.7065 N   0  0  0  0  0  0  0  0  0  0  0  0
    9.3459  -15.9818   23.0169 C   0  0  1  0  0  0  0  0  0  0  0  0
   10.3736  -17.0629   23.0621 C   0  0  0  0  0  0  0  0  0  0  0  0
   10.4910  -17.8275   24.3184 C   0  0  0  0  0  0  0  0  0  0  0  0
   11.5495  -18.8587   24.3366 C   0  0  0  0  0  0  0  0  0  0  0  0
   11.4481  -19.8801   25.0191 O   0  0  0  0  0  0  0  0  0  0  0  0
    9.4165  -14.9615   24.0536 C   0  0  0  0  0  0  0  0  0  0  0  0
   10.1843  -13.9642   24.0006 O   0  0  0  0  0  0  0  0  0  0  0  0
   12.7195  -18.7138   23.5722 O   0  0  0  0  0  0  0  0  0  0  0  0
    7.2238  -12.2315   25.3153 C   0  0  0  0  0  0  0  0  0  0  0  0
    7.3699  -13.2585   26.4033 C   0  0  1  0  0  0  0  0  0  0  0  0
    6.2015  -13.9674   26.5200 O   0  0  0  0  0  0  0  0  0  0  0  0
    8.6069  -14.0761   26.2880 C   0  0  2  0  0  0  0  0  0  0  0  0
    8.6014  -15.0429   25.2091 N   0  0  0  0  0  0  0  0  0  0  0  0
    8.9180  -14.7887   27.5521 C   0  0  0  0  0  0  0  0  0  0  0  0
    8.9437  -16.0573   27.6028 O   0  0  0  0  0  0  0  0  0  0  0  0
    9.1814  -14.0734   28.6931 O   0  0  0  0  0  0  0  0  0  0  0  0
  2  1  1  1
  3  2  1  0
  3  4  1  0
  5  2  1  0
  6  5  2  0
  7  5  1  0
  8 13  1  0
  8  7  1  0
  8  9  1  1
 10  9  1  0
 11 10  1  0
 12 11  2  0
 13 14  2  0
 15 11  1  0
 17 16  1  6
 17 19  1  0
 17 18  1  0
 19 20  1  6
 20 13  1  0
 21 23  1  0
 21 19  1  0
 22 21  2  0
M  END
$$$$
