CET.pdb
     RDKit          3D

 23 22  0  0  1  0  0  0  0  0999 V2000
    7.4203  -14.9358   17.6214 N   0  0  0  0  0  0  0  0  0  0  0  0
    8.2754  -14.2801   18.5773 C   0  0  1  0  0  0  0  0  0  0  0  0
    7.5121  -13.0843   19.1152 C   0  0  0  0  0  0  0  0  0  0  0  0
    8.4887  -12.3156   20.4265 S   0  0  0  0  0  0  0  0  0  0  0  0
    8.6368  -15.2041   19.7128 C   0  0  0  0  0  0  0  0  0  0  0  0
    7.6944  -15.8954   20.1683 O   0  0  0  0  0  0  0  0  0  0  0  0
    9.9696  -15.2472   20.1931 N   0  0  0  0  0  0  0  0  0  0  0  0
   10.3585  -16.2126   21.1892 C   0  0  1  0  0  0  0  0  0  0  0  0
   11.7712  -16.6063   20.9133 C   0  0  0  0  0  0  0  0  0  0  0  0
   12.3818  -17.5993   21.8177 C   0  0  0  0  0  0  0  0  0  0  0  0
   13.7786  -17.9672   21.5052 C   0  0  0  0  0  0  0  0  0  0  0  0
   14.6114  -17.1235   21.1675 O   0  0  0  0  0  0  0  0  0  0  0  0
   10.0599  -15.7243   22.5284 C   0  0  0  0  0  0  0  0  0  0  0  0
   10.2550  -14.5358   22.8978 O   0  0  0  0  0  0  0  0  0  0  0  0
   14.2140  -19.3010   21.5814 O   0  0  0  0  0  0  0  0  0  0  0  0
    7.3662  -14.5534   24.3315 C   0  0  0  0  0  0  0  0  0  0  0  0
    7.7641  -15.8012   25.0694 C   0  0  1  0  0  0  0  0  0  0  0  0
    6.8428  -16.7876   24.8254 O   0  0  0  0  0  0  0  0  0  0  0  0
    9.1857  -16.1867   24.8636 C   0  0  2  0  0  0  0  0  0  0  0  0
    9.5201  -16.5881   23.5125 N   0  0  0  0  0  0  0  0  0  0  0  0
    9.6042  -17.2684   25.7894 C   0  0  0  0  0  0  0  0  0  0  0  0
   10.0606  -18.3694   25.3509 O   0  0  0  0  0  0  0  0  0  0  0  0
    9.4978  -17.0871   27.1454 O   0  0  0  0  0  0  0  0  0  0  0  0
  2  1  1  6
  3  2  1  0
  3  4  1  0
  5  2  1  0
  6  5  2  0
  7  5  1  0
  8 13  1  0
  8  7  1  0
  8  9  1  1
 10  9  1  0
 11 10  1  0
 12 11  2  0
 13 14  2  0
 15 11  1  0
 17 16  1  6
 17 19  1  0
 17 18  1  0
 19 20  1  6
 20 13  1  0
 21 23  1  0
 21 19  1  0
 22 21  2  0
M  END
$$$$
