CET.pdb
     RDKit          3D

 23 22  0  0  1  0  0  0  0  0999 V2000
    6.4073  -15.5882   20.9408 N   0  0  0  0  0  0  0  0  0  0  0  0
    7.7504  -15.1319   21.1913 C   0  0  1  0  0  0  0  0  0  0  0  0
    7.6892  -13.6243   21.3510 C   0  0  0  0  0  0  0  0  0  0  0  0
    7.1497  -13.2410   23.0320 S   0  0  0  0  0  0  0  0  0  0  0  0
    8.3147  -15.7524   22.4443 C   0  0  0  0  0  0  0  0  0  0  0  0
    7.4699  -16.0926   23.3070 O   0  0  0  0  0  0  0  0  0  0  0  0
    9.7156  -15.9160   22.5839 N   0  0  0  0  0  0  0  0  0  0  0  0
   10.2667  -16.5416   23.7588 C   0  0  1  0  0  0  0  0  0  0  0  0
   11.4614  -17.3295   23.3360 C   0  0  0  0  0  0  0  0  0  0  0  0
   12.1982  -18.0523   24.3903 C   0  0  0  0  0  0  0  0  0  0  0  0
   13.3540  -18.8471   23.9251 C   0  0  0  0  0  0  0  0  0  0  0  0
   13.4097  -20.0676   24.0885 O   0  0  0  0  0  0  0  0  0  0  0  0
   10.4632  -15.5656   24.8216 C   0  0  0  0  0  0  0  0  0  0  0  0
   11.0677  -14.4719   24.6622 O   0  0  0  0  0  0  0  0  0  0  0  0
   14.4408  -18.2388   23.2746 O   0  0  0  0  0  0  0  0  0  0  0  0
    8.8363  -12.9174   26.3747 C   0  0  0  0  0  0  0  0  0  0  0  0
    8.9621  -13.9672   27.4432 C   0  0  1  0  0  0  0  0  0  0  0  0
    7.7459  -14.5724   27.6322 O   0  0  0  0  0  0  0  0  0  0  0  0
   10.1119  -14.8884   27.2402 C   0  0  2  0  0  0  0  0  0  0  0  0
    9.9706  -15.8055   26.1278 N   0  0  0  0  0  0  0  0  0  0  0  0
   10.4096  -15.6777   28.4612 C   0  0  0  0  0  0  0  0  0  0  0  0
   10.7308  -15.1087   29.5501 O   0  0  0  0  0  0  0  0  0  0  0  0
   10.3421  -17.0477   28.4231 O   0  0  0  0  0  0  0  0  0  0  0  0
  2  1  1  1
  3  2  1  0
  3  4  1  0
  5  2  1  0
  6  5  2  0
  7  5  1  0
  8 13  1  0
  8  7  1  0
  8  9  1  6
 10  9  1  0
 11 10  1  0
 12 11  2  0
 13 14  2  0
 15 11  1  0
 17 16  1  6
 17 19  1  0
 17 18  1  0
 19 20  1  6
 20 13  1  0
 21 23  1  0
 21 19  1  0
 22 21  2  0
M  END
$$$$
