CET.pdb
     RDKit          3D

 23 22  0  0  1  0  0  0  0  0999 V2000
    7.5441  -13.6881   17.8702 N   0  0  0  0  0  0  0  0  0  0  0  0
    8.7589  -13.1025   18.3762 C   0  0  1  0  0  0  0  0  0  0  0  0
    8.3851  -12.2741   19.5911 C   0  0  0  0  0  0  0  0  0  0  0  0
    7.6893  -13.3696   20.8479 S   0  0  0  0  0  0  0  0  0  0  0  0
    9.7545  -14.1635   18.7724 C   0  0  0  0  0  0  0  0  0  0  0  0
    9.2857  -15.3180   18.9165 O   0  0  0  0  0  0  0  0  0  0  0  0
   11.1176  -13.8215   18.9559 N   0  0  0  0  0  0  0  0  0  0  0  0
   12.0827  -14.8272   19.3202 C   0  0  1  0  0  0  0  0  0  0  0  0
   13.3543  -14.5177   18.6033 C   0  0  0  0  0  0  0  0  0  0  0  0
   14.5260  -15.3567   18.9190 C   0  0  0  0  0  0  0  0  0  0  0  0
   15.7875  -14.9579   18.2604 C   0  0  0  0  0  0  0  0  0  0  0  0
   16.4719  -14.0235   18.6820 O   0  0  0  0  0  0  0  0  0  0  0  0
   12.1600  -14.9709   20.7674 C   0  0  0  0  0  0  0  0  0  0  0  0
   12.5432  -14.0532   21.5406 O   0  0  0  0  0  0  0  0  0  0  0  0
   16.2584  -15.6326   17.1213 O   0  0  0  0  0  0  0  0  0  0  0  0
   10.0722  -18.2248   22.5693 C   0  0  0  0  0  0  0  0  0  0  0  0
   10.4955  -17.0032   23.3364 C   0  0  1  0  0  0  0  0  0  0  0  0
   10.4715  -17.2784   24.6799 O   0  0  0  0  0  0  0  0  0  0  0  0
   11.7515  -16.3881   22.8304 C   0  0  2  0  0  0  0  0  0  0  0  0
   11.7985  -16.1873   21.3965 N   0  0  0  0  0  0  0  0  0  0  0  0
   12.9490  -17.1671   23.2324 C   0  0  0  0  0  0  0  0  0  0  0  0
   13.7267  -17.6725   22.3648 O   0  0  0  0  0  0  0  0  0  0  0  0
   13.2288  -17.3530   24.5629 O   0  0  0  0  0  0  0  0  0  0  0  0
  2  1  1  1
  3  2  1  0
  3  4  1  0
  5  2  1  0
  6  5  2  0
  7  5  1  0
  8 13  1  0
  8  7  1  0
  8  9  1  1
 10  9  1  0
 11 10  1  0
 12 11  2  0
 13 14  2  0
 15 11  1  0
 17 16  1  6
 17 19  1  0
 17 18  1  0
 19 20  1  6
 20 13  1  0
 21 23  1  0
 21 19  1  0
 22 21  2  0
M  END
$$$$
