PYE.pdb
     RDKit          3D

 29 30  0  0  1  0  0  0  0  0999 V2000
   22.8270  -14.3042  -18.7855 N   0  0  0  0  0  0  0  0  0  0  0  0
   22.1194  -15.4387  -18.2735 C   0  0  0  0  0  0  0  0  0  0  0  0
   20.9250  -15.6711  -19.1500 C   0  0  0  0  0  0  0  0  0  0  0  0
   21.2759  -14.8778  -20.3893 C   0  0  0  0  0  0  0  0  0  0  0  0
   22.0344  -13.7138  -19.8208 C   0  0  1  0  0  0  0  0  0  0  0  0
   21.1223  -12.6868  -19.2347 C   0  0  0  0  0  0  0  0  0  0  0  0
   20.2258  -12.1832  -19.9296 O   0  0  0  0  0  0  0  0  0  0  0  0
   15.6091  -15.4827  -17.6490 O   0  0  0  0  0  0  0  0  0  0  0  0
   16.6275  -14.6237  -17.2541 C   0  0  0  0  0  0  0  0  0  0  0  0
   16.4268  -13.2490  -17.2052 C   0  0  0  0  0  0  0  0  0  0  0  0
   17.4220  -12.3697  -16.8161 C   0  0  0  0  0  0  0  0  0  0  0  0
   18.6654  -12.8456  -16.4590 C   0  0  0  0  0  0  0  0  0  0  0  0
   19.7319  -11.9327  -16.0448 C   0  0  0  0  0  0  0  0  0  0  0  0
   20.4237  -11.2824  -17.2507 C   0  0  2  0  0  0  0  0  0  0  0  0
   21.2501  -12.2603  -17.8837 N   0  0  0  0  0  0  0  0  0  0  0  0
   21.1901  -10.0976  -16.7783 C   0  0  0  0  0  0  0  0  0  0  0  0
   22.3628  -10.2480  -16.3528 O   0  0  0  0  0  0  0  0  0  0  0  0
   18.8820  -14.2093  -16.5019 C   0  0  0  0  0  0  0  0  0  0  0  0
   17.8764  -15.0849  -16.8941 C   0  0  0  0  0  0  0  0  0  0  0  0
   20.6502   -8.7864  -16.7862 N   0  0  0  0  0  0  0  0  0  0  0  0
   21.3790   -7.6282  -16.2162 C   0  0  1  0  0  0  0  0  0  0  0  0
   21.9460   -6.7893  -17.3072 C   0  0  0  0  0  0  0  0  0  0  0  0
   20.9336   -5.8343  -17.8776 C   0  0  0  0  0  0  0  0  0  0  0  0
   21.5147   -5.0689  -19.0289 C   0  0  0  0  0  0  0  0  0  0  0  0
   20.8539   -5.0049  -20.0913 O   0  0  0  0  0  0  0  0  0  0  0  0
   20.5070   -6.9322  -15.2535 C   0  0  0  0  0  0  0  0  0  0  0  0
   19.2986   -7.2297  -15.1830 O   0  0  0  0  0  0  0  0  0  0  0  0
   22.7353   -4.4433  -18.9545 O   0  0  0  0  0  0  0  0  0  0  0  0
   20.9718   -5.9360  -14.3979 O   0  0  0  0  0  0  0  0  0  0  0  0
  1  5  1  0
  2  3  1  0
  2  1  1  0
  3  4  1  0
  4  5  1  0
  5  6  1  1
  6  7  2  0
  8  9  1  0
  9 10  2  0
 10 11  1  0
 12 11  2  0
 12 13  1  0
 14 13  1  1
 14 15  1  0
 15  6  1  0
 16 14  1  0
 16 17  2  0
 18 12  1  0
 19  9  1  0
 19 18  2  0
 20 16  1  0
 21 20  1  0
 21 22  1  6
 22 23  1  0
 23 24  1  0
 24 25  2  0
 24 28  1  0
 26 21  1  0
 27 26  2  0
 29 26  1  0
M  END
$$$$
