PYE.pdb
     RDKit          3D

 29 30  0  0  1  0  0  0  0  0999 V2000
   22.0795  -12.5434  -16.5369 N   0  0  0  0  0  0  0  0  0  0  0  0
   23.3788  -13.1385  -16.6243 C   0  0  0  0  0  0  0  0  0  0  0  0
   23.9909  -13.1125  -15.2555 C   0  0  0  0  0  0  0  0  0  0  0  0
   22.7883  -12.8722  -14.3698 C   0  0  0  0  0  0  0  0  0  0  0  0
   21.9307  -11.9870  -15.2266 C   0  0  1  0  0  0  0  0  0  0  0  0
   22.4098  -10.5725  -15.2213 C   0  0  0  0  0  0  0  0  0  0  0  0
   22.6181   -9.9912  -14.1449 O   0  0  0  0  0  0  0  0  0  0  0  0
   28.4499  -11.7796  -16.3130 O   0  0  0  0  0  0  0  0  0  0  0  0
   27.3945  -10.9211  -16.5958 C   0  0  0  0  0  0  0  0  0  0  0  0
   26.5492  -11.1555  -17.6742 C   0  0  0  0  0  0  0  0  0  0  0  0
   25.4907  -10.3182  -17.9798 C   0  0  0  0  0  0  0  0  0  0  0  0
   25.2422   -9.2056  -17.2050 C   0  0  0  0  0  0  0  0  0  0  0  0
   24.1280   -8.3069  -17.5111 C   0  0  0  0  0  0  0  0  0  0  0  0
   22.9736   -8.4727  -16.5134 C   0  0  2  0  0  0  0  0  0  0  0  0
   22.6388   -9.8586  -16.4302 N   0  0  0  0  0  0  0  0  0  0  0  0
   21.8324   -7.6290  -16.9610 C   0  0  0  0  0  0  0  0  0  0  0  0
   21.2258   -7.9203  -18.0221 O   0  0  0  0  0  0  0  0  0  0  0  0
   26.0726   -8.9576  -16.1292 C   0  0  0  0  0  0  0  0  0  0  0  0
   27.1334   -9.8042  -15.8299 C   0  0  0  0  0  0  0  0  0  0  0  0
   21.3909   -6.4941  -16.2344 N   0  0  0  0  0  0  0  0  0  0  0  0
   20.2532   -5.6590  -16.6879 C   0  0  1  0  0  0  0  0  0  0  0  0
   19.1473   -5.7117  -15.6931 C   0  0  0  0  0  0  0  0  0  0  0  0
   17.9488   -4.9143  -16.1294 C   0  0  0  0  0  0  0  0  0  0  0  0
   16.8225   -5.0696  -15.1515 C   0  0  0  0  0  0  0  0  0  0  0  0
   16.9706   -5.8709  -14.2000 O   0  0  0  0  0  0  0  0  0  0  0  0
   20.7462   -4.3143  -17.0345 C   0  0  0  0  0  0  0  0  0  0  0  0
   21.8563   -3.9331  -16.6148 O   0  0  0  0  0  0  0  0  0  0  0  0
   15.6472   -4.3680  -15.2663 O   0  0  0  0  0  0  0  0  0  0  0  0
   20.0210   -3.4253  -17.8245 O   0  0  0  0  0  0  0  0  0  0  0  0
  1  5  1  0
  2  3  1  0
  2  1  1  0
  3  4  1  0
  4  5  1  0
  5  6  1  6
  6  7  2  0
  8  9  1  0
  9 10  2  0
 10 11  1  0
 12 11  2  0
 12 13  1  0
 14 13  1  6
 14 15  1  0
 15  6  1  0
 16 14  1  0
 16 17  2  0
 18 12  1  0
 19  9  1  0
 19 18  2  0
 20 16  1  0
 21 20  1  0
 21 22  1  1
 22 23  1  0
 23 24  1  0
 24 25  2  0
 24 28  1  0
 26 21  1  0
 27 26  2  0
 29 26  1  0
M  END
$$$$
