PYE.pdb
     RDKit          3D

 29 30  0  0  1  0  0  0  0  0999 V2000
   28.1883  -21.1470  -17.5781 N   0  0  0  0  0  0  0  0  0  0  0  0
   29.4855  -21.0839  -16.9752 C   0  0  0  0  0  0  0  0  0  0  0  0
   29.8641  -22.4712  -16.5499 C   0  0  0  0  0  0  0  0  0  0  0  0
   28.8996  -23.3254  -17.3427 C   0  0  0  0  0  0  0  0  0  0  0  0
   27.6692  -22.4665  -17.3831 C   0  0  1  0  0  0  0  0  0  0  0  0
   26.9065  -22.5244  -16.1004 C   0  0  0  0  0  0  0  0  0  0  0  0
   26.3403  -23.5754  -15.7614 O   0  0  0  0  0  0  0  0  0  0  0  0
   24.3183  -20.5245   -7.9258 O   0  0  0  0  0  0  0  0  0  0  0  0
   24.8996  -20.4809   -9.1872 C   0  0  0  0  0  0  0  0  0  0  0  0
   26.0102  -21.2596   -9.4917 C   0  0  0  0  0  0  0  0  0  0  0  0
   26.6100  -21.2369  -10.7386 C   0  0  0  0  0  0  0  0  0  0  0  0
   26.1099  -20.4232  -11.7325 C   0  0  0  0  0  0  0  0  0  0  0  0
   26.7295  -20.3840  -13.0581 C   0  0  0  0  0  0  0  0  0  0  0  0
   26.0423  -21.3475  -14.0353 C   0  0  2  0  0  0  0  0  0  0  0  0
   26.8065  -21.3954  -15.2409 N   0  0  0  0  0  0  0  0  0  0  0  0
   24.6449  -20.8860  -14.2557 C   0  0  0  0  0  0  0  0  0  0  0  0
   24.4327  -19.8698  -14.9637 O   0  0  0  0  0  0  0  0  0  0  0  0
   25.0065  -19.6426  -11.4468 C   0  0  0  0  0  0  0  0  0  0  0  0
   24.4107  -19.6719  -10.1916 C   0  0  0  0  0  0  0  0  0  0  0  0
   23.5242  -21.5500  -13.6952 N   0  0  0  0  0  0  0  0  0  0  0  0
   22.1330  -21.1103  -13.9568 C   0  0  1  0  0  0  0  0  0  0  0  0
   21.3923  -22.1631  -14.7042 C   0  0  0  0  0  0  0  0  0  0  0  0
   19.9542  -21.7906  -14.9401 C   0  0  0  0  0  0  0  0  0  0  0  0
   19.2364  -22.8825  -15.6762 C   0  0  0  0  0  0  0  0  0  0  0  0
   19.8252  -23.4388  -16.6318 O   0  0  0  0  0  0  0  0  0  0  0  0
   21.5198  -20.6631  -12.6937 C   0  0  0  0  0  0  0  0  0  0  0  0
   21.8429  -21.2078  -11.6200 O   0  0  0  0  0  0  0  0  0  0  0  0
   17.9678  -23.2861  -15.3381 O   0  0  0  0  0  0  0  0  0  0  0  0
   20.5762  -19.6401  -12.6337 O   0  0  0  0  0  0  0  0  0  0  0  0
  1  5  1  0
  2  3  1  0
  2  1  1  0
  3  4  1  0
  4  5  1  0
  5  6  1  1
  6  7  2  0
  8  9  1  0
  9 10  2  0
 10 11  1  0
 12 11  2  0
 12 13  1  0
 14 13  1  1
 14 15  1  0
 15  6  1  0
 16 14  1  0
 16 17  2  0
 18 12  1  0
 19  9  1  0
 19 18  2  0
 20 16  1  0
 21 20  1  0
 21 22  1  1
 22 23  1  0
 23 24  1  0
 24 25  2  0
 24 28  1  0
 26 21  1  0
 27 26  2  0
 29 26  1  0
M  END
$$$$
