PYE.pdb
     RDKit          3D

 29 30  0  0  1  0  0  0  0  0999 V2000
   22.8552  -12.6282  -18.4230 N   0  0  0  0  0  0  0  0  0  0  0  0
   23.3906  -13.8521  -17.9074 C   0  0  0  0  0  0  0  0  0  0  0  0
   22.3134  -14.5277  -17.1122 C   0  0  0  0  0  0  0  0  0  0  0  0
   21.0663  -13.8183  -17.5919 C   0  0  0  0  0  0  0  0  0  0  0  0
   21.5650  -12.4240  -17.8379 C   0  0  1  0  0  0  0  0  0  0  0  0
   21.7032  -11.6493  -16.5686 C   0  0  0  0  0  0  0  0  0  0  0  0
   20.7680  -11.6207  -15.7535 O   0  0  0  0  0  0  0  0  0  0  0  0
   28.5029  -10.8905  -18.3941 O   0  0  0  0  0  0  0  0  0  0  0  0
   27.5015  -10.7566  -17.4401 C   0  0  0  0  0  0  0  0  0  0  0  0
   26.9587   -9.5123  -17.1408 C   0  0  0  0  0  0  0  0  0  0  0  0
   25.9609   -9.3487  -16.1960 C   0  0  0  0  0  0  0  0  0  0  0  0
   25.4691  -10.4400  -15.5124 C   0  0  0  0  0  0  0  0  0  0  0  0
   24.4142  -10.2887  -14.5090 C   0  0  0  0  0  0  0  0  0  0  0  0
   23.0457  -10.0367  -15.1566 C   0  0  2  0  0  0  0  0  0  0  0  0
   22.8916  -10.9316  -16.2590 N   0  0  0  0  0  0  0  0  0  0  0  0
   22.9652   -8.6063  -15.5588 C   0  0  0  0  0  0  0  0  0  0  0  0
   23.4259   -8.2491  -16.6719 O   0  0  0  0  0  0  0  0  0  0  0  0
   25.9974  -11.6841  -15.7977 C   0  0  0  0  0  0  0  0  0  0  0  0
   26.9994  -11.8389  -16.7483 C   0  0  0  0  0  0  0  0  0  0  0  0
   22.3838   -7.6121  -14.7314 N   0  0  0  0  0  0  0  0  0  0  0  0
   22.1591   -6.2246  -15.2022 C   0  0  1  0  0  0  0  0  0  0  0  0
   20.8308   -6.1147  -15.8649 C   0  0  0  0  0  0  0  0  0  0  0  0
   20.5581   -4.7241  -16.3693 C   0  0  0  0  0  0  0  0  0  0  0  0
   19.1761   -4.6288  -16.9440 C   0  0  0  0  0  0  0  0  0  0  0  0
   18.4657   -5.6606  -16.9521 O   0  0  0  0  0  0  0  0  0  0  0  0
   22.4051   -5.2892  -14.0905 C   0  0  0  0  0  0  0  0  0  0  0  0
   22.3498   -5.6958  -12.9134 O   0  0  0  0  0  0  0  0  0  0  0  0
   18.6719   -3.4581  -17.4557 O   0  0  0  0  0  0  0  0  0  0  0  0
   22.7033   -3.9430  -14.2891 O   0  0  0  0  0  0  0  0  0  0  0  0
  1  5  1  0
  2  3  1  0
  2  1  1  0
  3  4  1  0
  4  5  1  0
  5  6  1  1
  6  7  2  0
  8  9  1  0
  9 10  2  0
 10 11  1  0
 12 11  2  0
 12 13  1  0
 14 13  1  6
 14 15  1  0
 15  6  1  0
 16 14  1  0
 16 17  2  0
 18 12  1  0
 19  9  1  0
 19 18  2  0
 20 16  1  0
 21 20  1  0
 21 22  1  1
 22 23  1  0
 23 24  1  0
 24 25  2  0
 24 28  1  0
 26 21  1  0
 27 26  2  0
 29 26  1  0
M  END
$$$$
