PYE.pdb
     RDKit          3D

 29 30  0  0  1  0  0  0  0  0999 V2000
   24.6134  -13.6961  -17.0642 N   0  0  0  0  0  0  0  0  0  0  0  0
   25.9249  -13.5094  -17.6076 C   0  0  0  0  0  0  0  0  0  0  0  0
   26.6510  -12.5306  -16.7337 C   0  0  0  0  0  0  0  0  0  0  0  0
   25.8161  -12.5444  -15.4723 C   0  0  0  0  0  0  0  0  0  0  0  0
   24.4288  -12.7478  -16.0082 C   0  0  1  0  0  0  0  0  0  0  0  0
   23.8532  -11.4845  -16.5590 C   0  0  0  0  0  0  0  0  0  0  0  0
   24.3314  -10.9808  -17.5874 O   0  0  0  0  0  0  0  0  0  0  0  0
   17.4358  -13.7161  -14.8821 O   0  0  0  0  0  0  0  0  0  0  0  0
   18.3120  -12.8255  -15.4904 C   0  0  0  0  0  0  0  0  0  0  0  0
   18.0677  -11.4571  -15.4757 C   0  0  0  0  0  0  0  0  0  0  0  0
   18.9221  -10.5469  -16.0729 C   0  0  0  0  0  0  0  0  0  0  0  0
   20.0626  -10.9841  -16.7116 C   0  0  0  0  0  0  0  0  0  0  0  0
   20.9794  -10.0381  -17.3497 C   0  0  0  0  0  0  0  0  0  0  0  0
   22.1285   -9.6405  -16.4131 C   0  0  2  0  0  0  0  0  0  0  0  0
   22.7568  -10.8296  -15.9326 N   0  0  0  0  0  0  0  0  0  0  0  0
   21.5798   -8.7948  -15.3185 C   0  0  0  0  0  0  0  0  0  0  0  0
   21.4162   -9.2907  -14.1756 O   0  0  0  0  0  0  0  0  0  0  0  0
   20.3208  -12.3411  -16.7355 C   0  0  0  0  0  0  0  0  0  0  0  0
   19.4569  -13.2478  -16.1331 C   0  0  0  0  0  0  0  0  0  0  0  0
   21.2275   -7.4344  -15.5082 N   0  0  0  0  0  0  0  0  0  0  0  0
   20.6854   -6.5981  -14.4110 C   0  0  1  0  0  0  0  0  0  0  0  0
   20.9810   -5.1615  -14.6645 C   0  0  0  0  0  0  0  0  0  0  0  0
   22.4568   -4.8942  -14.7791 C   0  0  0  0  0  0  0  0  0  0  0  0
   22.7099   -3.4679  -15.1674 C   0  0  0  0  0  0  0  0  0  0  0  0
   23.4118   -3.2457  -16.1810 O   0  0  0  0  0  0  0  0  0  0  0  0
   19.2673   -6.9374  -14.1974 C   0  0  0  0  0  0  0  0  0  0  0  0
   18.6009   -7.4328  -15.1271 O   0  0  0  0  0  0  0  0  0  0  0  0
   22.2014   -2.4104  -14.4536 O   0  0  0  0  0  0  0  0  0  0  0  0
   18.6163   -6.7292  -12.9837 O   0  0  0  0  0  0  0  0  0  0  0  0
  1  5  1  0
  2  3  1  0
  2  1  1  0
  3  4  1  0
  4  5  1  0
  5  6  1  6
  6  7  2  0
  8  9  1  0
  9 10  2  0
 10 11  1  0
 12 11  2  0
 12 13  1  0
 14 13  1  6
 14 15  1  0
 15  6  1  0
 16 14  1  0
 16 17  2  0
 18 12  1  0
 19  9  1  0
 19 18  2  0
 20 16  1  0
 21 20  1  0
 21 22  1  6
 22 23  1  0
 23 24  1  0
 24 25  2  0
 24 28  1  0
 26 21  1  0
 27 26  2  0
 29 26  1  0
M  END
$$$$
