PYE.pdb
     RDKit          3D

 29 30  0  0  1  0  0  0  0  0999 V2000
   23.6215  -10.5646  -16.8551 N   0  0  0  0  0  0  0  0  0  0  0  0
   24.8150  -10.6395  -16.0676 C   0  0  0  0  0  0  0  0  0  0  0  0
   24.4425  -11.1700  -14.7153 C   0  0  0  0  0  0  0  0  0  0  0  0
   23.0793  -11.7740  -14.9708 C   0  0  0  0  0  0  0  0  0  0  0  0
   22.5064  -10.8473  -16.0034 C   0  0  1  0  0  0  0  0  0  0  0  0
   22.0011   -9.5799  -15.3961 C   0  0  0  0  0  0  0  0  0  0  0  0
   21.0418   -9.6075  -14.6093 O   0  0  0  0  0  0  0  0  0  0  0  0
   21.5087   -0.8159  -13.9505 O   0  0  0  0  0  0  0  0  0  0  0  0
   21.9437   -2.0970  -14.2675 C   0  0  0  0  0  0  0  0  0  0  0  0
   21.7032   -3.1672  -13.4136 C   0  0  0  0  0  0  0  0  0  0  0  0
   22.1243   -4.4533  -13.7029 C   0  0  0  0  0  0  0  0  0  0  0  0
   22.8083   -4.7113  -14.8714 C   0  0  0  0  0  0  0  0  0  0  0  0
   23.2628   -6.0642  -15.1964 C   0  0  0  0  0  0  0  0  0  0  0  0
   22.0934   -7.0560  -15.2627 C   0  0  2  0  0  0  0  0  0  0  0  0
   22.5936   -8.3218  -15.6953 N   0  0  0  0  0  0  0  0  0  0  0  0
   21.0526   -6.5051  -16.1724 C   0  0  0  0  0  0  0  0  0  0  0  0
   21.2674   -6.4701  -17.4099 O   0  0  0  0  0  0  0  0  0  0  0  0
   23.0559   -3.6589  -15.7316 C   0  0  0  0  0  0  0  0  0  0  0  0
   22.6292   -2.3705  -15.4327 C   0  0  0  0  0  0  0  0  0  0  0  0
   19.8104   -6.0101  -15.7003 N   0  0  0  0  0  0  0  0  0  0  0  0
   18.7624   -5.5017  -16.6172 C   0  0  1  0  0  0  0  0  0  0  0  0
   17.4756   -6.2076  -16.3698 C   0  0  0  0  0  0  0  0  0  0  0  0
   16.4682   -5.9556  -17.4581 C   0  0  0  0  0  0  0  0  0  0  0  0
   15.1892   -6.6870  -17.1780 C   0  0  0  0  0  0  0  0  0  0  0  0
   15.0977   -7.3313  -16.1076 O   0  0  0  0  0  0  0  0  0  0  0  0
   18.7180   -4.0310  -16.5354 C   0  0  0  0  0  0  0  0  0  0  0  0
   18.5670   -3.4752  -15.4300 O   0  0  0  0  0  0  0  0  0  0  0  0
   14.1278   -6.6719  -18.0496 O   0  0  0  0  0  0  0  0  0  0  0  0
   18.8386   -3.2093  -17.6537 O   0  0  0  0  0  0  0  0  0  0  0  0
  1  5  1  0
  2  3  1  0
  2  1  1  0
  3  4  1  0
  4  5  1  0
  5  6  1  1
  6  7  2  0
  8  9  1  0
  9 10  2  0
 10 11  1  0
 12 11  2  0
 12 13  1  0
 14 13  1  6
 14 15  1  0
 15  6  1  0
 16 14  1  0
 16 17  2  0
 18 12  1  0
 19  9  1  0
 19 18  2  0
 20 16  1  0
 21 20  1  0
 21 22  1  1
 22 23  1  0
 23 24  1  0
 24 25  2  0
 24 28  1  0
 26 21  1  0
 27 26  2  0
 29 26  1  0
M  END
$$$$
