PYE.pdb
     RDKit          3D

 29 30  0  0  1  0  0  0  0  0999 V2000
   27.7926  -19.8699  -17.8875 N   0  0  0  0  0  0  0  0  0  0  0  0
   29.2099  -19.9962  -17.7284 C   0  0  0  0  0  0  0  0  0  0  0  0
   29.5579  -21.4510  -17.8346 C   0  0  0  0  0  0  0  0  0  0  0  0
   28.3212  -22.0312  -18.4845 C   0  0  0  0  0  0  0  0  0  0  0  0
   27.2264  -21.1843  -17.9035 C   0  0  1  0  0  0  0  0  0  0  0  0
   26.8780  -21.6009  -16.5123 C   0  0  0  0  0  0  0  0  0  0  0  0
   26.3992  -22.7263  -16.3024 O   0  0  0  0  0  0  0  0  0  0  0  0
   24.9368  -20.3798   -7.9309 O   0  0  0  0  0  0  0  0  0  0  0  0
   25.5379  -20.3841   -9.1837 C   0  0  0  0  0  0  0  0  0  0  0  0
   25.7566  -19.1996   -9.8777 C   0  0  0  0  0  0  0  0  0  0  0  0
   26.3526  -19.1733  -11.1263 C   0  0  0  0  0  0  0  0  0  0  0  0
   26.7537  -20.3474  -11.7268 C   0  0  0  0  0  0  0  0  0  0  0  0
   27.3857  -20.3417  -13.0470 C   0  0  0  0  0  0  0  0  0  0  0  0
   26.4356  -20.8621  -14.1343 C   0  0  2  0  0  0  0  0  0  0  0  0
   27.0808  -20.7351  -15.4021 N   0  0  0  0  0  0  0  0  0  0  0  0
   25.1600  -20.0996  -14.0568 C   0  0  0  0  0  0  0  0  0  0  0  0
   25.1726  -18.8536  -14.2184 O   0  0  0  0  0  0  0  0  0  0  0  0
   26.5439  -21.5338  -11.0509 C   0  0  0  0  0  0  0  0  0  0  0  0
   25.9444  -21.5506   -9.7972 C   0  0  0  0  0  0  0  0  0  0  0  0
   23.9117  -20.7235  -13.8052 N   0  0  0  0  0  0  0  0  0  0  0  0
   22.6575  -19.9483  -13.6520 C   0  0  1  0  0  0  0  0  0  0  0  0
   21.9192  -19.9031  -14.9436 C   0  0  0  0  0  0  0  0  0  0  0  0
   21.2178  -21.1990  -15.2456 C   0  0  0  0  0  0  0  0  0  0  0  0
   20.9103  -21.3083  -16.7094 C   0  0  0  0  0  0  0  0  0  0  0  0
   21.1794  -20.3311  -17.4455 O   0  0  0  0  0  0  0  0  0  0  0  0
   21.9048  -20.4668  -12.4960 C   0  0  0  0  0  0  0  0  0  0  0  0
   20.9904  -19.7843  -11.9942 O   0  0  0  0  0  0  0  0  0  0  0  0
   20.3492  -22.4343  -17.2606 O   0  0  0  0  0  0  0  0  0  0  0  0
   22.1666  -21.7081  -11.9206 O   0  0  0  0  0  0  0  0  0  0  0  0
  1  5  1  0
  2  3  1  0
  2  1  1  0
  3  4  1  0
  4  5  1  0
  5  6  1  1
  6  7  2  0
  8  9  1  0
  9 10  2  0
 10 11  1  0
 12 11  2  0
 12 13  1  0
 14 13  1  1
 14 15  1  0
 15  6  1  0
 16 14  1  0
 16 17  2  0
 18 12  1  0
 19  9  1  0
 19 18  2  0
 20 16  1  0
 21 20  1  0
 21 22  1  6
 22 23  1  0
 23 24  1  0
 24 25  2  0
 24 28  1  0
 26 21  1  0
 27 26  2  0
 29 26  1  0
M  END
$$$$
