PYE.pdb
     RDKit          3D

 29 30  0  0  1  0  0  0  0  0999 V2000
   28.5165  -22.2425  -17.8391 N   0  0  0  0  0  0  0  0  0  0  0  0
   27.6407  -22.7188  -18.8668 C   0  0  0  0  0  0  0  0  0  0  0  0
   26.5948  -21.6705  -19.1037 C   0  0  0  0  0  0  0  0  0  0  0  0
   27.2135  -20.4479  -18.4627 C   0  0  0  0  0  0  0  0  0  0  0  0
   27.9607  -21.0378  -17.3021 C   0  0  1  0  0  0  0  0  0  0  0  0
   27.0524  -21.3650  -16.1626 C   0  0  0  0  0  0  0  0  0  0  0  0
   26.4592  -22.4546  -16.1343 O   0  0  0  0  0  0  0  0  0  0  0  0
   23.6759  -20.8847   -7.9964 O   0  0  0  0  0  0  0  0  0  0  0  0
   24.3578  -20.6129   -9.1763 C   0  0  0  0  0  0  0  0  0  0  0  0
   25.5698  -21.2307   -9.4621 C   0  0  0  0  0  0  0  0  0  0  0  0
   26.2709  -20.9797  -10.6285 C   0  0  0  0  0  0  0  0  0  0  0  0
   25.7739  -20.0907  -11.5572 C   0  0  0  0  0  0  0  0  0  0  0  0
   26.4997  -19.8107  -12.7971 C   0  0  0  0  0  0  0  0  0  0  0  0
   26.0215  -20.7042  -13.9497 C   0  0  2  0  0  0  0  0  0  0  0  0
   26.8420  -20.4531  -15.0914 N   0  0  0  0  0  0  0  0  0  0  0  0
   24.5814  -20.4266  -14.2016 C   0  0  0  0  0  0  0  0  0  0  0  0
   24.2531  -19.4093  -14.8620 O   0  0  0  0  0  0  0  0  0  0  0  0
   24.5703  -19.4677  -11.2890 C   0  0  0  0  0  0  0  0  0  0  0  0
   23.8731  -19.7260  -10.1148 C   0  0  0  0  0  0  0  0  0  0  0  0
   23.5463  -21.2699  -13.7236 N   0  0  0  0  0  0  0  0  0  0  0  0
   22.1190  -21.0272  -14.0419 C   0  0  1  0  0  0  0  0  0  0  0  0
   21.5022  -22.2567  -14.6106 C   0  0  0  0  0  0  0  0  0  0  0  0
   20.0439  -22.0691  -14.9280 C   0  0  0  0  0  0  0  0  0  0  0  0
   19.4609  -23.3229  -15.5088 C   0  0  0  0  0  0  0  0  0  0  0  0
   20.2054  -24.3238  -15.6245 O   0  0  0  0  0  0  0  0  0  0  0  0
   21.4487  -20.4560  -12.8604 C   0  0  0  0  0  0  0  0  0  0  0  0
   20.4940  -19.6685  -13.0088 O   0  0  0  0  0  0  0  0  0  0  0  0
   18.1508  -23.4058  -15.9129 O   0  0  0  0  0  0  0  0  0  0  0  0
   21.8339  -20.7561  -11.5558 O   0  0  0  0  0  0  0  0  0  0  0  0
  1  5  1  0
  2  3  1  0
  2  1  1  0
  3  4  1  0
  4  5  1  0
  5  6  1  1
  6  7  2  0
  8  9  1  0
  9 10  2  0
 10 11  1  0
 12 11  2  0
 12 13  1  0
 14 13  1  1
 14 15  1  0
 15  6  1  0
 16 14  1  0
 16 17  2  0
 18 12  1  0
 19  9  1  0
 19 18  2  0
 20 16  1  0
 21 20  1  0
 21 22  1  1
 22 23  1  0
 23 24  1  0
 24 25  2  0
 24 28  1  0
 26 21  1  0
 27 26  2  0
 29 26  1  0
M  END
$$$$
