PYE.pdb
     RDKit          3D

 29 30  0  0  1  0  0  0  0  0999 V2000
   42.8948   -3.3215   -3.0527 N   0  0  0  0  0  0  0  0  0  0  0  0
   42.7766   -4.7187   -2.7631 C   0  0  0  0  0  0  0  0  0  0  0  0
   42.1676   -5.3875   -3.9593 C   0  0  0  0  0  0  0  0  0  0  0  0
   42.3715   -4.3535   -5.0446 C   0  0  0  0  0  0  0  0  0  0  0  0
   42.2243   -3.0639   -4.2907 C   0  0  1  0  0  0  0  0  0  0  0  0
   40.7921   -2.7313   -4.0294 C   0  0  0  0  0  0  0  0  0  0  0  0
   40.0222   -2.5124   -4.9777 O   0  0  0  0  0  0  0  0  0  0  0  0
   33.2146   -1.7784    0.4459 O   0  0  0  0  0  0  0  0  0  0  0  0
   34.4883   -2.1269    0.0134 C   0  0  0  0  0  0  0  0  0  0  0  0
   35.4328   -2.6321    0.8995 C   0  0  0  0  0  0  0  0  0  0  0  0
   36.7083   -2.9875    0.4975 C   0  0  0  0  0  0  0  0  0  0  0  0
   37.0830   -2.8461   -0.8215 C   0  0  0  0  0  0  0  0  0  0  0  0
   38.4273   -3.2157   -1.2674 C   0  0  0  0  0  0  0  0  0  0  0  0
   38.9383   -2.2778   -2.3697 C   0  0  2  0  0  0  0  0  0  0  0  0
   40.2735   -2.6560   -2.7069 N   0  0  0  0  0  0  0  0  0  0  0  0
   38.8410   -0.8746   -1.8841 C   0  0  0  0  0  0  0  0  0  0  0  0
   39.5223   -0.5141   -0.8918 O   0  0  0  0  0  0  0  0  0  0  0  0
   36.1566   -2.3454   -1.7156 C   0  0  0  0  0  0  0  0  0  0  0  0
   34.8777   -1.9911   -1.3028 C   0  0  0  0  0  0  0  0  0  0  0  0
   38.0022    0.0896   -2.4987 N   0  0  0  0  0  0  0  0  0  0  0  0
   37.9923    1.5111   -2.0784 C   0  0  1  0  0  0  0  0  0  0  0  0
   39.0636    2.2644   -2.7857 C   0  0  0  0  0  0  0  0  0  0  0  0
   39.1612    3.6911   -2.3192 C   0  0  0  0  0  0  0  0  0  0  0  0
   40.2097    4.4329   -3.0935 C   0  0  0  0  0  0  0  0  0  0  0  0
   40.0550    5.6633   -3.2711 O   0  0  0  0  0  0  0  0  0  0  0  0
   36.6270    2.0482   -2.2159 C   0  0  0  0  0  0  0  0  0  0  0  0
   35.7794    1.4253   -2.8848 O   0  0  0  0  0  0  0  0  0  0  0  0
   41.3212    3.8111   -3.6078 O   0  0  0  0  0  0  0  0  0  0  0  0
   36.2232    3.2430   -1.6244 O   0  0  0  0  0  0  0  0  0  0  0  0
  1  5  1  0
  2  3  1  0
  2  1  1  0
  3  4  1  0
  4  5  1  0
  5  6  1  1
  6  7  2  0
  8  9  1  0
  9 10  2  0
 10 11  1  0
 12 11  2  0
 12 13  1  0
 14 13  1  1
 14 15  1  0
 15  6  1  0
 16 14  1  0
 16 17  2  0
 18 12  1  0
 19  9  1  0
 19 18  2  0
 20 16  1  0
 21 20  1  0
 21 22  1  6
 22 23  1  0
 23 24  1  0
 24 25  2  0
 24 28  1  0
 26 21  1  0
 27 26  2  0
 29 26  1  0
M  END
$$$$
