PYE.pdb
     RDKit          3D

 29 30  0  0  1  0  0  0  0  0999 V2000
   27.6217  -21.1657  -17.1248 N   0  0  0  0  0  0  0  0  0  0  0  0
   28.8887  -20.8896  -16.5177 C   0  0  0  0  0  0  0  0  0  0  0  0
   29.3558  -22.1411  -15.8359 C   0  0  0  0  0  0  0  0  0  0  0  0
   28.4863  -23.2003  -16.4767 C   0  0  0  0  0  0  0  0  0  0  0  0
   27.1969  -22.4648  -16.7000 C   0  0  1  0  0  0  0  0  0  0  0  0
   26.3967  -22.3487  -15.4444 C   0  0  0  0  0  0  0  0  0  0  0  0
   26.3692  -23.2899  -14.6361 O   0  0  0  0  0  0  0  0  0  0  0  0
   26.4465  -21.1970   -7.8178 O   0  0  0  0  0  0  0  0  0  0  0  0
   26.1776  -20.8593   -9.1386 C   0  0  0  0  0  0  0  0  0  0  0  0
   24.9354  -20.3591   -9.5116 C   0  0  0  0  0  0  0  0  0  0  0  0
   24.6391  -20.0144  -10.8187 C   0  0  0  0  0  0  0  0  0  0  0  0
   25.5897  -20.1617  -11.8059 C   0  0  0  0  0  0  0  0  0  0  0  0
   25.2967  -19.8034  -13.1946 C   0  0  0  0  0  0  0  0  0  0  0  0
   24.8057  -21.0128  -14.0020 C   0  0  2  0  0  0  0  0  0  0  0  0
   25.6529  -21.1750  -15.1403 N   0  0  0  0  0  0  0  0  0  0  0  0
   23.3806  -20.7930  -14.3699 C   0  0  0  0  0  0  0  0  0  0  0  0
   23.0985  -20.0235  -15.3223 O   0  0  0  0  0  0  0  0  0  0  0  0
   26.8298  -20.6575  -11.4525 C   0  0  0  0  0  0  0  0  0  0  0  0
   27.1184  -21.0011  -10.1372 C   0  0  0  0  0  0  0  0  0  0  0  0
   22.3097  -21.4214  -13.6849 N   0  0  0  0  0  0  0  0  0  0  0  0
   20.8930  -21.1995  -14.0604 C   0  0  1  0  0  0  0  0  0  0  0  0
   20.1134  -22.4566  -13.8939 C   0  0  0  0  0  0  0  0  0  0  0  0
   18.6461  -22.2573  -14.1584 C   0  0  0  0  0  0  0  0  0  0  0  0
   17.8837  -23.5237  -13.9048 C   0  0  0  0  0  0  0  0  0  0  0  0
   16.6356  -23.4942  -14.0082 O   0  0  0  0  0  0  0  0  0  0  0  0
   20.3790  -20.0211  -13.3404 C   0  0  0  0  0  0  0  0  0  0  0  0
   20.8447  -19.7248  -12.2227 O   0  0  0  0  0  0  0  0  0  0  0  0
   18.5054  -24.7008  -13.5665 O   0  0  0  0  0  0  0  0  0  0  0  0
   19.3768  -19.2011  -13.8539 O   0  0  0  0  0  0  0  0  0  0  0  0
  1  5  1  0
  2  3  1  0
  2  1  1  0
  3  4  1  0
  4  5  1  0
  5  6  1  1
  6  7  2  0
  8  9  1  0
  9 10  2  0
 10 11  1  0
 12 11  2  0
 12 13  1  0
 14 13  1  6
 14 15  1  0
 15  6  1  0
 16 14  1  0
 16 17  2  0
 18 12  1  0
 19  9  1  0
 19 18  2  0
 20 16  1  0
 21 20  1  0
 21 22  1  1
 22 23  1  0
 23 24  1  0
 24 25  2  0
 24 28  1  0
 26 21  1  0
 27 26  2  0
 29 26  1  0
M  END
$$$$
