TAG.pdb
     RDKit          3D

 17 16  0  0  1  0  0  0  0  0999 V2000
   23.3464  -11.8068  -14.1618 C   0  0  0  0  0  0  0  0  0  0  0  0
   23.2501  -12.3830  -15.5328 C   0  0  1  0  0  0  0  0  0  0  0  0
   23.2473  -13.7852  -15.4194 O   0  0  0  0  0  0  0  0  0  0  0  0
   21.9848  -12.0116  -16.2644 C   0  0  2  0  0  0  0  0  0  0  0  0
   22.0313  -12.7070  -17.5529 N   0  0  0  0  0  0  0  0  0  0  0  0
   21.8845  -10.5497  -16.5019 C   0  0  0  0  0  0  0  0  0  0  0  0
   22.6833  -10.0062  -17.3062 O   0  0  0  0  0  0  0  0  0  0  0  0
   19.4440   -7.8861  -16.3984 C   0  0  0  0  0  0  0  0  0  0  0  0
   20.8768   -8.2940  -16.1243 C   0  0  2  0  0  0  0  0  0  0  0  0
   20.9295   -9.7076  -15.8703 N   0  0  0  0  0  0  0  0  0  0  0  0
   21.4468   -7.4766  -15.0404 C   0  0  0  0  0  0  0  0  0  0  0  0
   21.3831   -7.7984  -13.8214 O   0  0  0  0  0  0  0  0  0  0  0  0
   22.0965   -6.2674  -15.4170 N   0  0  0  0  0  0  0  0  0  0  0  0
   22.8215   -5.4788  -14.4422 C   0  0  0  0  0  0  0  0  0  0  0  0
   21.9036   -4.4797  -13.8163 C   0  0  0  0  0  0  0  0  0  0  0  0
   20.7070   -4.4518  -14.1761 O   0  0  0  0  0  0  0  0  0  0  0  0
   22.3574   -3.5965  -12.8555 O   0  0  0  0  0  0  0  0  0  0  0  0
  2  3  1  0
  2  1  1  1
  4  2  1  0
  4  5  1  6
  6 10  1  0
  6  4  1  0
  7  6  2  0
  9  8  1  1
  9 10  1  0
  9 11  1  0
 11 12  2  0
 13 11  1  0
 13 14  1  0
 14 15  1  0
 15 17  1  0
 16 15  2  0
M  END
$$$$
