TAG.pdb
     RDKit          3D

 17 16  0  0  1  0  0  0  0  0999 V2000
   22.5158   -8.9705  -17.4670 C   0  0  0  0  0  0  0  0  0  0  0  0
   23.6843   -9.3028  -18.3302 C   0  0  1  0  0  0  0  0  0  0  0  0
   23.4658  -10.5734  -18.8932 O   0  0  0  0  0  0  0  0  0  0  0  0
   23.8811   -8.3528  -19.4847 C   0  0  2  0  0  0  0  0  0  0  0  0
   24.9684   -8.9054  -20.2960 N   0  0  0  0  0  0  0  0  0  0  0  0
   24.2551   -6.9900  -19.0302 C   0  0  0  0  0  0  0  0  0  0  0  0
   25.4520   -6.7558  -18.7252 O   0  0  0  0  0  0  0  0  0  0  0  0
   22.8392   -3.5637  -19.1138 C   0  0  0  0  0  0  0  0  0  0  0  0
   23.7485   -4.6028  -18.4909 C   0  0  2  0  0  0  0  0  0  0  0  0
   23.3354   -5.9126  -18.9144 N   0  0  0  0  0  0  0  0  0  0  0  0
   23.7908   -4.4399  -17.0282 C   0  0  0  0  0  0  0  0  0  0  0  0
   24.2312   -3.4035  -16.4577 O   0  0  0  0  0  0  0  0  0  0  0  0
   23.3035   -5.5231  -16.2438 N   0  0  0  0  0  0  0  0  0  0  0  0
   23.2707   -5.4378  -14.7983 C   0  0  0  0  0  0  0  0  0  0  0  0
   21.8910   -5.0886  -14.3434 C   0  0  0  0  0  0  0  0  0  0  0  0
   21.0305   -4.7926  -15.2000 O   0  0  0  0  0  0  0  0  0  0  0  0
   21.5597   -5.0894  -13.0020 O   0  0  0  0  0  0  0  0  0  0  0  0
  2  3  1  0
  2  1  1  6
  4  2  1  0
  4  5  1  6
  6 10  1  0
  6  4  1  0
  7  6  2  0
  9  8  1  6
  9 10  1  0
  9 11  1  0
 11 12  2  0
 13 11  1  0
 13 14  1  0
 14 15  1  0
 15 17  1  0
 16 15  2  0
M  END
$$$$
