TAG.pdb
     RDKit          3D

 17 16  0  0  1  0  0  0  0  0999 V2000
   12.6973  -12.4290   -9.4921 C   0  0  0  0  0  0  0  0  0  0  0  0
   13.3977  -11.1649   -9.8563 C   0  0  1  0  0  0  0  0  0  0  0  0
   13.2236  -10.9494  -11.2355 O   0  0  0  0  0  0  0  0  0  0  0  0
   12.8530   -9.9424   -9.1614 C   0  0  2  0  0  0  0  0  0  0  0  0
   11.4625   -9.8008   -9.5999 N   0  0  0  0  0  0  0  0  0  0  0  0
   13.6053   -8.7138   -9.5193 C   0  0  0  0  0  0  0  0  0  0  0  0
   13.3353   -8.1255  -10.5971 O   0  0  0  0  0  0  0  0  0  0  0  0
   15.9375   -6.2871   -7.9179 C   0  0  0  0  0  0  0  0  0  0  0  0
   15.3814   -6.9980   -9.1344 C   0  0  2  0  0  0  0  0  0  0  0  0
   14.6286   -8.1471   -8.7120 N   0  0  0  0  0  0  0  0  0  0  0  0
   16.4607   -7.3144  -10.0844 C   0  0  0  0  0  0  0  0  0  0  0  0
   17.3712   -8.1557   -9.8455 O   0  0  0  0  0  0  0  0  0  0  0  0
   16.4507   -6.6206  -11.3273 N   0  0  0  0  0  0  0  0  0  0  0  0
   17.4407   -6.9059  -12.3453 C   0  0  0  0  0  0  0  0  0  0  0  0
   18.1158   -5.6402  -12.7631 C   0  0  0  0  0  0  0  0  0  0  0  0
   19.0688   -5.7027  -13.5692 O   0  0  0  0  0  0  0  0  0  0  0  0
   17.7032   -4.4155  -12.2739 O   0  0  0  0  0  0  0  0  0  0  0  0
  2  3  1  0
  2  1  1  1
  4  2  1  0
  4  5  1  6
  6 10  1  0
  6  4  1  0
  7  6  2  0
  9  8  1  1
  9 10  1  0
  9 11  1  0
 11 12  2  0
 13 11  1  0
 13 14  1  0
 14 15  1  0
 15 17  1  0
 16 15  2  0
M  END
$$$$
