TAG.pdb
     RDKit          3D

 17 16  0  0  1  0  0  0  0  0999 V2000
   20.9177   -9.3255  -18.0359 C   0  0  0  0  0  0  0  0  0  0  0  0
   21.0216  -10.8035  -18.1960 C   0  0  1  0  0  0  0  0  0  0  0  0
   20.4032  -11.1573  -19.4091 O   0  0  0  0  0  0  0  0  0  0  0  0
   22.4393  -11.3114  -18.2759 C   0  0  2  0  0  0  0  0  0  0  0  0
   22.3539  -12.7200  -18.6686 N   0  0  0  0  0  0  0  0  0  0  0  0
   23.1443  -11.2094  -16.9735 C   0  0  0  0  0  0  0  0  0  0  0  0
   22.7649  -11.9310  -16.0165 O   0  0  0  0  0  0  0  0  0  0  0  0
   26.2877   -9.8358  -15.5665 C   0  0  0  0  0  0  0  0  0  0  0  0
   24.8226  -10.1937  -15.4250 C   0  0  2  0  0  0  0  0  0  0  0  0
   24.2387  -10.3358  -16.7305 N   0  0  0  0  0  0  0  0  0  0  0  0
   24.1325   -9.2120  -14.5720 C   0  0  0  0  0  0  0  0  0  0  0  0
   24.4353   -9.0082  -13.3635 O   0  0  0  0  0  0  0  0  0  0  0  0
   23.0741   -8.4699  -15.1681 N   0  0  0  0  0  0  0  0  0  0  0  0
   22.3793   -7.4390  -14.4250 C   0  0  0  0  0  0  0  0  0  0  0  0
   22.9260   -6.0971  -14.7897 C   0  0  0  0  0  0  0  0  0  0  0  0
   22.4307   -5.0797  -14.2591 O   0  0  0  0  0  0  0  0  0  0  0  0
   23.9608   -5.9699  -15.6963 O   0  0  0  0  0  0  0  0  0  0  0  0
  2  3  1  0
  2  1  1  6
  4  2  1  0
  4  5  1  1
  6 10  1  0
  6  4  1  0
  7  6  2  0
  9  8  1  6
  9 10  1  0
  9 11  1  0
 11 12  2  0
 13 11  1  0
 13 14  1  0
 14 15  1  0
 15 17  1  0
 16 15  2  0
M  END
$$$$
