TAG.pdb
     RDKit          3D

 17 16  0  0  1  0  0  0  0  0999 V2000
   26.3121  -10.1695  -14.7347 C   0  0  0  0  0  0  0  0  0  0  0  0
   26.3993  -10.7269  -16.1140 C   0  0  1  0  0  0  0  0  0  0  0  0
   27.2236  -11.8663  -16.0748 O   0  0  0  0  0  0  0  0  0  0  0  0
   25.0745  -11.1779  -16.6759 C   0  0  2  0  0  0  0  0  0  0  0  0
   25.3436  -11.6700  -18.0291 N   0  0  0  0  0  0  0  0  0  0  0  0
   24.0901  -10.0690  -16.7463 C   0  0  0  0  0  0  0  0  0  0  0  0
   24.3162   -9.1007  -17.5155 O   0  0  0  0  0  0  0  0  0  0  0  0
   20.6010   -9.3151  -15.7304 C   0  0  0  0  0  0  0  0  0  0  0  0
   22.0265   -8.8763  -15.9944 C   0  0  2  0  0  0  0  0  0  0  0  0
   22.8878  -10.0268  -15.9896 N   0  0  0  0  0  0  0  0  0  0  0  0
   22.4295   -7.8318  -15.0382 C   0  0  0  0  0  0  0  0  0  0  0  0
   22.8243   -8.0796  -13.8650 O   0  0  0  0  0  0  0  0  0  0  0  0
   22.3598   -6.4830  -15.4881 N   0  0  0  0  0  0  0  0  0  0  0  0
   22.7559   -5.3903  -14.6239 C   0  0  0  0  0  0  0  0  0  0  0  0
   21.5428   -4.7398  -14.0428 C   0  0  0  0  0  0  0  0  0  0  0  0
   20.4147   -5.1703  -14.3652 O   0  0  0  0  0  0  0  0  0  0  0  0
   21.6530   -3.6799  -13.1632 O   0  0  0  0  0  0  0  0  0  0  0  0
  2  3  1  0
  2  1  1  1
  4  2  1  0
  4  5  1  6
  6 10  1  0
  6  4  1  0
  7  6  2  0
  9  8  1  1
  9 10  1  0
  9 11  1  0
 11 12  2  0
 13 11  1  0
 13 14  1  0
 14 15  1  0
 15 17  1  0
 16 15  2  0
M  END
$$$$
