TAG.pdb
     RDKit          3D

 17 16  0  0  1  0  0  0  0  0999 V2000
   24.9983    0.9294   -9.0762 C   0  0  0  0  0  0  0  0  0  0  0  0
   24.6190    2.3537   -9.2960 C   0  0  1  0  0  0  0  0  0  0  0  0
   23.8196    2.4209  -10.4516 O   0  0  0  0  0  0  0  0  0  0  0  0
   23.8017    2.9483   -8.1768 C   0  0  2  0  0  0  0  0  0  0  0  0
   23.5147    4.3320   -8.5624 N   0  0  0  0  0  0  0  0  0  0  0  0
   24.5341    2.9432   -6.8855 C   0  0  0  0  0  0  0  0  0  0  0  0
   25.5459    3.6778   -6.7554 O   0  0  0  0  0  0  0  0  0  0  0  0
   24.1120    1.5143   -3.4433 C   0  0  0  0  0  0  0  0  0  0  0  0
   24.9321    2.1398   -4.5526 C   0  0  2  0  0  0  0  0  0  0  0  0
   24.1624    2.1500   -5.7663 N   0  0  0  0  0  0  0  0  0  0  0  0
   26.2304    1.4574   -4.6812 C   0  0  0  0  0  0  0  0  0  0  0  0
   26.4341    0.4968   -5.4745 O   0  0  0  0  0  0  0  0  0  0  0  0
   27.2910    1.9270   -3.8560 N   0  0  0  0  0  0  0  0  0  0  0  0
   28.6308    1.3944   -3.9936 C   0  0  0  0  0  0  0  0  0  0  0  0
   29.5074    1.9460   -2.9167 C   0  0  0  0  0  0  0  0  0  0  0  0
   30.7466    1.9231   -3.0770 O   0  0  0  0  0  0  0  0  0  0  0  0
   28.9696    2.4751   -1.7590 O   0  0  0  0  0  0  0  0  0  0  0  0
  2  3  1  0
  2  1  1  1
  4  2  1  0
  4  5  1  6
  6 10  1  0
  6  4  1  0
  7  6  2  0
  9  8  1  1
  9 10  1  0
  9 11  1  0
 11 12  2  0
 13 11  1  0
 13 14  1  0
 14 15  1  0
 15 17  1  0
 16 15  2  0
M  END
$$$$
