TAG.pdb
     RDKit          3D

 17 16  0  0  1  0  0  0  0  0999 V2000
   22.0761  -11.7387  -16.9022 C   0  0  0  0  0  0  0  0  0  0  0  0
   21.0794  -11.7590  -18.0099 C   0  0  1  0  0  0  0  0  0  0  0  0
   20.9871  -13.0774  -18.4920 O   0  0  0  0  0  0  0  0  0  0  0  0
   19.6876  -11.3610  -17.5873 C   0  0  2  0  0  0  0  0  0  0  0  0
   18.8273  -11.5553  -18.7568 N   0  0  0  0  0  0  0  0  0  0  0  0
   19.6174   -9.9411  -17.1600 C   0  0  0  0  0  0  0  0  0  0  0  0
   20.1336   -9.0580  -17.8908 O   0  0  0  0  0  0  0  0  0  0  0  0
   17.8443   -7.9027  -14.5756 C   0  0  0  0  0  0  0  0  0  0  0  0
   18.9518   -8.1169  -15.5866 C   0  0  2  0  0  0  0  0  0  0  0  0
   18.9950   -9.5042  -15.9593 N   0  0  0  0  0  0  0  0  0  0  0  0
   20.2302   -7.6040  -15.0666 C   0  0  0  0  0  0  0  0  0  0  0  0
   21.0479   -8.3108  -14.4144 O   0  0  0  0  0  0  0  0  0  0  0  0
   20.5321   -6.2377  -15.3285 N   0  0  0  0  0  0  0  0  0  0  0  0
   21.7585   -5.6413  -14.8409 C   0  0  0  0  0  0  0  0  0  0  0  0
   21.5703   -5.1770  -13.4332 C   0  0  0  0  0  0  0  0  0  0  0  0
   22.5091   -4.5792  -12.8648 O   0  0  0  0  0  0  0  0  0  0  0  0
   20.3837   -5.3986  -12.7608 O   0  0  0  0  0  0  0  0  0  0  0  0
  2  3  1  0
  2  1  1  1
  4  2  1  0
  4  5  1  6
  6 10  1  0
  6  4  1  0
  7  6  2  0
  9  8  1  1
  9 10  1  0
  9 11  1  0
 11 12  2  0
 13 11  1  0
 13 14  1  0
 14 15  1  0
 15 17  1  0
 16 15  2  0
M  END
$$$$
