TAG.pdb
     RDKit          3D

 17 16  0  0  1  0  0  0  0  0999 V2000
   19.3178   -8.7407  -19.6767 C   0  0  0  0  0  0  0  0  0  0  0  0
   19.7341   -8.5396  -18.2600 C   0  0  1  0  0  0  0  0  0  0  0  0
   18.7332   -7.7939  -17.6109 O   0  0  0  0  0  0  0  0  0  0  0  0
   19.8852   -9.8211  -17.4795 C   0  0  2  0  0  0  0  0  0  0  0  0
   18.5690  -10.4640  -17.4787 N   0  0  0  0  0  0  0  0  0  0  0  0
   20.3097   -9.5759  -16.0783 C   0  0  0  0  0  0  0  0  0  0  0  0
   19.4313   -9.4584  -15.1866 O   0  0  0  0  0  0  0  0  0  0  0  0
   23.2470  -10.0948  -13.9647 C   0  0  0  0  0  0  0  0  0  0  0  0
   22.0304   -9.2548  -14.2944 C   0  0  2  0  0  0  0  0  0  0  0  0
   21.6660   -9.4630  -15.6690 N   0  0  0  0  0  0  0  0  0  0  0  0
   22.2714   -7.8429  -13.9536 C   0  0  0  0  0  0  0  0  0  0  0  0
   22.5719   -7.4508  -12.7919 O   0  0  0  0  0  0  0  0  0  0  0  0
   22.1523   -6.8947  -15.0086 N   0  0  0  0  0  0  0  0  0  0  0  0
   22.3943   -5.4864  -14.7725 C   0  0  0  0  0  0  0  0  0  0  0  0
   21.1141   -4.8072  -14.4090 C   0  0  0  0  0  0  0  0  0  0  0  0
   21.1293   -3.5810  -14.1679 O   0  0  0  0  0  0  0  0  0  0  0  0
   19.9274   -5.5113  -14.3373 O   0  0  0  0  0  0  0  0  0  0  0  0
  2  3  1  0
  2  1  1  6
  4  2  1  0
  4  5  1  1
  6 10  1  0
  6  4  1  0
  7  6  2  0
  9  8  1  6
  9 10  1  0
  9 11  1  0
 11 12  2  0
 13 11  1  0
 13 14  1  0
 14 15  1  0
 15 17  1  0
 16 15  2  0
M  END
$$$$
