TAG.pdb
     RDKit          3D

 17 16  0  0  1  0  0  0  0  0999 V2000
   21.3066  -12.3416  -17.2914 C   0  0  0  0  0  0  0  0  0  0  0  0
   20.1939  -11.3895  -17.0151 C   0  0  1  0  0  0  0  0  0  0  0  0
   19.0854  -12.1299  -16.5654 O   0  0  0  0  0  0  0  0  0  0  0  0
   20.5032  -10.3851  -15.9336 C   0  0  2  0  0  0  0  0  0  0  0  0
   19.2304   -9.7534  -15.5777 N   0  0  0  0  0  0  0  0  0  0  0  0
   21.4539   -9.3422  -16.3942 C   0  0  0  0  0  0  0  0  0  0  0  0
   22.6702   -9.6363  -16.5152 O   0  0  0  0  0  0  0  0  0  0  0  0
   21.4641   -6.2302  -18.2899 C   0  0  0  0  0  0  0  0  0  0  0  0
   22.0361   -7.0277  -17.1360 C   0  0  2  0  0  0  0  0  0  0  0  0
   21.0758   -8.0099  -16.7133 N   0  0  0  0  0  0  0  0  0  0  0  0
   22.4769   -6.1285  -16.0567 C   0  0  0  0  0  0  0  0  0  0  0  0
   23.3177   -5.2020  -16.2251 O   0  0  0  0  0  0  0  0  0  0  0  0
   21.9085   -6.3388  -14.7687 N   0  0  0  0  0  0  0  0  0  0  0  0
   22.2608   -5.4854  -13.6529 C   0  0  0  0  0  0  0  0  0  0  0  0
   21.5205   -4.1914  -13.7523 C   0  0  0  0  0  0  0  0  0  0  0  0
   22.1723   -3.1302  -13.8565 O   0  0  0  0  0  0  0  0  0  0  0  0
   20.1394   -4.1553  -13.7306 O   0  0  0  0  0  0  0  0  0  0  0  0
  2  3  1  0
  2  1  1  1
  4  2  1  0
  4  5  1  6
  6 10  1  0
  6  4  1  0
  7  6  2  0
  9  8  1  6
  9 10  1  0
  9 11  1  0
 11 12  2  0
 13 11  1  0
 13 14  1  0
 14 15  1  0
 15 17  1  0
 16 15  2  0
M  END
$$$$
