TAG.pdb
     RDKit          3D

 17 16  0  0  1  0  0  0  0  0999 V2000
   16.2710  -11.4721  -11.1211 C   0  0  0  0  0  0  0  0  0  0  0  0
   14.7833  -11.5088  -11.2004 C   0  0  1  0  0  0  0  0  0  0  0  0
   14.3731  -12.8518  -11.1155 O   0  0  0  0  0  0  0  0  0  0  0  0
   14.0931  -10.7800  -10.0750 C   0  0  2  0  0  0  0  0  0  0  0  0
   12.6555  -10.9831  -10.2692 N   0  0  0  0  0  0  0  0  0  0  0  0
   14.3867   -9.3249  -10.0877 C   0  0  0  0  0  0  0  0  0  0  0  0
   14.0065   -8.6345  -11.0671 O   0  0  0  0  0  0  0  0  0  0  0  0
   15.8362   -6.7121   -7.8290 C   0  0  0  0  0  0  0  0  0  0  0  0
   15.5310   -7.2899   -9.1955 C   0  0  2  0  0  0  0  0  0  0  0  0
   15.0809   -8.6470   -9.0492 N   0  0  0  0  0  0  0  0  0  0  0  0
   16.6934   -7.1452  -10.0874 C   0  0  0  0  0  0  0  0  0  0  0  0
   17.7066   -7.8963  -10.0346 O   0  0  0  0  0  0  0  0  0  0  0  0
   16.6434   -6.0957  -11.0479 N   0  0  0  0  0  0  0  0  0  0  0  0
   17.6939   -5.9393  -12.0325 C   0  0  0  0  0  0  0  0  0  0  0  0
   17.3558   -4.8167  -12.9588 C   0  0  0  0  0  0  0  0  0  0  0  0
   18.2018   -4.4584  -13.8061 O   0  0  0  0  0  0  0  0  0  0  0  0
   16.1326   -4.1778  -12.8900 O   0  0  0  0  0  0  0  0  0  0  0  0
  2  3  1  0
  2  1  1  1
  4  2  1  0
  4  5  1  6
  6 10  1  0
  6  4  1  0
  7  6  2  0
  9  8  1  1
  9 10  1  0
  9 11  1  0
 11 12  2  0
 13 11  1  0
 13 14  1  0
 14 15  1  0
 15 17  1  0
 16 15  2  0
M  END
$$$$
