TAG.pdb
     RDKit          3D

 17 16  0  0  1  0  0  0  0  0999 V2000
   17.5365  -13.0427  -16.3258 C   0  0  0  0  0  0  0  0  0  0  0  0
   18.2067  -11.7243  -16.1423 C   0  0  1  0  0  0  0  0  0  0  0  0
   18.8343  -11.7234  -14.8833 O   0  0  0  0  0  0  0  0  0  0  0  0
   19.2857  -11.4406  -17.1570 C   0  0  2  0  0  0  0  0  0  0  0  0
   20.3263  -12.4505  -16.9494 N   0  0  0  0  0  0  0  0  0  0  0  0
   19.8752  -10.0893  -16.9838 C   0  0  0  0  0  0  0  0  0  0  0  0
   21.0017   -9.9810  -16.4363 O   0  0  0  0  0  0  0  0  0  0  0  0
   19.0750   -6.5564  -17.9842 C   0  0  0  0  0  0  0  0  0  0  0  0
   19.8465   -7.5999  -17.2030 C   0  0  2  0  0  0  0  0  0  0  0  0
   19.2413   -8.8881  -17.4022 N   0  0  0  0  0  0  0  0  0  0  0  0
   19.9534   -7.2091  -15.7875 C   0  0  0  0  0  0  0  0  0  0  0  0
   19.1172   -7.5544  -14.9070 O   0  0  0  0  0  0  0  0  0  0  0  0
   21.0669   -6.4005  -15.4233 N   0  0  0  0  0  0  0  0  0  0  0  0
   21.2814   -6.0087  -14.0456 C   0  0  0  0  0  0  0  0  0  0  0  0
   22.5810   -5.2819  -13.9230 C   0  0  0  0  0  0  0  0  0  0  0  0
   22.9016   -4.8025  -12.8142 O   0  0  0  0  0  0  0  0  0  0  0  0
   23.4227   -5.1355  -15.0090 O   0  0  0  0  0  0  0  0  0  0  0  0
  2  3  1  0
  2  1  1  6
  4  2  1  0
  4  5  1  1
  6 10  1  0
  6  4  1  0
  7  6  2  0
  9  8  1  6
  9 10  1  0
  9 11  1  0
 11 12  2  0
 13 11  1  0
 13 14  1  0
 14 15  1  0
 15 17  1  0
 16 15  2  0
M  END
$$$$
