TAG.pdb
     RDKit          3D

 17 16  0  0  1  0  0  0  0  0999 V2000
   21.5564  -11.9169  -18.0498 C   0  0  0  0  0  0  0  0  0  0  0  0
   20.2239  -12.4767  -17.6864 C   0  0  1  0  0  0  0  0  0  0  0  0
   20.3946  -13.8324  -17.3520 O   0  0  0  0  0  0  0  0  0  0  0  0
   19.5907  -11.8178  -16.4868 C   0  0  2  0  0  0  0  0  0  0  0  0
   18.4335  -12.6397  -16.1246 N   0  0  0  0  0  0  0  0  0  0  0  0
   19.1348  -10.4364  -16.7829 C   0  0  0  0  0  0  0  0  0  0  0  0
   18.0858  -10.2714  -17.4558 O   0  0  0  0  0  0  0  0  0  0  0  0
   17.9348   -7.7809  -16.1111 C   0  0  0  0  0  0  0  0  0  0  0  0
   19.3362   -7.9482  -16.6612 C   0  0  2  0  0  0  0  0  0  0  0  0
   19.8160   -9.2667  -16.3496 N   0  0  0  0  0  0  0  0  0  0  0  0
   20.2126   -6.8696  -16.1752 C   0  0  0  0  0  0  0  0  0  0  0  0
   19.9862   -5.6450  -16.3819 O   0  0  0  0  0  0  0  0  0  0  0  0
   21.3664   -7.2583  -15.4376 N   0  0  0  0  0  0  0  0  0  0  0  0
   22.3463   -6.2770  -15.0199 C   0  0  0  0  0  0  0  0  0  0  0  0
   21.9958   -5.7579  -13.6634 C   0  0  0  0  0  0  0  0  0  0  0  0
   20.8949   -6.0733  -13.1629 O   0  0  0  0  0  0  0  0  0  0  0  0
   22.8649   -4.9424  -12.9642 O   0  0  0  0  0  0  0  0  0  0  0  0
  2  3  1  0
  2  1  1  1
  4  2  1  0
  4  5  1  6
  6 10  1  0
  6  4  1  0
  7  6  2  0
  9  8  1  1
  9 10  1  0
  9 11  1  0
 11 12  2  0
 13 11  1  0
 13 14  1  0
 14 15  1  0
 15 17  1  0
 16 15  2  0
M  END
$$$$
