TAG.pdb
     RDKit          3D

 17 16  0  0  1  0  0  0  0  0999 V2000
   17.2987  -11.5168  -17.9406 C   0  0  0  0  0  0  0  0  0  0  0  0
   18.1760  -10.6343  -17.1206 C   0  0  1  0  0  0  0  0  0  0  0  0
   17.3635   -9.6789  -16.4834 O   0  0  0  0  0  0  0  0  0  0  0  0
   18.9207  -11.3583  -16.0272 C   0  0  2  0  0  0  0  0  0  0  0  0
   17.9039  -11.9402  -15.1478 N   0  0  0  0  0  0  0  0  0  0  0  0
   19.7836  -10.4440  -15.2379 C   0  0  0  0  0  0  0  0  0  0  0  0
   19.2479   -9.6569  -14.4170 O   0  0  0  0  0  0  0  0  0  0  0  0
   23.4236   -9.9875  -14.5185 C   0  0  0  0  0  0  0  0  0  0  0  0
   21.9940   -9.4892  -14.5679 C   0  0  2  0  0  0  0  0  0  0  0  0
   21.1997  -10.3971  -15.3492 N   0  0  0  0  0  0  0  0  0  0  0  0
   21.9494   -8.0988  -15.0503 C   0  0  0  0  0  0  0  0  0  0  0  0
   21.8087   -7.7901  -16.2662 O   0  0  0  0  0  0  0  0  0  0  0  0
   22.0739   -7.0719  -14.0723 N   0  0  0  0  0  0  0  0  0  0  0  0
   22.0955   -5.6764  -14.4592 C   0  0  0  0  0  0  0  0  0  0  0  0
   20.7122   -5.1146  -14.4033 C   0  0  0  0  0  0  0  0  0  0  0  0
   20.5492   -3.8921  -14.6057 O   0  0  0  0  0  0  0  0  0  0  0  0
   19.6238   -5.9219  -14.1335 O   0  0  0  0  0  0  0  0  0  0  0  0
  2  3  1  0
  2  1  1  1
  4  2  1  0
  4  5  1  1
  6 10  1  0
  6  4  1  0
  7  6  2  0
  9  8  1  6
  9 10  1  0
  9 11  1  0
 11 12  2  0
 13 11  1  0
 13 14  1  0
 14 15  1  0
 15 17  1  0
 16 15  2  0
M  END
$$$$
