TAG.pdb
     RDKit          3D

 17 16  0  0  1  0  0  0  0  0999 V2000
   31.5135   -8.9717  -18.6830 C   0  0  0  0  0  0  0  0  0  0  0  0
   30.1558   -9.5202  -18.4059 C   0  0  1  0  0  0  0  0  0  0  0  0
   29.3482   -9.2806  -19.5325 O   0  0  0  0  0  0  0  0  0  0  0  0
   30.1342  -11.0103  -18.1746 C   0  0  2  0  0  0  0  0  0  0  0  0
   30.6117  -11.6294  -19.4134 N   0  0  0  0  0  0  0  0  0  0  0  0
   28.7691  -11.5099  -17.8738 C   0  0  0  0  0  0  0  0  0  0  0  0
   28.0107  -11.8234  -18.8262 O   0  0  0  0  0  0  0  0  0  0  0  0
   26.8152  -12.5764  -14.8554 C   0  0  0  0  0  0  0  0  0  0  0  0
   26.9375  -12.1883  -16.3145 C   0  0  2  0  0  0  0  0  0  0  0  0
   28.2518  -11.6606  -16.5586 N   0  0  0  0  0  0  0  0  0  0  0  0
   25.8512  -11.2707  -16.6963 C   0  0  0  0  0  0  0  0  0  0  0  0
   25.9340  -10.0154  -16.5914 O   0  0  0  0  0  0  0  0  0  0  0  0
   24.6593  -11.8582  -17.2066 N   0  0  0  0  0  0  0  0  0  0  0  0
   23.5544  -11.0326  -17.6484 C   0  0  0  0  0  0  0  0  0  0  0  0
   22.4896  -11.0095  -16.6005 C   0  0  0  0  0  0  0  0  0  0  0  0
   22.1995  -12.0732  -16.0120 O   0  0  0  0  0  0  0  0  0  0  0  0
   21.8297   -9.8391  -16.2784 O   0  0  0  0  0  0  0  0  0  0  0  0
  2  3  1  0
  2  1  1  6
  4  2  1  0
  4  5  1  6
  6 10  1  0
  6  4  1  0
  7  6  2  0
  9  8  1  1
  9 10  1  0
  9 11  1  0
 11 12  2  0
 13 11  1  0
 13 14  1  0
 14 15  1  0
 15 17  1  0
 16 15  2  0
M  END
$$$$
