TAG.pdb
     RDKit          3D

 17 16  0  0  1  0  0  0  0  0999 V2000
   16.5874  -10.6470  -17.0635 C   0  0  0  0  0  0  0  0  0  0  0  0
   17.7415   -9.9952  -16.3823 C   0  0  1  0  0  0  0  0  0  0  0  0
   17.4361   -9.8831  -15.0136 O   0  0  0  0  0  0  0  0  0  0  0  0
   19.0260  -10.7806  -16.4698 C   0  0  2  0  0  0  0  0  0  0  0  0
   18.7990  -12.0298  -15.7393 N   0  0  0  0  0  0  0  0  0  0  0  0
   20.1673  -10.0565  -15.8561 C   0  0  0  0  0  0  0  0  0  0  0  0
   20.3418  -10.1344  -14.6135 O   0  0  0  0  0  0  0  0  0  0  0  0
   23.1478   -8.0654  -16.9609 C   0  0  0  0  0  0  0  0  0  0  0  0
   22.1092   -8.4855  -15.9414 C   0  0  2  0  0  0  0  0  0  0  0  0
   21.0928   -9.2669  -16.5909 N   0  0  0  0  0  0  0  0  0  0  0  0
   21.5850   -7.3104  -15.2258 C   0  0  0  0  0  0  0  0  0  0  0  0
   20.5436   -6.6904  -15.5788 O   0  0  0  0  0  0  0  0  0  0  0  0
   22.3108   -6.8747  -14.0814 N   0  0  0  0  0  0  0  0  0  0  0  0
   21.8600   -5.7389  -13.3040 C   0  0  0  0  0  0  0  0  0  0  0  0
   22.0243   -4.4846  -14.0991 C   0  0  0  0  0  0  0  0  0  0  0  0
   21.3357   -3.4858  -13.7988 O   0  0  0  0  0  0  0  0  0  0  0  0
   22.9184   -4.4173  -15.1503 O   0  0  0  0  0  0  0  0  0  0  0  0
  2  3  1  0
  2  1  1  6
  4  2  1  0
  4  5  1  1
  6 10  1  0
  6  4  1  0
  7  6  2  0
  9  8  1  6
  9 10  1  0
  9 11  1  0
 11 12  2  0
 13 11  1  0
 13 14  1  0
 14 15  1  0
 15 17  1  0
 16 15  2  0
M  END
$$$$
