VEK.pdb
     RDKit          3D

 26 25  0  0  1  0  0  0  0  0999 V2000
    7.8103  -12.5265   19.2224 C   0  0  0  0  0  0  0  0  0  0  0  0
    8.2108  -13.4121   20.3811 C   0  0  1  0  0  0  0  0  0  0  0  0
    7.3231  -13.1212   21.5423 C   0  0  0  0  0  0  0  0  0  0  0  0
    8.2308  -14.8557   19.9611 C   0  0  2  0  0  0  0  0  0  0  0  0
    6.9269  -15.2036   19.4470 N   0  0  0  0  0  0  0  0  0  0  0  0
    8.5422  -15.7716   21.0953 C   0  0  0  0  0  0  0  0  0  0  0  0
    7.6071  -16.2144   21.7850 O   0  0  0  0  0  0  0  0  0  0  0  0
    9.8744  -16.1543   21.4127 N   0  0  0  0  0  0  0  0  0  0  0  0
   10.3283  -16.9468   22.4960 C   0  0  1  0  0  0  0  0  0  0  0  0
   11.5744  -17.7124   22.2926 C   0  0  0  0  0  0  0  0  0  0  0  0
   11.4025  -18.7133   21.1783 C   0  0  0  0  0  0  0  0  0  0  0  0
   12.6871  -19.3464   20.8277 C   0  0  0  0  0  0  0  0  0  0  0  0
   12.7223  -20.3882   20.1386 O   0  0  0  0  0  0  0  0  0  0  0  0
   10.2596  -16.2194   23.8050 C   0  0  0  0  0  0  0  0  0  0  0  0
   10.9327  -15.1779   23.9726 O   0  0  0  0  0  0  0  0  0  0  0  0
   13.8788  -18.7942   21.2582 O   0  0  0  0  0  0  0  0  0  0  0  0
    9.4705  -16.6453   24.8730 N   0  0  0  0  0  0  0  0  0  0  0  0
    9.4733  -15.9181   26.2030 C   0  0  1  0  0  0  0  0  0  0  0  0
    8.1472  -15.2364   26.1709 C   0  0  0  0  0  0  0  0  0  0  0  0
    7.9934  -13.7947   26.1670 C   0  0  0  0  0  0  0  0  0  0  0  0
    6.6889  -13.1241   26.2090 C   0  0  0  0  0  0  0  0  0  0  0  0
    6.7348  -11.6122   26.2326 C   0  0  0  0  0  0  0  0  0  0  0  0
    5.4412  -11.0062   26.3140 N   0  0  0  0  0  0  0  0  0  0  0  0
    9.6868  -16.9221   27.2455 C   0  0  0  0  0  0  0  0  0  0  0  0
   10.1360  -16.4558   28.5104 O   0  0  0  0  0  0  0  0  0  0  0  0
    9.5078  -18.1504   27.1161 O   0  0  0  0  0  0  0  0  0  0  0  0
  2  4  1  0
  2  1  1  6
  3  2  1  0
  4  6  1  0
  4  5  1  1
  6  7  2  0
  8  9  1  0
  8  6  1  0
  9 10  1  6
 11 10  1  0
 12 11  1  0
 12 13  2  0
 14 15  2  0
 14  9  1  0
 16 12  1  0
 17 14  1  0
 18 17  1  0
 18 24  1  0
 18 19  1  1
 20 19  1  0
 21 20  1  0
 22 21  1  0
 23 22  1  0
 24 25  1  0
 26 24  2  0
M  END
$$$$
