VEK.pdb
     RDKit          3D

 26 25  0  0  1  0  0  0  0  0999 V2000
    8.9495  -12.3673   20.1097 C   0  0  0  0  0  0  0  0  0  0  0  0
    8.1125  -13.4068   19.3982 C   0  0  1  0  0  0  0  0  0  0  0  0
    6.8364  -12.7789   18.9529 C   0  0  0  0  0  0  0  0  0  0  0  0
    8.9019  -14.0575   18.2963 C   0  0  2  0  0  0  0  0  0  0  0  0
    8.0385  -14.9760   17.5918 N   0  0  0  0  0  0  0  0  0  0  0  0
   10.0716  -14.8236   18.8134 C   0  0  0  0  0  0  0  0  0  0  0  0
    9.8909  -15.9719   19.2549 O   0  0  0  0  0  0  0  0  0  0  0  0
   11.3865  -14.2822   18.8173 N   0  0  0  0  0  0  0  0  0  0  0  0
   12.5997  -14.9194   19.1776 C   0  0  1  0  0  0  0  0  0  0  0  0
   13.8316  -14.4398   18.5199 C   0  0  0  0  0  0  0  0  0  0  0  0
   15.0401  -15.1379   19.0904 C   0  0  0  0  0  0  0  0  0  0  0  0
   16.2825  -14.6496   18.4644 C   0  0  0  0  0  0  0  0  0  0  0  0
   17.2951  -14.4038   19.1542 O   0  0  0  0  0  0  0  0  0  0  0  0
   12.7274  -15.1106   20.6590 C   0  0  0  0  0  0  0  0  0  0  0  0
   12.7889  -14.1122   21.4108 O   0  0  0  0  0  0  0  0  0  0  0  0
   16.3468  -14.4552   17.0975 O   0  0  0  0  0  0  0  0  0  0  0  0
   12.7828  -16.3661   21.2634 N   0  0  0  0  0  0  0  0  0  0  0  0
   12.8799  -16.5204   22.7683 C   0  0  1  0  0  0  0  0  0  0  0  0
   12.2345  -17.8494   22.9722 C   0  0  0  0  0  0  0  0  0  0  0  0
   12.1567  -18.5068   24.2621 C   0  0  0  0  0  0  0  0  0  0  0  0
   11.4998  -19.8028   24.4670 C   0  0  0  0  0  0  0  0  0  0  0  0
   11.6361  -20.3894   25.8547 C   0  0  0  0  0  0  0  0  0  0  0  0
   10.8161  -21.5427   26.0666 N   0  0  0  0  0  0  0  0  0  0  0  0
   14.2931  -16.3985   23.1262 C   0  0  0  0  0  0  0  0  0  0  0  0
   14.5913  -15.9979   24.4565 O   0  0  0  0  0  0  0  0  0  0  0  0
   15.2555  -16.6164   22.3621 O   0  0  0  0  0  0  0  0  0  0  0  0
  2  4  1  0
  2  1  1  6
  3  2  1  0
  4  6  1  0
  4  5  1  1
  6  7  2  0
  8  9  1  0
  8  6  1  0
  9 10  1  1
 11 10  1  0
 12 11  1  0
 12 13  2  0
 14 15  2  0
 14  9  1  0
 16 12  1  0
 17 14  1  0
 18 17  1  0
 18 24  1  0
 18 19  1  6
 20 19  1  0
 21 20  1  0
 22 21  1  0
 23 22  1  0
 24 25  1  0
 26 24  2  0
M  END
$$$$
