VEK.pdb
     RDKit          3D

 26 25  0  0  1  0  0  0  0  0999 V2000
    9.0843  -12.7733   20.2072 C   0  0  0  0  0  0  0  0  0  0  0  0
    8.0168  -13.5516   19.4708 C   0  0  1  0  0  0  0  0  0  0  0  0
    7.5523  -12.7505   18.3032 C   0  0  0  0  0  0  0  0  0  0  0  0
    8.5116  -14.9279   19.1222 C   0  0  2  0  0  0  0  0  0  0  0  0
    7.5018  -15.5942   18.3337 N   0  0  0  0  0  0  0  0  0  0  0  0
    8.7785  -15.7575   20.3317 C   0  0  0  0  0  0  0  0  0  0  0  0
    7.8181  -16.1396   21.0229 O   0  0  0  0  0  0  0  0  0  0  0  0
   10.0964  -16.1251   20.7191 N   0  0  0  0  0  0  0  0  0  0  0  0
   10.5010  -16.9177   21.8217 C   0  0  1  0  0  0  0  0  0  0  0  0
   11.7066  -17.7514   21.6435 C   0  0  0  0  0  0  0  0  0  0  0  0
   12.0044  -18.5241   22.9034 C   0  0  0  0  0  0  0  0  0  0  0  0
   13.2511  -19.2999   22.7707 C   0  0  0  0  0  0  0  0  0  0  0  0
   14.3169  -18.7475   22.4233 O   0  0  0  0  0  0  0  0  0  0  0  0
   10.4619  -16.1608   23.1152 C   0  0  0  0  0  0  0  0  0  0  0  0
   11.3572  -15.3255   23.3730 O   0  0  0  0  0  0  0  0  0  0  0  0
   13.2604  -20.6575   23.0298 O   0  0  0  0  0  0  0  0  0  0  0  0
    9.4621  -16.3369   24.0712 N   0  0  0  0  0  0  0  0  0  0  0  0
    9.5073  -15.6255   25.4090 C   0  0  1  0  0  0  0  0  0  0  0  0
    8.3003  -14.7537   25.3221 C   0  0  0  0  0  0  0  0  0  0  0  0
    8.0361  -13.6661   26.2437 C   0  0  0  0  0  0  0  0  0  0  0  0
    6.8464  -12.8111   26.1602 C   0  0  0  0  0  0  0  0  0  0  0  0
    6.7745  -11.6949   27.1788 C   0  0  0  0  0  0  0  0  0  0  0  0
    5.5813  -10.9115   27.0791 N   0  0  0  0  0  0  0  0  0  0  0  0
    9.5176  -16.6558   26.4476 C   0  0  0  0  0  0  0  0  0  0  0  0
   10.0051  -16.2787   27.7279 O   0  0  0  0  0  0  0  0  0  0  0  0
    9.1351  -17.8348   26.3025 O   0  0  0  0  0  0  0  0  0  0  0  0
  2  4  1  0
  2  1  1  6
  3  2  1  0
  4  6  1  0
  4  5  1  6
  6  7  2  0
  8  9  1  0
  8  6  1  0
  9 10  1  6
 11 10  1  0
 12 11  1  0
 12 13  2  0
 14 15  2  0
 14  9  1  0
 16 12  1  0
 17 14  1  0
 18 17  1  0
 18 24  1  0
 18 19  1  1
 20 19  1  0
 21 20  1  0
 22 21  1  0
 23 22  1  0
 24 25  1  0
 26 24  2  0
M  END
$$$$
