VEK.pdb
     RDKit          3D

 26 25  0  0  1  0  0  0  0  0999 V2000
    8.0285  -12.8450   18.3046 C   0  0  0  0  0  0  0  0  0  0  0  0
    8.4235  -13.5498   19.5831 C   0  0  1  0  0  0  0  0  0  0  0  0
    7.6726  -12.9467   20.7204 C   0  0  0  0  0  0  0  0  0  0  0  0
    8.2492  -15.0366   19.4428 C   0  0  2  0  0  0  0  0  0  0  0  0
    6.8815  -15.3063   19.0656 N   0  0  0  0  0  0  0  0  0  0  0  0
    8.5321  -15.7628   20.7136 C   0  0  0  0  0  0  0  0  0  0  0  0
    7.6001  -15.9633   21.5121 O   0  0  0  0  0  0  0  0  0  0  0  0
    9.8336  -16.2329   21.0408 N   0  0  0  0  0  0  0  0  0  0  0  0
   10.2393  -16.9867   22.1699 C   0  0  1  0  0  0  0  0  0  0  0  0
   11.4193  -17.8592   22.0067 C   0  0  0  0  0  0  0  0  0  0  0  0
   11.0636  -19.0817   21.1994 C   0  0  0  0  0  0  0  0  0  0  0  0
   12.2435  -19.9386   20.9819 C   0  0  0  0  0  0  0  0  0  0  0  0
   13.3850  -19.4427   20.8695 O   0  0  0  0  0  0  0  0  0  0  0  0
   10.2451  -16.1728   23.4288 C   0  0  0  0  0  0  0  0  0  0  0  0
   11.0910  -15.2624   23.5757 O   0  0  0  0  0  0  0  0  0  0  0  0
   12.1045  -21.3113   20.8985 O   0  0  0  0  0  0  0  0  0  0  0  0
    9.3414  -16.3753   24.4714 N   0  0  0  0  0  0  0  0  0  0  0  0
    9.4204  -15.5778   25.7581 C   0  0  1  0  0  0  0  0  0  0  0  0
    8.1718  -14.7656   25.6805 C   0  0  0  0  0  0  0  0  0  0  0  0
    7.9294  -13.5982   26.5054 C   0  0  0  0  0  0  0  0  0  0  0  0
    6.6941  -12.8088   26.4401 C   0  0  0  0  0  0  0  0  0  0  0  0
    6.6311  -11.6204   27.3741 C   0  0  0  0  0  0  0  0  0  0  0  0
    5.4133  -10.8771   27.2656 N   0  0  0  0  0  0  0  0  0  0  0  0
    9.5296  -16.5375   26.8569 C   0  0  0  0  0  0  0  0  0  0  0  0
   10.0349  -16.0512   28.0927 O   0  0  0  0  0  0  0  0  0  0  0  0
    9.2169  -17.7443   26.7987 O   0  0  0  0  0  0  0  0  0  0  0  0
  2  4  1  0
  2  1  1  6
  3  2  1  0
  4  6  1  0
  4  5  1  1
  6  7  2  0
  8  9  1  0
  8  6  1  0
  9 10  1  6
 11 10  1  0
 12 11  1  0
 12 13  2  0
 14 15  2  0
 14  9  1  0
 16 12  1  0
 17 14  1  0
 18 17  1  0
 18 24  1  0
 18 19  1  1
 20 19  1  0
 21 20  1  0
 22 21  1  0
 23 22  1  0
 24 25  1  0
 26 24  2  0
M  END
$$$$
