VEK.pdb
     RDKit          3D

 26 25  0  0  1  0  0  0  0  0999 V2000
    9.2009  -12.7651   20.7124 C   0  0  0  0  0  0  0  0  0  0  0  0
    8.0231  -13.4954   20.1068 C   0  0  1  0  0  0  0  0  0  0  0  0
    7.4497  -12.6641   19.0107 C   0  0  0  0  0  0  0  0  0  0  0  0
    8.4197  -14.8845   19.6901 C   0  0  2  0  0  0  0  0  0  0  0  0
    7.3000  -15.5010   19.0180 N   0  0  0  0  0  0  0  0  0  0  0  0
    8.7918  -15.7404   20.8526 C   0  0  0  0  0  0  0  0  0  0  0  0
    7.8885  -16.2230   21.5578 O   0  0  0  0  0  0  0  0  0  0  0  0
   10.1468  -16.0216   21.1798 N   0  0  0  0  0  0  0  0  0  0  0  0
   10.6486  -16.8862   22.1840 C   0  0  1  0  0  0  0  0  0  0  0  0
   11.9242  -17.5744   21.9020 C   0  0  0  0  0  0  0  0  0  0  0  0
   11.7478  -18.5776   20.7906 C   0  0  0  0  0  0  0  0  0  0  0  0
   13.0248  -19.2356   20.4589 C   0  0  0  0  0  0  0  0  0  0  0  0
   13.8812  -18.6576   19.7559 O   0  0  0  0  0  0  0  0  0  0  0  0
   10.5650  -16.2818   23.5533 C   0  0  0  0  0  0  0  0  0  0  0  0
   11.3218  -15.3338   23.8607 O   0  0  0  0  0  0  0  0  0  0  0  0
   13.2961  -20.5090   20.9229 O   0  0  0  0  0  0  0  0  0  0  0  0
    9.6717  -16.7243   24.5284 N   0  0  0  0  0  0  0  0  0  0  0  0
    9.6435  -16.1149   25.9160 C   0  0  1  0  0  0  0  0  0  0  0  0
    8.2710  -15.5325   25.9562 C   0  0  0  0  0  0  0  0  0  0  0  0
    8.0124  -14.1063   25.9922 C   0  0  0  0  0  0  0  0  0  0  0  0
    6.6625  -13.5341   26.0503 C   0  0  0  0  0  0  0  0  0  0  0  0
    6.5923  -12.0244   25.9866 C   0  0  0  0  0  0  0  0  0  0  0  0
    5.2658  -11.5107   26.1409 N   0  0  0  0  0  0  0  0  0  0  0  0
    9.9464  -17.1855   26.8659 C   0  0  0  0  0  0  0  0  0  0  0  0
   10.3268  -16.7971   28.1787 O   0  0  0  0  0  0  0  0  0  0  0  0
    9.8987  -18.4079   26.6192 O   0  0  0  0  0  0  0  0  0  0  0  0
  2  4  1  0
  2  1  1  6
  3  2  1  0
  4  6  1  0
  4  5  1  1
  6  7  2  0
  8  9  1  0
  8  6  1  0
  9 10  1  6
 11 10  1  0
 12 11  1  0
 12 13  2  0
 14 15  2  0
 14  9  1  0
 16 12  1  0
 17 14  1  0
 18 17  1  0
 18 24  1  0
 18 19  1  1
 20 19  1  0
 21 20  1  0
 22 21  1  0
 23 22  1  0
 24 25  1  0
 26 24  2  0
M  END
$$$$
