VEK.pdb
     RDKit          3D

 26 25  0  0  1  0  0  0  0  0999 V2000
    8.1314  -12.1475   18.2969 C   0  0  0  0  0  0  0  0  0  0  0  0
    7.9376  -13.2721   19.2893 C   0  0  1  0  0  0  0  0  0  0  0  0
    7.4394  -14.4759   18.5656 C   0  0  0  0  0  0  0  0  0  0  0  0
    9.1946  -13.5003   20.0821 C   0  0  2  0  0  0  0  0  0  0  0  0
   10.2478  -13.8888   19.1737 N   0  0  0  0  0  0  0  0  0  0  0  0
    9.0358  -14.5798   21.0979 C   0  0  0  0  0  0  0  0  0  0  0  0
    8.1138  -14.4939   21.9278 O   0  0  0  0  0  0  0  0  0  0  0  0
    9.9055  -15.7038   21.1471 N   0  0  0  0  0  0  0  0  0  0  0  0
    9.9287  -16.7580   22.0935 C   0  0  1  0  0  0  0  0  0  0  0  0
   10.7274  -17.9515   21.7504 C   0  0  0  0  0  0  0  0  0  0  0  0
   10.6143  -18.9918   22.8357 C   0  0  0  0  0  0  0  0  0  0  0  0
   11.4584  -20.1640   22.5406 C   0  0  0  0  0  0  0  0  0  0  0  0
   12.6438  -20.0245   22.1706 O   0  0  0  0  0  0  0  0  0  0  0  0
   10.1305  -16.2645   23.4946 C   0  0  0  0  0  0  0  0  0  0  0  0
   11.2215  -15.7442   23.8185 O   0  0  0  0  0  0  0  0  0  0  0  0
   10.9488  -21.4424   22.6691 O   0  0  0  0  0  0  0  0  0  0  0  0
    9.1502  -16.3530   24.4824 N   0  0  0  0  0  0  0  0  0  0  0  0
    9.3672  -15.7853   25.8711 C   0  0  1  0  0  0  0  0  0  0  0  0
    8.0323  -15.1851   26.1579 C   0  0  0  0  0  0  0  0  0  0  0  0
    7.8133  -13.7580   26.2908 C   0  0  0  0  0  0  0  0  0  0  0  0
    6.4964  -13.1666   26.5536 C   0  0  0  0  0  0  0  0  0  0  0  0
    6.4424  -11.6553   26.5160 C   0  0  0  0  0  0  0  0  0  0  0  0
    5.1206  -11.1304   26.6724 N   0  0  0  0  0  0  0  0  0  0  0  0
    9.8051  -16.8882   26.7267 C   0  0  0  0  0  0  0  0  0  0  0  0
   10.4535  -16.5448   27.9436 O   0  0  0  0  0  0  0  0  0  0  0  0
    9.6571  -18.1019   26.4768 O   0  0  0  0  0  0  0  0  0  0  0  0
  2  4  1  0
  2  1  1  6
  3  2  1  0
  4  6  1  0
  4  5  1  6
  6  7  2  0
  8  9  1  0
  8  6  1  0
  9 10  1  6
 11 10  1  0
 12 11  1  0
 12 13  2  0
 14 15  2  0
 14  9  1  0
 16 12  1  0
 17 14  1  0
 18 17  1  0
 18 24  1  0
 18 19  1  1
 20 19  1  0
 21 20  1  0
 22 21  1  0
 23 22  1  0
 24 25  1  0
 26 24  2  0
M  END
$$$$
