VEK.pdb
     RDKit          3D

 26 25  0  0  1  0  0  0  0  0999 V2000
    8.6669  -12.5943   17.6575 C   0  0  0  0  0  0  0  0  0  0  0  0
    8.6611  -13.6152   18.7733 C   0  0  1  0  0  0  0  0  0  0  0  0
    7.6516  -13.2122   19.7930 C   0  0  0  0  0  0  0  0  0  0  0  0
    8.4675  -15.0005   18.2217 C   0  0  2  0  0  0  0  0  0  0  0  0
    7.2649  -15.0138   17.4222 N   0  0  0  0  0  0  0  0  0  0  0  0
    8.3218  -16.0233   19.2964 C   0  0  0  0  0  0  0  0  0  0  0  0
    7.3518  -15.9480   20.0708 O   0  0  0  0  0  0  0  0  0  0  0  0
    9.2570  -17.0814   19.4633 N   0  0  0  0  0  0  0  0  0  0  0  0
    9.3286  -18.0363   20.5076 C   0  0  1  0  0  0  0  0  0  0  0  0
    8.8948  -19.4118   20.1912 C   0  0  0  0  0  0  0  0  0  0  0  0
    7.5047  -19.4054   19.6077 C   0  0  0  0  0  0  0  0  0  0  0  0
    7.0715  -20.7679   19.2478 C   0  0  0  0  0  0  0  0  0  0  0  0
    7.5157  -21.3339   18.2260 O   0  0  0  0  0  0  0  0  0  0  0  0
   10.6185  -17.9573   21.2674 C   0  0  0  0  0  0  0  0  0  0  0  0
   11.6810  -18.3403   20.7286 O   0  0  0  0  0  0  0  0  0  0  0  0
    6.1622  -21.4441   20.0393 O   0  0  0  0  0  0  0  0  0  0  0  0
   10.7064  -17.4700   22.5710 N   0  0  0  0  0  0  0  0  0  0  0  0
   12.0359  -17.3616   23.2912 C   0  0  1  0  0  0  0  0  0  0  0  0
   12.5947  -16.1136   22.6955 C   0  0  0  0  0  0  0  0  0  0  0  0
   13.4745  -16.1066   21.5430 C   0  0  0  0  0  0  0  0  0  0  0  0
   13.9914  -14.8766   20.9323 C   0  0  0  0  0  0  0  0  0  0  0  0
   14.8974  -15.0744   19.7371 C   0  0  0  0  0  0  0  0  0  0  0  0
   15.3977  -13.8484   19.1949 N   0  0  0  0  0  0  0  0  0  0  0  0
   11.7519  -17.3515   24.7263 C   0  0  0  0  0  0  0  0  0  0  0  0
   10.3895  -17.2439   25.1154 O   0  0  0  0  0  0  0  0  0  0  0  0
   12.6046  -17.4290   25.6342 O   0  0  0  0  0  0  0  0  0  0  0  0
  2  4  1  0
  2  1  1  6
  3  2  1  0
  4  6  1  0
  4  5  1  6
  6  7  2  0
  8  9  1  0
  8  6  1  0
  9 10  1  6
 11 10  1  0
 12 11  1  0
 12 13  2  0
 14 15  2  0
 14  9  1  0
 16 12  1  0
 17 14  1  0
 18 17  1  0
 18 24  1  0
 18 19  1  6
 20 19  1  0
 21 20  1  0
 22 21  1  0
 23 22  1  0
 24 25  1  0
 26 24  2  0
M  END
$$$$
