VEK.pdb
     RDKit          3D

 26 25  0  0  1  0  0  0  0  0999 V2000
    7.2118  -12.6097   19.3333 C   0  0  0  0  0  0  0  0  0  0  0  0
    8.1420  -13.6019   19.9948 C   0  0  1  0  0  0  0  0  0  0  0  0
    7.6229  -13.9196   21.3552 C   0  0  0  0  0  0  0  0  0  0  0  0
    8.3486  -14.8021   19.1131 C   0  0  2  0  0  0  0  0  0  0  0  0
    7.0703  -15.4364   18.8919 N   0  0  0  0  0  0  0  0  0  0  0  0
    9.2646  -15.8054   19.7270 C   0  0  0  0  0  0  0  0  0  0  0  0
    8.7759  -16.7966   20.2969 O   0  0  0  0  0  0  0  0  0  0  0  0
   10.6788  -15.6638   19.6812 N   0  0  0  0  0  0  0  0  0  0  0  0
   11.6695  -16.5767   20.1202 C   0  0  1  0  0  0  0  0  0  0  0  0
   12.7139  -16.9543   19.1471 C   0  0  0  0  0  0  0  0  0  0  0  0
   13.6216  -18.0077   19.7296 C   0  0  0  0  0  0  0  0  0  0  0  0
   14.7144  -18.3436   18.7987 C   0  0  0  0  0  0  0  0  0  0  0  0
   14.5165  -19.0974   17.8218 O   0  0  0  0  0  0  0  0  0  0  0  0
   12.1922  -16.2412   21.4847 C   0  0  0  0  0  0  0  0  0  0  0  0
   12.6852  -15.1114   21.7001 O   0  0  0  0  0  0  0  0  0  0  0  0
   15.9816  -17.8272   18.9930 O   0  0  0  0  0  0  0  0  0  0  0  0
   12.1603  -17.1355   22.5541 N   0  0  0  0  0  0  0  0  0  0  0  0
   12.7995  -16.8029   23.8878 C   0  0  1  0  0  0  0  0  0  0  0  0
   12.1926  -17.8381   24.7736 C   0  0  0  0  0  0  0  0  0  0  0  0
   12.3864  -17.8691   26.2102 C   0  0  0  0  0  0  0  0  0  0  0  0
   11.8024  -18.8970   27.0794 C   0  0  0  0  0  0  0  0  0  0  0  0
   11.9495  -18.6533   28.5651 C   0  0  0  0  0  0  0  0  0  0  0  0
   11.2180  -19.5845   29.3683 N   0  0  0  0  0  0  0  0  0  0  0  0
   14.2492  -16.8490   23.6972 C   0  0  0  0  0  0  0  0  0  0  0  0
   15.0171  -15.8331   24.3276 O   0  0  0  0  0  0  0  0  0  0  0  0
   14.8653  -17.7039   23.0285 O   0  0  0  0  0  0  0  0  0  0  0  0
  2  4  1  0
  2  1  1  6
  3  2  1  0
  4  6  1  0
  4  5  1  1
  6  7  2  0
  8  9  1  0
  8  6  1  0
  9 10  1  6
 11 10  1  0
 12 11  1  0
 12 13  2  0
 14 15  2  0
 14  9  1  0
 16 12  1  0
 17 14  1  0
 18 17  1  0
 18 24  1  0
 18 19  1  1
 20 19  1  0
 21 20  1  0
 22 21  1  0
 23 22  1  0
 24 25  1  0
 26 24  2  0
M  END
$$$$
