VEK.pdb
     RDKit          3D

 26 25  0  0  1  0  0  0  0  0999 V2000
    7.9005  -12.6295   18.7027 C   0  0  0  0  0  0  0  0  0  0  0  0
    8.2693  -13.5063   19.8785 C   0  0  1  0  0  0  0  0  0  0  0  0
    7.2672  -13.3076   20.9637 C   0  0  0  0  0  0  0  0  0  0  0  0
    8.4358  -14.9351   19.4410 C   0  0  2  0  0  0  0  0  0  0  0  0
    7.2033  -15.3766   18.8315 N   0  0  0  0  0  0  0  0  0  0  0  0
    8.7416  -15.8450   20.5816 C   0  0  0  0  0  0  0  0  0  0  0  0
    7.8008  -16.3135   21.2463 O   0  0  0  0  0  0  0  0  0  0  0  0
   10.0747  -16.1936   20.9327 N   0  0  0  0  0  0  0  0  0  0  0  0
   10.5253  -16.9292   22.0568 C   0  0  1  0  0  0  0  0  0  0  0  0
   11.8310  -17.6080   21.9361 C   0  0  0  0  0  0  0  0  0  0  0  0
   11.8392  -18.5271   20.7410 C   0  0  0  0  0  0  0  0  0  0  0  0
   13.1968  -19.0325   20.4667 C   0  0  0  0  0  0  0  0  0  0  0  0
   13.5168  -19.4251   19.3243 O   0  0  0  0  0  0  0  0  0  0  0  0
   10.3368  -16.1817   23.3425 C   0  0  0  0  0  0  0  0  0  0  0  0
   10.8571  -15.0528   23.4864 O   0  0  0  0  0  0  0  0  0  0  0  0
   14.1417  -19.0800   21.4743 O   0  0  0  0  0  0  0  0  0  0  0  0
    9.5976  -16.6824   24.4137 N   0  0  0  0  0  0  0  0  0  0  0  0
    9.3854  -15.8755   25.6793 C   0  0  1  0  0  0  0  0  0  0  0  0
    8.0859  -15.2038   25.3882 C   0  0  0  0  0  0  0  0  0  0  0  0
    7.4918  -14.2087   26.2593 C   0  0  0  0  0  0  0  0  0  0  0  0
    6.9574  -12.9308   25.7749 C   0  0  0  0  0  0  0  0  0  0  0  0
    6.3972  -12.0141   26.8400 C   0  0  0  0  0  0  0  0  0  0  0  0
    5.8471  -10.8024   26.3140 N   0  0  0  0  0  0  0  0  0  0  0  0
    9.4197  -16.8129   26.8019 C   0  0  0  0  0  0  0  0  0  0  0  0
    9.8846  -16.3131   28.0481 O   0  0  0  0  0  0  0  0  0  0  0  0
    9.0757  -18.0117   26.7557 O   0  0  0  0  0  0  0  0  0  0  0  0
  2  4  1  0
  2  1  1  6
  3  2  1  0
  4  6  1  0
  4  5  1  1
  6  7  2  0
  8  9  1  0
  8  6  1  0
  9 10  1  6
 11 10  1  0
 12 11  1  0
 12 13  2  0
 14 15  2  0
 14  9  1  0
 16 12  1  0
 17 14  1  0
 18 17  1  0
 18 24  1  0
 18 19  1  6
 20 19  1  0
 21 20  1  0
 22 21  1  0
 23 22  1  0
 24 25  1  0
 26 24  2  0
M  END
$$$$
