VEK.pdb
     RDKit          3D

 26 25  0  0  1  0  0  0  0  0999 V2000
    7.3465  -12.4222   19.3214 C   0  0  0  0  0  0  0  0  0  0  0  0
    8.2148  -13.4485   20.0144 C   0  0  1  0  0  0  0  0  0  0  0  0
    7.8370  -13.5091   21.4547 C   0  0  0  0  0  0  0  0  0  0  0  0
    8.1466  -14.7689   19.2985 C   0  0  2  0  0  0  0  0  0  0  0  0
    6.7882  -15.2555   19.3584 N   0  0  0  0  0  0  0  0  0  0  0  0
    9.0349  -15.7948   19.9157 C   0  0  0  0  0  0  0  0  0  0  0  0
    8.5872  -16.5042   20.8335 O   0  0  0  0  0  0  0  0  0  0  0  0
   10.3773  -15.9868   19.4877 N   0  0  0  0  0  0  0  0  0  0  0  0
   11.3322  -16.9138   19.9740 C   0  0  1  0  0  0  0  0  0  0  0  0
   12.3118  -17.4410   19.0032 C   0  0  0  0  0  0  0  0  0  0  0  0
   13.2343  -18.4302   19.6692 C   0  0  0  0  0  0  0  0  0  0  0  0
   14.2346  -18.9496   18.7187 C   0  0  0  0  0  0  0  0  0  0  0  0
   15.4125  -19.1610   19.0782 O   0  0  0  0  0  0  0  0  0  0  0  0
   11.9296  -16.4869   21.2810 C   0  0  0  0  0  0  0  0  0  0  0  0
   12.5117  -15.3825   21.3663 O   0  0  0  0  0  0  0  0  0  0  0  0
   13.8829  -19.2121   17.4080 O   0  0  0  0  0  0  0  0  0  0  0  0
   11.8733  -17.2668   22.4356 N   0  0  0  0  0  0  0  0  0  0  0  0
   12.5203  -16.8176   23.7308 C   0  0  1  0  0  0  0  0  0  0  0  0
   11.9035  -17.7569   24.7115 C   0  0  0  0  0  0  0  0  0  0  0  0
   12.3233  -17.8504   26.0962 C   0  0  0  0  0  0  0  0  0  0  0  0
   11.7166  -18.7750   27.0606 C   0  0  0  0  0  0  0  0  0  0  0  0
   12.3159  -18.7523   28.4494 C   0  0  0  0  0  0  0  0  0  0  0  0
   11.6169  -19.5813   29.3830 N   0  0  0  0  0  0  0  0  0  0  0  0
   13.9688  -16.8993   23.5428 C   0  0  0  0  0  0  0  0  0  0  0  0
   14.7480  -15.8224   24.0448 O   0  0  0  0  0  0  0  0  0  0  0  0
   14.5748  -17.8336   22.9794 O   0  0  0  0  0  0  0  0  0  0  0  0
  2  4  1  0
  2  1  1  6
  3  2  1  0
  4  6  1  0
  4  5  1  1
  6  7  2  0
  8  9  1  0
  8  6  1  0
  9 10  1  6
 11 10  1  0
 12 11  1  0
 12 13  2  0
 14 15  2  0
 14  9  1  0
 16 12  1  0
 17 14  1  0
 18 17  1  0
 18 24  1  0
 18 19  1  1
 20 19  1  0
 21 20  1  0
 22 21  1  0
 23 22  1  0
 24 25  1  0
 26 24  2  0
M  END
$$$$
