MLI.pdb
     RDKit          3D

 25 24  0  0  1  0  0  0  0  0999 V2000
   25.3927  -16.9472  -17.7731 C   0  0  0  0  0  0  0  0  0  0  0  0
   27.1042  -16.4292  -17.5249 S   0  0  0  0  0  0  0  0  0  0  0  0
   28.1913  -17.8176  -17.1682 C   0  0  0  0  0  0  0  0  0  0  0  0
   27.6129  -18.7053  -16.0605 C   0  0  0  0  0  0  0  0  0  0  0  0
   28.6716  -19.7140  -15.6645 C   0  0  2  0  0  0  0  0  0  0  0  0
   28.7932  -20.6557  -16.7617 N   0  0  0  0  0  0  0  0  0  0  0  0
   28.2998  -20.4638  -14.4511 C   0  0  0  0  0  0  0  0  0  0  0  0
   27.3859  -21.3288  -14.4781 O   0  0  0  0  0  0  0  0  0  0  0  0
   31.0406  -22.8800  -11.5784 C   0  0  0  0  0  0  0  0  0  0  0  0
   30.9323  -21.3995  -11.3168 C   0  0  2  0  0  0  0  0  0  0  0  0
   31.8791  -21.1117  -10.1360 C   0  0  0  0  0  0  0  0  0  0  0  0
   29.5956  -20.8882  -10.9581 C   0  0  0  0  0  0  0  0  0  0  0  0
   28.5163  -20.9178  -11.9798 C   0  0  2  0  0  0  0  0  0  0  0  0
   28.9382  -20.2640  -13.1885 N   0  0  0  0  0  0  0  0  0  0  0  0
   27.2162  -20.4236  -11.4859 C   0  0  0  0  0  0  0  0  0  0  0  0
   26.9926  -19.1877  -11.4264 O   0  0  0  0  0  0  0  0  0  0  0  0
   22.7201  -21.6148  -13.7544 C   0  0  0  0  0  0  0  0  0  0  0  0
   23.8288  -21.0086  -12.9474 C   0  0  0  0  0  0  0  0  0  0  0  0
   23.7566  -21.2184  -11.4829 C   0  0  2  0  0  0  0  0  0  0  0  0
   22.4086  -20.6527  -11.0183 C   0  0  0  0  0  0  0  0  0  0  0  0
   24.8822  -20.7275  -10.6567 C   0  0  2  0  0  0  0  0  0  0  0  0
   26.1687  -21.2802  -11.0599 N   0  0  0  0  0  0  0  0  0  0  0  0
   24.7449  -20.9081   -9.2011 C   0  0  0  0  0  0  0  0  0  0  0  0
   25.3647  -21.8421   -8.6383 O   0  0  0  0  0  0  0  0  0  0  0  0
   23.9619  -20.0991   -8.3918 O   0  0  0  0  0  0  0  0  0  0  0  0
  2  1  1  0
  2  3  1  0
  4  3  1  0
  4  5  1  0
  5  7  1  0
  5  6  1  6
  7  8  2  0
 10  9  1  1
 10 12  1  0
 11 10  1  0
 13 12  1  1
 13 14  1  0
 14  7  1  0
 15 13  1  0
 16 15  2  0
 18 17  1  0
 18 19  1  0
 19 21  1  0
 19 20  1  1
 21 23  1  0
 21 22  1  6
 22 15  1  0
 23 25  1  0
 24 23  2  0
M  END
$$$$
