MLI.pdb
     RDKit          3D

 25 24  0  0  1  0  0  0  0  0999 V2000
   10.2147  -24.5371    5.0271 C   0  0  0  0  0  0  0  0  0  0  0  0
    9.8998  -25.0745    3.3326 S   0  0  0  0  0  0  0  0  0  0  0  0
   11.3872  -25.0445    2.3208 C   0  0  0  0  0  0  0  0  0  0  0  0
   12.5822  -25.6410    3.0729 C   0  0  0  0  0  0  0  0  0  0  0  0
   13.7975  -25.5509    2.1728 C   0  0  2  0  0  0  0  0  0  0  0  0
   13.6385  -26.5592    1.1416 N   0  0  0  0  0  0  0  0  0  0  0  0
   15.0500  -25.8267    2.8994 C   0  0  0  0  0  0  0  0  0  0  0  0
   15.3001  -26.9760    3.3473 O   0  0  0  0  0  0  0  0  0  0  0  0
   20.9629  -24.8192    2.6867 C   0  0  0  0  0  0  0  0  0  0  0  0
   19.7866  -25.1579    3.5663 C   0  0  2  0  0  0  0  0  0  0  0  0
   19.9060  -26.6646    3.8650 C   0  0  0  0  0  0  0  0  0  0  0  0
   18.4463  -24.9154    2.9992 C   0  0  0  0  0  0  0  0  0  0  0  0
   17.2548  -25.0832    3.8721 C   0  0  2  0  0  0  0  0  0  0  0  0
   16.0444  -24.8291    3.1396 N   0  0  0  0  0  0  0  0  0  0  0  0
   17.3304  -24.3218    5.1342 C   0  0  0  0  0  0  0  0  0  0  0  0
   17.2542  -23.0668    5.1192 O   0  0  0  0  0  0  0  0  0  0  0  0
   13.9773  -24.9164    9.1105 C   0  0  0  0  0  0  0  0  0  0  0  0
   15.0064  -24.4044    8.1477 C   0  0  0  0  0  0  0  0  0  0  0  0
   16.4187  -24.5408    8.5726 C   0  0  2  0  0  0  0  0  0  0  0  0
   16.5486  -23.8239    9.9224 C   0  0  0  0  0  0  0  0  0  0  0  0
   17.4720  -24.1280    7.6181 C   0  0  2  0  0  0  0  0  0  0  0  0
   17.4886  -24.9337    6.4042 N   0  0  0  0  0  0  0  0  0  0  0  0
   18.8449  -24.0769    8.1499 C   0  0  0  0  0  0  0  0  0  0  0  0
   19.5505  -25.1136    8.1254 O   0  0  0  0  0  0  0  0  0  0  0  0
   19.4245  -22.9374    8.6866 O   0  0  0  0  0  0  0  0  0  0  0  0
  2  1  1  0
  2  3  1  0
  4  3  1  0
  4  5  1  0
  5  7  1  0
  5  6  1  6
  7  8  2  0
 10  9  1  6
 10 12  1  0
 11 10  1  0
 13 12  1  6
 13 14  1  0
 14  7  1  0
 15 13  1  0
 16 15  2  0
 18 17  1  0
 18 19  1  0
 19 21  1  0
 19 20  1  1
 21 23  1  0
 21 22  1  6
 22 15  1  0
 23 25  1  0
 24 23  2  0
M  END
$$$$
