MLI.pdb
     RDKit          3D

 25 24  0  0  1  0  0  0  0  0999 V2000
   26.8284  -18.7119   -4.0039 C   0  0  0  0  0  0  0  0  0  0  0  0
   28.4309  -19.4686   -4.3487 S   0  0  0  0  0  0  0  0  0  0  0  0
   28.4537  -20.3247   -5.9310 C   0  0  0  0  0  0  0  0  0  0  0  0
   27.2609  -19.9139   -6.8016 C   0  0  0  0  0  0  0  0  0  0  0  0
   27.2918  -20.7477   -8.0662 C   0  0  2  0  0  0  0  0  0  0  0  0
   28.6736  -20.8033   -8.5051 N   0  0  0  0  0  0  0  0  0  0  0  0
   26.4874  -20.1496   -9.1470 C   0  0  0  0  0  0  0  0  0  0  0  0
   26.6053  -18.9327   -9.4455 O   0  0  0  0  0  0  0  0  0  0  0  0
   27.6798  -21.7499  -13.4919 C   0  0  0  0  0  0  0  0  0  0  0  0
   26.6082  -21.7599  -12.4319 C   0  0  2  0  0  0  0  0  0  0  0  0
   25.6351  -22.8862  -12.8296 C   0  0  0  0  0  0  0  0  0  0  0  0
   25.8235  -20.5205  -12.2743 C   0  0  0  0  0  0  0  0  0  0  0  0
   24.9156  -20.3878  -11.1048 C   0  0  2  0  0  0  0  0  0  0  0  0
   25.5393  -20.8952   -9.9132 N   0  0  0  0  0  0  0  0  0  0  0  0
   23.5698  -20.9501  -11.3300 C   0  0  0  0  0  0  0  0  0  0  0  0
   23.1881  -21.9540  -10.6761 O   0  0  0  0  0  0  0  0  0  0  0  0
   19.7598  -17.2531  -11.3626 C   0  0  0  0  0  0  0  0  0  0  0  0
   20.5656  -18.5064  -11.1959 C   0  0  0  0  0  0  0  0  0  0  0  0
   20.3553  -19.5554  -12.2201 C   0  0  2  0  0  0  0  0  0  0  0  0
   18.8688  -19.9308  -12.1739 C   0  0  0  0  0  0  0  0  0  0  0  0
   21.2329  -20.7467  -12.1816 C   0  0  2  0  0  0  0  0  0  0  0  0
   22.6490  -20.4144  -12.2668 N   0  0  0  0  0  0  0  0  0  0  0  0
   20.9497  -21.7930  -13.1792 C   0  0  0  0  0  0  0  0  0  0  0  0
   21.5475  -21.7667  -14.2815 O   0  0  0  0  0  0  0  0  0  0  0  0
   20.0492  -22.8283  -12.9798 O   0  0  0  0  0  0  0  0  0  0  0  0
  2  1  1  0
  2  3  1  0
  4  3  1  0
  4  5  1  0
  5  7  1  0
  5  6  1  6
  7  8  2  0
 10  9  1  6
 10 12  1  0
 11 10  1  0
 13 12  1  6
 13 14  1  0
 14  7  1  0
 15 13  1  0
 16 15  2  0
 18 17  1  0
 18 19  1  0
 19 21  1  0
 19 20  1  1
 21 23  1  0
 21 22  1  6
 22 15  1  0
 23 25  1  0
 24 23  2  0
M  END
$$$$
