MLI.pdb
     RDKit          3D

 25 24  0  0  1  0  0  0  0  0999 V2000
   19.1386  -21.2166  -10.7898 C   0  0  0  0  0  0  0  0  0  0  0  0
   19.5450  -19.8063  -11.8412 S   0  0  0  0  0  0  0  0  0  0  0  0
   21.2159  -19.9074  -12.5008 C   0  0  0  0  0  0  0  0  0  0  0  0
   22.1429  -20.6723  -11.5495 C   0  0  0  0  0  0  0  0  0  0  0  0
   23.5338  -20.6769  -12.1500 C   0  0  2  0  0  0  0  0  0  0  0  0
   23.4987  -21.5647  -13.2971 N   0  0  0  0  0  0  0  0  0  0  0  0
   24.5462  -21.1823  -11.2054 C   0  0  0  0  0  0  0  0  0  0  0  0
   24.4355  -22.3230  -10.6853 O   0  0  0  0  0  0  0  0  0  0  0  0
   27.5758  -22.1336  -12.7672 C   0  0  0  0  0  0  0  0  0  0  0  0
   28.1054  -20.9480  -12.0016 C   0  0  2  0  0  0  0  0  0  0  0  0
   29.5958  -20.8384  -12.3759 C   0  0  0  0  0  0  0  0  0  0  0  0
   28.0136  -21.0171  -10.5307 C   0  0  0  0  0  0  0  0  0  0  0  0
   26.6783  -20.9047   -9.8873 C   0  0  2  0  0  0  0  0  0  0  0  0
   25.6979  -20.4273  -10.8239 N   0  0  0  0  0  0  0  0  0  0  0  0
   26.6881  -20.1357   -8.6276 C   0  0  0  0  0  0  0  0  0  0  0  0
   25.9489  -19.1267   -8.4988 O   0  0  0  0  0  0  0  0  0  0  0  0
   27.6954  -20.4960   -2.5450 C   0  0  0  0  0  0  0  0  0  0  0  0
   27.5073  -19.6792   -3.7882 C   0  0  0  0  0  0  0  0  0  0  0  0
   27.6205  -20.4117   -5.0705 C   0  0  2  0  0  0  0  0  0  0  0  0
   28.9218  -21.2213   -5.0071 C   0  0  0  0  0  0  0  0  0  0  0  0
   27.5080  -19.6338   -6.3247 C   0  0  2  0  0  0  0  0  0  0  0  0
   27.5039  -20.4717   -7.5167 N   0  0  0  0  0  0  0  0  0  0  0  0
   28.5079  -18.5696   -6.5193 C   0  0  0  0  0  0  0  0  0  0  0  0
   28.4544  -17.5403   -5.8044 O   0  0  0  0  0  0  0  0  0  0  0  0
   29.5271  -18.6281   -7.4575 O   0  0  0  0  0  0  0  0  0  0  0  0
  2  1  1  0
  2  3  1  0
  4  3  1  0
  4  5  1  0
  5  7  1  0
  5  6  1  6
  7  8  2  0
 10  9  1  6
 10 12  1  0
 11 10  1  0
 13 12  1  6
 13 14  1  0
 14  7  1  0
 15 13  1  0
 16 15  2  0
 18 17  1  0
 18 19  1  0
 19 21  1  0
 19 20  1  1
 21 23  1  0
 21 22  1  6
 22 15  1  0
 23 25  1  0
 24 23  2  0
M  END
$$$$
