MLI.pdb
     RDKit          3D

 25 24  0  0  1  0  0  0  0  0999 V2000
   19.5324  -20.1709   -9.6132 C   0  0  0  0  0  0  0  0  0  0  0  0
   19.3390  -19.5080  -11.2812 S   0  0  0  0  0  0  0  0  0  0  0  0
   20.8143  -19.7443  -12.2836 C   0  0  0  0  0  0  0  0  0  0  0  0
   21.9267  -20.4288  -11.4814 C   0  0  0  0  0  0  0  0  0  0  0  0
   23.1397  -20.5638  -12.3790 C   0  0  2  0  0  0  0  0  0  0  0  0
   22.8393  -21.6027  -13.3462 N   0  0  0  0  0  0  0  0  0  0  0  0
   24.3445  -20.9642  -11.6300 C   0  0  0  0  0  0  0  0  0  0  0  0
   24.5337  -22.1638  -11.2996 O   0  0  0  0  0  0  0  0  0  0  0  0
   28.3125  -21.8545  -12.7961 C   0  0  0  0  0  0  0  0  0  0  0  0
   28.0191  -20.3880  -12.6074 C   0  0  2  0  0  0  0  0  0  0  0  0
   29.2639  -19.6412  -13.1235 C   0  0  0  0  0  0  0  0  0  0  0  0
   27.7637  -19.9380  -11.2257 C   0  0  0  0  0  0  0  0  0  0  0  0
   26.5459  -20.4232  -10.5248 C   0  0  2  0  0  0  0  0  0  0  0  0
   25.3582  -20.0371  -11.2365 N   0  0  0  0  0  0  0  0  0  0  0  0
   26.4990  -20.0614   -9.0947 C   0  0  0  0  0  0  0  0  0  0  0  0
   25.6576  -19.2223   -8.6837 O   0  0  0  0  0  0  0  0  0  0  0  0
   27.2750  -21.1824   -3.5010 C   0  0  0  0  0  0  0  0  0  0  0  0
   28.2483  -20.4981   -4.4133 C   0  0  0  0  0  0  0  0  0  0  0  0
   28.2022  -20.9058   -5.8365 C   0  0  2  0  0  0  0  0  0  0  0  0
   29.6555  -21.0558   -6.3037 C   0  0  0  0  0  0  0  0  0  0  0  0
   27.3993  -20.0815   -6.7674 C   0  0  2  0  0  0  0  0  0  0  0  0
   27.3700  -20.6166   -8.1223 N   0  0  0  0  0  0  0  0  0  0  0  0
   27.7617  -18.6558   -6.8483 C   0  0  0  0  0  0  0  0  0  0  0  0
   27.3686  -17.8718   -5.9517 O   0  0  0  0  0  0  0  0  0  0  0  0
   28.5249  -18.1085   -7.8682 O   0  0  0  0  0  0  0  0  0  0  0  0
  2  1  1  0
  2  3  1  0
  4  3  1  0
  4  5  1  0
  5  7  1  0
  5  6  1  6
  7  8  2  0
 10  9  1  1
 10 12  1  0
 11 10  1  0
 13 12  1  6
 13 14  1  0
 14  7  1  0
 15 13  1  0
 16 15  2  0
 18 17  1  0
 18 19  1  0
 19 21  1  0
 19 20  1  6
 21 23  1  0
 21 22  1  6
 22 15  1  0
 23 25  1  0
 24 23  2  0
M  END
$$$$
