MLI.pdb
     RDKit          3D

 25 24  0  0  1  0  0  0  0  0999 V2000
   21.2263  -21.2191  -11.8791 C   0  0  0  0  0  0  0  0  0  0  0  0
   21.9086  -19.6244  -12.3797 S   0  0  0  0  0  0  0  0  0  0  0  0
   23.7061  -19.5991  -12.3061 C   0  0  0  0  0  0  0  0  0  0  0  0
   24.2229  -20.3756  -11.0898 C   0  0  0  0  0  0  0  0  0  0  0  0
   25.7329  -20.2556  -11.0615 C   0  0  2  0  0  0  0  0  0  0  0  0
   26.2500  -21.1557  -12.0752 N   0  0  0  0  0  0  0  0  0  0  0  0
   26.2984  -20.6525   -9.7594 C   0  0  0  0  0  0  0  0  0  0  0  0
   26.3511  -21.8625   -9.4171 O   0  0  0  0  0  0  0  0  0  0  0  0
   29.6942  -18.0143   -5.2396 C   0  0  0  0  0  0  0  0  0  0  0  0
   28.9846  -19.2356   -5.7658 C   0  0  2  0  0  0  0  0  0  0  0  0
   30.0289  -20.3681   -5.7478 C   0  0  0  0  0  0  0  0  0  0  0  0
   28.4409  -19.1451   -7.1344 C   0  0  0  0  0  0  0  0  0  0  0  0
   27.3698  -20.0898   -7.5468 C   0  0  2  0  0  0  0  0  0  0  0  0
   26.8144  -19.7103   -8.8171 N   0  0  0  0  0  0  0  0  0  0  0  0
   26.3386  -20.3073   -6.5135 C   0  0  0  0  0  0  0  0  0  0  0  0
   25.3547  -19.5288   -6.4307 O   0  0  0  0  0  0  0  0  0  0  0  0
   24.2679  -25.1905   -5.3521 C   0  0  0  0  0  0  0  0  0  0  0  0
   24.3800  -23.7056   -5.5265 C   0  0  0  0  0  0  0  0  0  0  0  0
   24.9523  -22.9582   -4.3830 C   0  0  2  0  0  0  0  0  0  0  0  0
   23.9817  -23.1311   -3.2079 C   0  0  0  0  0  0  0  0  0  0  0  0
   25.3221  -21.5411   -4.5973 C   0  0  2  0  0  0  0  0  0  0  0  0
   26.3871  -21.3719   -5.5772 N   0  0  0  0  0  0  0  0  0  0  0  0
   25.6865  -20.7768   -3.3918 C   0  0  0  0  0  0  0  0  0  0  0  0
   26.8613  -20.8414   -2.9572 O   0  0  0  0  0  0  0  0  0  0  0  0
   24.8023  -19.9726   -2.6893 O   0  0  0  0  0  0  0  0  0  0  0  0
  2  1  1  0
  2  3  1  0
  4  3  1  0
  4  5  1  0
  5  7  1  0
  5  6  1  6
  7  8  2  0
 10  9  1  6
 10 12  1  0
 11 10  1  0
 13 12  1  1
 13 14  1  0
 14  7  1  0
 15 13  1  0
 16 15  2  0
 18 17  1  0
 18 19  1  0
 19 21  1  0
 19 20  1  1
 21 23  1  0
 21 22  1  6
 22 15  1  0
 23 25  1  0
 24 23  2  0
M  END
$$$$
