MLI.pdb
     RDKit          3D

 25 24  0  0  1  0  0  0  0  0999 V2000
   19.1148  -20.4682  -13.1895 C   0  0  0  0  0  0  0  0  0  0  0  0
   18.9438  -19.0704  -14.3192 S   0  0  0  0  0  0  0  0  0  0  0  0
   20.4755  -18.7073  -15.1905 C   0  0  0  0  0  0  0  0  0  0  0  0
   21.5999  -19.6533  -14.7544 C   0  0  0  0  0  0  0  0  0  0  0  0
   22.8740  -19.2236  -15.4525 C   0  0  2  0  0  0  0  0  0  0  0  0
   22.6643  -19.4146  -16.8754 N   0  0  0  0  0  0  0  0  0  0  0  0
   24.0340  -20.0359  -15.0432 C   0  0  0  0  0  0  0  0  0  0  0  0
   24.0868  -21.2667  -15.3006 O   0  0  0  0  0  0  0  0  0  0  0  0
   28.5033  -20.9460  -16.1109 C   0  0  0  0  0  0  0  0  0  0  0  0
   28.1133  -19.5932  -15.5723 C   0  0  2  0  0  0  0  0  0  0  0  0
   29.4044  -18.7526  -15.5742 C   0  0  0  0  0  0  0  0  0  0  0  0
   27.5565  -19.5616  -14.2063 C   0  0  0  0  0  0  0  0  0  0  0  0
   26.2844  -20.2798  -13.9314 C   0  0  2  0  0  0  0  0  0  0  0  0
   25.1538  -19.4925  -14.3414 N   0  0  0  0  0  0  0  0  0  0  0  0
   26.1667  -20.7713  -12.5447 C   0  0  0  0  0  0  0  0  0  0  0  0
   26.9085  -21.7027  -12.1405 O   0  0  0  0  0  0  0  0  0  0  0  0
   27.2905  -19.0094   -8.0336 C   0  0  0  0  0  0  0  0  0  0  0  0
   26.8790  -19.9477   -9.1282 C   0  0  0  0  0  0  0  0  0  0  0  0
   25.4437  -20.3110   -9.1675 C   0  0  2  0  0  0  0  0  0  0  0  0
   25.1560  -21.1258   -7.9002 C   0  0  0  0  0  0  0  0  0  0  0  0
   24.9307  -20.9756  -10.3865 C   0  0  2  0  0  0  0  0  0  0  0  0
   25.2410  -20.2442  -11.6079 N   0  0  0  0  0  0  0  0  0  0  0  0
   23.4914  -21.2897  -10.3967 C   0  0  0  0  0  0  0  0  0  0  0  0
   22.7014  -20.5242  -10.9994 O   0  0  0  0  0  0  0  0  0  0  0  0
   22.9370  -22.3973   -9.7737 O   0  0  0  0  0  0  0  0  0  0  0  0
  2  1  1  0
  2  3  1  0
  4  3  1  0
  4  5  1  0
  5  7  1  0
  5  6  1  6
  7  8  2  0
 10  9  1  1
 10 12  1  0
 11 10  1  0
 13 12  1  1
 13 14  1  0
 14  7  1  0
 15 13  1  0
 16 15  2  0
 18 17  1  0
 18 19  1  0
 19 21  1  0
 19 20  1  1
 21 23  1  0
 21 22  1  6
 22 15  1  0
 23 25  1  0
 24 23  2  0
M  END
$$$$
