MLI.pdb
     RDKit          3D

 25 24  0  0  1  0  0  0  0  0999 V2000
   19.0985  -17.5613  -14.2371 C   0  0  0  0  0  0  0  0  0  0  0  0
   19.7746  -16.4787  -15.5139 S   0  0  0  0  0  0  0  0  0  0  0  0
   21.0502  -17.2898  -16.4895 C   0  0  0  0  0  0  0  0  0  0  0  0
   21.9043  -18.2212  -15.6221 C   0  0  0  0  0  0  0  0  0  0  0  0
   22.9714  -18.8380  -16.5032 C   0  0  2  0  0  0  0  0  0  0  0  0
   22.3125  -19.8184  -17.3457 N   0  0  0  0  0  0  0  0  0  0  0  0
   24.0111  -19.5276  -15.7182 C   0  0  0  0  0  0  0  0  0  0  0  0
   23.7838  -20.6416  -15.1783 O   0  0  0  0  0  0  0  0  0  0  0  0
   28.1522  -21.2604  -16.8394 C   0  0  0  0  0  0  0  0  0  0  0  0
   28.0758  -19.7706  -16.6233 C   0  0  2  0  0  0  0  0  0  0  0  0
   29.4886  -19.2310  -16.9174 C   0  0  0  0  0  0  0  0  0  0  0  0
   27.6922  -19.3180  -15.2725 C   0  0  0  0  0  0  0  0  0  0  0  0
   26.3394  -19.6565  -14.7577 C   0  0  2  0  0  0  0  0  0  0  0  0
   25.3202  -18.9897  -15.5211 N   0  0  0  0  0  0  0  0  0  0  0  0
   26.1890  -19.4548  -13.3034 C   0  0  0  0  0  0  0  0  0  0  0  0
   26.1327  -18.2911  -12.8305 O   0  0  0  0  0  0  0  0  0  0  0  0
   22.9250  -20.5970   -8.5453 C   0  0  0  0  0  0  0  0  0  0  0  0
   24.3121  -20.2761   -9.0153 C   0  0  0  0  0  0  0  0  0  0  0  0
   24.5957  -20.5549  -10.4420 C   0  0  2  0  0  0  0  0  0  0  0  0
   24.1944  -22.0129  -10.6988 C   0  0  0  0  0  0  0  0  0  0  0  0
   25.9523  -20.2518  -10.9505 C   0  0  2  0  0  0  0  0  0  0  0  0
   26.1012  -20.5232  -12.3743 N   0  0  0  0  0  0  0  0  0  0  0  0
   27.0697  -20.9015  -10.2435 C   0  0  0  0  0  0  0  0  0  0  0  0
   27.6351  -21.8902  -10.7688 O   0  0  0  0  0  0  0  0  0  0  0  0
   27.5511  -20.4866   -9.0113 O   0  0  0  0  0  0  0  0  0  0  0  0
  2  1  1  0
  2  3  1  0
  4  3  1  0
  4  5  1  0
  5  7  1  0
  5  6  1  6
  7  8  2  0
 10  9  1  1
 10 12  1  0
 11 10  1  0
 13 12  1  6
 13 14  1  0
 14  7  1  0
 15 13  1  0
 16 15  2  0
 18 17  1  0
 18 19  1  0
 19 21  1  0
 19 20  1  1
 21 23  1  0
 21 22  1  6
 22 15  1  0
 23 25  1  0
 24 23  2  0
M  END
$$$$
