MLI.pdb
     RDKit          3D

 25 24  0  0  1  0  0  0  0  0999 V2000
   18.7035  -21.7954  -12.6457 C   0  0  0  0  0  0  0  0  0  0  0  0
   18.6636  -21.9975  -14.4393 S   0  0  0  0  0  0  0  0  0  0  0  0
   20.3004  -21.8716  -15.1756 C   0  0  0  0  0  0  0  0  0  0  0  0
   21.3904  -22.2821  -14.1793 C   0  0  0  0  0  0  0  0  0  0  0  0
   22.2578  -21.0706  -13.9049 C   0  0  2  0  0  0  0  0  0  0  0  0
   22.7886  -20.6299  -15.1813 N   0  0  0  0  0  0  0  0  0  0  0  0
   23.3915  -21.3872  -13.0175 C   0  0  0  0  0  0  0  0  0  0  0  0
   23.2186  -22.0284  -11.9484 O   0  0  0  0  0  0  0  0  0  0  0  0
   28.5400  -20.2474  -15.0551 C   0  0  0  0  0  0  0  0  0  0  0  0
   27.2695  -20.1919  -14.2458 C   0  0  2  0  0  0  0  0  0  0  0  0
   27.2413  -18.7914  -13.6045 C   0  0  0  0  0  0  0  0  0  0  0  0
   27.1313  -21.1861  -13.1644 C   0  0  0  0  0  0  0  0  0  0  0  0
   25.8417  -21.2762  -12.4308 C   0  0  2  0  0  0  0  0  0  0  0  0
   24.7354  -20.9960  -13.3048 N   0  0  0  0  0  0  0  0  0  0  0  0
   25.8066  -20.4783  -11.1897 C   0  0  0  0  0  0  0  0  0  0  0  0
   25.3792  -19.2960  -11.2118 O   0  0  0  0  0  0  0  0  0  0  0  0
   23.1395  -21.6989   -6.8522 C   0  0  0  0  0  0  0  0  0  0  0  0
   23.8891  -20.9333   -7.9009 C   0  0  0  0  0  0  0  0  0  0  0  0
   25.3404  -20.7566   -7.6638 C   0  0  2  0  0  0  0  0  0  0  0  0
   25.4860  -20.0085   -6.3326 C   0  0  0  0  0  0  0  0  0  0  0  0
   26.1482  -20.1414   -8.7407 C   0  0  2  0  0  0  0  0  0  0  0  0
   26.2381  -20.9746   -9.9327 N   0  0  0  0  0  0  0  0  0  0  0  0
   27.5125  -19.7262   -8.3711 C   0  0  0  0  0  0  0  0  0  0  0  0
   27.6735  -18.6802   -7.6979 O   0  0  0  0  0  0  0  0  0  0  0  0
   28.6561  -20.4270   -8.7223 O   0  0  0  0  0  0  0  0  0  0  0  0
  2  1  1  0
  2  3  1  0
  4  3  1  0
  4  5  1  0
  5  7  1  0
  5  6  1  6
  7  8  2  0
 10  9  1  1
 10 12  1  0
 11 10  1  0
 13 12  1  6
 13 14  1  0
 14  7  1  0
 15 13  1  0
 16 15  2  0
 18 17  1  0
 18 19  1  0
 19 21  1  0
 19 20  1  1
 21 23  1  0
 21 22  1  6
 22 15  1  0
 23 25  1  0
 24 23  2  0
M  END
$$$$
