MLI.pdb
     RDKit          3D

 25 24  0  0  1  0  0  0  0  0999 V2000
   26.7053  -15.3318  -16.8680 C   0  0  0  0  0  0  0  0  0  0  0  0
   27.5821  -16.6874  -17.6761 S   0  0  0  0  0  0  0  0  0  0  0  0
   27.8160  -18.0959  -16.5814 C   0  0  0  0  0  0  0  0  0  0  0  0
   27.2942  -17.7961  -15.1717 C   0  0  0  0  0  0  0  0  0  0  0  0
   27.6126  -18.9854  -14.2889 C   0  0  2  0  0  0  0  0  0  0  0  0
   27.3005  -20.1782  -15.0538 N   0  0  0  0  0  0  0  0  0  0  0  0
   26.7998  -18.9993  -13.0593 C   0  0  0  0  0  0  0  0  0  0  0  0
   26.8575  -18.0515  -12.2332 O   0  0  0  0  0  0  0  0  0  0  0  0
   22.6038  -19.2160  -13.5060 C   0  0  0  0  0  0  0  0  0  0  0  0
   23.1513  -20.5817  -13.1785 C   0  0  2  0  0  0  0  0  0  0  0  0
   21.9515  -21.5448  -13.2575 C   0  0  0  0  0  0  0  0  0  0  0  0
   23.7726  -20.7430  -11.8500 C   0  0  0  0  0  0  0  0  0  0  0  0
   25.0597  -20.0543  -11.5695 C   0  0  2  0  0  0  0  0  0  0  0  0
   25.9098  -20.0672  -12.7286 N   0  0  0  0  0  0  0  0  0  0  0  0
   25.7418  -20.5405  -10.3543 C   0  0  0  0  0  0  0  0  0  0  0  0
   26.5244  -21.5225  -10.4204 O   0  0  0  0  0  0  0  0  0  0  0  0
   28.7052  -18.0791   -6.6499 C   0  0  0  0  0  0  0  0  0  0  0  0
   28.0351  -19.0820   -7.5404 C   0  0  0  0  0  0  0  0  0  0  0  0
   26.8286  -19.7391   -6.9868 C   0  0  2  0  0  0  0  0  0  0  0  0
   27.2602  -20.4480   -5.6969 C   0  0  0  0  0  0  0  0  0  0  0  0
   26.0534  -20.6291   -7.8800 C   0  0  2  0  0  0  0  0  0  0  0  0
   25.5658  -19.9531   -9.0751 N   0  0  0  0  0  0  0  0  0  0  0  0
   24.9191  -21.3384   -7.2629 C   0  0  0  0  0  0  0  0  0  0  0  0
   23.7555  -20.9052   -7.4410 O   0  0  0  0  0  0  0  0  0  0  0  0
   25.0509  -22.4769   -6.4828 O   0  0  0  0  0  0  0  0  0  0  0  0
  2  1  1  0
  2  3  1  0
  4  3  1  0
  4  5  1  0
  5  7  1  0
  5  6  1  6
  7  8  2  0
 10  9  1  1
 10 12  1  0
 11 10  1  0
 13 12  1  6
 13 14  1  0
 14  7  1  0
 15 13  1  0
 16 15  2  0
 18 17  1  0
 18 19  1  0
 19 21  1  0
 19 20  1  1
 21 23  1  0
 21 22  1  6
 22 15  1  0
 23 25  1  0
 24 23  2  0
M  END
$$$$
