MLI.pdb
     RDKit          3D

 25 24  0  0  1  0  0  0  0  0999 V2000
   12.5495  -11.7644  -16.5686 C   0  0  0  0  0  0  0  0  0  0  0  0
   13.5487  -10.5593  -17.4679 S   0  0  0  0  0  0  0  0  0  0  0  0
   15.2891  -10.6480  -17.0207 C   0  0  0  0  0  0  0  0  0  0  0  0
   15.4851  -10.4577  -15.5124 C   0  0  0  0  0  0  0  0  0  0  0  0
   16.9648  -10.5789  -15.2109 C   0  0  2  0  0  0  0  0  0  0  0  0
   17.2723  -11.9957  -15.1529 N   0  0  0  0  0  0  0  0  0  0  0  0
   17.3198   -9.9756  -13.9137 C   0  0  0  0  0  0  0  0  0  0  0  0
   17.1064  -10.5868  -12.8344 O   0  0  0  0  0  0  0  0  0  0  0  0
   21.2754   -9.0592  -12.1250 C   0  0  0  0  0  0  0  0  0  0  0  0
   20.7470   -7.9982  -13.0562 C   0  0  2  0  0  0  0  0  0  0  0  0
   21.8652   -6.9445  -13.1695 C   0  0  0  0  0  0  0  0  0  0  0  0
   19.5146   -7.3046  -12.6357 C   0  0  0  0  0  0  0  0  0  0  0  0
   18.2513   -8.0813  -12.5337 C   0  0  2  0  0  0  0  0  0  0  0  0
   17.9177   -8.6831  -13.7958 N   0  0  0  0  0  0  0  0  0  0  0  0
   17.1305   -7.3196  -11.9491 C   0  0  0  0  0  0  0  0  0  0  0  0
   16.4208   -6.5816  -12.6790 O   0  0  0  0  0  0  0  0  0  0  0  0
   13.1816   -9.1747   -8.8793 C   0  0  0  0  0  0  0  0  0  0  0  0
   14.0723   -8.3959   -9.8002 C   0  0  0  0  0  0  0  0  0  0  0  0
   14.7642   -7.2302   -9.2033 C   0  0  2  0  0  0  0  0  0  0  0  0
   13.6756   -6.3017   -8.6506 C   0  0  0  0  0  0  0  0  0  0  0  0
   15.7449   -6.5036  -10.0407 C   0  0  2  0  0  0  0  0  0  0  0  0
   16.7910   -7.3672  -10.5725 N   0  0  0  0  0  0  0  0  0  0  0  0
   16.3913   -5.3362   -9.4166 C   0  0  0  0  0  0  0  0  0  0  0  0
   17.4531   -5.4974   -8.7686 O   0  0  0  0  0  0  0  0  0  0  0  0
   15.8976   -4.0432   -9.4981 O   0  0  0  0  0  0  0  0  0  0  0  0
  2  1  1  0
  2  3  1  0
  4  3  1  0
  4  5  1  0
  5  7  1  0
  5  6  1  1
  7  8  2  0
 10  9  1  1
 10 12  1  0
 11 10  1  0
 13 12  1  6
 13 14  1  0
 14  7  1  0
 15 13  1  0
 16 15  2  0
 18 17  1  0
 18 19  1  0
 19 21  1  0
 19 20  1  6
 21 23  1  0
 21 22  1  1
 22 15  1  0
 23 25  1  0
 24 23  2  0
M  END
$$$$
