MLI.pdb
     RDKit          3D

 25 24  0  0  1  0  0  0  0  0999 V2000
   19.4937  -17.6220  -12.9480 C   0  0  0  0  0  0  0  0  0  0  0  0
   18.9226  -18.4682  -14.4371 S   0  0  0  0  0  0  0  0  0  0  0  0
   20.1918  -19.5266  -15.1483 C   0  0  0  0  0  0  0  0  0  0  0  0
   21.1704  -20.0176  -14.0757 C   0  0  0  0  0  0  0  0  0  0  0  0
   22.2763  -20.7900  -14.7654 C   0  0  2  0  0  0  0  0  0  0  0  0
   21.7025  -22.0450  -15.2136 N   0  0  0  0  0  0  0  0  0  0  0  0
   23.3952  -21.0927  -13.8548 C   0  0  0  0  0  0  0  0  0  0  0  0
   23.3026  -22.0075  -12.9954 O   0  0  0  0  0  0  0  0  0  0  0  0
   27.5724  -22.3645  -14.9743 C   0  0  0  0  0  0  0  0  0  0  0  0
   27.3568  -20.8738  -14.9155 C   0  0  2  0  0  0  0  0  0  0  0  0
   28.6816  -20.2395  -15.3804 C   0  0  0  0  0  0  0  0  0  0  0  0
   27.0239  -20.3063  -13.5950 C   0  0  0  0  0  0  0  0  0  0  0  0
   25.7162  -20.6460  -12.9751 C   0  0  2  0  0  0  0  0  0  0  0  0
   24.6351  -20.3830  -13.8853 N   0  0  0  0  0  0  0  0  0  0  0  0
   25.5095  -20.0323  -11.6489 C   0  0  0  0  0  0  0  0  0  0  0  0
   24.9927  -18.8897  -11.5562 O   0  0  0  0  0  0  0  0  0  0  0  0
   23.0708  -21.6931   -6.9742 C   0  0  0  0  0  0  0  0  0  0  0  0
   24.2973  -21.5367   -7.8222 C   0  0  0  0  0  0  0  0  0  0  0  0
   24.4776  -20.2155   -8.4669 C   0  0  2  0  0  0  0  0  0  0  0  0
   23.2640  -19.9960   -9.3788 C   0  0  0  0  0  0  0  0  0  0  0  0
   25.7556  -19.9551   -9.1667 C   0  0  2  0  0  0  0  0  0  0  0  0
   25.8679  -20.6681  -10.4325 N   0  0  0  0  0  0  0  0  0  0  0  0
   26.9825  -20.2075   -8.3912 C   0  0  0  0  0  0  0  0  0  0  0  0
   27.7833  -21.0905   -8.7814 O   0  0  0  0  0  0  0  0  0  0  0  0
   27.3217  -19.5212   -7.2352 O   0  0  0  0  0  0  0  0  0  0  0  0
  2  1  1  0
  2  3  1  0
  4  3  1  0
  4  5  1  0
  5  7  1  0
  5  6  1  1
  7  8  2  0
 10  9  1  1
 10 12  1  0
 11 10  1  0
 13 12  1  6
 13 14  1  0
 14  7  1  0
 15 13  1  0
 16 15  2  0
 18 17  1  0
 18 19  1  0
 19 21  1  0
 19 20  1  6
 21 23  1  0
 21 22  1  6
 22 15  1  0
 23 25  1  0
 24 23  2  0
M  END
$$$$
