MLI.pdb
     RDKit          3D

 25 24  0  0  1  0  0  0  0  0999 V2000
   18.9753  -20.4011  -13.5971 C   0  0  0  0  0  0  0  0  0  0  0  0
   19.0343  -18.8895  -14.5825 S   0  0  0  0  0  0  0  0  0  0  0  0
   20.5374  -18.7748  -15.5647 C   0  0  0  0  0  0  0  0  0  0  0  0
   21.6744  -19.5886  -14.9366 C   0  0  0  0  0  0  0  0  0  0  0  0
   22.9301  -19.3480  -15.7493 C   0  0  2  0  0  0  0  0  0  0  0  0
   22.6098  -19.6607  -17.1294 N   0  0  0  0  0  0  0  0  0  0  0  0
   24.0426  -20.2171  -15.3250 C   0  0  0  0  0  0  0  0  0  0  0  0
   24.0088  -21.4588  -15.5272 O   0  0  0  0  0  0  0  0  0  0  0  0
   26.8447  -17.7878  -15.8788 C   0  0  0  0  0  0  0  0  0  0  0  0
   27.7359  -18.5006  -14.8940 C   0  0  2  0  0  0  0  0  0  0  0  0
   29.1795  -18.1815  -15.3271 C   0  0  0  0  0  0  0  0  0  0  0  0
   27.6002  -19.9680  -14.8224 C   0  0  0  0  0  0  0  0  0  0  0  0
   26.3296  -20.5490  -14.3150 C   0  0  2  0  0  0  0  0  0  0  0  0
   25.2105  -19.7192  -14.6692 N   0  0  0  0  0  0  0  0  0  0  0  0
   26.3610  -20.8842  -12.8781 C   0  0  0  0  0  0  0  0  0  0  0  0
   27.1545  -21.7619  -12.4524 O   0  0  0  0  0  0  0  0  0  0  0  0
   27.2215  -19.2698   -8.0826 C   0  0  0  0  0  0  0  0  0  0  0  0
   26.8828  -20.1811   -9.2240 C   0  0  0  0  0  0  0  0  0  0  0  0
   25.4396  -20.4050   -9.4708 C   0  0  2  0  0  0  0  0  0  0  0  0
   24.9007  -21.1964   -8.2724 C   0  0  0  0  0  0  0  0  0  0  0  0
   25.0436  -21.0099  -10.7624 C   0  0  2  0  0  0  0  0  0  0  0  0
   25.5271  -20.2606  -11.9147 N   0  0  0  0  0  0  0  0  0  0  0  0
   23.6028  -21.2537  -10.9493 C   0  0  0  0  0  0  0  0  0  0  0  0
   23.0569  -22.2013  -10.3351 O   0  0  0  0  0  0  0  0  0  0  0  0
   22.7900  -20.4913  -11.7742 O   0  0  0  0  0  0  0  0  0  0  0  0
  2  1  1  0
  2  3  1  0
  4  3  1  0
  4  5  1  0
  5  7  1  0
  5  6  1  6
  7  8  2  0
 10  9  1  6
 10 12  1  0
 11 10  1  0
 13 12  1  1
 13 14  1  0
 14  7  1  0
 15 13  1  0
 16 15  2  0
 18 17  1  0
 18 19  1  0
 19 21  1  0
 19 20  1  1
 21 23  1  0
 21 22  1  6
 22 15  1  0
 23 25  1  0
 24 23  2  0
M  END
$$$$
