MLI.pdb
     RDKit          3D

 25 24  0  0  1  0  0  0  0  0999 V2000
   26.1428  -15.7256  -15.1770 C   0  0  0  0  0  0  0  0  0  0  0  0
   27.6921  -16.2515  -15.9400 S   0  0  0  0  0  0  0  0  0  0  0  0
   28.2502  -17.8457  -15.3203 C   0  0  0  0  0  0  0  0  0  0  0  0
   27.0906  -18.6408  -14.7099 C   0  0  0  0  0  0  0  0  0  0  0  0
   27.6701  -19.8421  -13.9914 C   0  0  2  0  0  0  0  0  0  0  0  0
   28.1947  -20.7336  -15.0088 N   0  0  0  0  0  0  0  0  0  0  0  0
   26.6504  -20.5731  -13.2177 C   0  0  0  0  0  0  0  0  0  0  0  0
   26.0556  -21.5685  -13.7069 O   0  0  0  0  0  0  0  0  0  0  0  0
   27.2992  -21.8398   -8.7990 C   0  0  0  0  0  0  0  0  0  0  0  0
   26.6402  -20.5180   -9.1005 C   0  0  2  0  0  0  0  0  0  0  0  0
   26.5059  -19.7973   -7.7454 C   0  0  0  0  0  0  0  0  0  0  0  0
   25.3008  -20.5731   -9.7167 C   0  0  0  0  0  0  0  0  0  0  0  0
   25.1909  -20.8286  -11.1770 C   0  0  2  0  0  0  0  0  0  0  0  0
   26.2760  -20.2092  -11.8876 N   0  0  0  0  0  0  0  0  0  0  0  0
   23.8700  -20.4906  -11.7420 C   0  0  0  0  0  0  0  0  0  0  0  0
   23.5000  -19.2906  -11.8065 O   0  0  0  0  0  0  0  0  0  0  0  0
   20.7037  -21.6265  -16.6637 C   0  0  0  0  0  0  0  0  0  0  0  0
   20.6363  -21.1586  -15.2408 C   0  0  0  0  0  0  0  0  0  0  0  0
   21.8020  -21.4936  -14.3906 C   0  0  2  0  0  0  0  0  0  0  0  0
   22.0305  -23.0045  -14.5240 C   0  0  0  0  0  0  0  0  0  0  0  0
   21.7764  -21.0560  -12.9768 C   0  0  2  0  0  0  0  0  0  0  0  0
   22.9612  -21.4630  -12.2327 N   0  0  0  0  0  0  0  0  0  0  0  0
   20.5906  -21.4512  -12.1972 C   0  0  0  0  0  0  0  0  0  0  0  0
   20.7166  -22.2892  -11.2725 O   0  0  0  0  0  0  0  0  0  0  0  0
   19.3171  -20.9497  -12.4186 O   0  0  0  0  0  0  0  0  0  0  0  0
  2  1  1  0
  2  3  1  0
  4  3  1  0
  4  5  1  0
  5  7  1  0
  5  6  1  6
  7  8  2  0
 10  9  1  1
 10 12  1  0
 11 10  1  0
 13 12  1  1
 13 14  1  0
 14  7  1  0
 15 13  1  0
 16 15  2  0
 18 17  1  0
 18 19  1  0
 19 21  1  0
 19 20  1  1
 21 23  1  0
 21 22  1  1
 22 15  1  0
 23 25  1  0
 24 23  2  0
M  END
$$$$
