MLI.pdb
     RDKit          3D

 25 24  0  0  1  0  0  0  0  0999 V2000
   19.0535  -16.9688  -13.9428 C   0  0  0  0  0  0  0  0  0  0  0  0
   18.7921  -16.6973  -15.7084 S   0  0  0  0  0  0  0  0  0  0  0  0
   20.0299  -17.5275  -16.7160 C   0  0  0  0  0  0  0  0  0  0  0  0
   20.9472  -18.4052  -15.8571 C   0  0  0  0  0  0  0  0  0  0  0  0
   22.0029  -19.0085  -16.7609 C   0  0  2  0  0  0  0  0  0  0  0  0
   21.3488  -20.0319  -17.5545 N   0  0  0  0  0  0  0  0  0  0  0  0
   23.0930  -19.6422  -15.9974 C   0  0  0  0  0  0  0  0  0  0  0  0
   22.9284  -20.7562  -15.4353 O   0  0  0  0  0  0  0  0  0  0  0  0
   27.6016  -21.0155  -16.8675 C   0  0  0  0  0  0  0  0  0  0  0  0
   27.3129  -19.5432  -16.7220 C   0  0  2  0  0  0  0  0  0  0  0  0
   28.6641  -18.8293  -16.9175 C   0  0  0  0  0  0  0  0  0  0  0  0
   26.7539  -19.1045  -15.4290 C   0  0  0  0  0  0  0  0  0  0  0  0
   25.4162  -19.6050  -15.0168 C   0  0  2  0  0  0  0  0  0  0  0  0
   24.3836  -19.0475  -15.8470 N   0  0  0  0  0  0  0  0  0  0  0  0
   25.1400  -19.4460  -13.5758 C   0  0  0  0  0  0  0  0  0  0  0  0
   24.9897  -18.2980  -13.0853 O   0  0  0  0  0  0  0  0  0  0  0  0
   21.5519  -19.5014   -9.2820 C   0  0  0  0  0  0  0  0  0  0  0  0
   23.0084  -19.7357   -9.5498 C   0  0  0  0  0  0  0  0  0  0  0  0
   23.3602  -20.1255  -10.9347 C   0  0  2  0  0  0  0  0  0  0  0  0
   22.5273  -21.3686  -11.2722 C   0  0  0  0  0  0  0  0  0  0  0  0
   24.7925  -20.3085  -11.2600 C   0  0  2  0  0  0  0  0  0  0  0  0
   25.0298  -20.5396  -12.6789 N   0  0  0  0  0  0  0  0  0  0  0  0
   25.5005  -21.3556  -10.5032 C   0  0  0  0  0  0  0  0  0  0  0  0
   25.8143  -22.4235  -11.0815 O   0  0  0  0  0  0  0  0  0  0  0  0
   25.8528  -21.2400   -9.1673 O   0  0  0  0  0  0  0  0  0  0  0  0
  2  1  1  0
  2  3  1  0
  4  3  1  0
  4  5  1  0
  5  7  1  0
  5  6  1  6
  7  8  2  0
 10  9  1  1
 10 12  1  0
 11 10  1  0
 13 12  1  6
 13 14  1  0
 14  7  1  0
 15 13  1  0
 16 15  2  0
 18 17  1  0
 18 19  1  0
 19 21  1  0
 19 20  1  1
 21 23  1  0
 21 22  1  6
 22 15  1  0
 23 25  1  0
 24 23  2  0
M  END
$$$$
