HPF.pdb
     RDKit          3D

 29 31  0  0  1  0  0  0  0  0999 V2000
    7.9883  -13.2860   18.5408 N   0  0  0  0  0  0  0  0  0  0  0  0
    8.2659  -14.5966   19.0796 C   0  0  1  0  0  0  0  0  0  0  0  0
    9.7847  -14.8186   18.9478 C   0  0  0  0  0  0  0  0  0  0  0  0
   10.1300  -15.2727   17.5547 C   0  0  0  0  0  0  0  0  0  0  0  0
   10.0012  -16.5695   17.0866 C   0  0  0  0  0  0  0  0  0  0  0  0
   10.4107  -16.5573   15.8193 N   0  0  0  0  0  0  0  0  0  0  0  0
   10.7935  -15.3165   15.4574 C   0  0  0  0  0  0  0  0  0  0  0  0
   10.6112  -14.5347   16.5482 N   0  0  0  0  0  0  0  0  0  0  0  0
    7.8024  -14.8582   20.4303 C   0  0  0  0  0  0  0  0  0  0  0  0
    8.3122  -14.1222   21.3462 O   0  0  0  0  0  0  0  0  0  0  0  0
    6.8278  -15.8648   20.8258 N   0  0  0  0  0  0  0  0  0  0  0  0
    5.9776  -16.5470   19.8795 C   0  0  0  0  0  0  0  0  0  0  0  0
    5.4258  -17.7320   20.6234 C   0  0  0  0  0  0  0  0  0  0  0  0
    6.1444  -17.7878   21.9323 C   0  0  0  0  0  0  0  0  0  0  0  0
    6.5252  -16.3082   22.1343 C   0  0  1  0  0  0  0  0  0  0  0  0
    7.6038  -16.3123   23.1284 C   0  0  0  0  0  0  0  0  0  0  0  0
    8.8316  -16.3710   22.9367 O   0  0  0  0  0  0  0  0  0  0  0  0
    7.2111  -16.2386   24.5163 N   0  0  0  0  0  0  0  0  0  0  0  0
    8.1915  -16.1786   25.5988 C   0  0  1  0  0  0  0  0  0  0  0  0
    7.4624  -15.5335   26.7546 C   0  0  0  0  0  0  0  0  0  0  0  0
    7.1704  -14.1088   26.5785 C   0  0  0  0  0  0  0  0  0  0  0  0
    5.8947  -13.6293   26.7629 C   0  0  0  0  0  0  0  0  0  0  0  0
    5.5830  -12.2933   26.6105 C   0  0  0  0  0  0  0  0  0  0  0  0
    6.5843  -11.4134   26.2615 C   0  0  0  0  0  0  0  0  0  0  0  0
    7.8653  -11.9030   26.0770 C   0  0  0  0  0  0  0  0  0  0  0  0
    8.1700  -13.2353   26.2306 C   0  0  0  0  0  0  0  0  0  0  0  0
    8.5682  -17.5572   25.9342 C   0  0  0  0  0  0  0  0  0  0  0  0
    9.7328  -17.8774   26.6171 O   0  0  0  0  0  0  0  0  0  0  0  0
    7.8069  -18.5032   25.5920 O   0  0  0  0  0  0  0  0  0  0  0  0
  2  1  1  1
  2  3  1  0
  3  4  1  0
  4  5  2  0
  5  6  1  0
  7  6  1  0
  8  4  1  0
  8  7  2  0
  9 10  2  0
  9  2  1  0
 11  9  1  0
 12 11  1  0
 13 14  1  0
 13 12  1  0
 14 15  1  0
 15 11  1  0
 15 16  1  1
 17 16  2  0
 18 16  1  0
 19 18  1  0
 19 20  1  1
 21 20  1  0
 21 22  2  0
 23 22  1  0
 24 23  2  0
 25 26  2  0
 25 24  1  0
 26 21  1  0
 27 19  1  0
 28 27  1  0
 29 27  2  0
M  END
$$$$
