HPF.pdb
     RDKit          3D

 29 31  0  0  1  0  0  0  0  0999 V2000
   11.0412  -16.7758   18.7044 N   0  0  0  0  0  0  0  0  0  0  0  0
    9.7302  -16.6237   19.2903 C   0  0  1  0  0  0  0  0  0  0  0  0
    8.9996  -17.9664   19.0990 C   0  0  0  0  0  0  0  0  0  0  0  0
    8.5907  -18.1413   17.6608 C   0  0  0  0  0  0  0  0  0  0  0  0
    7.4052  -17.6844   17.1103 C   0  0  0  0  0  0  0  0  0  0  0  0
    7.4216  -18.0396   15.8268 N   0  0  0  0  0  0  0  0  0  0  0  0
    8.5595  -18.6999   15.5329 C   0  0  0  0  0  0  0  0  0  0  0  0
    9.2709  -18.7519   16.6843 N   0  0  0  0  0  0  0  0  0  0  0  0
    9.6807  -16.1797   20.6716 C   0  0  0  0  0  0  0  0  0  0  0  0
   10.5894  -16.6517   21.4410 O   0  0  0  0  0  0  0  0  0  0  0  0
    8.7066  -15.2632   21.2464 N   0  0  0  0  0  0  0  0  0  0  0  0
    7.9237  -14.3498   20.4485 C   0  0  0  0  0  0  0  0  0  0  0  0
    6.8118  -13.8876   21.3496 C   0  0  0  0  0  0  0  0  0  0  0  0
    6.8947  -14.7157   22.5906 C   0  0  0  0  0  0  0  0  0  0  0  0
    8.3916  -15.0819   22.6133 C   0  0  1  0  0  0  0  0  0  0  0  0
    8.4990  -16.2409   23.5060 C   0  0  0  0  0  0  0  0  0  0  0  0
    8.0945  -17.4021   23.3174 O   0  0  0  0  0  0  0  0  0  0  0  0
    9.1572  -16.0280   24.7737 N   0  0  0  0  0  0  0  0  0  0  0  0
    9.5386  -17.1367   25.6468 C   0  0  1  0  0  0  0  0  0  0  0  0
   10.7536  -16.6454   26.3988 C   0  0  0  0  0  0  0  0  0  0  0  0
   10.4960  -15.5448   27.3308 C   0  0  0  0  0  0  0  0  0  0  0  0
   10.2827  -15.7958   28.6660 C   0  0  0  0  0  0  0  0  0  0  0  0
   10.0416  -14.7845   29.5741 C   0  0  0  0  0  0  0  0  0  0  0  0
   10.0137  -13.4820   29.1255 C   0  0  0  0  0  0  0  0  0  0  0  0
   10.2286  -13.2370   27.7806 C   0  0  0  0  0  0  0  0  0  0  0  0
   10.4687  -14.2488   26.8805 C   0  0  0  0  0  0  0  0  0  0  0  0
    8.4243  -17.3773   26.5719 C   0  0  0  0  0  0  0  0  0  0  0  0
    8.3944  -18.4452   27.4572 O   0  0  0  0  0  0  0  0  0  0  0  0
    7.4433  -16.5841   26.5723 O   0  0  0  0  0  0  0  0  0  0  0  0
  2  1  1  1
  2  3  1  0
  3  4  1  0
  4  5  2  0
  5  6  1  0
  7  6  1  0
  8  4  1  0
  8  7  2  0
  9 10  2  0
  9  2  1  0
 11  9  1  0
 12 11  1  0
 13 14  1  0
 13 12  1  0
 14 15  1  0
 15 11  1  0
 15 16  1  1
 17 16  2  0
 18 16  1  0
 19 18  1  0
 19 20  1  1
 21 20  1  0
 21 22  2  0
 23 22  1  0
 24 23  2  0
 25 26  2  0
 25 24  1  0
 26 21  1  0
 27 19  1  0
 28 27  1  0
 29 27  2  0
M  END
$$$$
