HPF.pdb
     RDKit          3D

 29 31  0  0  1  0  0  0  0  0999 V2000
    7.9800  -16.8151   20.2988 N   0  0  0  0  0  0  0  0  0  0  0  0
    8.4835  -15.7961   21.1895 C   0  0  1  0  0  0  0  0  0  0  0  0
    7.5988  -14.5515   20.9861 C   0  0  0  0  0  0  0  0  0  0  0  0
    7.6986  -14.0629   19.5656 C   0  0  0  0  0  0  0  0  0  0  0  0
    8.4015  -12.9416   19.1583 C   0  0  0  0  0  0  0  0  0  0  0  0
    8.2393  -12.8512   17.8394 N   0  0  0  0  0  0  0  0  0  0  0  0
    7.4682  -13.8600   17.3869 C   0  0  0  0  0  0  0  0  0  0  0  0
    7.1436  -14.6003   18.4736 N   0  0  0  0  0  0  0  0  0  0  0  0
    8.5917  -16.1520   22.5928 C   0  0  0  0  0  0  0  0  0  0  0  0
    7.9322  -15.4147   23.4064 O   0  0  0  0  0  0  0  0  0  0  0  0
    9.3697  -17.2520   23.1441 N   0  0  0  0  0  0  0  0  0  0  0  0
    9.8223  -18.3681   22.3482 C   0  0  0  0  0  0  0  0  0  0  0  0
   10.8767  -19.0467   23.1787 C   0  0  0  0  0  0  0  0  0  0  0  0
   11.1246  -18.1648   24.3592 C   0  0  0  0  0  0  0  0  0  0  0  0
    9.7710  -17.4393   24.4873 C   0  0  1  0  0  0  0  0  0  0  0  0
   10.0392  -16.2480   25.3001 C   0  0  0  0  0  0  0  0  0  0  0  0
   10.6723  -15.2243   24.9858 O   0  0  0  0  0  0  0  0  0  0  0  0
    9.5073  -16.2419   26.6427 N   0  0  0  0  0  0  0  0  0  0  0  0
    9.9319  -15.2633   27.6421 C   0  0  1  0  0  0  0  0  0  0  0  0
    8.6504  -14.7220   28.2320 C   0  0  0  0  0  0  0  0  0  0  0  0
    7.9182  -13.7954   27.3651 C   0  0  0  0  0  0  0  0  0  0  0  0
    8.4375  -12.5566   27.0704 C   0  0  0  0  0  0  0  0  0  0  0  0
    7.7788  -11.6593   26.2540 C   0  0  0  0  0  0  0  0  0  0  0  0
    6.5611  -12.0188   25.7187 C   0  0  0  0  0  0  0  0  0  0  0  0
    6.0445  -13.2667   26.0199 C   0  0  0  0  0  0  0  0  0  0  0  0
    6.7057  -14.1567   26.8338 C   0  0  0  0  0  0  0  0  0  0  0  0
   10.7059  -15.9788   28.6639 C   0  0  0  0  0  0  0  0  0  0  0  0
   11.5209  -15.3343   29.5835 O   0  0  0  0  0  0  0  0  0  0  0  0
   10.6354  -17.2372   28.7195 O   0  0  0  0  0  0  0  0  0  0  0  0
  2  1  1  6
  2  3  1  0
  3  4  1  0
  4  5  2  0
  5  6  1  0
  7  6  1  0
  8  4  1  0
  8  7  2  0
  9 10  2  0
  9  2  1  0
 11  9  1  0
 12 11  1  0
 13 14  1  0
 13 12  1  0
 14 15  1  0
 15 11  1  0
 15 16  1  6
 17 16  2  0
 18 16  1  0
 19 18  1  0
 19 20  1  1
 21 20  1  0
 21 22  2  0
 23 22  1  0
 24 23  2  0
 25 26  2  0
 25 24  1  0
 26 21  1  0
 27 19  1  0
 28 27  1  0
 29 27  2  0
M  END
$$$$
