HPF.pdb
     RDKit          3D

 29 31  0  0  1  0  0  0  0  0999 V2000
    8.4928  -18.2675   18.4389 N   0  0  0  0  0  0  0  0  0  0  0  0
    7.6968  -17.2880   19.1403 C   0  0  1  0  0  0  0  0  0  0  0  0
    6.5260  -18.0498   19.7902 C   0  0  0  0  0  0  0  0  0  0  0  0
    7.0433  -19.0859   20.7521 C   0  0  0  0  0  0  0  0  0  0  0  0
    7.9054  -20.1176   20.4211 C   0  0  0  0  0  0  0  0  0  0  0  0
    8.1165  -20.8087   21.5399 N   0  0  0  0  0  0  0  0  0  0  0  0
    7.4315  -20.2675   22.5670 C   0  0  0  0  0  0  0  0  0  0  0  0
    6.7726  -19.1997   22.0571 N   0  0  0  0  0  0  0  0  0  0  0  0
    8.3908  -16.4518   20.1030 C   0  0  0  0  0  0  0  0  0  0  0  0
    9.0412  -17.0740   21.0141 O   0  0  0  0  0  0  0  0  0  0  0  0
    8.4106  -14.9962   20.1219 N   0  0  0  0  0  0  0  0  0  0  0  0
    8.1564  -14.1935   18.9494 C   0  0  0  0  0  0  0  0  0  0  0  0
    7.8953  -12.8057   19.4668 C   0  0  0  0  0  0  0  0  0  0  0  0
    7.8222  -12.9110   20.9556 C   0  0  0  0  0  0  0  0  0  0  0  0
    8.7009  -14.1497   21.2171 C   0  0  1  0  0  0  0  0  0  0  0  0
    8.3388  -14.6115   22.5615 C   0  0  0  0  0  0  0  0  0  0  0  0
    7.2650  -14.4545   23.1696 O   0  0  0  0  0  0  0  0  0  0  0  0
    9.3453  -15.3466   23.2910 N   0  0  0  0  0  0  0  0  0  0  0  0
    9.6059  -15.1083   24.7095 C   0  0  1  0  0  0  0  0  0  0  0  0
    8.3139  -15.4572   25.4111 C   0  0  0  0  0  0  0  0  0  0  0  0
    7.5053  -14.3054   25.8182 C   0  0  0  0  0  0  0  0  0  0  0  0
    6.1913  -14.2010   25.4260 C   0  0  0  0  0  0  0  0  0  0  0  0
    5.3976  -13.1332   25.7940 C   0  0  0  0  0  0  0  0  0  0  0  0
    5.9423  -12.1406   26.5792 C   0  0  0  0  0  0  0  0  0  0  0  0
    7.2652  -12.2520   26.9696 C   0  0  0  0  0  0  0  0  0  0  0  0
    8.0510  -13.3186   26.6001 C   0  0  0  0  0  0  0  0  0  0  0  0
   10.6784  -16.0211   25.1238 C   0  0  0  0  0  0  0  0  0  0  0  0
   11.2388  -16.0019   26.3929 O   0  0  0  0  0  0  0  0  0  0  0  0
   11.1192  -16.8668   24.2979 O   0  0  0  0  0  0  0  0  0  0  0  0
  2  1  1  1
  2  3  1  0
  3  4  1  0
  4  5  2  0
  5  6  1  0
  7  6  1  0
  8  4  1  0
  8  7  2  0
  9 10  2  0
  9  2  1  0
 11  9  1  0
 12 11  1  0
 13 14  1  0
 13 12  1  0
 14 15  1  0
 15 11  1  0
 15 16  1  1
 17 16  2  0
 18 16  1  0
 19 18  1  0
 19 20  1  1
 21 20  1  0
 21 22  2  0
 23 22  1  0
 24 23  2  0
 25 26  2  0
 25 24  1  0
 26 21  1  0
 27 19  1  0
 28 27  1  0
 29 27  2  0
M  END
$$$$
