HPF.pdb
     RDKit          3D

 29 31  0  0  1  0  0  0  0  0999 V2000
   11.8290  -15.7424   17.8786 N   0  0  0  0  0  0  0  0  0  0  0  0
   10.4707  -15.3627   18.1883 C   0  0  1  0  0  0  0  0  0  0  0  0
    9.5677  -16.5185   17.7171 C   0  0  0  0  0  0  0  0  0  0  0  0
    9.2947  -16.4031   16.2411 C   0  0  0  0  0  0  0  0  0  0  0  0
    8.6384  -15.3455   15.6345 C   0  0  0  0  0  0  0  0  0  0  0  0
    8.5965  -15.6222   14.3324 N   0  0  0  0  0  0  0  0  0  0  0  0
    9.1941  -16.8038   14.0800 C   0  0  0  0  0  0  0  0  0  0  0  0
    9.6206  -17.2716   15.2774 N   0  0  0  0  0  0  0  0  0  0  0  0
   10.1940  -14.9950   19.5653 C   0  0  0  0  0  0  0  0  0  0  0  0
   10.9430  -15.5417   20.4487 O   0  0  0  0  0  0  0  0  0  0  0  0
    9.1591  -14.0773   20.0195 N   0  0  0  0  0  0  0  0  0  0  0  0
    8.5172  -13.1249   19.1450 C   0  0  0  0  0  0  0  0  0  0  0  0
    7.2908  -12.6685   19.8864 C   0  0  0  0  0  0  0  0  0  0  0  0
    7.1761  -13.5354   21.0981 C   0  0  0  0  0  0  0  0  0  0  0  0
    8.6473  -13.9315   21.3299 C   0  0  1  0  0  0  0  0  0  0  0  0
    8.6035  -15.1190   22.1899 C   0  0  0  0  0  0  0  0  0  0  0  0
    8.5830  -16.3165   21.8539 O   0  0  0  0  0  0  0  0  0  0  0  0
    8.5817  -14.8903   23.6158 N   0  0  0  0  0  0  0  0  0  0  0  0
    8.6317  -15.9883   24.5794 C   0  0  1  0  0  0  0  0  0  0  0  0
    8.8258  -15.3243   25.9228 C   0  0  0  0  0  0  0  0  0  0  0  0
    7.8507  -14.2772   26.2373 C   0  0  0  0  0  0  0  0  0  0  0  0
    8.2144  -12.9514   26.2039 C   0  0  0  0  0  0  0  0  0  0  0  0
    7.3222  -11.9376   26.4895 C   0  0  0  0  0  0  0  0  0  0  0  0
    6.0256  -12.2674   26.8191 C   0  0  0  0  0  0  0  0  0  0  0  0
    5.6668  -13.6035   26.8512 C   0  0  0  0  0  0  0  0  0  0  0  0
    6.5602  -14.6093   26.5653 C   0  0  0  0  0  0  0  0  0  0  0  0
    7.3384  -16.6814   24.5309 C   0  0  0  0  0  0  0  0  0  0  0  0
    7.1269  -17.9273   25.1036 O   0  0  0  0  0  0  0  0  0  0  0  0
    6.3668  -16.1296   23.9451 O   0  0  0  0  0  0  0  0  0  0  0  0
  2  1  1  1
  2  3  1  0
  3  4  1  0
  4  5  2  0
  5  6  1  0
  7  6  1  0
  8  4  1  0
  8  7  2  0
  9 10  2  0
  9  2  1  0
 11  9  1  0
 12 11  1  0
 13 14  1  0
 13 12  1  0
 14 15  1  0
 15 11  1  0
 15 16  1  1
 17 16  2  0
 18 16  1  0
 19 18  1  0
 19 20  1  1
 21 20  1  0
 21 22  2  0
 23 22  1  0
 24 23  2  0
 25 26  2  0
 25 24  1  0
 26 21  1  0
 27 19  1  0
 28 27  1  0
 29 27  2  0
M  END
$$$$
