HPF.pdb
     RDKit          3D

 29 31  0  0  1  0  0  0  0  0999 V2000
   11.2058  -16.0547   19.3514 N   0  0  0  0  0  0  0  0  0  0  0  0
   10.6139  -17.0352   20.2307 C   0  0  1  0  0  0  0  0  0  0  0  0
   11.7768  -17.7641   20.9305 C   0  0  0  0  0  0  0  0  0  0  0  0
   12.6178  -18.5001   19.9218 C   0  0  0  0  0  0  0  0  0  0  0  0
   12.1704  -19.5344   19.1173 C   0  0  0  0  0  0  0  0  0  0  0  0
   13.2094  -19.9140   18.3754 N   0  0  0  0  0  0  0  0  0  0  0  0
   14.2961  -19.1720   18.6678 C   0  0  0  0  0  0  0  0  0  0  0  0
   13.9076  -18.3007   19.6292 N   0  0  0  0  0  0  0  0  0  0  0  0
    9.6356  -16.5480   21.1865 C   0  0  0  0  0  0  0  0  0  0  0  0
   10.0416  -15.6266   21.9780 O   0  0  0  0  0  0  0  0  0  0  0  0
    8.2607  -17.0074   21.3203 N   0  0  0  0  0  0  0  0  0  0  0  0
    7.5068  -17.5563   20.2184 C   0  0  0  0  0  0  0  0  0  0  0  0
    6.3237  -18.2394   20.8475 C   0  0  0  0  0  0  0  0  0  0  0  0
    6.5518  -18.2166   22.3241 C   0  0  0  0  0  0  0  0  0  0  0  0
    7.4451  -16.9699   22.4753 C   0  0  1  0  0  0  0  0  0  0  0  0
    8.0942  -17.1080   23.7834 C   0  0  0  0  0  0  0  0  0  0  0  0
    9.1680  -17.6731   24.0578 O   0  0  0  0  0  0  0  0  0  0  0  0
    7.4154  -16.5176   24.9132 N   0  0  0  0  0  0  0  0  0  0  0  0
    7.9868  -16.5348   26.2585 C   0  0  1  0  0  0  0  0  0  0  0  0
    7.1264  -15.5889   27.0637 C   0  0  0  0  0  0  0  0  0  0  0  0
    7.2535  -14.1770   26.6939 C   0  0  0  0  0  0  0  0  0  0  0  0
    8.4843  -13.5636   26.6919 C   0  0  0  0  0  0  0  0  0  0  0  0
    8.6434  -12.2371   26.3449 C   0  0  0  0  0  0  0  0  0  0  0  0
    7.5309  -11.5057   25.9898 C   0  0  0  0  0  0  0  0  0  0  0  0
    6.2956  -12.1292   25.9946 C   0  0  0  0  0  0  0  0  0  0  0  0
    6.1434  -13.4515   26.3410 C   0  0  0  0  0  0  0  0  0  0  0  0
    7.8671  -17.9039   26.7747 C   0  0  0  0  0  0  0  0  0  0  0  0
    8.6879  -18.4096   27.7727 O   0  0  0  0  0  0  0  0  0  0  0  0
    6.9814  -18.6654   26.2981 O   0  0  0  0  0  0  0  0  0  0  0  0
  2  1  1  1
  2  3  1  0
  3  4  1  0
  4  5  2  0
  5  6  1  0
  7  6  1  0
  8  4  1  0
  8  7  2  0
  9 10  2  0
  9  2  1  0
 11  9  1  0
 12 11  1  0
 13 14  1  0
 13 12  1  0
 14 15  1  0
 15 11  1  0
 15 16  1  1
 17 16  2  0
 18 16  1  0
 19 18  1  0
 19 20  1  1
 21 20  1  0
 21 22  2  0
 23 22  1  0
 24 23  2  0
 25 26  2  0
 25 24  1  0
 26 21  1  0
 27 19  1  0
 28 27  1  0
 29 27  2  0
M  END
$$$$
