HPF.pdb
     RDKit          3D

 29 31  0  0  1  0  0  0  0  0999 V2000
    8.3255  -16.6788   18.9901 N   0  0  0  0  0  0  0  0  0  0  0  0
    8.3672  -15.5787   19.9245 C   0  0  1  0  0  0  0  0  0  0  0  0
    7.3075  -14.5613   19.4607 C   0  0  0  0  0  0  0  0  0  0  0  0
    7.5827  -14.1244   18.0466 C   0  0  0  0  0  0  0  0  0  0  0  0
    8.0137  -12.8624   17.6742 C   0  0  0  0  0  0  0  0  0  0  0  0
    8.1340  -12.8791   16.3478 N   0  0  0  0  0  0  0  0  0  0  0  0
    7.8013  -14.0899   15.8575 C   0  0  0  0  0  0  0  0  0  0  0  0
    7.4626  -14.8477   16.9278 N   0  0  0  0  0  0  0  0  0  0  0  0
    8.2118  -15.9100   21.3295 C   0  0  0  0  0  0  0  0  0  0  0  0
    8.3756  -14.9414   22.1512 O   0  0  0  0  0  0  0  0  0  0  0  0
    7.8927  -17.2219   21.8739 N   0  0  0  0  0  0  0  0  0  0  0  0
    7.2981  -18.2745   21.0851 C   0  0  0  0  0  0  0  0  0  0  0  0
    7.4902  -19.5308   21.8893 C   0  0  0  0  0  0  0  0  0  0  0  0
    8.3716  -19.1708   23.0410 C   0  0  0  0  0  0  0  0  0  0  0  0
    8.0615  -17.6701   23.2047 C   0  0  1  0  0  0  0  0  0  0  0  0
    9.1779  -17.1208   23.9817 C   0  0  0  0  0  0  0  0  0  0  0  0
   10.3810  -17.0620   23.6709 O   0  0  0  0  0  0  0  0  0  0  0  0
    8.8606  -16.5710   25.2790 N   0  0  0  0  0  0  0  0  0  0  0  0
    9.8660  -15.9115   26.1102 C   0  0  1  0  0  0  0  0  0  0  0  0
    9.8712  -14.4712   25.6532 C   0  0  0  0  0  0  0  0  0  0  0  0
    8.6548  -13.7204   25.9741 C   0  0  0  0  0  0  0  0  0  0  0  0
    7.5488  -13.8019   25.1609 C   0  0  0  0  0  0  0  0  0  0  0  0
    6.3841  -13.1131   25.4337 C   0  0  0  0  0  0  0  0  0  0  0  0
    6.3307  -12.3179   26.5577 C   0  0  0  0  0  0  0  0  0  0  0  0
    7.4476  -12.2402   27.3711 C   0  0  0  0  0  0  0  0  0  0  0  0
    8.6052  -12.9293   27.0943 C   0  0  0  0  0  0  0  0  0  0  0  0
    9.4205  -16.0062   27.5058 C   0  0  0  0  0  0  0  0  0  0  0  0
    8.2092  -16.5733   27.8754 O   0  0  0  0  0  0  0  0  0  0  0  0
   10.1635  -15.5557   28.4203 O   0  0  0  0  0  0  0  0  0  0  0  0
  2  1  1  6
  2  3  1  0
  3  4  1  0
  4  5  2  0
  5  6  1  0
  7  6  1  0
  8  4  1  0
  8  7  2  0
  9 10  2  0
  9  2  1  0
 11  9  1  0
 12 11  1  0
 13 14  1  0
 13 12  1  0
 14 15  1  0
 15 11  1  0
 15 16  1  6
 17 16  2  0
 18 16  1  0
 19 18  1  0
 19 20  1  6
 21 20  1  0
 21 22  2  0
 23 22  1  0
 24 23  2  0
 25 26  2  0
 25 24  1  0
 26 21  1  0
 27 19  1  0
 28 27  1  0
 29 27  2  0
M  END
$$$$
