HPF.pdb
     RDKit          3D

 29 31  0  0  1  0  0  0  0  0999 V2000
    6.1580  -18.6887   20.2074 N   0  0  0  0  0  0  0  0  0  0  0  0
    5.9349  -17.4615   20.9350 C   0  0  1  0  0  0  0  0  0  0  0  0
    4.9187  -17.7830   22.0474 C   0  0  0  0  0  0  0  0  0  0  0  0
    3.6482  -18.3320   21.4552 C   0  0  0  0  0  0  0  0  0  0  0  0
    2.8834  -17.6998   20.4895 C   0  0  0  0  0  0  0  0  0  0  0  0
    1.8502  -18.5022   20.2391 N   0  0  0  0  0  0  0  0  0  0  0  0
    1.9199  -19.6144   20.9975 C   0  0  0  0  0  0  0  0  0  0  0  0
    3.0428  -19.4892   21.7445 N   0  0  0  0  0  0  0  0  0  0  0  0
    7.1107  -16.7925   21.4617 C   0  0  0  0  0  0  0  0  0  0  0  0
    7.7944  -17.4585   22.3158 O   0  0  0  0  0  0  0  0  0  0  0  0
    7.5704  -15.4566   21.1102 N   0  0  0  0  0  0  0  0  0  0  0  0
    7.1830  -14.7902   19.8897 C   0  0  0  0  0  0  0  0  0  0  0  0
    7.5428  -13.3444   20.0949 C   0  0  0  0  0  0  0  0  0  0  0  0
    7.9555  -13.2050   21.5243 C   0  0  0  0  0  0  0  0  0  0  0  0
    8.4571  -14.6283   21.8369 C   0  0  1  0  0  0  0  0  0  0  0  0
    8.4564  -14.7325   23.3001 C   0  0  0  0  0  0  0  0  0  0  0  0
    7.6628  -14.2224   24.1110 O   0  0  0  0  0  0  0  0  0  0  0  0
    9.5044  -15.5268   23.8973 N   0  0  0  0  0  0  0  0  0  0  0  0
    9.8369  -15.4326   25.3176 C   0  0  1  0  0  0  0  0  0  0  0  0
    8.5122  -15.5233   26.0388 C   0  0  0  0  0  0  0  0  0  0  0  0
    7.8987  -14.2327   26.3615 C   0  0  0  0  0  0  0  0  0  0  0  0
    6.5373  -14.0630   26.2654 C   0  0  0  0  0  0  0  0  0  0  0  0
    5.9237  -12.8635   26.5657 C   0  0  0  0  0  0  0  0  0  0  0  0
    6.7028  -11.8030   26.9741 C   0  0  0  0  0  0  0  0  0  0  0  0
    8.0719  -11.9808   27.0680 C   0  0  0  0  0  0  0  0  0  0  0  0
    8.6777  -13.1786   26.7678 C   0  0  0  0  0  0  0  0  0  0  0  0
   10.6843  -16.5835   25.6528 C   0  0  0  0  0  0  0  0  0  0  0  0
   11.3224  -16.7209   26.8773 O   0  0  0  0  0  0  0  0  0  0  0  0
   10.8477  -17.4965   24.7977 O   0  0  0  0  0  0  0  0  0  0  0  0
  2  1  1  1
  2  3  1  0
  3  4  1  0
  4  5  2  0
  5  6  1  0
  7  6  1  0
  8  4  1  0
  8  7  2  0
  9 10  2  0
  9  2  1  0
 11  9  1  0
 12 11  1  0
 13 14  1  0
 13 12  1  0
 14 15  1  0
 15 11  1  0
 15 16  1  1
 17 16  2  0
 18 16  1  0
 19 18  1  0
 19 20  1  1
 21 20  1  0
 21 22  2  0
 23 22  1  0
 24 23  2  0
 25 26  2  0
 25 24  1  0
 26 21  1  0
 27 19  1  0
 28 27  1  0
 29 27  2  0
M  END
$$$$
