HPF.pdb
     RDKit          3D

 29 31  0  0  1  0  0  0  0  0999 V2000
    6.6320  -15.9691   20.7079 N   0  0  0  0  0  0  0  0  0  0  0  0
    7.9477  -15.6605   21.2164 C   0  0  1  0  0  0  0  0  0  0  0  0
    8.1665  -14.1515   20.9964 C   0  0  0  0  0  0  0  0  0  0  0  0
    8.1231  -13.8235   19.5278 C   0  0  0  0  0  0  0  0  0  0  0  0
    7.2294  -12.9475   18.9351 C   0  0  0  0  0  0  0  0  0  0  0  0
    7.5148  -12.9375   17.6342 N   0  0  0  0  0  0  0  0  0  0  0  0
    8.5466  -13.7637   17.3695 C   0  0  0  0  0  0  0  0  0  0  0  0
    8.9093  -14.3031   18.5577 N   0  0  0  0  0  0  0  0  0  0  0  0
    8.2239  -16.0465   22.5885 C   0  0  0  0  0  0  0  0  0  0  0  0
    7.7011  -15.3040   23.4916 O   0  0  0  0  0  0  0  0  0  0  0  0
    9.0279  -17.1817   23.0178 N   0  0  0  0  0  0  0  0  0  0  0  0
    9.4051  -18.2555   22.1298 C   0  0  0  0  0  0  0  0  0  0  0  0
   10.5110  -18.9877   22.8390 C   0  0  0  0  0  0  0  0  0  0  0  0
   10.8585  -18.1746   24.0436 C   0  0  0  0  0  0  0  0  0  0  0  0
    9.5275  -17.4464   24.3141 C   0  0  1  0  0  0  0  0  0  0  0  0
    9.8712  -16.3042   25.1679 C   0  0  0  0  0  0  0  0  0  0  0  0
   10.4333  -15.2415   24.8481 O   0  0  0  0  0  0  0  0  0  0  0  0
    9.5193  -16.4057   26.5649 N   0  0  0  0  0  0  0  0  0  0  0  0
    9.9165  -15.3934   27.5417 C   0  0  1  0  0  0  0  0  0  0  0  0
    8.6236  -14.7587   27.9986 C   0  0  0  0  0  0  0  0  0  0  0  0
    8.0984  -13.7229   27.1056 C   0  0  0  0  0  0  0  0  0  0  0  0
    6.8850  -13.8897   26.4800 C   0  0  0  0  0  0  0  0  0  0  0  0
    6.3563  -12.9339   25.6360 C   0  0  0  0  0  0  0  0  0  0  0  0
    7.0697  -11.7762   25.4141 C   0  0  0  0  0  0  0  0  0  0  0  0
    8.2900  -11.6154   26.0464 C   0  0  0  0  0  0  0  0  0  0  0  0
    8.8116  -12.5712   26.8868 C   0  0  0  0  0  0  0  0  0  0  0  0
   10.5716  -16.0859   28.6581 C   0  0  0  0  0  0  0  0  0  0  0  0
   11.3987  -15.4409   29.5665 O   0  0  0  0  0  0  0  0  0  0  0  0
   10.3819  -17.3238   28.8100 O   0  0  0  0  0  0  0  0  0  0  0  0
  2  1  1  1
  2  3  1  0
  3  4  1  0
  4  5  2  0
  5  6  1  0
  7  6  1  0
  8  4  1  0
  8  7  2  0
  9 10  2  0
  9  2  1  0
 11  9  1  0
 12 11  1  0
 13 14  1  0
 13 12  1  0
 14 15  1  0
 15 11  1  0
 15 16  1  6
 17 16  2  0
 18 16  1  0
 19 18  1  0
 19 20  1  1
 21 20  1  0
 21 22  2  0
 23 22  1  0
 24 23  2  0
 25 26  2  0
 25 24  1  0
 26 21  1  0
 27 19  1  0
 28 27  1  0
 29 27  2  0
M  END
$$$$
