HPF.pdb
     RDKit          3D

 29 31  0  0  1  0  0  0  0  0999 V2000
    6.5587  -13.7862   19.2883 N   0  0  0  0  0  0  0  0  0  0  0  0
    7.5055  -14.7754   19.7465 C   0  0  1  0  0  0  0  0  0  0  0  0
    8.9099  -14.1806   19.5290 C   0  0  0  0  0  0  0  0  0  0  0  0
    9.2074  -14.0614   18.0581 C   0  0  0  0  0  0  0  0  0  0  0  0
    9.9170  -14.9881   17.3130 C   0  0  0  0  0  0  0  0  0  0  0  0
    9.9643  -14.5171   16.0681 N   0  0  0  0  0  0  0  0  0  0  0  0
    9.3194  -13.3363   15.9838 C   0  0  0  0  0  0  0  0  0  0  0  0
    8.8571  -13.0718   17.2291 N   0  0  0  0  0  0  0  0  0  0  0  0
    7.3351  -15.2621   21.1037 C   0  0  0  0  0  0  0  0  0  0  0  0
    7.3879  -14.3734   22.0244 O   0  0  0  0  0  0  0  0  0  0  0  0
    7.1141  -16.6452   21.5004 N   0  0  0  0  0  0  0  0  0  0  0  0
    6.6772  -17.6652   20.5771 C   0  0  0  0  0  0  0  0  0  0  0  0
    6.9423  -18.9716   21.2736 C   0  0  0  0  0  0  0  0  0  0  0  0
    7.7099  -18.6471   22.5139 C   0  0  0  0  0  0  0  0  0  0  0  0
    7.2429  -17.2051   22.7928 C   0  0  1  0  0  0  0  0  0  0  0  0
    8.2486  -16.6342   23.6953 C   0  0  0  0  0  0  0  0  0  0  0  0
    9.3679  -16.1712   23.4117 O   0  0  0  0  0  0  0  0  0  0  0  0
    7.9156  -16.5941   25.1000 N   0  0  0  0  0  0  0  0  0  0  0  0
    8.8013  -15.9863   26.0913 C   0  0  1  0  0  0  0  0  0  0  0  0
    7.8815  -15.2854   27.0639 C   0  0  0  0  0  0  0  0  0  0  0  0
    7.3976  -13.9766   26.6176 C   0  0  0  0  0  0  0  0  0  0  0  0
    6.0535  -13.7566   26.4274 C   0  0  0  0  0  0  0  0  0  0  0  0
    5.5605  -12.5359   26.0123 C   0  0  0  0  0  0  0  0  0  0  0  0
    6.4462  -11.5060   25.7811 C   0  0  0  0  0  0  0  0  0  0  0  0
    7.7973  -11.7347   25.9741 C   0  0  0  0  0  0  0  0  0  0  0  0
    8.2825  -12.9532   26.3881 C   0  0  0  0  0  0  0  0  0  0  0  0
    9.5282  -17.0711   26.7623 C   0  0  0  0  0  0  0  0  0  0  0  0
   10.7600  -16.8896   27.3746 O   0  0  0  0  0  0  0  0  0  0  0  0
    9.0204  -18.2256   26.7909 O   0  0  0  0  0  0  0  0  0  0  0  0
  2  1  1  1
  2  3  1  0
  3  4  1  0
  4  5  2  0
  5  6  1  0
  7  6  1  0
  8  4  1  0
  8  7  2  0
  9 10  2  0
  9  2  1  0
 11  9  1  0
 12 11  1  0
 13 14  1  0
 13 12  1  0
 14 15  1  0
 15 11  1  0
 15 16  1  1
 17 16  2  0
 18 16  1  0
 19 18  1  0
 19 20  1  1
 21 20  1  0
 21 22  2  0
 23 22  1  0
 24 23  2  0
 25 26  2  0
 25 24  1  0
 26 21  1  0
 27 19  1  0
 28 27  1  0
 29 27  2  0
M  END
$$$$
