HPF.pdb
     RDKit          3D

 29 31  0  0  1  0  0  0  0  0999 V2000
    6.2048  -15.2055   19.8219 N   0  0  0  0  0  0  0  0  0  0  0  0
    7.4680  -15.4583   20.4741 C   0  0  1  0  0  0  0  0  0  0  0  0
    8.3017  -14.1696   20.3427 C   0  0  0  0  0  0  0  0  0  0  0  0
    8.5718  -13.8646   18.8934 C   0  0  0  0  0  0  0  0  0  0  0  0
    9.7235  -14.2142   18.2088 C   0  0  0  0  0  0  0  0  0  0  0  0
    9.5757  -13.7642   16.9639 N   0  0  0  0  0  0  0  0  0  0  0  0
    8.3864  -13.1457   16.8222 C   0  0  0  0  0  0  0  0  0  0  0  0
    7.7791  -13.2192   18.0306 N   0  0  0  0  0  0  0  0  0  0  0  0
    7.4111  -15.9207   21.8491 C   0  0  0  0  0  0  0  0  0  0  0  0
    7.1758  -15.0210   22.7297 O   0  0  0  0  0  0  0  0  0  0  0  0
    7.5952  -17.2912   22.3044 N   0  0  0  0  0  0  0  0  0  0  0  0
    7.4526  -18.4327   21.4323 C   0  0  0  0  0  0  0  0  0  0  0  0
    8.0850  -19.5794   22.1720 C   0  0  0  0  0  0  0  0  0  0  0  0
    8.7455  -18.9973   23.3794 C   0  0  0  0  0  0  0  0  0  0  0  0
    7.8936  -17.7346   23.6138 C   0  0  1  0  0  0  0  0  0  0  0  0
    8.7084  -16.8642   24.4684 C   0  0  0  0  0  0  0  0  0  0  0  0
    9.7048  -16.1878   24.1564 O   0  0  0  0  0  0  0  0  0  0  0  0
    8.3200  -16.7647   25.8558 N   0  0  0  0  0  0  0  0  0  0  0  0
    9.1200  -16.0324   26.8359 C   0  0  1  0  0  0  0  0  0  0  0  0
    8.1236  -15.2174   27.6272 C   0  0  0  0  0  0  0  0  0  0  0  0
    7.5688  -14.0642   26.9142 C   0  0  0  0  0  0  0  0  0  0  0  0
    8.3080  -12.9143   26.7638 C   0  0  0  0  0  0  0  0  0  0  0  0
    7.8205  -11.8099   26.0944 C   0  0  0  0  0  0  0  0  0  0  0  0
    6.5512  -11.8636   25.5610 C   0  0  0  0  0  0  0  0  0  0  0  0
    5.8129  -13.0236   25.7166 C   0  0  0  0  0  0  0  0  0  0  0  0
    6.3042  -14.1211   26.3843 C   0  0  0  0  0  0  0  0  0  0  0  0
    9.7776  -17.0203   27.7001 C   0  0  0  0  0  0  0  0  0  0  0  0
   10.8610  -16.7129   28.5107 O   0  0  0  0  0  0  0  0  0  0  0  0
    9.3474  -18.2062   27.7162 O   0  0  0  0  0  0  0  0  0  0  0  0
  2  1  1  1
  2  3  1  0
  3  4  1  0
  4  5  2  0
  5  6  1  0
  7  6  1  0
  8  4  1  0
  8  7  2  0
  9 10  2  0
  9  2  1  0
 11  9  1  0
 12 11  1  0
 13 14  1  0
 13 12  1  0
 14 15  1  0
 15 11  1  0
 15 16  1  1
 17 16  2  0
 18 16  1  0
 19 18  1  0
 19 20  1  1
 21 20  1  0
 21 22  2  0
 23 22  1  0
 24 23  2  0
 25 26  2  0
 25 24  1  0
 26 21  1  0
 27 19  1  0
 28 27  1  0
 29 27  2  0
M  END
$$$$
