HPF.pdb
     RDKit          3D

 29 31  0  0  1  0  0  0  0  0999 V2000
    8.5488  -13.5302   18.9872 N   0  0  0  0  0  0  0  0  0  0  0  0
    9.0097  -14.6784   19.7317 C   0  0  1  0  0  0  0  0  0  0  0  0
   10.5208  -14.4830   19.9594 C   0  0  0  0  0  0  0  0  0  0  0  0
   11.2799  -14.7261   18.6823 C   0  0  0  0  0  0  0  0  0  0  0  0
   11.0132  -15.7422   17.7803 C   0  0  0  0  0  0  0  0  0  0  0  0
   11.9015  -15.6177   16.7957 N   0  0  0  0  0  0  0  0  0  0  0  0
   12.7204  -14.5721   17.0264 C   0  0  0  0  0  0  0  0  0  0  0  0
   12.3176  -14.0325   18.2015 N   0  0  0  0  0  0  0  0  0  0  0  0
    8.3155  -14.9730   20.9723 C   0  0  0  0  0  0  0  0  0  0  0  0
    8.3866  -14.0701   21.8779 O   0  0  0  0  0  0  0  0  0  0  0  0
    7.5611  -16.1819   21.2700 N   0  0  0  0  0  0  0  0  0  0  0  0
    7.0106  -17.0350   20.2439 C   0  0  0  0  0  0  0  0  0  0  0  0
    6.6644  -18.3221   20.9406 C   0  0  0  0  0  0  0  0  0  0  0  0
    7.2157  -18.2205   22.3257 C   0  0  0  0  0  0  0  0  0  0  0  0
    7.2164  -16.6946   22.5423 C   0  0  1  0  0  0  0  0  0  0  0  0
    8.1408  -16.4564   23.6561 C   0  0  0  0  0  0  0  0  0  0  0  0
    9.3713  -16.2784   23.6149 O   0  0  0  0  0  0  0  0  0  0  0  0
    7.5682  -16.4191   24.9814 N   0  0  0  0  0  0  0  0  0  0  0  0
    8.3748  -16.1420   26.1686 C   0  0  1  0  0  0  0  0  0  0  0  0
    7.4400  -15.4373   27.1239 C   0  0  0  0  0  0  0  0  0  0  0  0
    7.0867  -14.0683   26.7401 C   0  0  0  0  0  0  0  0  0  0  0  0
    8.0618  -13.1087   26.5996 C   0  0  0  0  0  0  0  0  0  0  0  0
    7.7675  -11.8104   26.2350 C   0  0  0  0  0  0  0  0  0  0  0  0
    6.4530  -11.4668   26.0056 C   0  0  0  0  0  0  0  0  0  0  0  0
    5.4771  -12.4373   26.1494 C   0  0  0  0  0  0  0  0  0  0  0  0
    5.7765  -13.7296   26.5126 C   0  0  0  0  0  0  0  0  0  0  0  0
    8.8030  -17.4310   26.7257 C   0  0  0  0  0  0  0  0  0  0  0  0
    8.3463  -18.6504   26.2464 O   0  0  0  0  0  0  0  0  0  0  0  0
    9.6235  -17.4446   27.6838 O   0  0  0  0  0  0  0  0  0  0  0  0
  2  1  1  1
  2  3  1  0
  3  4  1  0
  4  5  2  0
  5  6  1  0
  7  6  1  0
  8  4  1  0
  8  7  2  0
  9 10  2  0
  9  2  1  0
 11  9  1  0
 12 11  1  0
 13 14  1  0
 13 12  1  0
 14 15  1  0
 15 11  1  0
 15 16  1  1
 17 16  2  0
 18 16  1  0
 19 18  1  0
 19 20  1  1
 21 20  1  0
 21 22  2  0
 23 22  1  0
 24 23  2  0
 25 26  2  0
 25 24  1  0
 26 21  1  0
 27 19  1  0
 28 27  1  0
 29 27  2  0
M  END
$$$$
