HPF.pdb
     RDKit          3D

 29 31  0  0  1  0  0  0  0  0999 V2000
    8.0858  -16.6188   18.1600 N   0  0  0  0  0  0  0  0  0  0  0  0
    8.4733  -15.4890   18.9715 C   0  0  1  0  0  0  0  0  0  0  0  0
    7.8426  -14.2407   18.3256 C   0  0  0  0  0  0  0  0  0  0  0  0
    8.2229  -14.1531   16.8716 C   0  0  0  0  0  0  0  0  0  0  0  0
    8.9766  -15.0931   16.1891 C   0  0  0  0  0  0  0  0  0  0  0  0
    9.0931  -14.6499   14.9386 N   0  0  0  0  0  0  0  0  0  0  0  0
    8.4502  -13.4742   14.7912 C   0  0  0  0  0  0  0  0  0  0  0  0
    7.9171  -13.1840   16.0019 N   0  0  0  0  0  0  0  0  0  0  0  0
    8.1694  -15.5693   20.3889 C   0  0  0  0  0  0  0  0  0  0  0  0
    8.6150  -14.6084   21.1090 O   0  0  0  0  0  0  0  0  0  0  0  0
    7.4173  -16.6266   21.0491 N   0  0  0  0  0  0  0  0  0  0  0  0
    6.5344  -17.5211   20.3392 C   0  0  0  0  0  0  0  0  0  0  0  0
    6.2745  -18.6588   21.2879 C   0  0  0  0  0  0  0  0  0  0  0  0
    7.1873  -18.4603   22.4542 C   0  0  0  0  0  0  0  0  0  0  0  0
    7.3852  -16.9321   22.4297 C   0  0  1  0  0  0  0  0  0  0  0  0
    8.5944  -16.6798   23.2208 C   0  0  0  0  0  0  0  0  0  0  0  0
    9.7739  -16.9581   22.9400 O   0  0  0  0  0  0  0  0  0  0  0  0
    8.4145  -16.0232   24.4945 N   0  0  0  0  0  0  0  0  0  0  0  0
    9.5407  -15.7054   25.3705 C   0  0  1  0  0  0  0  0  0  0  0  0
    9.6146  -14.1962   25.3846 C   0  0  0  0  0  0  0  0  0  0  0  0
    8.4385  -13.5287   25.9480 C   0  0  0  0  0  0  0  0  0  0  0  0
    7.3200  -13.3157   25.1767 C   0  0  0  0  0  0  0  0  0  0  0  0
    6.1921  -12.6947   25.6742 C   0  0  0  0  0  0  0  0  0  0  0  0
    6.1895  -12.2748   26.9865 C   0  0  0  0  0  0  0  0  0  0  0  0
    7.3186  -12.4919   27.7565 C   0  0  0  0  0  0  0  0  0  0  0  0
    8.4395  -13.1117   27.2553 C   0  0  0  0  0  0  0  0  0  0  0  0
    9.2207  -16.2167   26.7089 C   0  0  0  0  0  0  0  0  0  0  0  0
    8.0259  -16.8555   27.0081 O   0  0  0  0  0  0  0  0  0  0  0  0
   10.0621  -16.0756   27.6383 O   0  0  0  0  0  0  0  0  0  0  0  0
  2  1  1  6
  2  3  1  0
  3  4  1  0
  4  5  2  0
  5  6  1  0
  7  6  1  0
  8  4  1  0
  8  7  2  0
  9 10  2  0
  9  2  1  0
 11  9  1  0
 12 11  1  0
 13 14  1  0
 13 12  1  0
 14 15  1  0
 15 11  1  0
 15 16  1  6
 17 16  2  0
 18 16  1  0
 19 18  1  0
 19 20  1  1
 21 20  1  0
 21 22  2  0
 23 22  1  0
 24 23  2  0
 25 26  2  0
 25 24  1  0
 26 21  1  0
 27 19  1  0
 28 27  1  0
 29 27  2  0
M  END
$$$$
