TWH.pdb
     RDKit          3D

 32 34  0  0  1  0  0  0  0  0999 V2000
   25.7097  -32.4009  -16.0152 C   0  0  0  0  0  0  0  0  0  0  0  0
   27.0357  -33.1219  -16.1964 C   0  0  1  0  0  0  0  0  0  0  0  0
   27.4169  -33.1206  -17.5285 O   0  0  0  0  0  0  0  0  0  0  0  0
   28.0563  -32.4312  -15.3143 C   0  0  2  0  0  0  0  0  0  0  0  0
   29.3558  -32.3966  -15.9720 N   0  0  0  0  0  0  0  0  0  0  0  0
   28.1243  -33.1726  -14.0337 C   0  0  0  0  0  0  0  0  0  0  0  0
   29.0111  -34.0459  -13.8131 O   0  0  0  0  0  0  0  0  0  0  0  0
   27.1896  -32.9110  -13.0291 N   0  0  0  0  0  0  0  0  0  0  0  0
   27.2428  -33.6046  -11.7102 C   0  0  1  0  0  0  0  0  0  0  0  0
   26.8930  -32.5658  -10.7231 C   0  0  0  0  0  0  0  0  0  0  0  0
   26.8005  -32.9469   -9.3112 C   0  0  0  0  0  0  0  0  0  0  0  0
   27.6610  -33.6024   -8.4611 C   0  0  0  0  0  0  0  0  0  0  0  0
   27.1223  -33.7200   -7.2420 N   0  0  0  0  0  0  0  0  0  0  0  0
   25.9080  -33.1489   -7.2674 C   0  0  0  0  0  0  0  0  0  0  0  0
   24.9376  -32.9805   -6.2784 C   0  0  0  0  0  0  0  0  0  0  0  0
   23.7546  -32.3383   -6.5351 C   0  0  0  0  0  0  0  0  0  0  0  0
   23.5149  -31.8424   -7.8123 C   0  0  0  0  0  0  0  0  0  0  0  0
   24.4912  -32.0205   -8.7792 C   0  0  0  0  0  0  0  0  0  0  0  0
   25.6763  -32.6595   -8.5362 C   0  0  0  0  0  0  0  0  0  0  0  0
   26.4971  -34.8304  -11.7808 C   0  0  0  0  0  0  0  0  0  0  0  0
   25.3500  -34.8190  -12.3560 O   0  0  0  0  0  0  0  0  0  0  0  0
   26.8481  -36.1075  -11.3022 N   0  0  0  0  0  0  0  0  0  0  0  0
   26.0535  -37.2939  -11.4609 C   0  0  1  0  0  0  0  0  0  0  0  0
   26.8047  -38.5629  -11.4287 C   0  0  0  0  0  0  0  0  0  0  0  0
   25.9767  -39.7320  -11.7736 C   0  0  0  0  0  0  0  0  0  0  0  0
   25.7442  -40.2163  -13.0806 C   0  0  0  0  0  0  0  0  0  0  0  0
   24.9485  -41.2909  -13.0364 N   0  0  0  0  0  0  0  0  0  0  0  0
   24.6568  -41.5220  -11.7609 C   0  0  0  0  0  0  0  0  0  0  0  0
   25.2747  -40.5877  -11.0210 N   0  0  0  0  0  0  0  0  0  0  0  0
   25.0769  -37.2880  -10.3644 C   0  0  0  0  0  0  0  0  0  0  0  0
   25.5296  -37.1438   -9.0541 O   0  0  0  0  0  0  0  0  0  0  0  0
   23.8407  -37.4056  -10.4817 O   0  0  0  0  0  0  0  0  0  0  0  0
  2  1  1  6
  3  2  1  0
  4  5  1  6
  4  2  1  0
  6  4  1  0
  7  6  2  0
  8  6  1  0
  9  8  1  0
  9 10  1  1
 11 10  1  0
 11 12  2  0
 13 12  1  0
 14 13  1  0
 15 14  2  0
 16 15  1  0
 17 16  2  0
 17 18  1  0
 18 19  2  0
 19 14  1  0
 19 11  1  0
 20  9  1  0
 20 21  2  0
 22 20  1  0
 23 22  1  0
 23 24  1  1
 25 24  1  0
 25 26  2  0
 27 26  1  0
 28 27  1  0
 29 28  2  0
 29 25  1  0
 30 23  1  0
 31 30  1  0
 32 30  2  0
M  END
$$$$
