TWH.pdb
     RDKit          3D

 32 34  0  0  1  0  0  0  0  0999 V2000
   21.5067  -12.0406    6.5681 C   0  0  0  0  0  0  0  0  0  0  0  0
   20.9434  -11.3112    7.7771 C   0  0  1  0  0  0  0  0  0  0  0  0
   21.6929  -10.1811    8.0614 O   0  0  0  0  0  0  0  0  0  0  0  0
   19.4981  -10.9709    7.4736 C   0  0  2  0  0  0  0  0  0  0  0  0
   18.9162  -10.2043    8.5673 N   0  0  0  0  0  0  0  0  0  0  0  0
   18.7676  -12.2424    7.2636 C   0  0  0  0  0  0  0  0  0  0  0  0
   18.1657  -12.8312    8.2063 O   0  0  0  0  0  0  0  0  0  0  0  0
   18.7318  -12.8211    5.9927 N   0  0  0  0  0  0  0  0  0  0  0  0
   17.9565  -14.0654    5.7206 C   0  0  1  0  0  0  0  0  0  0  0  0
   17.6374  -14.0041    4.2817 C   0  0  0  0  0  0  0  0  0  0  0  0
   16.8662  -15.1007    3.6901 C   0  0  0  0  0  0  0  0  0  0  0  0
   15.5661  -15.5219    3.8489 C   0  0  0  0  0  0  0  0  0  0  0  0
   15.3184  -16.5897    3.0816 N   0  0  0  0  0  0  0  0  0  0  0  0
   16.4414  -16.8880    2.4096 C   0  0  0  0  0  0  0  0  0  0  0  0
   16.7303  -17.8838    1.4754 C   0  0  0  0  0  0  0  0  0  0  0  0
   17.9683  -17.9884    0.8971 C   0  0  0  0  0  0  0  0  0  0  0  0
   18.9609  -17.0804    1.2499 C   0  0  0  0  0  0  0  0  0  0  0  0
   18.6531  -16.0999    2.1793 C   0  0  0  0  0  0  0  0  0  0  0  0
   17.4216  -15.9843    2.7640 C   0  0  0  0  0  0  0  0  0  0  0  0
   18.6522  -15.1958    6.2702 C   0  0  0  0  0  0  0  0  0  0  0  0
   19.8954  -15.3472    5.9900 O   0  0  0  0  0  0  0  0  0  0  0  0
   18.1626  -16.2088    7.1172 N   0  0  0  0  0  0  0  0  0  0  0  0
   18.8881  -17.3906    7.4929 C   0  0  1  0  0  0  0  0  0  0  0  0
   19.3602  -17.4210    8.8900 C   0  0  0  0  0  0  0  0  0  0  0  0
   20.7254  -16.8895    9.0490 C   0  0  0  0  0  0  0  0  0  0  0  0
   21.0952  -15.5302    8.9374 C   0  0  0  0  0  0  0  0  0  0  0  0
   22.4110  -15.3953    9.1384 N   0  0  0  0  0  0  0  0  0  0  0  0
   22.9070  -16.6051    9.3744 C   0  0  0  0  0  0  0  0  0  0  0  0
   21.8939  -17.4841    9.3183 N   0  0  0  0  0  0  0  0  0  0  0  0
   17.9797  -18.5225    7.2701 C   0  0  0  0  0  0  0  0  0  0  0  0
   18.4620  -19.8204    7.4292 O   0  0  0  0  0  0  0  0  0  0  0  0
   16.7797  -18.4465    6.9384 O   0  0  0  0  0  0  0  0  0  0  0  0
  2  1  1  6
  3  2  1  0
  4  5  1  1
  4  2  1  0
  6  4  1  0
  7  6  2  0
  8  6  1  0
  9  8  1  0
  9 10  1  6
 11 10  1  0
 11 12  2  0
 13 12  1  0
 14 13  1  0
 15 14  2  0
 16 15  1  0
 17 16  2  0
 17 18  1  0
 18 19  2  0
 19 14  1  0
 19 11  1  0
 20  9  1  0
 20 21  2  0
 22 20  1  0
 23 22  1  0
 23 24  1  1
 25 24  1  0
 25 26  2  0
 27 26  1  0
 28 27  1  0
 29 28  2  0
 29 25  1  0
 30 23  1  0
 31 30  1  0
 32 30  2  0
M  END
$$$$
