TWH.pdb
     RDKit          3D

 32 34  0  0  1  0  0  0  0  0999 V2000
   26.9658  -19.8585  -16.6913 C   0  0  0  0  0  0  0  0  0  0  0  0
   27.4201  -18.8718  -15.6278 C   0  0  1  0  0  0  0  0  0  0  0  0
   26.3408  -18.1676  -15.1188 O   0  0  0  0  0  0  0  0  0  0  0  0
   28.1415  -19.6585  -14.5519 C   0  0  2  0  0  0  0  0  0  0  0  0
   29.2265  -20.4376  -15.1335 N   0  0  0  0  0  0  0  0  0  0  0  0
   27.1487  -20.5355  -13.8891 C   0  0  0  0  0  0  0  0  0  0  0  0
   26.8591  -21.6794  -14.3423 O   0  0  0  0  0  0  0  0  0  0  0  0
   26.5047  -20.1020  -12.7277 N   0  0  0  0  0  0  0  0  0  0  0  0
   25.5606  -20.9820  -11.9809 C   0  0  1  0  0  0  0  0  0  0  0  0
   25.8410  -20.7144  -10.5577 C   0  0  0  0  0  0  0  0  0  0  0  0
   27.1477  -21.1005  -10.0188 C   0  0  0  0  0  0  0  0  0  0  0  0
   28.1873  -21.8437  -10.5288 C   0  0  0  0  0  0  0  0  0  0  0  0
   29.1890  -21.9233   -9.6454 N   0  0  0  0  0  0  0  0  0  0  0  0
   28.8302  -21.2397   -8.5475 C   0  0  0  0  0  0  0  0  0  0  0  0
   29.4964  -20.9912   -7.3465 C   0  0  0  0  0  0  0  0  0  0  0  0
   28.9286  -20.2373   -6.3530 C   0  0  0  0  0  0  0  0  0  0  0  0
   27.6574  -19.7070   -6.5460 C   0  0  0  0  0  0  0  0  0  0  0  0
   27.0136  -19.9659   -7.7453 C   0  0  0  0  0  0  0  0  0  0  0  0
   27.5690  -20.7167   -8.7452 C   0  0  0  0  0  0  0  0  0  0  0  0
   24.2344  -20.8233  -12.5099 C   0  0  0  0  0  0  0  0  0  0  0  0
   23.7095  -19.6523  -12.5102 O   0  0  0  0  0  0  0  0  0  0  0  0
   23.3812  -21.7974  -13.0636 N   0  0  0  0  0  0  0  0  0  0  0  0
   22.1002  -21.5293  -13.6565 C   0  0  1  0  0  0  0  0  0  0  0  0
   21.2466  -20.5864  -12.9096 C   0  0  0  0  0  0  0  0  0  0  0  0
   20.7935  -21.1212  -11.6135 C   0  0  0  0  0  0  0  0  0  0  0  0
   21.1975  -22.3510  -11.0465 C   0  0  0  0  0  0  0  0  0  0  0  0
   20.5972  -22.5298   -9.8644 N   0  0  0  0  0  0  0  0  0  0  0  0
   19.8243  -21.4720   -9.6426 C   0  0  0  0  0  0  0  0  0  0  0  0
   19.9507  -20.6424  -10.6905 N   0  0  0  0  0  0  0  0  0  0  0  0
   22.3687  -20.9780  -14.9907 C   0  0  0  0  0  0  0  0  0  0  0  0
   21.5496  -21.3498  -16.0553 O   0  0  0  0  0  0  0  0  0  0  0  0
   23.2860  -20.1864  -15.2869 O   0  0  0  0  0  0  0  0  0  0  0  0
  2  1  1  6
  3  2  1  0
  4  5  1  6
  4  2  1  0
  6  4  1  0
  7  6  2  0
  8  6  1  0
  9  8  1  0
  9 10  1  1
 11 10  1  0
 11 12  2  0
 13 12  1  0
 14 13  1  0
 15 14  2  0
 16 15  1  0
 17 16  2  0
 17 18  1  0
 18 19  2  0
 19 14  1  0
 19 11  1  0
 20  9  1  0
 20 21  2  0
 22 20  1  0
 23 22  1  0
 23 24  1  1
 25 24  1  0
 25 26  2  0
 27 26  1  0
 28 27  1  0
 29 28  2  0
 29 25  1  0
 30 23  1  0
 31 30  1  0
 32 30  2  0
M  END
$$$$
