TWH.pdb
     RDKit          3D

 32 34  0  0  1  0  0  0  0  0999 V2000
   29.2225  -17.9309  -15.6141 C   0  0  0  0  0  0  0  0  0  0  0  0
   28.0836  -18.6995  -14.9635 C   0  0  1  0  0  0  0  0  0  0  0  0
   26.9324  -18.6126  -15.7296 O   0  0  0  0  0  0  0  0  0  0  0  0
   28.5408  -20.1338  -14.7886 C   0  0  2  0  0  0  0  0  0  0  0  0
   28.7301  -20.7686  -16.0862 N   0  0  0  0  0  0  0  0  0  0  0  0
   27.5136  -20.8428  -13.9908 C   0  0  0  0  0  0  0  0  0  0  0  0
   26.5293  -21.4223  -14.5321 O   0  0  0  0  0  0  0  0  0  0  0  0
   27.6209  -20.8829  -12.5986 N   0  0  0  0  0  0  0  0  0  0  0  0
   26.5626  -21.5014  -11.7494 C   0  0  1  0  0  0  0  0  0  0  0  0
   27.2087  -21.7207  -10.4415 C   0  0  0  0  0  0  0  0  0  0  0  0
   26.7443  -20.9376   -9.2932 C   0  0  0  0  0  0  0  0  0  0  0  0
   25.5606  -20.2926   -9.0182 C   0  0  0  0  0  0  0  0  0  0  0  0
   25.6121  -19.7017   -7.8190 N   0  0  0  0  0  0  0  0  0  0  0  0
   26.8203  -19.9451   -7.2874 C   0  0  0  0  0  0  0  0  0  0  0  0
   27.3905  -19.5813   -6.0665 C   0  0  0  0  0  0  0  0  0  0  0  0
   28.6609  -19.9648   -5.7246 C   0  0  0  0  0  0  0  0  0  0  0  0
   29.4002  -20.7351   -6.6161 C   0  0  0  0  0  0  0  0  0  0  0  0
   28.8154  -21.0849   -7.8225 C   0  0  0  0  0  0  0  0  0  0  0  0
   27.5483  -20.7088   -8.1760 C   0  0  0  0  0  0  0  0  0  0  0  0
   25.3537  -20.7320  -11.8506 C   0  0  0  0  0  0  0  0  0  0  0  0
   25.4456  -19.4650  -12.0321 O   0  0  0  0  0  0  0  0  0  0  0  0
   24.0176  -21.1728  -11.7878 N   0  0  0  0  0  0  0  0  0  0  0  0
   22.9041  -20.5191  -12.4178 C   0  0  1  0  0  0  0  0  0  0  0  0
   23.2332  -19.7428  -13.6281 C   0  0  0  0  0  0  0  0  0  0  0  0
   22.0696  -19.0394  -14.1960 C   0  0  0  0  0  0  0  0  0  0  0  0
   21.3694  -17.9790  -13.5778 C   0  0  0  0  0  0  0  0  0  0  0  0
   20.3672  -17.5713  -14.3647 N   0  0  0  0  0  0  0  0  0  0  0  0
   20.3886  -18.3199  -15.4622 C   0  0  0  0  0  0  0  0  0  0  0  0
   21.4058  -19.1886  -15.3487 N   0  0  0  0  0  0  0  0  0  0  0  0
   21.9497  -21.5771  -12.7728 C   0  0  0  0  0  0  0  0  0  0  0  0
   20.5854  -21.2923  -12.7584 O   0  0  0  0  0  0  0  0  0  0  0  0
   22.2373  -22.7474  -13.0946 O   0  0  0  0  0  0  0  0  0  0  0  0
  2  1  1  6
  3  2  1  0
  4  5  1  6
  4  2  1  0
  6  4  1  0
  7  6  2  0
  8  6  1  0
  9  8  1  0
  9 10  1  1
 11 10  1  0
 11 12  2  0
 13 12  1  0
 14 13  1  0
 15 14  2  0
 16 15  1  0
 17 16  2  0
 17 18  1  0
 18 19  2  0
 19 14  1  0
 19 11  1  0
 20  9  1  0
 20 21  2  0
 22 20  1  0
 23 22  1  0
 23 24  1  6
 25 24  1  0
 25 26  2  0
 27 26  1  0
 28 27  1  0
 29 28  2  0
 29 25  1  0
 30 23  1  0
 31 30  1  0
 32 30  2  0
M  END
$$$$
