TWH.pdb
     RDKit          3D

 32 34  0  0  1  0  0  0  0  0999 V2000
   26.7666  -18.7731  -15.1071 C   0  0  0  0  0  0  0  0  0  0  0  0
   27.4761  -20.0186  -15.6134 C   0  0  1  0  0  0  0  0  0  0  0  0
   28.3624  -19.6995  -16.6294 O   0  0  0  0  0  0  0  0  0  0  0  0
   28.1759  -20.6589  -14.4314 C   0  0  2  0  0  0  0  0  0  0  0  0
   29.0352  -21.7472  -14.8782 N   0  0  0  0  0  0  0  0  0  0  0  0
   27.1343  -21.1480  -13.4986 C   0  0  0  0  0  0  0  0  0  0  0  0
   26.5952  -22.2832  -13.6343 O   0  0  0  0  0  0  0  0  0  0  0  0
   26.7245  -20.3447  -12.4318 N   0  0  0  0  0  0  0  0  0  0  0  0
   25.7670  -20.8399  -11.4015 C   0  0  1  0  0  0  0  0  0  0  0  0
   26.2333  -20.2435  -10.1354 C   0  0  0  0  0  0  0  0  0  0  0  0
   27.5163  -20.6884   -9.5848 C   0  0  0  0  0  0  0  0  0  0  0  0
   28.5044  -21.5158  -10.0665 C   0  0  0  0  0  0  0  0  0  0  0  0
   29.5041  -21.6216   -9.1836 N   0  0  0  0  0  0  0  0  0  0  0  0
   29.1948  -20.8720   -8.1139 C   0  0  0  0  0  0  0  0  0  0  0  0
   29.8820  -20.6166   -6.9262 C   0  0  0  0  0  0  0  0  0  0  0  0
   29.3680  -19.7881   -5.9633 C   0  0  0  0  0  0  0  0  0  0  0  0
   28.1314  -19.1874   -6.1744 C   0  0  0  0  0  0  0  0  0  0  0  0
   27.4660  -19.4547   -7.3601 C   0  0  0  0  0  0  0  0  0  0  0  0
   27.9678  -20.2795   -8.3295 C   0  0  0  0  0  0  0  0  0  0  0  0
   24.4204  -20.6336  -11.8575 C   0  0  0  0  0  0  0  0  0  0  0  0
   24.0593  -19.4477  -12.1890 O   0  0  0  0  0  0  0  0  0  0  0  0
   23.3860  -21.5764  -12.0139 N   0  0  0  0  0  0  0  0  0  0  0  0
   22.0655  -21.2783  -12.4950 C   0  0  1  0  0  0  0  0  0  0  0  0
   21.5437  -22.2063  -13.5159 C   0  0  0  0  0  0  0  0  0  0  0  0
   22.0452  -21.9147  -14.8704 C   0  0  0  0  0  0  0  0  0  0  0  0
   22.8684  -20.8217  -15.2233 C   0  0  0  0  0  0  0  0  0  0  0  0
   23.1383  -20.8553  -16.5332 N   0  0  0  0  0  0  0  0  0  0  0  0
   22.5270  -21.9198  -17.0416 C   0  0  0  0  0  0  0  0  0  0  0  0
   21.8809  -22.5407  -16.0420 N   0  0  0  0  0  0  0  0  0  0  0  0
   21.1811  -21.3094  -11.3233 C   0  0  0  0  0  0  0  0  0  0  0  0
   19.8572  -20.8963  -11.4619 O   0  0  0  0  0  0  0  0  0  0  0  0
   21.4981  -21.6758  -10.1739 O   0  0  0  0  0  0  0  0  0  0  0  0
  2  1  1  1
  3  2  1  0
  4  5  1  6
  4  2  1  0
  6  4  1  0
  7  6  2  0
  8  6  1  0
  9  8  1  0
  9 10  1  1
 11 10  1  0
 11 12  2  0
 13 12  1  0
 14 13  1  0
 15 14  2  0
 16 15  1  0
 17 16  2  0
 17 18  1  0
 18 19  2  0
 19 14  1  0
 19 11  1  0
 20  9  1  0
 20 21  2  0
 22 20  1  0
 23 22  1  0
 23 24  1  6
 25 24  1  0
 25 26  2  0
 27 26  1  0
 28 27  1  0
 29 28  2  0
 29 25  1  0
 30 23  1  0
 31 30  1  0
 32 30  2  0
M  END
$$$$
