TWH.pdb
     RDKit          3D

 32 34  0  0  1  0  0  0  0  0999 V2000
   29.5056  -18.9990  -13.3858 C   0  0  0  0  0  0  0  0  0  0  0  0
   28.6068  -18.6886  -14.5719 C   0  0  1  0  0  0  0  0  0  0  0  0
   29.3457  -18.6169  -15.7418 O   0  0  0  0  0  0  0  0  0  0  0  0
   27.5459  -19.7689  -14.6371 C   0  0  2  0  0  0  0  0  0  0  0  0
   26.6870  -19.5681  -15.7966 N   0  0  0  0  0  0  0  0  0  0  0  0
   26.7668  -19.7155  -13.3784 C   0  0  0  0  0  0  0  0  0  0  0  0
   26.0038  -18.7456  -13.1051 O   0  0  0  0  0  0  0  0  0  0  0  0
   26.8655  -20.7596  -12.4556 N   0  0  0  0  0  0  0  0  0  0  0  0
   25.9087  -20.8937  -11.3198 C   0  0  1  0  0  0  0  0  0  0  0  0
   24.8152  -21.7332  -11.8447 C   0  0  0  0  0  0  0  0  0  0  0  0
   23.5413  -21.0912  -12.1800 C   0  0  0  0  0  0  0  0  0  0  0  0
   22.8679  -20.9123  -13.3664 C   0  0  0  0  0  0  0  0  0  0  0  0
   21.7216  -20.2526  -13.1641 N   0  0  0  0  0  0  0  0  0  0  0  0
   21.6206  -19.9878  -11.8521 C   0  0  0  0  0  0  0  0  0  0  0  0
   20.6323  -19.3441  -11.1059 C   0  0  0  0  0  0  0  0  0  0  0  0
   20.7375  -19.2007   -9.7471 C   0  0  0  0  0  0  0  0  0  0  0  0
   21.8566  -19.7087   -9.0959 C   0  0  0  0  0  0  0  0  0  0  0  0
   22.8259  -20.3438   -9.8555 C   0  0  0  0  0  0  0  0  0  0  0  0
   22.7330  -20.4938  -11.2123 C   0  0  0  0  0  0  0  0  0  0  0  0
   26.6217  -21.2756  -10.1325 C   0  0  0  0  0  0  0  0  0  0  0  0
   27.8724  -21.5466  -10.2279 O   0  0  0  0  0  0  0  0  0  0  0  0
   26.1421  -21.3968   -8.8139 N   0  0  0  0  0  0  0  0  0  0  0  0
   26.8889  -21.0654   -7.6321 C   0  0  1  0  0  0  0  0  0  0  0  0
   27.5293  -19.7367   -7.6449 C   0  0  0  0  0  0  0  0  0  0  0  0
   28.2908  -19.4519   -6.4159 C   0  0  0  0  0  0  0  0  0  0  0  0
   28.4063  -20.3152   -5.3031 C   0  0  0  0  0  0  0  0  0  0  0  0
   29.1682  -19.7487   -4.3607 N   0  0  0  0  0  0  0  0  0  0  0  0
   29.5495  -18.5595   -4.8141 C   0  0  0  0  0  0  0  0  0  0  0  0
   29.0207  -18.3958   -6.0372 N   0  0  0  0  0  0  0  0  0  0  0  0
   25.9413  -21.1290   -6.5122 C   0  0  0  0  0  0  0  0  0  0  0  0
   26.4205  -21.4077   -5.2335 O   0  0  0  0  0  0  0  0  0  0  0  0
   24.7078  -20.9579   -6.5837 O   0  0  0  0  0  0  0  0  0  0  0  0
  2  1  1  1
  3  2  1  0
  4  5  1  6
  4  2  1  0
  6  4  1  0
  7  6  2  0
  8  6  1  0
  9  8  1  0
  9 10  1  6
 11 10  1  0
 11 12  2  0
 13 12  1  0
 14 13  1  0
 15 14  2  0
 16 15  1  0
 17 16  2  0
 17 18  1  0
 18 19  2  0
 19 14  1  0
 19 11  1  0
 20  9  1  0
 20 21  2  0
 22 20  1  0
 23 22  1  0
 23 24  1  6
 25 24  1  0
 25 26  2  0
 27 26  1  0
 28 27  1  0
 29 28  2  0
 29 25  1  0
 30 23  1  0
 31 30  1  0
 32 30  2  0
M  END
$$$$
