TWH.pdb
     RDKit          3D

 32 34  0  0  1  0  0  0  0  0999 V2000
   43.4782  -14.1145   -7.7670 C   0  0  0  0  0  0  0  0  0  0  0  0
   44.2581  -14.1639   -9.0710 C   0  0  1  0  0  0  0  0  0  0  0  0
   44.8821  -15.3916   -9.2233 O   0  0  0  0  0  0  0  0  0  0  0  0
   43.2848  -13.8795  -10.1973 C   0  0  2  0  0  0  0  0  0  0  0  0
   43.9200  -14.1100  -11.4880 N   0  0  0  0  0  0  0  0  0  0  0  0
   42.8368  -12.4738  -10.0650 C   0  0  0  0  0  0  0  0  0  0  0  0
   43.5697  -11.5033  -10.4094 O   0  0  0  0  0  0  0  0  0  0  0  0
   41.5698  -12.1944   -9.5472 N   0  0  0  0  0  0  0  0  0  0  0  0
   41.1300  -10.7979   -9.2646 C   0  0  1  0  0  0  0  0  0  0  0  0
   39.6710  -10.8105   -9.4817 C   0  0  0  0  0  0  0  0  0  0  0  0
   38.9006   -9.6182   -9.1182 C   0  0  0  0  0  0  0  0  0  0  0  0
   38.7629   -8.3798   -9.7016 C   0  0  0  0  0  0  0  0  0  0  0  0
   37.9357   -7.6096   -8.9856 N   0  0  0  0  0  0  0  0  0  0  0  0
   37.5174   -8.3211   -7.9271 C   0  0  0  0  0  0  0  0  0  0  0  0
   36.6455   -8.0103   -6.8825 C   0  0  0  0  0  0  0  0  0  0  0  0
   36.3481   -8.9192   -5.9010 C   0  0  0  0  0  0  0  0  0  0  0  0
   36.9293  -10.1819   -5.9468 C   0  0  0  0  0  0  0  0  0  0  0  0
   37.7920  -10.4697   -6.9922 C   0  0  0  0  0  0  0  0  0  0  0  0
   38.0973   -9.5717   -7.9783 C   0  0  0  0  0  0  0  0  0  0  0  0
   41.6815  -10.3642   -8.0109 C   0  0  0  0  0  0  0  0  0  0  0  0
   41.5542  -11.1276   -6.9872 O   0  0  0  0  0  0  0  0  0  0  0  0
   42.3821   -9.1786   -7.7163 N   0  0  0  0  0  0  0  0  0  0  0  0
   42.7812   -8.7630   -6.4002 C   0  0  1  0  0  0  0  0  0  0  0  0
   44.1917   -9.0262   -6.0584 C   0  0  0  0  0  0  0  0  0  0  0  0
   44.5834   -8.4641   -4.7538 C   0  0  0  0  0  0  0  0  0  0  0  0
   44.9075   -9.2141   -3.6008 C   0  0  0  0  0  0  0  0  0  0  0  0
   45.2171   -8.3922   -2.5916 N   0  0  0  0  0  0  0  0  0  0  0  0
   45.1075   -7.1465   -3.0404 C   0  0  0  0  0  0  0  0  0  0  0  0
   44.7301   -7.2039   -4.3275 N   0  0  0  0  0  0  0  0  0  0  0  0
   42.5335   -7.3173   -6.3296 C   0  0  0  0  0  0  0  0  0  0  0  0
   42.2778   -6.7330   -5.0904 O   0  0  0  0  0  0  0  0  0  0  0  0
   42.5232   -6.5264   -7.2940 O   0  0  0  0  0  0  0  0  0  0  0  0
  2  1  1  1
  3  2  1  0
  4  5  1  6
  4  2  1  0
  6  4  1  0
  7  6  2  0
  8  6  1  0
  9  8  1  0
  9 10  1  1
 11 10  1  0
 11 12  2  0
 13 12  1  0
 14 13  1  0
 15 14  2  0
 16 15  1  0
 17 16  2  0
 17 18  1  0
 18 19  2  0
 19 14  1  0
 19 11  1  0
 20  9  1  0
 20 21  2  0
 22 20  1  0
 23 22  1  0
 23 24  1  6
 25 24  1  0
 25 26  2  0
 27 26  1  0
 28 27  1  0
 29 28  2  0
 29 25  1  0
 30 23  1  0
 31 30  1  0
 32 30  2  0
M  END
$$$$
