TWH.pdb
     RDKit          3D

 32 34  0  0  1  0  0  0  0  0999 V2000
   23.4613  -21.4062  -17.9971 C   0  0  0  0  0  0  0  0  0  0  0  0
   22.3775  -20.5562  -17.3537 C   0  0  1  0  0  0  0  0  0  0  0  0
   21.3305  -21.3486  -16.9113 O   0  0  0  0  0  0  0  0  0  0  0  0
   23.0176  -19.7788  -16.2212 C   0  0  2  0  0  0  0  0  0  0  0  0
   23.6005  -20.6901  -15.2453 N   0  0  0  0  0  0  0  0  0  0  0  0
   21.9705  -18.9322  -15.6040 C   0  0  0  0  0  0  0  0  0  0  0  0
   21.4392  -19.2276  -14.4957 O   0  0  0  0  0  0  0  0  0  0  0  0
   21.5464  -17.7693  -16.2514 N   0  0  0  0  0  0  0  0  0  0  0  0
   20.5360  -16.8578  -15.6416 C   0  0  1  0  0  0  0  0  0  0  0  0
   21.0326  -15.4986  -15.9279 C   0  0  0  0  0  0  0  0  0  0  0  0
   21.0686  -15.0475  -17.3216 C   0  0  0  0  0  0  0  0  0  0  0  0
   21.2024  -15.7145  -18.5175 C   0  0  0  0  0  0  0  0  0  0  0  0
   21.1790  -14.8554  -19.5428 N   0  0  0  0  0  0  0  0  0  0  0  0
   21.0305  -13.6178  -19.0448 C   0  0  0  0  0  0  0  0  0  0  0  0
   20.9317  -12.3709  -19.6639 C   0  0  0  0  0  0  0  0  0  0  0  0
   20.7643  -11.2203  -18.9387 C   0  0  0  0  0  0  0  0  0  0  0  0
   20.6915  -11.2969  -17.5518 C   0  0  0  0  0  0  0  0  0  0  0  0
   20.7921  -12.5445  -16.9574 C   0  0  0  0  0  0  0  0  0  0  0  0
   20.9591  -13.7007  -17.6696 C   0  0  0  0  0  0  0  0  0  0  0  0
   19.2182  -17.2585  -16.0498 C   0  0  0  0  0  0  0  0  0  0  0  0
   19.0780  -17.8452  -17.1824 O   0  0  0  0  0  0  0  0  0  0  0  0
   17.9969  -17.1091  -15.3645 N   0  0  0  0  0  0  0  0  0  0  0  0
   16.7184  -17.5432  -15.8554 C   0  0  1  0  0  0  0  0  0  0  0  0
   16.5694  -19.0017  -16.0181 C   0  0  0  0  0  0  0  0  0  0  0  0
   16.6043  -19.7311  -14.7382 C   0  0  0  0  0  0  0  0  0  0  0  0
   16.8088  -19.1490  -13.4669 C   0  0  0  0  0  0  0  0  0  0  0  0
   16.7822  -20.0941  -12.5205 N   0  0  0  0  0  0  0  0  0  0  0  0
   16.5699  -21.2592  -13.1227 C   0  0  0  0  0  0  0  0  0  0  0  0
   16.4660  -21.0288  -14.4411 N   0  0  0  0  0  0  0  0  0  0  0  0
   15.7202  -17.0650  -14.8904 C   0  0  0  0  0  0  0  0  0  0  0  0
   16.1477  -16.3665  -13.7627 O   0  0  0  0  0  0  0  0  0  0  0  0
   14.4858  -17.2247  -14.9711 O   0  0  0  0  0  0  0  0  0  0  0  0
  2  1  1  1
  3  2  1  0
  4  5  1  1
  4  2  1  0
  6  4  1  0
  7  6  2  0
  8  6  1  0
  9  8  1  0
  9 10  1  6
 11 10  1  0
 11 12  2  0
 13 12  1  0
 14 13  1  0
 15 14  2  0
 16 15  1  0
 17 16  2  0
 17 18  1  0
 18 19  2  0
 19 14  1  0
 19 11  1  0
 20  9  1  0
 20 21  2  0
 22 20  1  0
 23 22  1  0
 23 24  1  1
 25 24  1  0
 25 26  2  0
 27 26  1  0
 28 27  1  0
 29 28  2  0
 29 25  1  0
 30 23  1  0
 31 30  1  0
 32 30  2  0
M  END
$$$$
