TWH.pdb
     RDKit          3D

 32 34  0  0  1  0  0  0  0  0999 V2000
   27.4978  -23.0631  -18.5763 C   0  0  0  0  0  0  0  0  0  0  0  0
   26.5931  -22.6584  -17.4236 C   0  0  1  0  0  0  0  0  0  0  0  0
   25.3386  -23.2303  -17.5603 O   0  0  0  0  0  0  0  0  0  0  0  0
   27.2726  -23.0838  -16.1375 C   0  0  2  0  0  0  0  0  0  0  0  0
   27.4004  -24.5341  -16.0861 N   0  0  0  0  0  0  0  0  0  0  0  0
   26.4603  -22.5779  -15.0069 C   0  0  0  0  0  0  0  0  0  0  0  0
   25.8097  -23.3544  -14.2510 O   0  0  0  0  0  0  0  0  0  0  0  0
   26.4010  -21.2054  -14.7535 N   0  0  0  0  0  0  0  0  0  0  0  0
   25.5712  -20.6486  -13.6467 C   0  0  1  0  0  0  0  0  0  0  0  0
   26.4500  -19.6773  -12.9682 C   0  0  0  0  0  0  0  0  0  0  0  0
   27.4916  -20.1855  -12.0715 C   0  0  0  0  0  0  0  0  0  0  0  0
   28.7994  -20.5613  -12.2750 C   0  0  0  0  0  0  0  0  0  0  0  0
   29.3582  -20.9669  -11.1291 N   0  0  0  0  0  0  0  0  0  0  0  0
   28.4363  -20.8662  -10.1587 C   0  0  0  0  0  0  0  0  0  0  0  0
   28.4906  -21.1400   -8.7912 C   0  0  0  0  0  0  0  0  0  0  0  0
   27.4071  -20.9422   -7.9758 C   0  0  0  0  0  0  0  0  0  0  0  0
   26.2246  -20.4572   -8.5243 C   0  0  0  0  0  0  0  0  0  0  0  0
   26.1922  -20.1922   -9.8839 C   0  0  0  0  0  0  0  0  0  0  0  0
   27.2664  -20.3850  -10.7090 C   0  0  0  0  0  0  0  0  0  0  0  0
   24.2914  -20.2461  -14.1603 C   0  0  0  0  0  0  0  0  0  0  0  0
   24.1925  -19.9610  -15.4076 O   0  0  0  0  0  0  0  0  0  0  0  0
   23.0660  -20.1175  -13.4784 N   0  0  0  0  0  0  0  0  0  0  0  0
   21.8610  -20.8268  -13.8088 C   0  0  1  0  0  0  0  0  0  0  0  0
   21.9534  -22.2965  -13.7252 C   0  0  0  0  0  0  0  0  0  0  0  0
   20.7630  -22.9804  -14.2605 C   0  0  0  0  0  0  0  0  0  0  0  0
   19.6042  -22.3427  -14.7581 C   0  0  0  0  0  0  0  0  0  0  0  0
   18.7164  -23.2573  -15.1642 N   0  0  0  0  0  0  0  0  0  0  0  0
   19.2490  -24.4558  -14.9515 C   0  0  0  0  0  0  0  0  0  0  0  0
   20.4660  -24.2765  -14.4139 N   0  0  0  0  0  0  0  0  0  0  0  0
   20.8339  -20.3578  -12.8700 C   0  0  0  0  0  0  0  0  0  0  0  0
   19.4966  -20.3789  -13.2621 O   0  0  0  0  0  0  0  0  0  0  0  0
   21.0355  -19.9232  -11.7183 O   0  0  0  0  0  0  0  0  0  0  0  0
  2  1  1  6
  3  2  1  0
  4  5  1  6
  4  2  1  0
  6  4  1  0
  7  6  2  0
  8  6  1  0
  9  8  1  0
  9 10  1  6
 11 10  1  0
 11 12  2  0
 13 12  1  0
 14 13  1  0
 15 14  2  0
 16 15  1  0
 17 16  2  0
 17 18  1  0
 18 19  2  0
 19 14  1  0
 19 11  1  0
 20  9  1  0
 20 21  2  0
 22 20  1  0
 23 22  1  0
 23 24  1  1
 25 24  1  0
 25 26  2  0
 27 26  1  0
 28 27  1  0
 29 28  2  0
 29 25  1  0
 30 23  1  0
 31 30  1  0
 32 30  2  0
M  END
$$$$
