TWH.pdb
     RDKit          3D

 32 34  0  0  1  0  0  0  0  0999 V2000
   16.1489  -17.7862    8.8802 C   0  0  0  0  0  0  0  0  0  0  0  0
   15.0126  -18.4487    8.1181 C   0  0  1  0  0  0  0  0  0  0  0  0
   13.9329  -17.5883    8.0012 O   0  0  0  0  0  0  0  0  0  0  0  0
   15.5522  -18.8680    6.7654 C   0  0  2  0  0  0  0  0  0  0  0  0
   14.4623  -19.0343    5.8130 N   0  0  0  0  0  0  0  0  0  0  0  0
   16.3007  -20.1331    6.9483 C   0  0  0  0  0  0  0  0  0  0  0  0
   15.8005  -21.1244    7.5523 O   0  0  0  0  0  0  0  0  0  0  0  0
   17.5980  -20.2518    6.4440 N   0  0  0  0  0  0  0  0  0  0  0  0
   18.3853  -21.5090    6.5966 C   0  0  1  0  0  0  0  0  0  0  0  0
   18.8780  -21.8127    5.2398 C   0  0  0  0  0  0  0  0  0  0  0  0
   17.9957  -22.5395    4.3230 C   0  0  0  0  0  0  0  0  0  0  0  0
   16.9435  -22.1460    3.5286 C   0  0  0  0  0  0  0  0  0  0  0  0
   16.4408  -23.1897    2.8592 N   0  0  0  0  0  0  0  0  0  0  0  0
   17.1471  -24.2797    3.1977 C   0  0  0  0  0  0  0  0  0  0  0  0
   17.0569  -25.6112    2.7892 C   0  0  0  0  0  0  0  0  0  0  0  0
   17.9132  -26.5685    3.2670 C   0  0  0  0  0  0  0  0  0  0  0  0
   18.8959  -26.2044    4.1816 C   0  0  0  0  0  0  0  0  0  0  0  0
   18.9677  -24.8775    4.5740 C   0  0  0  0  0  0  0  0  0  0  0  0
   18.1194  -23.9121    4.1047 C   0  0  0  0  0  0  0  0  0  0  0  0
   19.3001  -21.3733    7.6960 C   0  0  0  0  0  0  0  0  0  0  0  0
   20.1721  -20.4326    7.6566 O   0  0  0  0  0  0  0  0  0  0  0  0
   19.3888  -22.1427    8.8722 N   0  0  0  0  0  0  0  0  0  0  0  0
   20.3530  -21.9407    9.9180 C   0  0  1  0  0  0  0  0  0  0  0  0
   19.7872  -21.7519   11.2670 C   0  0  0  0  0  0  0  0  0  0  0  0
   19.1201  -20.4489   11.4353 C   0  0  0  0  0  0  0  0  0  0  0  0
   19.2125  -19.3579   10.5419 C   0  0  0  0  0  0  0  0  0  0  0  0
   18.4849  -18.3310   10.9957 N   0  0  0  0  0  0  0  0  0  0  0  0
   17.9273  -18.7093   12.1408 C   0  0  0  0  0  0  0  0  0  0  0  0
   18.3133  -19.9707   12.3902 N   0  0  0  0  0  0  0  0  0  0  0  0
   21.2143  -23.1299    9.9224 C   0  0  0  0  0  0  0  0  0  0  0  0
   22.2380  -23.2221   10.8637 O   0  0  0  0  0  0  0  0  0  0  0  0
   21.1287  -24.1012    9.1446 O   0  0  0  0  0  0  0  0  0  0  0  0
  2  1  1  1
  3  2  1  0
  4  5  1  6
  4  2  1  0
  6  4  1  0
  7  6  2  0
  8  6  1  0
  9  8  1  0
  9 10  1  6
 11 10  1  0
 11 12  2  0
 13 12  1  0
 14 13  1  0
 15 14  2  0
 16 15  1  0
 17 16  2  0
 17 18  1  0
 18 19  2  0
 19 14  1  0
 19 11  1  0
 20  9  1  0
 20 21  2  0
 22 20  1  0
 23 22  1  0
 23 24  1  1
 25 24  1  0
 25 26  2  0
 27 26  1  0
 28 27  1  0
 29 28  2  0
 29 25  1  0
 30 23  1  0
 31 30  1  0
 32 30  2  0
M  END
$$$$
