TWH.pdb
     RDKit          3D

 32 34  0  0  1  0  0  0  0  0999 V2000
   37.8944  -26.9713    2.9384 C   0  0  0  0  0  0  0  0  0  0  0  0
   39.2829  -26.8129    3.5367 C   0  0  1  0  0  0  0  0  0  0  0  0
   40.2536  -27.2338    2.6421 O   0  0  0  0  0  0  0  0  0  0  0  0
   39.4547  -25.3554    3.9147 C   0  0  2  0  0  0  0  0  0  0  0  0
   40.8258  -25.0974    4.3340 N   0  0  0  0  0  0  0  0  0  0  0  0
   38.4965  -25.0536    5.0033 C   0  0  0  0  0  0  0  0  0  0  0  0
   38.7416  -25.3432    6.2090 O   0  0  0  0  0  0  0  0  0  0  0  0
   37.2821  -24.4301    4.7068 N   0  0  0  0  0  0  0  0  0  0  0  0
   36.2587  -24.1687    5.7594 C   0  0  1  0  0  0  0  0  0  0  0  0
   35.5984  -22.9176    5.3413 C   0  0  0  0  0  0  0  0  0  0  0  0
   34.5426  -22.3662    6.1948 C   0  0  0  0  0  0  0  0  0  0  0  0
   34.3890  -22.2878    7.5598 C   0  0  0  0  0  0  0  0  0  0  0  0
   33.2353  -21.6863    7.8715 N   0  0  0  0  0  0  0  0  0  0  0  0
   32.6141  -21.3604    6.7271 C   0  0  0  0  0  0  0  0  0  0  0  0
   31.4036  -20.7123    6.4770 C   0  0  0  0  0  0  0  0  0  0  0  0
   30.9700  -20.4685    5.2001 C   0  0  0  0  0  0  0  0  0  0  0  0
   31.7553  -20.8771    4.1273 C   0  0  0  0  0  0  0  0  0  0  0  0
   32.9531  -21.5190    4.3978 C   0  0  0  0  0  0  0  0  0  0  0  0
   33.3975  -21.7684    5.6675 C   0  0  0  0  0  0  0  0  0  0  0  0
   35.4916  -25.3610    5.9912 C   0  0  0  0  0  0  0  0  0  0  0  0
   34.9935  -25.9768    4.9815 O   0  0  0  0  0  0  0  0  0  0  0  0
   35.1931  -25.9966    7.2120 N   0  0  0  0  0  0  0  0  0  0  0  0
   34.3775  -27.1712    7.3514 C   0  0  1  0  0  0  0  0  0  0  0  0
   35.0036  -28.2883    8.0833 C   0  0  0  0  0  0  0  0  0  0  0  0
   35.8525  -29.1349    7.2266 C   0  0  0  0  0  0  0  0  0  0  0  0
   36.0630  -28.9510    5.8414 C   0  0  0  0  0  0  0  0  0  0  0  0
   36.8870  -29.8954    5.3737 N   0  0  0  0  0  0  0  0  0  0  0  0
   37.2178  -30.6803    6.3934 C   0  0  0  0  0  0  0  0  0  0  0  0
   36.5957  -30.2167    7.4890 N   0  0  0  0  0  0  0  0  0  0  0  0
   33.1652  -26.7510    8.0655 C   0  0  0  0  0  0  0  0  0  0  0  0
   32.1032  -27.6458    8.1834 O   0  0  0  0  0  0  0  0  0  0  0  0
   32.9737  -25.6380    8.5950 O   0  0  0  0  0  0  0  0  0  0  0  0
  2  1  1  6
  3  2  1  0
  4  5  1  1
  4  2  1  0
  6  4  1  0
  7  6  2  0
  8  6  1  0
  9  8  1  0
  9 10  1  6
 11 10  1  0
 11 12  2  0
 13 12  1  0
 14 13  1  0
 15 14  2  0
 16 15  1  0
 17 16  2  0
 17 18  1  0
 18 19  2  0
 19 14  1  0
 19 11  1  0
 20  9  1  0
 20 21  2  0
 22 20  1  0
 23 22  1  0
 23 24  1  1
 25 24  1  0
 25 26  2  0
 27 26  1  0
 28 27  1  0
 29 28  2  0
 29 25  1  0
 30 23  1  0
 31 30  1  0
 32 30  2  0
M  END
$$$$
