TWH.pdb
     RDKit          3D

 32 34  0  0  1  0  0  0  0  0999 V2000
   23.7852  -10.7466  -20.0324 C   0  0  0  0  0  0  0  0  0  0  0  0
   22.8893  -11.8856  -20.4917 C   0  0  1  0  0  0  0  0  0  0  0  0
   23.1444  -12.2076  -21.8149 O   0  0  0  0  0  0  0  0  0  0  0  0
   23.1320  -13.0605  -19.5657 C   0  0  2  0  0  0  0  0  0  0  0  0
   22.4936  -14.2607  -20.0896 N   0  0  0  0  0  0  0  0  0  0  0  0
   22.5923  -12.7059  -18.2326 C   0  0  0  0  0  0  0  0  0  0  0  0
   21.3500  -12.6729  -18.0015 O   0  0  0  0  0  0  0  0  0  0  0  0
   23.4675  -12.3972  -17.1885 N   0  0  0  0  0  0  0  0  0  0  0  0
   22.9728  -12.1071  -15.8120 C   0  0  1  0  0  0  0  0  0  0  0  0
   23.8115  -12.9373  -14.9269 C   0  0  0  0  0  0  0  0  0  0  0  0
   23.7470  -14.3944  -15.0688 C   0  0  0  0  0  0  0  0  0  0  0  0
   24.6567  -15.3336  -15.4970 C   0  0  0  0  0  0  0  0  0  0  0  0
   24.1263  -16.5610  -15.4497 N   0  0  0  0  0  0  0  0  0  0  0  0
   22.8686  -16.4528  -14.9933 C   0  0  0  0  0  0  0  0  0  0  0  0
   21.8849  -17.4099  -14.7399 C   0  0  0  0  0  0  0  0  0  0  0  0
   20.6532  -17.0615  -14.2505 C   0  0  0  0  0  0  0  0  0  0  0  0
   20.3767  -15.7215  -14.0004 C   0  0  0  0  0  0  0  0  0  0  0  0
   21.3672  -14.7877  -14.2592 C   0  0  0  0  0  0  0  0  0  0  0  0
   22.6007  -15.1221  -14.7476 C   0  0  0  0  0  0  0  0  0  0  0  0
   22.8877  -10.6858  -15.6209 C   0  0  0  0  0  0  0  0  0  0  0  0
   23.8797   -9.9570  -15.9835 O   0  0  0  0  0  0  0  0  0  0  0  0
   21.8309   -9.9285  -15.0796 N   0  0  0  0  0  0  0  0  0  0  0  0
   21.8070   -8.4948  -14.9889 C   0  0  1  0  0  0  0  0  0  0  0  0
   20.7795   -7.8297  -15.8122 C   0  0  0  0  0  0  0  0  0  0  0  0
   21.0314   -7.9526  -17.2588 C   0  0  0  0  0  0  0  0  0  0  0  0
   20.4862   -8.9438  -18.1057 C   0  0  0  0  0  0  0  0  0  0  0  0
   20.9196   -8.7650  -19.3586 N   0  0  0  0  0  0  0  0  0  0  0  0
   21.7194   -7.7040  -19.3591 C   0  0  0  0  0  0  0  0  0  0  0  0
   21.7769   -7.2307  -18.1042 N   0  0  0  0  0  0  0  0  0  0  0  0
   21.5700   -8.1732  -13.5760 C   0  0  0  0  0  0  0  0  0  0  0  0
   21.5807   -6.8390  -13.1732 O   0  0  0  0  0  0  0  0  0  0  0  0
   21.3554   -8.9946  -12.6621 O   0  0  0  0  0  0  0  0  0  0  0  0
  2  1  1  1
  3  2  1  0
  4  5  1  6
  4  2  1  0
  6  4  1  0
  7  6  2  0
  8  6  1  0
  9  8  1  0
  9 10  1  1
 11 10  1  0
 11 12  2  0
 13 12  1  0
 14 13  1  0
 15 14  2  0
 16 15  1  0
 17 16  2  0
 17 18  1  0
 18 19  2  0
 19 14  1  0
 19 11  1  0
 20  9  1  0
 20 21  2  0
 22 20  1  0
 23 22  1  0
 23 24  1  6
 25 24  1  0
 25 26  2  0
 27 26  1  0
 28 27  1  0
 29 28  2  0
 29 25  1  0
 30 23  1  0
 31 30  1  0
 32 30  2  0
M  END
$$$$
