TWH.pdb
     RDKit          3D

 32 34  0  0  1  0  0  0  0  0999 V2000
   27.0361  -17.6756  -16.4157 C   0  0  0  0  0  0  0  0  0  0  0  0
   27.6837  -18.7637  -17.2570 C   0  0  1  0  0  0  0  0  0  0  0  0
   28.4393  -18.2100  -18.2780 O   0  0  0  0  0  0  0  0  0  0  0  0
   28.5238  -19.6194  -16.3304 C   0  0  2  0  0  0  0  0  0  0  0  0
   29.3177  -20.5703  -17.0973 N   0  0  0  0  0  0  0  0  0  0  0  0
   27.6055  -20.3165  -15.4003 C   0  0  0  0  0  0  0  0  0  0  0  0
   26.9651  -21.3509  -15.7432 O   0  0  0  0  0  0  0  0  0  0  0  0
   27.4310  -19.8307  -14.1023 N   0  0  0  0  0  0  0  0  0  0  0  0
   26.5468  -20.5215  -13.1201 C   0  0  1  0  0  0  0  0  0  0  0  0
   27.1290  -20.2067  -11.8018 C   0  0  0  0  0  0  0  0  0  0  0  0
   26.4126  -20.6423  -10.6000 C   0  0  0  0  0  0  0  0  0  0  0  0
   25.4783  -21.6265  -10.3732 C   0  0  0  0  0  0  0  0  0  0  0  0
   25.1097  -21.6407   -9.0872 N   0  0  0  0  0  0  0  0  0  0  0  0
   25.7889  -20.6744   -8.4495 C   0  0  0  0  0  0  0  0  0  0  0  0
   25.7978  -20.2689   -7.1141 C   0  0  0  0  0  0  0  0  0  0  0  0
   26.6010  -19.2473   -6.6791 C   0  0  0  0  0  0  0  0  0  0  0  0
   27.4273  -18.5987   -7.5907 C   0  0  0  0  0  0  0  0  0  0  0  0
   27.4028  -19.0168   -8.9115 C   0  0  0  0  0  0  0  0  0  0  0  0
   26.6060  -20.0351   -9.3587 C   0  0  0  0  0  0  0  0  0  0  0  0
   25.1738  -20.2126  -13.4084 C   0  0  0  0  0  0  0  0  0  0  0  0
   24.8517  -18.9892  -13.6235 O   0  0  0  0  0  0  0  0  0  0  0  0
   24.0730  -21.0856  -13.5056 N   0  0  0  0  0  0  0  0  0  0  0  0
   22.7215  -20.6803  -13.7765 C   0  0  1  0  0  0  0  0  0  0  0  0
   21.9173  -21.6476  -14.5467 C   0  0  0  0  0  0  0  0  0  0  0  0
   20.5498  -21.1718  -14.8205 C   0  0  0  0  0  0  0  0  0  0  0  0
   20.1838  -20.2725  -15.8472 C   0  0  0  0  0  0  0  0  0  0  0  0
   18.8645  -20.0529  -15.8153 N   0  0  0  0  0  0  0  0  0  0  0  0
   18.3625  -20.7692  -14.8152 C   0  0  0  0  0  0  0  0  0  0  0  0
   19.3755  -21.4297  -14.2323 N   0  0  0  0  0  0  0  0  0  0  0  0
   22.0854  -20.4610  -12.4714 C   0  0  0  0  0  0  0  0  0  0  0  0
   21.2659  -19.3475  -12.2951 O   0  0  0  0  0  0  0  0  0  0  0  0
   22.2057  -21.1877  -11.4648 O   0  0  0  0  0  0  0  0  0  0  0  0
  2  1  1  1
  3  2  1  0
  4  5  1  6
  4  2  1  0
  6  4  1  0
  7  6  2  0
  8  6  1  0
  9  8  1  0
  9 10  1  1
 11 10  1  0
 11 12  2  0
 13 12  1  0
 14 13  1  0
 15 14  2  0
 16 15  1  0
 17 16  2  0
 17 18  1  0
 18 19  2  0
 19 14  1  0
 19 11  1  0
 20  9  1  0
 20 21  2  0
 22 20  1  0
 23 22  1  0
 23 24  1  1
 25 24  1  0
 25 26  2  0
 27 26  1  0
 28 27  1  0
 29 28  2  0
 29 25  1  0
 30 23  1  0
 31 30  1  0
 32 30  2  0
M  END
$$$$
