TWH.pdb
     RDKit          3D

 32 34  0  0  1  0  0  0  0  0999 V2000
   26.7799  -23.5347  -18.5046 C   0  0  0  0  0  0  0  0  0  0  0  0
   25.9148  -23.2445  -17.2887 C   0  0  1  0  0  0  0  0  0  0  0  0
   24.6349  -23.7445  -17.4666 O   0  0  0  0  0  0  0  0  0  0  0  0
   26.5997  -23.8565  -16.0833 C   0  0  2  0  0  0  0  0  0  0  0  0
   26.5769  -25.3106  -16.1698 N   0  0  0  0  0  0  0  0  0  0  0  0
   25.8933  -23.3815  -14.8710 C   0  0  0  0  0  0  0  0  0  0  0  0
   25.2567  -24.1704  -14.1160 O   0  0  0  0  0  0  0  0  0  0  0  0
   25.9219  -22.0254  -14.5368 N   0  0  0  0  0  0  0  0  0  0  0  0
   25.2948  -21.5143  -13.2842 C   0  0  1  0  0  0  0  0  0  0  0  0
   26.1719  -20.4123  -12.8456 C   0  0  0  0  0  0  0  0  0  0  0  0
   27.2534  -20.7132  -11.9039 C   0  0  0  0  0  0  0  0  0  0  0  0
   28.5833  -21.0222  -12.0745 C   0  0  0  0  0  0  0  0  0  0  0  0
   29.1778  -21.2198  -10.8924 N   0  0  0  0  0  0  0  0  0  0  0  0
   28.2580  -21.0459   -9.9304 C   0  0  0  0  0  0  0  0  0  0  0  0
   28.3415  -21.1168   -8.5390 C   0  0  0  0  0  0  0  0  0  0  0  0
   27.2526  -20.8804   -7.7414 C   0  0  0  0  0  0  0  0  0  0  0  0
   26.0345  -20.5624   -8.3328 C   0  0  0  0  0  0  0  0  0  0  0  0
   25.9735  -20.4975   -9.7155 C   0  0  0  0  0  0  0  0  0  0  0  0
   27.0528  -20.7310  -10.5232 C   0  0  0  0  0  0  0  0  0  0  0  0
   23.8925  -21.2928  -13.5039 C   0  0  0  0  0  0  0  0  0  0  0  0
   23.5319  -20.6101  -14.5290 O   0  0  0  0  0  0  0  0  0  0  0  0
   22.7969  -21.7366  -12.7383 N   0  0  0  0  0  0  0  0  0  0  0  0
   21.4193  -21.4489  -13.0275 C   0  0  1  0  0  0  0  0  0  0  0  0
   20.4402  -22.1061  -12.1414 C   0  0  0  0  0  0  0  0  0  0  0  0
   19.0454  -21.8988  -12.5691 C   0  0  0  0  0  0  0  0  0  0  0  0
   18.4569  -22.4338  -13.7372 C   0  0  0  0  0  0  0  0  0  0  0  0
   17.1781  -22.0502  -13.8229 N   0  0  0  0  0  0  0  0  0  0  0  0
   16.9145  -21.2924  -12.7639 C   0  0  0  0  0  0  0  0  0  0  0  0
   18.0336  -21.2106  -12.0268 N   0  0  0  0  0  0  0  0  0  0  0  0
   21.2673  -19.9930  -12.9122 C   0  0  0  0  0  0  0  0  0  0  0  0
   21.8717  -19.3306  -11.8452 O   0  0  0  0  0  0  0  0  0  0  0  0
   20.6298  -19.2574  -13.6922 O   0  0  0  0  0  0  0  0  0  0  0  0
  2  1  1  6
  3  2  1  0
  4  5  1  6
  4  2  1  0
  6  4  1  0
  7  6  2  0
  8  6  1  0
  9  8  1  0
  9 10  1  6
 11 10  1  0
 11 12  2  0
 13 12  1  0
 14 13  1  0
 15 14  2  0
 16 15  1  0
 17 16  2  0
 17 18  1  0
 18 19  2  0
 19 14  1  0
 19 11  1  0
 20  9  1  0
 20 21  2  0
 22 20  1  0
 23 22  1  0
 23 24  1  1
 25 24  1  0
 25 26  2  0
 27 26  1  0
 28 27  1  0
 29 28  2  0
 29 25  1  0
 30 23  1  0
 31 30  1  0
 32 30  2  0
M  END
$$$$
