TWH.pdb
     RDKit          3D

 32 34  0  0  1  0  0  0  0  0999 V2000
   26.2374  -23.2541  -18.5267 C   0  0  0  0  0  0  0  0  0  0  0  0
   25.0420  -23.0633  -17.6072 C   0  0  1  0  0  0  0  0  0  0  0  0
   24.0225  -23.9408  -17.9394 O   0  0  0  0  0  0  0  0  0  0  0  0
   25.5224  -23.2656  -16.1842 C   0  0  2  0  0  0  0  0  0  0  0  0
   25.9733  -24.6373  -15.9903 N   0  0  0  0  0  0  0  0  0  0  0  0
   24.3991  -22.9382  -15.2757 C   0  0  0  0  0  0  0  0  0  0  0  0
   23.7990  -23.8275  -14.6073 O   0  0  0  0  0  0  0  0  0  0  0  0
   23.9782  -21.6131  -15.1410 N   0  0  0  0  0  0  0  0  0  0  0  0
   22.9740  -21.2110  -14.1146 C   0  0  1  0  0  0  0  0  0  0  0  0
   23.6014  -20.0881  -13.3924 C   0  0  0  0  0  0  0  0  0  0  0  0
   24.5925  -20.3909  -12.3564 C   0  0  0  0  0  0  0  0  0  0  0  0
   25.9564  -20.5685  -12.3902 C   0  0  0  0  0  0  0  0  0  0  0  0
   26.4287  -20.8339  -11.1669 N   0  0  0  0  0  0  0  0  0  0  0  0
   25.3931  -20.8357  -10.3130 C   0  0  0  0  0  0  0  0  0  0  0  0
   25.3240  -21.0394   -8.9339 C   0  0  0  0  0  0  0  0  0  0  0  0
   24.1339  -20.9769   -8.2575 C   0  0  0  0  0  0  0  0  0  0  0  0
   22.9663  -20.7040   -8.9624 C   0  0  0  0  0  0  0  0  0  0  0  0
   23.0572  -20.5052  -10.3307 C   0  0  0  0  0  0  0  0  0  0  0  0
   24.2387  -20.5647  -11.0180 C   0  0  0  0  0  0  0  0  0  0  0  0
   21.6874  -21.0570  -14.7348 C   0  0  0  0  0  0  0  0  0  0  0  0
   21.6244  -20.4952  -15.8869 O   0  0  0  0  0  0  0  0  0  0  0  0
   20.4230  -21.4532  -14.2576 N   0  0  0  0  0  0  0  0  0  0  0  0
   19.1763  -21.2130  -14.9302 C   0  0  1  0  0  0  0  0  0  0  0  0
   18.6385  -22.3598  -15.6861 C   0  0  0  0  0  0  0  0  0  0  0  0
   19.2871  -22.5417  -16.9966 C   0  0  0  0  0  0  0  0  0  0  0  0
   19.7896  -23.7622  -17.5015 C   0  0  0  0  0  0  0  0  0  0  0  0
   20.3136  -23.5740  -18.7179 N   0  0  0  0  0  0  0  0  0  0  0  0
   20.1724  -22.2881  -19.0211 C   0  0  0  0  0  0  0  0  0  0  0  0
   19.5605  -21.6861  -17.9889 N   0  0  0  0  0  0  0  0  0  0  0  0
   18.2121  -20.8304  -13.8909 C   0  0  0  0  0  0  0  0  0  0  0  0
   18.0382  -21.6640  -12.7876 O   0  0  0  0  0  0  0  0  0  0  0  0
   17.5029  -19.8043  -13.8894 O   0  0  0  0  0  0  0  0  0  0  0  0
  2  1  1  6
  3  2  1  0
  4  5  1  6
  4  2  1  0
  6  4  1  0
  7  6  2  0
  8  6  1  0
  9  8  1  0
  9 10  1  6
 11 10  1  0
 11 12  2  0
 13 12  1  0
 14 13  1  0
 15 14  2  0
 16 15  1  0
 17 16  2  0
 17 18  1  0
 18 19  2  0
 19 14  1  0
 19 11  1  0
 20  9  1  0
 20 21  2  0
 22 20  1  0
 23 22  1  0
 23 24  1  1
 25 24  1  0
 25 26  2  0
 27 26  1  0
 28 27  1  0
 29 28  2  0
 29 25  1  0
 30 23  1  0
 31 30  1  0
 32 30  2  0
M  END
$$$$
