SHM.pdb
     RDKit          3D

 25 25  0  0  1  0  0  0  0  0999 V2000
    9.5148  -11.7339   18.3300 O   0  0  0  0  0  0  0  0  0  0  0  0
    8.9865  -12.4754   19.3851 C   0  0  0  0  0  0  0  0  0  0  0  0
    8.7296  -13.9182   18.9439 C   0  0  2  0  0  0  0  0  0  0  0  0
    7.6136  -13.9649   18.0555 N   0  0  0  0  0  0  0  0  0  0  0  0
    8.6152  -14.8212   20.1025 C   0  0  0  0  0  0  0  0  0  0  0  0
    7.5190  -14.9024   20.7154 O   0  0  0  0  0  0  0  0  0  0  0  0
    9.6745  -15.6287   20.5941 N   0  0  0  0  0  0  0  0  0  0  0  0
    9.5508  -16.5507   21.6963 C   0  0  1  0  0  0  0  0  0  0  0  0
   10.7109  -17.4973   21.8077 C   0  0  0  0  0  0  0  0  0  0  0  0
   10.5780  -18.4430   22.9345 C   0  0  0  0  0  0  0  0  0  0  0  0
    9.6446  -19.4274   23.1599 C   0  0  0  0  0  0  0  0  0  0  0  0
    9.9009  -20.0546   24.3179 N   0  0  0  0  0  0  0  0  0  0  0  0
   10.9961  -19.4687   24.8270 C   0  0  0  0  0  0  0  0  0  0  0  0
   11.4053  -18.4967   23.9936 N   0  0  0  0  0  0  0  0  0  0  0  0
    9.5021  -15.7518   22.9515 C   0  0  0  0  0  0  0  0  0  0  0  0
   10.0863  -14.6437   23.0807 O   0  0  0  0  0  0  0  0  0  0  0  0
    6.6914  -11.3833   27.6936 C   0  0  0  0  0  0  0  0  0  0  0  0
    7.0603  -12.3397   26.2509 S   0  0  0  0  0  0  0  0  0  0  0  0
    6.7205  -14.0734   26.3728 C   0  0  0  0  0  0  0  0  0  0  0  0
    7.1976  -14.8392   25.1997 C   0  0  0  0  0  0  0  0  0  0  0  0
    8.5819  -15.3919   25.2814 C   0  0  2  0  0  0  0  0  0  0  0  0
    8.7756  -16.2225   24.0794 N   0  0  0  0  0  0  0  0  0  0  0  0
    8.7040  -16.3577   26.4202 C   0  0  0  0  0  0  0  0  0  0  0  0
    8.7261  -17.7412   26.1785 O   0  0  0  0  0  0  0  0  0  0  0  0
    8.7904  -16.0012   27.6116 O   0  0  0  0  0  0  0  0  0  0  0  0
  2  1  1  0
  2  3  1  0
  3  4  1  1
  5  3  1  0
  5  6  2  0
  7  5  1  0
  8  7  1  0
  8  9  1  1
 10 14  1  0
 10  9  1  0
 11 10  2  0
 12 11  1  0
 12 13  1  0
 13 14  2  0
 15  8  1  0
 16 15  2  0
 18 17  1  0
 19 18  1  0
 20 19  1  0
 21 20  1  6
 21 22  1  0
 22 15  1  0
 23 21  1  0
 24 23  1  0
 25 23  2  0
M  END
$$$$
