SHM.pdb
     RDKit          3D

 25 25  0  0  1  0  0  0  0  0999 V2000
    9.2735  -16.5241   17.3804 O   0  0  0  0  0  0  0  0  0  0  0  0
    9.3923  -17.2200   18.5819 C   0  0  0  0  0  0  0  0  0  0  0  0
    8.1802  -18.1309   18.7902 C   0  0  2  0  0  0  0  0  0  0  0  0
    7.3018  -18.0373   17.6692 N   0  0  0  0  0  0  0  0  0  0  0  0
    7.5310  -17.8719   20.0873 C   0  0  0  0  0  0  0  0  0  0  0  0
    6.4257  -17.2707   20.1147 O   0  0  0  0  0  0  0  0  0  0  0  0
    8.0705  -18.2587   21.3423 N   0  0  0  0  0  0  0  0  0  0  0  0
    7.4156  -18.0466   22.6097 C   0  0  1  0  0  0  0  0  0  0  0  0
    7.4665  -19.2476   23.5093 C   0  0  0  0  0  0  0  0  0  0  0  0
    6.5341  -20.3168   23.0978 C   0  0  0  0  0  0  0  0  0  0  0  0
    5.6355  -20.3571   22.0578 C   0  0  0  0  0  0  0  0  0  0  0  0
    4.9858  -21.5311   22.0500 N   0  0  0  0  0  0  0  0  0  0  0  0
    5.4719  -22.2351   23.0843 C   0  0  0  0  0  0  0  0  0  0  0  0
    6.4057  -21.5039   23.7170 N   0  0  0  0  0  0  0  0  0  0  0  0
    8.1229  -16.9360   23.3043 C   0  0  0  0  0  0  0  0  0  0  0  0
    9.3371  -16.6677   23.1060 O   0  0  0  0  0  0  0  0  0  0  0  0
    6.3902  -10.3033   27.3406 C   0  0  0  0  0  0  0  0  0  0  0  0
    5.9937  -11.8614   26.6008 S   0  0  0  0  0  0  0  0  0  0  0  0
    7.3745  -12.8153   26.0355 C   0  0  0  0  0  0  0  0  0  0  0  0
    6.9721  -14.0623   25.3477 C   0  0  0  0  0  0  0  0  0  0  0  0
    8.0755  -14.9443   24.8650 C   0  0  2  0  0  0  0  0  0  0  0  0
    7.4357  -16.1165   24.2413 N   0  0  0  0  0  0  0  0  0  0  0  0
    8.8451  -15.5143   26.0172 C   0  0  0  0  0  0  0  0  0  0  0  0
    9.8998  -14.7884   26.5949 O   0  0  0  0  0  0  0  0  0  0  0  0
    8.6021  -16.6310   26.5150 O   0  0  0  0  0  0  0  0  0  0  0  0
  2  1  1  0
  2  3  1  0
  3  4  1  6
  5  3  1  0
  5  6  2  0
  7  5  1  0
  8  7  1  0
  8  9  1  1
 10 14  1  0
 10  9  1  0
 11 10  2  0
 12 11  1  0
 12 13  1  0
 13 14  2  0
 15  8  1  0
 16 15  2  0
 18 17  1  0
 19 18  1  0
 20 19  1  0
 21 20  1  1
 21 22  1  0
 22 15  1  0
 23 21  1  0
 24 23  1  0
 25 23  2  0
M  END
$$$$
