SHM.pdb
     RDKit          3D

 25 25  0  0  1  0  0  0  0  0999 V2000
    8.0545  -13.8372   17.4387 O   0  0  0  0  0  0  0  0  0  0  0  0
    7.5500  -13.0689   18.4862 C   0  0  0  0  0  0  0  0  0  0  0  0
    8.5364  -13.0534   19.6564 C   0  0  2  0  0  0  0  0  0  0  0  0
    9.8757  -13.0165   19.1645 N   0  0  0  0  0  0  0  0  0  0  0  0
    8.2703  -14.1558   20.5970 C   0  0  0  0  0  0  0  0  0  0  0  0
    7.1145  -14.2927   21.0758 O   0  0  0  0  0  0  0  0  0  0  0  0
    9.2434  -15.1009   21.0163 N   0  0  0  0  0  0  0  0  0  0  0  0
    8.9889  -16.1715   21.9487 C   0  0  1  0  0  0  0  0  0  0  0  0
    9.6913  -17.4485   21.5878 C   0  0  0  0  0  0  0  0  0  0  0  0
    9.0773  -18.1391   20.4356 C   0  0  0  0  0  0  0  0  0  0  0  0
    7.7854  -18.5706   20.2467 C   0  0  0  0  0  0  0  0  0  0  0  0
    7.6610  -19.1534   19.0445 N   0  0  0  0  0  0  0  0  0  0  0  0
    8.8730  -19.0917   18.4710 C   0  0  0  0  0  0  0  0  0  0  0  0
    9.7280  -18.4802   19.3090 N   0  0  0  0  0  0  0  0  0  0  0  0
    9.4963  -15.7418   23.2806 C   0  0  0  0  0  0  0  0  0  0  0  0
   10.6787  -15.3520   23.4696 O   0  0  0  0  0  0  0  0  0  0  0  0
    5.9324  -10.7920   26.1422 C   0  0  0  0  0  0  0  0  0  0  0  0
    6.2649  -12.4645   26.6161 S   0  0  0  0  0  0  0  0  0  0  0  0
    7.7024  -13.1969   25.8860 C   0  0  0  0  0  0  0  0  0  0  0  0
    7.9548  -14.5745   26.3643 C   0  0  0  0  0  0  0  0  0  0  0  0
    9.1023  -15.2978   25.7408 C   0  0  2  0  0  0  0  0  0  0  0  0
    8.6426  -15.7561   24.4175 N   0  0  0  0  0  0  0  0  0  0  0  0
    9.4026  -16.5629   26.4849 C   0  0  0  0  0  0  0  0  0  0  0  0
    9.1239  -17.8113   25.9044 O   0  0  0  0  0  0  0  0  0  0  0  0
    9.9019  -16.5813   27.6271 O   0  0  0  0  0  0  0  0  0  0  0  0
  2  1  1  0
  2  3  1  0
  3  4  1  6
  5  3  1  0
  5  6  2  0
  7  5  1  0
  8  7  1  0
  8  9  1  6
 10 14  1  0
 10  9  1  0
 11 10  2  0
 12 11  1  0
 12 13  1  0
 13 14  2  0
 15  8  1  0
 16 15  2  0
 18 17  1  0
 19 18  1  0
 20 19  1  0
 21 20  1  1
 21 22  1  0
 22 15  1  0
 23 21  1  0
 24 23  1  0
 25 23  2  0
M  END
$$$$
