SHM.pdb
     RDKit          3D

 25 25  0  0  1  0  0  0  0  0999 V2000
   14.8548  -14.0888   20.6097 O   0  0  0  0  0  0  0  0  0  0  0  0
   14.6875  -15.2835   19.9122 C   0  0  0  0  0  0  0  0  0  0  0  0
   13.2969  -15.3362   19.2750 C   0  0  2  0  0  0  0  0  0  0  0  0
   13.0581  -14.1445   18.5267 N   0  0  0  0  0  0  0  0  0  0  0  0
   12.2588  -15.6365   20.2765 C   0  0  0  0  0  0  0  0  0  0  0  0
   11.4921  -14.7172   20.6650 O   0  0  0  0  0  0  0  0  0  0  0  0
   12.0510  -16.9174   20.8527 N   0  0  0  0  0  0  0  0  0  0  0  0
   11.0426  -17.2111   21.8412 C   0  0  1  0  0  0  0  0  0  0  0  0
   10.6234  -18.6528   21.8472 C   0  0  0  0  0  0  0  0  0  0  0  0
    9.7700  -19.0104   20.6959 C   0  0  0  0  0  0  0  0  0  0  0  0
    8.5955  -18.4476   20.2548 C   0  0  0  0  0  0  0  0  0  0  0  0
    8.1533  -19.0901   19.1630 N   0  0  0  0  0  0  0  0  0  0  0  0
    9.0467  -20.0600   18.9116 C   0  0  0  0  0  0  0  0  0  0  0  0
   10.0221  -20.0129   19.8353 N   0  0  0  0  0  0  0  0  0  0  0  0
   11.6186  -16.9062   23.1797 C   0  0  0  0  0  0  0  0  0  0  0  0
   12.8526  -16.9650   23.4234 O   0  0  0  0  0  0  0  0  0  0  0  0
    9.5429  -12.9058   29.7197 C   0  0  0  0  0  0  0  0  0  0  0  0
    9.2112  -13.7103   28.1786 S   0  0  0  0  0  0  0  0  0  0  0  0
   10.5287  -14.7011   27.5318 C   0  0  0  0  0  0  0  0  0  0  0  0
   10.2583  -15.2006   26.1652 C   0  0  0  0  0  0  0  0  0  0  0  0
   11.3208  -16.0423   25.5397 C   0  0  2  0  0  0  0  0  0  0  0  0
   10.7748  -16.5277   24.2597 N   0  0  0  0  0  0  0  0  0  0  0  0
   11.5522  -17.2888   26.3379 C   0  0  0  0  0  0  0  0  0  0  0  0
   10.9495  -18.4987   25.9558 O   0  0  0  0  0  0  0  0  0  0  0  0
   12.2708  -17.3242   27.3560 O   0  0  0  0  0  0  0  0  0  0  0  0
  2  1  1  0
  2  3  1  0
  3  4  1  1
  5  3  1  0
  5  6  2  0
  7  5  1  0
  8  7  1  0
  8  9  1  1
 10 14  1  0
 10  9  1  0
 11 10  2  0
 12 11  1  0
 12 13  1  0
 13 14  2  0
 15  8  1  0
 16 15  2  0
 18 17  1  0
 19 18  1  0
 20 19  1  0
 21 20  1  1
 21 22  1  0
 22 15  1  0
 23 21  1  0
 24 23  1  0
 25 23  2  0
M  END
$$$$
