SHM.pdb
     RDKit          3D

 25 25  0  0  1  0  0  0  0  0999 V2000
    9.8219  -12.4876   20.0184 O   0  0  0  0  0  0  0  0  0  0  0  0
    8.7098  -12.5424   19.1804 C   0  0  0  0  0  0  0  0  0  0  0  0
    8.4243  -13.9892   18.7707 C   0  0  2  0  0  0  0  0  0  0  0  0
    7.3343  -14.0291   17.8502 N   0  0  0  0  0  0  0  0  0  0  0  0
    8.2495  -14.8561   19.9492 C   0  0  0  0  0  0  0  0  0  0  0  0
    7.1197  -14.9293   20.4988 O   0  0  0  0  0  0  0  0  0  0  0  0
    9.2849  -15.6361   20.5282 N   0  0  0  0  0  0  0  0  0  0  0  0
    9.0902  -16.5769   21.6040 C   0  0  1  0  0  0  0  0  0  0  0  0
    9.9871  -17.7772   21.5086 C   0  0  0  0  0  0  0  0  0  0  0  0
    9.5181  -18.7711   20.5217 C   0  0  0  0  0  0  0  0  0  0  0  0
    8.2758  -19.3367   20.3553 C   0  0  0  0  0  0  0  0  0  0  0  0
    8.2916  -20.1992   19.3277 N   0  0  0  0  0  0  0  0  0  0  0  0
    9.5430  -20.1809   18.8424 C   0  0  0  0  0  0  0  0  0  0  0  0
   10.2836  -19.3201   19.5616 N   0  0  0  0  0  0  0  0  0  0  0  0
    9.4100  -15.8786   22.8793 C   0  0  0  0  0  0  0  0  0  0  0  0
   10.4534  -15.1923   23.0409 O   0  0  0  0  0  0  0  0  0  0  0  0
    6.0638  -10.7833   27.0143 C   0  0  0  0  0  0  0  0  0  0  0  0
    6.0463  -12.4925   26.5552 S   0  0  0  0  0  0  0  0  0  0  0  0
    7.6093  -13.1738   26.0769 C   0  0  0  0  0  0  0  0  0  0  0  0
    7.5160  -14.5866   25.6462 C   0  0  0  0  0  0  0  0  0  0  0  0
    8.7938  -15.2501   25.2521 C   0  0  2  0  0  0  0  0  0  0  0  0
    8.5265  -15.9631   23.9901 N   0  0  0  0  0  0  0  0  0  0  0  0
    9.1512  -16.3361   26.2202 C   0  0  0  0  0  0  0  0  0  0  0  0
    9.8854  -16.0396   27.3805 O   0  0  0  0  0  0  0  0  0  0  0  0
    8.8282  -17.5292   26.0579 O   0  0  0  0  0  0  0  0  0  0  0  0
  2  1  1  0
  2  3  1  0
  3  4  1  6
  5  3  1  0
  5  6  2  0
  7  5  1  0
  8  7  1  0
  8  9  1  6
 10 14  1  0
 10  9  1  0
 11 10  2  0
 12 11  1  0
 12 13  1  0
 13 14  2  0
 15  8  1  0
 16 15  2  0
 18 17  1  0
 19 18  1  0
 20 19  1  0
 21 20  1  1
 21 22  1  0
 22 15  1  0
 23 21  1  0
 24 23  1  0
 25 23  2  0
M  END
$$$$
