SHM.pdb
     RDKit          3D

 25 25  0  0  1  0  0  0  0  0999 V2000
   10.1045  -16.4448   18.7345 O   0  0  0  0  0  0  0  0  0  0  0  0
    9.9966  -17.8271   18.8751 C   0  0  0  0  0  0  0  0  0  0  0  0
    8.5244  -18.2436   18.9151 C   0  0  2  0  0  0  0  0  0  0  0  0
    7.8501  -17.7631   17.7526 N   0  0  0  0  0  0  0  0  0  0  0  0
    7.8898  -17.8500   20.1853 C   0  0  0  0  0  0  0  0  0  0  0  0
    7.0556  -16.9077   20.1920 O   0  0  0  0  0  0  0  0  0  0  0  0
    8.1538  -18.4682   21.4359 N   0  0  0  0  0  0  0  0  0  0  0  0
    7.4384  -18.1780   22.6542 C   0  0  1  0  0  0  0  0  0  0  0  0
    7.3617  -19.3512   23.5879 C   0  0  0  0  0  0  0  0  0  0  0  0
    6.2948  -20.3070   23.2272 C   0  0  0  0  0  0  0  0  0  0  0  0
    5.3392  -20.2377   22.2409 C   0  0  0  0  0  0  0  0  0  0  0  0
    4.5643  -21.3328   22.2665 N   0  0  0  0  0  0  0  0  0  0  0  0
    5.0280  -22.0965   23.2683 C   0  0  0  0  0  0  0  0  0  0  0  0
    6.0716  -21.4789   23.8484 N   0  0  0  0  0  0  0  0  0  0  0  0
    8.1696  -17.0903   23.3602 C   0  0  0  0  0  0  0  0  0  0  0  0
    9.4056  -16.8939   23.2209 O   0  0  0  0  0  0  0  0  0  0  0  0
    6.6729  -10.3603   27.3419 C   0  0  0  0  0  0  0  0  0  0  0  0
    6.2135  -11.8397   26.4860 S   0  0  0  0  0  0  0  0  0  0  0  0
    7.5435  -12.9379   26.0850 C   0  0  0  0  0  0  0  0  0  0  0  0
    7.0992  -14.1326   25.3329 C   0  0  0  0  0  0  0  0  0  0  0  0
    8.1644  -15.0885   24.9086 C   0  0  2  0  0  0  0  0  0  0  0  0
    7.4815  -16.2107   24.2402 N   0  0  0  0  0  0  0  0  0  0  0  0
    8.8236  -15.7149   26.0992 C   0  0  0  0  0  0  0  0  0  0  0  0
    9.9368  -15.1026   26.6984 O   0  0  0  0  0  0  0  0  0  0  0  0
    8.4349  -16.7827   26.6120 O   0  0  0  0  0  0  0  0  0  0  0  0
  2  1  1  0
  2  3  1  0
  3  4  1  6
  5  3  1  0
  5  6  2  0
  7  5  1  0
  8  7  1  0
  8  9  1  1
 10 14  1  0
 10  9  1  0
 11 10  2  0
 12 11  1  0
 12 13  1  0
 13 14  2  0
 15  8  1  0
 16 15  2  0
 18 17  1  0
 19 18  1  0
 20 19  1  0
 21 20  1  1
 21 22  1  0
 22 15  1  0
 23 21  1  0
 24 23  1  0
 25 23  2  0
M  END
$$$$
