SHM.pdb
     RDKit          3D

 25 25  0  0  1  0  0  0  0  0999 V2000
   11.8611  -16.5817   17.9526 O   0  0  0  0  0  0  0  0  0  0  0  0
   12.8908  -17.1302   18.7148 C   0  0  0  0  0  0  0  0  0  0  0  0
   12.3167  -17.9121   19.8987 C   0  0  2  0  0  0  0  0  0  0  0  0
   11.3936  -18.8954   19.4318 N   0  0  0  0  0  0  0  0  0  0  0  0
   11.7659  -17.0073   20.9228 C   0  0  0  0  0  0  0  0  0  0  0  0
   12.5059  -16.1228   21.4268 O   0  0  0  0  0  0  0  0  0  0  0  0
   10.4288  -17.0576   21.3979 N   0  0  0  0  0  0  0  0  0  0  0  0
    9.8877  -16.1727   22.4002 C   0  0  1  0  0  0  0  0  0  0  0  0
    8.4311  -15.8706   22.1970 C   0  0  0  0  0  0  0  0  0  0  0  0
    8.1900  -14.8906   21.1185 C   0  0  0  0  0  0  0  0  0  0  0  0
    9.0790  -14.2529   20.2855 C   0  0  0  0  0  0  0  0  0  0  0  0
    8.4250  -13.4370   19.4447 N   0  0  0  0  0  0  0  0  0  0  0  0
    7.1220  -13.5570   19.7439 C   0  0  0  0  0  0  0  0  0  0  0  0
    6.9790  -14.4333   20.7531 N   0  0  0  0  0  0  0  0  0  0  0  0
   10.0258  -16.8463   23.7206 C   0  0  0  0  0  0  0  0  0  0  0  0
   10.4417  -18.0282   23.8460 O   0  0  0  0  0  0  0  0  0  0  0  0
   10.4755  -12.0806   29.0398 C   0  0  0  0  0  0  0  0  0  0  0  0
   10.2801  -13.8373   28.9505 S   0  0  0  0  0  0  0  0  0  0  0  0
   10.2034  -14.5182   27.3176 C   0  0  0  0  0  0  0  0  0  0  0  0
    9.4180  -15.7708   27.2506 C   0  0  0  0  0  0  0  0  0  0  0  0
    9.8589  -16.7821   26.2450 C   0  0  2  0  0  0  0  0  0  0  0  0
    9.6844  -16.1621   24.9193 N   0  0  0  0  0  0  0  0  0  0  0  0
    8.9294  -17.9569   26.2276 C   0  0  0  0  0  0  0  0  0  0  0  0
    9.1684  -19.0638   27.0588 O   0  0  0  0  0  0  0  0  0  0  0  0
    7.9209  -18.0190   25.4974 O   0  0  0  0  0  0  0  0  0  0  0  0
  2  1  1  0
  2  3  1  0
  3  4  1  6
  5  3  1  0
  5  6  2  0
  7  5  1  0
  8  7  1  0
  8  9  1  6
 10 14  1  0
 10  9  1  0
 11 10  2  0
 12 11  1  0
 12 13  1  0
 13 14  2  0
 15  8  1  0
 16 15  2  0
 18 17  1  0
 19 18  1  0
 20 19  1  0
 21 20  1  1
 21 22  1  0
 22 15  1  0
 23 21  1  0
 24 23  1  0
 25 23  2  0
M  END
$$$$
