SHM.pdb
     RDKit          3D

 25 25  0  0  1  0  0  0  0  0999 V2000
    9.7843  -11.7221   18.8527 O   0  0  0  0  0  0  0  0  0  0  0  0
    9.0984  -12.4646   19.8120 C   0  0  0  0  0  0  0  0  0  0  0  0
    8.7014  -13.8291   19.2436 C   0  0  2  0  0  0  0  0  0  0  0  0
    7.6566  -13.6720   18.2840 N   0  0  0  0  0  0  0  0  0  0  0  0
    8.3929  -14.7888   20.3181 C   0  0  0  0  0  0  0  0  0  0  0  0
    7.2046  -14.9097   20.7147 O   0  0  0  0  0  0  0  0  0  0  0  0
    9.3585  -15.6099   20.9578 N   0  0  0  0  0  0  0  0  0  0  0  0
    9.0561  -16.5623   21.9979 C   0  0  1  0  0  0  0  0  0  0  0  0
    9.7529  -17.8793   21.8136 C   0  0  0  0  0  0  0  0  0  0  0  0
    9.0622  -18.7690   20.8580 C   0  0  0  0  0  0  0  0  0  0  0  0
    7.7201  -19.0148   20.6871 C   0  0  0  0  0  0  0  0  0  0  0  0
    7.5320  -19.8998   19.6964 N   0  0  0  0  0  0  0  0  0  0  0  0
    8.7539  -20.2154   19.2389 C   0  0  0  0  0  0  0  0  0  0  0  0
    9.6775  -19.5341   19.9387 N   0  0  0  0  0  0  0  0  0  0  0  0
    9.5216  -15.9856   23.2889 C   0  0  0  0  0  0  0  0  0  0  0  0
   10.6631  -15.4755   23.4387 O   0  0  0  0  0  0  0  0  0  0  0  0
    5.8968  -11.0087   26.4178 C   0  0  0  0  0  0  0  0  0  0  0  0
    6.1877  -12.7318   26.6983 S   0  0  0  0  0  0  0  0  0  0  0  0
    7.6432  -13.3970   25.9402 C   0  0  0  0  0  0  0  0  0  0  0  0
    7.9166  -14.7947   26.3423 C   0  0  0  0  0  0  0  0  0  0  0  0
    9.1111  -15.4450   25.7269 C   0  0  2  0  0  0  0  0  0  0  0  0
    8.6727  -15.9898   24.4295 N   0  0  0  0  0  0  0  0  0  0  0  0
    9.5250  -16.6518   26.5123 C   0  0  0  0  0  0  0  0  0  0  0  0
   10.3329  -16.5137   27.6531 O   0  0  0  0  0  0  0  0  0  0  0  0
    9.1871  -17.8128   26.2090 O   0  0  0  0  0  0  0  0  0  0  0  0
  2  1  1  0
  2  3  1  0
  3  4  1  6
  5  3  1  0
  5  6  2  0
  7  5  1  0
  8  7  1  0
  8  9  1  6
 10 14  1  0
 10  9  1  0
 11 10  2  0
 12 11  1  0
 12 13  1  0
 13 14  2  0
 15  8  1  0
 16 15  2  0
 18 17  1  0
 19 18  1  0
 20 19  1  0
 21 20  1  1
 21 22  1  0
 22 15  1  0
 23 21  1  0
 24 23  1  0
 25 23  2  0
M  END
$$$$
