SHM.pdb
     RDKit          3D

 25 25  0  0  1  0  0  0  0  0999 V2000
   10.0367  -13.3713   20.2278 O   0  0  0  0  0  0  0  0  0  0  0  0
    9.5198  -14.2507   19.2783 C   0  0  0  0  0  0  0  0  0  0  0  0
    7.9942  -14.3102   19.3845 C   0  0  2  0  0  0  0  0  0  0  0  0
    7.4316  -13.0458   19.0359 N   0  0  0  0  0  0  0  0  0  0  0  0
    7.5673  -14.8171   20.7005 C   0  0  0  0  0  0  0  0  0  0  0  0
    7.0131  -14.0324   21.5135 O   0  0  0  0  0  0  0  0  0  0  0  0
    7.7375  -16.1583   21.1339 N   0  0  0  0  0  0  0  0  0  0  0  0
    7.3990  -16.6367   22.4519 C   0  0  1  0  0  0  0  0  0  0  0  0
    7.4801  -18.1307   22.5769 C   0  0  0  0  0  0  0  0  0  0  0  0
    7.0370  -18.6243   23.8966 C   0  0  0  0  0  0  0  0  0  0  0  0
    6.5382  -17.9369   24.9781 C   0  0  0  0  0  0  0  0  0  0  0  0
    6.2607  -18.7848   25.9802 N   0  0  0  0  0  0  0  0  0  0  0  0
    6.5831  -20.0094   25.5349 C   0  0  0  0  0  0  0  0  0  0  0  0
    7.0514  -19.9139   24.2785 N   0  0  0  0  0  0  0  0  0  0  0  0
    8.3773  -16.0530   23.4102 C   0  0  0  0  0  0  0  0  0  0  0  0
    9.5853  -15.8511   23.1175 O   0  0  0  0  0  0  0  0  0  0  0  0
    5.3061  -10.8409   26.3516 C   0  0  0  0  0  0  0  0  0  0  0  0
    6.2220  -12.1902   27.0391 S   0  0  0  0  0  0  0  0  0  0  0  0
    7.2797  -13.0527   25.9107 C   0  0  0  0  0  0  0  0  0  0  0  0
    8.0192  -14.1651   26.5479 C   0  0  0  0  0  0  0  0  0  0  0  0
    8.8800  -14.9936   25.6529 C   0  0  2  0  0  0  0  0  0  0  0  0
    7.9732  -15.6927   24.7249 N   0  0  0  0  0  0  0  0  0  0  0  0
    9.5423  -16.0960   26.4213 C   0  0  0  0  0  0  0  0  0  0  0  0
   10.7042  -15.8418   27.1688 O   0  0  0  0  0  0  0  0  0  0  0  0
    9.1146  -17.2668   26.4418 O   0  0  0  0  0  0  0  0  0  0  0  0
  2  1  1  0
  2  3  1  0
  3  4  1  1
  5  3  1  0
  5  6  2  0
  7  5  1  0
  8  7  1  0
  8  9  1  6
 10 14  1  0
 10  9  1  0
 11 10  2  0
 12 11  1  0
 12 13  1  0
 13 14  2  0
 15  8  1  0
 16 15  2  0
 18 17  1  0
 19 18  1  0
 20 19  1  0
 21 20  1  1
 21 22  1  0
 22 15  1  0
 23 21  1  0
 24 23  1  0
 25 23  2  0
M  END
$$$$
