SHM.pdb
     RDKit          3D

 25 25  0  0  1  0  0  0  0  0999 V2000
   11.2571  -12.9345   18.8484 O   0  0  0  0  0  0  0  0  0  0  0  0
   10.6151  -14.1651   18.7251 C   0  0  0  0  0  0  0  0  0  0  0  0
    9.0985  -13.9854   18.8256 C   0  0  2  0  0  0  0  0  0  0  0  0
    8.7528  -12.6208   18.5904 N   0  0  0  0  0  0  0  0  0  0  0  0
    8.5764  -14.5293   20.0915 C   0  0  0  0  0  0  0  0  0  0  0  0
    7.8480  -13.8061   20.8197 O   0  0  0  0  0  0  0  0  0  0  0  0
    8.8386  -15.8415   20.5660 N   0  0  0  0  0  0  0  0  0  0  0  0
    8.1918  -16.4379   21.7089 C   0  0  1  0  0  0  0  0  0  0  0  0
    8.2668  -17.9374   21.7144 C   0  0  0  0  0  0  0  0  0  0  0  0
    7.3781  -18.5633   20.7143 C   0  0  0  0  0  0  0  0  0  0  0  0
    6.0741  -18.2770   20.3850 C   0  0  0  0  0  0  0  0  0  0  0  0
    5.6488  -19.0987   19.4133 N   0  0  0  0  0  0  0  0  0  0  0  0
    6.6822  -19.9058   19.1263 C   0  0  0  0  0  0  0  0  0  0  0  0
    7.7257  -19.5840   19.9102 N   0  0  0  0  0  0  0  0  0  0  0  0
    8.8900  -15.9497   22.9297 C   0  0  0  0  0  0  0  0  0  0  0  0
   10.1330  -15.7538   22.9753 O   0  0  0  0  0  0  0  0  0  0  0  0
    5.6335  -11.9514   26.5802 C   0  0  0  0  0  0  0  0  0  0  0  0
    6.8961  -12.3667   27.7489 S   0  0  0  0  0  0  0  0  0  0  0  0
    8.1327  -13.4957   27.1727 C   0  0  0  0  0  0  0  0  0  0  0  0
    7.7853  -14.1208   25.8770 C   0  0  0  0  0  0  0  0  0  0  0  0
    8.7931  -15.0560   25.2955 C   0  0  2  0  0  0  0  0  0  0  0  0
    8.1600  -15.6797   24.1197 N   0  0  0  0  0  0  0  0  0  0  0  0
    9.0551  -16.2020   26.2242 C   0  0  0  0  0  0  0  0  0  0  0  0
    9.9629  -16.0615   27.2869 O   0  0  0  0  0  0  0  0  0  0  0  0
    8.5001  -17.3127   26.1118 O   0  0  0  0  0  0  0  0  0  0  0  0
  2  1  1  0
  2  3  1  0
  3  4  1  1
  5  3  1  0
  5  6  2  0
  7  5  1  0
  8  7  1  0
  8  9  1  6
 10 14  1  0
 10  9  1  0
 11 10  2  0
 12 11  1  0
 12 13  1  0
 13 14  2  0
 15  8  1  0
 16 15  2  0
 18 17  1  0
 19 18  1  0
 20 19  1  0
 21 20  1  1
 21 22  1  0
 22 15  1  0
 23 21  1  0
 24 23  1  0
 25 23  2  0
M  END
$$$$
