SHM.pdb
     RDKit          3D

 25 25  0  0  1  0  0  0  0  0999 V2000
    9.5982  -15.8568   16.4530 O   0  0  0  0  0  0  0  0  0  0  0  0
    8.9845  -16.0633   17.6870 C   0  0  0  0  0  0  0  0  0  0  0  0
    9.0705  -17.5394   18.0824 C   0  0  2  0  0  0  0  0  0  0  0  0
    8.3237  -18.3348   17.1623 N   0  0  0  0  0  0  0  0  0  0  0  0
    8.6962  -17.7396   19.4934 C   0  0  0  0  0  0  0  0  0  0  0  0
    7.4818  -17.8701   19.7968 O   0  0  0  0  0  0  0  0  0  0  0  0
    9.6247  -17.7982   20.5659 N   0  0  0  0  0  0  0  0  0  0  0  0
    9.2650  -18.0433   21.9410 C   0  0  1  0  0  0  0  0  0  0  0  0
    9.9857  -19.2163   22.5400 C   0  0  0  0  0  0  0  0  0  0  0  0
    9.4649  -20.5157   22.0687 C   0  0  0  0  0  0  0  0  0  0  0  0
    8.4960  -21.3298   22.6065 C   0  0  0  0  0  0  0  0  0  0  0  0
    8.3355  -22.4251   21.8483 N   0  0  0  0  0  0  0  0  0  0  0  0
    9.2020  -22.3060   20.8300 C   0  0  0  0  0  0  0  0  0  0  0  0
    9.8837  -21.1549   20.9619 N   0  0  0  0  0  0  0  0  0  0  0  0
    9.6399  -16.8370   22.7287 C   0  0  0  0  0  0  0  0  0  0  0  0
   10.7403  -16.2415   22.5868 O   0  0  0  0  0  0  0  0  0  0  0  0
    6.2779  -11.1602   27.1512 C   0  0  0  0  0  0  0  0  0  0  0  0
    6.2678  -12.5788   26.0931 S   0  0  0  0  0  0  0  0  0  0  0  0
    7.8460  -13.3249   25.7959 C   0  0  0  0  0  0  0  0  0  0  0  0
    7.7840  -14.4401   24.8249 C   0  0  0  0  0  0  0  0  0  0  0  0
    9.0795  -15.0953   24.4772 C   0  0  2  0  0  0  0  0  0  0  0  0
    8.7462  -16.2992   23.6950 N   0  0  0  0  0  0  0  0  0  0  0  0
    9.7536  -15.6281   25.7044 C   0  0  0  0  0  0  0  0  0  0  0  0
   10.6721  -14.8344   26.4112 O   0  0  0  0  0  0  0  0  0  0  0  0
    9.5455  -16.7713   26.1561 O   0  0  0  0  0  0  0  0  0  0  0  0
  2  1  1  0
  2  3  1  0
  3  4  1  6
  5  3  1  0
  5  6  2  0
  7  5  1  0
  8  7  1  0
  8  9  1  1
 10 14  1  0
 10  9  1  0
 11 10  2  0
 12 11  1  0
 12 13  1  0
 13 14  2  0
 15  8  1  0
 16 15  2  0
 18 17  1  0
 19 18  1  0
 20 19  1  0
 21 20  1  1
 21 22  1  0
 22 15  1  0
 23 21  1  0
 24 23  1  0
 25 23  2  0
M  END
$$$$
