SHM.pdb
     RDKit          3D

 25 25  0  0  1  0  0  0  0  0999 V2000
    9.9115  -11.5924   18.9068 O   0  0  0  0  0  0  0  0  0  0  0  0
    9.1487  -12.3768   19.7699 C   0  0  0  0  0  0  0  0  0  0  0  0
    8.9564  -13.7777   19.1843 C   0  0  2  0  0  0  0  0  0  0  0  0
    8.0382  -13.7280   18.0928 N   0  0  0  0  0  0  0  0  0  0  0  0
    8.5970  -14.7516   20.2298 C   0  0  0  0  0  0  0  0  0  0  0  0
    7.3858  -15.0393   20.4146 O   0  0  0  0  0  0  0  0  0  0  0  0
    9.5367  -15.4083   21.0674 N   0  0  0  0  0  0  0  0  0  0  0  0
    9.1915  -16.3991   22.0571 C   0  0  1  0  0  0  0  0  0  0  0  0
    9.9242  -17.6968   21.8745 C   0  0  0  0  0  0  0  0  0  0  0  0
    9.4147  -18.4922   20.7389 C   0  0  0  0  0  0  0  0  0  0  0  0
    8.3041  -19.2981   20.6490 C   0  0  0  0  0  0  0  0  0  0  0  0
    8.2178  -19.8354   19.4226 N   0  0  0  0  0  0  0  0  0  0  0  0
    9.2727  -19.3709   18.7348 C   0  0  0  0  0  0  0  0  0  0  0  0
    9.9953  -18.5607   19.5276 N   0  0  0  0  0  0  0  0  0  0  0  0
    9.5675  -15.8560   23.3913 C   0  0  0  0  0  0  0  0  0  0  0  0
   10.6325  -15.2157   23.5943 O   0  0  0  0  0  0  0  0  0  0  0  0
    6.1494  -10.9295   26.5591 C   0  0  0  0  0  0  0  0  0  0  0  0
    6.3302  -12.6693   26.8292 S   0  0  0  0  0  0  0  0  0  0  0  0
    7.7597  -13.4144   26.0962 C   0  0  0  0  0  0  0  0  0  0  0  0
    7.8766  -14.8587   26.3972 C   0  0  0  0  0  0  0  0  0  0  0  0
    9.0796  -15.5580   25.8566 C   0  0  2  0  0  0  0  0  0  0  0  0
    8.7159  -16.0453   24.5140 N   0  0  0  0  0  0  0  0  0  0  0  0
    9.3664  -16.8050   26.6359 C   0  0  0  0  0  0  0  0  0  0  0  0
   10.0802  -16.7388   27.8439 O   0  0  0  0  0  0  0  0  0  0  0  0
    8.9998  -17.9388   26.2695 O   0  0  0  0  0  0  0  0  0  0  0  0
  2  1  1  0
  2  3  1  0
  3  4  1  6
  5  3  1  0
  5  6  2  0
  7  5  1  0
  8  7  1  0
  8  9  1  6
 10 14  1  0
 10  9  1  0
 11 10  2  0
 12 11  1  0
 12 13  1  0
 13 14  2  0
 15  8  1  0
 16 15  2  0
 18 17  1  0
 19 18  1  0
 20 19  1  0
 21 20  1  1
 21 22  1  0
 22 15  1  0
 23 21  1  0
 24 23  1  0
 25 23  2  0
M  END
$$$$
