PCS.pdb
     RDKit          3D

 20 20  0  0  1  0  0  0  0  0999 V2000
   23.1331  -10.5279  -19.0351 N   0  0  0  0  0  0  0  0  0  0  0  0
   23.2102  -11.4197  -20.1753 C   0  0  0  0  0  0  0  0  0  0  0  0
   21.9387  -12.2131  -20.0687 C   0  0  0  0  0  0  0  0  0  0  0  0
   20.9801  -11.2867  -19.3560 C   0  0  0  0  0  0  0  0  0  0  0  0
   21.7896  -10.0316  -19.1098 C   0  0  1  0  0  0  0  0  0  0  0  0
   21.3902   -9.3894  -17.8128 C   0  0  0  0  0  0  0  0  0  0  0  0
   20.2018   -8.9840  -17.6098 O   0  0  0  0  0  0  0  0  0  0  0  0
   22.3067   -9.2010  -16.7523 N   0  0  0  0  0  0  0  0  0  0  0  0
   21.9643   -8.6272  -15.4668 C   0  0  1  0  0  0  0  0  0  0  0  0
   22.6045   -9.3851  -14.3533 C   0  0  0  0  0  0  0  0  0  0  0  0
   21.7076  -10.9568  -14.1322 S   0  0  0  0  0  0  0  0  0  0  0  0
   22.1828   -7.1745  -15.4238 C   0  0  0  0  0  0  0  0  0  0  0  0
   23.2840   -6.7421  -15.8436 O   0  0  0  0  0  0  0  0  0  0  0  0
   19.2448   -4.4455  -14.1942 O   0  0  0  0  0  0  0  0  0  0  0  0
   20.1355   -4.0795  -15.1837 C   0  0  0  0  0  0  0  0  0  0  0  0
   21.4250   -4.8438  -14.9743 C   0  0  2  0  0  0  0  0  0  0  0  0
   21.2046   -6.2724  -14.9322 N   0  0  0  0  0  0  0  0  0  0  0  0
   22.1431   -4.3580  -13.7792 C   0  0  0  0  0  0  0  0  0  0  0  0
   22.3695   -5.0858  -12.7813 O   0  0  0  0  0  0  0  0  0  0  0  0
   22.5849   -3.0434  -13.7609 O   0  0  0  0  0  0  0  0  0  0  0  0
  2  1  1  0
  3  2  1  0
  4  3  1  0
  4  5  1  0
  5  1  1  0
  5  6  1  1
  7  6  2  0
  8  6  1  0
  9  8  1  0
  9 12  1  0
  9 10  1  1
 11 10  1  0
 12 17  1  0
 13 12  2  0
 15 14  1  0
 16 15  1  1
 16 18  1  0
 17 16  1  0
 18 19  2  0
 18 20  1  0
M  END
$$$$
